data_PCOD9297454
_publ_section_title
;
Structure prediction by ZEFSAII (Michael W. Deem and Ramdas Pophale) SiO2 
 PCOD9297454
Probable space group: C 2/C
;
_chemical_formula_sum "Si O2"
_cell_formula_units_Z 48
_cell_length_a 6.838268
_cell_length_b 13.023277
_cell_length_c 25.889168
_cell_angle_alpha 90.000000
_cell_angle_beta 119.217605
_cell_angle_gamma 90.000000
_cell_volume 2012.265867
_symmetry_space_group_name_H-M "C 2/C"
_symmetry_group_IT_number 15
_symmetry_cell_setting 'monoclinic'
loop_
_space_group_symop_operation_xyz
x,y,z
-x,y,1/2-z
-x,-y,-z
x,-y,1/2+z
1/2+x,1/2+y,z
1/2-x,1/2+y,1/2-z
1/2-x,1/2-y,-z
1/2+x,1/2-y,1/2+z
loop_
_atom_site_type_symbol
_atom_site_label
_atom_site_fract_x
_atom_site_fract_y
_atom_site_fract_z
Si Si1 0.247297 0.291523 0.802816
Si Si2 0.397148 0.248362 0.930720
Si Si3 0.206108 0.104238 0.537561
Si Si4 0.802064 0.566686 0.764442
Si Si5 0.680526 0.550498 0.948233
Si Si6 0.608337 0.535018 0.331624
O O1 0.248062 0.291645 0.865349
O O2 0.307476 0.178472 0.790132
O O3 0.449297 0.365934 0.810850
O O4 0.000000 0.317612 0.750000
O O5 0.596448 0.183889 0.928839
O O6 0.275918 0.163185 0.949931
O O7 0.515605 0.334456 0.980430
O O8 0.082855 0.063241 0.572086
O O9 0.278743 0.011303 0.509589
O O10 0.570080 0.555867 0.702919
O O11 0.784754 0.482668 0.808439
O O12 0.000000 0.551165 0.750000
O O13 0.708064 0.482904 0.900597
#
# Coordination Sequence:
#
# PCOD9297454 Si02
#       6
#     8   8   8   8   8   8
#     4  12  24  47  75 104 144 194 240 299 366 434
#     4  11  22  44  68 101 140 182 241 289 350 422
#     4  10  24  40  68 102 139 190 232 288 350 421
#     4  11  25  46  70 101 141 184 242 300 361 428
#     4  11  21  42  67 101 146 183 234 290 355 420
#     4  11  24  45  68 103 144 188 241 293 366 437
#
# _framework density 23.853705999999999
#
# number of rings (size 3 to 8) (size 9 to 14) (size 15 to 20)
#    0.000    1.000    5.000    1.500    4.667    0.000 
#    0.000    0.000    3.667    0.000    0.000    0.000 
#    0.000    0.000    0.000    0.000    0.000    0.000 
#
# Total GULP energy -134339.483927 kJ/mol
# GULP energy per Si atom -5597.478497 kJ/mol
# Density = 2.379941 g / cm^3
# Si number density = 23.853706 Si / 1000 Ang^3
#
#
#
# Elastic Constant Matrix: (Units=GPa)
#
#
# Indices 1 2 3 4 5 6 
#
# 1 134.9739 43.5126 42.4888 0.0000 -13.3754 0.0000
# 2 43.5126 126.3229 26.8681 0.0000 -4.8168 0.0000
# 3 42.4888 26.8681 93.5623 0.0000 -0.1846 0.0000
# 4 0.0000 0.0000 0.0000 15.8028 0.0000 -1.4805
# 5 -13.3754 -4.8168 -0.1846 0.0000 25.5626 0.0000
# 6 0.0000 0.0000 0.0000 -1.4805 0.0000 41.5437
#
#
#
# Elastic Compliance Matrix: (Units=1/GPa)
#
#
# Indices 1 2 3 4 5 6 
#
# 1 0.009832 -0.002408 -0.003764 0.000000 0.004664 0.000000
# 2 -0.002408 0.009085 -0.001514 0.000000 0.000441 0.000000
# 3 -0.003764 -0.001514 0.012828 0.000000 -0.002162 0.000000
# 4 0.000000 0.000000 0.000000 0.063492 0.000000 0.002263
# 5 0.004664 0.000441 -0.002162 0.000000 0.041627 0.000000
# 6 0.000000 0.000000 0.000000 0.002263 0.000000 0.024152
#
#
# Mechanical properties :
#
#
# Convention : Reuss Voigt Hill
#
# Bulk Modulus (GPa) = 61.08247 64.51089 62.79668
# Shear Modulus (GPa) = 27.49562 32.71445 30.10504
#
# Velocity S-wave (km/s) = 3.39879 3.70734 3.55642
# Velocity P-wave (km/s) = 6.40821 6.74010 6.57625
#
# Compressibility (1/GPa) = 0.01637131
#
# Stress axis : x y z
#
# Youngs Moduli (GPa) = 101.70488 110.07563 77.95376
#
# Poissons Ratio (x) = 0.26510 0.29344
# Poissons Ratio (y) = 0.24494 0.11804
# Poissons Ratio (z) = 0.38285 0.16668
#
# Static dielectric constant tensor:
#      x y z
#    x 1.939750 0.000000 0.004190 
#    y 0.000000 1.906610 0.000000 
#    z 0.004190 0.000000 1.899230 
# 
# From -- ./inp_files/305495.got.cif
#   From: 2010.05.17/outbox.cif.g08.bks.cpg/sg15_153_cif.got.tgz:305495.got - 2010.06.03 18:47:42.
