data_PCOD9297928
_publ_section_title
;
Structure prediction by ZEFSAII (Michael W. Deem and Ramdas Pophale) SiO2 
 PCOD9297928
Probable space group: C 2/C
;
_chemical_formula_sum "Si O2"
_cell_formula_units_Z 20
_cell_length_a 21.941285
_cell_length_b 4.677491
_cell_length_c 9.544485
_cell_angle_alpha 90.000000
_cell_angle_beta 54.480210
_cell_angle_gamma 90.000000
_cell_volume 797.272006
_symmetry_space_group_name_H-M "C 2/C"
_symmetry_group_IT_number 15
_symmetry_cell_setting 'monoclinic'
loop_
_space_group_symop_operation_xyz
x,y,z
-x,y,1/2-z
-x,-y,-z
x,-y,1/2+z
1/2+x,1/2+y,z
1/2-x,1/2+y,1/2-z
1/2-x,1/2-y,-z
1/2+x,1/2-y,1/2+z
loop_
_atom_site_type_symbol
_atom_site_label
_atom_site_fract_x
_atom_site_fract_y
_atom_site_fract_z
Si Si1 0.941793 0.821323 0.170570
Si Si2 0.500000 0.223535 0.750000
Si Si3 0.222560 0.698524 0.196862
O O1 0.974719 0.517215 0.171974
O O2 0.864963 0.770422 0.194339
O O3 0.933866 0.037923 0.314434
O O4 0.000000 0.000000 0.000000
O O5 0.234869 0.384275 0.242315
O O6 0.250000 0.750000 0.000000
#
# Coordination Sequence:
#
# PCOD9297928 Si02
#       3
#     8   4   8
#     4  11  25  44  76 104 148 200 253 313 376 456
#     4  10  24  42  72 104 144 180 262 298 380 422
#     4  12  29  50  79 112 158 202 256 315 390 455
#
# _framework density 25.085540999999999
#
# number of rings (size 3 to 8) (size 9 to 14) (size 15 to 20)
#    0.000    0.800    0.000    4.800   16.800    0.000 
#    0.000    0.000    0.000    0.000    0.000    0.000 
#    0.000    0.000    0.000    0.000    0.000    0.000 
#
# Total GULP energy -55731.901448 kJ/mol
# GULP energy per Si atom -5573.190145 kJ/mol
# Density = 2.502844 g / cm^3
# Si number density = 25.085541 Si / 1000 Ang^3
#
#
#
# Elastic Constant Matrix: (Units=GPa)
#
#
# Indices 1 2 3 4 5 6 
#
# 1 168.0047 7.4481 7.3906 0.0000 14.0291 0.0000
# 2 7.4481 163.4660 -13.9175 0.0000 15.5444 0.0000
# 3 7.3906 -13.9175 100.3943 0.0000 22.6320 0.0000
# 4 0.0000 0.0000 0.0000 37.3947 0.0000 38.7681
# 5 14.0291 15.5444 22.6320 0.0000 31.4687 0.0000
# 6 0.0000 0.0000 0.0000 38.7681 0.0000 59.3305
#
#
#
# Elastic Compliance Matrix: (Units=1/GPa)
#
#
# Indices 1 2 3 4 5 6 
#
# 1 0.006186 0.000012 0.000202 0.000000 -0.002909 0.000000
# 2 0.000012 0.006743 0.002012 0.000000 -0.004783 0.000000
# 3 0.000202 0.002012 0.012495 0.000000 -0.010070 0.000000
# 4 0.000000 0.000000 0.000000 0.082901 0.000000 -0.054169
# 5 -0.002909 -0.004783 -0.010070 0.000000 0.042680 0.000000
# 6 0.000000 0.000000 0.000000 -0.054169 0.000000 0.052250
#
#
# Mechanical properties :
#
#
# Convention : Reuss Voigt Hill
#
# Bulk Modulus (GPa) = 33.47138 48.18969 40.83054
# Shear Modulus (GPa) = 23.95086 54.36837 39.15962
#
# Velocity S-wave (km/s) = 3.09328 4.66050 3.95529
# Velocity P-wave (km/s) = 5.11173 6.94350 6.09680
#
# Compressibility (1/GPa) = 0.02987627
#
# Stress axis : x y z
#
# Youngs Moduli (GPa) = 161.66320 148.29939 80.03231
#
# Poissons Ratio (x) = -0.00178 -0.01617
# Poissons Ratio (y) = -0.00194 -0.16104
# Poissons Ratio (z) = -0.03266 -0.29841
#
# Static dielectric constant tensor:
#      x y z
#    x 1.970030 0.000000 0.183980 
#    y 0.000000 2.019680 0.000000 
#    z 0.183980 0.000000 2.931140 
# 
# From -- ./inp_files/53091.got.cif
#   From: 2010.05.17/outbox.cif.g08.bks.cpg/sg15_27_cif.got.tgz:53091.got - 2010.06.03 18:47:42.
