data_PCOD9297527
_publ_section_title
;
Structure prediction by ZEFSAII (Michael W. Deem and Ramdas Pophale) SiO2 
 PCOD9297527
Probable space group: C 2/C
;
_chemical_formula_sum "Si O2"
_cell_formula_units_Z 60
_cell_length_a 9.003590
_cell_length_b 25.658377
_cell_length_c 12.829724
_cell_angle_alpha 90.000000
_cell_angle_beta 120.541937
_cell_angle_gamma 90.000000
_cell_volume 2552.673053
_symmetry_space_group_name_H-M "C 2/C"
_symmetry_group_IT_number 15
_symmetry_cell_setting 'monoclinic'
loop_
_space_group_symop_operation_xyz
x,y,z
-x,y,1/2-z
-x,-y,-z
x,-y,1/2+z
1/2+x,1/2+y,z
1/2-x,1/2+y,1/2-z
1/2-x,1/2-y,-z
1/2+x,1/2-y,1/2+z
loop_
_atom_site_type_symbol
_atom_site_label
_atom_site_fract_x
_atom_site_fract_y
_atom_site_fract_z
Si Si1 0.666172 0.521214 0.881050
Si Si2 0.882651 0.631257 0.406916
Si Si3 0.704103 0.095186 0.405961
Si Si4 0.719282 0.420296 0.033691
Si Si5 0.530687 0.676755 0.038030
Si Si6 0.549199 0.238397 0.391924
Si Si7 0.313944 0.997657 0.231085
Si Si8 0.500000 0.327914 0.750000
O O1 0.500000 0.525241 0.750000
O O2 0.652445 0.471468 0.949983
O O3 0.815309 0.506172 0.853993
O O4 0.707048 0.572985 0.958094
O O5 0.002513 0.599907 0.367064
O O6 0.875360 0.603714 0.518377
O O7 0.677528 0.638339 0.310902
O O8 0.968574 0.688337 0.423164
O O9 0.084180 0.125529 0.494242
O O10 0.760578 0.051378 0.342303
O O11 0.742979 0.444314 0.156582
O O12 0.722502 0.652175 0.094055
O O13 0.509279 0.703058 0.144230
O O14 0.750000 0.750000 0.000000
O O15 0.467911 0.711219 0.920185
O O16 0.500000 0.237008 0.250000
O O17 0.500000 0.998651 0.250000
#
# Coordination Sequence:
#
# PCOD9297527 Si02
#       8
#     8   8   8   8   8   8   8   4
#     4  11  23  40  65  99 146 191 240 297 360 443
#     4  11  24  45  72 101 142 182 246 308 369 443
#     4  11  24  40  69 103 137 190 243 295 366 438
#     4  10  24  41  61 104 143 186 246 295 367 441
#     4  11  24  44  70 106 140 190 243 310 373 448
#     4  12  27  51  80 116 150 193 253 317 378 459
#     4  11  23  38  63  96 141 191 238 294 359 432
#     4  10  26  42  74 104 140 182 248 306 376 442
#
# _framework density 23.504771999999999
#
# number of rings (size 3 to 8) (size 9 to 14) (size 15 to 20)
#    0.000    1.067    1.333    4.000    9.333    8.000 
#    2.400    0.000    0.000    0.000    0.000    0.000 
#    0.000    0.000    0.000    0.000    0.000    0.000 
#
# Total GULP energy -167398.140397 kJ/mol
# GULP energy per Si atom -5579.938013 kJ/mol
# Density = 2.345127 g / cm^3
# Si number density = 23.504772 Si / 1000 Ang^3
#
#
#
# Elastic Constant Matrix: (Units=GPa)
#
#
# Indices 1 2 3 4 5 6 
#
# 1 111.3503 34.8037 7.4222 0.0000 -4.7598 0.0000
# 2 34.8037 83.2938 47.4503 0.0000 -1.5545 0.0000
# 3 7.4222 47.4503 78.1967 0.0000 -12.2333 0.0000
# 4 0.0000 0.0000 0.0000 14.5746 0.0000 -6.7972
# 5 -4.7598 -1.5545 -12.2333 0.0000 31.7215 0.0000
# 6 0.0000 0.0000 0.0000 -6.7972 0.0000 28.5754
#
#
#
# Elastic Compliance Matrix: (Units=1/GPa)
#
#
# Indices 1 2 3 4 5 6 
#
# 1 0.010848 -0.006305 0.003196 0.000000 0.002551 0.000000
# 2 -0.006305 0.022411 -0.013810 0.000000 -0.005174 0.000000
# 3 0.003196 -0.013810 0.022172 0.000000 0.008353 0.000000
# 4 0.000000 0.000000 0.000000 0.077174 0.000000 0.018357
# 5 0.002551 -0.005174 0.008353 0.000000 0.034875 0.000000
# 6 0.000000 0.000000 0.000000 0.018357 0.000000 0.039362
#
#
# Mechanical properties :
#
#
# Convention : Reuss Voigt Hill
#
# Bulk Modulus (GPa) = 46.31627 50.24369 48.27998
# Shear Modulus (GPa) = 20.17123 27.18527 23.67825
#
# Velocity S-wave (km/s) = 2.93264 3.40455 3.17737
# Velocity P-wave (km/s) = 5.58704 6.07264 5.83489
#
# Compressibility (1/GPa) = 0.02159069
#
# Stress axis : x y z
#
# Youngs Moduli (GPa) = 92.18684 44.62078 45.10230
#
# Poissons Ratio (x) = 0.28135 -0.14413
# Poissons Ratio (y) = 0.58128 0.62287
# Poissons Ratio (z) = -0.29460 0.61622
#
# Static dielectric constant tensor:
#      x y z
#    x 2.056530 0.000000 -0.056020 
#    y 0.000000 1.899940 0.000000 
#    z -0.056020 0.000000 1.826200 
# 
# From -- ./inp_files/82636.got.cif
#   From: 2010.05.17/outbox.cif.g08.bks.cpg/sg15_42_cif.got.tgz:82636.got - 2010.06.03 18:47:42.
