data_PCOD9297042
_publ_section_title
;
Structure prediction by ZEFSAII (Michael W. Deem and Ramdas Pophale) SiO2 
 PCOD9297042
Probable space group: C 2/C
;
_chemical_formula_sum "Si O2"
_cell_formula_units_Z 40
_cell_length_a 17.329232
_cell_length_b 14.439672
_cell_length_c 15.035610
_cell_angle_alpha 90.000000
_cell_angle_beta 22.260529
_cell_angle_gamma 90.000000
_cell_volume 1425.243597
_symmetry_space_group_name_H-M "C 2/C"
_symmetry_group_IT_number 15
_symmetry_cell_setting 'monoclinic'
loop_
_space_group_symop_operation_xyz
x,y,z
-x,y,1/2-z
-x,-y,-z
x,-y,1/2+z
1/2+x,1/2+y,z
1/2-x,1/2+y,1/2-z
1/2-x,1/2-y,-z
1/2+x,1/2-y,1/2+z
loop_
_atom_site_type_symbol
_atom_site_label
_atom_site_fract_x
_atom_site_fract_y
_atom_site_fract_z
Si Si1 0.209535 0.278803 0.644884
Si Si2 0.280803 0.468064 0.790374
Si Si3 0.327010 0.512127 0.046585
Si Si4 0.414033 0.266772 0.584422
Si Si5 0.908485 0.361168 0.260800
O O1 0.250000 0.250000 0.500000
O O2 0.223029 0.391770 0.631844
O O3 0.170540 0.253967 0.801549
O O4 0.953894 0.248851 0.924775
O O5 0.432540 0.525102 0.690957
O O6 0.241661 0.514940 0.736700
O O7 0.393687 0.373425 0.639363
O O8 0.079936 0.437503 0.053488
O O9 0.286892 0.426780 0.024536
O O10 0.381998 0.206415 0.707778
O O11 0.000000 0.312942 0.250000
#
# Coordination Sequence:
#
# PCOD9297042 Si02
#       5
#     8   8   8   8   8
#     4  11  24  45  72 106 140 191 241 310 369 437
#     4  10  23  47  72 102 142 194 241 303 365 437
#     4  10  23  47  72 101 145 192 242 303 365 437
#     4  11  22  46  70 102 141 186 245 295 370 434
#     4  12  26  45  72 107 144 195 242 305 367 442
#
# _framework density 28.065377000000002
#
# number of rings (size 3 to 8) (size 9 to 14) (size 15 to 20)
#    0.000    1.200    4.000    2.400    0.000    3.200 
#   18.000    0.000    0.000    0.000    0.000    0.000 
#    0.000    0.000    0.000    0.000    0.000    0.000 
#
# Total GULP energy -111897.258741 kJ/mol
# GULP energy per Si atom -5594.862937 kJ/mol
# Density = 2.800150 g / cm^3
# Si number density = 28.065377 Si / 1000 Ang^3
#
#
#
# Elastic Constant Matrix: (Units=GPa)
#
#
# Indices 1 2 3 4 5 6 
#
# 1 274.8260 75.2259 45.2378 0.0033 -0.9404 -0.0014
# 2 75.2259 131.5857 26.8951 0.0095 -3.4172 -0.0085
# 3 45.2378 26.8951 139.7266 -0.0198 -7.2685 -0.0047
# 4 0.0033 0.0095 -0.0198 34.3150 -0.0030 -17.4863
# 5 -0.9404 -3.4172 -7.2685 -0.0030 45.0617 0.0063
# 6 -0.0014 -0.0085 -0.0047 -17.4863 0.0063 51.3984
#
#
#
# Elastic Compliance Matrix: (Units=1/GPa)
#
#
# Indices 1 2 3 4 5 6 
#
# 1 0.004444 -0.002342 -0.001001 -0.000001 -0.000246 -0.000001
# 2 -0.002342 0.009151 -0.000978 -0.000003 0.000487 0.000000
# 3 -0.001001 -0.000978 0.007729 0.000006 0.001152 0.000002
# 4 -0.000001 -0.000003 0.000006 0.035254 0.000001 0.011994
# 5 -0.000246 0.000487 0.001152 0.000001 0.022409 -0.000002
# 6 -0.000001 0.000000 0.000002 0.011994 -0.000002 0.023536
#
#
# Mechanical properties :
#
#
# Convention : Reuss Voigt Hill
#
# Bulk Modulus (GPa) = 78.84948 93.42843 86.13895
# Shear Modulus (GPa) = 43.33068 52.74031 48.03549
#
# Velocity S-wave (km/s) = 3.93354 4.33967 4.14159
# Velocity P-wave (km/s) = 6.98471 7.64671 7.32319
#
# Compressibility (1/GPa) = 0.01268239
#
# Stress axis : x y z
#
# Youngs Moduli (GPa) = 225.03962 109.27586 129.38425
#
# Poissons Ratio (x) = 0.25595 0.12947
# Poissons Ratio (y) = 0.52710 0.12651
# Poissons Ratio (z) = 0.22518 0.10685
#
# Static dielectric constant tensor:
#      x y z
#    x 2.277410 -0.000010 -0.073180 
#    y -0.000010 2.044660 0.000010 
#    z -0.073180 0.000010 2.264000 
# 
# From -- ./inp_files/162439.got.cif
#   From: 2010.05.17/outbox.cif.g08.bks.cpg/sg15_82_cif.got.tgz:162439.got - 2010.06.03 18:47:42.
