data_PCOD9297084
_publ_section_title
;
Structure prediction by ZEFSAII (Michael W. Deem and Ramdas Pophale) SiO2 
 PCOD9297084
Probable space group: C 2/C
;
_chemical_formula_sum "Si O2"
_cell_formula_units_Z 40
_cell_length_a 25.662634
_cell_length_b 10.104413
_cell_length_c 15.551228
_cell_angle_alpha 90.000000
_cell_angle_beta 154.336018
_cell_angle_gamma 90.000000
_cell_volume 1746.456301
_symmetry_space_group_name_H-M "C 2/C"
_symmetry_group_IT_number 15
_symmetry_cell_setting 'monoclinic'
loop_
_space_group_symop_operation_xyz
x,y,z
-x,y,1/2-z
-x,-y,-z
x,-y,1/2+z
1/2+x,1/2+y,z
1/2-x,1/2+y,1/2-z
1/2-x,1/2-y,-z
1/2+x,1/2-y,1/2+z
loop_
_atom_site_type_symbol
_atom_site_label
_atom_site_fract_x
_atom_site_fract_y
_atom_site_fract_z
Si Si1 0.361044 0.839875 0.199617
Si Si2 0.000000 0.593629 0.750000
Si Si3 0.256266 0.523472 0.684561
Si Si4 0.144014 0.255033 0.117311
Si Si5 0.286928 0.403804 0.045312
Si Si6 0.500000 0.663645 0.750000
O O1 0.464047 0.825844 0.281633
O O2 0.395055 0.798965 0.346175
O O3 0.250000 0.750000 0.000000
O O4 0.317326 0.992883 0.135482
O O5 0.879932 0.513242 0.547341
O O6 0.245671 0.646251 0.732714
O O7 0.309079 0.393813 0.805905
O O8 0.325639 0.555025 0.699326
O O9 0.042879 0.251055 0.894098
O O10 0.389778 0.416244 0.126704
O O11 0.250000 0.250000 0.000000
#
# Coordination Sequence:
#
# PCOD9297084 Si02
#       6
#     8   4   8   8   8   4
#     4  11  24  48  73 109 141 184 246 302 349 428
#     4  10  23  47  78 100 143 191 238 292 367 421
#     4  11  25  46  73 107 144 188 242 294 353 437
#     4  12  25  47  73 110 145 191 241 294 357 430
#     4  11  24  47  72 104 148 184 243 298 351 433
#     4  12  27  45  74 104 147 199 232 292 375 411
#
# _framework density 22.903521999999999
#
# number of rings (size 3 to 8) (size 9 to 14) (size 15 to 20)
#    0.000    0.800    6.000    1.800    2.800    4.000 
#    3.600    0.000    0.000    0.000    0.000    0.000 
#    0.000    0.000    0.000    0.000    0.000    0.000 
#
# Total GULP energy -111840.621803 kJ/mol
# GULP energy per Si atom -5592.031090 kJ/mol
# Density = 2.285139 g / cm^3
# Si number density = 22.903522 Si / 1000 Ang^3
#
#
#
# Elastic Constant Matrix: (Units=GPa)
#
#
# Indices 1 2 3 4 5 6 
#
# 1 233.6282 40.5366 48.5162 0.0000 -13.0151 0.0000
# 2 40.5366 118.9779 25.7590 0.0000 -19.8047 0.0000
# 3 48.5162 25.7590 62.6970 0.0000 -18.6552 0.0000
# 4 0.0000 0.0000 0.0000 19.6712 0.0000 -9.8426
# 5 -13.0151 -19.8047 -18.6552 0.0000 47.7203 0.0000
# 6 0.0000 0.0000 0.0000 -9.8426 0.0000 25.1876
#
#
#
# Elastic Compliance Matrix: (Units=1/GPa)
#
#
# Indices 1 2 3 4 5 6 
#
# 1 0.005213 -0.001044 -0.003747 0.000000 -0.000476 0.000000
# 2 -0.001044 0.009742 -0.002350 0.000000 0.002840 0.000000
# 3 -0.003747 -0.002350 0.021750 0.000000 0.006506 0.000000
# 4 0.000000 0.000000 0.000000 0.063191 0.000000 0.024693
# 5 -0.000476 0.002840 0.006506 0.000000 0.024547 0.000000
# 6 0.000000 0.000000 0.000000 0.024693 0.000000 0.049351
#
#
# Mechanical properties :
#
#
# Convention : Reuss Voigt Hill
#
# Bulk Modulus (GPa) = 44.59433 71.65851 58.12642
# Shear Modulus (GPa) = 25.56887 38.54858 32.05873
#
# Velocity S-wave (km/s) = 3.34484 4.10699 3.74535
# Velocity P-wave (km/s) = 5.86771 7.33791 6.64360
#
# Compressibility (1/GPa) = 0.02242438
#
# Stress axis : x y z
#
# Youngs Moduli (GPa) = 191.82850 102.64751 45.97708
#
# Poissons Ratio (x) = 0.10719 0.17226
# Poissons Ratio (y) = 0.20031 0.10802
# Poissons Ratio (z) = 0.71870 0.24117
#
# Static dielectric constant tensor:
#      x y z
#    x 1.868860 0.000000 0.003550 
#    y 0.000000 1.878390 0.000000 
#    z 0.003550 0.000000 1.898660 
# 
# From -- ./inp_files/221988.got.cif
#   From: 2010.05.17/outbox.cif.g08.bks.cpg/sg15_111_cif.got.tgz:221988.got - 2010.06.03 18:47:42.
