data_PCOD9297681
_publ_section_title
;
Structure prediction by ZEFSAII (Michael W. Deem and Ramdas Pophale) SiO2 
 PCOD9297681
Probable space group: C 2/C
;
_chemical_formula_sum "Si O2"
_cell_formula_units_Z 52
_cell_length_a 9.131504
_cell_length_b 13.400244
_cell_length_c 29.769773
_cell_angle_alpha 90.000000
_cell_angle_beta 141.745106
_cell_angle_gamma 90.000000
_cell_volume 2255.454936
_symmetry_space_group_name_H-M "C 2/C"
_symmetry_group_IT_number 15
_symmetry_cell_setting 'monoclinic'
loop_
_space_group_symop_operation_xyz
x,y,z
-x,y,1/2-z
-x,-y,-z
x,-y,1/2+z
1/2+x,1/2+y,z
1/2-x,1/2+y,1/2-z
1/2-x,1/2-y,-z
1/2+x,1/2-y,1/2+z
loop_
_atom_site_type_symbol
_atom_site_label
_atom_site_fract_x
_atom_site_fract_y
_atom_site_fract_z
Si Si1 0.292895 0.432191 0.260365
Si Si2 0.476841 0.166737 0.002350
Si Si3 0.395796 0.511911 0.081165
Si Si4 0.500000 0.580050 0.250000
Si Si5 0.500000 0.257241 0.250000
Si Si6 0.291524 0.658985 0.396914
Si Si7 0.614456 0.791802 0.630478
Si Si8 0.500000 0.144950 0.750000
O O1 0.442148 0.482347 0.336851
O O2 0.305610 0.512034 0.224679
O O3 0.386216 0.331958 0.259083
O O4 0.026788 0.418777 0.212315
O O5 0.700898 0.096953 0.045343
O O6 0.516816 0.227567 0.057912
O O7 0.431881 0.244701 0.951162
O O8 0.260520 0.089982 0.961343
O O9 0.549319 0.561677 0.077283
O O10 0.646247 0.644239 0.319955
O O11 0.680089 0.190814 0.322024
O O12 0.077935 0.658228 0.382791
O O13 0.750597 0.701135 0.687540
#
# Coordination Sequence:
#
# PCOD9297681 Si02
#       8
#     8   8   8   4   4   8   8   4
#     4  11  23  43  67 100 140 176 236 294 358 429
#     4  11  24  49  67  99 147 187 241 302 358 436
#     4  11  25  43  71 103 138 191 245 296 363 436
#     4  10  24  42  64 100 132 188 226 296 352 412
#     4  11  24  44  70  97 144 178 234 299 367 431
#     4  12  26  43  72 105 138 193 240 297 367 445
#     4  11  24  45  68  99 142 181 236 290 364 421
#     4  11  24  42  70 105 132 184 226 301 359 421
#
# _framework density 23.055215
#
# number of rings (size 3 to 8) (size 9 to 14) (size 15 to 20)
#    0.000    0.923    4.615    0.923    6.462    0.615 
#    2.769    0.000    0.000    0.000    0.000    0.000 
#    0.000    0.000    0.000    0.000    0.000    0.000 
#
# Total GULP energy -144812.266846 kJ/mol
# GULP energy per Si atom -5569.702571 kJ/mol
# Density = 2.300274 g / cm^3
# Si number density = 23.055215 Si / 1000 Ang^3
#
#
#
# Elastic Constant Matrix: (Units=GPa)
#
#
# Indices 1 2 3 4 5 6 
#
# 1 120.1895 30.3683 28.0838 0.0000 0.4463 0.0000
# 2 30.3683 46.7338 14.1904 0.0000 1.1737 0.0000
# 3 28.0838 14.1904 87.3302 0.0000 -15.3797 0.0000
# 4 0.0000 0.0000 0.0000 19.1542 0.0000 11.7590
# 5 0.4463 1.1737 -15.3797 0.0000 34.0929 0.0000
# 6 0.0000 0.0000 0.0000 11.7590 0.0000 26.1766
#
#
#
# Elastic Compliance Matrix: (Units=1/GPa)
#
#
# Indices 1 2 3 4 5 6 
#
# 1 0.010435 -0.005971 -0.002578 0.000000 -0.001094 0.000000
# 2 -0.005971 0.026144 -0.002686 0.000000 -0.002034 0.000000
# 3 -0.002578 -0.002686 0.013838 0.000000 0.006369 0.000000
# 4 0.000000 0.000000 0.000000 0.072088 0.000000 -0.032383
# 5 -0.001094 -0.002034 0.006369 0.000000 0.032289 0.000000
# 6 0.000000 0.000000 0.000000 -0.032383 0.000000 0.052749
#
#
# Mechanical properties :
#
#
# Convention : Reuss Voigt Hill
#
# Bulk Modulus (GPa) = 35.78189 44.39317 40.08753
# Shear Modulus (GPa) = 20.89159 27.99214 24.44187
#
# Velocity S-wave (km/s) = 3.01351 3.48822 3.25952
# Velocity P-wave (km/s) = 5.25947 5.95991 5.62062
#
# Compressibility (1/GPa) = 0.02794710
#
# Stress axis : x y z
#
# Youngs Moduli (GPa) = 95.82838 38.24917 72.26463
#
# Poissons Ratio (x) = 0.22837 0.18632
# Poissons Ratio (y) = 0.57216 0.19413
# Poissons Ratio (z) = 0.24708 0.10275
#
# Static dielectric constant tensor:
#      x y z
#    x 2.093440 0.000000 -0.095500 
#    y 0.000000 1.982080 0.000000 
#    z -0.095500 0.000000 2.106080 
# 
# From -- ./inp_files/264486.got.cif
#   From: 2010.05.17/outbox.cif.g08.bks.cpg/sg15_133_cif.got.tgz:264486.got - 2010.06.03 18:47:42.
