data_PCOD9297588
_publ_section_title
;
Structure prediction by ZEFSAII (Michael W. Deem and Ramdas Pophale) SiO2 
 PCOD9297588
Probable space group: C 2/C
;
_chemical_formula_sum "Si O2"
_cell_formula_units_Z 40
_cell_length_a 14.489658
_cell_length_b 11.817986
_cell_length_c 9.482669
_cell_angle_alpha 90.000000
_cell_angle_beta 71.322781
_cell_angle_gamma 90.000000
_cell_volume 1538.285722
_symmetry_space_group_name_H-M "C 2/C"
_symmetry_group_IT_number 15
_symmetry_cell_setting 'monoclinic'
loop_
_space_group_symop_operation_xyz
x,y,z
-x,y,1/2-z
-x,-y,-z
x,-y,1/2+z
1/2+x,1/2+y,z
1/2-x,1/2+y,1/2-z
1/2-x,1/2-y,-z
1/2+x,1/2-y,1/2+z
loop_
_atom_site_type_symbol
_atom_site_label
_atom_site_fract_x
_atom_site_fract_y
_atom_site_fract_z
Si Si1 0.844814 0.832510 0.276454
Si Si2 0.388431 0.998476 0.781977
Si Si3 0.023014 0.133047 0.513176
Si Si4 0.266168 0.962193 0.588785
Si Si5 0.659248 0.259772 0.727785
O O1 0.901101 0.837133 0.397597
O O2 0.748643 0.759888 0.294554
O O3 0.805976 0.960697 0.284337
O O4 0.923605 0.811428 0.116849
O O5 0.500000 0.967354 0.750000
O O6 0.374948 0.134946 0.799140
O O7 0.358076 0.950079 0.646399
O O8 0.308830 0.965376 0.938651
O O9 0.069221 0.183545 0.350906
O O10 0.000000 0.000000 0.500000
O O11 0.205891 0.847989 0.593348
#
# Coordination Sequence:
#
# PCOD9297588 Si02
#       5
#     8   8   8   8   8
#     4  10  24  41  67 102 137 184 230 286 351 405
#     4  11  26  44  69 101 136 183 233 282 344 412
#     4  11  22  42  68 100 137 184 236 284 342 415
#     4  11  23  46  69  97 143 182 227 287 346 407
#     4  11  24  42  69  99 140 178 230 287 347 407
#
# _framework density 26.002970000000001
#
# number of rings (size 3 to 8) (size 9 to 14) (size 15 to 20)
#    0.000    1.200    2.000    3.000    5.600    3.200 
#    3.600    0.000    0.000    0.000    0.000    0.000 
#    0.000    0.000    0.000    0.000    0.000    0.000 
#
# Total GULP energy -111907.986272 kJ/mol
# GULP energy per Si atom -5595.399314 kJ/mol
# Density = 2.594379 g / cm^3
# Si number density = 26.002970 Si / 1000 Ang^3
#
#
#
# Elastic Constant Matrix: (Units=GPa)
#
#
# Indices 1 2 3 4 5 6 
#
# 1 117.7151 0.8901 38.2641 0.0000 -0.9859 0.0000
# 2 0.8901 67.7915 -13.5549 0.0000 -15.3592 0.0000
# 3 38.2641 -13.5549 76.2270 0.0000 -15.4239 0.0000
# 4 0.0000 0.0000 0.0000 25.7102 0.0000 1.4592
# 5 -0.9859 -15.3592 -15.4239 0.0000 54.1183 0.0000
# 6 0.0000 0.0000 0.0000 1.4592 0.0000 23.7899
#
#
#
# Elastic Compliance Matrix: (Units=1/GPa)
#
#
# Indices 1 2 3 4 5 6 
#
# 1 0.010429 -0.001785 -0.005960 0.000000 -0.002015 0.000000
# 2 -0.001785 0.017268 0.005255 0.000000 0.006366 0.000000
# 3 -0.005960 0.005255 0.018385 0.000000 0.006623 0.000000
# 4 0.000000 0.000000 0.000000 0.039031 0.000000 -0.002394
# 5 -0.002015 0.006366 0.006623 0.000000 0.022135 0.000000
# 6 0.000000 0.000000 0.000000 -0.002394 0.000000 0.042182
#
#
# Mechanical properties :
#
#
# Convention : Reuss Voigt Hill
#
# Bulk Modulus (GPa) = 24.33098 34.77024 29.55061
# Shear Modulus (GPa) = 29.74209 36.46595 33.10402
#
# Velocity S-wave (km/s) = 3.38567 3.74889 3.57190
# Velocity P-wave (km/s) = 4.96599 5.66918 5.32920
#
# Compressibility (1/GPa) = 0.04109986
#
# Stress axis : x y z
#
# Youngs Moduli (GPa) = 95.88459 57.91216 54.39159
#
# Poissons Ratio (x) = 0.10339 0.32420
# Poissons Ratio (y) = 0.17119 -0.28582
# Poissons Ratio (z) = 0.57152 -0.30432
#
# Static dielectric constant tensor:
#      x y z
#    x 2.097160 0.000000 0.106380 
#    y 0.000000 2.057620 0.000000 
#    z 0.106380 0.000000 2.061210 
# 
# From -- ./inp_files/37797.got.cif
#   From: 2010.05.17/outbox.cif.g08.bks.cpg/sg15_19_cif.got.tgz:37797.got - 2010.06.03 18:47:42.
