data_PCOD9297340
_publ_section_title
;
Structure prediction by ZEFSAII (Michael W. Deem and Ramdas Pophale) SiO2 
 PCOD9297340
Probable space group: C 2/C
;
_chemical_formula_sum "Si O2"
_cell_formula_units_Z 32
_cell_length_a 9.329127
_cell_length_b 22.232252
_cell_length_c 13.644727
_cell_angle_alpha 90.000000
_cell_angle_beta 32.676190
_cell_angle_gamma 90.000000
_cell_volume 1527.900444
_symmetry_space_group_name_H-M "C 2/C"
_symmetry_group_IT_number 15
_symmetry_cell_setting 'monoclinic'
loop_
_space_group_symop_operation_xyz
x,y,z
-x,y,1/2-z
-x,-y,-z
x,-y,1/2+z
1/2+x,1/2+y,z
1/2-x,1/2+y,1/2-z
1/2-x,1/2-y,-z
1/2+x,1/2-y,1/2+z
loop_
_atom_site_type_symbol
_atom_site_label
_atom_site_fract_x
_atom_site_fract_y
_atom_site_fract_z
Si Si1 0.657866 0.818414 0.058010
Si Si2 0.055145 0.926862 0.852938
Si Si3 0.093380 0.057242 0.554880
Si Si4 0.914186 0.401094 0.051776
O O1 0.500000 0.827439 0.250000
O O2 0.750000 0.750000 0.000000
O O3 0.485602 0.838044 0.062406
O O4 0.899952 0.865513 0.922309
O O5 0.306278 0.931204 0.636850
O O6 0.152511 0.926518 0.909494
O O7 0.869906 0.985821 0.951987
O O8 0.252940 0.095908 0.542551
O O9 0.780860 0.067173 0.758279
#
# Coordination Sequence:
#
# PCOD9297340 Si02
#       4
#     8   8   8   8
#     4  12  26  46  68  95 130 178 232 277 332 407
#     4  11  23  41  67  99 135 177 214 275 328 402
#     4  10  24  39  67 101 140 169 216 274 339 398
#     4  11  23  41  65  97 136 174 222 269 339 389
#
# _framework density 20.943771999999999
#
# number of rings (size 3 to 8) (size 9 to 14) (size 15 to 20)
#    0.000    1.000    2.500    3.750   10.500    0.000 
#    0.000    1.250    5.500    0.000    0.000    0.000 
#    0.000    0.000    0.000    0.000    0.000    0.000 
#
# Total GULP energy -89410.793162 kJ/mol
# GULP energy per Si atom -5588.174573 kJ/mol
# Density = 2.089610 g / cm^3
# Si number density = 20.943772 Si / 1000 Ang^3
#
#
#
# Elastic Constant Matrix: (Units=GPa)
#
#
# Indices 1 2 3 4 5 6 
#
# 1 159.3390 64.8132 23.6580 -0.0002 17.6251 0.0000
# 2 64.8132 149.5073 19.1538 0.0001 -16.2684 0.0000
# 3 23.6580 19.1538 77.9303 -0.0008 8.7028 0.0001
# 4 -0.0002 0.0001 -0.0008 26.5081 0.0005 -2.8030
# 5 17.6251 -16.2684 8.7028 0.0005 33.3872 -0.0001
# 6 0.0000 0.0000 0.0001 -2.8030 -0.0001 37.3704
#
#
#
# Elastic Compliance Matrix: (Units=1/GPa)
#
#
# Indices 1 2 3 4 5 6 
#
# 1 0.008984 -0.004514 -0.000868 0.000000 -0.006716 0.000000
# 2 -0.004514 0.009712 -0.001865 0.000000 0.007601 0.000000
# 3 -0.000868 -0.001865 0.014012 0.000000 -0.004103 0.000000
# 4 0.000000 0.000000 0.000000 0.038026 -0.000001 0.002852
# 5 -0.006716 0.007601 -0.004103 -0.000001 0.038270 0.000000
# 6 0.000000 0.000000 0.000000 0.002852 0.000000 0.026973
#
#
# Mechanical properties :
#
#
# Convention : Reuss Voigt Hill
#
# Bulk Modulus (GPa) = 54.90632 66.89183 60.89907
# Shear Modulus (GPa) = 31.94012 38.06327 35.00170
#
# Velocity S-wave (km/s) = 3.90941 4.26773 4.09249
# Velocity P-wave (km/s) = 6.83015 7.50285 7.17439
#
# Compressibility (1/GPa) = 0.01821284
#
# Stress axis : x y z
#
# Youngs Moduli (GPa) = 111.31054 102.96818 71.36672
#
# Poissons Ratio (x) = 0.46482 0.06193
# Poissons Ratio (y) = 0.50248 0.13313
# Poissons Ratio (z) = 0.09659 0.19208
#
# Static dielectric constant tensor:
#      x y z
#    x 1.795780 0.000000 -0.029290 
#    y 0.000000 1.707000 0.000000 
#    z -0.029290 0.000000 1.779930 
# 
# From -- ./inp_files/137074.got.cif
#   From: 2010.05.17/outbox.cif.g08.bks.cpg/sg15_69_cif.got.tgz:137074.got - 2010.06.03 18:47:42.
