data_PCOD9297173
_publ_section_title
;
Structure prediction by ZEFSAII (Michael W. Deem and Ramdas Pophale) SiO2 
 PCOD9297173
Probable space group: C 2/C
;
_chemical_formula_sum "Si O2"
_cell_formula_units_Z 36
_cell_length_a 10.361079
_cell_length_b 9.203541
_cell_length_c 12.963859
_cell_angle_alpha 90.000000
_cell_angle_beta 108.054733
_cell_angle_gamma 90.000000
_cell_volume 1175.345483
_symmetry_space_group_name_H-M "C 2/C"
_symmetry_group_IT_number 15
_symmetry_cell_setting 'monoclinic'
loop_
_space_group_symop_operation_xyz
x,y,z
-x,y,1/2-z
-x,-y,-z
x,-y,1/2+z
1/2+x,1/2+y,z
1/2-x,1/2+y,1/2-z
1/2-x,1/2-y,-z
1/2+x,1/2-y,1/2+z
loop_
_atom_site_type_symbol
_atom_site_label
_atom_site_fract_x
_atom_site_fract_y
_atom_site_fract_z
Si Si1 0.000000 0.112564 0.750000
Si Si2 0.062694 0.321772 0.033843
Si Si3 0.335424 0.846475 0.149116
Si Si4 0.665518 0.470759 0.468212
Si Si5 0.155503 0.631697 0.202555
O O1 0.959826 0.023639 0.640408
O O2 0.879131 0.227129 0.736551
O O3 0.205685 0.192058 0.312490
O O4 0.194968 0.425085 0.055824
O O5 0.969727 0.333014 0.112429
O O6 0.967020 0.361229 0.911757
O O7 0.340891 0.987133 0.227086
O O8 0.208350 0.890626 0.044321
O O9 0.624396 0.337313 0.531642
#
# Coordination Sequence:
#
# PCOD9297173 Si02
#       5
#     4   8   8   8   8
#     4  10  24  50  74 114 174 214 278 356 424 508
#     4  10  23  49  83 120 174 225 281 357 438 505
#     4  12  26  50  83 126 176 226 286 354 433 508
#     4  10  23  49  82 124 166 222 286 354 426 519
#     4  11  26  49  78 127 172 223 289 346 427 526
#
# _framework density 30.629292
#
# number of rings (size 3 to 8) (size 9 to 14) (size 15 to 20)
#    0.000    1.333    0.000    5.333    3.111    3.556 
#   20.000    0.000    0.000    0.000    0.000    0.000 
#    0.000    0.000    0.000    0.000    0.000    0.000 
#
# Total GULP energy -101203.820980 kJ/mol
# GULP energy per Si atom -5622.434499 kJ/mol
# Density = 3.055958 g / cm^3
# Si number density = 30.629292 Si / 1000 Ang^3
#
#
#
# Elastic Constant Matrix: (Units=GPa)
#
#
# Indices 1 2 3 4 5 6 
#
# 1 202.2985 86.8068 78.8260 0.0000 -39.8087 0.0000
# 2 86.8068 193.9030 71.9069 0.0000 -4.9475 0.0000
# 3 78.8260 71.9069 169.1146 0.0000 13.4477 0.0000
# 4 0.0000 0.0000 0.0000 51.4045 0.0000 -5.9856
# 5 -39.8087 -4.9475 13.4477 0.0000 75.2049 0.0000
# 6 0.0000 0.0000 0.0000 -5.9856 0.0000 80.5661
#
#
#
# Elastic Compliance Matrix: (Units=1/GPa)
#
#
# Indices 1 2 3 4 5 6 
#
# 1 0.008100 -0.002336 -0.003156 0.000000 0.004698 0.000000
# 2 -0.002336 0.006854 -0.001789 0.000000 -0.000466 0.000000
# 3 -0.003156 -0.001789 0.008406 0.000000 -0.003291 0.000000
# 4 0.000000 0.000000 0.000000 0.019623 0.000000 0.001458
# 5 0.004698 -0.000466 -0.003291 0.000000 0.016342 0.000000
# 6 0.000000 0.000000 0.000000 0.001458 0.000000 0.012520
#
#
# Mechanical properties :
#
#
# Convention : Reuss Voigt Hill
#
# Bulk Modulus (GPa) = 113.63852 115.59950 114.61901
# Shear Modulus (GPa) = 55.96623 63.28686 59.62655
#
# Velocity S-wave (km/s) = 4.27923 4.55050 4.41695
# Velocity P-wave (km/s) = 7.84841 8.08906 7.96964
#
# Compressibility (1/GPa) = 0.00879983
#
# Stress axis : x y z
#
# Youngs Moduli (GPa) = 123.46200 145.89201 118.95877
#
# Poissons Ratio (x) = 0.34080 0.37540
# Poissons Ratio (y) = 0.28840 0.21277
# Poissons Ratio (z) = 0.38961 0.26095
#
# Static dielectric constant tensor:
#      x y z
#    x 2.427720 0.000000 -0.116910 
#    y 0.000000 2.308640 0.000000 
#    z -0.116910 0.000000 2.511020 
# 
# From -- ./inp_files/95394.got.cif
#   From: 2010.05.17/outbox.cif.g08.bks.cpg/sg15_48_cif.got.tgz:95394.got - 2010.06.03 18:47:42.
