data_PCOD9297312
_publ_section_title
;
Structure prediction by ZEFSAII (Michael W. Deem and Ramdas Pophale) SiO2 
 PCOD9297312
Probable space group: C 2/C
;
_chemical_formula_sum "Si O2"
_cell_formula_units_Z 32
_cell_length_a 7.179999
_cell_length_b 21.689693
_cell_length_c 16.592225
_cell_angle_alpha 90.000000
_cell_angle_beta 146.571125
_cell_angle_gamma 90.000000
_cell_volume 1423.496146
_symmetry_space_group_name_H-M "C 2/C"
_symmetry_group_IT_number 15
_symmetry_cell_setting 'monoclinic'
loop_
_space_group_symop_operation_xyz
x,y,z
-x,y,1/2-z
-x,-y,-z
x,-y,1/2+z
1/2+x,1/2+y,z
1/2-x,1/2+y,1/2-z
1/2-x,1/2-y,-z
1/2+x,1/2-y,1/2+z
loop_
_atom_site_type_symbol
_atom_site_label
_atom_site_fract_x
_atom_site_fract_y
_atom_site_fract_z
Si Si1 0.207223 0.241601 0.237252
Si Si2 0.771495 0.061074 0.920931
Si Si3 0.577357 0.846122 0.483260
Si Si4 0.658133 0.673365 0.993298
O O1 0.341650 0.281016 0.364018
O O2 0.568067 0.208741 0.355439
O O3 0.934238 0.186102 0.136874
O O4 0.089246 0.295838 0.136152
O O5 0.500000 0.057517 0.750000
O O6 0.025276 0.115367 0.990926
O O7 0.614191 0.088790 0.948105
O O8 0.000000 0.000000 0.000000
O O9 0.339367 0.848027 0.476028
#
# Coordination Sequence:
#
# PCOD9297312 Si02
#       4
#     8   8   8   8
#     4  10  24  38  70 110 140 174 224 282 364 422
#     4  12  30  50  70 100 140 192 245 280 334 425
#     4  11  25  43  70 105 142 183 225 290 353 412
#     4  11  25  43  70 105 142 183 225 290 353 412
#
# _framework density 22.479863999999999
#
# number of rings (size 3 to 8) (size 9 to 14) (size 15 to 20)
#    0.000    1.000    2.500    1.500   24.500    1.000 
#    0.000    0.000    0.000    0.000    0.000    0.000 
#    0.000    0.000    0.000    0.000    0.000    0.000 
#
# Total GULP energy -89355.726332 kJ/mol
# GULP energy per Si atom -5584.732896 kJ/mol
# Density = 2.242870 g / cm^3
# Si number density = 22.479864 Si / 1000 Ang^3
#
#
#
# Elastic Constant Matrix: (Units=GPa)
#
#
# Indices 1 2 3 4 5 6 
#
# 1 108.7122 16.4651 22.2021 -0.0001 -13.7552 -0.0001
# 2 16.4651 127.2451 32.8264 -0.0006 1.8184 0.0000
# 3 22.2021 32.8264 134.3187 0.0024 12.3309 0.0003
# 4 -0.0001 -0.0006 0.0024 56.8102 0.0006 16.6455
# 5 -13.7552 1.8184 12.3309 0.0006 43.6107 -0.0002
# 6 -0.0001 0.0000 0.0003 16.6455 -0.0002 42.6843
#
#
#
# Elastic Compliance Matrix: (Units=1/GPa)
#
#
# Indices 1 2 3 4 5 6 
#
# 1 0.010180 -0.000905 -0.001807 0.000000 0.003760 0.000000
# 2 -0.000905 0.008470 -0.001912 0.000000 -0.000098 0.000000
# 3 -0.001807 -0.001912 0.008476 0.000000 -0.002887 0.000000
# 4 0.000000 0.000000 0.000000 0.019873 0.000000 -0.007750
# 5 0.003760 -0.000098 -0.002887 0.000000 0.024936 0.000000
# 6 0.000000 0.000000 0.000000 -0.007750 0.000000 0.026450
#
#
# Mechanical properties :
#
#
# Convention : Reuss Voigt Hill
#
# Bulk Modulus (GPa) = 55.92771 57.02924 56.47848
# Shear Modulus (GPa) = 44.01701 48.53988 46.27844
#
# Velocity S-wave (km/s) = 4.42980 4.65183 4.54217
# Velocity P-wave (km/s) = 7.14823 7.36728 7.25858
#
# Compressibility (1/GPa) = 0.01788022
#
# Stress axis : x y z
#
# Youngs Moduli (GPa) = 98.22861 118.05708 117.98309
#
# Poissons Ratio (x) = 0.10683 0.21316
# Poissons Ratio (y) = 0.08889 0.22553
# Poissons Ratio (z) = 0.17747 0.22567
#
# Static dielectric constant tensor:
#      x y z
#    x 2.324620 0.000000 -0.061540 
#    y 0.000000 1.791740 0.000000 
#    z -0.061540 0.000000 1.859540 
# 
# From -- ./inp_files/192416.got.cif
#   From: 2010.05.17/outbox.cif.g08.bks.cpg/sg15_97_cif.got.tgz:192416.got - 2010.06.03 18:47:42.
