data_PCOD9297196
_publ_section_title
;
Structure prediction by ZEFSAII (Michael W. Deem and Ramdas Pophale) SiO2 
 PCOD9297196
Probable space group: C 2/C
;
_chemical_formula_sum "Si O2"
_cell_formula_units_Z 44
_cell_length_a 14.652889
_cell_length_b 18.752720
_cell_length_c 14.452257
_cell_angle_alpha 90.000000
_cell_angle_beta 145.666657
_cell_angle_gamma 90.000000
_cell_volume 2239.790849
_symmetry_space_group_name_H-M "C 2/C"
_symmetry_group_IT_number 15
_symmetry_cell_setting 'monoclinic'
loop_
_space_group_symop_operation_xyz
x,y,z
-x,y,1/2-z
-x,-y,-z
x,-y,1/2+z
1/2+x,1/2+y,z
1/2-x,1/2+y,1/2-z
1/2-x,1/2-y,-z
1/2+x,1/2-y,1/2+z
loop_
_atom_site_type_symbol
_atom_site_label
_atom_site_fract_x
_atom_site_fract_y
_atom_site_fract_z
Si Si1 0.698007 0.981774 0.518000
Si Si2 0.194144 0.464947 0.305542
Si Si3 0.658251 0.879147 0.100569
Si Si4 0.732377 0.898084 0.721499
Si Si5 0.686373 0.285339 0.574260
Si Si6 0.500000 0.247640 0.250000
O O1 0.752702 0.965499 0.459882
O O2 0.502051 0.972415 0.355648
O O3 0.770702 0.925118 0.651123
O O4 0.720918 0.061189 0.580004
O O5 0.223166 0.401201 0.256800
O O6 0.261654 0.535300 0.313168
O O7 0.693246 0.798411 0.102947
O O8 0.461797 0.884512 0.938860
O O9 0.823894 0.831518 0.842542
O O10 0.554516 0.293377 0.383797
O O11 0.854605 0.301686 0.663184
#
# Coordination Sequence:
#
# PCOD9297196 Si02
#       6
#     8   8   8   8   8   4
#     4   8  15  27  47  72  98 125 163 203 241 275
#     4   8  15  27  47  72  98 125 163 203 241 275
#     4   9  17  29  47  74 100 124 157 206 242 283
#     4   9  17  29  47  74 100 124 157 206 242 283
#     4  11  20  34  47  76 100 126 163 196 245 294
#     4  10  24  30  48  74 102 134 152 192 252 296
#
# _framework density 19.644691000000002
#
# number of rings (size 3 to 8) (size 9 to 14) (size 15 to 20)
#    0.000    2.909    1.818    2.182    5.091    0.000 
#    0.000    0.909    0.000    4.364    0.000    0.000 
#    0.000    0.000    0.000    0.000    0.000    0.000 
#
# Total GULP energy -122592.241711 kJ/mol
# GULP energy per Si atom -5572.374623 kJ/mol
# Density = 1.959998 g / cm^3
# Si number density = 19.644691 Si / 1000 Ang^3
#
#
#
# Elastic Constant Matrix: (Units=GPa)
#
#
# Indices 1 2 3 4 5 6 
#
# 1 58.4901 30.6422 49.5393 0.0000 -45.5479 0.0000
# 2 30.6422 109.1964 55.8810 0.0000 -39.7852 0.0000
# 3 49.5393 55.8810 108.7582 0.0000 -54.9736 0.0000
# 4 0.0000 0.0000 0.0000 23.8818 0.0000 -6.7656
# 5 -45.5479 -39.7852 -54.9736 0.0000 52.6257 0.0000
# 6 0.0000 0.0000 0.0000 -6.7656 0.0000 7.8580
#
#
#
# Elastic Compliance Matrix: (Units=1/GPa)
#
#
# Indices 1 2 3 4 5 6 
#
# 1 0.053354 0.003081 -0.002896 0.000000 0.045482 0.000000
# 2 0.003081 0.013489 -0.003881 0.000000 0.008811 0.000000
# 3 -0.002896 -0.003881 0.020674 0.000000 0.016156 0.000000
# 4 0.000000 0.000000 0.000000 0.055381 0.000000 0.047682
# 5 0.045482 0.008811 0.016156 0.000000 0.081905 0.000000
# 6 0.000000 0.000000 0.000000 0.047682 0.000000 0.168312
#
#
# Mechanical properties :
#
#
# Convention : Reuss Voigt Hill
#
# Bulk Modulus (GPa) = 12.48031 60.95220 36.71625
# Shear Modulus (GPa) = 11.70369 26.23192 18.96780
#
# Velocity S-wave (km/s) = 2.44349 3.65817 3.11069
# Velocity P-wave (km/s) = 3.78519 6.99554 5.62429
#
# Compressibility (1/GPa) = 0.08012622
#
# Stress axis : x y z
#
# Youngs Moduli (GPa) = 18.74281 74.13226 48.36923
#
# Poissons Ratio (x) = -0.22844 0.14009
# Poissons Ratio (y) = -0.05776 0.18772
# Poissons Ratio (z) = 0.05428 0.28770
#
# Static dielectric constant tensor:
#      x y z
#    x 1.713210 0.000000 -0.000540 
#    y 0.000000 1.679700 0.000000 
#    z -0.000540 0.000000 1.749340 
# 
# From -- ./inp_files/39362.got.cif
#   From: 2010.05.17/outbox.cif.g08.bks.cpg/sg15_20_cif.got.tgz:39362.got - 2010.06.03 18:47:42.
