data_PCOD9297852
_publ_section_title
;
Structure prediction by ZEFSAII (Michael W. Deem and Ramdas Pophale) SiO2 
 PCOD9297852
Probable space group: C 2/C
;
_chemical_formula_sum "Si O2"
_cell_formula_units_Z 40
_cell_length_a 21.432889
_cell_length_b 15.710860
_cell_length_c 8.291211
_cell_angle_alpha 90.000000
_cell_angle_beta 38.182632
_cell_angle_gamma 90.000000
_cell_volume 1725.864405
_symmetry_space_group_name_H-M "C 2/C"
_symmetry_group_IT_number 15
_symmetry_cell_setting 'monoclinic'
loop_
_space_group_symop_operation_xyz
x,y,z
-x,y,1/2-z
-x,-y,-z
x,-y,1/2+z
1/2+x,1/2+y,z
1/2-x,1/2+y,1/2-z
1/2-x,1/2-y,-z
1/2+x,1/2-y,1/2+z
loop_
_atom_site_type_symbol
_atom_site_label
_atom_site_fract_x
_atom_site_fract_y
_atom_site_fract_z
Si Si1 0.266685 0.344634 0.036140
Si Si2 0.620113 0.039701 0.009578
Si Si3 0.537588 0.409933 0.991270
Si Si4 0.876282 0.192779 0.649079
Si Si5 0.688409 0.878210 0.705019
O O1 0.342969 0.397114 0.768028
O O2 0.250000 0.250000 0.000000
O O3 0.163749 0.393999 0.287846
O O4 0.326039 0.340065 0.086719
O O5 0.673738 0.949646 0.868239
O O6 0.500000 0.030161 0.250000
O O7 0.650736 0.077083 0.119011
O O8 0.500000 0.399951 0.250000
O O9 0.483547 0.341693 0.985097
O O10 0.500000 0.500000 0.000000
O O11 0.876639 0.293975 0.635497
O O12 0.800049 0.158760 0.944170
#
# Coordination Sequence:
#
# PCOD9297852 Si02
#       5
#     8   8   8   8   8
#     4  11  27  44  73 106 143 193 244 304 374 438
#     4  11  25  43  66 101 142 186 239 290 361 441
#     4  12  27  47  79 109 145 194 249 309 372 448
#     4  10  24  46  71 104 147 186 245 301 366 443
#     4  10  24  42  69 100 140 189 237 294 360 437
#
# _framework density 23.176791999999999
#
# number of rings (size 3 to 8) (size 9 to 14) (size 15 to 20)
#    0.000    1.200    0.000    3.600   14.000    4.800 
#    0.000    0.000    0.000    0.000    0.000    0.000 
#    0.000    0.000    0.000    0.000    0.000    0.000 
#
# Total GULP energy -112002.398010 kJ/mol
# GULP energy per Si atom -5600.119900 kJ/mol
# Density = 2.312404 g / cm^3
# Si number density = 23.176792 Si / 1000 Ang^3
#
#
#
# Elastic Constant Matrix: (Units=GPa)
#
#
# Indices 1 2 3 4 5 6 
#
# 1 72.8005 6.1102 32.2497 0.0000 3.8856 0.0000
# 2 6.1102 113.0775 44.2547 0.0000 -10.2396 0.0000
# 3 32.2497 44.2547 123.4865 0.0000 -5.0310 0.0000
# 4 0.0000 0.0000 0.0000 30.6226 0.0000 7.9027
# 5 3.8856 -10.2396 -5.0310 0.0000 36.9259 0.0000
# 6 0.0000 0.0000 0.0000 7.9027 0.0000 33.7894
#
#
#
# Elastic Compliance Matrix: (Units=1/GPa)
#
#
# Indices 1 2 3 4 5 6 
#
# 1 0.015760 0.000703 -0.004452 0.000000 -0.002070 0.000000
# 2 0.000703 0.010527 -0.003862 0.000000 0.002319 0.000000
# 3 -0.004452 -0.003862 0.010680 0.000000 0.000853 0.000000
# 4 0.000000 0.000000 0.000000 0.034753 0.000000 -0.008128
# 5 -0.002070 0.002319 0.000853 0.000000 0.028058 0.000000
# 6 0.000000 0.000000 0.000000 -0.008128 0.000000 0.031496
#
#
# Mechanical properties :
#
#
# Convention : Reuss Voigt Hill
#
# Bulk Modulus (GPa) = 45.98763 52.73264 49.36013
# Shear Modulus (GPa) = 32.52169 35.38424 33.95296
#
# Velocity S-wave (km/s) = 3.75000 3.91155 3.83163
# Velocity P-wave (km/s) = 6.21572 6.57283 6.39676
#
# Compressibility (1/GPa) = 0.02174498
#
# Stress axis : x y z
#
# Youngs Moduli (GPa) = 63.45217 94.99517 93.63711
#
# Poissons Ratio (x) = -0.06682 0.41690
# Poissons Ratio (y) = -0.04463 0.36161
# Poissons Ratio (z) = 0.28251 0.36685
#
# Static dielectric constant tensor:
#      x y z
#    x 1.843300 0.000000 0.045290 
#    y 0.000000 1.811150 0.000000 
#    z 0.045290 0.000000 1.856810 
# 
# From -- ./inp_files/37976.got.cif
#   From: 2010.05.17/outbox.cif.g08.bks.cpg/sg15_19_cif.got.tgz:37976.got - 2010.06.03 18:47:42.
