data_PCOD9297723
_publ_section_title
;
Structure prediction by ZEFSAII (Michael W. Deem and Ramdas Pophale) SiO2 
 PCOD9297723
Probable space group: C 2/C
;
_chemical_formula_sum "Si O2"
_cell_formula_units_Z 44
_cell_length_a 6.190391
_cell_length_b 13.828849
_cell_length_c 23.937352
_cell_angle_alpha 90.000000
_cell_angle_beta 108.470384
_cell_angle_gamma 90.000000
_cell_volume 1943.622208
_symmetry_space_group_name_H-M "C 2/C"
_symmetry_group_IT_number 15
_symmetry_cell_setting 'monoclinic'
loop_
_space_group_symop_operation_xyz
x,y,z
-x,y,1/2-z
-x,-y,-z
x,-y,1/2+z
1/2+x,1/2+y,z
1/2-x,1/2+y,1/2-z
1/2-x,1/2-y,-z
1/2+x,1/2-y,1/2+z
loop_
_atom_site_type_symbol
_atom_site_label
_atom_site_fract_x
_atom_site_fract_y
_atom_site_fract_z
Si Si1 0.401393 0.329006 0.805222
Si Si2 0.278388 0.612618 0.697784
Si Si3 0.713911 0.572621 0.026707
Si Si4 0.074199 0.226879 0.433712
Si Si5 0.500000 0.976959 0.750000
Si Si6 0.100924 0.431646 0.081465
O O1 0.500000 0.331042 0.750000
O O2 0.273797 0.225954 0.801922
O O3 0.580278 0.329888 0.873341
O O4 0.207196 0.410927 0.789345
O O5 0.500000 0.591512 0.750000
O O6 0.315316 0.570271 0.639119
O O7 0.080017 0.548189 0.707669
O O8 0.624796 0.666606 0.051358
O O9 0.927928 0.519555 0.072523
O O10 0.500000 0.500000 0.000000
O O11 0.815707 0.589103 0.973791
O O12 0.250000 0.250000 0.500000
O O13 0.030874 0.335710 0.410981
#
# Coordination Sequence:
#
# PCOD9297723 Si02
#       6
#     8   8   8   8   4   8
#     4  11  25  46  70 103 138 179 237 289 343 424
#     4  11  24  44  69  97 136 181 230 286 350 407
#     4  11  22  41  65  96 132 174 225 270 334 406
#     4  11  23  44  68  98 137 180 220 282 347 399
#     4  12  24  46  72  98 136 190 230 288 354 406
#     4  10  24  42  65  97 131 175 226 279 335 407
#
# _framework density 22.638145000000002
#
# number of rings (size 3 to 8) (size 9 to 14) (size 15 to 20)
#    0.000    1.091    3.636    2.182    0.000    5.818 
#    3.273    0.000    0.000    0.000    0.000    0.000 
#    0.000    0.000    0.000    0.000    0.000    0.000 
#
# Total GULP energy -122562.917037 kJ/mol
# GULP energy per Si atom -5571.041683 kJ/mol
# Density = 2.258662 g / cm^3
# Si number density = 22.638145 Si / 1000 Ang^3
#
#
#
# Elastic Constant Matrix: (Units=GPa)
#
#
# Indices 1 2 3 4 5 6 
#
# 1 33.1897 13.9579 -0.3562 0.0000 -2.3182 0.0000
# 2 13.9579 104.9292 2.4689 0.0000 4.7246 0.0000
# 3 -0.3562 2.4689 119.1740 0.0000 16.0072 0.0000
# 4 0.0000 0.0000 0.0000 13.7315 0.0000 0.3515
# 5 -2.3182 4.7246 16.0072 0.0000 21.5930 0.0000
# 6 0.0000 0.0000 0.0000 0.3515 0.0000 66.9374
#
#
#
# Elastic Compliance Matrix: (Units=1/GPa)
#
#
# Indices 1 2 3 4 5 6 
#
# 1 0.032357 -0.004509 -0.000454 0.000000 0.004797 0.000000
# 2 -0.004509 0.010254 0.000156 0.000000 -0.002844 0.000000
# 3 -0.000454 0.000156 0.009326 0.000000 -0.006997 0.000000
# 4 0.000000 0.000000 0.000000 0.072835 0.000000 -0.000382
# 5 0.004797 -0.002844 -0.006997 0.000000 0.052635 0.000000
# 6 0.000000 0.000000 0.000000 -0.000382 0.000000 0.014941
#
#
# Mechanical properties :
#
#
# Convention : Reuss Voigt Hill
#
# Bulk Modulus (GPa) = 23.62841 32.15933 27.89387
# Shear Modulus (GPa) = 23.14051 36.53387 29.83719
#
# Velocity S-wave (km/s) = 3.20064 4.02160 3.63437
# Velocity P-wave (km/s) = 4.91110 5.98339 5.47357
#
# Compressibility (1/GPa) = 0.04232194
#
# Stress axis : x y z
#
# Youngs Moduli (GPa) = 30.90568 97.51857 107.22391
#
# Poissons Ratio (x) = 0.43975 0.04870
# Poissons Ratio (y) = 0.13937 -0.01673
# Poissons Ratio (z) = 0.01404 -0.01522
#
# Static dielectric constant tensor:
#      x y z
#    x 1.836300 0.000000 0.020020 
#    y 0.000000 1.828890 0.000000 
#    z 0.020020 0.000000 2.168690 
# 
# From -- ./inp_files/285633.got.cif
#   From: 2010.05.17/outbox.cif.g08.bks.cpg/sg15_143_cif.got.tgz:285633.got - 2010.06.03 18:47:42.
