data_PCOD9297839
_publ_section_title
;
Structure prediction by ZEFSAII (Michael W. Deem and Ramdas Pophale) SiO2 
 PCOD9297839
Probable space group: C 2/C
;
_chemical_formula_sum "Si O2"
_cell_formula_units_Z 36
_cell_length_a 7.109587
_cell_length_b 12.346788
_cell_length_c 18.764984
_cell_angle_alpha 90.000000
_cell_angle_beta 76.469909
_cell_angle_gamma 90.000000
_cell_volume 1601.486406
_symmetry_space_group_name_H-M "C 2/C"
_symmetry_group_IT_number 15
_symmetry_cell_setting 'monoclinic'
loop_
_space_group_symop_operation_xyz
x,y,z
-x,y,1/2-z
-x,-y,-z
x,-y,1/2+z
1/2+x,1/2+y,z
1/2-x,1/2+y,1/2-z
1/2-x,1/2-y,-z
1/2+x,1/2-y,1/2+z
loop_
_atom_site_type_symbol
_atom_site_label
_atom_site_fract_x
_atom_site_fract_y
_atom_site_fract_z
Si Si1 0.212490 0.458351 0.333372
Si Si2 0.269431 0.222082 0.771085
Si Si3 0.723944 0.340042 0.591027
Si Si4 0.576749 0.796524 0.467660
Si Si5 0.000000 0.597336 0.250000
O O1 0.291096 0.390058 0.259532
O O2 0.333044 0.554507 0.358452
O O3 0.157554 0.372317 0.398071
O O4 0.028500 0.522149 0.316051
O O5 0.500000 0.225314 0.750000
O O6 0.215666 0.246726 0.857336
O O7 0.180271 0.320643 0.733477
O O8 0.550752 0.297954 0.557756
O O9 0.916364 0.360893 0.528174
O O10 0.750000 0.750000 0.500000
#
# Coordination Sequence:
#
# PCOD9297839 Si02
#       5
#     8   8   8   8   4
#     4  11  22  44  69  97 133 177 217 277 333 389
#     4  11  22  44  68 100 133 168 224 273 325 394
#     4  10  24  43  66 100 132 173 220 272 330 389
#     4  11  24  44  69  94 137 174 222 272 323 399
#     4  10  24  42  68  96 136 170 220 284 328 382
#
# _framework density 22.479116999999999
#
# number of rings (size 3 to 8) (size 9 to 14) (size 15 to 20)
#    0.000    1.333    3.333    0.667    6.222    0.889 
#    8.000   11.111    0.000    0.000    0.000    0.000 
#    0.000    0.000    0.000    0.000    0.000    0.000 
#
# Total GULP energy -100564.095673 kJ/mol
# GULP energy per Si atom -5586.894204 kJ/mol
# Density = 2.242795 g / cm^3
# Si number density = 22.479117 Si / 1000 Ang^3
#
#
#
# Elastic Constant Matrix: (Units=GPa)
#
#
# Indices 1 2 3 4 5 6 
#
# 1 132.6861 58.3371 26.0750 0.0000 35.2891 0.0000
# 2 58.3371 99.8587 25.7743 0.0000 27.1048 0.0000
# 3 26.0750 25.7743 61.7329 0.0000 27.4886 0.0000
# 4 0.0000 0.0000 0.0000 43.5426 0.0000 17.2749
# 5 35.2891 27.1048 27.4886 0.0000 33.6184 0.0000
# 6 0.0000 0.0000 0.0000 17.2749 0.0000 28.6766
#
#
#
# Elastic Compliance Matrix: (Units=1/GPa)
#
#
# Indices 1 2 3 4 5 6 
#
# 1 0.011940 -0.004633 0.001272 0.000000 -0.009838 0.000000
# 2 -0.004633 0.014672 -0.001678 0.000000 -0.005594 0.000000
# 3 0.001272 -0.001678 0.025718 0.000000 -0.021011 0.000000
# 4 0.000000 0.000000 0.000000 0.030179 0.000000 -0.018180
# 5 -0.009838 -0.005594 -0.021011 0.000000 0.061762 0.000000
# 6 0.000000 0.000000 0.000000 -0.018180 0.000000 0.045823
#
#
# Mechanical properties :
#
#
# Convention : Reuss Voigt Hill
#
# Bulk Modulus (GPa) = 23.66785 57.18338 40.42561
# Shear Modulus (GPa) = 23.33639 33.44029 28.38834
#
# Velocity S-wave (km/s) = 3.22551 3.86115 3.55755
# Velocity P-wave (km/s) = 4.94202 6.73584 5.90742
#
# Compressibility (1/GPa) = 0.04225141
#
# Stress axis : x y z
#
# Youngs Moduli (GPa) = 83.75032 68.15501 38.88335
#
# Poissons Ratio (x) = 0.31579 -0.04945
# Poissons Ratio (y) = 0.38805 0.06524
# Poissons Ratio (z) = -0.10651 0.11436
#
# Static dielectric constant tensor:
#      x y z
#    x 1.824750 0.000000 0.002340 
#    y 0.000000 1.847890 0.000000 
#    z 0.002340 0.000000 1.876880 
# 
# From -- ./inp_files/187730.got.cif
#   From: 2010.05.17/outbox.cif.g08.bks.cpg/sg15_94_cif.got.tgz:187730.got - 2010.06.03 18:47:42.
