data_PCOD9297902
_publ_section_title
;
Structure prediction by ZEFSAII (Michael W. Deem and Ramdas Pophale) SiO2 
 PCOD9297902
Probable space group: C 2/C
;
_chemical_formula_sum "Si O2"
_cell_formula_units_Z 40
_cell_length_a 22.000321
_cell_length_b 16.946777
_cell_length_c 16.702588
_cell_angle_alpha 90.000000
_cell_angle_beta 17.320167
_cell_angle_gamma 90.000000
_cell_volume 1853.935648
_symmetry_space_group_name_H-M "C 2/C"
_symmetry_group_IT_number 15
_symmetry_cell_setting 'monoclinic'
loop_
_space_group_symop_operation_xyz
x,y,z
-x,y,1/2-z
-x,-y,-z
x,-y,1/2+z
1/2+x,1/2+y,z
1/2-x,1/2+y,1/2-z
1/2-x,1/2-y,-z
1/2+x,1/2-y,1/2+z
loop_
_atom_site_type_symbol
_atom_site_label
_atom_site_fract_x
_atom_site_fract_y
_atom_site_fract_z
Si Si1 0.117530 0.311322 0.817302
Si Si2 0.737417 0.090046 0.476258
Si Si3 0.000000 0.806361 0.250000
Si Si4 0.826055 0.587275 0.402252
Si Si5 0.770209 0.813153 0.793224
Si Si6 0.000000 0.206147 0.250000
O O1 0.317533 0.267191 0.527986
O O2 0.082294 0.381588 0.797831
O O3 0.169510 0.345042 0.839104
O O4 0.944156 0.247553 0.048204
O O5 0.844770 0.117379 0.258391
O O6 0.827090 0.151500 0.427296
O O7 0.752351 0.002137 0.491558
O O8 0.500000 0.096008 0.750000
O O9 0.878049 0.859525 0.339134
O O10 0.000000 0.598731 0.250000
O O11 0.609894 0.759545 0.045033
#
# Coordination Sequence:
#
# PCOD9297902 Si02
#       6
#     8   8   4   8   8   4
#     4  10  24  42  71 105 142 182 246 288 354 423
#     4  11  22  41  75  99 141 187 232 286 365 419
#     4   8  21  46  68  94 145 180 230 296 350 405
#     4   9  21  46  71  97 140 194 225 292 359 416
#     4  12  22  43  67 110 136 190 234 292 352 433
#     4  12  23  42  72  98 153 182 224 302 364 399
#
# _framework density 21.575723
#
# number of rings (size 3 to 8) (size 9 to 14) (size 15 to 20)
#    1.200    0.400    3.000    2.400    0.000    2.400 
#    1.800   10.000    0.000    0.000    0.000    0.000 
#    0.000    0.000    0.000    0.000    0.000    0.000 
#
# Total GULP energy -111463.175919 kJ/mol
# GULP energy per Si atom -5573.158796 kJ/mol
# Density = 2.152662 g / cm^3
# Si number density = 21.575723 Si / 1000 Ang^3
#
#
#
# Elastic Constant Matrix: (Units=GPa)
#
#
# Indices 1 2 3 4 5 6 
#
# 1 158.0713 58.8413 27.4401 0.0207 22.0320 -0.0262
# 2 58.8413 115.6780 52.5533 0.0146 19.0602 -0.0080
# 3 27.4401 52.5533 127.4832 0.0753 8.7720 -0.1356
# 4 0.0207 0.0146 0.0753 10.6933 -0.0262 14.1078
# 5 22.0320 19.0602 8.7720 -0.0262 35.5551 0.0446
# 6 -0.0262 -0.0080 -0.1356 14.1078 0.0446 35.2718
#
#
#
# Elastic Compliance Matrix: (Units=1/GPa)
#
#
# Indices 1 2 3 4 5 6 
#
# 1 0.008101 -0.003589 -0.000052 -0.000063 -0.003083 0.000034
# 2 -0.003589 0.013059 -0.004356 0.000056 -0.003702 -0.000034
# 3 -0.000052 -0.004356 0.009652 -0.000232 -0.000014 0.000129
# 4 -0.000063 0.000056 -0.000232 0.198007 0.000311 -0.079199
# 5 -0.003083 -0.003702 -0.000014 0.000311 0.032024 -0.000168
# 6 0.000034 -0.000034 0.000129 -0.079199 -0.000168 0.060029
#
#
# Mechanical properties :
#
#
# Convention : Reuss Voigt Hill
#
# Bulk Modulus (GPa) = 67.48503 75.43354 71.45928
# Shear Modulus (GPa) = 14.62810 33.79722 24.21266
#
# Velocity S-wave (km/s) = 2.60665 3.96213 3.35359
# Velocity P-wave (km/s) = 6.35654 7.48127 6.94172
#
# Compressibility (1/GPa) = 0.01481810
#
# Stress axis : x y z
#
# Youngs Moduli (GPa) = 123.44092 76.57296 103.60047
#
# Poissons Ratio (x) = 0.27483 0.00538
# Poissons Ratio (y) = 0.44304 0.45132
# Poissons Ratio (z) = 0.00641 0.33358
#
# Static dielectric constant tensor:
#      x y z
#    x 1.841240 -0.000010 -0.004370 
#    y -0.000010 1.808440 0.000010 
#    z -0.004370 0.000010 1.817440 
# 
# From -- ./inp_files/169079.got.cif
#   From: 2010.05.17/outbox.cif.g08.bks.cpg/sg15_85_cif.got.tgz:169079.got - 2010.06.03 18:47:42.
