data_PCOD9297962
_publ_section_title
;
Structure prediction by ZEFSAII (Michael W. Deem and Ramdas Pophale) SiO2 
 PCOD9297962
Probable space group: C 2/C
;
_chemical_formula_sum "Si O2"
_cell_formula_units_Z 44
_cell_length_a 26.922563
_cell_length_b 7.568600
_cell_length_c 9.708706
_cell_angle_alpha 90.000000
_cell_angle_beta 90.871987
_cell_angle_gamma 90.000000
_cell_volume 1978.076155
_symmetry_space_group_name_H-M "C 2/C"
_symmetry_group_IT_number 15
_symmetry_cell_setting 'monoclinic'
loop_
_space_group_symop_operation_xyz
x,y,z
-x,y,1/2-z
-x,-y,-z
x,-y,1/2+z
1/2+x,1/2+y,z
1/2-x,1/2+y,1/2-z
1/2-x,1/2-y,-z
1/2+x,1/2-y,1/2+z
loop_
_atom_site_type_symbol
_atom_site_label
_atom_site_fract_x
_atom_site_fract_y
_atom_site_fract_z
Si Si1 0.151738 0.322742 0.527318
Si Si2 0.000000 0.004500 0.250000
Si Si3 0.565636 0.447672 0.001398
Si Si4 0.799636 0.795264 0.194751
Si Si5 0.619861 0.200963 0.529369
Si Si6 0.807640 0.788503 0.740178
O O1 0.117948 0.149271 0.511766
O O2 0.181123 0.312751 0.671309
O O3 0.115048 0.490516 0.518220
O O4 0.190816 0.315093 0.404186
O O5 0.964569 0.906595 0.359496
O O6 0.963882 0.102273 0.139034
O O7 0.576197 0.659712 0.998011
O O8 0.741358 0.761017 0.177230
O O9 0.806405 0.002761 0.219671
O O10 0.835219 0.744504 0.072264
O O11 0.641826 0.240424 0.680326
#
# Coordination Sequence:
#
# PCOD9297962 Si02
#       6
#     8   4   8   8   8   8
#     4  12  24  42  66  94 129 175 214 262 323 383
#     4  10  24  42  74  94 124 164 204 282 326 410
#     4  11  22  46  66  96 128 164 214 262 346 375
#     4  12  23  40  60  94 134 175 223 266 305 368
#     4  12  24  42  66  94 129 175 214 262 323 383
#     4  12  23  40  60  94 134 175 223 266 305 368
#
# _framework density 22.243835000000001
#
# number of rings (size 3 to 8) (size 9 to 14) (size 15 to 20)
#    0.000    0.364    3.636    6.545    0.000    0.000 
#    0.000    5.455    0.000    0.000    0.000    0.000 
#    0.000    0.000    0.000    0.000    0.000    0.000 
#
# Total GULP energy -122995.552864 kJ/mol
# GULP energy per Si atom -5590.706948 kJ/mol
# Density = 2.219321 g / cm^3
# Si number density = 22.243835 Si / 1000 Ang^3
#
#
#
# Elastic Constant Matrix: (Units=GPa)
#
#
# Indices 1 2 3 4 5 6 
#
# 1 67.3368 -10.8884 21.4780 0.0000 -1.3720 0.0000
# 2 -10.8884 98.7921 -0.4510 0.0000 -1.3837 0.0000
# 3 21.4780 -0.4510 118.3648 0.0000 -3.5462 0.0000
# 4 0.0000 0.0000 0.0000 14.2377 0.0000 3.5994
# 5 -1.3720 -1.3837 -3.5462 0.0000 38.9538 0.0000
# 6 0.0000 0.0000 0.0000 3.5994 0.0000 9.9773
#
#
#
# Elastic Compliance Matrix: (Units=1/GPa)
#
#
# Indices 1 2 3 4 5 6 
#
# 1 0.016068 0.001763 -0.002898 0.000000 0.000365 0.000000
# 2 0.001763 0.010321 -0.000268 0.000000 0.000404 0.000000
# 3 -0.002898 -0.000268 0.008994 0.000000 0.000707 0.000000
# 4 0.000000 0.000000 0.000000 0.077285 0.000000 -0.027881
# 5 0.000365 0.000404 0.000707 0.000000 0.025763 0.000000
# 6 0.000000 0.000000 0.000000 -0.027881 0.000000 0.110286
#
#
# Mechanical properties :
#
#
# Convention : Reuss Voigt Hill
#
# Bulk Modulus (GPa) = 30.69757 33.86342 32.28050
# Shear Modulus (GPa) = 19.05610 30.92408 24.99009
#
# Velocity S-wave (km/s) = 2.93010 3.73263 3.35544
# Velocity P-wave (km/s) = 5.02770 5.81665 5.43651
#
# Compressibility (1/GPa) = 0.03257586
#
# Stress axis : x y z
#
# Youngs Moduli (GPa) = 62.23729 96.88992 111.17947
#
# Poissons Ratio (x) = -0.17079 0.32219
# Poissons Ratio (y) = -0.10971 0.02984
# Poissons Ratio (z) = 0.18036 0.02601
#
# Static dielectric constant tensor:
#      x y z
#    x 1.780190 0.000000 -0.007910 
#    y 0.000000 1.821900 0.000000 
#    z -0.007910 0.000000 1.812890 
# 
# From -- ./inp_files/68349.got.cif
#   From: 2010.05.17/outbox.cif.g08.bks.cpg/sg15_35_cif.got.tgz:68349.got - 2010.06.03 18:47:42.
