data_PCOD9297612
_publ_section_title
;
Structure prediction by ZEFSAII (Michael W. Deem and Ramdas Pophale) SiO2 
 PCOD9297612
Probable space group: C 2/C
;
_chemical_formula_sum "Si O2"
_cell_formula_units_Z 24
_cell_length_a 12.310565
_cell_length_b 6.671647
_cell_length_c 12.391579
_cell_angle_alpha 90.000000
_cell_angle_beta 63.079788
_cell_angle_gamma 90.000000
_cell_volume 907.457305
_symmetry_space_group_name_H-M "C 2/C"
_symmetry_group_IT_number 15
_symmetry_cell_setting 'monoclinic'
loop_
_space_group_symop_operation_xyz
x,y,z
-x,y,1/2-z
-x,-y,-z
x,-y,1/2+z
1/2+x,1/2+y,z
1/2-x,1/2+y,1/2-z
1/2-x,1/2-y,-z
1/2+x,1/2-y,1/2+z
loop_
_atom_site_type_symbol
_atom_site_label
_atom_site_fract_x
_atom_site_fract_y
_atom_site_fract_z
Si Si1 0.528529 0.714791 0.586588
Si Si2 0.428716 0.125697 0.657389
Si Si3 0.827292 0.990037 0.815281
O O1 0.526091 0.728563 0.459113
O O2 0.410942 0.619289 0.696148
O O3 0.641396 0.588956 0.583855
O O4 0.525658 0.947450 0.626138
O O5 0.310152 0.017372 0.658948
O O6 0.376946 0.264808 0.776579
#
# Coordination Sequence:
#
# PCOD9297612 Si02
#       3
#     8   8   8
#     4  10  24  41  68  99 132 177 222 269 333 395
#     4  11  22  44  67  99 135 174 223 274 328 396
#     4  11  22  42  68  97 132 176 220 274 331 393
#
# _framework density 26.447527999999998
#
# number of rings (size 3 to 8) (size 9 to 14) (size 15 to 20)
#    0.000    1.333    3.333    2.000    0.000    5.333 
#    0.000    1.667    0.000    0.000    0.000    0.000 
#    0.000    0.000    0.000    0.000    0.000    0.000 
#
# Total GULP energy -67176.299810 kJ/mol
# GULP energy per Si atom -5598.024984 kJ/mol
# Density = 2.638733 g / cm^3
# Si number density = 26.447528 Si / 1000 Ang^3
#
#
#
# Elastic Constant Matrix: (Units=GPa)
#
#
# Indices 1 2 3 4 5 6 
#
# 1 94.6607 43.7273 -5.1345 0.0000 2.3772 0.0000
# 2 43.7273 158.5507 24.2394 0.0000 23.8062 0.0000
# 3 -5.1345 24.2394 63.5269 0.0000 17.4691 0.0000
# 4 0.0000 0.0000 0.0000 57.0435 0.0000 8.1666
# 5 2.3772 23.8062 17.4691 0.0000 39.0467 0.0000
# 6 0.0000 0.0000 0.0000 8.1666 0.0000 39.8632
#
#
#
# Elastic Compliance Matrix: (Units=1/GPa)
#
#
# Indices 1 2 3 4 5 6 
#
# 1 0.012469 -0.003880 0.002334 0.000000 0.000562 0.000000
# 2 -0.003880 0.008314 -0.002459 0.000000 -0.003732 0.000000
# 3 0.002334 -0.002459 0.018809 0.000000 -0.007058 0.000000
# 4 0.000000 0.000000 0.000000 0.018060 0.000000 -0.003700
# 5 0.000562 -0.003732 -0.007058 0.000000 0.031009 0.000000
# 6 0.000000 0.000000 0.000000 -0.003700 0.000000 0.025844
#
#
# Mechanical properties :
#
#
# Convention : Reuss Voigt Hill
#
# Bulk Modulus (GPa) = 31.66587 49.15588 40.41087
# Shear Modulus (GPa) = 37.58183 44.11775 40.84979
#
# Velocity S-wave (km/s) = 3.77370 4.08870 3.93435
# Velocity P-wave (km/s) = 5.56658 6.39660 5.99597
#
# Compressibility (1/GPa) = 0.03157975
#
# Stress axis : x y z
#
# Youngs Moduli (GPa) = 80.20003 120.28481 53.16559
#
# Poissons Ratio (x) = 0.46671 -0.12407
# Poissons Ratio (y) = 0.31118 0.13076
# Poissons Ratio (z) = -0.18715 0.29584
#
# Static dielectric constant tensor:
#      x y z
#    x 2.163340 0.000000 0.122370 
#    y 0.000000 2.105510 0.000000 
#    z 0.122370 0.000000 2.086470 
# 
# From -- ./inp_files/149437.got.cif
#   From: 2010.05.17/outbox.cif.g08.bks.cpg/sg15_75_cif.got.tgz:149437.got - 2010.06.03 18:47:42.
