data_PCOD9297065
_publ_section_title
;
Structure prediction by ZEFSAII (Michael W. Deem and Ramdas Pophale) SiO2 
 PCOD9297065
Probable space group: C 2/C
;
_chemical_formula_sum "Si O2"
_cell_formula_units_Z 40
_cell_length_a 14.531370
_cell_length_b 10.020648
_cell_length_c 13.273689
_cell_angle_alpha 90.000000
_cell_angle_beta 55.528830
_cell_angle_gamma 90.000000
_cell_volume 1593.447759
_symmetry_space_group_name_H-M "C 2/C"
_symmetry_group_IT_number 15
_symmetry_cell_setting 'monoclinic'
loop_
_space_group_symop_operation_xyz
x,y,z
-x,y,1/2-z
-x,-y,-z
x,-y,1/2+z
1/2+x,1/2+y,z
1/2-x,1/2+y,1/2-z
1/2-x,1/2-y,-z
1/2+x,1/2-y,1/2+z
loop_
_atom_site_type_symbol
_atom_site_label
_atom_site_fract_x
_atom_site_fract_y
_atom_site_fract_z
Si Si1 0.393924 0.027817 0.357379
Si Si2 0.732138 0.369892 0.780625
Si Si3 0.495914 0.545597 0.117229
Si Si4 0.847252 0.291565 0.514294
Si Si5 0.126787 0.787481 0.038068
O O1 0.500000 0.949697 0.250000
O O2 0.359087 0.945365 0.476458
O O3 0.304723 0.049128 0.321013
O O4 0.441040 0.165167 0.375243
O O5 0.636177 0.448121 0.776410
O O6 0.810071 0.290025 0.654534
O O7 0.650766 0.283894 0.903861
O O8 0.574633 0.425866 0.110000
O O9 0.500000 0.500000 0.000000
O O10 0.556284 0.688604 0.078669
O O11 0.750000 0.250000 0.500000
O O12 0.250000 0.750000 0.000000
#
# Coordination Sequence:
#
# PCOD9297065 Si02
#       5
#     8   8   8   8   8
#     4  11  27  49  73 112 152 198 258 314 389 458
#     4  10  25  48  75 105 154 198 252 317 384 458
#     4  10  23  47  74 109 145 198 255 301 391 452
#     4  12  27  47  76 111 154 198 256 319 379 467
#     4   9  20  46  71 108 143 193 255 307 384 455
#
# _framework density 25.102799999999998
#
# number of rings (size 3 to 8) (size 9 to 14) (size 15 to 20)
#    0.000    1.600    0.000    3.600    8.400    5.600 
#   10.800    0.000    0.000    0.000    0.000    0.000 
#    0.000    0.000    0.000    0.000    0.000    0.000 
#
# Total GULP energy -111350.610240 kJ/mol
# GULP energy per Si atom -5567.530512 kJ/mol
# Density = 2.504566 g / cm^3
# Si number density = 25.102800 Si / 1000 Ang^3
#
#
#
# Elastic Constant Matrix: (Units=GPa)
#
#
# Indices 1 2 3 4 5 6 
#
# 1 140.6719 48.2451 12.3796 0.0000 -5.1643 0.0000
# 2 48.2451 139.8782 40.9777 0.0000 4.2733 0.0000
# 3 12.3796 40.9777 111.5739 0.0000 12.3300 0.0000
# 4 0.0000 0.0000 0.0000 16.0495 0.0000 17.8961
# 5 -5.1643 4.2733 12.3300 0.0000 37.9954 0.0000
# 6 0.0000 0.0000 0.0000 17.8961 0.0000 26.9868
#
#
#
# Elastic Compliance Matrix: (Units=1/GPa)
#
#
# Indices 1 2 3 4 5 6 
#
# 1 0.008139 -0.002846 -0.000016 0.000000 0.001431 0.000000
# 2 -0.002846 0.009006 -0.002943 0.000000 -0.000445 0.000000
# 3 -0.000016 -0.002943 0.010381 0.000000 -0.003040 0.000000
# 4 0.000000 0.000000 0.000000 0.239130 0.000000 -0.158578
# 5 0.001431 -0.000445 -0.003040 0.000000 0.027550 0.000000
# 6 0.000000 0.000000 0.000000 -0.158578 0.000000 0.142215
#
#
# Mechanical properties :
#
#
# Convention : Reuss Voigt Hill
#
# Bulk Modulus (GPa) = 62.82762 66.14765 64.48763
# Shear Modulus (GPa) = 11.02932 35.57445 23.30188
#
# Velocity S-wave (km/s) = 2.09838 3.76859 3.05004
# Velocity P-wave (km/s) = 5.56358 6.73382 6.17647
#
# Compressibility (1/GPa) = 0.01591657
#
# Stress axis : x y z
#
# Youngs Moduli (GPa) = 122.86766 111.03130 96.32797
#
# Poissons Ratio (x) = 0.31602 0.00153
# Poissons Ratio (y) = 0.34971 0.28348
# Poissons Ratio (z) = 0.00195 0.32675
#
# Static dielectric constant tensor:
#      x y z
#    x 2.233620 0.000000 -0.052510 
#    y 0.000000 2.179400 0.000000 
#    z -0.052510 0.000000 2.011170 
# 
# From -- ./inp_files/159103.got.cif
#   From: 2010.05.17/outbox.cif.g08.bks.cpg/sg15_80_cif.got.tgz:159103.got - 2010.06.03 18:47:42.
