data_PCOD9297041
_publ_section_title
;
Structure prediction by ZEFSAII (Michael W. Deem and Ramdas Pophale) SiO2 
 PCOD9297041
Probable space group: C 2/C
;
_chemical_formula_sum "Si O2"
_cell_formula_units_Z 48
_cell_length_a 29.711865
_cell_length_b 5.186543
_cell_length_c 14.105884
_cell_angle_alpha 90.000000
_cell_angle_beta 112.100232
_cell_angle_gamma 90.000000
_cell_volume 2014.031849
_symmetry_space_group_name_H-M "C 2/C"
_symmetry_group_IT_number 15
_symmetry_cell_setting 'monoclinic'
loop_
_space_group_symop_operation_xyz
x,y,z
-x,y,1/2-z
-x,-y,-z
x,-y,1/2+z
1/2+x,1/2+y,z
1/2-x,1/2+y,1/2-z
1/2-x,1/2-y,-z
1/2+x,1/2-y,1/2+z
loop_
_atom_site_type_symbol
_atom_site_label
_atom_site_fract_x
_atom_site_fract_y
_atom_site_fract_z
Si Si1 0.541984 0.525973 0.614548
Si Si2 0.308343 0.888207 0.341073
Si Si3 0.107928 0.019076 0.328247
Si Si4 0.466788 0.871124 0.658104
Si Si5 0.701174 0.389987 0.290845
Si Si6 0.598523 0.845943 0.512744
O O1 0.500000 0.500000 0.500000
O O2 0.577110 0.360962 0.714585
O O3 0.507338 0.665358 0.662401
O O4 0.584517 0.677971 0.592320
O O5 0.305641 0.100792 0.254373
O O6 0.258219 0.920696 0.359529
O O7 0.356535 0.966740 0.434269
O O8 0.308675 0.599810 0.300350
O O9 0.081194 0.751395 0.334832
O O10 0.162483 0.959680 0.339925
O O11 0.105967 0.184411 0.422465
O O12 0.500000 0.054495 0.750000
O O13 0.449964 0.995343 0.547540
#
# Coordination Sequence:
#
# PCOD9297041 Si02
#       6
#     8   8   8   8   8   8
#     4  11  23  43  65  91 138 187 228 286 348 416
#     4  10  24  45  74 104 134 192 228 285 357 423
#     4  11  25  42  66 100 138 172 239 290 345 411
#     4  10  25  41  60 100 137 177 233 284 346 413
#     4  10  23  47  72 101 145 178 234 288 353 420
#     4  12  25  40  71  98 134 186 235 289 349 421
#
# _framework density 23.832792000000001
#
# number of rings (size 3 to 8) (size 9 to 14) (size 15 to 20)
#    0.000    1.333    3.333    0.500    9.333    0.667 
#    0.000    0.833    0.000    0.000    0.000    0.000 
#    0.000    0.000    0.000    0.000    0.000    0.000 
#
# Total GULP energy -133811.629465 kJ/mol
# GULP energy per Si atom -5575.484561 kJ/mol
# Density = 2.377855 g / cm^3
# Si number density = 23.832792 Si / 1000 Ang^3
#
#
#
# Elastic Constant Matrix: (Units=GPa)
#
#
# Indices 1 2 3 4 5 6 
#
# 1 153.8413 3.9475 19.2556 0.0000 -7.1894 0.0000
# 2 3.9475 36.3856 -4.6424 0.0000 -1.1627 0.0000
# 3 19.2556 -4.6424 81.2599 0.0000 4.7020 0.0000
# 4 0.0000 0.0000 0.0000 27.1786 0.0000 13.8839
# 5 -7.1894 -1.1627 4.7020 0.0000 33.5082 0.0000
# 6 0.0000 0.0000 0.0000 13.8839 0.0000 20.4791
#
#
#
# Elastic Compliance Matrix: (Units=1/GPa)
#
#
# Indices 1 2 3 4 5 6 
#
# 1 0.006823 -0.000912 -0.001766 0.000000 0.001680 0.000000
# 2 -0.000912 0.027826 0.001776 0.000000 0.000521 0.000000
# 3 -0.001766 0.001776 0.012950 0.000000 -0.002134 0.000000
# 4 0.000000 0.000000 0.000000 0.056287 0.000000 -0.038160
# 5 0.001680 0.000521 -0.002134 0.000000 0.030522 0.000000
# 6 0.000000 0.000000 0.000000 -0.038160 0.000000 0.074701
#
#
# Mechanical properties :
#
#
# Convention : Reuss Voigt Hill
#
# Bulk Modulus (GPa) = 21.83713 34.28979 28.06346
# Shear Modulus (GPa) = 22.10647 33.09493 27.60070
#
# Velocity S-wave (km/s) = 3.04890 3.73048 3.40678
# Velocity P-wave (km/s) = 4.64510 5.74231 5.22260
#
# Compressibility (1/GPa) = 0.04579356
#
# Stress axis : x y z
#
# Youngs Moduli (GPa) = 146.55920 35.93819 77.22212
#
# Poissons Ratio (x) = 0.03277 0.13639
# Poissons Ratio (y) = 0.13365 -0.13712
# Poissons Ratio (z) = 0.25885 -0.06381
#
# Static dielectric constant tensor:
#      x y z
#    x 1.827590 0.000000 -0.020130 
#    y 0.000000 2.108410 0.000000 
#    z -0.020130 0.000000 2.208160 
# 
# From -- ./inp_files/180214.got.cif
#   From: 2010.05.17/outbox.cif.g08.bks.cpg/sg15_91_cif.got.tgz:180214.got - 2010.06.03 18:47:42.
