data_PCOD9297718
_publ_section_title
;
Structure prediction by ZEFSAII (Michael W. Deem and Ramdas Pophale) SiO2 
 PCOD9297718
Probable space group: C 2/C
;
_chemical_formula_sum "Si O2"
_cell_formula_units_Z 40
_cell_length_a 8.745462
_cell_length_b 8.525971
_cell_length_c 24.025175
_cell_angle_alpha 90.000000
_cell_angle_beta 92.961221
_cell_angle_gamma 90.000000
_cell_volume 1789.010458
_symmetry_space_group_name_H-M "C 2/C"
_symmetry_group_IT_number 15
_symmetry_cell_setting 'monoclinic'
loop_
_space_group_symop_operation_xyz
x,y,z
-x,y,1/2-z
-x,-y,-z
x,-y,1/2+z
1/2+x,1/2+y,z
1/2-x,1/2+y,1/2-z
1/2-x,1/2-y,-z
1/2+x,1/2-y,1/2+z
loop_
_atom_site_type_symbol
_atom_site_label
_atom_site_fract_x
_atom_site_fract_y
_atom_site_fract_z
Si Si1 0.316440 0.959263 0.673480
Si Si2 0.672850 0.301504 0.770201
Si Si3 0.360393 0.590970 0.928641
Si Si4 0.149406 0.425913 0.626595
Si Si5 0.284848 0.412066 0.031161
O O1 0.318607 0.124970 0.706364
O O2 0.192604 0.976592 0.622057
O O3 0.275222 0.827705 0.717499
O O4 0.480493 0.932739 0.648731
O O5 0.500000 0.338320 0.750000
O O6 0.733637 0.415393 0.819923
O O7 0.327299 0.765338 0.907145
O O8 0.540463 0.580018 0.944380
O O9 0.270775 0.543096 0.982764
O O10 0.179456 0.561264 0.582650
O O11 0.250000 0.250000 0.000000
#
# Coordination Sequence:
#
# PCOD9297718 Si02
#       5
#     8   8   8   8   8
#     4  11  25  43  66  95 127 166 212 263 316 377
#     4  11  24  42  65  92 126 165 209 258 317 378
#     4  10  24  42  65  94 129 171 211 258 317 378
#     4  11  24  43  65  94 129 166 211 261 316 376
#     4  11  24  42  66  95 129 169 214 262 316 376
#
# _framework density 22.358729
#
# number of rings (size 3 to 8) (size 9 to 14) (size 15 to 20)
#    0.000    1.200    0.000    4.800    0.000   19.200 
#    0.000    0.000    0.000    0.000    0.000    0.000 
#    0.000    0.000    0.000    0.000    0.000    0.000 
#
# Total GULP energy -112006.147864 kJ/mol
# GULP energy per Si atom -5600.307393 kJ/mol
# Density = 2.230784 g / cm^3
# Si number density = 22.358729 Si / 1000 Ang^3
#
#
#
# Elastic Constant Matrix: (Units=GPa)
#
#
# Indices 1 2 3 4 5 6 
#
# 1 114.1290 25.2707 74.6941 0.0000 -2.6826 0.0000
# 2 25.2707 64.7804 42.6808 0.0000 5.1417 0.0000
# 3 74.6941 42.6808 159.7871 0.0000 15.2473 0.0000
# 4 0.0000 0.0000 0.0000 49.8030 0.0000 -6.3031
# 5 -2.6826 5.1417 15.2473 0.0000 42.8143 0.0000
# 6 0.0000 0.0000 0.0000 -6.3031 0.0000 24.5446
#
#
#
# Elastic Compliance Matrix: (Units=1/GPa)
#
#
# Indices 1 2 3 4 5 6 
#
# 1 0.013106 -0.001369 -0.006061 0.000000 0.003144 0.000000
# 2 -0.001369 0.018886 -0.004327 0.000000 -0.000813 0.000000
# 3 -0.006061 -0.004327 0.010594 0.000000 -0.003633 0.000000
# 4 0.000000 0.000000 0.000000 0.020754 0.000000 0.005330
# 5 0.003144 -0.000813 -0.003633 0.000000 0.024945 0.000000
# 6 0.000000 0.000000 0.000000 0.005330 0.000000 0.042111
#
#
# Mechanical properties :
#
#
# Convention : Reuss Voigt Hill
#
# Bulk Modulus (GPa) = 52.43240 69.33196 60.88218
# Shear Modulus (GPa) = 31.19804 36.50243 33.85024
#
# Velocity S-wave (km/s) = 3.73948 4.04490 3.89519
# Velocity P-wave (km/s) = 6.49202 7.27263 6.89339
#
# Compressibility (1/GPa) = 0.01907218
#
# Stress axis : x y z
#
# Youngs Moduli (GPa) = 76.30350 52.94834 94.39322
#
# Poissons Ratio (x) = 0.07248 0.57209
# Poissons Ratio (y) = 0.10445 0.40847
# Poissons Ratio (z) = 0.46245 0.22912
#
# Static dielectric constant tensor:
#      x y z
#    x 1.775270 0.000000 0.004390 
#    y 0.000000 1.834890 0.000000 
#    z 0.004390 0.000000 1.818580 
# 
# From -- ./inp_files/262524.got.cif
#   From: 2010.05.17/outbox.cif.g08.bks.cpg/sg15_132_cif.got.tgz:262524.got - 2010.06.03 18:47:42.
