data_PCOD9297659
_publ_section_title
;
Structure prediction by ZEFSAII (Michael W. Deem and Ramdas Pophale) SiO2 
 PCOD9297659
Probable space group: C 2/C
;
_chemical_formula_sum "Si O2"
_cell_formula_units_Z 60
_cell_length_a 14.391541
_cell_length_b 25.090521
_cell_length_c 8.666193
_cell_angle_alpha 90.000000
_cell_angle_beta 67.401535
_cell_angle_gamma 90.000000
_cell_volume 2889.021545
_symmetry_space_group_name_H-M "C 2/C"
_symmetry_group_IT_number 15
_symmetry_cell_setting 'monoclinic'
loop_
_space_group_symop_operation_xyz
x,y,z
-x,y,1/2-z
-x,-y,-z
x,-y,1/2+z
1/2+x,1/2+y,z
1/2-x,1/2+y,1/2-z
1/2-x,1/2-y,-z
1/2+x,1/2-y,1/2+z
loop_
_atom_site_type_symbol
_atom_site_label
_atom_site_fract_x
_atom_site_fract_y
_atom_site_fract_z
Si Si1 0.701317 0.163434 0.525227
Si Si2 0.097896 0.226340 0.092895
Si Si3 0.692150 0.004341 0.027253
Si Si4 0.233207 0.829687 0.942004
Si Si5 0.606366 0.255839 0.236487
Si Si6 0.248541 0.578209 0.277097
Si Si7 0.157442 0.391024 0.359883
Si Si8 0.000000 0.435598 0.250000
O O1 0.806353 0.191905 0.418713
O O2 0.623593 0.211147 0.601767
O O3 0.675196 0.120847 0.409343
O O4 0.716513 0.131629 0.674882
O O5 0.000000 0.211646 0.250000
O O6 0.087758 0.220036 0.916301
O O7 0.713262 0.036814 0.169805
O O8 0.587689 0.973008 0.123868
O O9 0.683081 0.050403 0.905119
O O10 0.771646 0.961051 0.907433
O O11 0.301287 0.785750 0.811489
O O12 0.191468 0.878406 0.864993
O O13 0.145541 0.799363 0.089202
O O14 0.312931 0.853306 0.016930
O O15 0.500000 0.231884 0.250000
O O16 0.047765 0.398972 0.353831
#
# Coordination Sequence:
#
# PCOD9297659 Si02
#       8
#     8   8   8   8   8   8   8   4
#     4  11  23  42  63  87 129 173 214 252 322 379
#     4  11  26  41  62  94 129 165 215 270 316 379
#     4  11  23  37  56  89 126 162 212 258 309 370
#     4  10  24  42  61  91 132 167 217 263 316 382
#     4  11  24  41  64  93 128 167 215 273 321 370
#     4  11  21  40  61  87 122 175 205 255 307 380
#     4  11  23  38  58  83 126 171 208 258 305 378
#     4  12  22  36  58  88 134 162 210 254 310 382
#
# _framework density 20.768277000000001
#
# number of rings (size 3 to 8) (size 9 to 14) (size 15 to 20)
#    0.000    1.067    5.333    0.400    4.667    1.067 
#    2.400    0.000    0.000    0.000    0.000   15.867 
#    0.000    0.000    0.000    0.000    0.000    0.000 
#
# Total GULP energy -167050.012490 kJ/mol
# GULP energy per Si atom -5568.333750 kJ/mol
# Density = 2.072101 g / cm^3
# Si number density = 20.768277 Si / 1000 Ang^3
#
#
#
# Elastic Constant Matrix: (Units=GPa)
#
#
# Indices 1 2 3 4 5 6 
#
# 1 40.2949 13.0647 22.5095 0.0000 -5.8230 0.0000
# 2 13.0647 85.3185 54.2369 0.0000 -5.6667 0.0000
# 3 22.5095 54.2369 112.5115 0.0000 -8.3380 0.0000
# 4 0.0000 0.0000 0.0000 47.1541 0.0000 -12.2131
# 5 -5.8230 -5.6667 -8.3380 0.0000 32.1349 0.0000
# 6 0.0000 0.0000 0.0000 -12.2131 0.0000 104.6539
#
#
#
# Elastic Compliance Matrix: (Units=1/GPa)
#
#
# Indices 1 2 3 4 5 6 
#
# 1 0.028428 -0.000961 -0.004950 0.000000 0.003697 0.000000
# 2 -0.000961 0.016957 -0.007926 0.000000 0.000760 0.000000
# 3 -0.004950 -0.007926 0.013794 0.000000 0.001285 0.000000
# 4 0.000000 0.000000 0.000000 0.021868 0.000000 0.002552
# 5 0.003697 0.000760 0.001285 0.000000 0.032256 0.000000
# 6 0.000000 0.000000 0.000000 0.002552 0.000000 0.009853
#
#
# Mechanical properties :
#
#
# Convention : Reuss Voigt Hill
#
# Bulk Modulus (GPa) = 31.74022 46.41635 39.07829
# Shear Modulus (GPa) = 30.99215 46.67617 38.83416
#
# Velocity S-wave (km/s) = 3.86720 4.74590 4.32890
# Velocity P-wave (km/s) = 5.93772 7.24082 6.62141
#
# Compressibility (1/GPa) = 0.03150577
#
# Stress axis : x y z
#
# Youngs Moduli (GPa) = 35.17639 58.97400 72.49464
#
# Poissons Ratio (x) = 0.05665 0.35887
# Poissons Ratio (y) = 0.03379 0.57456
# Poissons Ratio (z) = 0.17414 0.46740
#
# Static dielectric constant tensor:
#      x y z
#    x 1.736190 0.000000 0.042930 
#    y 0.000000 1.768800 0.000000 
#    z 0.042930 0.000000 1.823360 
# 
# From -- ./inp_files/42621.got.cif
#   From: 2010.05.17/outbox.cif.g08.bks.cpg/sg15_22_cif.got.tgz:42621.got - 2010.06.03 18:47:42.
