data_PCOD9297270
_publ_section_title
;
Structure prediction by ZEFSAII (Michael W. Deem and Ramdas Pophale) SiO2 
 PCOD9297270
Probable space group: C 2/C
;
_chemical_formula_sum "Si O2"
_cell_formula_units_Z 60
_cell_length_a 9.215946
_cell_length_b 20.720622
_cell_length_c 18.332190
_cell_angle_alpha 90.000000
_cell_angle_beta 55.558193
_cell_angle_gamma 90.000000
_cell_volume 2887.045318
_symmetry_space_group_name_H-M "C 2/C"
_symmetry_group_IT_number 15
_symmetry_cell_setting 'monoclinic'
loop_
_space_group_symop_operation_xyz
x,y,z
-x,y,1/2-z
-x,-y,-z
x,-y,1/2+z
1/2+x,1/2+y,z
1/2-x,1/2+y,1/2-z
1/2-x,1/2-y,-z
1/2+x,1/2-y,1/2+z
loop_
_atom_site_type_symbol
_atom_site_label
_atom_site_fract_x
_atom_site_fract_y
_atom_site_fract_z
Si Si1 0.159804 0.649200 0.460290
Si Si2 0.219159 0.987837 0.621545
Si Si3 0.151879 0.956437 0.810303
Si Si4 0.453862 0.256801 0.459711
Si Si5 0.897362 0.394786 0.139794
Si Si6 0.952961 0.189461 0.124292
Si Si7 0.500000 0.024323 0.750000
Si Si8 0.654827 0.284899 0.260983
O O1 0.190082 0.573402 0.441169
O O2 0.345026 0.685926 0.406679
O O3 0.035947 0.684919 0.438402
O O4 0.047098 0.652243 0.566275
O O5 0.192472 0.962502 0.712346
O O6 0.032227 0.995705 0.633766
O O7 0.326114 0.053711 0.600642
O O8 0.114863 0.883626 0.845136
O O9 0.320350 0.983473 0.804435
O O10 0.250000 0.250000 0.500000
O O11 0.463014 0.289514 0.536682
O O12 0.566840 0.291401 0.365100
O O13 0.731984 0.352865 0.212296
O O14 0.977078 0.432757 0.184919
O O15 0.818266 0.235366 0.206463
O O16 0.500000 0.263280 0.250000
#
# Coordination Sequence:
#
# PCOD9297270 Si02
#       8
#     8   8   8   8   8   8   4   8
#     4  11  23  44  67 100 133 173 229 276 328 396
#     4   9  20  41  68  92 129 182 223 265 324 407
#     4   9  20  40  65  92 128 173 224 269 326 383
#     4  12  25  44  67 102 135 176 224 272 338 396
#     4  11  24  41  65  96 136 173 222 270 334 397
#     4  11  24  44  68 100 135 171 225 280 325 401
#     4  10  24  38  62  96 132 176 216 276 330 394
#     4  12  26  43  69  97 134 177 215 277 340 396
#
# _framework density 20.782492999999999
#
# number of rings (size 3 to 8) (size 9 to 14) (size 15 to 20)
#    0.000    1.333    2.667    1.600    6.533    3.733 
#    0.000    4.000    0.000    0.000    0.000    0.000 
#    0.000    0.000    0.000    0.000    0.000    0.000 
#
# Total GULP energy -167473.590108 kJ/mol
# GULP energy per Si atom -5582.453004 kJ/mol
# Density = 2.073519 g / cm^3
# Si number density = 20.782493 Si / 1000 Ang^3
#
#
#
# Elastic Constant Matrix: (Units=GPa)
#
#
# Indices 1 2 3 4 5 6 
#
# 1 147.7643 60.5687 34.6350 0.0000 -37.7241 0.0000
# 2 60.5687 60.0359 14.0781 0.0000 -18.7835 0.0000
# 3 34.6350 14.0781 87.2675 0.0000 -30.1352 0.0000
# 4 0.0000 0.0000 0.0000 28.7713 0.0000 2.3981
# 5 -37.7241 -18.7835 -30.1352 0.0000 29.0168 0.0000
# 6 0.0000 0.0000 0.0000 2.3981 0.0000 23.7371
#
#
#
# Elastic Compliance Matrix: (Units=1/GPa)
#
#
# Indices 1 2 3 4 5 6 
#
# 1 0.014001 -0.010559 0.000112 0.000000 0.011484 0.000000
# 2 -0.010559 0.029082 0.001964 0.000000 0.007138 0.000000
# 3 0.000112 0.001964 0.018066 0.000000 0.020180 0.000000
# 4 0.000000 0.000000 0.000000 0.035052 0.000000 -0.003541
# 5 0.011484 0.007138 0.020180 0.000000 0.074971 0.000000
# 6 0.000000 0.000000 0.000000 -0.003541 0.000000 0.042486
#
#
# Mechanical properties :
#
#
# Convention : Reuss Voigt Hill
#
# Bulk Modulus (GPa) = 22.63246 57.07014 39.85130
# Shear Modulus (GPa) = 20.37895 28.69078 24.53486
#
# Velocity S-wave (km/s) = 3.13482 3.71957 3.43965
# Velocity P-wave (km/s) = 4.90067 6.77992 5.91540
#
# Compressibility (1/GPa) = 0.04418433
#
# Stress axis : x y z
#
# Youngs Moduli (GPa) = 71.42284 34.38564 55.35239
#
# Poissons Ratio (x) = 0.36307 -0.00621
# Poissons Ratio (y) = 0.75413 -0.10871
# Poissons Ratio (z) = -0.00802 -0.06753
#
# Static dielectric constant tensor:
#      x y z
#    x 1.737140 0.000000 -0.003070 
#    y 0.000000 1.762150 0.000000 
#    z -0.003070 0.000000 1.773770 
# 
# From -- ./inp_files/192536.got.cif
#   From: 2010.05.17/outbox.cif.g08.bks.cpg/sg15_97_cif.got.tgz:192536.got - 2010.06.03 18:47:42.
