data_PCOD9297913
_publ_section_title
;
Structure prediction by ZEFSAII (Michael W. Deem and Ramdas Pophale) SiO2 
 PCOD9297913
Probable space group: C 2/C
;
_chemical_formula_sum "Si O2"
_cell_formula_units_Z 44
_cell_length_a 19.223247
_cell_length_b 8.312828
_cell_length_c 17.715469
_cell_angle_alpha 90.000000
_cell_angle_beta 140.812702
_cell_angle_gamma 90.000000
_cell_volume 1788.740466
_symmetry_space_group_name_H-M "C 2/C"
_symmetry_group_IT_number 15
_symmetry_cell_setting 'monoclinic'
loop_
_space_group_symop_operation_xyz
x,y,z
-x,y,1/2-z
-x,-y,-z
x,-y,1/2+z
1/2+x,1/2+y,z
1/2-x,1/2+y,1/2-z
1/2-x,1/2-y,-z
1/2+x,1/2-y,1/2+z
loop_
_atom_site_type_symbol
_atom_site_label
_atom_site_fract_x
_atom_site_fract_y
_atom_site_fract_z
Si Si1 0.836523 0.646899 0.988410
Si Si2 0.027611 0.055757 0.858711
Si Si3 0.500000 0.000000 0.500000
Si Si4 0.750308 0.584282 0.543061
Si Si5 0.663803 0.280445 0.222460
Si Si6 0.353338 0.912700 0.282718
O O1 0.921747 0.764831 0.100213
O O2 0.775607 0.547755 0.001210
O O3 0.745643 0.743331 0.862620
O O4 0.902684 0.538954 0.984910
O O5 0.000000 0.004420 0.750000
O O6 0.922646 0.085415 0.823591
O O7 0.128548 0.949804 0.972843
O O8 0.545747 0.162688 0.588556
O O9 0.750000 0.750000 0.500000
O O10 0.842581 0.588181 0.685323
O O11 0.740445 0.346917 0.221029
O O12 0.616823 0.100116 0.163720
#
# Coordination Sequence:
#
# PCOD9297913 Si02
#       6
#     8   8   4   8   8   8
#     4  11  23  46  71  99 139 185 238 291 350 433
#     4  12  23  44  74 101 131 189 236 286 362 429
#     4  10  24  42  72 100 128 188 238 290 350 426
#     4  12  28  46  67 105 149 183 234 307 361 427
#     4  11  24  45  73 102 141 182 242 289 353 437
#     4  11  25  46  70 104 140 188 236 302 361 430
#
# _framework density 24.598314999999999
#
# number of rings (size 3 to 8) (size 9 to 14) (size 15 to 20)
#    0.000    0.727    5.455    1.636    5.091    0.727 
#    9.818    0.000    0.000    0.000    0.000    0.000 
#    0.000    0.000    0.000    0.000    0.000    0.000 
#
# Total GULP energy -122687.133866 kJ/mol
# GULP energy per Si atom -5576.687903 kJ/mol
# Density = 2.454233 g / cm^3
# Si number density = 24.598315 Si / 1000 Ang^3
#
#
#
# Elastic Constant Matrix: (Units=GPa)
#
#
# Indices 1 2 3 4 5 6 
#
# 1 77.7195 17.9046 14.4269 0.0000 0.5920 0.0000
# 2 17.9046 39.4518 4.6331 0.0000 -2.2023 0.0000
# 3 14.4269 4.6331 126.3370 0.0000 -23.3628 0.0000
# 4 0.0000 0.0000 0.0000 10.6128 0.0000 1.0210
# 5 0.5920 -2.2023 -23.3628 0.0000 47.2443 0.0000
# 6 0.0000 0.0000 0.0000 1.0210 0.0000 38.3175
#
#
#
# Elastic Compliance Matrix: (Units=1/GPa)
#
#
# Indices 1 2 3 4 5 6 
#
# 1 0.014697 -0.006546 -0.001683 0.000000 -0.001321 0.000000
# 2 -0.006546 0.028400 -0.000037 0.000000 0.001387 0.000000
# 3 -0.001683 -0.000037 0.008929 0.000000 0.004435 0.000000
# 4 0.000000 0.000000 0.000000 0.094468 0.000000 -0.002517
# 5 -0.001321 0.001387 0.004435 0.000000 0.023441 0.000000
# 6 0.000000 0.000000 0.000000 -0.002517 0.000000 0.026165
#
#
# Mechanical properties :
#
#
# Convention : Reuss Voigt Hill
#
# Bulk Modulus (GPa) = 28.17397 35.27083 31.72240
# Shear Modulus (GPa) = 22.27527 33.00450 27.63989
#
# Velocity S-wave (km/s) = 3.01252 3.66695 3.35572
# Velocity P-wave (km/s) = 4.85580 5.68318 5.28571
#
# Compressibility (1/GPa) = 0.03549376
#
# Stress axis : x y z
#
# Youngs Moduli (GPa) = 68.03970 35.21106 111.99520
#
# Poissons Ratio (x) = 0.23050 0.18845
# Poissons Ratio (y) = 0.44541 0.00419
# Poissons Ratio (z) = 0.11449 0.00132
#
# Static dielectric constant tensor:
#      x y z
#    x 1.985210 0.000000 0.082690 
#    y 0.000000 2.063130 0.000000 
#    z 0.082690 0.000000 2.889280 
# 
# From -- ./inp_files/209735.got.cif
#   From: 2010.05.17/outbox.cif.g08.bks.cpg/sg15_105_cif.got.tgz:209735.got - 2010.06.03 18:47:42.
