data_PCOD9297663
_publ_section_title
;
Structure prediction by ZEFSAII (Michael W. Deem and Ramdas Pophale) SiO2 
 PCOD9297663
Probable space group: C 2/C
;
_chemical_formula_sum "Si O2"
_cell_formula_units_Z 36
_cell_length_a 6.472441
_cell_length_b 19.661558
_cell_length_c 12.767151
_cell_angle_alpha 90.000000
_cell_angle_beta 79.676042
_cell_angle_gamma 90.000000
_cell_volume 1598.421597
_symmetry_space_group_name_H-M "C 2/C"
_symmetry_group_IT_number 15
_symmetry_cell_setting 'monoclinic'
loop_
_space_group_symop_operation_xyz
x,y,z
-x,y,1/2-z
-x,-y,-z
x,-y,1/2+z
1/2+x,1/2+y,z
1/2-x,1/2+y,1/2-z
1/2-x,1/2-y,-z
1/2+x,1/2-y,1/2+z
loop_
_atom_site_type_symbol
_atom_site_label
_atom_site_fract_x
_atom_site_fract_y
_atom_site_fract_z
Si Si1 0.838731 0.691458 0.364875
Si Si2 0.814812 0.946456 0.009769
Si Si3 0.500000 0.259281 0.750000
Si Si4 0.500073 0.947602 0.873857
Si Si5 0.912931 0.819552 0.143402
O O1 0.612457 0.699017 0.332349
O O2 0.872653 0.620440 0.420189
O O3 0.000000 0.688214 0.250000
O O4 0.925800 0.760616 0.409599
O O5 0.880781 0.879475 0.064942
O O6 0.612629 0.983349 0.080130
O O7 0.731774 0.936998 0.899526
O O8 0.000000 0.000000 0.000000
O O9 0.313596 0.214145 0.815007
O O10 0.500000 0.950387 0.750000
O O11 0.000000 0.842956 0.250000
#
# Coordination Sequence:
#
# PCOD9297663 Si02
#       5
#     8   8   4   8   8
#     4   8  17  36  60  91 116 155 203 250 303 363
#     4  11  26  40  58  93 123 162 207 248 306 370
#     4   8  16  34  64  88 118 156 196 250 306 352
#     4  10  24  42  62  88 125 158 206 254 304 368
#     4   9  20  36  61  89 120 157 207 246 299 364
#
# _framework density 22.522220999999998
#
# number of rings (size 3 to 8) (size 9 to 14) (size 15 to 20)
#    0.000    3.111    0.000    0.000    4.667   11.556 
#    0.000    2.222    0.000    0.000    0.000    0.000 
#    0.000    0.000    0.000    0.000    0.000    0.000 
#
# Total GULP energy -100530.131645 kJ/mol
# GULP energy per Si atom -5585.007314 kJ/mol
# Density = 2.247096 g / cm^3
# Si number density = 22.522221 Si / 1000 Ang^3
#
#
#
# Elastic Constant Matrix: (Units=GPa)
#
#
# Indices 1 2 3 4 5 6 
#
# 1 140.3670 21.8604 38.2431 0.0000 34.9682 0.0000
# 2 21.8604 91.7473 22.3218 0.0000 17.4755 0.0000
# 3 38.2431 22.3218 74.9510 0.0000 28.5196 0.0000
# 4 0.0000 0.0000 0.0000 41.5246 0.0000 43.2655
# 5 34.9682 17.4755 28.5196 0.0000 38.8480 0.0000
# 6 0.0000 0.0000 0.0000 43.2655 0.0000 149.6763
#
#
#
# Elastic Compliance Matrix: (Units=1/GPa)
#
#
# Indices 1 2 3 4 5 6 
#
# 1 0.009454 -0.000451 -0.002121 0.000000 -0.006750 0.000000
# 2 -0.000451 0.012184 -0.002036 0.000000 -0.003580 0.000000
# 3 -0.002121 -0.002036 0.019365 0.000000 -0.011391 0.000000
# 4 0.000000 0.000000 0.000000 0.034461 0.000000 -0.009961
# 5 -0.006750 -0.003580 -0.011391 0.000000 0.041790 0.000000
# 6 0.000000 0.000000 0.000000 -0.009961 0.000000 0.009561
#
#
# Mechanical properties :
#
#
# Convention : Reuss Voigt Hill
#
# Bulk Modulus (GPa) = 31.45969 52.43511 41.94740
# Shear Modulus (GPa) = 34.10004 60.98580 47.54292
#
# Velocity S-wave (km/s) = 3.89532 5.20930 4.59947
# Velocity P-wave (km/s) = 5.85064 7.71456 6.84633
#
# Compressibility (1/GPa) = 0.03178671
#
# Stress axis : x y z
#
# Youngs Moduli (GPa) = 105.77810 82.07277 51.63865
#
# Poissons Ratio (x) = 0.03700 0.10953
# Poissons Ratio (y) = 0.04769 0.10515
# Poissons Ratio (z) = 0.22437 0.16713
#
# Static dielectric constant tensor:
#      x y z
#    x 1.845040 0.000000 0.000120 
#    y 0.000000 1.930970 0.000000 
#    z 0.000120 0.000000 1.916520 
# 
# From -- ./inp_files/128725.got.cif
#   From: 2010.05.17/outbox.cif.g08.bks.cpg/sg15_65_cif.got.tgz:128725.got - 2010.06.03 18:47:42.
