data_PCOD9297738
_publ_section_title
;
Structure prediction by ZEFSAII (Michael W. Deem and Ramdas Pophale) SiO2 
 PCOD9297738
Probable space group: C 2/C
;
_chemical_formula_sum "Si O2"
_cell_formula_units_Z 56
_cell_length_a 20.613104
_cell_length_b 15.456778
_cell_length_c 8.007798
_cell_angle_alpha 90.000000
_cell_angle_beta 61.339731
_cell_angle_gamma 90.000000
_cell_volume 2238.783945
_symmetry_space_group_name_H-M "C 2/C"
_symmetry_group_IT_number 15
_symmetry_cell_setting 'monoclinic'
loop_
_space_group_symop_operation_xyz
x,y,z
-x,y,1/2-z
-x,-y,-z
x,-y,1/2+z
1/2+x,1/2+y,z
1/2-x,1/2+y,1/2-z
1/2-x,1/2-y,-z
1/2+x,1/2-y,1/2+z
loop_
_atom_site_type_symbol
_atom_site_label
_atom_site_fract_x
_atom_site_fract_y
_atom_site_fract_z
Si Si1 0.068580 0.603260 0.038413
Si Si2 0.768246 0.102387 0.668252
Si Si3 0.912294 0.216805 0.871538
Si Si4 0.000000 0.157520 0.250000
Si Si5 0.348598 0.451758 0.385059
Si Si6 0.135250 0.741057 0.448157
Si Si7 0.500000 0.500000 0.000000
Si Si8 0.878614 0.433535 0.353752
O O1 0.103292 0.699336 0.997776
O O2 0.112568 0.525080 0.069864
O O3 0.000000 0.613298 0.250000
O O4 0.054000 0.581082 0.861894
O O5 0.783664 0.078921 0.842076
O O6 0.791535 0.201678 0.612630
O O7 0.690893 0.076839 0.684369
O O8 0.825759 0.038048 0.506139
O O9 0.869895 0.129451 0.975974
O O10 0.885547 0.242356 0.718795
O O11 0.000000 0.199905 0.750000
O O12 0.071354 0.216882 0.140028
O O13 0.003014 0.094342 0.403778
O O14 0.424745 0.470330 0.195652
O O15 0.134607 0.640629 0.493500
#
# Coordination Sequence:
#
# PCOD9297738 Si02
#       8
#     8   8   8   4   8   8   4   8
#     4  11  26  47  70 101 123 175 233 296 356 392
#     4  11  24  44  64 102 139 188 225 267 347 413
#     4  10  24  42  66 102 139 170 224 287 346 400
#     4  12  24  38  68 106 138 188 226 274 338 394
#     4  11  23  39  67  99 144 180 228 274 331 413
#     4  11  25  42  68 103 141 180 229 278 341 407
#     4  12  20  40  62 100 142 180 220 272 328 388
#     4  12  26  47  73  94 137 178 230 290 338 419
#
# _framework density 25.013580999999999
#
# number of rings (size 3 to 8) (size 9 to 14) (size 15 to 20)
#    0.000    0.857    4.286    2.571    8.000    1.143 
#    0.000    7.857    0.000    0.000    0.000    0.000 
#    0.000    0.000    0.000    0.000    0.000    0.000 
#
# Total GULP energy -156351.790313 kJ/mol
# GULP energy per Si atom -5583.992511 kJ/mol
# Density = 2.495665 g / cm^3
# Si number density = 25.013581 Si / 1000 Ang^3
#
#
#
# Elastic Constant Matrix: (Units=GPa)
#
#
# Indices 1 2 3 4 5 6 
#
# 1 64.6973 24.9246 -13.7446 0.0000 12.9660 0.0000
# 2 24.9246 74.8768 -5.5667 0.0000 -4.8880 0.0000
# 3 -13.7446 -5.5667 60.8865 0.0000 3.3193 0.0000
# 4 0.0000 0.0000 0.0000 27.7361 0.0000 17.1321
# 5 12.9660 -4.8880 3.3193 0.0000 25.4842 0.0000
# 6 0.0000 0.0000 0.0000 17.1321 0.0000 28.0091
#
#
#
# Elastic Compliance Matrix: (Units=1/GPa)
#
#
# Indices 1 2 3 4 5 6 
#
# 1 0.022292 -0.007928 0.005044 0.000000 -0.013520 0.000000
# 2 -0.007928 0.016418 -0.000685 0.000000 0.007272 0.000000
# 3 0.005044 -0.000685 0.017773 0.000000 -0.005013 0.000000
# 4 0.000000 0.000000 0.000000 0.057948 0.000000 -0.035444
# 5 -0.013520 0.007272 -0.005013 0.000000 0.048166 0.000000
# 6 0.000000 0.000000 0.000000 -0.035444 0.000000 0.057383
#
#
# Mechanical properties :
#
#
# Convention : Reuss Voigt Hill
#
# Bulk Modulus (GPa) = 20.26499 23.52081 21.89290
# Shear Modulus (GPa) = 20.52831 29.23567 24.88199
#
# Velocity S-wave (km/s) = 2.86787 3.42247 3.15737
# Velocity P-wave (km/s) = 4.36869 5.00413 4.69717
#
# Compressibility (1/GPa) = 0.04934620
#
# Stress axis : x y z
#
# Youngs Moduli (GPa) = 44.85920 60.90846 56.26393
#
# Poissons Ratio (x) = 0.48288 -0.28382
# Poissons Ratio (y) = 0.35564 0.03854
# Poissons Ratio (z) = -0.22629 0.04173
#
# Static dielectric constant tensor:
#      x y z
#    x 2.097820 0.000000 -0.062160 
#    y 0.000000 1.952110 0.000000 
#    z -0.062160 0.000000 2.035450 
# 
# From -- ./inp_files/61853.got.cif
#   From: 2010.05.17/outbox.cif.g08.bks.cpg/sg15_31_cif.got.tgz:61853.got - 2010.06.03 18:47:42.
