data_PCOD9297671
_publ_section_title
;
Structure prediction by ZEFSAII (Michael W. Deem and Ramdas Pophale) SiO2 
 PCOD9297671
Probable space group: C 2/C
;
_chemical_formula_sum "Si O2"
_cell_formula_units_Z 40
_cell_length_a 13.946907
_cell_length_b 17.672304
_cell_length_c 8.216854
_cell_angle_alpha 90.000000
_cell_angle_beta 122.486531
_cell_angle_gamma 90.000000
_cell_volume 1708.326448
_symmetry_space_group_name_H-M "C 2/C"
_symmetry_group_IT_number 15
_symmetry_cell_setting 'monoclinic'
loop_
_space_group_symop_operation_xyz
x,y,z
-x,y,1/2-z
-x,-y,-z
x,-y,1/2+z
1/2+x,1/2+y,z
1/2-x,1/2+y,1/2-z
1/2-x,1/2-y,-z
1/2+x,1/2-y,1/2+z
loop_
_atom_site_type_symbol
_atom_site_label
_atom_site_fract_x
_atom_site_fract_y
_atom_site_fract_z
Si Si1 0.078271 0.556619 0.167463
Si Si2 0.877902 0.829957 0.567860
Si Si3 0.824323 0.018456 0.855133
Si Si4 0.376748 0.616467 0.585869
Si Si5 0.209058 0.699925 0.210666
O O1 0.197459 0.510613 0.285926
O O2 0.111863 0.636158 0.118492
O O3 0.000000 0.575104 0.250000
O O4 0.000000 0.500000 0.000000
O O5 0.866558 0.917466 0.515706
O O6 0.844521 0.781617 0.375919
O O7 0.789496 0.813293 0.629818
O O8 0.000000 0.808881 0.750000
O O9 0.830574 0.061144 0.687327
O O10 0.895246 0.941727 0.950278
O O11 0.500000 0.646333 0.750000
O O12 0.286618 0.678240 0.438439
#
# Coordination Sequence:
#
# PCOD9297671 Si02
#       5
#     8   8   8   8   8
#     4  11  22  40  65  93 130 174 222 277 325 382
#     4  11  23  43  67  94 135 178 220 280 341 398
#     4  11  22  38  64  97 130 171 227 274 331 404
#     4  11  21  39  65  96 133 171 218 278 334 394
#     4  10  24  42  62  98 132 174 231 270 332 409
#
# _framework density 23.414728
#
# number of rings (size 3 to 8) (size 9 to 14) (size 15 to 20)
#    0.000    1.200    0.000    8.400    0.000    4.800 
#    0.000    3.000    0.000    0.000    0.000    0.000 
#    0.000    0.000    0.000    0.000    0.000    0.000 
#
# Total GULP energy -111760.176780 kJ/mol
# GULP energy per Si atom -5588.008839 kJ/mol
# Density = 2.336143 g / cm^3
# Si number density = 23.414728 Si / 1000 Ang^3
#
#
#
# Elastic Constant Matrix: (Units=GPa)
#
#
# Indices 1 2 3 4 5 6 
#
# 1 124.8277 29.5183 5.4620 0.0000 -11.6813 0.0000
# 2 29.5183 130.5575 37.6586 0.0000 11.4720 0.0000
# 3 5.4620 37.6586 100.8309 0.0000 7.8749 0.0000
# 4 0.0000 0.0000 0.0000 359.0338 0.0000 352.5964
# 5 -11.6813 11.4720 7.8749 0.0000 34.1694 0.0000
# 6 0.0000 0.0000 0.0000 352.5964 0.0000 459.5267
#
#
#
# Elastic Compliance Matrix: (Units=1/GPa)
#
#
# Indices 1 2 3 4 5 6 
#
# 1 0.008929 -0.002387 0.000109 0.000000 0.003829 0.000000
# 2 -0.002387 0.009385 -0.003122 0.000000 -0.003247 0.000000
# 3 0.000109 -0.003122 0.011195 0.000000 -0.001495 0.000000
# 4 0.000000 0.000000 0.000000 0.011301 0.000000 -0.008672
# 5 0.003829 -0.003247 -0.001495 0.000000 0.032009 0.000000
# 6 0.000000 0.000000 0.000000 -0.008672 0.000000 0.008830
#
#
# Mechanical properties :
#
#
# Convention : Reuss Voigt Hill
#
# Bulk Modulus (GPa) = 53.45268 55.72155 54.58711
# Shear Modulus (GPa) = 50.66607 189.45113 120.05860
#
# Velocity S-wave (km/s) = 4.65677 9.00482 7.16841
# Velocity P-wave (km/s) = 7.19668 11.48760 9.58533
#
# Compressibility (1/GPa) = 0.01870814
#
# Stress axis : x y z
#
# Youngs Moduli (GPa) = 111.99562 106.55345 89.32928
#
# Poissons Ratio (x) = 0.25429 -0.00970
# Poissons Ratio (y) = 0.26728 0.27891
# Poissons Ratio (z) = -0.01217 0.33268
#
# Static dielectric constant tensor:
#      x y z
#    x 1.942060 0.000000 0.036470 
#    y 0.000000 1.831590 0.000000 
#    z 0.036470 0.000000 2.007620 
# 
# From -- ./inp_files/40424.got.cif
#   From: 2010.05.17/outbox.cif.g08.bks.cpg/sg15_21_cif.got.tgz:40424.got - 2010.06.03 18:47:42.
