data_PCOD9297083
_publ_section_title
;
Structure prediction by ZEFSAII (Michael W. Deem and Ramdas Pophale) SiO2 
 PCOD9297083
Probable space group: C 2/C
;
_chemical_formula_sum "Si O2"
_cell_formula_units_Z 44
_cell_length_a 8.529971
_cell_length_b 17.495993
_cell_length_c 13.992521
_cell_angle_alpha 90.000000
_cell_angle_beta 123.800412
_cell_angle_gamma 90.000000
_cell_volume 1735.293479
_symmetry_space_group_name_H-M "C 2/C"
_symmetry_group_IT_number 15
_symmetry_cell_setting 'monoclinic'
loop_
_space_group_symop_operation_xyz
x,y,z
-x,y,1/2-z
-x,-y,-z
x,-y,1/2+z
1/2+x,1/2+y,z
1/2-x,1/2+y,1/2-z
1/2-x,1/2-y,-z
1/2+x,1/2-y,1/2+z
loop_
_atom_site_type_symbol
_atom_site_label
_atom_site_fract_x
_atom_site_fract_y
_atom_site_fract_z
Si Si1 0.228450 0.062163 0.492041
Si Si2 0.500000 0.161124 0.250000
Si Si3 0.020568 0.652503 0.049267
Si Si4 0.284104 0.466147 0.833531
Si Si5 0.709184 0.608684 0.792002
Si Si6 0.784348 0.708759 0.647824
O O1 0.345996 0.078772 0.436093
O O2 0.271433 0.135288 0.574443
O O3 0.005545 0.051477 0.399045
O O4 0.269401 0.989868 0.575169
O O5 0.439283 0.184708 0.123163
O O6 0.325920 0.109851 0.227043
O O7 0.159483 0.722241 0.067332
O O8 0.842179 0.633407 0.922663
O O9 0.220416 0.537239 0.747018
O O10 0.500000 0.587202 0.750000
O O11 0.696931 0.680603 0.717921
O O12 0.000000 0.728657 0.750000
#
# Coordination Sequence:
#
# PCOD9297083 Si02
#       6
#     8   4   8   8   8   8
#     4  10  23  47  77 104 142 194 242 313 366 434
#     4  12  30  42  68 112 150 198 248 298 372 440
#     4  12  28  46  74 106 154 196 247 304 367 440
#     4  10  25  46  72 110 145 186 254 304 369 445
#     4  11  27  48  74 106 147 199 241 309 373 428
#     4  11  25  48  76 111 142 193 253 302 374 444
#
# _framework density 25.355941999999999
#
# number of rings (size 3 to 8) (size 9 to 14) (size 15 to 20)
#    0.000    1.091    1.818    1.636   16.545    2.182 
#    0.000    0.000    0.000    0.000    0.000    0.000 
#    0.000    0.000    0.000    0.000    0.000    0.000 
#
# Total GULP energy -122844.909231 kJ/mol
# GULP energy per Si atom -5583.859510 kJ/mol
# Density = 2.529823 g / cm^3
# Si number density = 25.355942 Si / 1000 Ang^3
#
#
#
# Elastic Constant Matrix: (Units=GPa)
#
#
# Indices 1 2 3 4 5 6 
#
# 1 88.8916 -0.3999 44.1283 0.0000 -14.2033 0.0000
# 2 -0.3999 40.4200 25.4152 0.0000 11.0323 0.0000
# 3 44.1283 25.4152 127.7551 0.0000 -3.3560 0.0000
# 4 0.0000 0.0000 0.0000 22.2340 0.0000 8.9675
# 5 -14.2033 11.0323 -3.3560 0.0000 58.4498 0.0000
# 6 0.0000 0.0000 0.0000 8.9675 0.0000 34.4476
#
#
#
# Elastic Compliance Matrix: (Units=1/GPa)
#
#
# Indices 1 2 3 4 5 6 
#
# 1 0.014403 0.002863 -0.005475 0.000000 0.002645 0.000000
# 2 0.002863 0.030855 -0.007273 0.000000 -0.005546 0.000000
# 3 -0.005475 -0.007273 0.011183 0.000000 0.000684 0.000000
# 4 0.000000 0.000000 0.000000 0.050252 0.000000 -0.013082
# 5 0.002645 -0.005546 0.000684 0.000000 0.018838 0.000000
# 6 0.000000 0.000000 0.000000 -0.013082 0.000000 0.032435
#
#
# Mechanical properties :
#
#
# Convention : Reuss Voigt Hill
#
# Bulk Modulus (GPa) = 27.26863 43.92820 35.59842
# Shear Modulus (GPa) = 26.32121 35.55448 30.93785
#
# Velocity S-wave (km/s) = 3.22540 3.74868 3.49684
# Velocity P-wave (km/s) = 4.96474 6.00825 5.51125
#
# Compressibility (1/GPa) = 0.03667218
#
# Stress axis : x y z
#
# Youngs Moduli (GPa) = 69.42894 32.40939 89.41750
#
# Poissons Ratio (x) = -0.09279 0.48958
# Poissons Ratio (y) = -0.19879 0.65032
# Poissons Ratio (z) = 0.38013 0.23571
#
# Static dielectric constant tensor:
#      x y z
#    x 2.100900 0.000000 -0.624790 
#    y 0.000000 1.980720 0.000000 
#    z -0.624790 0.000000 5.296760 
# 
# From -- ./inp_files/134971.got.cif
#   From: 2010.05.17/outbox.cif.g08.bks.cpg/sg15_68_cif.got.tgz:134971.got - 2010.06.03 18:47:42.
