data_PCOD9297666
_publ_section_title
;
Structure prediction by ZEFSAII (Michael W. Deem and Ramdas Pophale) SiO2 
 PCOD9297666
Probable space group: C 2/C
;
_chemical_formula_sum "Si O2"
_cell_formula_units_Z 60
_cell_length_a 16.014926
_cell_length_b 17.027551
_cell_length_c 8.673130
_cell_angle_alpha 90.000000
_cell_angle_beta 97.026439
_cell_angle_gamma 90.000000
_cell_volume 2347.356425
_symmetry_space_group_name_H-M "C 2/C"
_symmetry_group_IT_number 15
_symmetry_cell_setting 'monoclinic'
loop_
_space_group_symop_operation_xyz
x,y,z
-x,y,1/2-z
-x,-y,-z
x,-y,1/2+z
1/2+x,1/2+y,z
1/2-x,1/2+y,1/2-z
1/2-x,1/2-y,-z
1/2+x,1/2-y,1/2+z
loop_
_atom_site_type_symbol
_atom_site_label
_atom_site_fract_x
_atom_site_fract_y
_atom_site_fract_z
Si Si1 0.000000 0.998717 0.250000
Si Si2 0.308918 0.320706 0.570934
Si Si3 0.731354 0.103916 0.529179
Si Si4 0.549826 0.297181 0.103400
Si Si5 0.313292 0.951520 0.811171
Si Si6 0.614616 0.194865 0.694709
Si Si7 0.081961 0.104390 0.041707
Si Si8 0.558912 0.867108 0.491212
O O1 0.038281 0.947914 0.396443
O O2 0.928425 0.053916 0.306841
O O3 0.250000 0.250000 0.500000
O O4 0.369834 0.345431 0.441453
O O5 0.250772 0.389073 0.623718
O O6 0.367751 0.278566 0.714590
O O7 0.684549 0.070342 0.367590
O O8 0.690589 0.180097 0.595780
O O9 0.825419 0.119144 0.495309
O O10 0.723602 0.036086 0.655775
O O11 0.500000 0.307718 0.250000
O O12 0.476582 0.318855 0.965868
O O13 0.579900 0.207927 0.103416
O O14 0.406347 0.940721 0.907119
O O15 0.534767 0.156738 0.584244
O O16 0.611815 0.139263 0.846030
#
# Coordination Sequence:
#
# PCOD9297666 Si02
#       8
#     4   8   8   8   8   8   8   8
#     4  10  24  42  62  92 146 196 238 294 374 444
#     4  11  25  47  76 104 152 199 254 311 384 454
#     4  12  29  44  78 110 155 196 262 316 386 455
#     4  11  25  40  70 103 143 192 237 303 374 447
#     4  12  27  48  74 112 149 208 251 322 381 458
#     4  10  24  47  74 109 143 195 245 321 371 454
#     4  11  25  43  65 103 142 195 243 304 368 460
#     4  10  24  47  73 102 147 190 251 304 384 441
#
# _framework density 25.560666000000001
#
# number of rings (size 3 to 8) (size 9 to 14) (size 15 to 20)
#    0.000    1.067    3.333    1.600   11.200    2.133 
#    0.000    0.000    0.000    0.000    0.000    0.000 
#    0.000    0.000    0.000    0.000    0.000    0.000 
#
# Total GULP energy -167667.753143 kJ/mol
# GULP energy per Si atom -5588.925105 kJ/mol
# Density = 2.550249 g / cm^3
# Si number density = 25.560666 Si / 1000 Ang^3
#
#
#
# Elastic Constant Matrix: (Units=GPa)
#
#
# Indices 1 2 3 4 5 6 
#
# 1 142.6941 22.1350 41.7613 0.0000 -14.9633 0.0000
# 2 22.1350 53.8532 10.6736 0.0000 -18.0725 0.0000
# 3 41.7613 10.6736 88.0879 0.0000 -25.5081 0.0000
# 4 0.0000 0.0000 0.0000 27.3425 0.0000 -9.1221
# 5 -14.9633 -18.0725 -25.5081 0.0000 53.6139 0.0000
# 6 0.0000 0.0000 0.0000 -9.1221 0.0000 22.5933
#
#
#
# Elastic Compliance Matrix: (Units=1/GPa)
#
#
# Indices 1 2 3 4 5 6 
#
# 1 0.008529 -0.002886 -0.003811 0.000000 -0.000406 0.000000
# 2 -0.002886 0.021939 0.000717 0.000000 0.006931 0.000000
# 3 -0.003811 0.000717 0.014885 0.000000 0.006260 0.000000
# 4 0.000000 0.000000 0.000000 0.042266 0.000000 0.017065
# 5 -0.000406 0.006931 0.006260 0.000000 0.023853 0.000000
# 6 0.000000 0.000000 0.000000 0.017065 0.000000 0.051151
#
#
# Mechanical properties :
#
#
# Convention : Reuss Voigt Hill
#
# Bulk Modulus (GPa) = 29.94735 48.19723 39.07229
# Shear Modulus (GPa) = 26.92305 34.71429 30.81867
#
# Velocity S-wave (km/s) = 3.24898 3.68926 3.47610
# Velocity P-wave (km/s) = 5.08096 6.08641 5.60627
#
# Compressibility (1/GPa) = 0.03339194
#
# Stress axis : x y z
#
# Youngs Moduli (GPa) = 117.25370 45.58055 67.18226
#
# Poissons Ratio (x) = 0.13156 0.25603
# Poissons Ratio (y) = 0.33843 -0.04817
# Poissons Ratio (z) = 0.44686 -0.03268
#
# Static dielectric constant tensor:
#      x y z
#    x 2.064760 0.000000 0.079510 
#    y 0.000000 2.063270 0.000000 
#    z 0.079510 0.000000 2.050520 
# 
# From -- ./inp_files/49093.got.cif
#   From: 2010.05.17/outbox.cif.g08.bks.cpg/sg15_25_cif.got.tgz:49093.got - 2010.06.03 18:47:42.
