data_PCOD9297746
_publ_section_title
;
Structure prediction by ZEFSAII (Michael W. Deem and Ramdas Pophale) SiO2 
 PCOD9297746
Probable space group: C 2/C
;
_chemical_formula_sum "Si O2"
_cell_formula_units_Z 52
_cell_length_a 11.759570
_cell_length_b 15.834053
_cell_length_c 15.205132
_cell_angle_alpha 90.000000
_cell_angle_beta 113.574226
_cell_angle_gamma 90.000000
_cell_volume 2594.934785
_symmetry_space_group_name_H-M "C 2/C"
_symmetry_group_IT_number 15
_symmetry_cell_setting 'monoclinic'
loop_
_space_group_symop_operation_xyz
x,y,z
-x,y,1/2-z
-x,-y,-z
x,-y,1/2+z
1/2+x,1/2+y,z
1/2-x,1/2+y,1/2-z
1/2-x,1/2-y,-z
1/2+x,1/2-y,1/2+z
loop_
_atom_site_type_symbol
_atom_site_label
_atom_site_fract_x
_atom_site_fract_y
_atom_site_fract_z
Si Si1 0.963532 0.300247 0.886836
Si Si2 0.000000 0.904833 0.750000
Si Si3 0.962144 0.489421 0.885389
Si Si4 0.000000 0.622452 0.750000
Si Si5 0.688464 0.265040 0.753410
Si Si6 0.809836 0.300547 0.439743
Si Si7 0.000000 0.831946 0.250000
Si Si8 0.306470 0.537717 0.657997
O O1 0.992557 0.395062 0.863403
O O2 0.815803 0.286937 0.843224
O O3 0.015317 0.229117 0.837325
O O4 0.041501 0.296361 0.000880
O O5 0.907375 0.843231 0.773615
O O6 0.906252 0.965410 0.665559
O O7 0.016039 0.561920 0.839538
O O8 0.812606 0.498179 0.832751
O O9 0.000000 0.500000 0.000000
O O10 0.883188 0.684245 0.728978
O O11 0.719365 0.241288 0.662652
O O12 0.750000 0.250000 0.500000
O O13 0.757041 0.396264 0.429125
O O14 0.111397 0.895855 0.261535
#
# Coordination Sequence:
#
# PCOD9297746 Si02
#       8
#     8   4   8   4   8   8   4   8
#     4  12  21  38  63  93 124 165 214 264 317 383
#     4  10  24  42  66  86 130 174 202 274 320 386
#     4  12  23  40  62  96 131 163 218 272 325 390
#     4  11  23  43  65  90 136 176 209 279 327 389
#     4  11  23  44  63  94 129 172 223 257 335 391
#     4  12  23  41  67  96 128 168 219 270 320 396
#     4  11  21  37  65  84 118 170 205 255 319 379
#     4  11  21  41  62  89 128 165 211 261 322 383
#
# _framework density 20.039038999999999
#
# number of rings (size 3 to 8) (size 9 to 14) (size 15 to 20)
#    0.000    0.615    7.692    0.462    0.000    0.000 
#    2.769    3.077    0.000    0.000    0.000    0.000 
#    0.000    0.000    0.000    0.000    0.000    0.000 
#
# Total GULP energy -144861.068560 kJ/mol
# GULP energy per Si atom -5571.579560 kJ/mol
# Density = 1.999343 g / cm^3
# Si number density = 20.039039 Si / 1000 Ang^3
#
#
#
# Elastic Constant Matrix: (Units=GPa)
#
#
# Indices 1 2 3 4 5 6 
#
# 1 88.4219 34.2330 36.1342 0.0000 13.3481 0.0000
# 2 34.2330 125.5883 33.9703 0.0000 2.6618 0.0000
# 3 36.1342 33.9703 82.9843 0.0000 17.3160 0.0000
# 4 0.0000 0.0000 0.0000 28.0697 0.0000 10.1102
# 5 13.3481 2.6618 17.3160 0.0000 32.5898 0.0000
# 6 0.0000 0.0000 0.0000 10.1102 0.0000 30.6725
#
#
#
# Elastic Compliance Matrix: (Units=1/GPa)
#
#
# Indices 1 2 3 4 5 6 
#
# 1 0.014749 -0.002701 -0.004614 0.000000 -0.003369 0.000000
# 2 -0.002701 0.009503 -0.003130 0.000000 0.001993 0.000000
# 3 -0.004614 -0.003130 0.016750 0.000000 -0.006755 0.000000
# 4 0.000000 0.000000 0.000000 0.040425 0.000000 -0.013325
# 5 -0.003369 0.001993 -0.006755 0.000000 0.035490 0.000000
# 6 0.000000 0.000000 0.000000 -0.013325 0.000000 0.036995
#
#
# Mechanical properties :
#
#
# Convention : Reuss Voigt Hill
#
# Bulk Modulus (GPa) = 49.71859 56.18551 52.95205
# Shear Modulus (GPa) = 27.54733 31.11020 29.32876
#
# Velocity S-wave (km/s) = 3.71169 3.94443 3.82983
# Velocity P-wave (km/s) = 6.57523 6.98882 6.78517
#
# Compressibility (1/GPa) = 0.02011320
#
# Stress axis : x y z
#
# Youngs Moduli (GPa) = 67.80088 105.22824 59.70100
#
# Poissons Ratio (x) = 0.28422 0.27544
# Poissons Ratio (y) = 0.18313 0.18686
# Poissons Ratio (z) = 0.31281 0.32936
#
# Static dielectric constant tensor:
#      x y z
#    x 1.746590 0.000000 0.073110 
#    y 0.000000 1.740750 0.000000 
#    z 0.073110 0.000000 1.733590 
# 
# From -- ./inp_files/198051.got.cif
#   From: 2010.05.17/outbox.cif.g08.bks.cpg/sg15_100_cif.got.tgz:198051.got - 2010.06.03 18:47:42.
