data_PCOD9297539
_publ_section_title
;
Structure prediction by ZEFSAII (Michael W. Deem and Ramdas Pophale) SiO2 
 PCOD9297539
Probable space group: C 2/C
;
_chemical_formula_sum "Si O2"
_cell_formula_units_Z 44
_cell_length_a 30.385300
_cell_length_b 7.628757
_cell_length_c 12.536684
_cell_angle_alpha 90.000000
_cell_angle_beta 124.156012
_cell_angle_gamma 90.000000
_cell_volume 2404.773719
_symmetry_space_group_name_H-M "C 2/C"
_symmetry_group_IT_number 15
_symmetry_cell_setting 'monoclinic'
loop_
_space_group_symop_operation_xyz
x,y,z
-x,y,1/2-z
-x,-y,-z
x,-y,1/2+z
1/2+x,1/2+y,z
1/2-x,1/2+y,1/2-z
1/2-x,1/2-y,-z
1/2+x,1/2-y,1/2+z
loop_
_atom_site_type_symbol
_atom_site_label
_atom_site_fract_x
_atom_site_fract_y
_atom_site_fract_z
Si Si1 0.118476 0.420499 0.875214
Si Si2 0.884117 0.969549 0.106465
Si Si3 0.688569 0.773998 0.391598
Si Si4 0.000000 0.875024 0.750000
Si Si5 0.968420 0.625170 0.878598
Si Si6 0.375974 0.749242 0.398939
O O1 0.123862 0.218077 0.846399
O O2 0.167096 0.542024 0.907496
O O3 0.067105 0.510846 0.752339
O O4 0.116508 0.399898 0.000808
O O5 0.847219 0.121072 0.102834
O O6 0.872026 0.923632 0.966187
O O7 0.946273 0.017695 0.195160
O O8 0.750000 0.750000 0.500000
O O9 0.673997 0.771210 0.246389
O O10 0.005749 0.750764 0.860667
O O11 0.927105 0.739691 0.892143
O O12 0.000000 0.500000 0.000000
#
# Coordination Sequence:
#
# PCOD9297539 Si02
#       6
#     8   8   8   4   8   8
#     4   9  22  44  58  91 132 158 218 258 311 390
#     4  10  24  41  62  96 132 161 217 254 316 398
#     4  11  23  46  68  91 126 165 219 274 317 376
#     4  12  22  38  66  96 134 170 216 256 314 398
#     4  11  22  36  64  94 131 175 208 254 322 371
#     4   9  22  42  59  94 126 166 214 252 328 372
#
# _framework density 18.296938000000001
#
# number of rings (size 3 to 8) (size 9 to 14) (size 15 to 20)
#    1.091    0.727    3.636    1.091    2.545    4.364 
#    3.273    0.000    0.000    0.000    0.000    0.000 
#    0.000    0.000    0.000    0.000    0.000    0.000 
#
# Total GULP energy -122566.450851 kJ/mol
# GULP energy per Si atom -5571.202311 kJ/mol
# Density = 1.825529 g / cm^3
# Si number density = 18.296938 Si / 1000 Ang^3
#
#
#
# Elastic Constant Matrix: (Units=GPa)
#
#
# Indices 1 2 3 4 5 6 
#
# 1 84.9105 60.0589 51.7527 0.0000 19.6998 0.0000
# 2 60.0589 118.8277 36.1936 0.0000 6.1691 0.0000
# 3 51.7527 36.1936 113.3062 0.0000 -6.2572 0.0000
# 4 0.0000 0.0000 0.0000 21.1652 0.0000 -9.4203
# 5 19.6998 6.1691 -6.2572 0.0000 33.6848 0.0000
# 6 0.0000 0.0000 0.0000 -9.4203 0.0000 27.6043
#
#
#
# Elastic Compliance Matrix: (Units=1/GPa)
#
#
# Indices 1 2 3 4 5 6 
#
# 1 0.030968 -0.011180 -0.011580 0.000000 -0.018215 0.000000
# 2 -0.011180 0.013536 0.001017 0.000000 0.004248 0.000000
# 3 -0.011580 0.001017 0.014300 0.000000 0.009242 0.000000
# 4 0.000000 0.000000 0.000000 0.055709 0.000000 0.019011
# 5 -0.018215 0.004248 0.009242 0.000000 0.041278 0.000000
# 6 0.000000 0.000000 0.000000 0.019011 0.000000 0.042714
#
#
# Mechanical properties :
#
#
# Convention : Reuss Voigt Hill
#
# Bulk Modulus (GPa) = 65.27389 68.11721 66.69555
# Shear Modulus (GPa) = 20.23503 27.76012 23.99758
#
# Velocity S-wave (km/s) = 3.32915 3.89935 3.62548
# Velocity P-wave (km/s) = 7.10844 7.58833 7.35230
#
# Compressibility (1/GPa) = 0.01532006
#
# Stress axis : x y z
#
# Youngs Moduli (GPa) = 32.29108 73.87881 69.92968
#
# Poissons Ratio (x) = 0.82594 0.80975
# Poissons Ratio (y) = 0.36100 -0.07113
# Poissons Ratio (z) = 0.37392 -0.07515
#
# Static dielectric constant tensor:
#      x y z
#    x 1.616620 0.000000 -0.015370 
#    y 0.000000 1.780070 0.000000 
#    z -0.015370 0.000000 1.639470 
# 
# From -- ./inp_files/125338.got.cif
#   From: 2010.05.17/outbox.cif.g08.bks.cpg/sg15_63_cif.got.tgz:125338.got - 2010.06.03 18:47:42.
