data_PCOD9297194
_publ_section_title
;
Structure prediction by ZEFSAII (Michael W. Deem and Ramdas Pophale) SiO2 
 PCOD9297194
Probable space group: C 2/C
;
_chemical_formula_sum "Si O2"
_cell_formula_units_Z 60
_cell_length_a 25.270238
_cell_length_b 16.110387
_cell_length_c 8.059344
_cell_angle_alpha 90.000000
_cell_angle_beta 90.186468
_cell_angle_gamma 90.000000
_cell_volume 3281.048867
_symmetry_space_group_name_H-M "C 2/C"
_symmetry_group_IT_number 15
_symmetry_cell_setting 'monoclinic'
loop_
_space_group_symop_operation_xyz
x,y,z
-x,y,1/2-z
-x,-y,-z
x,-y,1/2+z
1/2+x,1/2+y,z
1/2-x,1/2+y,1/2-z
1/2-x,1/2-y,-z
1/2+x,1/2-y,1/2+z
loop_
_atom_site_type_symbol
_atom_site_label
_atom_site_fract_x
_atom_site_fract_y
_atom_site_fract_z
Si Si1 0.500000 0.007173 0.750000
Si Si2 0.156431 0.316687 0.666624
Si Si3 0.779517 0.974382 0.943956
Si Si4 0.840891 0.574961 0.994606
Si Si5 0.276976 0.367263 0.607440
Si Si6 0.188262 0.172817 0.864397
Si Si7 0.423480 0.925570 0.004080
Si Si8 0.690015 0.220469 0.699770
O O1 0.470385 0.946374 0.876326
O O2 0.454423 0.065602 0.675502
O O3 0.215412 0.339432 0.600587
O O4 0.154307 0.221761 0.728476
O O5 0.110268 0.345383 0.544080
O O6 0.151403 0.372954 0.835142
O O7 0.718220 0.962785 0.998067
O O8 0.814760 0.921384 0.073947
O O9 0.790958 0.072151 0.955866
O O10 0.782400 0.927798 0.768164
O O11 0.882177 0.501393 0.990090
O O12 0.842598 0.636707 0.835530
O O13 0.311458 0.285451 0.648648
O O14 0.248913 0.191766 0.812849
O O15 0.180533 0.224409 0.035527
#
# Coordination Sequence:
#
# PCOD9297194 Si02
#       8
#     4   8   8   8   8   8   8   8
#     4  10  24  30  40  58  80  94 134 178 218 224
#     4   9  15  25  43  57  72 105 142 163 187 235
#     4   9  15  23  38  59  81 105 134 164 188 218
#     4   9  15  25  43  57  72 105 142 163 187 235
#     4   9  15  23  38  59  81 105 134 164 188 218
#     4   7  12  22  36  56  76  99 135 167 182 211
#     4  11  18  32  42  58  76 106 132 170 204 243
#     4   7  12  22  36  56  76  99 135 167 182 211
#
# _framework density 18.286835
#
# number of rings (size 3 to 8) (size 9 to 14) (size 15 to 20)
#    0.000    3.200    2.667    3.200    0.000    0.000 
#    0.000    0.000    2.933    2.400    0.000    0.000 
#    0.000    0.000    0.000    7.200    0.000    0.533 
#
# Total GULP energy -167227.621941 kJ/mol
# GULP energy per Si atom -5574.254065 kJ/mol
# Density = 1.824521 g / cm^3
# Si number density = 18.286835 Si / 1000 Ang^3
#
#
#
# Elastic Constant Matrix: (Units=GPa)
#
#
# Indices 1 2 3 4 5 6 
#
# 1 38.8709 21.2795 7.8422 0.0000 12.4431 0.0000
# 2 21.2795 89.6072 25.5309 0.0000 14.7818 0.0000
# 3 7.8422 25.5309 60.0663 0.0000 11.6320 0.0000
# 4 0.0000 0.0000 0.0000 35.7135 0.0000 7.4416
# 5 12.4431 14.7818 11.6320 0.0000 25.2423 0.0000
# 6 0.0000 0.0000 0.0000 7.4416 0.0000 17.9996
#
#
#
# Elastic Compliance Matrix: (Units=1/GPa)
#
#
# Indices 1 2 3 4 5 6 
#
# 1 0.033011 -0.005877 0.000739 0.000000 -0.013172 0.000000
# 2 -0.005877 0.014461 -0.004722 0.000000 -0.003395 0.000000
# 3 0.000739 -0.004722 0.019867 0.000000 -0.006754 0.000000
# 4 0.000000 0.000000 0.000000 0.030640 0.000000 -0.012668
# 5 -0.013172 -0.003395 -0.006754 0.000000 0.051210 0.000000
# 6 0.000000 0.000000 0.000000 -0.012668 0.000000 0.060794
#
#
# Mechanical properties :
#
#
# Convention : Reuss Voigt Hill
#
# Bulk Modulus (GPa) = 21.00017 33.09441 27.04729
# Shear Modulus (GPa) = 20.36039 24.71719 22.53879
#
# Velocity S-wave (km/s) = 3.34037 3.68045 3.51453
# Velocity P-wave (km/s) = 5.13674 6.01645 5.59392
#
# Compressibility (1/GPa) = 0.04761867
#
# Stress axis : x y z
#
# Youngs Moduli (GPa) = 30.29308 69.15211 50.33551
#
# Poissons Ratio (x) = 0.40641 -0.03719
# Poissons Ratio (y) = 0.17803 0.23767
# Poissons Ratio (z) = -0.02238 0.32652
#
# Static dielectric constant tensor:
#      x y z
#    x 1.571820 0.000000 -0.011560 
#    y 0.000000 1.674890 0.000000 
#    z -0.011560 0.000000 1.768890 
# 
# From -- ./inp_files/62527.got.cif
#   From: 2010.05.17/outbox.cif.g08.bks.cpg/sg15_32_cif.got.tgz:62527.got - 2010.06.03 18:47:42.
