data_PCOD9297372
_publ_section_title
;
Structure prediction by ZEFSAII (Michael W. Deem and Ramdas Pophale) SiO2 
 PCOD9297372
Probable space group: C 2/C
;
_chemical_formula_sum "Si O2"
_cell_formula_units_Z 40
_cell_length_a 15.283436
_cell_length_b 8.714716
_cell_length_c 19.974978
_cell_angle_alpha 90.000000
_cell_angle_beta 35.653388
_cell_angle_gamma 90.000000
_cell_volume 1550.743517
_symmetry_space_group_name_H-M "C 2/C"
_symmetry_group_IT_number 15
_symmetry_cell_setting 'monoclinic'
loop_
_space_group_symop_operation_xyz
x,y,z
-x,y,1/2-z
-x,-y,-z
x,-y,1/2+z
1/2+x,1/2+y,z
1/2-x,1/2+y,1/2-z
1/2-x,1/2-y,-z
1/2+x,1/2-y,1/2+z
loop_
_atom_site_type_symbol
_atom_site_label
_atom_site_fract_x
_atom_site_fract_y
_atom_site_fract_z
Si Si1 0.635369 0.679347 0.627424
Si Si2 0.649427 0.055712 0.494123
Si Si3 0.653205 0.856661 0.286722
Si Si4 0.740598 0.896946 0.092391
Si Si5 0.955884 0.005923 0.134999
O O1 0.500000 0.769205 0.750000
O O2 0.750000 0.750000 0.500000
O O3 0.758298 0.585419 0.593516
O O4 0.533366 0.550304 0.655012
O O5 0.472109 0.051079 0.594093
O O6 0.677822 0.067322 0.557698
O O7 0.715134 0.217818 0.430518
O O8 0.639587 0.918471 0.219341
O O9 0.608140 0.678122 0.320091
O O10 0.823774 0.890503 0.199481
O O11 0.896363 0.990141 0.003831
#
# Coordination Sequence:
#
# PCOD9297372 Si02
#       5
#     8   8   8   8   8
#     4  11  25  46  67  95 133 177 227 278 331 395
#     4   9  20  37  64  93 118 166 225 270 329 381
#     4  11  21  39  64  95 135 170 217 272 330 396
#     4   9  18  38  64  91 124 170 221 273 318 393
#     4  10  24  40  61  97 131 172 219 269 336 391
#
# _framework density 25.794077999999999
#
# number of rings (size 3 to 8) (size 9 to 14) (size 15 to 20)
#    0.000    2.000    0.000    3.600    2.800    3.200 
#    7.200    5.000    0.000    0.000    0.000    0.000 
#    0.000    0.000    0.000    0.000    0.000    0.000 
#
# Total GULP energy -111645.933372 kJ/mol
# GULP energy per Si atom -5582.296669 kJ/mol
# Density = 2.573537 g / cm^3
# Si number density = 25.794078 Si / 1000 Ang^3
#
#
#
# Elastic Constant Matrix: (Units=GPa)
#
#
# Indices 1 2 3 4 5 6 
#
# 1 58.3208 -2.8919 22.1683 0.0000 -17.1018 0.0000
# 2 -2.8919 85.5396 46.7906 0.0000 -16.3633 0.0000
# 3 22.1683 46.7906 200.4761 0.0000 -17.5924 0.0000
# 4 0.0000 0.0000 0.0000 23.8808 0.0000 -19.6519
# 5 -17.1018 -16.3633 -17.5924 0.0000 44.8596 0.0000
# 6 0.0000 0.0000 0.0000 -19.6519 0.0000 30.8032
#
#
#
# Elastic Compliance Matrix: (Units=1/GPa)
#
#
# Indices 1 2 3 4 5 6 
#
# 1 0.020652 0.003586 -0.002398 0.000000 0.008241 0.000000
# 2 0.003586 0.014677 -0.003348 0.000000 0.005408 0.000000
# 3 -0.002398 -0.003348 0.006056 0.000000 0.000240 0.000000
# 4 0.000000 0.000000 0.000000 0.088158 0.000000 0.056243
# 5 0.008241 0.005408 0.000240 0.000000 0.027500 0.000000
# 6 0.000000 0.000000 0.000000 0.056243 0.000000 0.068346
#
#
# Mechanical properties :
#
#
# Convention : Reuss Voigt Hill
#
# Bulk Modulus (GPa) = 26.97790 52.94116 39.95953
# Shear Modulus (GPa) = 20.65575 38.46003 29.55789
#
# Velocity S-wave (km/s) = 2.83290 3.86559 3.38881
# Velocity P-wave (km/s) = 4.60240 6.36340 5.55315
#
# Compressibility (1/GPa) = 0.03706737
#
# Stress axis : x y z
#
# Youngs Moduli (GPa) = 48.42077 68.13163 165.13626
#
# Poissons Ratio (x) = -0.24433 0.39592
# Poissons Ratio (y) = -0.17364 0.55282
# Poissons Ratio (z) = 0.11609 0.22808
#
# Static dielectric constant tensor:
#      x y z
#    x 2.103240 0.000000 0.056970 
#    y 0.000000 2.079460 0.000000 
#    z 0.056970 0.000000 2.096080 
# 
# From -- ./inp_files/218821.got.cif
#   From: 2010.05.17/outbox.cif.g08.bks.cpg/sg15_110_cif.got.tgz:218821.got - 2010.06.03 18:47:42.
