data_PCOD9297940
_publ_section_title
;
Structure prediction by ZEFSAII (Michael W. Deem and Ramdas Pophale) SiO2 
 PCOD9297940
Probable space group: C 2/C
;
_chemical_formula_sum "Si O2"
_cell_formula_units_Z 36
_cell_length_a 15.420808
_cell_length_b 9.173346
_cell_length_c 10.434912
_cell_angle_alpha 90.000000
_cell_angle_beta 95.881187
_cell_angle_gamma 90.000000
_cell_volume 1468.357331
_symmetry_space_group_name_H-M "C 2/C"
_symmetry_group_IT_number 15
_symmetry_cell_setting 'monoclinic'
loop_
_space_group_symop_operation_xyz
x,y,z
-x,y,1/2-z
-x,-y,-z
x,-y,1/2+z
1/2+x,1/2+y,z
1/2-x,1/2+y,1/2-z
1/2-x,1/2-y,-z
1/2+x,1/2-y,1/2+z
loop_
_atom_site_type_symbol
_atom_site_label
_atom_site_fract_x
_atom_site_fract_y
_atom_site_fract_z
Si Si1 0.415503 0.245423 0.371869
Si Si2 0.573449 0.788707 0.066006
Si Si3 0.676405 0.472304 0.714938
Si Si4 0.790745 0.539316 0.485026
Si Si5 0.000000 0.500184 0.750000
O O1 0.509848 0.274258 0.448569
O O2 0.385005 0.387833 0.296379
O O3 0.347207 0.185579 0.467608
O O4 0.423253 0.111224 0.273394
O O5 0.621980 0.668313 0.159088
O O6 0.646513 0.899749 0.026979
O O7 0.505499 0.890964 0.133128
O O8 0.720014 0.457689 0.859814
O O9 0.752983 0.985592 0.384178
#
# Coordination Sequence:
#
# PCOD9297940 Si02
#       5
#     8   8   8   8   4
#     4  11  26  45  74 101 142 188 237 287 348 425
#     4  11  26  45  74 101 142 188 237 287 348 425
#     4  12  27  46  73 109 141 182 235 298 348 410
#     4  11  26  46  71 105 148 182 231 285 364 413
#     4  10  24  42  72  94 142 178 240 270 360 394
#
# _framework density 24.517194
#
# number of rings (size 3 to 8) (size 9 to 14) (size 15 to 20)
#    0.000    0.889    0.000    6.000   18.667    0.889 
#    0.000    0.000    0.000    0.000    0.000    0.000 
#    0.000    0.000    0.000    0.000    0.000    0.000 
#
# Total GULP energy -100745.754161 kJ/mol
# GULP energy per Si atom -5596.986342 kJ/mol
# Density = 2.446139 g / cm^3
# Si number density = 24.517194 Si / 1000 Ang^3
#
#
#
# Elastic Constant Matrix: (Units=GPa)
#
#
# Indices 1 2 3 4 5 6 
#
# 1 59.2176 16.2241 39.7000 0.0000 1.3719 0.0000
# 2 16.2241 84.3853 6.7559 0.0000 10.8653 0.0000
# 3 39.7000 6.7559 110.8426 0.0000 22.9297 0.0000
# 4 0.0000 0.0000 0.0000 15.8864 0.0000 -19.2826
# 5 1.3719 10.8653 22.9297 0.0000 61.1744 0.0000
# 6 0.0000 0.0000 0.0000 -19.2826 0.0000 -0.3737
#
#
#
# Elastic Compliance Matrix: (Units=1/GPa)
#
#
# Indices 1 2 3 4 5 6 
#
# 1 0.024122 -0.004378 -0.009130 0.000000 0.003659 0.000000
# 2 -0.004378 0.012933 0.001338 0.000000 -0.002700 0.000000
# 3 -0.009130 0.001338 0.013244 0.000000 -0.004997 0.000000
# 4 0.000000 0.000000 0.000000 0.000989 0.000000 -0.051045
# 5 0.003659 -0.002700 -0.004997 0.000000 0.018617 0.000000
# 6 0.000000 0.000000 0.000000 -0.051045 0.000000 -0.042055
#
#
# Mechanical properties :
#
#
# Convention : Reuss Voigt Hill
#
# Bulk Modulus (GPa) = 38.52045 42.20061 40.36053
# Shear Modulus (GPa) = 82.17886 28.12178 55.15032
#
# Velocity S-wave (km/s) = 5.79583 3.39045 4.74799
# Velocity P-wave (km/s) = 7.78040 5.70761 6.82317
#
# Compressibility (1/GPa) = 0.02596024
#
# Stress axis : x y z
#
# Youngs Moduli (GPa) = 41.45548 77.32351 75.50619
#
# Poissons Ratio (x) = 0.33852 0.68936
# Poissons Ratio (y) = 0.18149 -0.10106
# Poissons Ratio (z) = 0.37848 -0.10349
#
# Static dielectric constant tensor:
#      x y z
#    x 2.006480 0.000000 -0.031610 
#    y 0.000000 1.896480 0.000000 
#    z -0.031610 0.000000 1.963140 
# 
# From -- ./inp_files/158895.got.cif
#   From: 2010.05.17/outbox.cif.g08.bks.cpg/sg15_80_cif.got.tgz:158895.got - 2010.06.03 18:47:42.
