data_PCOD9297691
_publ_section_title
;
Structure prediction by ZEFSAII (Michael W. Deem and Ramdas Pophale) SiO2 
 PCOD9297691
Probable space group: C 2/C
;
_chemical_formula_sum "Si O2"
_cell_formula_units_Z 40
_cell_length_a 13.027869
_cell_length_b 6.400636
_cell_length_c 24.068174
_cell_angle_alpha 90.000000
_cell_angle_beta 115.543251
_cell_angle_gamma 90.000000
_cell_volume 1810.803736
_symmetry_space_group_name_H-M "C 2/C"
_symmetry_group_IT_number 15
_symmetry_cell_setting 'monoclinic'
loop_
_space_group_symop_operation_xyz
x,y,z
-x,y,1/2-z
-x,-y,-z
x,-y,1/2+z
1/2+x,1/2+y,z
1/2-x,1/2+y,1/2-z
1/2-x,1/2-y,-z
1/2+x,1/2-y,1/2+z
loop_
_atom_site_type_symbol
_atom_site_label
_atom_site_fract_x
_atom_site_fract_y
_atom_site_fract_z
Si Si1 0.628470 0.363666 0.466225
Si Si2 0.684872 0.602602 0.166379
Si Si3 0.614309 0.189854 0.755625
Si Si4 0.394064 0.290662 0.447580
Si Si5 0.804279 0.015601 0.633252
O O1 0.750000 0.250000 0.500000
O O2 0.525181 0.228333 0.468023
O O3 0.623880 0.579026 0.500211
O O4 0.615350 0.412461 0.398118
O O5 0.603960 0.707799 0.192849
O O6 0.778239 0.463237 0.220259
O O7 0.627771 0.456985 0.107201
O O8 0.752021 0.783081 0.150219
O O9 0.500000 0.079161 0.750000
O O10 0.639346 0.367860 0.807389
O O11 0.300277 0.113822 0.418193
#
# Coordination Sequence:
#
# PCOD9297691 Si02
#       5
#     8   8   8   8   8
#     4  11  22  43  65  93 123 163 208 251 310 367
#     4  11  22  43  61  93 124 160 211 251 305 371
#     4  11  24  41  64  89 124 166 204 254 309 362
#     4  10  24  42  64  91 128 160 203 259 303 366
#     4  11  23  42  65  91 127 163 204 255 307 365
#
# _framework density 22.089638999999998
#
# number of rings (size 3 to 8) (size 9 to 14) (size 15 to 20)
#    0.000    1.200    4.000    1.800    0.000    3.200 
#    3.600    0.000    0.000    0.000    0.000    0.000 
#    0.000    0.000    0.000    0.000    0.000    0.000 
#
# Total GULP energy -111884.844186 kJ/mol
# GULP energy per Si atom -5594.242209 kJ/mol
# Density = 2.203936 g / cm^3
# Si number density = 22.089639 Si / 1000 Ang^3
#
#
#
# Elastic Constant Matrix: (Units=GPa)
#
#
# Indices 1 2 3 4 5 6 
#
# 1 100.1614 2.7834 6.3128 0.0000 -26.2816 0.0000
# 2 2.7834 37.4029 0.4927 0.0000 -11.8413 0.0000
# 3 6.3128 0.4927 65.3167 0.0000 -29.2280 0.0000
# 4 0.0000 0.0000 0.0000 28.9199 0.0000 -2.8816
# 5 -26.2816 -11.8413 -29.2280 0.0000 41.4144 0.0000
# 6 0.0000 0.0000 0.0000 -2.8816 0.0000 20.2232
#
#
#
# Elastic Compliance Matrix: (Units=1/GPa)
#
#
# Indices 1 2 3 4 5 6 
#
# 1 0.012710 0.002681 0.003952 0.000000 0.011621 0.000000
# 2 0.002681 0.031209 0.006226 0.000000 0.015019 0.000000
# 3 0.003952 0.006226 0.024554 0.000000 0.021617 0.000000
# 4 0.000000 0.000000 0.000000 0.035076 0.000000 0.004998
# 5 0.011621 0.015019 0.021617 0.000000 0.051071 0.000000
# 6 0.000000 0.000000 0.000000 0.004998 0.000000 0.050160
#
#
# Mechanical properties :
#
#
# Convention : Reuss Voigt Hill
#
# Bulk Modulus (GPa) = 10.61679 24.67321 17.64500
# Shear Modulus (GPa) = 23.75748 30.99762 27.37755
#
# Velocity S-wave (km/s) = 3.28304 3.75008 3.52431
# Velocity P-wave (km/s) = 4.38039 5.47217 4.95643
#
# Compressibility (1/GPa) = 0.09419042
#
# Stress axis : x y z
#
# Youngs Moduli (GPa) = 78.68104 32.04189 40.72611
#
# Poissons Ratio (x) = -0.08591 -0.16093
# Poissons Ratio (y) = -0.21096 -0.25356
# Poissons Ratio (z) = -0.31091 -0.19950
#
# Static dielectric constant tensor:
#      x y z
#    x 1.836480 0.000000 0.061580 
#    y 0.000000 1.763060 0.000000 
#    z 0.061580 0.000000 1.812250 
# 
# From -- ./inp_files/271647.got.cif
#   From: 2010.05.17/outbox.cif.g08.bks.cpg/sg15_136_cif.got.tgz:271647.got - 2010.06.03 18:47:42.
