data_PCOD9297926
_publ_section_title
;
Structure prediction by ZEFSAII (Michael W. Deem and Ramdas Pophale) SiO2 
 PCOD9297926
Probable space group: C 2/C
;
_chemical_formula_sum "Si O2"
_cell_formula_units_Z 36
_cell_length_a 28.729644
_cell_length_b 9.474747
_cell_length_c 4.863898
_cell_angle_alpha 90.000000
_cell_angle_beta 112.699416
_cell_angle_gamma 90.000000
_cell_volume 1221.429720
_symmetry_space_group_name_H-M "C 2/C"
_symmetry_group_IT_number 15
_symmetry_cell_setting 'monoclinic'
loop_
_space_group_symop_operation_xyz
x,y,z
-x,y,1/2-z
-x,-y,-z
x,-y,1/2+z
1/2+x,1/2+y,z
1/2-x,1/2+y,1/2-z
1/2-x,1/2-y,-z
1/2+x,1/2-y,1/2+z
loop_
_atom_site_type_symbol
_atom_site_label
_atom_site_fract_x
_atom_site_fract_y
_atom_site_fract_z
Si Si1 0.500000 0.500000 0.000000
Si Si2 0.855662 0.599175 0.847348
Si Si3 0.000000 0.398745 0.250000
Si Si4 0.587728 0.309509 0.891180
Si Si5 0.750000 0.250000 0.000000
Si Si6 0.306384 0.411922 0.165501
O O1 0.500000 0.627430 0.750000
O O2 0.544798 0.432309 0.805551
O O3 0.864606 0.467833 0.663514
O O4 0.887143 0.737150 0.820941
O O5 0.797640 0.645275 0.696783
O O6 0.050852 0.311348 0.402518
O O7 0.000000 0.500000 0.500000
O O8 0.634528 0.377412 0.163132
O O9 0.779974 0.206855 0.779282
O O10 0.294309 0.557658 0.316728
#
# Coordination Sequence:
#
# PCOD9297926 Si02
#       6
#     4   8   4   8   4   8
#     4  12  26  44  70 102 138 182 240 308 364 418
#     4  11  25  45  71 102 146 189 240 296 365 438
#     4  12  28  46  70 100 138 188 244 292 356 430
#     4  11  26  46  72 102 141 190 240 304 362 427
#     4  10  24  42  72 104 138 188 234 292 354 432
#     4  11  25  43  68 103 139 179 233 288 358 423
#
# _framework density 29.473659999999999
#
# number of rings (size 3 to 8) (size 9 to 14) (size 15 to 20)
#    0.000    0.889    1.111    4.000    1.556   12.444 
#    0.000    0.000    0.000    0.000    0.000    0.000 
#    0.000    0.000    0.000    0.000    0.000    0.000 
#
# Total GULP energy -100334.505059 kJ/mol
# GULP energy per Si atom -5574.139170 kJ/mol
# Density = 2.940658 g / cm^3
# Si number density = 29.473660 Si / 1000 Ang^3
#
#
#
# Elastic Constant Matrix: (Units=GPa)
#
#
# Indices 1 2 3 4 5 6 
#
# 1 237.2200 38.7389 31.9160 0.0000 14.6375 0.0000
# 2 38.7389 99.8445 18.5606 0.0000 -5.0822 0.0000
# 3 31.9160 18.5606 197.4584 0.0000 -12.5180 0.0000
# 4 0.0000 0.0000 0.0000 27.8907 0.0000 -27.7693
# 5 14.6375 -5.0822 -12.5180 0.0000 36.4150 0.0000
# 6 0.0000 0.0000 0.0000 -27.7693 0.0000 82.3892
#
#
#
# Elastic Compliance Matrix: (Units=1/GPa)
#
#
# Indices 1 2 3 4 5 6 
#
# 1 0.004766 -0.001833 -0.000752 0.000000 -0.002430 0.000000
# 2 -0.001833 0.010943 -0.000602 0.000000 0.002057 0.000000
# 3 -0.000752 -0.000602 0.005373 0.000000 0.002065 0.000000
# 4 0.000000 0.000000 0.000000 0.053964 0.000000 0.018188
# 5 -0.002430 0.002057 0.002065 0.000000 0.029435 0.000000
# 6 0.000000 0.000000 0.000000 0.018188 0.000000 0.018268
#
#
# Mechanical properties :
#
#
# Convention : Reuss Voigt Hill
#
# Bulk Modulus (GPa) = 67.98737 79.21712 73.60224
# Shear Modulus (GPa) = 37.30604 59.02615 48.16609
#
# Velocity S-wave (km/s) = 3.56159 4.47998 4.04692
# Velocity P-wave (km/s) = 6.32696 7.32775 6.84567
#
# Compressibility (1/GPa) = 0.01470862
#
# Stress axis : x y z
#
# Youngs Moduli (GPa) = 209.82057 91.37932 186.10033
#
# Poissons Ratio (x) = 0.16750 0.13997
# Poissons Ratio (y) = 0.38461 0.11202
# Poissons Ratio (z) = 0.15781 0.05501
#
# Static dielectric constant tensor:
#      x y z
#    x 2.474930 0.000000 -0.056500 
#    y 0.000000 2.429650 0.000000 
#    z -0.056500 0.000000 1.678940 
# 
# From -- ./inp_files/16684.got.cif
#   From: 2010.05.17/outbox.cif.g08.bks.cpg/sg15_9_cif.got.tgz:16684.got - 2010.06.03 18:47:42.
