data_PCOD9297625
_publ_section_title
;
Structure prediction by ZEFSAII (Michael W. Deem and Ramdas Pophale) SiO2 
 PCOD9297625
Probable space group: C 2/C
;
_chemical_formula_sum "Si O2"
_cell_formula_units_Z 36
_cell_length_a 15.333548
_cell_length_b 4.725092
_cell_length_c 18.791962
_cell_angle_alpha 90.000000
_cell_angle_beta 74.313109
_cell_angle_gamma 90.000000
_cell_volume 1310.811424
_symmetry_space_group_name_H-M "C 2/C"
_symmetry_group_IT_number 15
_symmetry_cell_setting 'monoclinic'
loop_
_space_group_symop_operation_xyz
x,y,z
-x,y,1/2-z
-x,-y,-z
x,-y,1/2+z
1/2+x,1/2+y,z
1/2-x,1/2+y,1/2-z
1/2-x,1/2-y,-z
1/2+x,1/2-y,1/2+z
loop_
_atom_site_type_symbol
_atom_site_label
_atom_site_fract_x
_atom_site_fract_y
_atom_site_fract_z
Si Si1 0.614179 0.278323 0.490650
Si Si2 0.542640 0.914194 0.381073
Si Si3 0.144289 0.562803 0.120104
Si Si4 0.806272 0.203284 0.255195
Si Si5 0.750000 0.250000 0.000000
O O1 0.519155 0.287688 0.554678
O O2 0.669098 0.561289 0.472509
O O3 0.595643 0.126336 0.420691
O O4 0.668641 0.055800 0.531846
O O5 0.463483 0.083200 0.356304
O O6 0.607410 0.754693 0.313589
O O7 0.174125 0.356680 0.174701
O O8 0.198618 0.841910 0.090000
O O9 0.721591 0.378025 0.241027
#
# Coordination Sequence:
#
# PCOD9297625 Si02
#       5
#     8   8   8   8   4
#     4   9  22  42  71 101 146 185 249 307 377 459
#     4   9  22  48  65 103 146 190 245 306 385 450
#     4  10  24  41  70 100 144 190 239 309 369 454
#     4  12  28  45  72 103 148 193 251 312 379 456
#     4  12  22  36  76 108 138 184 250 308 378 444
#
# _framework density 27.463905
#
# number of rings (size 3 to 8) (size 9 to 14) (size 15 to 20)
#    1.333    0.444    0.000    2.667    6.222    2.667 
#    0.000    2.222    0.000    0.000    0.000    0.000 
#    0.000    0.000    0.000    0.000    0.000    0.000 
#
# Total GULP energy -100581.546952 kJ/mol
# GULP energy per Si atom -5587.863720 kJ/mol
# Density = 2.740140 g / cm^3
# Si number density = 27.463905 Si / 1000 Ang^3
#
#
#
# Elastic Constant Matrix: (Units=GPa)
#
#
# Indices 1 2 3 4 5 6 
#
# 1 134.7714 45.6339 32.0414 -0.0001 -9.4550 -0.0001
# 2 45.6339 138.1040 30.5767 -0.0003 -1.1439 -0.0004
# 3 32.0414 30.5767 102.3941 -0.0001 -13.6030 -0.0001
# 4 -0.0001 -0.0003 -0.0001 30.8154 -0.0001 8.5566
# 5 -9.4550 -1.1439 -13.6030 -0.0001 72.2618 -0.0001
# 6 -0.0001 -0.0004 -0.0001 8.5566 -0.0001 20.7193
#
#
#
# Elastic Compliance Matrix: (Units=1/GPa)
#
#
# Indices 1 2 3 4 5 6 
#
# 1 0.008761 -0.002467 -0.001905 0.000000 0.000749 0.000000
# 2 -0.002467 0.008455 -0.001824 0.000000 -0.000532 0.000000
# 3 -0.001905 -0.001824 0.011149 0.000000 0.001821 0.000000
# 4 0.000000 0.000000 0.000000 0.036655 0.000000 -0.015137
# 5 0.000749 -0.000532 0.001821 0.000000 0.014271 0.000000
# 6 0.000000 0.000000 0.000000 -0.015137 0.000000 0.054516
#
#
# Mechanical properties :
#
#
# Convention : Reuss Voigt Hill
#
# Bulk Modulus (GPa) = 62.60454 65.75261 64.17857
# Shear Modulus (GPa) = 32.99850 42.56046 37.77948
#
# Velocity S-wave (km/s) = 3.47006 3.94088 3.71294
# Velocity P-wave (km/s) = 6.23697 6.68587 6.46531
#
# Compressibility (1/GPa) = 0.01597328
#
# Stress axis : x y z
#
# Youngs Moduli (GPa) = 114.14567 118.26777 89.69514
#
# Poissons Ratio (x) = 0.29174 0.17090
# Poissons Ratio (y) = 0.28157 0.16358
# Poissons Ratio (z) = 0.21749 0.21569
#
# Static dielectric constant tensor:
#      x y z
#    x 2.309350 0.000000 0.038820 
#    y 0.000000 2.212820 0.000000 
#    z 0.038820 0.000000 2.152200 
# 
# From -- ./inp_files/271585.got.cif
#   From: 2010.05.17/outbox.cif.g08.bks.cpg/sg15_136_cif.got.tgz:271585.got - 2010.06.03 18:47:42.
