data_PCOD9297626
_publ_section_title
;
Structure prediction by ZEFSAII (Michael W. Deem and Ramdas Pophale) SiO2 
 PCOD9297626
Probable space group: C 2/C
;
_chemical_formula_sum "Si O2"
_cell_formula_units_Z 24
_cell_length_a 7.937501
_cell_length_b 27.614730
_cell_length_c 8.351482
_cell_angle_alpha 90.000000
_cell_angle_beta 144.841225
_cell_angle_gamma 90.000000
_cell_volume 1054.127533
_symmetry_space_group_name_H-M "C 2/C"
_symmetry_group_IT_number 15
_symmetry_cell_setting 'monoclinic'
loop_
_space_group_symop_operation_xyz
x,y,z
-x,y,1/2-z
-x,-y,-z
x,-y,1/2+z
1/2+x,1/2+y,z
1/2-x,1/2+y,1/2-z
1/2-x,1/2-y,-z
1/2+x,1/2-y,1/2+z
loop_
_atom_site_type_symbol
_atom_site_label
_atom_site_fract_x
_atom_site_fract_y
_atom_site_fract_z
Si Si1 0.000000 0.214082 0.750000
Si Si2 0.219841 0.361119 0.274969
Si Si3 0.254827 0.071230 0.280855
Si Si4 0.500000 0.003830 0.750000
O O1 0.118664 0.180998 0.696452
O O2 0.750000 0.250000 0.500000
O O3 0.464864 0.396863 0.538656
O O4 0.000000 0.346595 0.250000
O O5 0.022871 0.390715 0.994756
O O6 0.335335 0.037482 0.495254
O O7 0.270018 0.032688 0.150510
#
# Coordination Sequence:
#
# PCOD9297626 Si02
#       4
#     4   8   8   4
#     4  12  28  51  80 108 134 176 232 299 376 444
#     4  12  26  47  73 105 145 184 233 294 361 422
#     4  11  24  43  67 105 148 198 238 290 340 399
#     4  10  24  41  70 100 154 196 254 283 324 404
#
# _framework density 22.767643
#
# number of rings (size 3 to 8) (size 9 to 14) (size 15 to 20)
#    0.000    0.667    1.667    5.000    0.000    9.333 
#    0.000    0.000    0.000    0.000    0.000    0.000 
#    0.000    0.000    0.000    0.000    0.000    0.000 
#
# Total GULP energy -67176.233283 kJ/mol
# GULP energy per Si atom -5598.019440 kJ/mol
# Density = 2.271582 g / cm^3
# Si number density = 22.767643 Si / 1000 Ang^3
#
#
#
# Elastic Constant Matrix: (Units=GPa)
#
#
# Indices 1 2 3 4 5 6 
#
# 1 165.9072 123.8108 53.5413 0.0000 15.2210 0.0000
# 2 123.8108 162.1180 46.8475 0.0000 19.4726 0.0000
# 3 53.5413 46.8475 110.1995 0.0000 41.3858 0.0000
# 4 0.0000 0.0000 0.0000 32.5818 0.0000 -25.3672
# 5 15.2210 19.4726 41.3858 0.0000 29.8668 0.0000
# 6 0.0000 0.0000 0.0000 -25.3672 0.0000 -5.8751
#
#
#
# Elastic Compliance Matrix: (Units=1/GPa)
#
#
# Indices 1 2 3 4 5 6 
#
# 1 0.015295 -0.010957 -0.005273 0.000000 0.006655 0.000000
# 2 -0.010957 0.014893 0.001129 0.000000 -0.005691 0.000000
# 3 -0.005273 0.001129 0.021734 0.000000 -0.028165 0.000000
# 4 0.000000 0.000000 0.000000 0.007037 0.000000 -0.030383
# 5 0.006655 -0.005691 -0.028165 0.000000 0.072829 0.000000
# 6 0.000000 0.000000 0.000000 -0.030383 0.000000 -0.039024
#
#
# Mechanical properties :
#
#
# Convention : Reuss Voigt Hill
#
# Bulk Modulus (GPa) = 46.03633 98.51379 72.27506
# Shear Modulus (GPa) = 38.40129 25.58302 31.99215
#
# Velocity S-wave (km/s) = 4.11135 3.35574 3.75261
# Velocity P-wave (km/s) = 6.54229 7.64053 7.11264
#
# Compressibility (1/GPa) = 0.02172198
#
# Stress axis : x y z
#
# Youngs Moduli (GPa) = 65.38036 67.14429 46.01192
#
# Poissons Ratio (x) = 0.73568 0.24261
# Poissons Ratio (y) = 0.71635 -0.05197
# Poissons Ratio (z) = 0.34473 -0.07583
#
# Static dielectric constant tensor:
#      x y z
#    x 2.027280 0.000000 0.002710 
#    y 0.000000 1.787070 0.000000 
#    z 0.002710 0.000000 1.800760 
# 
# From -- ./inp_files/25947.got.cif
#   From: 2010.05.17/outbox.cif.g08.bks.cpg/sg15_13_cif.got.tgz:25947.got - 2010.06.03 18:47:42.
