data_PCOD9297844
_publ_section_title
;
Structure prediction by ZEFSAII (Michael W. Deem and Ramdas Pophale) SiO2 
 PCOD9297844
Probable space group: C 2/C
;
_chemical_formula_sum "Si O2"
_cell_formula_units_Z 32
_cell_length_a 29.612920
_cell_length_b 5.133647
_cell_length_c 9.412269
_cell_angle_alpha 90.000000
_cell_angle_beta 107.946099
_cell_angle_gamma 90.000000
_cell_volume 1361.257951
_symmetry_space_group_name_H-M "C 2/C"
_symmetry_group_IT_number 15
_symmetry_cell_setting 'monoclinic'
loop_
_space_group_symop_operation_xyz
x,y,z
-x,y,1/2-z
-x,-y,-z
x,-y,1/2+z
1/2+x,1/2+y,z
1/2-x,1/2+y,1/2-z
1/2-x,1/2-y,-z
1/2+x,1/2-y,1/2+z
loop_
_atom_site_type_symbol
_atom_site_label
_atom_site_fract_x
_atom_site_fract_y
_atom_site_fract_z
Si Si1 0.125233 0.755354 0.641993
Si Si2 0.267546 0.762162 0.180074
Si Si3 0.921485 0.934121 0.157311
Si Si4 0.954588 0.558855 0.550314
O O1 0.175702 0.701651 0.757341
O O2 0.094583 0.944934 0.711723
O O3 0.093502 0.498983 0.585795
O O4 0.125400 0.887135 0.486336
O O5 0.255390 0.498482 0.253518
O O6 0.250000 0.750000 0.000000
O O7 0.953123 0.154782 0.112003
O O8 0.948191 0.660453 0.166800
O O9 0.000000 0.500000 0.500000
#
# Coordination Sequence:
#
# PCOD9297844 Si02
#       4
#     8   8   8   8
#     4  10  26  43  74  95 145 174 238 280 356 407
#     4  12  28  47  75 107 147 189 247 299 366 433
#     4  10  24  42  68  97 136 178 225 284 342 410
#     4  10  24  43  67  98 138 177 230 276 349 410
#
# _framework density 23.507670000000001
#
# number of rings (size 3 to 8) (size 9 to 14) (size 15 to 20)
#    1.500    0.000    0.000    3.000   10.500    1.000 
#    0.000    0.000    0.000    0.000    0.000    0.000 
#    0.000    0.000    0.000    0.000    0.000    0.000 
#
# Total GULP energy -89454.512301 kJ/mol
# GULP energy per Si atom -5590.907019 kJ/mol
# Density = 2.345417 g / cm^3
# Si number density = 23.507670 Si / 1000 Ang^3
#
#
#
# Elastic Constant Matrix: (Units=GPa)
#
#
# Indices 1 2 3 4 5 6 
#
# 1 102.3973 -7.7290 24.5242 0.0000 31.5943 0.0000
# 2 -7.7290 80.4606 19.6905 0.0000 5.9097 0.0000
# 3 24.5242 19.6905 134.7445 0.0000 20.5741 0.0000
# 4 0.0000 0.0000 0.0000 20.7651 0.0000 -21.0949
# 5 31.5943 5.9097 20.5741 0.0000 42.2183 0.0000
# 6 0.0000 0.0000 0.0000 -21.0949 0.0000 21.6009
#
#
#
# Elastic Compliance Matrix: (Units=1/GPa)
#
#
# Indices 1 2 3 4 5 6 
#
# 1 0.013198 0.002283 -0.001274 0.000000 -0.009575 0.000000
# 2 0.002283 0.013320 -0.001962 0.000000 -0.002616 0.000000
# 3 -0.001274 -0.001962 0.008376 0.000000 -0.002854 0.000000
# 4 0.000000 0.000000 0.000000 6.087224 0.000000 5.944635
# 5 -0.009575 -0.002616 -0.002854 0.000000 0.032609 0.000000
# 6 0.000000 0.000000 0.000000 5.944635 0.000000 5.851680
#
#
# Mechanical properties :
#
#
# Convention : Reuss Voigt Hill
#
# Bulk Modulus (GPa) = 30.31497 43.39711 36.85604
# Shear Modulus (GPa) = 0.41600 35.65798 18.03699
#
# Velocity S-wave (km/s) = 0.42113 3.89892 2.77299
# Velocity P-wave (km/s) = 3.62770 6.22653 5.09558
#
# Compressibility (1/GPa) = 0.03298700
#
# Stress axis : x y z
#
# Youngs Moduli (GPa) = 75.77110 75.07422 119.39161
#
# Poissons Ratio (x) = -0.17137 0.15205
# Poissons Ratio (y) = -0.17296 0.23430
# Poissons Ratio (z) = 0.09650 0.14733
#
# Static dielectric constant tensor:
#      x y z
#    x 1.849860 0.000000 0.053710 
#    y 0.000000 1.871280 0.000000 
#    z 0.053710 0.000000 1.978240 
# 
# From -- ./inp_files/68012.got.cif
#   From: 2010.05.17/outbox.cif.g08.bks.cpg/sg15_35_cif.got.tgz:68012.got - 2010.06.03 18:47:42.
