data_PCOD9297448
_publ_section_title
;
Structure prediction by ZEFSAII (Michael W. Deem and Ramdas Pophale) SiO2 
 PCOD9297448
Probable space group: C 2/C
;
_chemical_formula_sum "Si O2"
_cell_formula_units_Z 40
_cell_length_a 10.416523
_cell_length_b 21.898578
_cell_length_c 16.310850
_cell_angle_alpha 90.000000
_cell_angle_beta 28.857692
_cell_angle_gamma 90.000000
_cell_volume 1795.704269
_symmetry_space_group_name_H-M "C 2/C"
_symmetry_group_IT_number 15
_symmetry_cell_setting 'monoclinic'
loop_
_space_group_symop_operation_xyz
x,y,z
-x,y,1/2-z
-x,-y,-z
x,-y,1/2+z
1/2+x,1/2+y,z
1/2-x,1/2+y,1/2-z
1/2-x,1/2-y,-z
1/2+x,1/2-y,1/2+z
loop_
_atom_site_type_symbol
_atom_site_label
_atom_site_fract_x
_atom_site_fract_y
_atom_site_fract_z
Si Si1 0.169710 0.068244 0.330556
Si Si2 0.897144 0.067602 0.648088
Si Si3 0.000000 0.147822 0.750000
Si Si4 0.500000 0.763522 0.250000
Si Si5 0.859149 0.372609 0.433032
Si Si6 0.412644 0.169262 0.085838
O O1 0.350267 0.122623 0.194592
O O2 0.133196 0.064876 0.449279
O O3 0.878488 0.084084 0.458522
O O4 0.221627 0.999850 0.270479
O O5 0.980524 0.103637 0.682209
O O6 0.651601 0.104415 0.746707
O O7 0.274526 0.185575 0.589513
O O8 0.333923 0.807149 0.403753
O O9 0.704074 0.724298 0.191507
O O10 0.861873 0.366774 0.529428
#
# Coordination Sequence:
#
# PCOD9297448 Si02
#       6
#     8   8   4   4   8   8
#     4  11  22  41  68 104 128 185 229 280 344 406
#     4  10  24  40  67  97 147 172 225 283 345 420
#     4  10  26  45  60 100 145 176 222 286 358 402
#     4  12  22  43  78  96 135 180 248 284 322 404
#     4  11  22  42  68 103 130 178 234 286 329 402
#     4  11  25  41  69 101 134 183 229 282 344 400
#
# _framework density 22.275383000000001
#
# number of rings (size 3 to 8) (size 9 to 14) (size 15 to 20)
#    0.000    1.200    4.000    0.600    5.600    2.400 
#    0.000    4.000    0.000    0.000    0.000    0.000 
#    0.000    0.000    0.000    0.000    0.000    0.000 
#
# Total GULP energy -111739.525350 kJ/mol
# GULP energy per Si atom -5586.976268 kJ/mol
# Density = 2.222468 g / cm^3
# Si number density = 22.275383 Si / 1000 Ang^3
#
#
#
# Elastic Constant Matrix: (Units=GPa)
#
#
# Indices 1 2 3 4 5 6 
#
# 1 70.8702 18.0281 20.9293 0.0114 -17.1604 -0.0183
# 2 18.0281 100.7274 21.3608 0.0310 -10.3566 0.0053
# 3 20.9293 21.3608 72.6017 0.0459 -9.6153 0.0475
# 4 0.0114 0.0310 0.0459 48.3135 -0.0069 -1.8427
# 5 -17.1604 -10.3566 -9.6153 -0.0069 27.1396 -0.0241
# 6 -0.0183 0.0053 0.0475 -1.8427 -0.0241 6.9956
#
#
#
# Elastic Compliance Matrix: (Units=1/GPa)
#
#
# Indices 1 2 3 4 5 6 
#
# 1 0.017796 -0.001482 -0.003440 0.000005 0.009468 0.000105
# 2 -0.001482 0.010963 -0.002485 -0.000004 0.002366 0.000012
# 3 -0.003440 -0.002485 0.015826 -0.000016 0.002483 -0.000110
# 4 0.000005 -0.000004 -0.000016 0.020908 0.000006 0.005508
# 5 0.009468 0.002366 0.002483 0.000006 0.044616 0.000162
# 6 0.000105 0.000012 -0.000110 0.005508 0.000162 0.144399
#
#
# Mechanical properties :
#
#
# Convention : Reuss Voigt Hill
#
# Bulk Modulus (GPa) = 33.59063 40.53733 37.06398
# Shear Modulus (GPa) = 17.90538 28.74848 23.32693
#
# Velocity S-wave (km/s) = 2.83825 3.59638 3.23957
# Velocity P-wave (km/s) = 5.08461 5.95677 5.53789
#
# Compressibility (1/GPa) = 0.02977021
#
# Stress axis : x y z
#
# Youngs Moduli (GPa) = 56.19278 91.21336 63.18872
#
# Poissons Ratio (x) = 0.13518 0.21738
# Poissons Ratio (y) = 0.08328 0.15702
# Poissons Ratio (z) = 0.19332 0.22667
#
# Static dielectric constant tensor:
#      x y z
#    x 1.799070 0.000000 0.026650 
#    y 0.000000 1.784640 0.000030 
#    z 0.026650 0.000030 1.906380 
# 
# From -- ./inp_files/199702.got.cif
#   From: 2010.05.17/outbox.cif.g08.bks.cpg/sg15_100_cif.got.tgz:199702.got - 2010.06.03 18:47:42.
