data_PCOD9297549
_publ_section_title
;
Structure prediction by ZEFSAII (Michael W. Deem and Ramdas Pophale) SiO2 
 PCOD9297549
Probable space group: C 2/C
;
_chemical_formula_sum "Si O2"
_cell_formula_units_Z 48
_cell_length_a 19.631241
_cell_length_b 9.977967
_cell_length_c 12.851041
_cell_angle_alpha 90.000000
_cell_angle_beta 43.846998
_cell_angle_gamma 90.000000
_cell_volume 1743.794263
_symmetry_space_group_name_H-M "C 2/C"
_symmetry_group_IT_number 15
_symmetry_cell_setting 'monoclinic'
loop_
_space_group_symop_operation_xyz
x,y,z
-x,y,1/2-z
-x,-y,-z
x,-y,1/2+z
1/2+x,1/2+y,z
1/2-x,1/2+y,1/2-z
1/2-x,1/2-y,-z
1/2+x,1/2-y,1/2+z
loop_
_atom_site_type_symbol
_atom_site_label
_atom_site_fract_x
_atom_site_fract_y
_atom_site_fract_z
Si Si1 0.415365 0.803951 0.032696
Si Si2 0.962362 0.267886 0.408007
Si Si3 0.285158 0.451514 0.398953
Si Si4 0.581108 0.486888 0.073052
Si Si5 0.378666 0.843973 0.788993
Si Si6 0.239928 0.339661 0.784741
O O1 0.464230 0.832119 0.090831
O O2 0.298025 0.798317 0.191954
O O3 0.409851 0.650260 0.997349
O O4 0.505270 0.860892 0.860609
O O5 0.852436 0.318843 0.537416
O O6 0.000000 0.275565 0.250000
O O7 0.952753 0.113453 0.454864
O O8 0.325206 0.523696 0.458885
O O9 0.348646 0.314156 0.324506
O O10 0.173254 0.405133 0.550668
O O11 0.298151 0.548553 0.286929
O O12 0.500000 0.468124 0.250000
O O13 0.315910 0.889866 0.757505
#
# Coordination Sequence:
#
# PCOD9297549 Si02
#       6
#     8   8   8   8   8   8
#     4  11  22  39  67 100 133 173 230 285 333 407
#     4  10  24  41  63  99 138 175 221 280 343 409
#     4  11  23  42  66  99 140 179 226 289 348 409
#     4  11  20  37  69 100 125 170 230 291 337 386
#     4  10  24  42  67 104 136 178 236 282 344 412
#     4  11  24  41  70  99 137 180 227 284 348 413
#
# _framework density 27.526185000000002
#
# number of rings (size 3 to 8) (size 9 to 14) (size 15 to 20)
#    0.000    1.333    3.333    2.500    4.667    2.667 
#    0.000    1.667    0.000    5.000    0.000    0.000 
#    0.000    0.000    0.000    0.000    0.000    0.000 
#
# Total GULP energy -134045.795509 kJ/mol
# GULP energy per Si atom -5585.241480 kJ/mol
# Density = 2.746353 g / cm^3
# Si number density = 27.526185 Si / 1000 Ang^3
#
#
#
# Elastic Constant Matrix: (Units=GPa)
#
#
# Indices 1 2 3 4 5 6 
#
# 1 87.9370 15.4990 39.3929 0.0000 -25.6161 0.0000
# 2 15.4990 59.5087 4.2422 0.0000 11.1244 0.0000
# 3 39.3929 4.2422 171.2558 0.0000 -12.0190 0.0000
# 4 0.0000 0.0000 0.0000 12.3406 0.0000 5.0787
# 5 -25.6161 11.1244 -12.0190 0.0000 54.7919 0.0000
# 6 0.0000 0.0000 0.0000 5.0787 0.0000 24.3967
#
#
#
# Elastic Compliance Matrix: (Units=1/GPa)
#
#
# Indices 1 2 3 4 5 6 
#
# 1 0.015970 -0.005426 -0.002984 0.000000 0.007913 0.000000
# 2 -0.005426 0.019392 0.000318 0.000000 -0.006404 0.000000
# 3 -0.002984 0.000318 0.006516 0.000000 -0.000030 0.000000
# 4 0.000000 0.000000 0.000000 0.088626 0.000000 -0.018449
# 5 0.007913 -0.006404 -0.000030 0.000000 0.023244 0.000000
# 6 0.000000 0.000000 0.000000 -0.018449 0.000000 0.044830
#
#
# Mechanical properties :
#
#
# Convention : Reuss Voigt Hill
#
# Bulk Modulus (GPa) = 38.91864 48.55222 43.73543
# Shear Modulus (GPa) = 22.38896 35.61034 28.99965
#
# Velocity S-wave (km/s) = 2.85506 3.60069 3.24933
# Velocity P-wave (km/s) = 5.00379 5.91299 5.47729
#
# Compressibility (1/GPa) = 0.02569463
#
# Stress axis : x y z
#
# Youngs Moduli (GPa) = 62.61804 51.56792 153.47966
#
# Poissons Ratio (x) = 0.27980 0.45793
# Poissons Ratio (y) = 0.33976 -0.04885
# Poissons Ratio (z) = 0.18683 -0.01641
#
# Static dielectric constant tensor:
#      x y z
#    x 2.271790 0.000000 -0.151250 
#    y 0.000000 2.236650 0.000000 
#    z -0.151250 0.000000 2.283160 
# 
# From -- ./inp_files/167837.got.cif
#   From: 2010.05.17/outbox.cif.g08.bks.cpg/sg15_84_cif.got.tgz:167837.got - 2010.06.03 18:47:42.
