data_PCOD9297353
_publ_section_title
;
Structure prediction by ZEFSAII (Michael W. Deem and Ramdas Pophale) SiO2 
 PCOD9297353
Probable space group: C 2/C
;
_chemical_formula_sum "Si O2"
_cell_formula_units_Z 36
_cell_length_a 7.569709
_cell_length_b 11.805071
_cell_length_c 21.850641
_cell_angle_alpha 90.000000
_cell_angle_beta 59.639433
_cell_angle_gamma 90.000000
_cell_volume 1684.818721
_symmetry_space_group_name_H-M "C 2/C"
_symmetry_group_IT_number 15
_symmetry_cell_setting 'monoclinic'
loop_
_space_group_symop_operation_xyz
x,y,z
-x,y,1/2-z
-x,-y,-z
x,-y,1/2+z
1/2+x,1/2+y,z
1/2-x,1/2+y,1/2-z
1/2-x,1/2-y,-z
1/2+x,1/2-y,1/2+z
loop_
_atom_site_type_symbol
_atom_site_label
_atom_site_fract_x
_atom_site_fract_y
_atom_site_fract_z
Si Si1 0.996124 0.343616 0.468402
Si Si2 0.803765 0.164602 0.581024
Si Si3 0.590896 0.459163 0.120575
Si Si4 0.431756 0.292891 0.661525
Si Si5 0.500000 0.294420 0.250000
O O1 0.172805 0.436608 0.438666
O O2 0.078880 0.242830 0.408667
O O3 0.928038 0.278881 0.541273
O O4 0.795321 0.380515 0.465085
O O5 0.602414 0.202680 0.654495
O O6 0.946847 0.078913 0.590281
O O7 0.528101 0.584361 0.151008
O O8 0.543967 0.374939 0.184825
O O9 0.204487 0.278210 0.726437
#
# Coordination Sequence:
#
# PCOD9297353 Si02
#       5
#     8   8   8   8   4
#     4   8  19  41  53  93 120 128 192 238 261 360
#     4   9  19  39  59  84 121 141 177 240 282 327
#     4  11  21  38  61  79 112 158 180 229 290 319
#     4   9  21  39  56  85 108 151 191 226 284 331
#     4  10  24  40  50  84 118 134 210 240 244 348
#
# _framework density 21.367283
#
# number of rings (size 3 to 8) (size 9 to 14) (size 15 to 20)
#    1.333    1.333    0.000    0.667    0.000    6.222 
#    8.000    0.000    0.000    0.000    0.000    0.000 
#    0.000    0.000    0.000    0.000    0.000    0.000 
#
# Total GULP energy -100323.021347 kJ/mol
# GULP energy per Si atom -5573.501186 kJ/mol
# Density = 2.131865 g / cm^3
# Si number density = 21.367283 Si / 1000 Ang^3
#
#
#
# Elastic Constant Matrix: (Units=GPa)
#
#
# Indices 1 2 3 4 5 6 
#
# 1 90.2840 42.1288 23.3689 0.0000 -33.6533 0.0000
# 2 42.1288 72.3817 1.4903 0.0000 -17.0265 0.0000
# 3 23.3689 1.4903 51.5638 0.0000 -31.5845 0.0000
# 4 0.0000 0.0000 0.0000 10.1780 0.0000 4.3476
# 5 -33.6533 -17.0265 -31.5845 0.0000 39.0343 0.0000
# 6 0.0000 0.0000 0.0000 4.3476 0.0000 29.0830
#
#
#
# Elastic Compliance Matrix: (Units=1/GPa)
#
#
# Indices 1 2 3 4 5 6 
#
# 1 0.020163 -0.008735 -0.001133 0.000000 0.012657 0.000000
# 2 -0.008735 0.020690 0.008478 0.000000 0.008354 0.000000
# 3 -0.001133 0.008478 0.042288 0.000000 0.036938 0.000000
# 4 0.000000 0.000000 0.000000 0.104952 0.000000 -0.015689
# 5 0.012657 0.008354 0.036938 0.000000 0.070063 0.000000
# 6 0.000000 0.000000 0.000000 -0.015689 0.000000 0.036730
#
#
# Mechanical properties :
#
#
# Convention : Reuss Voigt Hill
#
# Bulk Modulus (GPa) = 12.44390 38.68950 25.56670
# Shear Modulus (GPa) = 15.41052 25.47516 20.44284
#
# Velocity S-wave (km/s) = 2.68847 3.45664 3.09647
# Velocity P-wave (km/s) = 3.93365 5.83758 4.97750
#
# Compressibility (1/GPa) = 0.08036068
#
# Stress axis : x y z
#
# Youngs Moduli (GPa) = 49.59524 48.33164 23.64752
#
# Poissons Ratio (x) = 0.42218 0.02679
# Poissons Ratio (y) = 0.43322 -0.20048
# Poissons Ratio (z) = 0.05619 -0.40975
#
# Static dielectric constant tensor:
#      x y z
#    x 1.784720 0.000000 -0.008030 
#    y 0.000000 1.766450 0.000000 
#    z -0.008030 0.000000 1.831180 
# 
# From -- ./inp_files/229636.got.cif
#   From: 2010.05.17/outbox.cif.g08.bks.cpg/sg15_115_cif.got.tgz:229636.got - 2010.06.03 18:47:42.
