data_PCOD9297607
_publ_section_title
;
Structure prediction by ZEFSAII (Michael W. Deem and Ramdas Pophale) SiO2 
 PCOD9297607
Probable space group: C 2/C
;
_chemical_formula_sum "Si O2"
_cell_formula_units_Z 32
_cell_length_a 27.084941
_cell_length_b 5.439301
_cell_length_c 9.200994
_cell_angle_alpha 90.000000
_cell_angle_beta 100.195863
_cell_angle_gamma 90.000000
_cell_volume 1334.113557
_symmetry_space_group_name_H-M "C 2/C"
_symmetry_group_IT_number 15
_symmetry_cell_setting 'monoclinic'
loop_
_space_group_symop_operation_xyz
x,y,z
-x,y,1/2-z
-x,-y,-z
x,-y,1/2+z
1/2+x,1/2+y,z
1/2-x,1/2+y,1/2-z
1/2-x,1/2-y,-z
1/2+x,1/2-y,1/2+z
loop_
_atom_site_type_symbol
_atom_site_label
_atom_site_fract_x
_atom_site_fract_y
_atom_site_fract_z
Si Si1 0.556582 0.919303 0.549184
Si Si2 0.383691 0.825972 0.642830
Si Si3 0.732746 0.277536 0.160493
Si Si4 0.638287 0.682212 0.446089
O O1 0.571622 0.839997 0.718019
O O2 0.579093 0.705349 0.456748
O O3 0.500000 0.000000 0.500000
O O4 0.592002 0.137465 0.505594
O O5 0.353178 0.577656 0.620329
O O6 0.352706 0.077473 0.646425
O O7 0.749863 0.535057 0.242325
O O8 0.750000 0.250000 0.000000
O O9 0.672479 0.285015 0.104822
#
# Coordination Sequence:
#
# PCOD9297607 Si02
#       4
#     8   8   8   8
#     4  10  24  44  68  99 135 179 230 278 346 408
#     4  10  24  41  68  96 137 179 222 283 342 408
#     4  12  28  46  76 107 146 190 245 299 368 432
#     4  10  26  42  71  96 143 173 234 282 350 409
#
# _framework density 23.985962000000001
#
# number of rings (size 3 to 8) (size 9 to 14) (size 15 to 20)
#    1.500    0.000    0.000    3.000   10.500    1.000 
#    4.500    0.000    0.000    0.000    0.000    0.000 
#    0.000    0.000    0.000    0.000    0.000    0.000 
#
# Total GULP energy -89208.644591 kJ/mol
# GULP energy per Si atom -5575.540287 kJ/mol
# Density = 2.393137 g / cm^3
# Si number density = 23.985962 Si / 1000 Ang^3
#
#
#
# Elastic Constant Matrix: (Units=GPa)
#
#
# Indices 1 2 3 4 5 6 
#
# 1 72.1664 6.2257 25.2112 0.0000 8.0978 0.0000
# 2 6.2257 224.7725 75.2758 0.0000 15.2890 0.0000
# 3 25.2112 75.2758 136.9597 0.0000 13.8619 0.0000
# 4 0.0000 0.0000 0.0000 35.9177 0.0000 16.5442
# 5 8.0978 15.2890 13.8619 0.0000 46.1898 0.0000
# 6 0.0000 0.0000 0.0000 16.5442 0.0000 11.4577
#
#
#
# Elastic Compliance Matrix: (Units=1/GPa)
#
#
# Indices 1 2 3 4 5 6 
#
# 1 0.015052 0.000709 -0.002960 0.000000 -0.001985 0.000000
# 2 0.000709 0.005525 -0.003063 0.000000 -0.001034 0.000000
# 3 -0.002960 -0.003063 0.009668 0.000000 -0.001369 0.000000
# 4 0.000000 0.000000 0.000000 0.083132 0.000000 -0.120037
# 5 -0.001985 -0.001034 -0.001369 0.000000 0.022751 0.000000
# 6 0.000000 0.000000 0.000000 -0.120037 0.000000 0.260602
#
#
# Mechanical properties :
#
#
# Convention : Reuss Voigt Hill
#
# Bulk Modulus (GPa) = 50.96934 71.92490 61.44712
# Shear Modulus (GPa) = 12.08030 40.52545 26.30288
#
# Velocity S-wave (km/s) = 2.24663 4.11487 3.31508
# Velocity P-wave (km/s) = 5.29392 7.25449 6.35032
#
# Compressibility (1/GPa) = 0.01961964
#
# Stress axis : x y z
#
# Youngs Moduli (GPa) = 66.43438 180.98425 103.43271
#
# Poissons Ratio (x) = -0.12838 0.30613
# Poissons Ratio (y) = -0.04712 0.31679
# Poissons Ratio (z) = 0.19663 0.55431
#
# Static dielectric constant tensor:
#      x y z
#    x 2.042050 0.000000 -0.074100 
#    y 0.000000 1.988340 0.000000 
#    z -0.074100 0.000000 1.916060 
# 
# From -- ./inp_files/68037.got.cif
#   From: 2010.05.17/outbox.cif.g08.bks.cpg/sg15_35_cif.got.tgz:68037.got - 2010.06.03 18:47:42.
