data_PCOD9297267
_publ_section_title
;
Structure prediction by ZEFSAII (Michael W. Deem and Ramdas Pophale) SiO2 
 PCOD9297267
Probable space group: C 2/C
;
_chemical_formula_sum "Si O2"
_cell_formula_units_Z 60
_cell_length_a 20.637104
_cell_length_b 17.900580
_cell_length_c 9.172969
_cell_angle_alpha 90.000000
_cell_angle_beta 116.209199
_cell_angle_gamma 90.000000
_cell_volume 3040.247798
_symmetry_space_group_name_H-M "C 2/C"
_symmetry_group_IT_number 15
_symmetry_cell_setting 'monoclinic'
loop_
_space_group_symop_operation_xyz
x,y,z
-x,y,1/2-z
-x,-y,-z
x,-y,1/2+z
1/2+x,1/2+y,z
1/2-x,1/2+y,1/2-z
1/2-x,1/2-y,-z
1/2+x,1/2-y,1/2+z
loop_
_atom_site_type_symbol
_atom_site_label
_atom_site_fract_x
_atom_site_fract_y
_atom_site_fract_z
Si Si1 0.877863 0.945284 0.247280
Si Si2 0.704347 0.350997 0.536418
Si Si3 0.802885 0.690165 0.872875
Si Si4 0.075725 0.090471 0.379698
Si Si5 0.735688 0.962208 0.669604
Si Si6 0.500000 0.007562 0.750000
Si Si7 0.595738 0.937378 0.093158
Si Si8 0.226933 0.164990 0.509383
O O1 0.864039 0.874572 0.129009
O O2 0.914999 0.926436 0.438233
O O3 0.916784 0.012064 0.199584
O O4 0.796897 0.978600 0.186899
O O5 0.771471 0.329942 0.499493
O O6 0.688512 0.279070 0.619575
O O7 0.729909 0.419280 0.659780
O O8 0.873918 0.644743 0.904737
O O9 0.745060 0.661275 0.697989
O O10 0.143594 0.142850 0.405080
O O11 0.000000 0.123378 0.250000
O O12 0.729386 0.898439 0.537856
O O13 0.662501 0.004458 0.639555
O O14 0.442381 0.053793 0.788482
O O15 0.459508 0.958253 0.589627
O O16 0.250000 0.250000 0.500000
#
# Coordination Sequence:
#
# PCOD9297267 Si02
#       8
#     8   8   8   8   8   4   8   8
#     4  11  21  38  63  98 122 160 212 257 317 389
#     4  11  21  36  60 101 121 157 203 275 323 373
#     4  11  22  37  64  90 129 157 209 272 324 372
#     4  11  23  39  63  91 131 167 204 261 318 384
#     4  11  21  36  67  94 123 160 218 271 317 372
#     4  10  24  38  62  90 124 164 222 258 322 392
#     4  11  21  40  63  91 122 170 211 268 320 381
#     4  11  22  39  62  92 125 166 214 264 312 383
#
# _framework density 19.735232
#
# number of rings (size 3 to 8) (size 9 to 14) (size 15 to 20)
#    0.000    1.067    5.333    2.000    1.867    0.000 
#    0.000    0.000   13.200    0.000    0.000    0.000 
#    0.000    0.000    0.000    0.000    0.000    0.000 
#
# Total GULP energy -167535.498817 kJ/mol
# GULP energy per Si atom -5584.516627 kJ/mol
# Density = 1.969031 g / cm^3
# Si number density = 19.735232 Si / 1000 Ang^3
#
#
#
# Elastic Constant Matrix: (Units=GPa)
#
#
# Indices 1 2 3 4 5 6 
#
# 1 94.3145 28.7175 38.1436 0.0000 5.2746 0.0000
# 2 28.7175 68.5219 38.1988 0.0000 4.5837 0.0000
# 3 38.1436 38.1988 107.5174 0.0000 -4.6552 0.0000
# 4 0.0000 0.0000 0.0000 26.5304 0.0000 -16.5879
# 5 5.2746 4.5837 -4.6552 0.0000 28.8287 0.0000
# 6 0.0000 0.0000 0.0000 -16.5879 0.0000 13.7498
#
#
#
# Elastic Compliance Matrix: (Units=1/GPa)
#
#
# Indices 1 2 3 4 5 6 
#
# 1 0.013223 -0.003370 -0.003601 0.000000 -0.002465 0.000000
# 2 -0.003370 0.019518 -0.005888 0.000000 -0.003438 0.000000
# 3 -0.003601 -0.005888 0.012829 0.000000 0.003667 0.000000
# 4 0.000000 0.000000 0.000000 0.153408 0.000000 0.185073
# 5 -0.002465 -0.003438 0.003667 0.000000 0.036277 0.000000
# 6 0.000000 0.000000 0.000000 0.185073 0.000000 0.296003
#
#
# Mechanical properties :
#
#
# Convention : Reuss Voigt Hill
#
# Bulk Modulus (GPa) = 50.36817 53.38598 51.87707
# Shear Modulus (GPa) = 8.87167 24.84137 16.85652
#
# Velocity S-wave (km/s) = 2.12252 3.55171 2.92573
# Velocity P-wave (km/s) = 5.61998 6.62792 6.14465
#
# Compressibility (1/GPa) = 0.01985381
#
# Stress axis : x y z
#
# Youngs Moduli (GPa) = 75.62651 51.23385 77.94959
#
# Poissons Ratio (x) = 0.17264 0.28067
# Poissons Ratio (y) = 0.25483 0.45896
# Poissons Ratio (z) = 0.27230 0.30166
#
# Static dielectric constant tensor:
#      x y z
#    x 1.731790 0.000000 -0.027730 
#    y 0.000000 1.715880 0.000000 
#    z -0.027730 0.000000 1.717060 
# 
# From -- ./inp_files/57023.got.cif
#   From: 2010.05.17/outbox.cif.g08.bks.cpg/sg15_29_cif.got.tgz:57023.got - 2010.06.03 18:47:42.
