data_PCOD9297468
_publ_section_title
;
Structure prediction by ZEFSAII (Michael W. Deem and Ramdas Pophale) SiO2 
 PCOD9297468
Probable space group: C 2/C
;
_chemical_formula_sum "Si O2"
_cell_formula_units_Z 48
_cell_length_a 19.724927
_cell_length_b 4.852970
_cell_length_c 17.248814
_cell_angle_alpha 90.000000
_cell_angle_beta 98.960497
_cell_angle_gamma 90.000000
_cell_volume 1630.983232
_symmetry_space_group_name_H-M "C 2/C"
_symmetry_group_IT_number 15
_symmetry_cell_setting 'monoclinic'
loop_
_space_group_symop_operation_xyz
x,y,z
-x,y,1/2-z
-x,-y,-z
x,-y,1/2+z
1/2+x,1/2+y,z
1/2-x,1/2+y,1/2-z
1/2-x,1/2-y,-z
1/2+x,1/2-y,1/2+z
loop_
_atom_site_type_symbol
_atom_site_label
_atom_site_fract_x
_atom_site_fract_y
_atom_site_fract_z
Si Si1 0.077634 0.932765 0.908903
Si Si2 0.000000 0.841276 0.750000
Si Si3 0.909154 0.541000 0.341858
Si Si4 0.342333 0.691616 0.454542
Si Si5 0.793560 0.805181 0.235138
Si Si6 0.708210 0.939779 0.417051
Si Si7 0.500000 0.000000 0.000000
O O1 0.039732 0.014277 0.823163
O O2 0.153455 0.807536 0.902949
O O3 0.033609 0.691061 0.937822
O O4 0.088230 0.146347 0.982159
O O5 0.052069 0.636384 0.715737
O O6 0.858802 0.327459 0.376746
O O7 0.864683 0.774154 0.292747
O O8 0.951430 0.651563 0.422627
O O9 0.306920 0.910043 0.504521
O O10 0.291475 0.434250 0.433144
O O11 0.761643 0.108416 0.229731
O O12 0.804682 0.656612 0.154606
#
# Coordination Sequence:
#
# PCOD9297468 Si02
#       7
#     8   4   8   8   8   8   4
#     4  11  23  45  69  98 146 190 245 306 379 442
#     4  10  24  42  68  96 146 190 248 308 360 472
#     4  11  23  47  68 109 141 191 257 301 382 446
#     4  11  25  44  74 107 138 190 250 315 379 447
#     4  12  28  47  79 112 155 196 249 318 389 450
#     4  11  24  45  71 109 142 187 243 317 374 458
#     4  10  24  40  68  96 146 194 236 308 350 464
#
# _framework density 29.430097
#
# number of rings (size 3 to 8) (size 9 to 14) (size 15 to 20)
#    0.000    1.000    5.000    0.500    4.667    2.667 
#    0.000    2.500    0.000    0.000    0.000    0.000 
#    0.000    0.000    0.000    0.000    0.000    0.000 
#
# Total GULP energy -134381.237140 kJ/mol
# GULP energy per Si atom -5599.218214 kJ/mol
# Density = 2.936311 g / cm^3
# Si number density = 29.430097 Si / 1000 Ang^3
#
#
#
# Elastic Constant Matrix: (Units=GPa)
#
#
# Indices 1 2 3 4 5 6 
#
# 1 101.3418 4.8569 49.6375 0.0000 -0.9323 0.0000
# 2 4.8569 87.5711 29.5333 0.0000 0.3060 0.0000
# 3 49.6375 29.5333 194.9408 0.0000 17.5331 0.0000
# 4 0.0000 0.0000 0.0000 46.5021 0.0000 6.0975
# 5 -0.9323 0.3060 17.5331 0.0000 91.3860 0.0000
# 6 0.0000 0.0000 0.0000 6.0975 0.0000 18.4718
#
#
#
# Elastic Compliance Matrix: (Units=1/GPa)
#
#
# Indices 1 2 3 4 5 6 
#
# 1 0.011327 0.000383 -0.003004 0.000000 0.000691 0.000000
# 2 0.000383 0.012056 -0.001954 0.000000 0.000338 0.000000
# 3 -0.003004 -0.001954 0.006302 0.000000 -0.001233 0.000000
# 4 0.000000 0.000000 0.000000 0.022477 0.000000 -0.007420
# 5 0.000691 0.000338 -0.001233 0.000000 0.011185 0.000000
# 6 0.000000 0.000000 0.000000 -0.007420 0.000000 0.056586
#
#
# Mechanical properties :
#
#
# Convention : Reuss Voigt Hill
#
# Bulk Modulus (GPa) = 48.70272 61.32324 55.01298
# Shear Modulus (GPa) = 36.78384 51.26038 44.02211
#
# Velocity S-wave (km/s) = 3.53919 4.17798 3.87178
# Velocity P-wave (km/s) = 5.76937 6.64501 6.22261
#
# Compressibility (1/GPa) = 0.02053273
#
# Stress axis : x y z
#
# Youngs Moduli (GPa) = 88.28362 82.94636 158.68669
#
# Poissons Ratio (x) = -0.03173 0.47674
# Poissons Ratio (y) = -0.03377 0.31012
# Poissons Ratio (z) = 0.26523 0.16210
#
# Static dielectric constant tensor:
#      x y z
#    x 2.259170 0.000000 -0.011500 
#    y 0.000000 2.260670 0.000000 
#    z -0.011500 0.000000 2.192130 
# 
# From -- ./inp_files/217834.got.cif
#   From: 2010.05.17/outbox.cif.g08.bks.cpg/sg15_109_cif.got.tgz:217834.got - 2010.06.03 18:47:42.
