data_PCOD9297531
_publ_section_title
;
Structure prediction by ZEFSAII (Michael W. Deem and Ramdas Pophale) SiO2 
 PCOD9297531
Probable space group: C 2/C
;
_chemical_formula_sum "Si O2"
_cell_formula_units_Z 40
_cell_length_a 15.654684
_cell_length_b 10.667880
_cell_length_c 13.742936
_cell_angle_alpha 90.000000
_cell_angle_beta 52.187892
_cell_angle_gamma 90.000000
_cell_volume 1813.188875
_symmetry_space_group_name_H-M "C 2/C"
_symmetry_group_IT_number 15
_symmetry_cell_setting 'monoclinic'
loop_
_space_group_symop_operation_xyz
x,y,z
-x,y,1/2-z
-x,-y,-z
x,-y,1/2+z
1/2+x,1/2+y,z
1/2-x,1/2+y,1/2-z
1/2-x,1/2-y,-z
1/2+x,1/2-y,1/2+z
loop_
_atom_site_type_symbol
_atom_site_label
_atom_site_fract_x
_atom_site_fract_y
_atom_site_fract_z
Si Si1 0.323142 0.644466 0.763532
Si Si2 0.782941 0.062423 0.427040
Si Si3 0.887278 0.770277 0.011985
Si Si4 0.427198 0.127019 0.555985
Si Si5 0.114245 0.367788 0.632388
O O1 0.351206 0.521891 0.805692
O O2 0.380663 0.666899 0.622098
O O3 0.343268 0.763123 0.821802
O O4 0.196737 0.618124 0.826815
O O5 0.856632 0.138251 0.448038
O O6 0.701458 0.157969 0.429722
O O7 0.705316 0.970113 0.544623
O O8 0.005968 0.714212 0.919485
O O9 0.416632 0.182255 0.453737
O O10 0.500000 0.000000 0.500000
O O11 0.000000 0.421694 0.750000
#
# Coordination Sequence:
#
# PCOD9297531 Si02
#       5
#     8   8   8   8   8
#     4  11  24  42  68  98 130 174 216 271 333 386
#     4  10  24  41  62 102 133 161 223 278 314 392
#     4  11  23  41  69  97 133 170 216 276 329 380
#     4  11  21  42  67  99 125 170 226 261 318 399
#     4  11  22  40  69  96 132 174 221 264 330 392
#
# _framework density 22.060580000000002
#
# number of rings (size 3 to 8) (size 9 to 14) (size 15 to 20)
#    0.000    1.200    6.000    2.400    5.600    0.000 
#    0.000    9.000    0.000    0.000    0.000    0.000 
#    0.000    0.000    0.000    0.000    0.000    0.000 
#
# Total GULP energy -111720.302354 kJ/mol
# GULP energy per Si atom -5586.015118 kJ/mol
# Density = 2.201037 g / cm^3
# Si number density = 22.060580 Si / 1000 Ang^3
#
#
#
# Elastic Constant Matrix: (Units=GPa)
#
#
# Indices 1 2 3 4 5 6 
#
# 1 116.2465 41.2010 -1.1389 0.0000 4.4396 0.0000
# 2 41.2010 87.8276 9.9844 0.0000 12.3286 0.0000
# 3 -1.1389 9.9844 17.2627 0.0000 7.0892 0.0000
# 4 0.0000 0.0000 0.0000 5.9099 0.0000 1.4337
# 5 4.4396 12.3286 7.0892 0.0000 26.3573 0.0000
# 6 0.0000 0.0000 0.0000 1.4337 0.0000 34.4445
#
#
#
# Elastic Compliance Matrix: (Units=1/GPa)
#
#
# Indices 1 2 3 4 5 6 
#
# 1 0.010549 -0.005349 0.003925 0.000000 -0.000331 0.000000
# 2 -0.005349 0.015344 -0.007476 0.000000 -0.004265 0.000000
# 3 0.003925 -0.007476 0.068964 0.000000 -0.015713 0.000000
# 4 0.000000 0.000000 0.000000 0.170933 0.000000 -0.007115
# 5 -0.000331 -0.004265 -0.015713 0.000000 0.044217 0.000000
# 6 0.000000 0.000000 0.000000 -0.007115 0.000000 0.029328
#
#
# Mechanical properties :
#
#
# Convention : Reuss Voigt Hill
#
# Bulk Modulus (GPa) = 12.97703 35.71442 24.34573
# Shear Modulus (GPa) = 13.06098 24.76171 18.91135
#
# Velocity S-wave (km/s) = 2.43585 3.35392 2.93105
# Velocity P-wave (km/s) = 3.71569 5.58773 4.74495
#
# Compressibility (1/GPa) = 0.07705921
#
# Stress axis : x y z
#
# Youngs Moduli (GPa) = 94.79415 65.17377 14.50029
#
# Poissons Ratio (x) = 0.34858 -0.05692
# Poissons Ratio (y) = 0.50701 0.10840
# Poissons Ratio (z) = -0.37210 0.48722
#
# Static dielectric constant tensor:
#      x y z
#    x 1.811690 0.000000 -0.017910 
#    y 0.000000 1.842050 0.000000 
#    z -0.017910 0.000000 1.835690 
# 
# From -- ./inp_files/159118.got.cif
#   From: 2010.05.17/outbox.cif.g08.bks.cpg/sg15_80_cif.got.tgz:159118.got - 2010.06.03 18:47:42.
