data_PCOD9297622
_publ_section_title
;
Structure prediction by ZEFSAII (Michael W. Deem and Ramdas Pophale) SiO2 
 PCOD9297622
Probable space group: C 2/C
;
_chemical_formula_sum "Si O2"
_cell_formula_units_Z 40
_cell_length_a 7.774665
_cell_length_b 24.225893
_cell_length_c 11.162767
_cell_angle_alpha 90.000000
_cell_angle_beta 58.395034
_cell_angle_gamma 90.000000
_cell_volume 1790.649398
_symmetry_space_group_name_H-M "C 2/C"
_symmetry_group_IT_number 15
_symmetry_cell_setting 'monoclinic'
loop_
_space_group_symop_operation_xyz
x,y,z
-x,y,1/2-z
-x,-y,-z
x,-y,1/2+z
1/2+x,1/2+y,z
1/2-x,1/2+y,1/2-z
1/2-x,1/2-y,-z
1/2+x,1/2-y,1/2+z
loop_
_atom_site_type_symbol
_atom_site_label
_atom_site_fract_x
_atom_site_fract_y
_atom_site_fract_z
Si Si1 0.591785 0.654662 0.898423
Si Si2 0.137808 0.563806 0.815491
Si Si3 0.500000 0.483137 0.750000
Si Si4 0.500000 0.250681 0.250000
Si Si5 0.748674 0.891541 0.929295
Si Si6 0.779818 0.358029 0.828559
O O1 0.729474 0.617327 0.764259
O O2 0.549660 0.710980 0.844721
O O3 0.708839 0.653376 0.983092
O O4 0.379185 0.626168 0.012256
O O5 0.305831 0.518059 0.781280
O O6 0.000000 0.549134 0.750000
O O7 0.973358 0.582116 0.973867
O O8 0.405193 0.442530 0.884877
O O9 0.680493 0.207152 0.163493
O O10 0.781658 0.866341 0.786389
O O11 0.000000 0.385648 0.750000
#
# Coordination Sequence:
#
# PCOD9297622 Si02
#       6
#     8   8   4   4   8   8
#     4  11  22  46  67  96 141 173 224 284 343 397
#     4  10  26  42  70 105 137 180 230 278 342 412
#     4  12  23  44  74  96 140 184 229 282 344 396
#     4  10  25  38  72 104 128 182 229 278 342 410
#     4  11  24  47  64 102 138 181 225 284 337 405
#     4  10  24  41  69  99 135 176 230 275 341 406
#
# _framework density 22.338263999999999
#
# number of rings (size 3 to 8) (size 9 to 14) (size 15 to 20)
#    0.600    0.800    2.000    1.800    5.600    4.800 
#    0.000    4.000    0.000    0.000    0.000    0.000 
#    0.000    0.000    0.000    0.000    0.000    0.000 
#
# Total GULP energy -111522.611590 kJ/mol
# GULP energy per Si atom -5576.130580 kJ/mol
# Density = 2.228742 g / cm^3
# Si number density = 22.338264 Si / 1000 Ang^3
#
#
#
# Elastic Constant Matrix: (Units=GPa)
#
#
# Indices 1 2 3 4 5 6 
#
# 1 113.1145 52.6640 33.3881 0.0000 -15.6414 0.0000
# 2 52.6640 74.9742 29.0121 0.0000 -0.2258 0.0000
# 3 33.3881 29.0121 114.1873 0.0000 -37.0415 0.0000
# 4 0.0000 0.0000 0.0000 30.8915 0.0000 -15.2421
# 5 -15.6414 -0.2258 -37.0415 0.0000 44.5503 0.0000
# 6 0.0000 0.0000 0.0000 -15.2421 0.0000 45.3432
#
#
#
# Elastic Compliance Matrix: (Units=1/GPa)
#
#
# Indices 1 2 3 4 5 6 
#
# 1 0.014136 -0.009902 -0.000032 0.000000 0.004886 0.000000
# 2 -0.009902 0.022319 -0.005294 0.000000 -0.007766 0.000000
# 3 -0.000032 -0.005294 0.013830 0.000000 0.011461 0.000000
# 4 0.000000 0.000000 0.000000 0.038808 0.000000 0.013045
# 5 0.004886 -0.007766 0.011461 0.000000 0.033652 0.000000
# 6 0.000000 0.000000 0.000000 0.013045 0.000000 0.026439
#
#
# Mechanical properties :
#
#
# Convention : Reuss Voigt Hill
#
# Bulk Modulus (GPa) = 50.43695 59.15603 54.79649
# Shear Modulus (GPa) = 26.84546 36.63778 31.74162
#
# Velocity S-wave (km/s) = 3.47042 4.05425 3.77364
# Velocity P-wave (km/s) = 6.21982 6.96099 6.60081
#
# Compressibility (1/GPa) = 0.01982673
#
# Stress axis : x y z
#
# Youngs Moduli (GPa) = 70.74054 44.80505 72.30672
#
# Poissons Ratio (x) = 0.44368 0.00235
# Poissons Ratio (y) = 0.70050 0.38282
# Poissons Ratio (z) = 0.00230 0.23721
#
# Static dielectric constant tensor:
#      x y z
#    x 1.921020 0.000000 -0.011340 
#    y 0.000000 1.809220 0.000000 
#    z -0.011340 0.000000 1.814130 
# 
# From -- ./inp_files/80481.got.cif
#   From: 2010.05.17/outbox.cif.g08.bks.cpg/sg15_41_cif.got.tgz:80481.got - 2010.06.03 18:47:42.
