data_PCOD9297135
_publ_section_title
;
Structure prediction by ZEFSAII (Michael W. Deem and Ramdas Pophale) SiO2 
 PCOD9297135
Probable space group: C 2/C
;
_chemical_formula_sum "Si O2"
_cell_formula_units_Z 48
_cell_length_a 9.059837
_cell_length_b 25.796172
_cell_length_c 13.905343
_cell_angle_alpha 90.000000
_cell_angle_beta 140.548200
_cell_angle_gamma 90.000000
_cell_volume 2065.020155
_symmetry_space_group_name_H-M "C 2/C"
_symmetry_group_IT_number 15
_symmetry_cell_setting 'monoclinic'
loop_
_space_group_symop_operation_xyz
x,y,z
-x,y,1/2-z
-x,-y,-z
x,-y,1/2+z
1/2+x,1/2+y,z
1/2-x,1/2+y,1/2-z
1/2-x,1/2-y,-z
1/2+x,1/2-y,1/2+z
loop_
_atom_site_type_symbol
_atom_site_label
_atom_site_fract_x
_atom_site_fract_y
_atom_site_fract_z
Si Si1 0.500000 0.048971 0.750000
Si Si2 0.197668 0.805170 0.427597
Si Si3 0.396369 0.592350 0.079710
Si Si4 0.366493 0.816914 0.976758
Si Si5 0.434995 0.524660 0.826484
Si Si6 0.272472 0.393759 0.907838
Si Si7 0.500000 0.229532 0.750000
O O1 0.315455 0.081925 0.599261
O O2 0.677617 0.026092 0.751665
O O3 0.250000 0.750000 0.500000
O O4 0.419035 0.825831 0.483009
O O5 0.152410 0.847488 0.485195
O O6 0.000000 0.799359 0.250000
O O7 0.492650 0.535136 0.147037
O O8 0.602899 0.620068 0.128414
O O9 0.283759 0.630984 0.097925
O O10 0.461153 0.802586 0.131962
O O11 0.220608 0.768316 0.862326
O O12 0.500000 0.546073 0.750000
O O13 0.612421 0.554659 0.987437
O O14 0.000000 0.399509 0.750000
#
# Coordination Sequence:
#
# PCOD9297135 Si02
#       7
#     4   8   8   8   8   8   4
#     4  10  23  48  74 106 156 204 242 319 380 456
#     4  12  28  47  77 111 150 196 249 310 380 451
#     4  11  27  43  76 107 148 193 255 310 381 445
#     4  11  26  46  74 106 146 194 252 304 373 454
#     4  11  27  48  76 111 152 200 259 311 388 456
#     4  11  27  48  74 104 152 197 249 316 381 446
#     4  10  25  46  74  96 146 192 246 307 368 430
#
# _framework density 23.244323999999999
#
# number of rings (size 3 to 8) (size 9 to 14) (size 15 to 20)
#    0.000    1.000    0.000    4.500   22.167    0.667 
#    0.000    0.000    0.000    0.000    0.000    0.000 
#    0.000    0.000    0.000    0.000    0.000    0.000 
#
# Total GULP energy -133991.001916 kJ/mol
# GULP energy per Si atom -5582.958413 kJ/mol
# Density = 2.319142 g / cm^3
# Si number density = 23.244324 Si / 1000 Ang^3
#
#
#
# Elastic Constant Matrix: (Units=GPa)
#
#
# Indices 1 2 3 4 5 6 
#
# 1 146.8713 51.1471 65.0597 0.0000 6.6807 0.0000
# 2 51.1471 120.0249 22.2145 0.0000 -2.4921 0.0000
# 3 65.0597 22.2145 135.9315 0.0000 0.8821 0.0000
# 4 0.0000 0.0000 0.0000 4.0679 0.0000 17.7768
# 5 6.6807 -2.4921 0.8821 0.0000 42.0573 0.0000
# 6 0.0000 0.0000 0.0000 17.7768 0.0000 4.8684
#
#
#
# Elastic Compliance Matrix: (Units=1/GPa)
#
#
# Indices 1 2 3 4 5 6 
#
# 1 0.009960 -0.003505 -0.004183 0.000000 -0.001702 0.000000
# 2 -0.003505 0.009837 0.000063 0.000000 0.001138 0.000000
# 3 -0.004183 0.000063 0.009345 0.000000 0.000472 0.000000
# 4 0.000000 0.000000 0.000000 -0.016436 0.000000 0.060014
# 5 -0.001702 0.001138 0.000472 0.000000 0.024105 0.000000
# 6 0.000000 0.000000 0.000000 0.060014 0.000000 -0.013733
#
#
# Mechanical properties :
#
#
# Convention : Reuss Voigt Hill
#
# Bulk Modulus (GPa) = 71.98823 75.51889 73.75356
# Shear Modulus (GPa) = 116.38643 27.82582 72.10613
#
# Velocity S-wave (km/s) = 7.08376 3.46367 5.57569
# Velocity P-wave (km/s) = 9.89665 6.96819 8.55860
#
# Compressibility (1/GPa) = 0.01389116
#
# Stress axis : x y z
#
# Youngs Moduli (GPa) = 100.40354 101.65275 107.00399
#
# Poissons Ratio (x) = 0.35633 0.44761
# Poissons Ratio (y) = 0.35195 -0.00671
# Poissons Ratio (z) = 0.41999 -0.00637
#
# Static dielectric constant tensor:
#      x y z
#    x 1.983030 0.000000 -0.079910 
#    y 0.000000 1.842430 0.000000 
#    z -0.079910 0.000000 1.856520 
# 
# From -- ./inp_files/139112.got.cif
#   From: 2010.05.17/outbox.cif.g08.bks.cpg/sg15_70_cif.got.tgz:139112.got - 2010.06.03 18:47:42.
