data_PCOD9297273
_publ_section_title
;
Structure prediction by ZEFSAII (Michael W. Deem and Ramdas Pophale) SiO2 
 PCOD9297273
Probable space group: C 2/C
;
_chemical_formula_sum "Si O2"
_cell_formula_units_Z 40
_cell_length_a 12.712656
_cell_length_b 23.802751
_cell_length_c 9.682271
_cell_angle_alpha 90.000000
_cell_angle_beta 135.970629
_cell_angle_gamma 90.000000
_cell_volume 2036.302884
_symmetry_space_group_name_H-M "C 2/C"
_symmetry_group_IT_number 15
_symmetry_cell_setting 'monoclinic'
loop_
_space_group_symop_operation_xyz
x,y,z
-x,y,1/2-z
-x,-y,-z
x,-y,1/2+z
1/2+x,1/2+y,z
1/2-x,1/2+y,1/2-z
1/2-x,1/2-y,-z
1/2+x,1/2-y,1/2+z
loop_
_atom_site_type_symbol
_atom_site_label
_atom_site_fract_x
_atom_site_fract_y
_atom_site_fract_z
Si Si1 0.004915 0.667249 0.484215
Si Si2 0.282742 0.924057 0.460950
Si Si3 0.000000 0.153282 0.750000
Si Si4 0.300896 0.270598 0.898108
Si Si5 0.500000 0.900670 0.250000
Si Si6 0.343669 0.008158 0.766638
O O1 0.082532 0.618212 0.463220
O O2 0.131776 0.716481 0.617326
O O3 0.962836 0.637576 0.586436
O O4 0.847237 0.695510 0.289045
O O5 0.140444 0.884490 0.343446
O O6 0.245777 0.968555 0.302119
O O7 0.310055 0.956033 0.633208
O O8 0.944501 0.190092 0.567740
O O9 0.250000 0.250000 0.000000
O O10 0.631043 0.941582 0.318487
O O11 0.500000 0.000000 0.000000
#
# Coordination Sequence:
#
# PCOD9297273 Si02
#       6
#     8   8   4   8   4   8
#     4  11  24  41  68  91 134 163 218 266 320 383
#     4  11  25  41  65  94 130 167 213 267 318 382
#     4  12  26  38  63  98 125 166 214 260 332 368
#     4  12  22  40  64  98 121 167 214 269 312 383
#     4  10  24  38  63 102 119 178 206 258 326 384
#     4  11  22  40  65  96 123 168 220 261 309 390
#
# _framework density 19.643443000000001
#
# number of rings (size 3 to 8) (size 9 to 14) (size 15 to 20)
#    0.000    0.800    6.000    0.000    8.400    1.600 
#    0.000    0.000    0.000    0.000    0.000    0.000 
#    0.000    0.000    0.000    0.000    0.000    0.000 
#
# Total GULP energy -111448.957116 kJ/mol
# GULP energy per Si atom -5572.447856 kJ/mol
# Density = 1.959873 g / cm^3
# Si number density = 19.643443 Si / 1000 Ang^3
#
#
#
# Elastic Constant Matrix: (Units=GPa)
#
#
# Indices 1 2 3 4 5 6 
#
# 1 53.7149 45.5544 51.5703 0.0000 -9.1692 0.0000
# 2 45.5544 129.6216 70.8473 0.0000 1.0734 0.0000
# 3 51.5703 70.8473 99.4731 0.0000 1.3905 0.0000
# 4 0.0000 0.0000 0.0000 51.2412 0.0000 -5.3100
# 5 -9.1692 1.0734 1.3905 0.0000 27.0312 0.0000
# 6 0.0000 0.0000 0.0000 -5.3100 0.0000 46.6604
#
#
#
# Elastic Compliance Matrix: (Units=1/GPa)
#
#
# Indices 1 2 3 4 5 6 
#
# 1 0.044708 -0.005001 -0.019845 0.000000 0.016385 0.000000
# 2 -0.005001 0.013192 -0.006777 0.000000 -0.001872 0.000000
# 3 -0.019845 -0.006777 0.025277 0.000000 -0.007763 0.000000
# 4 0.000000 0.000000 0.000000 0.019748 0.000000 0.002247
# 5 0.016385 -0.001872 -0.007763 0.000000 0.043026 0.000000
# 6 0.000000 0.000000 0.000000 0.002247 0.000000 0.021687
#
#
# Mechanical properties :
#
#
# Convention : Reuss Voigt Hill
#
# Bulk Modulus (GPa) = 50.17512 68.75040 59.46276
# Shear Modulus (GPa) = 21.05023 32.64239 26.84631
#
# Velocity S-wave (km/s) = 3.27711 4.08087 3.70087
# Velocity P-wave (km/s) = 6.31804 7.56834 6.97128
#
# Compressibility (1/GPa) = 0.01993020
#
# Stress axis : x y z
#
# Youngs Moduli (GPa) = 22.36738 75.80505 39.56242
#
# Poissons Ratio (x) = 0.37910 0.78513
# Poissons Ratio (y) = 0.11186 0.26810
# Poissons Ratio (z) = 0.44389 0.51370
#
# Static dielectric constant tensor:
#      x y z
#    x 1.751000 0.000000 0.041570 
#    y 0.000000 1.800600 0.000000 
#    z 0.041570 0.000000 1.879260 
# 
# From -- ./inp_files/42456.got.cif
#   From: 2010.05.17/outbox.cif.g08.bks.cpg/sg15_22_cif.got.tgz:42456.got - 2010.06.03 18:47:42.
