data_PCOD9297524
_publ_section_title
;
Structure prediction by ZEFSAII (Michael W. Deem and Ramdas Pophale) SiO2 
 PCOD9297524
Probable space group: C 2/C
;
_chemical_formula_sum "Si O2"
_cell_formula_units_Z 56
_cell_length_a 17.147422
_cell_length_b 22.980414
_cell_length_c 8.335462
_cell_angle_alpha 90.000000
_cell_angle_beta 130.364874
_cell_angle_gamma 90.000000
_cell_volume 2502.675667
_symmetry_space_group_name_H-M "C 2/C"
_symmetry_group_IT_number 15
_symmetry_cell_setting 'monoclinic'
loop_
_space_group_symop_operation_xyz
x,y,z
-x,y,1/2-z
-x,-y,-z
x,-y,1/2+z
1/2+x,1/2+y,z
1/2-x,1/2+y,1/2-z
1/2-x,1/2-y,-z
1/2+x,1/2-y,1/2+z
loop_
_atom_site_type_symbol
_atom_site_label
_atom_site_fract_x
_atom_site_fract_y
_atom_site_fract_z
Si Si1 0.787856 0.084234 0.297312
Si Si2 0.939568 0.634057 0.502901
Si Si3 0.758697 0.805033 0.275306
Si Si4 0.869571 0.195910 0.261918
Si Si5 0.732195 0.007005 0.487336
Si Si6 0.060887 0.757316 0.161833
Si Si7 0.626744 0.921833 0.093937
O O1 0.858463 0.137462 0.348823
O O2 0.792582 0.058281 0.480001
O O3 0.670728 0.106225 0.111449
O O4 0.802113 0.029337 0.200464
O O5 0.000000 0.648283 0.750000
O O6 0.923225 0.690723 0.371238
O O7 0.014262 0.591088 0.507285
O O8 0.824504 0.815454 0.525424
O O9 0.694982 0.747405 0.238283
O O10 0.683760 0.859611 0.149362
O O11 0.832244 0.790843 0.222915
O O12 0.984791 0.216898 0.426735
O O13 0.639660 0.038988 0.454883
O O14 0.686970 0.960289 0.304448
O O15 0.000000 0.760945 0.250000
#
# Coordination Sequence:
#
# PCOD9297524 Si02
#       7
#     8   8   8   8   8   8   8
#     4  11  23  40  66  93 132 171 215 258 317 374
#     4  12  22  39  62  95 134 171 210 253 315 397
#     4  11  22  42  69  94 126 169 210 264 324 379
#     4  11  22  42  69  94 126 169 210 264 324 379
#     4  10  24  41  60  95 130 176 216 257 306 383
#     4  12  28  40  63 100 132 165 208 266 331 378
#     4  11  23  40  66  93 132 171 215 258 317 374
#
# _framework density 22.376052999999999
#
# number of rings (size 3 to 8) (size 9 to 14) (size 15 to 20)
#    0.000    0.857    5.714    1.286    4.000    4.000 
#    0.000    0.000    0.000    5.143    0.000    0.000 
#    0.000    0.000    0.000    0.000    0.000    0.000 
#
# Total GULP energy -156674.849856 kJ/mol
# GULP energy per Si atom -5595.530352 kJ/mol
# Density = 2.232512 g / cm^3
# Si number density = 22.376053 Si / 1000 Ang^3
#
#
#
# Elastic Constant Matrix: (Units=GPa)
#
#
# Indices 1 2 3 4 5 6 
#
# 1 78.1409 22.7851 2.7792 0.0000 -21.5010 0.0000
# 2 22.7851 95.5468 3.3979 0.0000 -18.4762 0.0000
# 3 2.7792 3.3979 29.1295 0.0000 -7.0158 0.0000
# 4 0.0000 0.0000 0.0000 4.3881 0.0000 -11.7119
# 5 -21.5010 -18.4762 -7.0158 0.0000 27.0614 0.0000
# 6 0.0000 0.0000 0.0000 -11.7119 0.0000 35.3778
#
#
#
# Elastic Compliance Matrix: (Units=1/GPa)
#
#
# Indices 1 2 3 4 5 6 
#
# 1 0.016665 -0.001601 0.001624 0.000000 0.012568 0.000000
# 2 -0.001601 0.012222 0.000459 0.000000 0.007191 0.000000
# 3 0.001624 0.000459 0.036805 0.000000 0.011146 0.000000
# 4 0.000000 0.000000 0.000000 1.957438 0.000000 0.648015
# 5 0.012568 0.007191 0.011146 0.000000 0.054739 0.000000
# 6 0.000000 0.000000 0.000000 0.648015 0.000000 0.242794
#
#
# Mechanical properties :
#
#
# Convention : Reuss Voigt Hill
#
# Bulk Modulus (GPa) = 15.00245 28.97129 21.98687
# Shear Modulus (GPa) = 2.13500 24.95580 13.54540
#
# Velocity S-wave (km/s) = 0.97786 3.34322 2.46306
# Velocity P-wave (km/s) = 2.82740 5.28000 4.23513
#
# Compressibility (1/GPa) = 0.06665576
#
# Stress axis : x y z
#
# Youngs Moduli (GPa) = 60.00650 81.81778 27.16994
#
# Poissons Ratio (x) = 0.13103 -0.04412
# Poissons Ratio (y) = 0.09610 -0.01248
# Poissons Ratio (z) = -0.09745 -0.03757
#
# Static dielectric constant tensor:
#      x y z
#    x 1.827680 0.000000 -0.051730 
#    y 0.000000 1.787130 0.000000 
#    z -0.051730 0.000000 1.882440 
# 
# From -- ./inp_files/42542.got.cif
#   From: 2010.05.17/outbox.cif.g08.bks.cpg/sg15_22_cif.got.tgz:42542.got - 2010.06.03 18:47:42.
