data_PCOD9297726
_publ_section_title
;
Structure prediction by ZEFSAII (Michael W. Deem and Ramdas Pophale) SiO2 
 PCOD9297726
Probable space group: C 2/C
;
_chemical_formula_sum "Si O2"
_cell_formula_units_Z 40
_cell_length_a 19.533268
_cell_length_b 6.729527
_cell_length_c 16.239979
_cell_angle_alpha 90.000000
_cell_angle_beta 122.612747
_cell_angle_gamma 90.000000
_cell_volume 1798.160593
_symmetry_space_group_name_H-M "C 2/C"
_symmetry_group_IT_number 15
_symmetry_cell_setting 'monoclinic'
loop_
_space_group_symop_operation_xyz
x,y,z
-x,y,1/2-z
-x,-y,-z
x,-y,1/2+z
1/2+x,1/2+y,z
1/2-x,1/2+y,1/2-z
1/2-x,1/2-y,-z
1/2+x,1/2-y,1/2+z
loop_
_atom_site_type_symbol
_atom_site_label
_atom_site_fract_x
_atom_site_fract_y
_atom_site_fract_z
Si Si1 0.462848 0.880895 0.897434
Si Si2 0.335318 0.520711 0.814967
Si Si3 0.132273 0.228696 0.000654
Si Si4 0.729349 0.977275 0.483677
Si Si5 0.161473 0.360539 0.270990
O O1 0.392727 0.713324 0.860126
O O2 0.421498 0.051026 0.817130
O O3 0.540829 0.763397 0.913999
O O4 0.500000 0.000000 0.000000
O O5 0.361753 0.377048 0.907731
O O6 0.242220 0.584921 0.770214
O O7 0.342665 0.380092 0.738996
O O8 0.188245 0.099849 0.976023
O O9 0.177841 0.440577 0.026068
O O10 0.750000 0.750000 0.500000
O O11 0.676555 0.977767 0.365894
#
# Coordination Sequence:
#
# PCOD9297726 Si02
#       5
#     8   8   8   8   8
#     4  12  25  40  70 102 138 173 228 290 342 396
#     4  11  23  41  68 102 133 178 228 282 338 399
#     4  10  24  42  65  99 132 175 226 273 335 408
#     4  10  25  44  69  92 138 186 219 272 349 410
#     4  11  24  40  68  99 133 176 232 274 340 412
#
# _framework density 22.244955000000001
#
# number of rings (size 3 to 8) (size 9 to 14) (size 15 to 20)
#    0.000    1.200    4.000    0.600    8.400    2.400 
#    0.000    0.000    0.000    0.000    0.000    0.000 
#    0.000    0.000    0.000    0.000    0.000    0.000 
#
# Total GULP energy -111643.926817 kJ/mol
# GULP energy per Si atom -5582.196341 kJ/mol
# Density = 2.219432 g / cm^3
# Si number density = 22.244955 Si / 1000 Ang^3
#
#
#
# Elastic Constant Matrix: (Units=GPa)
#
#
# Indices 1 2 3 4 5 6 
#
# 1 40.5325 1.7438 16.2972 0.0000 16.3090 0.0000
# 2 1.7438 92.5364 9.8808 0.0000 3.4948 0.0000
# 3 16.2972 9.8808 89.8931 0.0000 28.9698 0.0000
# 4 0.0000 0.0000 0.0000 50.4854 0.0000 13.7906
# 5 16.3090 3.4948 28.9698 0.0000 30.8244 0.0000
# 6 0.0000 0.0000 0.0000 13.7906 0.0000 21.5223
#
#
#
# Elastic Compliance Matrix: (Units=1/GPa)
#
#
# Indices 1 2 3 4 5 6 
#
# 1 0.031360 0.000071 -0.000493 0.000000 -0.016137 0.000000
# 2 0.000071 0.010936 -0.001152 0.000000 -0.000195 0.000000
# 3 -0.000493 -0.001152 0.016086 0.000000 -0.014727 0.000000
# 4 0.000000 0.000000 0.000000 0.024010 0.000000 -0.015385
# 5 -0.016137 -0.000195 -0.014727 0.000000 0.054843 0.000000
# 6 0.000000 0.000000 0.000000 -0.015385 0.000000 0.056321
#
#
# Mechanical properties :
#
#
# Convention : Reuss Voigt Hill
#
# Bulk Modulus (GPa) = 18.10469 30.97840 24.54155
# Shear Modulus (GPa) = 23.24332 33.56908 28.40620
#
# Velocity S-wave (km/s) = 3.23597 3.88888 3.57735
# Velocity P-wave (km/s) = 4.70302 5.84130 5.30279
#
# Compressibility (1/GPa) = 0.05523431
#
# Stress axis : x y z
#
# Youngs Moduli (GPa) = 31.88804 91.44450 62.16415
#
# Poissons Ratio (x) = -0.00650 0.03062
# Poissons Ratio (y) = -0.00227 0.07162
# Poissons Ratio (z) = 0.01571 0.10536
#
# Static dielectric constant tensor:
#      x y z
#    x 1.930310 0.000000 -0.380860 
#    y 0.000000 2.068950 0.000000 
#    z -0.380860 0.000000 2.961910 
# 
# From -- ./inp_files/217286.got.cif
#   From: 2010.05.17/outbox.cif.g08.bks.cpg/sg15_109_cif.got.tgz:217286.got - 2010.06.03 18:47:42.
