data_PCOD9297034
_publ_section_title
;
Structure prediction by ZEFSAII (Michael W. Deem and Ramdas Pophale) SiO2 
 PCOD9297034
Probable space group: C 2/C
;
_chemical_formula_sum "Si O2"
_cell_formula_units_Z 44
_cell_length_a 8.884868
_cell_length_b 14.759404
_cell_length_c 13.284486
_cell_angle_alpha 90.000000
_cell_angle_beta 69.843140
_cell_angle_gamma 90.000000
_cell_volume 1635.369054
_symmetry_space_group_name_H-M "C 2/C"
_symmetry_group_IT_number 15
_symmetry_cell_setting 'monoclinic'
loop_
_space_group_symop_operation_xyz
x,y,z
-x,y,1/2-z
-x,-y,-z
x,-y,1/2+z
1/2+x,1/2+y,z
1/2-x,1/2+y,1/2-z
1/2-x,1/2-y,-z
1/2+x,1/2-y,1/2+z
loop_
_atom_site_type_symbol
_atom_site_label
_atom_site_fract_x
_atom_site_fract_y
_atom_site_fract_z
Si Si1 0.750000 0.250000 0.500000
Si Si2 0.284856 0.408485 0.324035
Si Si3 0.064339 0.422282 0.122016
Si Si4 0.599118 0.682766 0.515439
Si Si5 0.199937 0.732852 0.321433
Si Si6 0.257322 0.569535 0.183697
O O1 0.809269 0.356659 0.457769
O O2 0.662283 0.282175 0.630284
O O3 0.394257 0.387500 0.394081
O O4 0.291103 0.315207 0.257657
O O5 0.321310 0.493138 0.244354
O O6 0.101245 0.423967 0.400635
O O7 0.148713 0.516872 0.128025
O O8 0.000000 0.395251 0.250000
O O9 0.750000 0.750000 0.500000
O O10 0.431712 0.738171 0.560446
O O11 0.620914 0.629358 0.408371
O O12 0.161251 0.643008 0.271356
#
# Coordination Sequence:
#
# PCOD9297034 Si02
#       6
#     4   8   8   8   8   8
#     4  12  24  46  78 108 146 202 246 320 378 442
#     4  11  25  47  73 110 150 195 252 309 372 451
#     4  10  23  47  71 106 149 191 253 300 375 454
#     4  12  27  46  76 112 148 204 247 313 380 446
#     4  12  27  48  75 111 154 194 257 319 374 452
#     4  11  27  48  76 111 152 200 255 310 379 460
#
# _framework density 26.905242999999999
#
# number of rings (size 3 to 8) (size 9 to 14) (size 15 to 20)
#    0.000    0.727    5.455    1.636   10.182    1.455 
#    0.000    1.818    0.000    0.000    0.000    0.000 
#    0.000    0.000    0.000    0.000    0.000    0.000 
#
# Total GULP energy -122855.050989 kJ/mol
# GULP energy per Si atom -5584.320499 kJ/mol
# Density = 2.684401 g / cm^3
# Si number density = 26.905243 Si / 1000 Ang^3
#
#
#
# Elastic Constant Matrix: (Units=GPa)
#
#
# Indices 1 2 3 4 5 6 
#
# 1 104.9185 57.2773 25.4537 0.0000 -7.7472 0.0000
# 2 57.2773 200.6147 77.4350 0.0000 -9.8321 0.0000
# 3 25.4537 77.4350 137.3644 0.0000 11.0291 0.0000
# 4 0.0000 0.0000 0.0000 88.6674 0.0000 3.9372
# 5 -7.7472 -9.8321 11.0291 0.0000 40.5661 0.0000
# 6 0.0000 0.0000 0.0000 3.9372 0.0000 34.3156
#
#
#
# Elastic Compliance Matrix: (Units=1/GPa)
#
#
# Indices 1 2 3 4 5 6 
#
# 1 0.011403 -0.002953 -0.000578 0.000000 0.001619 0.000000
# 2 -0.002953 0.007411 -0.003812 0.000000 0.002269 0.000000
# 3 -0.000578 -0.003812 0.009834 0.000000 -0.003708 0.000000
# 4 0.000000 0.000000 0.000000 0.011336 0.000000 -0.001301
# 5 0.001619 0.002269 -0.003708 0.000000 0.026518 0.000000
# 6 0.000000 0.000000 0.000000 -0.001301 0.000000 0.029291
#
#
# Mechanical properties :
#
#
# Convention : Reuss Voigt Hill
#
# Bulk Modulus (GPa) = 71.63310 84.80331 78.21820
# Shear Modulus (GPa) = 43.42783 51.55858 47.49320
#
# Velocity S-wave (km/s) = 4.02195 4.38231 4.20599
# Velocity P-wave (km/s) = 6.94623 7.56266 7.26099
#
# Compressibility (1/GPa) = 0.01396003
#
# Stress axis : x y z
#
# Youngs Moduli (GPa) = 87.69424 134.94242 101.68888
#
# Poissons Ratio (x) = 0.39851 0.05880
# Poissons Ratio (y) = 0.25898 0.38768
# Poissons Ratio (z) = 0.05071 0.51446
#
# Static dielectric constant tensor:
#      x y z
#    x 6.580780 0.000000 1.631890 
#    y 0.000000 2.152190 0.000000 
#    z 1.631890 0.000000 2.777030 
# 
# From -- ./inp_files/143370.got.cif
#   From: 2010.05.17/outbox.cif.g08.bks.cpg/sg15_72_cif.got.tgz:143370.got - 2010.06.03 18:47:42.
