data_PCOD9297516
_publ_section_title
;
Structure prediction by ZEFSAII (Michael W. Deem and Ramdas Pophale) SiO2 
 PCOD9297516
Probable space group: C 2/C
;
_chemical_formula_sum "Si O2"
_cell_formula_units_Z 28
_cell_length_a 14.419543
_cell_length_b 13.942053
_cell_length_c 8.835550
_cell_angle_alpha 90.000000
_cell_angle_beta 142.976885
_cell_angle_gamma 90.000000
_cell_volume 1069.565170
_symmetry_space_group_name_H-M "C 2/C"
_symmetry_group_IT_number 15
_symmetry_cell_setting 'monoclinic'
loop_
_space_group_symop_operation_xyz
x,y,z
-x,y,1/2-z
-x,-y,-z
x,-y,1/2+z
1/2+x,1/2+y,z
1/2-x,1/2+y,1/2-z
1/2-x,1/2-y,-z
1/2+x,1/2-y,1/2+z
loop_
_atom_site_type_symbol
_atom_site_label
_atom_site_fract_x
_atom_site_fract_y
_atom_site_fract_z
Si Si1 0.341531 0.494271 0.497701
Si Si2 0.329772 0.883564 0.960387
Si Si3 0.319184 0.314213 0.287224
Si Si4 0.500000 0.213858 0.250000
O O1 0.271990 0.436014 0.546792
O O2 0.217226 0.563531 0.257591
O O3 0.388832 0.410026 0.444169
O O4 0.500000 0.544793 0.750000
O O5 0.303672 0.771316 0.889387
O O6 0.500000 0.892966 0.250000
O O7 0.420652 0.272203 0.283423
O O8 0.145916 0.341021 0.009395
#
# Coordination Sequence:
#
# PCOD9297516 Si02
#       4
#     8   8   8   4
#     4  12  27  46  72 105 144 183 235 287 352 416
#     4  12  27  46  72 105 144 183 235 287 352 416
#     4  11  24  45  74  97 146 180 238 279 357 406
#     4  10  24  40  76 104 132 182 238 288 342 406
#
# _framework density 26.178863
#
# number of rings (size 3 to 8) (size 9 to 14) (size 15 to 20)
#    0.000    0.571    0.000    6.857   12.000    0.000 
#    0.000    0.000    0.000    0.000    0.000    0.000 
#    0.000    0.000    0.000    0.000    0.000    0.000 
#
# Total GULP energy -78546.454715 kJ/mol
# GULP energy per Si atom -5610.461051 kJ/mol
# Density = 2.611928 g / cm^3
# Si number density = 26.178863 Si / 1000 Ang^3
#
#
#
# Elastic Constant Matrix: (Units=GPa)
#
#
# Indices 1 2 3 4 5 6 
#
# 1 71.5781 -5.8685 43.8790 0.0000 -10.1636 0.0000
# 2 -5.8685 120.3963 53.1003 0.0000 -19.1328 0.0000
# 3 43.8790 53.1003 223.2990 0.0000 29.3508 0.0000
# 4 0.0000 0.0000 0.0000 -28.2492 0.0000 -27.4795
# 5 -10.1636 -19.1328 29.3508 0.0000 43.0214 0.0000
# 6 0.0000 0.0000 0.0000 -27.4795 0.0000 32.2954
#
#
#
# Elastic Compliance Matrix: (Units=1/GPa)
#
#
# Indices 1 2 3 4 5 6 
#
# 1 0.020639 0.006150 -0.007161 0.000000 0.012496 0.000000
# 2 0.006150 0.012900 -0.005735 0.000000 0.011103 0.000000
# 3 -0.007161 -0.005735 0.008576 0.000000 -0.010093 0.000000
# 4 0.000000 0.000000 0.000000 -0.019368 0.000000 -0.016480
# 5 0.012496 0.011103 -0.010093 0.000000 0.038020 0.000000
# 6 0.000000 0.000000 0.000000 -0.016480 0.000000 0.016942
#
#
# Mechanical properties :
#
#
# Convention : Reuss Voigt Hill
#
# Bulk Modulus (GPa) = 34.93754 66.38835 50.66294
# Shear Modulus (GPa) = 49.63247 31.02434 40.32840
#
# Velocity S-wave (km/s) = 4.35892 3.44625 3.92917
# Velocity P-wave (km/s) = 6.22159 6.42262 6.32291
#
# Compressibility (1/GPa) = 0.02862251
#
# Stress axis : x y z
#
# Youngs Moduli (GPa) = 48.45207 77.52198 116.60600
#
# Poissons Ratio (x) = -0.47676 0.83497
# Poissons Ratio (y) = -0.29798 0.66877
# Poissons Ratio (z) = 0.34695 0.44461
#
# Static dielectric constant tensor:
#      x y z
#    x 2.060220 0.000000 -0.043470 
#    y 0.000000 1.970760 0.000000 
#    z -0.043470 0.000000 2.125700 
# 
# From -- ./inp_files/21560.got.cif
#   From: 2010.05.17/outbox.cif.g08.bks.cpg/sg15_11_cif.got.tgz:21560.got - 2010.06.03 18:47:42.
