data_PCOD9297395
_publ_section_title
;
Structure prediction by ZEFSAII (Michael W. Deem and Ramdas Pophale) SiO2 
 PCOD9297395
Probable space group: C 2/C
;
_chemical_formula_sum "Si O2"
_cell_formula_units_Z 40
_cell_length_a 17.486140
_cell_length_b 20.936367
_cell_length_c 5.042514
_cell_angle_alpha 90.000000
_cell_angle_beta 87.753409
_cell_angle_gamma 90.000000
_cell_volume 1844.626513
_symmetry_space_group_name_H-M "C 2/C"
_symmetry_group_IT_number 15
_symmetry_cell_setting 'monoclinic'
loop_
_space_group_symop_operation_xyz
x,y,z
-x,y,1/2-z
-x,-y,-z
x,-y,1/2+z
1/2+x,1/2+y,z
1/2-x,1/2+y,1/2-z
1/2-x,1/2-y,-z
1/2+x,1/2-y,1/2+z
loop_
_atom_site_type_symbol
_atom_site_label
_atom_site_fract_x
_atom_site_fract_y
_atom_site_fract_z
Si Si1 0.772908 0.179800 0.080389
Si Si2 0.054599 0.697669 0.492048
Si Si3 0.165319 0.039557 0.038356
Si Si4 0.089042 0.836294 0.297359
Si Si5 0.702721 0.122157 0.588720
O O1 0.859417 0.167912 0.975322
O O2 0.722060 0.135016 0.893108
O O3 0.750000 0.250000 0.000000
O O4 0.751085 0.168688 0.385834
O O5 0.095059 0.766246 0.433043
O O6 0.116456 0.642170 0.537197
O O7 0.000000 0.705330 0.750000
O O8 0.000000 0.684008 0.250000
O O9 0.119349 0.102356 0.953340
O O10 0.147685 0.983078 0.835195
O O11 0.255820 0.056150 0.992773
O O12 0.000000 0.844753 0.250000
#
# Coordination Sequence:
#
# PCOD9297395 Si02
#       5
#     8   8   8   8   8
#     4  11  21  36  63  92 126 168 207 253 317 384
#     4  11  24  39  64 101 135 160 198 261 345 401
#     4  11  25  44  64  89 121 177 232 262 299 362
#     4  10  24  40  63  96 136 169 204 264 323 384
#     4  11  23  41  66  91 128 164 216 271 317 378
#
# _framework density 21.684605000000001
#
# number of rings (size 3 to 8) (size 9 to 14) (size 15 to 20)
#    0.000    1.200    2.000    4.200    5.600    4.000 
#    0.000    0.000    0.000    3.600    0.000    0.000 
#    0.000    0.000    0.000    0.000    0.000    0.000 
#
# Total GULP energy -111782.505165 kJ/mol
# GULP energy per Si atom -5589.125258 kJ/mol
# Density = 2.163525 g / cm^3
# Si number density = 21.684605 Si / 1000 Ang^3
#
#
#
# Elastic Constant Matrix: (Units=GPa)
#
#
# Indices 1 2 3 4 5 6 
#
# 1 124.4328 25.3066 21.0968 0.0000 3.9779 0.0000
# 2 25.3066 45.2662 5.7155 0.0000 11.1943 0.0000
# 3 21.0968 5.7155 67.2889 0.0000 -0.1604 0.0000
# 4 0.0000 0.0000 0.0000 36.9300 0.0000 -0.7532
# 5 3.9779 11.1943 -0.1604 0.0000 29.6385 0.0000
# 6 0.0000 0.0000 0.0000 -0.7532 0.0000 53.7475
#
#
#
# Elastic Compliance Matrix: (Units=1/GPa)
#
#
# Indices 1 2 3 4 5 6 
#
# 1 0.009493 -0.005149 -0.002537 0.000000 0.000657 0.000000
# 2 -0.005149 0.027459 -0.000741 0.000000 -0.009684 0.000000
# 3 -0.002537 -0.000741 0.015721 0.000000 0.000705 0.000000
# 4 0.000000 0.000000 0.000000 0.027086 0.000000 0.000380
# 5 0.000657 -0.009684 0.000705 0.000000 0.037313 0.000000
# 6 0.000000 0.000000 0.000000 0.000380 0.000000 0.018611
#
#
# Mechanical properties :
#
#
# Convention : Reuss Voigt Hill
#
# Bulk Modulus (GPa) = 27.91901 37.91396 32.91649
# Shear Modulus (GPa) = 30.39934 36.38780 33.39357
#
# Velocity S-wave (km/s) = 3.74824 4.10084 3.92850
# Velocity P-wave (km/s) = 5.62453 6.32019 5.98248
#
# Compressibility (1/GPa) = 0.03581789
#
# Stress axis : x y z
#
# Youngs Moduli (GPa) = 105.34223 36.41842 63.60743
#
# Poissons Ratio (x) = 0.18753 0.16139
# Poissons Ratio (y) = 0.54243 0.04713
# Poissons Ratio (z) = 0.26729 0.02699
#
# Static dielectric constant tensor:
#      x y z
#    x 1.814350 0.000000 0.030310 
#    y 0.000000 1.801400 0.000000 
#    z 0.030310 0.000000 1.776050 
# 
# From -- ./inp_files/10184.got.cif
#   From: 2010.05.17/outbox.cif.g08.bks.cpg/sg15_6_cif.got.tgz:10184.got - 2010.06.03 18:47:42.
