data_PCOD9297001
_publ_section_title
;
Structure prediction by ZEFSAII (Michael W. Deem and Ramdas Pophale) SiO2 
 PCOD9297001
Probable space group: C 2/C
;
_chemical_formula_sum "Si O2"
_cell_formula_units_Z 32
_cell_length_a 9.801131
_cell_length_b 28.766455
_cell_length_c 8.052764
_cell_angle_alpha 90.000000
_cell_angle_beta 147.238711
_cell_angle_gamma 90.000000
_cell_volume 1228.619165
_symmetry_space_group_name_H-M "C 2/C"
_symmetry_group_IT_number 15
_symmetry_cell_setting 'monoclinic'
loop_
_space_group_symop_operation_xyz
x,y,z
-x,y,1/2-z
-x,-y,-z
x,-y,1/2+z
1/2+x,1/2+y,z
1/2-x,1/2+y,1/2-z
1/2-x,1/2-y,-z
1/2+x,1/2-y,1/2+z
loop_
_atom_site_type_symbol
_atom_site_label
_atom_site_fract_x
_atom_site_fract_y
_atom_site_fract_z
Si Si1 0.500000 0.720720 0.250000
Si Si2 0.826534 0.843385 0.328669
Si Si3 0.500000 0.110679 0.750000
Si Si4 0.328477 0.430426 0.858989
Si Si5 0.500000 0.783703 0.750000
Si Si6 0.000000 0.998405 0.750000
O O1 0.750000 0.750000 0.500000
O O2 0.492241 0.696881 0.424470
O O3 0.722636 0.859228 0.403053
O O4 0.993755 0.885661 0.428606
O O5 0.599167 0.821125 0.991381
O O6 0.413081 0.083460 0.496706
O O7 0.468122 0.463335 0.868635
O O8 0.289066 0.464036 0.976222
O O9 0.250000 0.750000 0.500000
#
# Coordination Sequence:
#
# PCOD9297001 Si02
#       6
#     4   8   4   8   4   4
#     4  12  24  42  74 106 140 190 242 308 369 445
#     4  12  26  47  72 106 150 194 250 308 389 452
#     4  12  23  44  73 105 140 202 249 299 382 457
#     4  11  24  46  70 108 145 201 243 318 371 459
#     4  12  32  53  77 116 154 198 256 322 382 460
#     4  10  23  47  68 103 158 184 263 305 377 444
#
# _framework density 26.045499
#
# number of rings (size 3 to 8) (size 9 to 14) (size 15 to 20)
#    0.000    0.500    5.000    2.250    7.000    1.000 
#    0.000    0.000    0.000    0.000    0.000    0.000 
#    0.000    0.000    0.000    0.000    0.000    0.000 
#
# Total GULP energy -89241.754841 kJ/mol
# GULP energy per Si atom -5577.609678 kJ/mol
# Density = 2.598622 g / cm^3
# Si number density = 26.045499 Si / 1000 Ang^3
#
#
#
# Elastic Constant Matrix: (Units=GPa)
#
#
# Indices 1 2 3 4 5 6 
#
# 1 44.8535 37.9920 37.5988 0.0000 1.6899 0.0000
# 2 37.9920 119.9779 76.1148 0.0000 -7.7450 0.0000
# 3 37.5988 76.1148 201.5105 0.0000 -7.9844 0.0000
# 4 0.0000 0.0000 0.0000 18.1895 0.0000 32.9719
# 5 1.6899 -7.7450 -7.9844 0.0000 42.7690 0.0000
# 6 0.0000 0.0000 0.0000 32.9719 0.0000 -96.8913
#
#
#
# Elastic Compliance Matrix: (Units=1/GPa)
#
#
# Indices 1 2 3 4 5 6 
#
# 1 0.032079 -0.008539 -0.002893 0.000000 -0.003354 0.000000
# 2 -0.008539 0.013298 -0.003346 0.000000 0.002121 0.000000
# 3 -0.002893 -0.003346 0.006797 0.000000 0.000777 0.000000
# 4 0.000000 0.000000 0.000000 0.034002 0.000000 0.011571
# 5 -0.003354 0.002121 0.000777 0.000000 0.024043 0.000000
# 6 0.000000 0.000000 0.000000 0.011571 0.000000 -0.006383
#
#
# Mechanical properties :
#
#
# Convention : Reuss Voigt Hill
#
# Bulk Modulus (GPa) = 44.21169 74.41700 59.31435
# Shear Modulus (GPa) = 35.47807 7.12252 21.30030
#
# Velocity S-wave (km/s) = 3.69475 1.65547 2.86284
# Velocity P-wave (km/s) = 5.93407 5.68226 5.80953
#
# Compressibility (1/GPa) = 0.02261845
#
# Stress axis : x y z
#
# Youngs Moduli (GPa) = 31.17285 75.19703 147.12727
#
# Poissons Ratio (x) = 0.64214 0.42562
# Poissons Ratio (y) = 0.26620 0.49225
# Poissons Ratio (z) = 0.09018 0.25159
#
# Static dielectric constant tensor:
#      x y z
#    x 2.287880 0.000000 -0.019980 
#    y 0.000000 2.367340 0.000000 
#    z -0.019980 0.000000 2.274850 
# 
# From -- ./inp_files/2431.got.cif
#   From: 2010.05.17/outbox.cif.g08.bks.cpg/sg15_2_cif.got.tgz:2431.got - 2010.06.03 18:47:42.
