data_PCOD9297480
_publ_section_title
;
Structure prediction by ZEFSAII (Michael W. Deem and Ramdas Pophale) SiO2 
 PCOD9297480
Probable space group: C 2/C
;
_chemical_formula_sum "Si O2"
_cell_formula_units_Z 48
_cell_length_a 22.925496
_cell_length_b 5.376031
_cell_length_c 19.238744
_cell_angle_alpha 90.000000
_cell_angle_beta 100.667396
_cell_angle_gamma 90.000000
_cell_volume 2330.162774
_symmetry_space_group_name_H-M "C 2/C"
_symmetry_group_IT_number 15
_symmetry_cell_setting 'monoclinic'
loop_
_space_group_symop_operation_xyz
x,y,z
-x,y,1/2-z
-x,-y,-z
x,-y,1/2+z
1/2+x,1/2+y,z
1/2-x,1/2+y,1/2-z
1/2-x,1/2-y,-z
1/2+x,1/2-y,1/2+z
loop_
_atom_site_type_symbol
_atom_site_label
_atom_site_fract_x
_atom_site_fract_y
_atom_site_fract_z
Si Si1 0.879798 0.168132 0.377966
Si Si2 0.376302 0.699878 0.664262
Si Si3 0.570184 0.803114 0.258712
Si Si4 0.544820 0.701715 0.541609
Si Si5 0.749966 0.280595 0.704075
Si Si6 0.077472 0.602284 0.466491
O O1 0.908495 0.284273 0.315961
O O2 0.809670 0.175444 0.353067
O O3 0.900777 0.293148 0.454255
O O4 0.909051 0.895692 0.392142
O O5 0.399365 0.428823 0.693429
O O6 0.307910 0.728032 0.671066
O O7 0.387751 0.762976 0.586244
O O8 0.410919 0.927115 0.709130
O O9 0.500000 0.772346 0.250000
O O10 0.500000 0.500000 0.500000
O O11 0.493709 0.875580 0.563093
O O12 0.581367 0.810236 0.484379
O O13 0.759159 0.533674 0.750616
#
# Coordination Sequence:
#
# PCOD9297480 Si02
#       6
#     8   8   8   8   8   8
#     4  11  24  42  72  96 137 187 237 273 360 413
#     4  12  26  47  68 104 143 181 233 300 345 412
#     4  12  27  43  71 104 141 182 236 288 354 422
#     4   9  21  41  66  98 140 178 222 281 356 418
#     4  12  25  49  70  98 141 191 236 292 344 416
#     4  10  24  40  70 102 141 177 233 291 358 412
#
# _framework density 20.599416999999999
#
# number of rings (size 3 to 8) (size 9 to 14) (size 15 to 20)
#    0.000    1.000    3.333    1.500   16.333    0.667 
#    0.000    0.833    0.000    0.000    0.000    0.000 
#    0.000    0.000    0.000    0.000    0.000    0.000 
#
# Total GULP energy -133901.122716 kJ/mol
# GULP energy per Si atom -5579.213447 kJ/mol
# Density = 2.055253 g / cm^3
# Si number density = 20.599417 Si / 1000 Ang^3
#
#
#
# Elastic Constant Matrix: (Units=GPa)
#
#
# Indices 1 2 3 4 5 6 
#
# 1 139.0641 -3.1876 31.6573 0.0000 20.1680 0.0000
# 2 -3.1876 64.0030 10.8265 0.0000 10.0111 0.0000
# 3 31.6573 10.8265 102.0353 0.0000 -7.9363 0.0000
# 4 0.0000 0.0000 0.0000 38.4492 0.0000 1.2567
# 5 20.1680 10.0111 -7.9363 0.0000 41.1062 0.0000
# 6 0.0000 0.0000 0.0000 1.2567 0.0000 22.9176
#
#
#
# Elastic Compliance Matrix: (Units=1/GPa)
#
#
# Indices 1 2 3 4 5 6 
#
# 1 0.008777 0.001847 -0.003339 0.000000 -0.005400 0.000000
# 2 0.001847 0.017070 -0.002820 0.000000 -0.005608 0.000000
# 3 -0.003339 -0.002820 0.011489 0.000000 0.004543 0.000000
# 4 0.000000 0.000000 0.000000 0.026055 0.000000 -0.001429
# 5 -0.005400 -0.005608 0.004543 0.000000 0.029220 0.000000
# 6 0.000000 0.000000 0.000000 -0.001429 0.000000 0.043713
#
#
# Mechanical properties :
#
#
# Convention : Reuss Voigt Hill
#
# Bulk Modulus (GPa) = 34.83025 42.63277 38.73151
# Shear Modulus (GPa) = 32.35834 38.21501 35.28668
#
# Velocity S-wave (km/s) = 3.96768 4.31182 4.14332
# Velocity P-wave (km/s) = 6.15914 6.74760 6.46007
#
# Compressibility (1/GPa) = 0.02871068
#
# Stress axis : x y z
#
# Youngs Moduli (GPa) = 113.93966 58.58061 87.03886
#
# Poissons Ratio (x) = -0.10818 0.29062
# Poissons Ratio (y) = -0.21041 0.24548
# Poissons Ratio (z) = 0.38044 0.16522
#
# Static dielectric constant tensor:
#      x y z
#    x 1.719310 0.000000 -0.028830 
#    y 0.000000 2.011840 0.000000 
#    z -0.028830 0.000000 1.742200 
# 
# From -- ./inp_files/217571.got.cif
#   From: 2010.05.17/outbox.cif.g08.bks.cpg/sg15_109_cif.got.tgz:217571.got - 2010.06.03 18:47:42.
