data_PCOD9297832
_publ_section_title
;
Structure prediction by ZEFSAII (Michael W. Deem and Ramdas Pophale) SiO2 
 PCOD9297832
Probable space group: C 2/C
;
_chemical_formula_sum "Si O2"
_cell_formula_units_Z 44
_cell_length_a 23.209518
_cell_length_b 11.374661
_cell_length_c 7.382850
_cell_angle_alpha 90.000000
_cell_angle_beta 89.446912
_cell_angle_gamma 90.000000
_cell_volume 1948.984536
_symmetry_space_group_name_H-M "C 2/C"
_symmetry_group_IT_number 15
_symmetry_cell_setting 'monoclinic'
loop_
_space_group_symop_operation_xyz
x,y,z
-x,y,1/2-z
-x,-y,-z
x,-y,1/2+z
1/2+x,1/2+y,z
1/2-x,1/2+y,1/2-z
1/2-x,1/2-y,-z
1/2+x,1/2-y,1/2+z
loop_
_atom_site_type_symbol
_atom_site_label
_atom_site_fract_x
_atom_site_fract_y
_atom_site_fract_z
Si Si1 0.012269 0.365091 0.461356
Si Si2 0.698246 0.901852 0.094689
Si Si3 0.565516 0.657717 0.968809
Si Si4 0.500000 0.539664 0.250000
Si Si5 0.147203 0.346201 0.471763
Si Si6 0.687453 0.703743 0.797459
O O1 0.078721 0.339372 0.504601
O O2 0.000000 0.350898 0.250000
O O3 0.000000 0.500000 0.500000
O O4 0.967336 0.280018 0.563222
O O5 0.659287 0.845124 0.255890
O O6 0.762115 0.891259 0.178276
O O7 0.672832 0.028612 0.042374
O O8 0.700980 0.821245 0.915054
O O9 0.532826 0.551277 0.875704
O O10 0.629130 0.660056 0.892201
O O11 0.551254 0.622749 0.175291
O O12 0.176760 0.244708 0.591617
#
# Coordination Sequence:
#
# PCOD9297832 Si02
#       6
#     8   8   8   4   8   8
#     4  12  26  40  71 110 143 185 231 304 370 430
#     4  11  25  43  67 100 138 185 239 287 356 425
#     4  11  23  46  65 102 135 181 236 286 362 422
#     4  10  24  42  68  94 138 182 228 286 348 436
#     4  12  23  45  70 101 144 182 235 298 363 428
#     4  11  25  45  69  97 139 186 239 296 345 434
#
# _framework density 22.575858
#
# number of rings (size 3 to 8) (size 9 to 14) (size 15 to 20)
#    0.000    0.727    2.727    4.909    3.818    1.455 
#    0.000    0.000    0.000    0.000    0.000    0.000 
#    0.000    0.000    0.000    0.000    0.000    0.000 
#
# Total GULP energy -122944.580911 kJ/mol
# GULP energy per Si atom -5588.390041 kJ/mol
# Density = 2.252447 g / cm^3
# Si number density = 22.575858 Si / 1000 Ang^3
#
#
#
# Elastic Constant Matrix: (Units=GPa)
#
#
# Indices 1 2 3 4 5 6 
#
# 1 115.2155 10.8282 -21.1905 0.0000 -9.0744 0.0000
# 2 10.8282 73.0506 -6.8031 0.0000 2.4686 0.0000
# 3 -21.1905 -6.8031 49.8923 0.0000 3.3495 0.0000
# 4 0.0000 0.0000 0.0000 27.1111 0.0000 -2.7267
# 5 -9.0744 2.4686 3.3495 0.0000 40.6016 0.0000
# 6 0.0000 0.0000 0.0000 -2.7267 0.0000 23.1044
#
#
#
# Elastic Compliance Matrix: (Units=1/GPa)
#
#
# Indices 1 2 3 4 5 6 
#
# 1 0.009637 -0.001138 0.003810 0.000000 0.001909 0.000000
# 2 -0.001138 0.014041 0.001514 0.000000 -0.001233 0.000000
# 3 0.003810 0.001514 0.021938 0.000000 -0.001050 0.000000
# 4 0.000000 0.000000 0.000000 0.037328 0.000000 0.004405
# 5 0.001909 -0.001233 -0.001050 0.000000 0.025218 0.000000
# 6 0.000000 0.000000 0.000000 0.004405 0.000000 0.043802
#
#
# Mechanical properties :
#
#
# Convention : Reuss Voigt Hill
#
# Bulk Modulus (GPa) = 18.52294 22.64754 20.58524
# Shear Modulus (GPa) = 30.94273 35.18499 33.06386
#
# Velocity S-wave (km/s) = 3.70619 3.95210 3.83112
# Velocity P-wave (km/s) = 5.15141 5.55688 5.35799
#
# Compressibility (1/GPa) = 0.05398712
#
# Stress axis : x y z
#
# Youngs Moduli (GPa) = 103.76224 71.22246 45.58248
#
# Poissons Ratio (x) = 0.08107 -0.17366
# Poissons Ratio (y) = 0.11811 -0.06900
# Poissons Ratio (z) = -0.39532 -0.10782
#
# Static dielectric constant tensor:
#      x y z
#    x 1.815370 0.000000 0.011960 
#    y 0.000000 0.872980 0.000000 
#    z 0.011960 0.000000 1.763320 
# 
# From -- ./inp_files/54425.got.cif
#   From: 2010.05.17/outbox.cif.g08.bks.cpg/sg15_28_cif.got.tgz:54425.got - 2010.06.03 18:47:42.
