data_PCOD9297212
_publ_section_title
;
Structure prediction by ZEFSAII (Michael W. Deem and Ramdas Pophale) SiO2 
 PCOD9297212
Probable space group: C 2/C
;
_chemical_formula_sum "Si O2"
_cell_formula_units_Z 48
_cell_length_a 23.846946
_cell_length_b 18.717291
_cell_length_c 17.447856
_cell_angle_alpha 90.000000
_cell_angle_beta 159.161926
_cell_angle_gamma 90.000000
_cell_volume 2770.358616
_symmetry_space_group_name_H-M "C 2/C"
_symmetry_group_IT_number 15
_symmetry_cell_setting 'monoclinic'
loop_
_space_group_symop_operation_xyz
x,y,z
-x,y,1/2-z
-x,-y,-z
x,-y,1/2+z
1/2+x,1/2+y,z
1/2-x,1/2+y,1/2-z
1/2-x,1/2-y,-z
1/2+x,1/2-y,1/2+z
loop_
_atom_site_type_symbol
_atom_site_label
_atom_site_fract_x
_atom_site_fract_y
_atom_site_fract_z
Si Si1 0.032442 0.112334 0.157531
Si Si2 0.868457 0.973919 0.023905
Si Si3 0.301064 0.829235 0.115048
Si Si4 0.120638 0.742121 0.008352
Si Si5 0.230879 0.095194 0.262374
Si Si6 0.051836 0.531960 0.646676
O O1 0.176270 0.135893 0.397641
O O2 0.106561 0.086907 0.172222
O O3 0.935921 0.049746 0.076960
O O4 0.928744 0.184086 0.012617
O O5 0.000000 0.945383 0.250000
O O6 0.832287 0.928407 0.901375
O O7 0.705184 0.984901 0.863053
O O8 0.219668 0.770515 0.063565
O O9 0.455960 0.795070 0.276485
O O10 0.371548 0.889986 0.260080
O O11 0.216593 0.678586 0.171616
O O12 0.387780 0.046955 0.481190
O O13 0.000000 0.500000 0.500000
#
# Coordination Sequence:
#
# PCOD9297212 Si02
#       6
#     8   8   8   8   8   8
#     4  12  21  34  56  85 116 138 181 224 279 329
#     4  11  20  40  59  79 106 148 189 225 268 321
#     4  11  21  33  53  84 117 146 175 221 272 341
#     4  11  21  34  51  84 118 145 175 215 279 336
#     4  10  24  35  54  82 116 144 179 225 272 332
#     4   9  19  36  54  78 108 145 182 217 270 320
#
# _framework density 17.326277000000001
#
# number of rings (size 3 to 8) (size 9 to 14) (size 15 to 20)
#    0.000    1.333    5.000    1.500    2.333    2.000 
#    0.000    0.000    0.000    1.000    0.000    0.000 
#    0.000    0.000    0.000    0.000    0.000    0.000 
#
# Total GULP energy -133632.438022 kJ/mol
# GULP energy per Si atom -5568.018251 kJ/mol
# Density = 1.728684 g / cm^3
# Si number density = 17.326277 Si / 1000 Ang^3
#
#
#
# Elastic Constant Matrix: (Units=GPa)
#
#
# Indices 1 2 3 4 5 6 
#
# 1 79.6653 30.2143 37.6456 0.0000 9.3169 0.0000
# 2 30.2143 66.9796 23.4951 0.0000 -16.3034 0.0000
# 3 37.6456 23.4951 89.0499 0.0000 -5.8558 0.0000
# 4 0.0000 0.0000 0.0000 27.8880 0.0000 -1.3481
# 5 9.3169 -16.3034 -5.8558 0.0000 24.2108 0.0000
# 6 0.0000 0.0000 0.0000 -1.3481 0.0000 29.6900
#
#
#
# Elastic Compliance Matrix: (Units=1/GPa)
#
#
# Indices 1 2 3 4 5 6 
#
# 1 0.023161 -0.012373 -0.007784 0.000000 -0.019127 0.000000
# 2 -0.012373 0.025975 -0.000162 0.000000 0.022214 0.000000
# 3 -0.007784 -0.000162 0.014991 0.000000 0.006512 0.000000
# 4 0.000000 0.000000 0.000000 0.035937 0.000000 0.001632
# 5 -0.019127 0.022214 0.006512 0.000000 0.065198 0.000000
# 6 0.000000 0.000000 0.000000 0.001632 0.000000 0.033755
#
#
# Mechanical properties :
#
#
# Convention : Reuss Voigt Hill
#
# Bulk Modulus (GPa) = 42.57363 46.48944 44.53153
# Shear Modulus (GPa) = 20.20323 25.98042 23.09183
#
# Velocity S-wave (km/s) = 3.41845 3.87651 3.65466
# Velocity P-wave (km/s) = 6.34083 6.85029 6.60048
#
# Compressibility (1/GPa) = 0.02348872
#
# Stress axis : x y z
#
# Youngs Moduli (GPa) = 43.17693 38.49844 66.70465
#
# Poissons Ratio (x) = 0.47633 0.51925
# Poissons Ratio (y) = 0.53422 0.01081
# Poissons Ratio (z) = 0.33610 0.00624
#
# Static dielectric constant tensor:
#      x y z
#    x 1.602540 0.000000 0.040090 
#    y 0.000000 1.611550 0.000000 
#    z 0.040090 0.000000 1.633480 
# 
# From -- ./inp_files/147358.got.cif
#   From: 2010.05.17/outbox.cif.g08.bks.cpg/sg15_74_cif.got.tgz:147358.got - 2010.06.03 18:47:42.
