data_PCOD9297086
_publ_section_title
;
Structure prediction by ZEFSAII (Michael W. Deem and Ramdas Pophale) SiO2 
 PCOD9297086
Probable space group: C 2/C
;
_chemical_formula_sum "Si O2"
_cell_formula_units_Z 32
_cell_length_a 7.286990
_cell_length_b 13.408592
_cell_length_c 19.252889
_cell_angle_alpha 90.000000
_cell_angle_beta 145.184190
_cell_angle_gamma 90.000000
_cell_volume 1074.033499
_symmetry_space_group_name_H-M "C 2/C"
_symmetry_group_IT_number 15
_symmetry_cell_setting 'monoclinic'
loop_
_space_group_symop_operation_xyz
x,y,z
-x,y,1/2-z
-x,-y,-z
x,-y,1/2+z
1/2+x,1/2+y,z
1/2-x,1/2+y,1/2-z
1/2-x,1/2-y,-z
1/2+x,1/2-y,1/2+z
loop_
_atom_site_type_symbol
_atom_site_label
_atom_site_fract_x
_atom_site_fract_y
_atom_site_fract_z
Si Si1 0.761901 0.106376 0.374040
Si Si2 0.908059 0.308350 0.141444
Si Si3 0.035203 0.350787 0.950240
Si Si4 0.057560 0.040395 0.695785
O O1 0.500000 0.172218 0.250000
O O2 0.579317 0.090438 0.390791
O O3 0.103339 0.147007 0.505538
O O4 0.173599 0.019413 0.162343
O O5 0.787730 0.193934 0.114665
O O6 0.000000 0.329812 0.250000
O O7 0.210699 0.369148 0.207779
O O8 0.250000 0.250000 0.000000
O O9 0.227995 0.412764 0.065921
O O10 0.000000 0.982513 0.750000
#
# Coordination Sequence:
#
# PCOD9297086 Si02
#       4
#     8   8   8   8
#     4  11  26  49  83 116 162 215 279 340 404 490
#     4  11  24  51  84 114 165 215 277 342 411 481
#     4  10  23  47  78 118 158 215 278 337 404 483
#     4  12  27  47  81 122 173 212 272 340 416 498
#
# _framework density 29.794228
#
# number of rings (size 3 to 8) (size 9 to 14) (size 15 to 20)
#    0.000    1.000    5.000    1.500    3.500    6.000 
#    4.500    0.000    0.000    0.000    0.000    0.000 
#    0.000    0.000    0.000    0.000    0.000    0.000 
#
# Total GULP energy -89253.452826 kJ/mol
# GULP energy per Si atom -5578.340802 kJ/mol
# Density = 2.972642 g / cm^3
# Si number density = 29.794228 Si / 1000 Ang^3
#
#
#
# Elastic Constant Matrix: (Units=GPa)
#
#
# Indices 1 2 3 4 5 6 
#
# 1 226.2097 104.5705 88.3676 0.0002 -40.1242 -0.0002
# 2 104.5705 163.2650 88.3480 0.0004 11.6422 0.0004
# 3 88.3676 88.3480 283.9925 0.0024 -38.1387 -0.0005
# 4 0.0002 0.0004 0.0024 28.9254 0.0000 -7.1982
# 5 -40.1242 11.6422 -38.1387 0.0000 71.8789 -0.0008
# 6 -0.0002 0.0004 -0.0005 -7.1982 -0.0008 15.0013
#
#
#
# Elastic Compliance Matrix: (Units=1/GPa)
#
#
# Indices 1 2 3 4 5 6 
#
# 1 0.007852 -0.005360 -0.000076 0.000000 0.005211 0.000001
# 2 -0.005360 0.011501 -0.002759 0.000000 -0.006319 -0.000001
# 3 -0.000076 -0.002759 0.004799 0.000000 0.002951 0.000000
# 4 0.000000 0.000000 0.000000 0.039260 0.000000 0.018838
# 5 0.005211 -0.006319 0.002951 0.000000 0.019410 0.000001
# 6 0.000001 -0.000001 0.000000 0.018838 0.000001 0.075700
#
#
# Mechanical properties :
#
#
# Convention : Reuss Voigt Hill
#
# Bulk Modulus (GPa) = 128.80387 137.33771 133.07079
# Shear Modulus (GPa) = 28.16879 49.30650 38.73765
#
# Velocity S-wave (km/s) = 3.07814 4.07246 3.60970
# Velocity P-wave (km/s) = 7.48053 8.26491 7.88248
#
# Compressibility (1/GPa) = 0.00776374
#
# Stress axis : x y z
#
# Youngs Moduli (GPa) = 127.34842 86.94569 208.35740
#
# Poissons Ratio (x) = 0.46602 0.01587
# Poissons Ratio (y) = 0.68257 0.57481
# Poissons Ratio (z) = 0.00970 0.23987
#
# Static dielectric constant tensor:
#      x y z
#    x 2.026630 0.000000 -0.149550 
#    y 0.000000 2.465010 0.000000 
#    z -0.149550 0.000000 2.048700 
# 
# From -- ./inp_files/264549.got.cif
#   From: 2010.05.17/outbox.cif.g08.bks.cpg/sg15_133_cif.got.tgz:264549.got - 2010.06.03 18:47:42.
