data_PCOD9297909
_publ_section_title
;
Structure prediction by ZEFSAII (Michael W. Deem and Ramdas Pophale) SiO2 
 PCOD9297909
Probable space group: C 2/C
;
_chemical_formula_sum "Si O2"
_cell_formula_units_Z 52
_cell_length_a 17.438073
_cell_length_b 5.438519
_cell_length_c 22.581063
_cell_angle_alpha 90.000000
_cell_angle_beta 73.599145
_cell_angle_gamma 90.000000
_cell_volume 2054.387611
_symmetry_space_group_name_H-M "C 2/C"
_symmetry_group_IT_number 15
_symmetry_cell_setting 'monoclinic'
loop_
_space_group_symop_operation_xyz
x,y,z
-x,y,1/2-z
-x,-y,-z
x,-y,1/2+z
1/2+x,1/2+y,z
1/2-x,1/2+y,1/2-z
1/2-x,1/2-y,-z
1/2+x,1/2-y,1/2+z
loop_
_atom_site_type_symbol
_atom_site_label
_atom_site_fract_x
_atom_site_fract_y
_atom_site_fract_z
Si Si1 0.621236 0.161977 0.510919
Si Si2 0.159005 0.641168 0.889347
Si Si3 0.500000 0.991702 0.250000
Si Si4 0.920560 0.048229 0.799545
Si Si5 0.245556 0.943545 0.947803
Si Si6 0.741888 0.352449 0.715168
Si Si7 0.996225 0.787160 0.627376
O O1 0.666223 0.395216 0.473097
O O2 0.536005 0.204408 0.557595
O O3 0.624779 0.956248 0.459333
O O4 0.676828 0.103766 0.556464
O O5 0.238036 0.796358 0.888983
O O6 0.187985 0.405653 0.846954
O O7 0.097155 0.807622 0.866814
O O8 0.576784 0.181420 0.228106
O O9 0.500350 0.908241 0.319759
O O10 0.000000 0.929199 0.750000
O O11 0.843953 0.893015 0.798265
O O12 0.949741 0.014919 0.860592
O O13 0.250000 0.750000 0.000000
O O14 0.750340 0.587937 0.756915
#
# Coordination Sequence:
#
# PCOD9297909 Si02
#       7
#     8   8   4   8   8   8   8
#     4  10  24  42  71  97 140 189 241 300 373 439
#     4  11  26  44  68 105 142 184 247 302 368 441
#     4  10  24  44  70  96 146 180 248 296 374 438
#     4  10  25  42  68 101 136 190 236 301 365 442
#     4   9  22  43  65  99 136 179 233 300 359 440
#     4  12  29  47  77 109 149 195 246 312 372 441
#     4  12  24  44  70  98 142 186 244 301 371 440
#
# _framework density 25.311679000000002
#
# number of rings (size 3 to 8) (size 9 to 14) (size 15 to 20)
#    0.462    0.923    0.769    2.308   12.923    3.077 
#    0.000    0.000    0.000    0.000    0.000    0.000 
#    0.000    0.000    0.000    0.000    0.000    0.000 
#
# Total GULP energy -145070.192744 kJ/mol
# GULP energy per Si atom -5579.622798 kJ/mol
# Density = 2.525407 g / cm^3
# Si number density = 25.311679 Si / 1000 Ang^3
#
#
#
# Elastic Constant Matrix: (Units=GPa)
#
#
# Indices 1 2 3 4 5 6 
#
# 1 100.9679 14.2798 27.9099 -0.0001 14.0169 0.0015
# 2 14.2798 26.1574 19.3378 0.0001 13.9752 0.0005
# 3 27.9099 19.3378 65.7573 -0.0008 13.3300 0.0008
# 4 -0.0001 0.0001 -0.0008 -5.9879 0.0003 0.9819
# 5 14.0169 13.9752 13.3300 0.0003 28.2446 0.0010
# 6 0.0015 0.0005 0.0008 0.9819 0.0010 19.3877
#
#
#
# Elastic Compliance Matrix: (Units=1/GPa)
#
#
# Indices 1 2 3 4 5 6 
#
# 1 0.011639 -0.001961 -0.003748 0.000000 -0.003037 -0.000001
# 2 -0.001961 0.060891 -0.012345 0.000002 -0.023329 0.000000
# 3 -0.003748 -0.012345 0.020804 -0.000003 -0.001850 0.000000
# 4 0.000000 0.000002 -0.000003 -0.165628 0.000002 0.008389
# 5 -0.003037 -0.023329 -0.001850 0.000002 0.049328 -0.000002
# 6 -0.000001 0.000000 0.000000 0.008389 -0.000002 0.051154
#
#
# Mechanical properties :
#
#
# Convention : Reuss Voigt Hill
#
# Bulk Modulus (GPa) = 17.47444 35.10418 26.28931
# Shear Modulus (GPa) = 59.97221 17.08590 38.52906
#
# Velocity S-wave (km/s) = 4.87288 2.60093 3.90575
# Velocity P-wave (km/s) = 6.21117 4.78735 5.54515
#
# Compressibility (1/GPa) = 0.05722644
#
# Stress axis : x y z
#
# Youngs Moduli (GPa) = 85.91773 16.42268 48.06836
#
# Poissons Ratio (x) = 0.03220 0.18015
# Poissons Ratio (y) = 0.16845 0.59343
# Poissons Ratio (z) = 0.32200 0.20275
#
# Static dielectric constant tensor:
#      x y z
#    x 2.050170 0.000000 0.008650 
#    y 0.000000 2.323120 0.000000 
#    z 0.008650 0.000000 2.013070 
# 
# From -- ./inp_files/251040.got.cif
#   From: 2010.05.17/outbox.cif.g08.bks.cpg/sg15_126_cif.got.tgz:251040.got - 2010.06.03 18:47:42.
