data_PCOD9297200
_publ_section_title
;
Structure prediction by ZEFSAII (Michael W. Deem and Ramdas Pophale) SiO2 
 PCOD9297200
Probable space group: C 2/C
;
_chemical_formula_sum "Si O2"
_cell_formula_units_Z 60
_cell_length_a 22.334980
_cell_length_b 17.360446
_cell_length_c 9.063365
_cell_angle_alpha 90.000000
_cell_angle_beta 74.804755
_cell_angle_gamma 90.000000
_cell_volume 3391.411151
_symmetry_space_group_name_H-M "C 2/C"
_symmetry_group_IT_number 15
_symmetry_cell_setting 'monoclinic'
loop_
_space_group_symop_operation_xyz
x,y,z
-x,y,1/2-z
-x,-y,-z
x,-y,1/2+z
1/2+x,1/2+y,z
1/2-x,1/2+y,1/2-z
1/2-x,1/2-y,-z
1/2+x,1/2-y,1/2+z
loop_
_atom_site_type_symbol
_atom_site_label
_atom_site_fract_x
_atom_site_fract_y
_atom_site_fract_z
Si Si1 0.928266 0.587300 0.566128
Si Si2 0.642960 0.771450 0.416502
Si Si3 0.688511 0.381373 0.989982
Si Si4 0.270070 0.544887 0.525918
Si Si5 0.674742 0.833791 0.713954
Si Si6 0.318350 0.014040 0.174031
Si Si7 0.500000 0.016314 0.250000
Si Si8 0.279965 0.315967 0.210465
O O1 0.912654 0.676402 0.610098
O O2 0.862760 0.546426 0.567852
O O3 0.971037 0.569056 0.397927
O O4 0.953471 0.541074 0.691990
O O5 0.643797 0.678462 0.433130
O O6 0.645278 0.799950 0.585635
O O7 0.707666 0.796170 0.294349
O O8 0.682723 0.473561 0.981860
O O9 0.756926 0.360811 0.883661
O O10 0.693946 0.358679 0.159393
O O11 0.240780 0.538914 0.384146
O O12 0.210575 0.527901 0.667371
O O13 0.290494 0.628566 0.565525
O O14 0.645189 0.909027 0.804156
O O15 0.684960 0.765054 0.821874
#
# Coordination Sequence:
#
# PCOD9297200 Si02
#       8
#     8   8   8   8   8   8   4   8
#     4  11  19  34  46  65  82 115 144 184 227 264
#     4   9  15  28  48  57  81 117 155 170 207 267
#     4   8  15  26  39  61  84 114 151 181 197 243
#     4  11  17  26  41  65  88 121 153 179 198 240
#     4   8  16  26  39  63  86 115 154 182 196 238
#     4  11  19  27  45  61  85 122 157 172 206 263
#     4  10  24  32  46  64  88 100 144 200 234 256
#     4   9  15  26  40  61  89 118 152 178 203 231
#
# _framework density 17.691749999999999
#
# number of rings (size 3 to 8) (size 9 to 14) (size 15 to 20)
#    0.000    2.400    2.667    4.800    0.000    0.533 
#    0.000    0.000    0.000    0.000    0.000    0.000 
#    0.000    0.000    0.000   40.800    0.267    0.000 
#
# Total GULP energy -167002.647861 kJ/mol
# GULP energy per Si atom -5566.754929 kJ/mol
# Density = 1.765148 g / cm^3
# Si number density = 17.691750 Si / 1000 Ang^3
#
#
#
# Elastic Constant Matrix: (Units=GPa)
#
#
# Indices 1 2 3 4 5 6 
#
# 1 21.3404 6.0337 0.0848 0.0000 4.9633 0.0000
# 2 6.0337 49.1473 -2.3340 0.0000 7.1770 0.0000
# 3 0.0848 -2.3340 28.6242 0.0000 5.3085 0.0000
# 4 0.0000 0.0000 0.0000 24.0453 0.0000 4.2058
# 5 4.9633 7.1770 5.3085 0.0000 14.9990 0.0000
# 6 0.0000 0.0000 0.0000 4.2058 0.0000 21.3849
#
#
#
# Elastic Compliance Matrix: (Units=1/GPa)
#
#
# Indices 1 2 3 4 5 6 
#
# 1 0.051700 -0.003869 0.002527 0.000000 -0.016151 0.000000
# 2 -0.003869 0.022599 0.003877 0.000000 -0.010905 0.000000
# 3 0.002527 0.003877 0.038254 0.000000 -0.016230 0.000000
# 4 0.000000 0.000000 0.000000 0.043070 0.000000 -0.008471
# 5 -0.016151 -0.010905 -0.016230 0.000000 0.082978 0.000000
# 6 0.000000 0.000000 0.000000 -0.008471 0.000000 0.048428
#
#
# Mechanical properties :
#
#
# Convention : Reuss Voigt Hill
#
# Bulk Modulus (GPa) = 8.50183 11.85341 10.17762
# Shear Modulus (GPa) = 15.56830 18.44099 17.00465
#
# Velocity S-wave (km/s) = 2.96966 3.23205 3.10363
# Velocity P-wave (km/s) = 4.07117 4.54342 4.31376
#
# Compressibility (1/GPa) = 0.11762169
#
# Stress axis : x y z
#
# Youngs Moduli (GPa) = 19.34248 44.25067 26.14106
#
# Poissons Ratio (x) = 0.17119 -0.06605
# Poissons Ratio (y) = 0.07483 -0.10134
# Poissons Ratio (z) = -0.04887 -0.17154
#
# Static dielectric constant tensor:
#      x y z
#    x 1.620390 0.000000 0.034150 
#    y 0.000000 1.685350 0.000000 
#    z 0.034150 0.000000 1.619410 
# 
# From -- ./inp_files/66705.got.cif
#   From: 2010.05.17/outbox.cif.g08.bks.cpg/sg15_34_cif.got.tgz:66705.got - 2010.06.03 18:47:42.
