data_PCOD9297795
_publ_section_title
;
Structure prediction by ZEFSAII (Michael W. Deem and Ramdas Pophale) SiO2 
 PCOD9297795
Probable space group: C 2/C
;
_chemical_formula_sum "Si O2"
_cell_formula_units_Z 56
_cell_length_a 14.194735
_cell_length_b 11.033254
_cell_length_c 19.429035
_cell_angle_alpha 90.000000
_cell_angle_beta 66.880018
_cell_angle_gamma 90.000000
_cell_volume 2798.472584
_symmetry_space_group_name_H-M "C 2/C"
_symmetry_group_IT_number 15
_symmetry_cell_setting 'monoclinic'
loop_
_space_group_symop_operation_xyz
x,y,z
-x,y,1/2-z
-x,-y,-z
x,-y,1/2+z
1/2+x,1/2+y,z
1/2-x,1/2+y,1/2-z
1/2-x,1/2-y,-z
1/2+x,1/2-y,1/2+z
loop_
_atom_site_type_symbol
_atom_site_label
_atom_site_fract_x
_atom_site_fract_y
_atom_site_fract_z
Si Si1 0.616433 0.735778 0.910238
Si Si2 0.607139 0.957329 0.247463
Si Si3 0.678756 0.203408 0.854695
Si Si4 0.898141 0.263331 0.739274
Si Si5 0.070606 0.879223 0.974093
Si Si6 0.259507 0.965528 0.428268
Si Si7 0.622127 0.010687 0.467059
O O1 0.620761 0.701141 0.828952
O O2 0.686969 0.651480 0.938056
O O3 0.650707 0.872594 0.913208
O O4 0.497891 0.717103 0.965436
O O5 0.500000 0.907326 0.250000
O O6 0.648075 0.870647 0.295277
O O7 0.682455 0.973638 0.161070
O O8 0.586523 0.093555 0.280232
O O9 0.795150 0.246678 0.812505
O O10 0.600622 0.314206 0.893442
O O11 0.669508 0.109536 0.920393
O O12 0.000000 0.221087 0.750000
O O13 0.181754 0.924032 0.966581
O O14 0.000000 0.000000 0.000000
O O15 0.339069 0.961640 0.467438
O O16 0.500000 0.000000 0.500000
#
# Coordination Sequence:
#
# PCOD9297795 Si02
#       7
#     8   8   8   8   8   8   8
#     4  11  23  45  65  95 138 174 224 285 340 406
#     4  11  23  41  67  99 133 174 225 281 345 403
#     4  12  23  43  70  99 137 178 231 284 341 415
#     4  11  25  41  68  99 137 176 226 282 345 409
#     4  10  24  42  67  95 135 179 220 276 350 409
#     4  11  24  43  66  95 136 179 222 279 352 400
#     4  12  25  40  68 101 130 174 237 282 332 408
#
# _framework density 20.010915000000001
#
# number of rings (size 3 to 8) (size 9 to 14) (size 15 to 20)
#    0.000    0.857    5.714    1.286    4.000    0.571 
#    0.000    0.000    0.000    4.286    0.000    0.000 
#    0.000    0.000    0.000    0.000    0.000    0.000 
#
# Total GULP energy -156197.745324 kJ/mol
# GULP energy per Si atom -5578.490904 kJ/mol
# Density = 1.996537 g / cm^3
# Si number density = 20.010915 Si / 1000 Ang^3
#
#
#
# Elastic Constant Matrix: (Units=GPa)
#
#
# Indices 1 2 3 4 5 6 
#
# 1 116.5299 35.2376 50.5689 0.0000 8.2188 0.0000
# 2 35.2376 69.1313 17.9363 0.0000 6.2556 0.0000
# 3 50.5689 17.9363 105.7039 0.0000 -0.5991 0.0000
# 4 0.0000 0.0000 0.0000 32.8319 0.0000 -2.6848
# 5 8.2188 6.2556 -0.5991 0.0000 42.5542 0.0000
# 6 0.0000 0.0000 0.0000 -2.6848 0.0000 20.3258
#
#
#
# Elastic Compliance Matrix: (Units=1/GPa)
#
#
# Indices 1 2 3 4 5 6 
#
# 1 0.012385 -0.004827 -0.005116 0.000000 -0.001754 0.000000
# 2 -0.004827 0.017233 -0.000624 0.000000 -0.001610 0.000000
# 3 -0.005116 -0.000624 0.012021 0.000000 0.001249 0.000000
# 4 0.000000 0.000000 0.000000 0.030791 0.000000 0.004067
# 5 -0.001754 -0.001610 0.001249 0.000000 0.024093 0.000000
# 6 0.000000 0.000000 0.000000 0.004067 0.000000 0.049736
#
#
# Mechanical properties :
#
#
# Convention : Reuss Voigt Hill
#
# Bulk Modulus (GPa) = 48.76804 55.42784 52.09794
# Shear Modulus (GPa) = 28.69827 31.65054 30.17441
#
# Velocity S-wave (km/s) = 3.79110 3.98133 3.88738
# Velocity P-wave (km/s) = 6.60204 6.99239 6.80002
#
# Compressibility (1/GPa) = 0.02050523
#
# Stress axis : x y z
#
# Youngs Moduli (GPa) = 80.74395 58.02782 83.18902
#
# Poissons Ratio (x) = 0.28008 0.42558
# Poissons Ratio (y) = 0.38973 0.05193
# Poissons Ratio (z) = 0.41307 0.03622
#
# Static dielectric constant tensor:
#      x y z
#    x 1.689950 0.000000 -0.004080 
#    y 0.000000 1.755980 0.000000 
#    z -0.004080 0.000000 1.731080 
# 
# From -- ./inp_files/203929.got.cif
#   From: 2010.05.17/outbox.cif.g08.bks.cpg/sg15_102_cif.got.tgz:203929.got - 2010.06.03 18:47:42.
