data_PCOD9297533
_publ_section_title
;
Structure prediction by ZEFSAII (Michael W. Deem and Ramdas Pophale) SiO2 
 PCOD9297533
Probable space group: C 2/C
;
_chemical_formula_sum "Si O2"
_cell_formula_units_Z 52
_cell_length_a 9.458815
_cell_length_b 16.590877
_cell_length_c 18.551379
_cell_angle_alpha 90.000000
_cell_angle_beta 56.835812
_cell_angle_gamma 90.000000
_cell_volume 2437.041552
_symmetry_space_group_name_H-M "C 2/C"
_symmetry_group_IT_number 15
_symmetry_cell_setting 'monoclinic'
loop_
_space_group_symop_operation_xyz
x,y,z
-x,y,1/2-z
-x,-y,-z
x,-y,1/2+z
1/2+x,1/2+y,z
1/2-x,1/2+y,1/2-z
1/2-x,1/2-y,-z
1/2+x,1/2-y,1/2+z
loop_
_atom_site_type_symbol
_atom_site_label
_atom_site_fract_x
_atom_site_fract_y
_atom_site_fract_z
Si Si1 0.079832 0.293521 0.377702
Si Si2 0.000000 0.641012 0.750000
Si Si3 0.982290 0.953043 0.599519
Si Si4 0.885393 0.822091 0.844516
Si Si5 0.995617 0.298125 0.559352
Si Si6 0.121956 0.114960 0.916278
Si Si7 0.166616 0.346216 0.657637
O O1 0.090450 0.349932 0.306339
O O2 0.236507 0.231567 0.337232
O O3 0.918388 0.235687 0.403244
O O4 0.054434 0.327450 0.464396
O O5 0.815132 0.621821 0.839057
O O6 0.798580 0.918935 0.627945
O O7 0.035446 0.906816 0.656705
O O8 0.104890 0.921621 0.501717
O O9 0.973861 0.048385 0.604945
O O10 0.695144 0.828310 0.873936
O O11 0.000000 0.779028 0.750000
O O12 0.970953 0.201219 0.561992
O O13 0.114600 0.325709 0.590600
O O14 0.000000 0.362878 0.750000
#
# Coordination Sequence:
#
# PCOD9297533 Si02
#       7
#     8   4   8   8   8   8   8
#     4  11  21  36  61  97 120 158 209 267 307 366
#     4  12  22  38  66  98 124 162 224 266 306 368
#     4  10  24  41  62  87 127 168 204 249 328 377
#     4  11  19  37  62  91 117 160 212 258 302 374
#     4  12  21  38  68  93 122 161 215 261 313 369
#     4  11  22  40  64  89 126 166 206 259 316 379
#     4  11  23  39  62  94 125 161 208 263 315 373
#
# _framework density 21.337347999999999
#
# number of rings (size 3 to 8) (size 9 to 14) (size 15 to 20)
#    0.000    0.923    5.385    4.615    1.077    0.000 
#    0.000    2.308    0.000    2.769    0.000    0.000 
#    0.000    0.000    0.000    0.000    0.000    0.000 
#
# Total GULP energy -144889.557343 kJ/mol
# GULP energy per Si atom -5572.675282 kJ/mol
# Density = 2.128878 g / cm^3
# Si number density = 21.337348 Si / 1000 Ang^3
#
#
#
# Elastic Constant Matrix: (Units=GPa)
#
#
# Indices 1 2 3 4 5 6 
#
# 1 103.6363 -19.0228 31.8647 0.0000 11.3315 0.0000
# 2 -19.0228 383.5059 106.5682 0.0000 -49.5398 0.0000
# 3 31.8647 106.5682 171.3447 0.0000 -21.8316 0.0000
# 4 0.0000 0.0000 0.0000 12.9390 0.0000 4.0644
# 5 11.3315 -49.5398 -21.8316 0.0000 53.9159 0.0000
# 6 0.0000 0.0000 0.0000 4.0644 0.0000 13.4148
#
#
#
# Elastic Compliance Matrix: (Units=1/GPa)
#
#
# Indices 1 2 3 4 5 6 
#
# 1 0.011063 0.001062 -0.003047 0.000000 -0.002583 0.000000
# 2 0.001062 0.003527 -0.002116 0.000000 0.002161 0.000000
# 3 -0.003047 -0.002116 0.007964 0.000000 0.001921 0.000000
# 4 0.000000 0.000000 0.000000 0.085414 0.000000 -0.025879
# 5 -0.002583 0.002161 0.001921 0.000000 0.021854 0.000000
# 6 0.000000 0.000000 0.000000 -0.025879 0.000000 0.082385
#
#
# Mechanical properties :
#
#
# Convention : Reuss Voigt Hill
#
# Bulk Modulus (GPa) = 69.67695 99.70079 84.68887
# Shear Modulus (GPa) = 22.20310 51.99239 37.09775
#
# Velocity S-wave (km/s) = 3.22929 4.94163 4.17421
# Velocity P-wave (km/s) = 6.82864 8.90994 7.93780
#
# Compressibility (1/GPa) = 0.01435195
#
# Stress axis : x y z
#
# Youngs Moduli (GPa) = 90.38890 283.50142 125.57203
#
# Poissons Ratio (x) = -0.30100 0.38261
# Poissons Ratio (y) = -0.09597 0.26570
# Poissons Ratio (z) = 0.27541 0.59987
#
# Static dielectric constant tensor:
#      x y z
#    x 1.766990 0.000000 0.006730 
#    y 0.000000 1.705990 0.000000 
#    z 0.006730 0.000000 1.809660 
# 
# From -- ./inp_files/190864.got.cif
#   From: 2010.05.17/outbox.cif.g08.bks.cpg/sg15_96_cif.got.tgz:190864.got - 2010.06.03 18:47:42.
