data_PCOD9297947
_publ_section_title
;
Structure prediction by ZEFSAII (Michael W. Deem and Ramdas Pophale) SiO2 
 PCOD9297947
Probable space group: C 2/C
;
_chemical_formula_sum "Si O2"
_cell_formula_units_Z 64
_cell_length_a 30.563205
_cell_length_b 18.420666
_cell_length_c 7.678028
_cell_angle_alpha 90.000000
_cell_angle_beta 140.891296
_cell_angle_gamma 90.000000
_cell_volume 2726.724471
_symmetry_space_group_name_H-M "C 2/C"
_symmetry_group_IT_number 15
_symmetry_cell_setting 'monoclinic'
loop_
_space_group_symop_operation_xyz
x,y,z
-x,y,1/2-z
-x,-y,-z
x,-y,1/2+z
1/2+x,1/2+y,z
1/2-x,1/2+y,1/2-z
1/2-x,1/2-y,-z
1/2+x,1/2-y,1/2+z
loop_
_atom_site_type_symbol
_atom_site_label
_atom_site_fract_x
_atom_site_fract_y
_atom_site_fract_z
Si Si1 0.795379 0.906207 0.221676
Si Si2 0.330079 0.255052 0.805097
Si Si3 0.145613 0.546816 0.359597
Si Si4 0.074114 0.110802 0.926182
Si Si5 0.371539 0.521909 0.689299
Si Si6 0.935469 0.364552 0.161282
Si Si7 0.332041 0.742859 0.729845
Si Si8 0.111597 0.601372 0.631861
O O1 0.803461 0.936431 0.052079
O O2 0.840681 0.833674 0.353652
O O3 0.837476 0.966939 0.450485
O O4 0.717418 0.908553 0.053083
O O5 0.250000 0.250000 0.500000
O O6 0.366087 0.329987 0.855257
O O7 0.362456 0.182721 0.822567
O O8 0.342758 0.254670 0.054189
O O9 0.110589 0.569616 0.432729
O O10 0.158308 0.460719 0.373238
O O11 0.092985 0.569595 0.044414
O O12 0.085577 0.034972 0.062605
O O13 0.080509 0.083538 0.746960
O O14 0.000000 0.141925 0.750000
O O15 0.946839 0.387692 0.397294
O O16 0.000000 0.335505 0.250000
O O17 0.875801 0.304014 0.961169
O O18 0.250000 0.750000 0.500000
#
# Coordination Sequence:
#
# PCOD9297947 Si02
#       8
#     8   8   8   8   8   8   8   8
#     4  11  23  42  73 109 144 184 243 307 372 438
#     4  12  28  44  74 112 150 192 250 313 381 446
#     4  12  25  47  76 108 145 193 251 315 379 439
#     4  11  25  47  70 107 150 197 244 301 372 449
#     4  10  24  42  73 106 143 192 241 302 363 447
#     4  12  29  49  73 108 148 198 247 305 379 450
#     4  12  24  48  72 105 149 190 242 310 374 446
#     4  12  27  48  75 107 146 195 250 314 373 453
#
# _framework density 23.471385000000001
#
# number of rings (size 3 to 8) (size 9 to 14) (size 15 to 20)
#    0.000    0.500    5.000    1.875    8.750    2.000 
#    0.000    0.625    0.000    0.000    0.000    0.000 
#    0.000    0.000    0.000    0.000    0.000    0.000 
#
# Total GULP energy -178450.515499 kJ/mol
# GULP energy per Si atom -5576.578609 kJ/mol
# Density = 2.341796 g / cm^3
# Si number density = 23.471385 Si / 1000 Ang^3
#
#
#
# Elastic Constant Matrix: (Units=GPa)
#
#
# Indices 1 2 3 4 5 6 
#
# 1 166.5771 47.5362 36.8310 0.0000 -9.6762 0.0000
# 2 47.5362 121.7046 11.4666 0.0000 0.0962 0.0000
# 3 36.8310 11.4666 34.1059 0.0000 9.6138 0.0000
# 4 0.0000 0.0000 0.0000 35.3939 0.0000 -37.6957
# 5 -9.6762 0.0962 9.6138 0.0000 34.7649 0.0000
# 6 0.0000 0.0000 0.0000 -37.6957 0.0000 164.4403
#
#
#
# Elastic Compliance Matrix: (Units=1/GPa)
#
#
# Indices 1 2 3 4 5 6 
#
# 1 0.009535 -0.002692 -0.010999 0.000000 0.005703 0.000000
# 2 -0.002692 0.009268 0.000011 0.000000 -0.000778 0.000000
# 3 -0.010999 0.000011 0.045613 0.000000 -0.015675 0.000000
# 4 0.000000 0.000000 0.000000 0.037379 0.000000 0.008569
# 5 0.005703 -0.000778 -0.015675 0.000000 0.034689 0.000000
# 6 0.000000 0.000000 0.000000 0.008569 0.000000 0.008046
#
#
# Mechanical properties :
#
#
# Convention : Reuss Voigt Hill
#
# Bulk Modulus (GPa) = 26.98701 57.11725 42.05213
# Shear Modulus (GPa) = 27.13822 62.02338 44.58080
#
# Velocity S-wave (km/s) = 3.40402 5.14611 4.36290
# Velocity P-wave (km/s) = 5.19352 7.72642 6.58294
#
# Compressibility (1/GPa) = 0.03705487
#
# Stress axis : x y z
#
# Youngs Moduli (GPa) = 104.87956 107.90034 21.92351
#
# Poissons Ratio (x) = 0.29051 0.24114
# Poissons Ratio (y) = 0.28237 -0.00024
# Poissons Ratio (z) = 1.15357 -0.00118
#
# Static dielectric constant tensor:
#      x y z
#    x 2.053790 0.000000 -0.058000 
#    y 0.000000 -1.522010 0.000000 
#    z -0.058000 0.000000 1.880240 
# 
# From -- ./inp_files/70630.got.cif
#   From: 2010.05.17/outbox.cif.g08.bks.cpg/sg15_36_cif.got.tgz:70630.got - 2010.06.03 18:47:42.
