data_PCOD9297021
_publ_section_title
;
Structure prediction by ZEFSAII (Michael W. Deem and Ramdas Pophale) SiO2 
 PCOD9297021
Probable space group: C 2/C
;
_chemical_formula_sum "Si O2"
_cell_formula_units_Z 32
_cell_length_a 11.192764
_cell_length_b 14.918337
_cell_length_c 8.869666
_cell_angle_alpha 90.000000
_cell_angle_beta 114.209759
_cell_angle_gamma 90.000000
_cell_volume 1350.777470
_symmetry_space_group_name_H-M "C 2/C"
_symmetry_group_IT_number 15
_symmetry_cell_setting 'monoclinic'
loop_
_space_group_symop_operation_xyz
x,y,z
-x,y,1/2-z
-x,-y,-z
x,-y,1/2+z
1/2+x,1/2+y,z
1/2-x,1/2+y,1/2-z
1/2-x,1/2-y,-z
1/2+x,1/2-y,1/2+z
loop_
_atom_site_type_symbol
_atom_site_label
_atom_site_fract_x
_atom_site_fract_y
_atom_site_fract_z
Si Si1 0.990850 0.719305 0.067081
Si Si2 0.313039 0.079500 0.802895
Si Si3 0.946296 0.099723 0.980375
Si Si4 0.205111 0.607307 0.046021
O O1 0.955576 0.818663 0.991665
O O2 0.000000 0.714319 0.250000
O O3 0.134571 0.693818 0.075599
O O4 0.892848 0.645872 0.949434
O O5 0.354653 0.087533 0.650114
O O6 0.159804 0.105835 0.711124
O O7 0.322335 0.977860 0.863656
O O8 0.858854 0.112788 0.085987
O O9 0.000000 0.000000 0.000000
#
# Coordination Sequence:
#
# PCOD9297021 Si02
#       4
#     8   8   8   8
#     4  12  25  44  74 105 141 186 237 293 352 421
#     4  10  24  44  74 100 143 182 240 285 359 408
#     4  10  27  46  71 104 143 184 238 288 356 415
#     4  10  23  47  70 104 140 185 235 292 351 415
#
# _framework density 23.690062000000001
#
# number of rings (size 3 to 8) (size 9 to 14) (size 15 to 20)
#    1.500    0.000    0.000    3.750    3.500    3.000 
#    4.500    0.000    0.000    0.000    0.000    0.000 
#    0.000    0.000    0.000    0.000    0.000    0.000 
#
# Total GULP energy -89491.046337 kJ/mol
# GULP energy per Si atom -5593.190396 kJ/mol
# Density = 2.363614 g / cm^3
# Si number density = 23.690062 Si / 1000 Ang^3
#
#
#
# Elastic Constant Matrix: (Units=GPa)
#
#
# Indices 1 2 3 4 5 6 
#
# 1 61.7037 9.2246 20.0645 0.0000 -0.8275 0.0000
# 2 9.2246 140.3258 38.3707 0.0000 -13.0149 0.0000
# 3 20.0645 38.3707 121.2070 0.0000 -30.7796 0.0000
# 4 0.0000 0.0000 0.0000 24.0720 0.0000 -3.7803
# 5 -0.8275 -13.0149 -30.7796 0.0000 34.2025 0.0000
# 6 0.0000 0.0000 0.0000 -3.7803 0.0000 27.1383
#
#
#
# Elastic Compliance Matrix: (Units=1/GPa)
#
#
# Indices 1 2 3 4 5 6 
#
# 1 0.017361 -0.000462 -0.003455 0.000000 -0.002865 0.000000
# 2 -0.000462 0.007839 -0.002139 0.000000 0.001046 0.000000
# 3 -0.003455 -0.002139 0.012018 0.000000 0.009918 0.000000
# 4 0.000000 0.000000 0.000000 0.042471 0.000000 0.005916
# 5 -0.002865 0.001046 0.009918 0.000000 0.038492 0.000000
# 6 0.000000 0.000000 0.000000 0.005916 0.000000 0.037672
#
#
# Mechanical properties :
#
#
# Convention : Reuss Voigt Hill
#
# Bulk Modulus (GPa) = 39.83392 50.95066 45.39229
# Shear Modulus (GPa) = 28.35532 34.12103 31.23818
#
# Velocity S-wave (km/s) = 3.46342 3.79926 3.63522
# Velocity P-wave (km/s) = 5.73104 6.38746 6.06813
#
# Compressibility (1/GPa) = 0.02510423
#
# Stress axis : x y z
#
# Youngs Moduli (GPa) = 57.60142 127.57266 83.20814
#
# Poissons Ratio (x) = 0.05897 0.28750
# Poissons Ratio (y) = 0.02662 0.17800
# Poissons Ratio (z) = 0.19902 0.27291
#
# Static dielectric constant tensor:
#      x y z
#    x 1.992250 0.000000 0.020960 
#    y 0.000000 1.847750 0.000000 
#    z 0.020960 0.000000 1.866380 
# 
# From -- ./inp_files/27642.got.cif
#   From: 2010.05.17/outbox.cif.g08.bks.cpg/sg15_14_cif.got.tgz:27642.got - 2010.06.03 18:47:42.
