data_PCOD9297883
_publ_section_title
;
Structure prediction by ZEFSAII (Michael W. Deem and Ramdas Pophale) SiO2 
 PCOD9297883
Probable space group: C 2/C
;
_chemical_formula_sum "Si O2"
_cell_formula_units_Z 56
_cell_length_a 29.581859
_cell_length_b 8.833115
_cell_length_c 17.778517
_cell_angle_alpha 90.000000
_cell_angle_beta 33.564104
_cell_angle_gamma 90.000000
_cell_volume 2568.370063
_symmetry_space_group_name_H-M "C 2/C"
_symmetry_group_IT_number 15
_symmetry_cell_setting 'monoclinic'
loop_
_space_group_symop_operation_xyz
x,y,z
-x,y,1/2-z
-x,-y,-z
x,-y,1/2+z
1/2+x,1/2+y,z
1/2-x,1/2+y,1/2-z
1/2-x,1/2-y,-z
1/2+x,1/2-y,1/2+z
loop_
_atom_site_type_symbol
_atom_site_label
_atom_site_fract_x
_atom_site_fract_y
_atom_site_fract_z
Si Si1 0.812853 0.879619 0.439883
Si Si2 0.963580 0.338735 0.523639
Si Si3 0.635925 0.819859 0.510067
Si Si4 0.423025 0.154810 0.904473
Si Si5 0.670069 0.625589 0.747760
Si Si6 0.259450 0.688384 0.572247
Si Si7 0.615375 0.680702 0.375965
O O1 0.750000 0.750000 0.500000
O O2 0.877359 0.799024 0.404423
O O3 0.844116 0.940193 0.316691
O O4 0.768621 0.009309 0.548301
O O5 0.945141 0.339186 0.461178
O O6 0.879708 0.281383 0.677547
O O7 0.000000 0.500000 0.500000
O O8 0.030668 0.214200 0.452300
O O9 0.734120 0.849511 0.370208
O O10 0.610846 0.754762 0.464477
O O11 0.595220 0.978502 0.586500
O O12 0.500000 0.209027 0.750000
O O13 0.342114 0.245801 0.994006
O O14 0.637150 0.496550 0.849113
O O15 0.250000 0.750000 0.500000
O O16 0.185812 0.738341 0.728387
#
# Coordination Sequence:
#
# PCOD9297883 Si02
#       7
#     8   8   8   8   8   8   8
#     4  10  24  42  70 104 139 185 238 297 357 427
#     4  12  28  46  70 106 145 194 238 301 366 424
#     4  11  25  43  72 107 137 194 237 298 359 432
#     4  12  27  48  73 108 145 187 246 299 368 439
#     4  11  25  47  70 102 148 183 247 296 363 437
#     4  12  23  46  76 106 140 188 239 297 362 431
#     4  12  25  44  73 103 150 187 238 299 365 434
#
# _framework density 21.803709999999999
#
# number of rings (size 3 to 8) (size 9 to 14) (size 15 to 20)
#    0.000    0.571    4.286    3.000   10.000    0.000 
#    0.000    0.714    0.000    0.000    0.000    0.000 
#    0.000    0.000    0.000    0.000    0.000    0.000 
#
# Total GULP energy -156644.259168 kJ/mol
# GULP energy per Si atom -5594.437827 kJ/mol
# Density = 2.175408 g / cm^3
# Si number density = 21.803710 Si / 1000 Ang^3
#
#
#
# Elastic Constant Matrix: (Units=GPa)
#
#
# Indices 1 2 3 4 5 6 
#
# 1 129.1848 13.4284 12.8879 -0.0003 -2.3764 0.0000
# 2 13.4284 82.6938 -15.2218 -0.0017 1.3309 0.0007
# 3 12.8879 -15.2218 52.1507 -0.0009 -8.8052 0.0005
# 4 -0.0003 -0.0017 -0.0009 34.1394 0.0003 -0.2786
# 5 -2.3764 1.3309 -8.8052 0.0003 32.5185 -0.0001
# 6 0.0000 0.0007 0.0005 -0.2786 -0.0001 37.9312
#
#
#
# Elastic Compliance Matrix: (Units=1/GPa)
#
#
# Indices 1 2 3 4 5 6 
#
# 1 0.008182 -0.001798 -0.002550 0.000000 -0.000019 0.000000
# 2 -0.001798 0.013182 0.004379 0.000001 0.000515 0.000000
# 3 -0.002550 0.004379 0.022029 0.000001 0.005599 0.000000
# 4 0.000000 0.000001 0.000001 0.029293 0.000000 0.000215
# 5 -0.000019 0.000515 0.005599 0.000000 0.032245 0.000000
# 6 0.000000 0.000000 0.000000 0.000215 0.000000 0.026365
#
#
# Mechanical properties :
#
#
# Convention : Reuss Voigt Hill
#
# Bulk Modulus (GPa) = 23.01187 31.80204 27.40695
# Shear Modulus (GPa) = 34.31248 37.78013 36.04631
#
# Velocity S-wave (km/s) = 3.97129 4.16713 4.07039
# Velocity P-wave (km/s) = 5.62185 6.14578 5.88965
#
# Compressibility (1/GPa) = 0.04345584
#
# Stress axis : x y z
#
# Youngs Moduli (GPa) = 122.22328 75.85828 45.39500
#
# Poissons Ratio (x) = 0.13637 0.11575
# Poissons Ratio (y) = 0.21972 -0.19878
# Poissons Ratio (z) = 0.31165 -0.33218
#
# Static dielectric constant tensor:
#      x y z
#    x 1.808810 0.000000 -0.009940 
#    y 0.000000 1.909680 0.000000 
#    z -0.009940 0.000000 1.843160 
# 
# From -- ./inp_files/221994.got.cif
#   From: 2010.05.17/outbox.cif.g08.bks.cpg/sg15_111_cif.got.tgz:221994.got - 2010.06.03 18:47:42.
