data_PCOD9297511
_publ_section_title
;
Structure prediction by ZEFSAII (Michael W. Deem and Ramdas Pophale) SiO2 
 PCOD9297511
Probable space group: C 2/C
;
_chemical_formula_sum "Si O2"
_cell_formula_units_Z 40
_cell_length_a 20.544130
_cell_length_b 18.710824
_cell_length_c 14.623283
_cell_angle_alpha 90.000000
_cell_angle_beta 162.056012
_cell_angle_gamma 90.000000
_cell_volume 1731.805311
_symmetry_space_group_name_H-M "C 2/C"
_symmetry_group_IT_number 15
_symmetry_cell_setting 'monoclinic'
loop_
_space_group_symop_operation_xyz
x,y,z
-x,y,1/2-z
-x,-y,-z
x,-y,1/2+z
1/2+x,1/2+y,z
1/2-x,1/2+y,1/2-z
1/2-x,1/2-y,-z
1/2+x,1/2-y,1/2+z
loop_
_atom_site_type_symbol
_atom_site_label
_atom_site_fract_x
_atom_site_fract_y
_atom_site_fract_z
Si Si1 0.535176 0.660265 0.649324
Si Si2 0.655981 0.938876 0.239727
Si Si3 0.000000 0.282820 0.750000
Si Si4 0.000000 0.039070 0.750000
Si Si5 0.507145 0.334282 0.900564
Si Si6 0.452945 0.822653 0.289959
O O1 0.473132 0.730092 0.626606
O O2 0.481033 0.590980 0.637488
O O3 0.452091 0.656073 0.434129
O O4 0.790170 0.670162 0.981308
O O5 0.815978 0.892853 0.388960
O O6 0.498857 0.881041 0.071884
O O7 0.807508 0.984633 0.508350
O O8 0.500000 0.000000 0.000000
O O9 0.564932 0.250761 0.966530
O O10 0.305619 0.329175 0.561525
O O11 0.500000 0.841536 0.250000
#
# Coordination Sequence:
#
# PCOD9297511 Si02
#       6
#     8   8   4   4   8   8
#     4  10  24  40  73  97 144 187 238 301 365 434
#     4  12  28  48  74 106 153 195 243 305 369 442
#     4   9  22  44  62 108 137 184 248 292 353 448
#     4  11  26  50  62 104 153 190 248 300 361 452
#     4  11  24  46  76 106 142 191 250 305 366 434
#     4  11  25  45  75 110 142 187 246 313 361 435
#
# _framework density 23.097283999999998
#
# number of rings (size 3 to 8) (size 9 to 14) (size 15 to 20)
#    0.000    1.200    2.000    2.400   11.200    4.000 
#    0.000    0.000    0.000    0.000    0.000    0.000 
#    0.000    0.000    0.000    0.000    0.000    0.000 
#
# Total GULP energy -111552.769007 kJ/mol
# GULP energy per Si atom -5577.638450 kJ/mol
# Density = 2.304471 g / cm^3
# Si number density = 23.097284 Si / 1000 Ang^3
#
#
#
# Elastic Constant Matrix: (Units=GPa)
#
#
# Indices 1 2 3 4 5 6 
#
# 1 116.5075 39.6572 10.9885 0.0000 0.0707 0.0000
# 2 39.6572 138.8655 39.8459 0.0000 9.1166 0.0000
# 3 10.9885 39.8459 90.0618 0.0000 -0.3512 0.0000
# 4 0.0000 0.0000 0.0000 41.4867 0.0000 7.6732
# 5 0.0707 9.1166 -0.3512 0.0000 35.0207 0.0000
# 6 0.0000 0.0000 0.0000 7.6732 0.0000 33.0991
#
#
#
# Elastic Compliance Matrix: (Units=1/GPa)
#
#
# Indices 1 2 3 4 5 6 
#
# 1 0.009525 -0.002788 0.000074 0.000000 0.000707 0.000000
# 2 -0.002788 0.009235 -0.003755 0.000000 -0.002436 0.000000
# 3 0.000074 -0.003755 0.012760 0.000000 0.001105 0.000000
# 4 0.000000 0.000000 0.000000 0.025184 0.000000 -0.005838
# 5 0.000707 -0.002436 0.001105 0.000000 0.029198 0.000000
# 6 0.000000 0.000000 0.000000 -0.005838 0.000000 0.031566
#
#
# Mechanical properties :
#
#
# Convention : Reuss Voigt Hill
#
# Bulk Modulus (GPa) = 53.81573 58.49089 56.15331
# Shear Modulus (GPa) = 36.60350 38.91752 37.76051
#
# Velocity S-wave (km/s) = 3.98522 4.10925 4.04771
# Velocity P-wave (km/s) = 6.67279 6.92050 6.79777
#
# Compressibility (1/GPa) = 0.01858193
#
# Stress axis : x y z
#
# Youngs Moduli (GPa) = 104.99109 108.28687 78.36921
#
# Poissons Ratio (x) = 0.30187 -0.00580
# Poissons Ratio (y) = 0.29268 0.29428
# Poissons Ratio (z) = -0.00777 0.40663
#
# Static dielectric constant tensor:
#      x y z
#    x 1.844280 0.000000 -0.155530 
#    y 0.000000 1.988490 0.000000 
#    z -0.155530 0.000000 0.907000 
# 
# From -- ./inp_files/169254.got.cif
#   From: 2010.05.17/outbox.cif.g08.bks.cpg/sg15_85_cif.got.tgz:169254.got - 2010.06.03 18:47:42.
