data_PCOD9297879
_publ_section_title
;
Structure prediction by ZEFSAII (Michael W. Deem and Ramdas Pophale) SiO2 
 PCOD9297879
Probable space group: C 2/C
;
_chemical_formula_sum "Si O2"
_cell_formula_units_Z 28
_cell_length_a 5.285926
_cell_length_b 15.454422
_cell_length_c 14.837519
_cell_angle_alpha 90.000000
_cell_angle_beta 109.294080
_cell_angle_gamma 90.000000
_cell_volume 1144.013782
_symmetry_space_group_name_H-M "C 2/C"
_symmetry_group_IT_number 15
_symmetry_cell_setting 'monoclinic'
loop_
_space_group_symop_operation_xyz
x,y,z
-x,y,1/2-z
-x,-y,-z
x,-y,1/2+z
1/2+x,1/2+y,z
1/2-x,1/2+y,1/2-z
1/2-x,1/2-y,-z
1/2+x,1/2-y,1/2+z
loop_
_atom_site_type_symbol
_atom_site_label
_atom_site_fract_x
_atom_site_fract_y
_atom_site_fract_z
Si Si1 0.357706 0.816215 0.645148
Si Si2 0.436454 0.683970 0.956133
Si Si3 0.500000 0.014345 0.250000
Si Si4 0.904622 0.572651 0.915988
O O1 0.500000 0.776558 0.750000
O O2 0.551034 0.776622 0.592000
O O3 0.069016 0.799210 0.569272
O O4 0.339021 0.917270 0.668959
O O5 0.164033 0.632020 0.927955
O O6 0.653620 0.624022 0.928236
O O7 0.659392 0.962755 0.192372
O O8 0.000000 0.500000 0.000000
#
# Coordination Sequence:
#
# PCOD9297879 Si02
#       4
#     8   8   4   8
#     4   9  22  46  67 103 135 184 230 281 336 416
#     4  11  25  47  71  96 142 184 225 282 346 408
#     4  10  24  42  70 104 138 178 230 286 340 406
#     4  12  25  46  69 104 137 180 227 289 345 406
#
# _framework density 24.47523
#
# number of rings (size 3 to 8) (size 9 to 14) (size 15 to 20)
#    0.857    0.571    2.857    0.857    4.000    4.571 
#    0.000   10.000    0.000    0.000    0.000    0.000 
#    0.000    0.000    0.000    0.000    0.000    0.000 
#
# Total GULP energy -78009.888295 kJ/mol
# GULP energy per Si atom -5572.134878 kJ/mol
# Density = 2.441952 g / cm^3
# Si number density = 24.475230 Si / 1000 Ang^3
#
#
#
# Elastic Constant Matrix: (Units=GPa)
#
#
# Indices 1 2 3 4 5 6 
#
# 1 172.5808 78.5959 46.1230 0.0000 -25.6639 0.0000
# 2 78.5959 109.2668 47.6613 0.0000 -22.3675 0.0000
# 3 46.1230 47.6613 159.5572 0.0000 -9.1745 0.0000
# 4 0.0000 0.0000 0.0000 -24.8412 0.0000 -10.1774
# 5 -25.6639 -22.3675 -9.1745 0.0000 20.9308 0.0000
# 6 0.0000 0.0000 0.0000 -10.1774 0.0000 20.7392
#
#
#
# Elastic Compliance Matrix: (Units=1/GPa)
#
#
# Indices 1 2 3 4 5 6 
#
# 1 0.009143 -0.005125 -0.000803 0.000000 0.005382 0.000000
# 2 -0.005125 0.016005 -0.002746 0.000000 0.009616 0.000000
# 3 -0.000803 -0.002746 0.007278 0.000000 -0.000729 0.000000
# 4 0.000000 0.000000 0.000000 -0.033517 0.000000 -0.016448
# 5 0.005382 0.009616 -0.000729 0.000000 0.064332 0.000000
# 6 0.000000 0.000000 0.000000 -0.016448 0.000000 0.040146
#
#
# Mechanical properties :
#
#
# Convention : Reuss Voigt Hill
#
# Bulk Modulus (GPa) = 66.32283 87.35171 76.83727
# Shear Modulus (GPa) = 39.75802 21.30072 30.52937
#
# Velocity S-wave (km/s) = 4.03478 2.95328 3.53563
# Velocity P-wave (km/s) = 6.99019 6.88451 6.93755
#
# Compressibility (1/GPa) = 0.01507776
#
# Stress axis : x y z
#
# Youngs Moduli (GPa) = 109.37065 62.48238 137.40353
#
# Poissons Ratio (x) = 0.32021 0.11029
# Poissons Ratio (y) = 0.56050 0.37736
# Poissons Ratio (z) = 0.08779 0.17160
#
# Static dielectric constant tensor:
#      x y z
#    x 1.941020 0.000000 -0.018750 
#    y 0.000000 2.057670 0.000000 
#    z -0.018750 0.000000 1.989150 
# 
# From -- ./inp_files/127999.got.cif
#   From: 2010.05.17/outbox.cif.g08.bks.cpg/sg15_64_cif.got.tgz:127999.got - 2010.06.03 18:47:42.
