data_PCOD9297618
_publ_section_title
;
Structure prediction by ZEFSAII (Michael W. Deem and Ramdas Pophale) SiO2 
 PCOD9297618
Probable space group: C 2/C
;
_chemical_formula_sum "Si O2"
_cell_formula_units_Z 56
_cell_length_a 21.751911
_cell_length_b 19.575206
_cell_length_c 18.533952
_cell_angle_alpha 90.000000
_cell_angle_beta 160.394775
_cell_angle_gamma 90.000000
_cell_volume 2647.968584
_symmetry_space_group_name_H-M "C 2/C"
_symmetry_group_IT_number 15
_symmetry_cell_setting 'monoclinic'
loop_
_space_group_symop_operation_xyz
x,y,z
-x,y,1/2-z
-x,-y,-z
x,-y,1/2+z
1/2+x,1/2+y,z
1/2-x,1/2+y,1/2-z
1/2-x,1/2-y,-z
1/2+x,1/2-y,1/2+z
loop_
_atom_site_type_symbol
_atom_site_label
_atom_site_fract_x
_atom_site_fract_y
_atom_site_fract_z
Si Si1 0.391676 0.956269 0.062559
Si Si2 0.546194 0.788551 0.013834
Si Si3 0.811098 0.548327 0.168205
Si Si4 0.056467 0.151521 0.533240
Si Si5 0.368433 0.191309 0.168538
Si Si6 0.510955 0.431560 0.838754
Si Si7 0.205466 0.598402 0.198765
O O1 0.500000 0.923243 0.250000
O O2 0.505637 0.023547 0.168936
O O3 0.183355 0.965148 0.856053
O O4 0.378684 0.916228 0.972580
O O5 0.734712 0.830902 0.216566
O O6 0.552829 0.721864 0.071510
O O7 0.479893 0.775233 0.858776
O O8 0.387859 0.833189 0.875311
O O9 0.768427 0.624485 0.091847
O O10 0.841702 0.548218 0.288136
O O11 0.656694 0.491521 0.987490
O O12 0.058057 0.120283 0.455078
O O13 0.926929 0.100375 0.435823
O O14 0.500000 0.166525 0.250000
O O15 0.250000 0.250000 0.000000
O O16 0.500000 0.393833 0.750000
#
# Coordination Sequence:
#
# PCOD9297618 Si02
#       7
#     8   8   8   8   8   8   8
#     4  11  22  42  68  99 139 174 226 287 352 408
#     4  11  22  44  69  95 141 178 232 287 342 412
#     4  11  24  45  68  98 138 183 231 285 351 413
#     4  11  23  42  70  98 134 183 229 286 350 410
#     4  11  26  45  67 102 137 184 229 279 345 418
#     4  11  25  44  68 102 137 178 232 295 351 417
#     4  10  24  41  69 101 130 181 232 285 347 423
#
# _framework density 21.148287
#
# number of rings (size 3 to 8) (size 9 to 14) (size 15 to 20)
#    0.000    1.143    2.857    2.571    2.000    6.286 
#    0.000    2.857    0.000    0.000    0.000    0.000 
#    0.000    0.000    0.000    0.000    0.000    0.000 
#
# Total GULP energy -156167.595540 kJ/mol
# GULP energy per Si atom -5577.414126 kJ/mol
# Density = 2.110015 g / cm^3
# Si number density = 21.148287 Si / 1000 Ang^3
#
#
#
# Elastic Constant Matrix: (Units=GPa)
#
#
# Indices 1 2 3 4 5 6 
#
# 1 166.2616 49.6153 63.1138 -0.0005 -17.1600 -0.0010
# 2 49.6153 66.6037 46.4534 0.0022 -13.2034 0.0013
# 3 63.1138 46.4534 119.3235 -0.0038 -7.8552 -0.0055
# 4 -0.0005 0.0022 -0.0038 26.3953 0.0006 -5.3112
# 5 -17.1600 -13.2034 -7.8552 0.0006 33.6986 -0.0005
# 6 -0.0010 0.0013 -0.0055 -5.3112 -0.0005 19.8005
#
#
#
# Elastic Compliance Matrix: (Units=1/GPa)
#
#
# Indices 1 2 3 4 5 6 
#
# 1 0.008474 -0.003931 -0.002812 0.000000 0.002119 0.000000
# 2 -0.003931 0.023842 -0.006824 -0.000004 0.005749 -0.000005
# 3 -0.002812 -0.006824 0.012445 0.000003 -0.001205 0.000005
# 4 0.000000 -0.000004 0.000003 0.040047 -0.000001 0.010742
# 5 0.002119 0.005749 -0.001205 -0.000001 0.032726 0.000000
# 6 0.000000 -0.000005 0.000005 0.010742 0.000000 0.053385
#
#
# Mechanical properties :
#
#
# Convention : Reuss Voigt Hill
#
# Bulk Modulus (GPa) = 56.73285 74.50598 65.61941
# Shear Modulus (GPa) = 24.51832 28.84596 26.68214
#
# Velocity S-wave (km/s) = 3.40862 3.69722 3.55585
# Velocity P-wave (km/s) = 6.50969 7.31660 6.92491
#
# Compressibility (1/GPa) = 0.01762647
#
# Stress axis : x y z
#
# Youngs Moduli (GPa) = 118.00828 41.94342 80.35091
#
# Poissons Ratio (x) = 0.16488 0.22597
# Poissons Ratio (y) = 0.46389 0.54832
# Poissons Ratio (z) = 0.33187 0.28622
#
# Static dielectric constant tensor:
#      x y z
#    x 1.765190 0.000000 -0.006920 
#    y 0.000000 1.836500 0.000000 
#    z -0.006920 0.000000 1.804040 
# 
# From -- ./inp_files/216669.got.cif
#   From: 2010.05.17/outbox.cif.g08.bks.cpg/sg15_109_cif.got.tgz:216669.got - 2010.06.03 18:47:42.
