data_PCOD9297023
_publ_section_title
;
Structure prediction by ZEFSAII (Michael W. Deem and Ramdas Pophale) SiO2 
 PCOD9297023
Probable space group: C 2/C
;
_chemical_formula_sum "Si O2"
_cell_formula_units_Z 48
_cell_length_a 5.200358
_cell_length_b 19.707947
_cell_length_c 17.692262
_cell_angle_alpha 90.000000
_cell_angle_beta 94.751484
_cell_angle_gamma 90.000000
_cell_volume 1807.019772
_symmetry_space_group_name_H-M "C 2/C"
_symmetry_group_IT_number 15
_symmetry_cell_setting 'monoclinic'
loop_
_space_group_symop_operation_xyz
x,y,z
-x,y,1/2-z
-x,-y,-z
x,-y,1/2+z
1/2+x,1/2+y,z
1/2-x,1/2+y,1/2-z
1/2-x,1/2-y,-z
1/2+x,1/2-y,1/2+z
loop_
_atom_site_type_symbol
_atom_site_label
_atom_site_fract_x
_atom_site_fract_y
_atom_site_fract_z
Si Si1 0.289967 0.623669 0.877620
Si Si2 0.315564 0.458852 0.050611
Si Si3 0.682668 0.732396 0.411165
Si Si4 0.411924 0.900612 0.957175
Si Si5 0.000000 0.463120 0.250000
Si Si6 0.500000 0.444810 0.750000
Si Si7 0.277297 0.687952 0.300569
O O1 0.553590 0.581994 0.879223
O O2 0.297419 0.703801 0.868496
O O3 0.213977 0.611044 0.963314
O O4 0.092665 0.586182 0.819090
O O5 0.204300 0.402128 0.991178
O O6 0.500000 0.500000 0.000000
O O7 0.135255 0.522135 0.071081
O O8 0.750000 0.750000 0.500000
O O9 0.825320 0.660004 0.401794
O O10 0.379974 0.722972 0.381074
O O11 0.247207 0.509020 0.233736
O O12 0.626704 0.391126 0.692680
O O13 0.500000 0.716874 0.250000
O O14 0.000000 0.692236 0.250000
#
# Coordination Sequence:
#
# PCOD9297023 Si02
#       7
#     8   8   8   8   4   4   8
#     4  10  24  41  61  99 137 184 231 296 366 432
#     4   9  19  37  64  95 131 174 233 292 357 414
#     4  10  23  47  70 107 147 192 246 300 377 448
#     4   9  20  40  66  97 132 182 234 298 354 430
#     4  12  26  43  74 101 148 186 248 302 374 440
#     4  10  24  45  72 109 134 198 248 306 360 444
#     4  10  23  48  75 107 142 193 249 304 363 446
#
# _framework density 26.563074
#
# number of rings (size 3 to 8) (size 9 to 14) (size 15 to 20)
#    0.500    1.667    0.833    0.000    5.833    3.333 
#   16.500    0.000    0.000    0.000    0.000    0.000 
#    0.000    0.000    0.000    0.000    0.000    0.000 
#
# Total GULP energy -133745.624926 kJ/mol
# GULP energy per Si atom -5572.734372 kJ/mol
# Density = 2.650262 g / cm^3
# Si number density = 26.563074 Si / 1000 Ang^3
#
#
#
# Elastic Constant Matrix: (Units=GPa)
#
#
# Indices 1 2 3 4 5 6 
#
# 1 111.8183 38.6356 68.4772 0.0000 55.0057 0.0000
# 2 38.6356 194.1475 97.8628 0.0000 47.1291 0.0000
# 3 68.4772 97.8628 156.7212 0.0000 48.9455 0.0000
# 4 0.0000 0.0000 0.0000 46.7535 0.0000 10.0669
# 5 55.0057 47.1291 48.9455 0.0000 59.1978 0.0000
# 6 0.0000 0.0000 0.0000 10.0669 0.0000 17.6271
#
#
#
# Elastic Compliance Matrix: (Units=1/GPa)
#
#
# Indices 1 2 3 4 5 6 
#
# 1 0.018542 0.002458 -0.004913 0.000000 -0.015124 0.000000
# 2 0.002458 0.008213 -0.004647 0.000000 -0.004980 0.000000
# 3 -0.004913 -0.004647 0.011928 0.000000 -0.001597 0.000000
# 4 0.000000 0.000000 0.000000 0.024388 0.000000 -0.013928
# 5 -0.015124 -0.004980 -0.001597 0.000000 0.036231 0.000000
# 6 0.000000 0.000000 0.000000 -0.013928 0.000000 0.064685
#
#
# Mechanical properties :
#
#
# Convention : Reuss Voigt Hill
#
# Bulk Modulus (GPa) = 40.85206 96.95978 68.90592
# Shear Modulus (GPa) = 26.83096 41.89645 34.36371
#
# Velocity S-wave (km/s) = 3.18163 3.97576 3.60066
# Velocity P-wave (km/s) = 5.37677 7.59319 6.57899
#
# Compressibility (1/GPa) = 0.02447857
#
# Stress axis : x y z
#
# Youngs Moduli (GPa) = 53.93029 121.75863 83.83421
#
# Poissons Ratio (x) = -0.29928 0.41192
# Poissons Ratio (y) = -0.13256 0.38959
# Poissons Ratio (z) = 0.26498 0.56583
#
# Static dielectric constant tensor:
#      x y z
#    x 2.080930 0.000000 0.244910 
#    y 0.000000 1.869080 0.000000 
#    z 0.244910 0.000000 2.018790 
# 
# From -- ./inp_files/261265.got.cif
#   From: 2010.05.17/outbox.cif.g08.bks.cpg/sg15_131_cif.got.tgz:261265.got - 2010.06.03 18:47:42.
