data_PCOD9297828
_publ_section_title
;
Structure prediction by ZEFSAII (Michael W. Deem and Ramdas Pophale) SiO2 
 PCOD9297828
Probable space group: C 2/C
;
_chemical_formula_sum "Si O2"
_cell_formula_units_Z 60
_cell_length_a 24.384248
_cell_length_b 12.798718
_cell_length_c 9.096976
_cell_angle_alpha 90.000000
_cell_angle_beta 87.000706
_cell_angle_gamma 90.000000
_cell_volume 2835.159997
_symmetry_space_group_name_H-M "C 2/C"
_symmetry_group_IT_number 15
_symmetry_cell_setting 'monoclinic'
loop_
_space_group_symop_operation_xyz
x,y,z
-x,y,1/2-z
-x,-y,-z
x,-y,1/2+z
1/2+x,1/2+y,z
1/2-x,1/2+y,1/2-z
1/2-x,1/2-y,-z
1/2+x,1/2-y,1/2+z
loop_
_atom_site_type_symbol
_atom_site_label
_atom_site_fract_x
_atom_site_fract_y
_atom_site_fract_z
Si Si1 0.805531 0.214216 0.408094
Si Si2 0.200341 0.153263 0.419316
Si Si3 0.378448 0.511173 0.462327
Si Si4 0.818826 0.356017 0.903026
Si Si5 0.573110 0.950194 0.485090
Si Si6 0.938098 0.119211 0.700265
Si Si7 0.000000 0.476187 0.250000
Si Si8 0.117545 0.330858 0.893453
O O1 0.750000 0.250000 0.500000
O O2 0.796611 0.215158 0.234766
O O3 0.851986 0.290766 0.465252
O O4 0.832026 0.099527 0.436664
O O5 0.151206 0.072479 0.428946
O O6 0.190148 0.235614 0.550813
O O7 0.258695 0.096037 0.433979
O O8 0.428130 0.564677 0.544008
O O9 0.401417 0.446761 0.320876
O O10 0.868110 0.400146 0.994239
O O11 0.837674 0.366551 0.732905
O O12 0.538262 0.907915 0.352868
O O13 0.537785 0.953432 0.638470
O O14 0.581473 0.071089 0.442123
O O15 0.914967 0.236144 0.679042
O O16 0.000000 0.120953 0.750000
#
# Coordination Sequence:
#
# PCOD9297828 Si02
#       8
#     8   8   8   8   8   8   4   8
#     4  11  24  42  67  99 138 171 224 272 340 420
#     4  11  24  43  68 101 136 178 222 282 343 420
#     4  11  23  44  69  99 135 175 225 285 344 404
#     4  11  24  41  68  98 136 180 226 276 347 418
#     4  11  24  45  66  98 138 181 234 287 341 414
#     4  11  24  43  71  96 132 180 233 290 341 407
#     4  10  24  42  68  92 134 184 232 280 342 396
#     4  11  24  42  65 100 132 183 225 279 344 407
#
# _framework density 21.162827
#
# number of rings (size 3 to 8) (size 9 to 14) (size 15 to 20)
#    0.000    1.067    5.333    0.400    4.667    0.000 
#    0.000    0.000    4.400    0.000    0.000    0.000 
#    0.000    0.000    0.000    0.000    0.000    0.000 
#
# Total GULP energy -167524.111562 kJ/mol
# GULP energy per Si atom -5584.137052 kJ/mol
# Density = 2.111466 g / cm^3
# Si number density = 21.162827 Si / 1000 Ang^3
#
#
#
# Elastic Constant Matrix: (Units=GPa)
#
#
# Indices 1 2 3 4 5 6 
#
# 1 125.1055 29.3328 36.2127 0.0000 12.2197 0.0000
# 2 29.3328 56.8529 10.6407 0.0000 -8.0079 0.0000
# 3 36.2127 10.6407 97.1164 0.0000 7.0055 0.0000
# 4 0.0000 0.0000 0.0000 23.9885 0.0000 3.8488
# 5 12.2197 -8.0079 7.0055 0.0000 37.8140 0.0000
# 6 0.0000 0.0000 0.0000 3.8488 0.0000 25.5183
#
#
#
# Elastic Compliance Matrix: (Units=1/GPa)
#
#
# Indices 1 2 3 4 5 6 
#
# 1 0.010538 -0.005429 -0.003047 0.000000 -0.003991 0.000000
# 2 -0.005429 0.021445 -0.000790 0.000000 0.006442 0.000000
# 3 -0.003047 -0.000790 0.011616 0.000000 -0.001335 0.000000
# 4 0.000000 0.000000 0.000000 0.042720 0.000000 -0.006443
# 5 -0.003991 0.006442 -0.001335 0.000000 0.029346 0.000000
# 6 0.000000 0.000000 0.000000 -0.006443 0.000000 0.040159
#
#
# Mechanical properties :
#
#
# Convention : Reuss Voigt Hill
#
# Bulk Modulus (GPa) = 39.89156 47.93858 43.91507
# Shear Modulus (GPa) = 27.36547 30.99010 29.17778
#
# Velocity S-wave (km/s) = 3.59986 3.83085 3.71715
# Velocity P-wave (km/s) = 6.01410 6.50144 6.26251
#
# Compressibility (1/GPa) = 0.02506796
#
# Stress axis : x y z
#
# Youngs Moduli (GPa) = 94.89702 46.62999 86.08957
#
# Poissons Ratio (x) = 0.25314 0.26228
# Poissons Ratio (y) = 0.51517 0.06802
# Poissons Ratio (z) = 0.28912 0.03684
#
# Static dielectric constant tensor:
#      x y z
#    x 1.803480 0.000000 0.028000 
#    y 0.000000 1.740130 0.000000 
#    z 0.028000 0.000000 1.776640 
# 
# From -- ./inp_files/65498.got.cif
#   From: 2010.05.17/outbox.cif.g08.bks.cpg/sg15_33_cif.got.tgz:65498.got - 2010.06.03 18:47:42.
