data_PCOD9297082
_publ_section_title
;
Structure prediction by ZEFSAII (Michael W. Deem and Ramdas Pophale) SiO2 
 PCOD9297082
Probable space group: C 2/C
;
_chemical_formula_sum "Si O2"
_cell_formula_units_Z 40
_cell_length_a 11.909115
_cell_length_b 13.729148
_cell_length_c 10.503170
_cell_angle_alpha 90.000000
_cell_angle_beta 114.143853
_cell_angle_gamma 90.000000
_cell_volume 1567.063230
_symmetry_space_group_name_H-M "C 2/C"
_symmetry_group_IT_number 15
_symmetry_cell_setting 'monoclinic'
loop_
_space_group_symop_operation_xyz
x,y,z
-x,y,1/2-z
-x,-y,-z
x,-y,1/2+z
1/2+x,1/2+y,z
1/2-x,1/2+y,1/2-z
1/2-x,1/2-y,-z
1/2+x,1/2-y,1/2+z
loop_
_atom_site_type_symbol
_atom_site_label
_atom_site_fract_x
_atom_site_fract_y
_atom_site_fract_z
Si Si1 0.604714 0.899262 0.650461
Si Si2 0.044941 0.911067 0.436549
Si Si3 0.290996 0.020641 0.557828
Si Si4 0.300070 0.679990 0.812407
Si Si5 0.631768 0.212428 0.524344
O O1 0.624450 0.951618 0.523114
O O2 0.679101 0.796066 0.679599
O O3 0.465459 0.855611 0.592429
O O4 0.652272 0.968046 0.788458
O O5 0.065969 0.813352 0.527808
O O6 0.920417 0.873448 0.307618
O O7 0.179206 0.951314 0.459612
O O8 0.000000 0.000000 0.500000
O O9 0.229851 0.123207 0.572903
O O10 0.180915 0.663034 0.671878
O O11 0.750000 0.250000 0.500000
#
# Coordination Sequence:
#
# PCOD9297082 Si02
#       5
#     8   8   8   8   8
#     4  11  26  49  80 120 162 211 267 335 406 479
#     4   9  21  46  72 106 148 204 259 322 394 470
#     4  11  24  49  79 121 160 207 270 335 403 478
#     4  10  23  47  76 111 160 214 265 329 399 482
#     4  11  25  48  75 111 156 204 264 327 395 483
#
# _framework density 25.525454
#
# number of rings (size 3 to 8) (size 9 to 14) (size 15 to 20)
#    0.000    1.600    2.000    0.600    2.800    4.800 
#   10.800    3.000    0.000    0.000    0.000    0.000 
#    0.000    0.000    0.000    0.000    0.000    0.000 
#
# Total GULP energy -111636.185456 kJ/mol
# GULP energy per Si atom -5581.809273 kJ/mol
# Density = 2.546736 g / cm^3
# Si number density = 25.525454 Si / 1000 Ang^3
#
#
#
# Elastic Constant Matrix: (Units=GPa)
#
#
# Indices 1 2 3 4 5 6 
#
# 1 134.4149 54.6153 49.0756 0.0000 1.1633 0.0000
# 2 54.6153 202.8705 67.2100 0.0000 -8.8552 0.0000
# 3 49.0756 67.2100 169.6623 0.0000 18.9030 0.0000
# 4 0.0000 0.0000 0.0000 35.6118 0.0000 3.6057
# 5 1.1633 -8.8552 18.9030 0.0000 36.6396 0.0000
# 6 0.0000 0.0000 0.0000 3.6057 0.0000 49.6015
#
#
#
# Elastic Compliance Matrix: (Units=1/GPa)
#
#
# Indices 1 2 3 4 5 6 
#
# 1 0.008837 -0.001738 -0.001899 0.000000 0.000279 0.000000
# 2 -0.001738 0.006276 -0.002290 0.000000 0.002754 0.000000
# 3 -0.001899 -0.002290 0.007857 0.000000 -0.004547 0.000000
# 4 0.000000 0.000000 0.000000 0.028289 0.000000 -0.002056
# 5 0.000279 0.002754 -0.004547 0.000000 0.030295 0.000000
# 6 0.000000 0.000000 0.000000 -0.002056 0.000000 0.020310
#
#
# Mechanical properties :
#
#
# Convention : Reuss Voigt Hill
#
# Bulk Modulus (GPa) = 89.95878 94.30550 92.13214
# Shear Modulus (GPa) = 42.58106 46.77367 44.67737
#
# Velocity S-wave (km/s) = 4.08877 4.28534 4.18821
# Velocity P-wave (km/s) = 7.59012 7.84292 7.71756
#
# Compressibility (1/GPa) = 0.01111620
#
# Stress axis : x y z
#
# Youngs Moduli (GPa) = 113.16668 159.33616 127.27210
#
# Poissons Ratio (x) = 0.27688 0.24166
# Poissons Ratio (y) = 0.19665 0.29150
# Poissons Ratio (z) = 0.21487 0.36494
#
# Static dielectric constant tensor:
#      x y z
#    x 2.044240 0.000000 0.072780 
#    y 0.000000 1.869190 0.000000 
#    z 0.072780 0.000000 2.031160 
# 
# From -- ./inp_files/85987.got.cif
#   From: 2010.05.17/outbox.cif.g08.bks.cpg/sg15_43_cif.got.tgz:85987.got - 2010.06.03 18:47:42.
