data_PCOD9297095
_publ_section_title
;
Structure prediction by ZEFSAII (Michael W. Deem and Ramdas Pophale) SiO2 
 PCOD9297095
Probable space group: C 2/C
;
_chemical_formula_sum "Si O2"
_cell_formula_units_Z 56
_cell_length_a 16.937568
_cell_length_b 19.696288
_cell_length_c 11.075134
_cell_angle_alpha 90.000000
_cell_angle_beta 33.655885
_cell_angle_gamma 90.000000
_cell_volume 2047.641141
_symmetry_space_group_name_H-M "C 2/C"
_symmetry_group_IT_number 15
_symmetry_cell_setting 'monoclinic'
loop_
_space_group_symop_operation_xyz
x,y,z
-x,y,1/2-z
-x,-y,-z
x,-y,1/2+z
1/2+x,1/2+y,z
1/2-x,1/2+y,1/2-z
1/2-x,1/2-y,-z
1/2+x,1/2-y,1/2+z
loop_
_atom_site_type_symbol
_atom_site_label
_atom_site_fract_x
_atom_site_fract_y
_atom_site_fract_z
Si Si1 0.824145 0.960936 0.080156
Si Si2 0.833305 0.330926 0.805556
Si Si3 0.588676 0.398440 0.960753
Si Si4 0.803646 0.857285 0.919257
Si Si5 0.909203 0.716753 0.675495
Si Si6 0.434444 0.978052 0.709598
Si Si7 0.723652 0.345321 0.202084
O O1 0.870036 0.893156 0.952222
O O2 0.745430 0.924511 0.294476
O O3 0.927858 0.022927 0.978917
O O4 0.723912 0.994437 0.107858
O O5 0.689228 0.356422 0.923302
O O6 0.927887 0.397457 0.710975
O O7 0.936823 0.289205 0.583664
O O8 0.792435 0.312962 0.994441
O O9 0.676851 0.401642 0.724333
O O10 0.441861 0.359421 0.122797
O O11 0.640586 0.840090 0.164212
O O12 0.878178 0.786791 0.783995
O O13 0.792393 0.701939 0.718865
O O14 0.500000 0.002623 0.750000
O O15 0.500000 0.000000 0.500000
#
# Coordination Sequence:
#
# PCOD9297095 Si02
#       7
#     8   8   8   8   8   8   8
#     4  10  24  42  73 109 158 219 264 337 402 491
#     4  11  24  44  72 114 157 209 264 330 411 494
#     4  11  26  43  75 115 163 218 264 333 412 488
#     4  10  24  48  74 114 156 203 287 331 411 492
#     4  10  23  47  81 109 154 219 265 353 404 478
#     4  11  22  37  66 107 157 199 260 332 410 488
#     4  11  23  48  72 115 160 209 272 328 415 495
#
# _framework density 27.348541000000001
#
# number of rings (size 3 to 8) (size 9 to 14) (size 15 to 20)
#    0.000    1.429    0.000    4.714    8.000    4.000 
#    5.143    8.571    0.000    0.000    0.000    0.000 
#    0.000    0.000    0.000    0.000    0.000    0.000 
#
# Total GULP energy -156506.386683 kJ/mol
# GULP energy per Si atom -5589.513810 kJ/mol
# Density = 2.728629 g / cm^3
# Si number density = 27.348541 Si / 1000 Ang^3
#
#
#
# Elastic Constant Matrix: (Units=GPa)
#
#
# Indices 1 2 3 4 5 6 
#
# 1 170.3101 38.2789 47.1598 -0.0001 -0.3604 -0.0001
# 2 38.2789 144.3608 29.6825 0.0001 6.5312 -0.0002
# 3 47.1598 29.6825 143.1650 0.0002 22.6168 0.0000
# 4 -0.0001 0.0001 0.0002 30.3996 0.0001 11.9493
# 5 -0.3604 6.5312 22.6168 0.0001 39.9386 -0.0003
# 6 -0.0001 -0.0002 0.0000 11.9493 -0.0003 43.5353
#
#
#
# Elastic Compliance Matrix: (Units=1/GPa)
#
#
# Indices 1 2 3 4 5 6 
#
# 1 0.006800 -0.001423 -0.002187 0.000000 0.001533 0.000000
# 2 -0.001423 0.007538 -0.000986 0.000000 -0.000687 0.000000
# 3 -0.002187 -0.000986 0.008662 0.000000 -0.004764 0.000000
# 4 0.000000 0.000000 0.000000 0.036873 0.000000 -0.010121
# 5 0.001533 -0.000687 -0.004764 0.000000 0.027863 0.000000
# 6 0.000000 0.000000 0.000000 -0.010121 0.000000 0.025748
#
#
# Mechanical properties :
#
#
# Convention : Reuss Voigt Hill
#
# Bulk Modulus (GPa) = 72.41351 76.45315 74.43333
# Shear Modulus (GPa) = 39.28382 45.62233 42.45308
#
# Velocity S-wave (km/s) = 3.79412 4.08877 3.94420
# Velocity P-wave (km/s) = 6.76234 7.09271 6.92949
#
# Compressibility (1/GPa) = 0.01380958
#
# Stress axis : x y z
#
# Youngs Moduli (GPa) = 147.05172 132.65916 115.44168
#
# Poissons Ratio (x) = 0.18875 0.25250
# Poissons Ratio (y) = 0.20923 0.11378
# Poissons Ratio (z) = 0.32163 0.13075
#
# Static dielectric constant tensor:
#      x y z
#    x 2.121370 0.000010 -0.112840 
#    y 0.000010 4.774090 0.000080 
#    z -0.112840 0.000080 2.041740 
# 
# From -- ./inp_files/119058.got.cif
#   From: 2010.05.17/outbox.cif.g08.bks.cpg/sg15_60_cif.got.tgz:119058.got - 2010.06.03 18:47:42.
