data_PCOD9297463
_publ_section_title
;
Structure prediction by ZEFSAII (Michael W. Deem and Ramdas Pophale) SiO2 
 PCOD9297463
Probable space group: C 2/C
;
_chemical_formula_sum "Si O2"
_cell_formula_units_Z 32
_cell_length_a 8.990475
_cell_length_b 4.826723
_cell_length_c 27.094880
_cell_angle_alpha 90.000000
_cell_angle_beta 83.626178
_cell_angle_gamma 90.000000
_cell_volume 1168.501917
_symmetry_space_group_name_H-M "C 2/C"
_symmetry_group_IT_number 15
_symmetry_cell_setting 'monoclinic'
loop_
_space_group_symop_operation_xyz
x,y,z
-x,y,1/2-z
-x,-y,-z
x,-y,1/2+z
1/2+x,1/2+y,z
1/2-x,1/2+y,1/2-z
1/2-x,1/2-y,-z
1/2+x,1/2-y,1/2+z
loop_
_atom_site_type_symbol
_atom_site_label
_atom_site_fract_x
_atom_site_fract_y
_atom_site_fract_z
Si Si1 0.200571 0.259330 0.123779
Si Si2 0.831558 0.016208 0.769004
Si Si3 0.800916 0.965074 0.472306
Si Si4 0.091862 0.780786 0.919704
O O1 0.176514 0.117842 0.176689
O O2 0.278238 0.023245 0.084878
O O3 0.306689 0.522869 0.118686
O O4 0.044534 0.366520 0.105780
O O5 0.776466 0.776192 0.734117
O O6 0.000000 0.102833 0.750000
O O7 0.750000 0.250000 0.500000
O O8 0.966036 0.978735 0.444729
O O9 0.664033 0.728429 0.475552
#
# Coordination Sequence:
#
# PCOD9297463 Si02
#       4
#     8   8   8   8
#     4  10  26  42  70  94 137 174 228 284 345 412
#     4  12  28  47  74 105 141 185 239 296 362 426
#     4  10  24  42  66  99 135 178 224 275 339 409
#     4  10  24  40  68  92 134 173 225 272 341 400
#
# _framework density 27.385493
#
# number of rings (size 3 to 8) (size 9 to 14) (size 15 to 20)
#    1.500    0.000    0.000    3.000   10.500    2.000 
#    0.000    0.000    0.000    0.000    0.000    0.000 
#    0.000    0.000    0.000    0.000    0.000    0.000 
#
# Total GULP energy -89557.975857 kJ/mol
# GULP energy per Si atom -5597.373491 kJ/mol
# Density = 2.732316 g / cm^3
# Si number density = 27.385493 Si / 1000 Ang^3
#
#
#
# Elastic Constant Matrix: (Units=GPa)
#
#
# Indices 1 2 3 4 5 6 
#
# 1 218.7948 41.5037 47.5240 0.0000 25.0066 0.0000
# 2 41.5037 142.1045 21.3893 0.0000 2.4857 0.0000
# 3 47.5240 21.3893 154.6664 0.0000 -4.3742 0.0000
# 4 0.0000 0.0000 0.0000 41.1446 0.0000 -8.0351
# 5 25.0066 2.4857 -4.3742 0.0000 35.6641 0.0000
# 6 0.0000 0.0000 0.0000 -8.0351 0.0000 15.1664
#
#
#
# Elastic Compliance Matrix: (Units=1/GPa)
#
#
# Indices 1 2 3 4 5 6 
#
# 1 0.005650 -0.001328 -0.001668 0.000000 -0.004074 0.000000
# 2 -0.001328 0.007513 -0.000622 0.000000 0.000331 0.000000
# 3 -0.001668 -0.000622 0.007123 0.000000 0.002086 0.000000
# 4 0.000000 0.000000 0.000000 0.027109 0.000000 0.014362
# 5 -0.004074 0.000331 0.002086 0.000000 0.031129 0.000000
# 6 0.000000 0.000000 0.000000 0.014362 0.000000 0.073544
#
#
# Mechanical properties :
#
#
# Convention : Reuss Voigt Hill
#
# Bulk Modulus (GPa) = 76.61992 81.82217 79.22104
# Shear Modulus (GPa) = 30.55246 45.40494 37.97870
#
# Velocity S-wave (km/s) = 3.34375 4.07626 3.72804
# Velocity P-wave (km/s) = 6.55336 7.21785 6.89362
#
# Compressibility (1/GPa) = 0.01305144
#
# Stress axis : x y z
#
# Youngs Moduli (GPa) = 176.98377 133.10821 140.39188
#
# Poissons Ratio (x) = 0.17676 0.23413
# Poissons Ratio (y) = 0.23503 0.08726
# Poissons Ratio (z) = 0.29516 0.08273
#
# Static dielectric constant tensor:
#      x y z
#    x 2.176010 0.000000 0.163230 
#    y 0.000000 2.093340 0.000000 
#    z 0.163230 0.000000 2.250900 
# 
# From -- ./inp_files/306231.got.cif
#   From: 2010.05.17/outbox.cif.g08.bks.cpg/sg15_154_cif.got.tgz:306231.got - 2010.06.03 18:47:42.
