data_PCOD9297537
_publ_section_title
;
Structure prediction by ZEFSAII (Michael W. Deem and Ramdas Pophale) SiO2 
 PCOD9297537
Probable space group: C 2/C
;
_chemical_formula_sum "Si O2"
_cell_formula_units_Z 40
_cell_length_a 16.633257
_cell_length_b 14.730507
_cell_length_c 12.777126
_cell_angle_alpha 90.000000
_cell_angle_beta 32.130742
_cell_angle_gamma 90.000000
_cell_volume 1665.021341
_symmetry_space_group_name_H-M "C 2/C"
_symmetry_group_IT_number 15
_symmetry_cell_setting 'monoclinic'
loop_
_space_group_symop_operation_xyz
x,y,z
-x,y,1/2-z
-x,-y,-z
x,-y,1/2+z
1/2+x,1/2+y,z
1/2-x,1/2+y,1/2-z
1/2-x,1/2-y,-z
1/2+x,1/2-y,1/2+z
loop_
_atom_site_type_symbol
_atom_site_label
_atom_site_fract_x
_atom_site_fract_y
_atom_site_fract_z
Si Si1 0.675478 0.916000 0.035216
Si Si2 0.713044 0.145230 0.264378
Si Si3 0.996521 0.255922 0.864574
Si Si4 0.844395 0.042384 0.550082
Si Si5 0.146237 0.923380 0.228006
O O1 0.500000 0.900557 0.250000
O O2 0.778321 0.902984 0.025307
O O3 0.721831 0.860879 0.880103
O O4 0.709145 0.021175 0.967449
O O5 0.558127 0.183054 0.389955
O O6 0.737848 0.043847 0.192630
O O7 0.845011 0.207793 0.071456
O O8 0.111149 0.171585 0.714716
O O9 0.000000 0.306221 0.750000
O O10 0.852599 0.096309 0.649507
O O11 0.008206 0.993962 0.357946
#
# Coordination Sequence:
#
# PCOD9297537 Si02
#       5
#     8   8   8   8   8
#     4  11  23  39  61  94 130 163 202 253 309 363
#     4  10  24  41  62  94 123 161 209 249 307 374
#     4  11  22  41  66  90 122 158 202 261 313 363
#     4   9  19  39  62  87 120 158 205 256 301 356
#     4   9  19  37  64  90 113 157 213 252 299 360
#
# _framework density 24.023714999999999
#
# number of rings (size 3 to 8) (size 9 to 14) (size 15 to 20)
#    0.000    2.000    0.000    4.800    0.000    7.200 
#    0.000    4.000    0.000    0.000    0.000    0.000 
#    0.000    0.000    0.000    0.000    0.000    0.000 
#
# Total GULP energy -111889.015034 kJ/mol
# GULP energy per Si atom -5594.450752 kJ/mol
# Density = 2.396904 g / cm^3
# Si number density = 24.023715 Si / 1000 Ang^3
#
#
#
# Elastic Constant Matrix: (Units=GPa)
#
#
# Indices 1 2 3 4 5 6 
#
# 1 182.0795 22.2083 56.9575 -0.0001 55.4664 0.0000
# 2 22.2083 27.6544 12.4104 0.0000 -1.7352 0.0000
# 3 56.9575 12.4104 102.8872 -0.0001 24.7102 0.0001
# 4 -0.0001 0.0000 -0.0001 7.6411 0.0001 2.7549
# 5 55.4664 -1.7352 24.7102 0.0001 41.5331 0.0000
# 6 0.0000 0.0000 0.0001 2.7549 0.0000 31.9306
#
#
#
# Elastic Compliance Matrix: (Units=1/GPa)
#
#
# Indices 1 2 3 4 5 6 
#
# 1 0.011844 -0.009683 -0.001742 0.000000 -0.015185 0.000000
# 2 -0.009683 0.047081 -0.004546 0.000000 0.017603 0.000000
# 3 -0.001742 -0.004546 0.012506 0.000000 -0.005304 0.000000
# 4 0.000000 0.000000 0.000000 0.135072 0.000000 -0.011654
# 5 -0.015185 0.017603 -0.005304 0.000000 0.048248 0.000000
# 6 0.000000 0.000000 0.000000 -0.011654 0.000000 0.032323
#
#
# Mechanical properties :
#
#
# Convention : Reuss Voigt Hill
#
# Bulk Modulus (GPa) = 25.32312 55.08592 40.20452
# Shear Modulus (GPa) = 15.05211 30.95731 23.00471
#
# Velocity S-wave (km/s) = 2.50582 3.59362 3.09784
# Velocity P-wave (km/s) = 4.35154 6.34022 5.43757
#
# Compressibility (1/GPa) = 0.03948961
#
# Stress axis : x y z
#
# Youngs Moduli (GPa) = 84.43230 21.23988 79.96237
#
# Poissons Ratio (x) = 0.20566 0.13927
# Poissons Ratio (y) = 0.81753 0.36354
# Poissons Ratio (z) = 0.14705 0.09657
#
# Static dielectric constant tensor:
#      x y z
#    x 1.986740 0.000000 -0.016490 
#    y 0.000000 1.869210 0.000000 
#    z -0.016490 0.000000 1.917220 
# 
# From -- ./inp_files/105138.got.cif
#   From: 2010.05.17/outbox.cif.g08.bks.cpg/sg15_53_cif.got.tgz:105138.got - 2010.06.03 18:47:42.
