data_PCOD9297755
_publ_section_title
;
Structure prediction by ZEFSAII (Michael W. Deem and Ramdas Pophale) SiO2 
 PCOD9297755
Probable space group: C 2/C
;
_chemical_formula_sum "Si O2"
_cell_formula_units_Z 56
_cell_length_a 30.980556
_cell_length_b 10.565684
_cell_length_c 8.685324
_cell_angle_alpha 90.000000
_cell_angle_beta 117.979940
_cell_angle_gamma 90.000000
_cell_volume 2510.663968
_symmetry_space_group_name_H-M "C 2/C"
_symmetry_group_IT_number 15
_symmetry_cell_setting 'monoclinic'
loop_
_space_group_symop_operation_xyz
x,y,z
-x,y,1/2-z
-x,-y,-z
x,-y,1/2+z
1/2+x,1/2+y,z
1/2-x,1/2+y,1/2-z
1/2-x,1/2-y,-z
1/2+x,1/2-y,1/2+z
loop_
_atom_site_type_symbol
_atom_site_label
_atom_site_fract_x
_atom_site_fract_y
_atom_site_fract_z
Si Si1 0.068090 0.891801 0.621908
Si Si2 0.000000 0.494345 0.750000
Si Si3 0.647383 0.389063 0.214446
Si Si4 0.931080 0.390901 0.378303
Si Si5 0.288941 0.552934 0.961099
Si Si6 0.000000 0.992207 0.250000
Si Si7 0.783478 0.536973 0.421977
Si Si8 0.649732 0.892266 0.730018
O O1 0.089222 0.750897 0.653747
O O2 0.027203 0.907736 0.421670
O O3 0.107370 0.001294 0.659548
O O4 0.040136 0.921469 0.733242
O O5 0.970903 0.410003 0.579178
O O6 0.960462 0.580028 0.771570
O O7 0.687771 0.432745 0.409062
O O8 0.668667 0.389982 0.075551
O O9 0.629956 0.248340 0.226306
O O10 0.890501 0.498297 0.332674
O O11 0.248719 0.524186 0.765290
O O12 0.256097 0.613290 0.042231
O O13 0.810384 0.434321 0.575200
O O14 0.824739 0.609250 0.394908
#
# Coordination Sequence:
#
# PCOD9297755 Si02
#       8
#     8   4   8   8   8   4   8   8
#     4  11  24  43  66  93 127 167 211 259 315 378
#     4  10  24  42  66  94 124 164 214 264 312 368
#     4  11  24  41  64  96 131 165 208 263 318 375
#     4  11  24  43  66  93 127 167 211 259 315 378
#     4   9  21  41  63  91 125 166 210 258 312 368
#     4  10  24  42  66  94 124 164 214 264 312 368
#     4   9  21  41  63  91 125 166 210 258 312 368
#     4  11  24  41  64  96 131 165 208 263 318 375
#
# _framework density 22.304856000000001
#
# number of rings (size 3 to 8) (size 9 to 14) (size 15 to 20)
#    0.000    1.714    0.000    2.571    0.000   19.429 
#    0.000    8.571    0.000    0.000    0.000    0.000 
#    0.000    0.000    0.000    0.000    0.000    0.000 
#
# Total GULP energy -156320.047545 kJ/mol
# GULP energy per Si atom -5582.858841 kJ/mol
# Density = 2.225409 g / cm^3
# Si number density = 22.304856 Si / 1000 Ang^3
#
#
#
# Elastic Constant Matrix: (Units=GPa)
#
#
# Indices 1 2 3 4 5 6 
#
# 1 130.2909 54.3176 17.4350 0.0000 -7.7119 0.0000
# 2 54.3176 170.0160 12.1536 0.0000 7.1716 0.0000
# 3 17.4350 12.1536 67.7222 0.0000 -15.8065 0.0000
# 4 0.0000 0.0000 0.0000 14.9147 0.0000 14.4423
# 5 -7.7119 7.1716 -15.8065 0.0000 35.1919 0.0000
# 6 0.0000 0.0000 0.0000 14.4423 0.0000 35.5022
#
#
#
# Elastic Compliance Matrix: (Units=1/GPa)
#
#
# Indices 1 2 3 4 5 6 
#
# 1 0.009196 -0.002924 -0.001378 0.000000 0.001992 0.000000
# 2 -0.002924 0.007003 -0.001102 0.000000 -0.002563 0.000000
# 3 -0.001378 -0.001102 0.017093 0.000000 0.007600 0.000000
# 4 0.000000 0.000000 0.000000 0.110626 0.000000 -0.045003
# 5 0.001992 -0.002563 0.007600 0.000000 0.032788 0.000000
# 6 0.000000 0.000000 0.000000 -0.045003 0.000000 0.046474
#
#
# Mechanical properties :
#
#
# Convention : Reuss Voigt Hill
#
# Bulk Modulus (GPa) = 44.47586 59.53794 52.00690
# Shear Modulus (GPa) = 20.70551 36.06328 28.38439
#
# Velocity S-wave (km/s) = 3.05010 4.02535 3.57117
# Velocity P-wave (km/s) = 5.69100 6.95380 6.35385
#
# Compressibility (1/GPa) = 0.02248411
#
# Stress axis : x y z
#
# Youngs Moduli (GPa) = 108.73975 142.80120 58.50494
#
# Poissons Ratio (x) = 0.41749 0.08062
# Poissons Ratio (y) = 0.31791 0.06448
# Poissons Ratio (z) = 0.14984 0.15740
#
# Static dielectric constant tensor:
#      x y z
#    x 1.874110 0.000000 0.000610 
#    y 0.000000 1.785130 0.000000 
#    z 0.000610 0.000000 1.823340 
# 
# From -- ./inp_files/69489.got.cif
#   From: 2010.05.17/outbox.cif.g08.bks.cpg/sg15_35_cif.got.tgz:69489.got - 2010.06.03 18:47:42.
