data_PCOD9297143
_publ_section_title
;
Structure prediction by ZEFSAII (Michael W. Deem and Ramdas Pophale) SiO2 
 PCOD9297143
Probable space group: C 2/C
;
_chemical_formula_sum "Si O2"
_cell_formula_units_Z 40
_cell_length_a 7.012778
_cell_length_b 12.372953
_cell_length_c 15.728732
_cell_angle_alpha 90.000000
_cell_angle_beta 95.308070
_cell_angle_gamma 90.000000
_cell_volume 1358.910228
_symmetry_space_group_name_H-M "C 2/C"
_symmetry_group_IT_number 15
_symmetry_cell_setting 'monoclinic'
loop_
_space_group_symop_operation_xyz
x,y,z
-x,y,1/2-z
-x,-y,-z
x,-y,1/2+z
1/2+x,1/2+y,z
1/2-x,1/2+y,1/2-z
1/2-x,1/2-y,-z
1/2+x,1/2-y,1/2+z
loop_
_atom_site_type_symbol
_atom_site_label
_atom_site_fract_x
_atom_site_fract_y
_atom_site_fract_z
Si Si1 0.615821 0.491025 0.592572
Si Si2 0.302287 0.750278 0.383716
Si Si3 0.593656 0.115461 0.986400
Si Si4 0.000000 0.380830 0.250000
Si Si5 0.000000 0.743600 0.250000
Si Si6 0.742432 0.426758 0.826222
O O1 0.500000 0.500000 0.500000
O O2 0.722728 0.376458 0.601302
O O3 0.767935 0.588395 0.589397
O O4 0.467536 0.473453 0.662594
O O5 0.457930 0.789920 0.320946
O O6 0.076876 0.700222 0.532480
O O7 0.098963 0.794810 0.338173
O O8 0.711149 0.126133 0.078108
O O9 0.500000 0.000000 0.000000
O O10 0.856536 0.471298 0.288711
O O11 0.823322 0.669677 0.272343
#
# Coordination Sequence:
#
# PCOD9297143 Si02
#       6
#     8   8   8   4   4   8
#     4  10  25  48  80 123 162 212 274 359 427 504
#     4  12  26  49  81 117 164 221 291 337 431 509
#     4  11  23  48  81 117 161 213 280 351 413 501
#     4  11  24  48  74 119 162 224 265 346 422 515
#     4  11  26  48  78 117 168 230 275 354 422 513
#     4  10  23  48  76 116 173 210 275 348 429 504
#
# _framework density 29.43535
#
# number of rings (size 3 to 8) (size 9 to 14) (size 15 to 20)
#    0.000    1.200    2.000    2.400    2.800    6.400 
#    7.200    0.000    0.000    0.000    0.000    0.000 
#    0.000    0.000    0.000    0.000    0.000    0.000 
#
# Total GULP energy -111418.364456 kJ/mol
# GULP energy per Si atom -5570.918223 kJ/mol
# Density = 2.936835 g / cm^3
# Si number density = 29.435350 Si / 1000 Ang^3
#
#
#
# Elastic Constant Matrix: (Units=GPa)
#
#
# Indices 1 2 3 4 5 6 
#
# 1 173.9967 60.9103 74.7340 0.0000 -12.7746 0.0000
# 2 60.9103 106.7411 13.7091 0.0000 3.8880 0.0000
# 3 74.7340 13.7091 156.3108 0.0000 -22.3997 0.0000
# 4 0.0000 0.0000 0.0000 36.2265 0.0000 0.2427
# 5 -12.7746 3.8880 -22.3997 0.0000 83.5887 0.0000
# 6 0.0000 0.0000 0.0000 0.2427 0.0000 46.6118
#
#
#
# Elastic Compliance Matrix: (Units=1/GPa)
#
#
# Indices 1 2 3 4 5 6 
#
# 1 0.009095 -0.004716 -0.003852 0.000000 0.000577 0.000000
# 2 -0.004716 0.011959 0.001064 0.000000 -0.000992 0.000000
# 3 -0.003852 0.001064 0.008376 0.000000 0.001606 0.000000
# 4 0.000000 0.000000 0.000000 0.027605 0.000000 -0.000144
# 5 0.000577 -0.000992 0.001606 0.000000 0.012528 0.000000
# 6 0.000000 0.000000 0.000000 -0.000144 0.000000 0.021455
#
#
# Mechanical properties :
#
#
# Convention : Reuss Voigt Hill
#
# Bulk Modulus (GPa) = 69.34125 81.75060 75.54592
# Shear Modulus (GPa) = 45.11223 52.46507 48.78865
#
# Velocity S-wave (km/s) = 3.91907 4.22641 4.07564
# Velocity P-wave (km/s) = 6.63981 7.18679 6.91871
#
# Compressibility (1/GPa) = 0.01442143
#
# Stress axis : x y z
#
# Youngs Moduli (GPa) = 109.94832 83.61733 119.38628
#
# Poissons Ratio (x) = 0.39437 0.45990
# Poissons Ratio (y) = 0.51855 -0.12702
# Poissons Ratio (z) = 0.42354 -0.08896
#
# Static dielectric constant tensor:
#      x y z
#    x 2.305950 0.000000 0.076340 
#    y 0.000000 1.902840 0.000000 
#    z 0.076340 0.000000 2.487340 
# 
# From -- ./inp_files/230439.got.cif
#   From: 2010.05.17/outbox.cif.g08.bks.cpg/sg15_116_cif.got.tgz:230439.got - 2010.06.03 18:47:42.
