data_PCOD9297158
_publ_section_title
;
Structure prediction by ZEFSAII (Michael W. Deem and Ramdas Pophale) SiO2 
 PCOD9297158
Probable space group: C 2/C
;
_chemical_formula_sum "Si O2"
_cell_formula_units_Z 40
_cell_length_a 18.257258
_cell_length_b 5.128537
_cell_length_c 17.740221
_cell_angle_alpha 90.000000
_cell_angle_beta 105.448294
_cell_angle_gamma 90.000000
_cell_volume 1601.058085
_symmetry_space_group_name_H-M "C 2/C"
_symmetry_group_IT_number 15
_symmetry_cell_setting 'monoclinic'
loop_
_space_group_symop_operation_xyz
x,y,z
-x,y,1/2-z
-x,-y,-z
x,-y,1/2+z
1/2+x,1/2+y,z
1/2-x,1/2+y,1/2-z
1/2-x,1/2-y,-z
1/2+x,1/2-y,1/2+z
loop_
_atom_site_type_symbol
_atom_site_label
_atom_site_fract_x
_atom_site_fract_y
_atom_site_fract_z
Si Si1 0.387629 0.602104 0.686483
Si Si2 0.478534 0.697684 0.099805
Si Si3 0.336539 0.996071 0.545046
Si Si4 0.764472 0.380355 0.883886
Si Si5 0.575833 0.791203 0.642173
O O1 0.439786 0.368054 0.670261
O O2 0.303129 0.502848 0.683103
O O3 0.422624 0.740269 0.767682
O O4 0.375167 0.781474 0.608781
O O5 0.403902 0.805931 0.036928
O O6 0.524184 0.436681 0.091708
O O7 0.538339 0.930471 0.117177
O O8 0.277374 0.153369 0.580626
O O9 0.294711 0.918935 0.456551
O O10 0.837190 0.286613 0.859341
#
# Coordination Sequence:
#
# PCOD9297158 Si02
#       5
#     8   8   8   8   8
#     4  11  25  44  75  96 148 184 238 279 360 414
#     4  11  26  46  71 103 141 189 227 292 354 416
#     4  10  23  49  72 101 144 193 229 281 360 420
#     4  10  26  45  72 107 140 188 235 291 344 420
#     4  12  28  43  74 108 141 178 244 294 343 410
#
# _framework density 24.983477000000001
#
# number of rings (size 3 to 8) (size 9 to 14) (size 15 to 20)
#    0.000    1.200    2.000    1.200   14.000    1.600 
#    0.000    0.000    0.000    0.000    0.000    0.000 
#    0.000    0.000    0.000    0.000    0.000    0.000 
#
# Total GULP energy -111957.891750 kJ/mol
# GULP energy per Si atom -5597.894587 kJ/mol
# Density = 2.492661 g / cm^3
# Si number density = 24.983477 Si / 1000 Ang^3
#
#
#
# Elastic Constant Matrix: (Units=GPa)
#
#
# Indices 1 2 3 4 5 6 
#
# 1 207.6404 51.5292 -1.5080 0.0000 -1.1744 0.0000
# 2 51.5292 119.9877 11.4275 0.0000 7.7416 0.0000
# 3 -1.5080 11.4275 59.0469 0.0000 0.4997 0.0000
# 4 0.0000 0.0000 0.0000 13.4150 0.0000 15.9178
# 5 -1.1744 7.7416 0.4997 0.0000 14.6586 0.0000
# 6 0.0000 0.0000 0.0000 15.9178 0.0000 34.9827
#
#
#
# Elastic Compliance Matrix: (Units=1/GPa)
#
#
# Indices 1 2 3 4 5 6 
#
# 1 0.005454 -0.002513 0.000611 0.000000 0.001743 0.000000
# 2 -0.002513 0.009946 -0.001943 0.000000 -0.005388 0.000000
# 3 0.000611 -0.001943 0.017323 0.000000 0.000485 0.000000
# 4 0.000000 0.000000 0.000000 0.162021 0.000000 -0.073723
# 5 0.001743 -0.005388 0.000485 0.000000 0.071188 0.000000
# 6 0.000000 0.000000 0.000000 -0.073723 0.000000 0.062131
#
#
# Mechanical properties :
#
#
# Convention : Reuss Voigt Hill
#
# Bulk Modulus (GPa) = 39.94833 56.61917 48.28375
# Shear Modulus (GPa) = 14.53075 34.29302 24.41188
#
# Velocity S-wave (km/s) = 2.41428 3.70892 3.12928
# Velocity P-wave (km/s) = 4.87815 6.40728 5.69428
#
# Compressibility (1/GPa) = 0.02503233
#
# Stress axis : x y z
#
# Youngs Moduli (GPa) = 183.35431 100.54233 57.72572
#
# Poissons Ratio (x) = 0.25265 -0.03526
# Poissons Ratio (y) = 0.46074 0.11219
# Poissons Ratio (z) = -0.11200 0.19540
#
# Static dielectric constant tensor:
#      x y z
#    x 1.966540 0.000000 0.013040 
#    y 0.000000 1.984600 0.000000 
#    z 0.013040 0.000000 1.994410 
# 
# From -- ./inp_files/246306.got.cif
#   From: 2010.05.17/outbox.cif.g08.bks.cpg/sg15_124_cif.got.tgz:246306.got - 2010.06.03 18:47:42.
