data_PCOD9297806
_publ_section_title
;
Structure prediction by ZEFSAII (Michael W. Deem and Ramdas Pophale) SiO2 
 PCOD9297806
Probable space group: C 2/C
;
_chemical_formula_sum "Si O2"
_cell_formula_units_Z 52
_cell_length_a 5.619691
_cell_length_b 21.977668
_cell_length_c 18.872199
_cell_angle_alpha 90.000000
_cell_angle_beta 96.382246
_cell_angle_gamma 90.000000
_cell_volume 2316.416228
_symmetry_space_group_name_H-M "C 2/C"
_symmetry_group_IT_number 15
_symmetry_cell_setting 'monoclinic'
loop_
_space_group_symop_operation_xyz
x,y,z
-x,y,1/2-z
-x,-y,-z
x,-y,1/2+z
1/2+x,1/2+y,z
1/2-x,1/2+y,1/2-z
1/2-x,1/2-y,-z
1/2+x,1/2-y,1/2+z
loop_
_atom_site_type_symbol
_atom_site_label
_atom_site_fract_x
_atom_site_fract_y
_atom_site_fract_z
Si Si1 0.500000 0.938696 0.250000
Si Si2 0.067885 0.611338 0.409282
Si Si3 0.867023 0.647438 0.618264
Si Si4 0.716826 0.721708 0.420833
Si Si5 0.642642 0.398064 0.443671
Si Si6 0.287147 0.513938 0.145472
Si Si7 0.416505 0.634766 0.321476
O O1 0.624449 0.894523 0.311626
O O2 0.680784 0.980711 0.211209
O O3 0.273244 0.598402 0.472978
O O4 0.144453 0.621573 0.330448
O O5 0.932611 0.673769 0.422339
O O6 0.914854 0.550257 0.404320
O O7 0.818476 0.718735 0.629275
O O8 0.624236 0.629452 0.568227
O O9 0.126164 0.635750 0.587649
O O10 0.750000 0.750000 0.500000
O O11 0.499405 0.679307 0.387486
O O12 0.617097 0.461765 0.402426
O O13 0.463525 0.568584 0.169466
O O14 0.500000 0.661382 0.250000
#
# Coordination Sequence:
#
# PCOD9297806 Si02
#       7
#     4   8   8   8   8   8   8
#     4  10  24  48  70  98 146 190 242 300 362 436
#     4  11  24  44  72 104 143 189 239 305 362 436
#     4  11  26  44  73 108 140 193 239 296 366 433
#     4  11  24  46  71 103 145 186 242 300 367 432
#     4  11  25  43  73 108 142 186 242 300 366 430
#     4  10  24  42  68 101 141 188 240 300 366 433
#     4  11  26  42  71 101 140 194 240 298 365 434
#
# _framework density 22.448468999999999
#
# number of rings (size 3 to 8) (size 9 to 14) (size 15 to 20)
#    0.000    1.231    1.538    2.308   11.846    5.538 
#    0.000    3.077    0.000    0.000    0.000    0.000 
#    0.000    0.000    0.000    0.000    0.000    0.000 
#
# Total GULP energy -145015.553108 kJ/mol
# GULP energy per Si atom -5577.521273 kJ/mol
# Density = 2.239738 g / cm^3
# Si number density = 22.448469 Si / 1000 Ang^3
#
#
#
# Elastic Constant Matrix: (Units=GPa)
#
#
# Indices 1 2 3 4 5 6 
#
# 1 39.9648 -6.0922 1.3199 0.0000 9.8266 0.0000
# 2 -6.0922 111.8184 15.0876 0.0000 -1.8439 0.0000
# 3 1.3199 15.0876 70.6862 0.0000 -0.3874 0.0000
# 4 0.0000 0.0000 0.0000 41.6356 0.0000 -14.9491
# 5 9.8266 -1.8439 -0.3874 0.0000 28.5288 0.0000
# 6 0.0000 0.0000 0.0000 -14.9491 0.0000 -2.6219
#
#
#
# Elastic Compliance Matrix: (Units=1/GPa)
#
#
# Indices 1 2 3 4 5 6 
#
# 1 0.027591 0.001467 -0.000880 0.000000 -0.009421 0.000000
# 2 0.001467 0.009295 -0.002011 0.000000 0.000068 0.000000
# 3 -0.000880 -0.002011 0.014595 0.000000 0.000371 0.000000
# 4 0.000000 0.000000 0.000000 0.007882 0.000000 -0.044941
# 5 -0.009421 0.000068 0.000371 0.000000 0.038307 0.000000
# 6 0.000000 0.000000 0.000000 -0.044941 0.000000 -0.125167
#
#
# Mechanical properties :
#
#
# Convention : Reuss Voigt Hill
#
# Bulk Modulus (GPa) = 20.56235 27.01111 23.78673
# Shear Modulus (GPa) = -592.57420 27.65210 -282.46105
#
# Velocity S-wave (km/s) = -16.26481 3.51351 -11.22941
# Velocity P-wave (km/s) = 18.53498 5.34025 12.55044
#
# Compressibility (1/GPa) = 0.04863258
#
# Stress axis : x y z
#
# Youngs Moduli (GPa) = 36.24365 107.57945 68.51776
#
# Poissons Ratio (x) = -0.15778 0.06029
# Poissons Ratio (y) = -0.05316 0.13779
# Poissons Ratio (z) = 0.03189 0.21635
#
# Static dielectric constant tensor:
#      x y z
#    x 1.958170 0.000000 -0.045310 
#    y 0.000000 1.818110 0.000000 
#    z -0.045310 0.000000 1.880260 
# 
# From -- ./inp_files/227545.got.cif
#   From: 2010.05.17/outbox.cif.g08.bks.cpg/sg15_114_cif.got.tgz:227545.got - 2010.06.03 18:47:42.
