data_PCOD9297836
_publ_section_title
;
Structure prediction by ZEFSAII (Michael W. Deem and Ramdas Pophale) SiO2 
 PCOD9297836
Probable space group: C 2/C
;
_chemical_formula_sum "Si O2"
_cell_formula_units_Z 48
_cell_length_a 9.102426
_cell_length_b 27.803021
_cell_length_c 8.945456
_cell_angle_alpha 90.000000
_cell_angle_beta 99.754353
_cell_angle_gamma 90.000000
_cell_volume 2231.142402
_symmetry_space_group_name_H-M "C 2/C"
_symmetry_group_IT_number 15
_symmetry_cell_setting 'monoclinic'
loop_
_space_group_symop_operation_xyz
x,y,z
-x,y,1/2-z
-x,-y,-z
x,-y,1/2+z
1/2+x,1/2+y,z
1/2-x,1/2+y,1/2-z
1/2-x,1/2-y,-z
1/2+x,1/2-y,1/2+z
loop_
_atom_site_type_symbol
_atom_site_label
_atom_site_fract_x
_atom_site_fract_y
_atom_site_fract_z
Si Si1 0.000000 0.677700 0.750000
Si Si2 0.723701 0.253142 0.167053
Si Si3 0.676399 0.146001 0.263281
Si Si4 0.835180 0.032978 0.797153
Si Si5 0.211880 0.619890 0.601530
Si Si6 0.660368 0.564193 0.352360
Si Si7 0.000000 0.180741 0.750000
O O1 0.859687 0.713157 0.737883
O O2 0.947396 0.642730 0.876064
O O3 0.722847 0.201584 0.247364
O O4 0.567537 0.281513 0.145856
O O5 0.750000 0.250000 0.000000
O O6 0.500000 0.146083 0.250000
O O7 0.729429 0.122106 0.427263
O O8 0.739880 0.111810 0.144333
O O9 0.730193 0.069909 0.690884
O O10 0.000000 0.036881 0.750000
O O11 0.783043 0.979359 0.744032
O O12 0.847234 0.045610 0.976225
O O13 0.359639 0.649044 0.680232
O O14 0.500000 0.576176 0.250000
#
# Coordination Sequence:
#
# PCOD9297836 Si02
#       7
#     4   8   8   8   8   8   4
#     4  10  26  40  66  98 134 182 226 278 338 398
#     4  11  25  42  66  96 138 177 231 275 340 400
#     4  12  27  45  67 101 143 183 229 283 345 408
#     4  11  22  45  73 104 136 175 227 285 344 411
#     4  11  24  44  71  99 140 178 229 284 347 405
#     4  11  25  43  74 103 136 178 231 283 341 409
#     4  10  24  42  68  96 130 182 222 282 338 394
#
# _framework density 21.513642999999998
#
# number of rings (size 3 to 8) (size 9 to 14) (size 15 to 20)
#    0.000    1.000    1.667    5.000   10.500    1.333 
#    1.500    1.667    0.000    0.000    0.000    0.000 
#    0.000    0.000    0.000    0.000    0.000    0.000 
#
# Total GULP energy -133760.736295 kJ/mol
# GULP energy per Si atom -5573.364012 kJ/mol
# Density = 2.146468 g / cm^3
# Si number density = 21.513643 Si / 1000 Ang^3
#
#
#
# Elastic Constant Matrix: (Units=GPa)
#
#
# Indices 1 2 3 4 5 6 
#
# 1 75.6062 45.4710 1.9150 0.0000 -9.0138 0.0000
# 2 45.4710 102.9739 -5.3045 0.0000 3.7666 0.0000
# 3 1.9150 -5.3045 64.3225 0.0000 -1.2492 0.0000
# 4 0.0000 0.0000 0.0000 60.6085 0.0000 47.1405
# 5 -9.0138 3.7666 -1.2492 0.0000 29.5047 0.0000
# 6 0.0000 0.0000 0.0000 47.1405 0.0000 111.0522
#
#
#
# Elastic Compliance Matrix: (Units=1/GPa)
#
#
# Indices 1 2 3 4 5 6 
#
# 1 0.019451 -0.008907 -0.001177 0.000000 0.007030 0.000000
# 2 -0.008907 0.013875 0.001323 0.000000 -0.004436 0.000000
# 3 -0.001177 0.001323 0.015693 0.000000 0.000136 0.000000
# 4 0.000000 0.000000 0.000000 0.024632 0.000000 -0.010456
# 5 0.007030 -0.004436 0.000136 0.000000 0.036613 0.000000
# 6 0.000000 0.000000 0.000000 -0.010456 0.000000 0.013443
#
#
# Mechanical properties :
#
#
# Convention : Reuss Voigt Hill
#
# Bulk Modulus (GPa) = 31.74839 36.34064 34.04452
# Shear Modulus (GPa) = 32.95374 53.62116 43.28745
#
# Velocity S-wave (km/s) = 3.91802 4.99784 4.49050
# Velocity P-wave (km/s) = 5.93778 7.08753 6.53798
#
# Compressibility (1/GPa) = 0.03149766
#
# Stress axis : x y z
#
# Youngs Moduli (GPa) = 51.41094 72.07341 63.72080
#
# Poissons Ratio (x) = 0.64195 0.07501
# Poissons Ratio (y) = 0.45791 -0.08432
# Poissons Ratio (z) = 0.06052 -0.09537
#
# Static dielectric constant tensor:
#      x y z
#    x 1.714430 0.000000 -0.014220 
#    y 0.000000 1.757020 0.000000 
#    z -0.014220 0.000000 1.755670 
# 
# From -- ./inp_files/26152.got.cif
#   From: 2010.05.17/outbox.cif.g08.bks.cpg/sg15_14_cif.got.tgz:26152.got - 2010.06.03 18:47:42.
