data_PCOD9297893
_publ_section_title
;
Structure prediction by ZEFSAII (Michael W. Deem and Ramdas Pophale) SiO2 
 PCOD9297893
Probable space group: C 2/C
;
_chemical_formula_sum "Si O2"
_cell_formula_units_Z 52
_cell_length_a 18.851894
_cell_length_b 18.639183
_cell_length_c 8.311685
_cell_angle_alpha 90.000000
_cell_angle_beta 55.549676
_cell_angle_gamma 90.000000
_cell_volume 2408.369947
_symmetry_space_group_name_H-M "C 2/C"
_symmetry_group_IT_number 15
_symmetry_cell_setting 'monoclinic'
loop_
_space_group_symop_operation_xyz
x,y,z
-x,y,1/2-z
-x,-y,-z
x,-y,1/2+z
1/2+x,1/2+y,z
1/2-x,1/2+y,1/2-z
1/2-x,1/2-y,-z
1/2+x,1/2-y,1/2+z
loop_
_atom_site_type_symbol
_atom_site_label
_atom_site_fract_x
_atom_site_fract_y
_atom_site_fract_z
Si Si1 0.801735 0.043594 0.013837
Si Si2 0.830059 0.799228 0.439232
Si Si3 0.911612 0.214916 0.193124
Si Si4 0.118435 0.429758 0.872108
Si Si5 0.000000 0.522337 0.250000
Si Si6 0.092552 0.268724 0.961726
Si Si7 0.576035 0.445996 0.848716
O O1 0.705682 0.031259 0.201029
O O2 0.863166 0.063696 0.079467
O O3 0.802309 0.119871 0.924343
O O4 0.856601 0.981229 0.861352
O O5 0.750000 0.750000 0.500000
O O6 0.860890 0.784866 0.586107
O O7 0.896876 0.774808 0.217938
O O8 0.870616 0.230731 0.422892
O O9 0.951687 0.134501 0.156896
O O10 0.988584 0.272769 0.098113
O O11 0.049416 0.431031 0.817340
O O12 0.134944 0.347326 0.896138
O O13 0.071930 0.472728 0.073856
O O14 0.500000 0.500000 0.000000
#
# Coordination Sequence:
#
# PCOD9297893 Si02
#       7
#     8   8   8   8   4   8   8
#     4  11  24  41  65  98 135 179 229 287 348 423
#     4  11  23  43  64  97 137 177 229 288 351 410
#     4  10  25  42  66 105 129 183 235 287 348 426
#     4  11  23  45  65 102 130 181 230 289 354 422
#     4  10  24  42  70  92 134 176 232 286 350 426
#     4  11  23  42  71  95 137 175 234 282 353 421
#     4  11  24  42  67  97 141 183 233 285 355 429
#
# _framework density 21.591367999999999
#
# number of rings (size 3 to 8) (size 9 to 14) (size 15 to 20)
#    0.000    1.231    1.538    3.692    8.615    3.077 
#    0.000    0.000    0.000    0.000    0.000    0.000 
#    0.000    0.000    0.000    0.000    0.000    0.000 
#
# Total GULP energy -144782.320787 kJ/mol
# GULP energy per Si atom -5568.550800 kJ/mol
# Density = 2.154223 g / cm^3
# Si number density = 21.591368 Si / 1000 Ang^3
#
#
#
# Elastic Constant Matrix: (Units=GPa)
#
#
# Indices 1 2 3 4 5 6 
#
# 1 95.4339 -1.2654 32.9475 0.0000 19.6653 0.0000
# 2 -1.2654 71.4528 33.2672 0.0000 -6.3999 0.0000
# 3 32.9475 33.2672 113.3478 0.0000 3.4683 0.0000
# 4 0.0000 0.0000 0.0000 -376.7231 0.0000 -14.8755
# 5 19.6653 -6.3999 3.4683 0.0000 53.0138 0.0000
# 6 0.0000 0.0000 0.0000 -14.8755 0.0000 10.0977
#
#
#
# Elastic Compliance Matrix: (Units=1/GPa)
#
#
# Indices 1 2 3 4 5 6 
#
# 1 0.012798 0.001756 -0.004105 0.000000 -0.004267 0.000000
# 2 0.001756 0.016729 -0.005473 0.000000 0.001726 0.000000
# 3 -0.004105 -0.005473 0.011619 0.000000 0.000102 0.000000
# 4 0.000000 0.000000 0.000000 -0.002509 0.000000 -0.003695
# 5 -0.004267 0.001726 0.000102 0.000000 0.020648 0.000000
# 6 0.000000 0.000000 0.000000 -0.003695 0.000000 0.093589
#
#
# Mechanical properties :
#
#
# Convention : Reuss Voigt Hill
#
# Bulk Modulus (GPa) = 39.21342 45.57035 42.39188
# Shear Modulus (GPa) = 28.24558 -48.36998 -10.06220
#
# Velocity S-wave (km/s) = 3.62081 -4.73826 -2.16111
# Velocity P-wave (km/s) = 5.97339 2.96364 3.66731
#
# Compressibility (1/GPa) = 0.02550148
#
# Stress axis : x y z
#
# Youngs Moduli (GPa) = 78.13636 59.77585 86.06740
#
# Poissons Ratio (x) = -0.10494 0.35329
# Poissons Ratio (y) = -0.13718 0.47105
# Poissons Ratio (z) = 0.32074 0.32716
#
# Static dielectric constant tensor:
#      x y z
#    x 1.765870 0.000000 -0.030500 
#    y 0.000000 2.235290 0.000000 
#    z -0.030500 0.000000 1.948000 
# 
# From -- ./inp_files/56941.got.cif
#   From: 2010.05.17/outbox.cif.g08.bks.cpg/sg15_29_cif.got.tgz:56941.got - 2010.06.03 18:47:42.
