data_PCOD9297163
_publ_section_title
;
Structure prediction by ZEFSAII (Michael W. Deem and Ramdas Pophale) SiO2 
 PCOD9297163
Probable space group: C 2/C
;
_chemical_formula_sum "Si O2"
_cell_formula_units_Z 40
_cell_length_a 12.671731
_cell_length_b 11.997928
_cell_length_c 13.362848
_cell_angle_alpha 90.000000
_cell_angle_beta 56.725530
_cell_angle_gamma 90.000000
_cell_volume 1698.534881
_symmetry_space_group_name_H-M "C 2/C"
_symmetry_group_IT_number 15
_symmetry_cell_setting 'monoclinic'
loop_
_space_group_symop_operation_xyz
x,y,z
-x,y,1/2-z
-x,-y,-z
x,-y,1/2+z
1/2+x,1/2+y,z
1/2-x,1/2+y,1/2-z
1/2-x,1/2-y,-z
1/2+x,1/2-y,1/2+z
loop_
_atom_site_type_symbol
_atom_site_label
_atom_site_fract_x
_atom_site_fract_y
_atom_site_fract_z
Si Si1 0.100078 0.985262 0.035889
Si Si2 0.930754 0.176466 0.200416
Si Si3 0.811032 0.680276 0.060730
Si Si4 0.106811 0.483393 0.609231
Si Si5 0.049438 0.749309 0.031790
O O1 0.087738 0.857271 0.076168
O O2 0.797523 0.864477 0.810661
O O3 0.038818 0.082102 0.133737
O O4 0.000000 0.000000 0.000000
O O5 0.902722 0.232297 0.107737
O O6 0.000000 0.252059 0.250000
O O7 0.900049 0.752080 0.086322
O O8 0.750000 0.750000 0.000000
O O9 0.746865 0.498015 0.930875
O O10 0.103400 0.581987 0.528957
O O11 0.000000 0.490153 0.750000
O O12 0.090388 0.364179 0.563095
#
# Coordination Sequence:
#
# PCOD9297163 Si02
#       5
#     8   8   8   8   8
#     4  10  23  49  74 103 147 206 250 300 381 469
#     4  11  22  46  77 104 143 199 265 299 372 469
#     4  12  25  47  73 107 142 200 255 316 373 452
#     4  12  28  47  71 115 158 188 249 316 388 451
#     4  11  26  45  72 111 147 197 243 318 389 432
#
# _framework density 23.549707999999999
#
# number of rings (size 3 to 8) (size 9 to 14) (size 15 to 20)
#    0.000    0.800    4.000    2.400    8.400    2.400 
#    0.000    0.000    0.000    0.000    0.000    0.000 
#    0.000    0.000    0.000    0.000    0.000    0.000 
#
# Total GULP energy -111485.487442 kJ/mol
# GULP energy per Si atom -5574.274372 kJ/mol
# Density = 2.349611 g / cm^3
# Si number density = 23.549708 Si / 1000 Ang^3
#
#
#
# Elastic Constant Matrix: (Units=GPa)
#
#
# Indices 1 2 3 4 5 6 
#
# 1 116.5380 18.2810 54.3189 0.0000 -31.9202 0.0000
# 2 18.2810 148.1058 63.3125 0.0000 -19.7761 0.0000
# 3 54.3189 63.3125 175.8402 0.0000 -42.4742 0.0000
# 4 0.0000 0.0000 0.0000 22.7894 0.0000 5.9904
# 5 -31.9202 -19.7761 -42.4742 0.0000 40.2314 0.0000
# 6 0.0000 0.0000 0.0000 5.9904 0.0000 45.1179
#
#
#
# Elastic Compliance Matrix: (Units=1/GPa)
#
#
# Indices 1 2 3 4 5 6 
#
# 1 0.011385 0.000374 -0.001913 0.000000 0.007197 0.000000
# 2 0.000374 0.008035 -0.002662 0.000000 0.001436 0.000000
# 3 -0.001913 -0.002662 0.008797 0.000000 0.006461 0.000000
# 4 0.000000 0.000000 0.000000 0.045467 0.000000 -0.006037
# 5 0.007197 0.001436 0.006461 0.000000 0.038094 0.000000
# 6 0.000000 0.000000 0.000000 -0.006037 0.000000 0.022966
#
#
# Mechanical properties :
#
#
# Convention : Reuss Voigt Hill
#
# Bulk Modulus (GPa) = 50.46616 79.14542 64.80579
# Shear Modulus (GPa) = 33.38861 41.93252 37.66056
#
# Velocity S-wave (km/s) = 3.76944 4.22429 4.00333
# Velocity P-wave (km/s) = 6.35776 7.58113 6.99624
#
# Compressibility (1/GPa) = 0.01981526
#
# Stress axis : x y z
#
# Youngs Moduli (GPa) = 87.83244 124.44913 113.67511
#
# Poissons Ratio (x) = -0.04648 0.21747
# Poissons Ratio (y) = -0.03281 0.30257
# Poissons Ratio (z) = 0.16803 0.33124
#
# Static dielectric constant tensor:
#      x y z
#    x 2.045180 0.000000 0.076680 
#    y 0.000000 2.080650 0.000000 
#    z 0.076680 0.000000 2.047700 
# 
# From -- ./inp_files/142137.got.cif
#   From: 2010.05.17/outbox.cif.g08.bks.cpg/sg15_72_cif.got.tgz:142137.got - 2010.06.03 18:47:42.
