data_PCOD9297219
_publ_section_title
;
Structure prediction by ZEFSAII (Michael W. Deem and Ramdas Pophale) SiO2 
 PCOD9297219
Probable space group: C 2/C
;
_chemical_formula_sum "Si O2"
_cell_formula_units_Z 40
_cell_length_a 29.609314
_cell_length_b 7.709156
_cell_length_c 8.531217
_cell_angle_alpha 90.000000
_cell_angle_beta 73.823959
_cell_angle_gamma 90.000000
_cell_volume 1870.264205
_symmetry_space_group_name_H-M "C 2/C"
_symmetry_group_IT_number 15
_symmetry_cell_setting 'monoclinic'
loop_
_space_group_symop_operation_xyz
x,y,z
-x,y,1/2-z
-x,-y,-z
x,-y,1/2+z
1/2+x,1/2+y,z
1/2-x,1/2+y,1/2-z
1/2-x,1/2-y,-z
1/2+x,1/2-y,1/2+z
loop_
_atom_site_type_symbol
_atom_site_label
_atom_site_fract_x
_atom_site_fract_y
_atom_site_fract_z
Si Si1 0.682373 0.716340 0.601441
Si Si2 0.098511 0.377218 0.550707
Si Si3 0.966243 0.592369 0.658105
Si Si4 0.714468 0.386905 0.730415
Si Si5 0.185339 0.593967 0.532420
O O1 0.627971 0.723456 0.601605
O O2 0.694971 0.579774 0.720915
O O3 0.709114 0.667305 0.414887
O O4 0.692886 0.917099 0.623327
O O5 0.061186 0.452030 0.709740
O O6 0.073554 0.323449 0.413612
O O7 0.137167 0.535203 0.491016
O O8 0.000000 0.690933 0.750000
O O9 0.000000 0.500000 0.500000
O O10 0.767327 0.381947 0.613122
O O11 0.684125 0.255309 0.651462
#
# Coordination Sequence:
#
# PCOD9297219 Si02
#       5
#     8   8   8   8   8
#     4  10  24  36  58  84 124 159 212 243 292 346
#     4   9  19  35  54  85 120 147 190 255 290 351
#     4   9  17  32  58  88 110 142 193 242 309 372
#     4  11  22  38  57  87 118 180 197 245 291 340
#     4   9  23  36  57  81 128 159 210 238 290 348
#
# _framework density 21.387353000000001
#
# number of rings (size 3 to 8) (size 9 to 14) (size 15 to 20)
#    1.200    1.200    0.000    1.800    5.600    3.200 
#    0.000    0.000    0.000    0.000    0.000   88.200 
#    0.000    0.000    0.000    0.000    0.000    0.000 
#
# Total GULP energy -111486.131306 kJ/mol
# GULP energy per Si atom -5574.306565 kJ/mol
# Density = 2.133867 g / cm^3
# Si number density = 21.387353 Si / 1000 Ang^3
#
#
#
# Elastic Constant Matrix: (Units=GPa)
#
#
# Indices 1 2 3 4 5 6 
#
# 1 121.0331 10.5030 28.0762 0.0000 7.2066 0.0000
# 2 10.5030 83.2411 4.3343 0.0000 4.3459 0.0000
# 3 28.0762 4.3343 70.9402 0.0000 -2.9876 0.0000
# 4 0.0000 0.0000 0.0000 -3.5981 0.0000 0.8498
# 5 7.2066 4.3459 -2.9876 0.0000 41.7417 0.0000
# 6 0.0000 0.0000 0.0000 0.8498 0.0000 10.9758
#
#
#
# Elastic Compliance Matrix: (Units=1/GPa)
#
#
# Indices 1 2 3 4 5 6 
#
# 1 0.009304 -0.000888 -0.003703 0.000000 -0.001779 0.000000
# 2 -0.000888 0.012208 -0.000443 0.000000 -0.001149 0.000000
# 3 -0.003703 -0.000443 0.015665 0.000000 0.001807 0.000000
# 4 0.000000 0.000000 0.000000 -0.272934 0.000000 0.021131
# 5 -0.001779 -0.001149 0.001807 0.000000 0.024513 0.000000
# 6 0.000000 0.000000 0.000000 0.021131 0.000000 0.089474
#
#
# Mechanical properties :
#
#
# Convention : Reuss Voigt Hill
#
# Bulk Modulus (GPa) = 36.88724 40.11569 38.50146
# Shear Modulus (GPa) = -48.70213 25.31060 -11.69576
#
# Velocity S-wave (km/s) = -4.77712 3.44385 -2.34103
# Velocity P-wave (km/s) = 3.62536 5.88310 3.27625
#
# Compressibility (1/GPa) = 0.02710965
#
# Stress axis : x y z
#
# Youngs Moduli (GPa) = 107.47840 81.91057 63.83635
#
# Poissons Ratio (x) = 0.07276 0.23639
# Poissons Ratio (y) = 0.09547 0.02826
# Poissons Ratio (z) = 0.39799 0.03627
#
# Static dielectric constant tensor:
#      x y z
#    x 1.902820 0.000000 0.037520 
#    y 0.000000 1.742440 0.000000 
#    z 0.037520 0.000000 1.791350 
# 
# From -- ./inp_files/59949.got.cif
#   From: 2010.05.17/outbox.cif.g08.bks.cpg/sg15_30_cif.got.tgz:59949.got - 2010.06.03 18:47:42.
