data_PCOD9297508
_publ_section_title
;
Structure prediction by ZEFSAII (Michael W. Deem and Ramdas Pophale) SiO2 
 PCOD9297508
Probable space group: C 2/C
;
_chemical_formula_sum "Si O2"
_cell_formula_units_Z 36
_cell_length_a 19.226484
_cell_length_b 5.352167
_cell_length_c 21.088408
_cell_angle_alpha 90.000000
_cell_angle_beta 36.319654
_cell_angle_gamma 90.000000
_cell_volume 1285.308645
_symmetry_space_group_name_H-M "C 2/C"
_symmetry_group_IT_number 15
_symmetry_cell_setting 'monoclinic'
loop_
_space_group_symop_operation_xyz
x,y,z
-x,y,1/2-z
-x,-y,-z
x,-y,1/2+z
1/2+x,1/2+y,z
1/2-x,1/2+y,1/2-z
1/2-x,1/2-y,-z
1/2+x,1/2-y,1/2+z
loop_
_atom_site_type_symbol
_atom_site_label
_atom_site_fract_x
_atom_site_fract_y
_atom_site_fract_z
Si Si1 0.861959 0.060909 0.882294
Si Si2 0.500000 0.073937 0.250000
Si Si3 0.681647 0.025405 0.404990
Si Si4 0.871253 0.019534 0.124488
Si Si5 0.496489 0.232668 0.872162
O O1 0.890559 0.902395 0.922144
O O2 0.000000 0.095797 0.750000
O O3 0.907419 0.921275 0.670027
O O4 0.864590 0.357850 0.885508
O O5 0.454093 0.921813 0.222982
O O6 0.776227 0.026603 0.391803
O O7 0.686562 0.762730 0.364940
O O8 0.686085 0.260108 0.353981
O O9 0.556058 0.056883 0.534399
O O10 0.000000 0.000000 0.000000
#
# Coordination Sequence:
#
# PCOD9297508 Si02
#       5
#     8   4   8   8   8
#     4  10  25  42  65 102 141 176 232 284 348 409
#     4  10  24  40  72  94 148 182 230 284 352 404
#     4  11  25  43  75 104 132 184 234 287 345 415
#     4  10  24  43  71 105 136 173 236 291 346 406
#     4  11  22  44  70  97 139 183 231 283 348 415
#
# _framework density 28.008838999999998
#
# number of rings (size 3 to 8) (size 9 to 14) (size 15 to 20)
#    0.667    0.889    1.111    3.333   12.444    0.889 
#    0.000    4.444    0.000    0.000    0.000    0.000 
#    0.000    0.000    0.000    0.000    0.000    0.000 
#
# Total GULP energy -100615.409594 kJ/mol
# GULP energy per Si atom -5589.744977 kJ/mol
# Density = 2.794509 g / cm^3
# Si number density = 28.008839 Si / 1000 Ang^3
#
#
#
# Elastic Constant Matrix: (Units=GPa)
#
#
# Indices 1 2 3 4 5 6 
#
# 1 206.0120 89.3391 24.7797 -0.0057 11.4858 -0.0841
# 2 89.3391 180.5417 33.6272 0.0687 18.3556 0.0743
# 3 24.7797 33.6272 83.3405 0.0027 28.9873 0.0146
# 4 -0.0057 0.0687 0.0027 15.5506 0.0182 2.8676
# 5 11.4858 18.3556 28.9873 0.0182 52.5533 0.0252
# 6 -0.0841 0.0743 0.0146 2.8676 0.0252 58.2986
#
#
#
# Elastic Compliance Matrix: (Units=1/GPa)
#
#
# Indices 1 2 3 4 5 6 
#
# 1 0.006213 -0.002954 -0.000671 0.000013 0.000044 0.000012
# 2 -0.002954 0.007431 -0.001784 -0.000030 -0.000966 -0.000011
# 3 -0.000671 -0.001784 0.015654 0.000014 -0.007864 0.000000
# 4 0.000013 -0.000030 0.000014 0.064895 -0.000021 -0.003192
# 5 0.000044 -0.000966 -0.007864 -0.000021 0.023694 -0.000006
# 6 0.000012 -0.000011 0.000000 -0.003192 -0.000006 0.017310
#
#
# Mechanical properties :
#
#
# Convention : Reuss Voigt Hill
#
# Bulk Modulus (GPa) = 54.11162 85.04291 69.57726
# Shear Modulus (GPa) = 32.85673 46.75702 39.80688
#
# Velocity S-wave (km/s) = 3.42875 4.09022 3.77400
# Velocity P-wave (km/s) = 5.91916 7.26191 6.62464
#
# Compressibility (1/GPa) = 0.01848032
#
# Stress axis : x y z
#
# Youngs Moduli (GPa) = 160.94142 134.56663 63.88270
#
# Poissons Ratio (x) = 0.39754 0.04284
# Poissons Ratio (y) = 0.47545 0.11398
# Poissons Ratio (z) = 0.10794 0.24009
#
# Static dielectric constant tensor:
#      x y z
#    x 2.581520 0.000680 0.300960 
#    y 0.000680 2.126890 0.000730 
#    z 0.300960 0.000730 2.913050 
# 
# From -- ./inp_files/120548.got.cif
#   From: 2010.05.17/outbox.cif.g08.bks.cpg/sg15_61_cif.got.tgz:120548.got - 2010.06.03 18:47:42.
