data_PCOD9297589
_publ_section_title
;
Structure prediction by ZEFSAII (Michael W. Deem and Ramdas Pophale) SiO2 
 PCOD9297589
Probable space group: C 2/C
;
_chemical_formula_sum "Si O2"
_cell_formula_units_Z 28
_cell_length_a 26.711046
_cell_length_b 4.952588
_cell_length_c 8.049536
_cell_angle_alpha 90.000000
_cell_angle_beta 69.276172
_cell_angle_gamma 90.000000
_cell_volume 995.963586
_symmetry_space_group_name_H-M "C 2/C"
_symmetry_group_IT_number 15
_symmetry_cell_setting 'monoclinic'
loop_
_space_group_symop_operation_xyz
x,y,z
-x,y,1/2-z
-x,-y,-z
x,-y,1/2+z
1/2+x,1/2+y,z
1/2-x,1/2+y,1/2-z
1/2-x,1/2-y,-z
1/2+x,1/2-y,1/2+z
loop_
_atom_site_type_symbol
_atom_site_label
_atom_site_fract_x
_atom_site_fract_y
_atom_site_fract_z
Si Si1 0.642114 0.131308 0.573524
Si Si2 0.212156 0.223362 0.288613
Si Si3 0.000000 0.137138 0.250000
Si Si4 0.069825 0.728323 0.373892
O O1 0.674925 0.870395 0.469051
O O2 0.592347 0.017021 0.739737
O O3 0.678203 0.289729 0.660200
O O4 0.620220 0.287531 0.437672
O O5 0.259628 0.442623 0.205914
O O6 0.045941 0.942556 0.273273
O O7 0.976375 0.298135 0.433141
#
# Coordination Sequence:
#
# PCOD9297589 Si02
#       4
#     8   8   4   8
#     4  10  24  41  67 102 144 188 243 299 364 434
#     4  11  24  44  71 105 146 193 242 301 365 436
#     4  10  24  44  70  98 140 188 242 296 368 436
#     4  10  24  43  65 100 134 184 236 299 359 431
#
# _framework density 28.113477
#
# number of rings (size 3 to 8) (size 9 to 14) (size 15 to 20)
#    0.000    1.714    0.000    1.714    0.000   21.714 
#    0.000    0.000    0.000    0.000    0.000    0.000 
#    0.000    0.000    0.000    0.000    0.000    0.000 
#
# Total GULP energy -78555.956839 kJ/mol
# GULP energy per Si atom -5611.139774 kJ/mol
# Density = 2.804949 g / cm^3
# Si number density = 28.113477 Si / 1000 Ang^3
#
#
#
# Elastic Constant Matrix: (Units=GPa)
#
#
# Indices 1 2 3 4 5 6 
#
# 1 181.2260 76.7345 61.7893 0.0000 45.1450 0.0000
# 2 76.7345 102.4281 76.5400 0.0000 16.8553 0.0000
# 3 61.7893 76.5400 177.4822 0.0000 6.9413 0.0000
# 4 0.0000 0.0000 0.0000 37.5881 0.0000 -26.7064
# 5 45.1450 16.8553 6.9413 0.0000 84.6409 0.0000
# 6 0.0000 0.0000 0.0000 -26.7064 0.0000 7.8326
#
#
#
# Elastic Compliance Matrix: (Units=1/GPa)
#
#
# Indices 1 2 3 4 5 6 
#
# 1 0.009054 -0.005807 -0.000506 0.000000 -0.003631 0.000000
# 2 -0.005807 0.018619 -0.006003 0.000000 -0.000118 0.000000
# 3 -0.000506 -0.006003 0.008369 0.000000 0.000779 0.000000
# 4 0.000000 0.000000 0.000000 -0.018701 0.000000 -0.063766
# 5 -0.003631 -0.000118 0.000779 0.000000 0.013711 0.000000
# 6 0.000000 0.000000 0.000000 -0.063766 0.000000 -0.089747
#
#
# Mechanical properties :
#
#
# Convention : Reuss Voigt Hill
#
# Bulk Modulus (GPa) = 87.64698 99.02933 93.33816
# Shear Modulus (GPa) = -165.22856 42.41715 -61.40570
#
# Velocity S-wave (km/s) = -7.67461 3.88852 -4.67862
# Velocity P-wave (km/s) = 6.87670 7.44729 2.02153
#
# Compressibility (1/GPa) = 0.01140941
#
# Stress axis : x y z
#
# Youngs Moduli (GPa) = 110.45012 53.70917 119.49226
#
# Poissons Ratio (x) = 0.31191 0.06041
# Poissons Ratio (y) = 0.64143 0.71731
# Poissons Ratio (z) = 0.05584 0.32242
#
# Static dielectric constant tensor:
#      x y z
#    x 2.287700 0.000000 -0.098850 
#    y 0.000000 2.112380 0.000000 
#    z -0.098850 0.000000 2.101890 
# 
# From -- ./inp_files/64281.got.cif
#   From: 2010.05.17/outbox.cif.g08.bks.cpg/sg15_33_cif.got.tgz:64281.got - 2010.06.03 18:47:42.
