data_PCOD9297654
_publ_section_title
;
Structure prediction by ZEFSAII (Michael W. Deem and Ramdas Pophale) SiO2 
 PCOD9297654
Probable space group: C 2/C
;
_chemical_formula_sum "Si O2"
_cell_formula_units_Z 40
_cell_length_a 19.177872
_cell_length_b 10.596851
_cell_length_c 8.856625
_cell_angle_alpha 90.000000
_cell_angle_beta 98.088290
_cell_angle_gamma 90.000000
_cell_volume 1781.983572
_symmetry_space_group_name_H-M "C 2/C"
_symmetry_group_IT_number 15
_symmetry_cell_setting 'monoclinic'
loop_
_space_group_symop_operation_xyz
x,y,z
-x,y,1/2-z
-x,-y,-z
x,-y,1/2+z
1/2+x,1/2+y,z
1/2-x,1/2+y,1/2-z
1/2-x,1/2-y,-z
1/2+x,1/2-y,1/2+z
loop_
_atom_site_type_symbol
_atom_site_label
_atom_site_fract_x
_atom_site_fract_y
_atom_site_fract_z
Si Si1 0.923750 0.334993 0.791184
Si Si2 0.349330 0.327028 0.741276
Si Si3 0.714839 0.678091 0.737186
Si Si4 0.680770 0.469732 0.494995
Si Si5 0.573848 0.916880 0.360948
O O1 0.865260 0.226935 0.783794
O O2 0.895802 0.446098 0.672255
O O3 0.000000 0.294438 0.750000
O O4 0.932553 0.392209 0.962709
O O5 0.266221 0.292876 0.716711
O O6 0.364723 0.378448 0.912479
O O7 0.363042 0.440293 0.629857
O O8 0.384606 0.199314 0.698965
O O9 0.720691 0.567624 0.615742
O O10 0.729773 0.614723 0.903142
O O11 0.500000 0.917787 0.250000
#
# Coordination Sequence:
#
# PCOD9297654 Si02
#       5
#     8   8   8   8   8
#     4  11  25  43  67  96 129 170 218 266 318 379
#     4  11  24  42  69  94 134 168 217 265 320 382
#     4  11  24  42  69  94 134 168 217 265 320 382
#     4  10  24  42  61 102 129 166 218 260 328 380
#     4  11  25  43  67  96 129 170 218 266 318 379
#
# _framework density 22.446898000000001
#
# number of rings (size 3 to 8) (size 9 to 14) (size 15 to 20)
#    0.000    1.200    2.000    3.600   11.200    0.000 
#    0.000    6.000    0.000    0.000    0.000    0.000 
#    0.000    0.000    0.000    0.000    0.000    0.000 
#
# Total GULP energy -111825.254500 kJ/mol
# GULP energy per Si atom -5591.262725 kJ/mol
# Density = 2.239581 g / cm^3
# Si number density = 22.446898 Si / 1000 Ang^3
#
#
#
# Elastic Constant Matrix: (Units=GPa)
#
#
# Indices 1 2 3 4 5 6 
#
# 1 65.5563 36.8464 25.4683 0.0000 -8.5713 0.0000
# 2 36.8464 89.1973 33.7493 0.0000 -10.0579 0.0000
# 3 25.4683 33.7493 146.3231 0.0000 -21.3420 0.0000
# 4 0.0000 0.0000 0.0000 43.2958 0.0000 -8.5429
# 5 -8.5713 -10.0579 -21.3420 0.0000 17.0417 0.0000
# 6 0.0000 0.0000 0.0000 -8.5429 0.0000 29.2662
#
#
#
# Elastic Compliance Matrix: (Units=1/GPa)
#
#
# Indices 1 2 3 4 5 6 
#
# 1 0.020525 -0.007532 -0.001196 0.000000 0.004380 0.000000
# 2 -0.007532 0.015340 -0.001785 0.000000 0.003029 0.000000
# 3 -0.001196 -0.001785 0.008825 0.000000 0.009396 0.000000
# 4 0.000000 0.000000 0.000000 0.024509 0.000000 0.007154
# 5 0.004380 0.003029 0.009396 0.000000 0.074438 0.000000
# 6 0.000000 0.000000 0.000000 0.007154 0.000000 0.036257
#
#
# Mechanical properties :
#
#
# Convention : Reuss Voigt Hill
#
# Bulk Modulus (GPa) = 42.26237 54.80051 48.53144
# Shear Modulus (GPa) = 23.94550 31.58824 27.76687
#
# Velocity S-wave (km/s) = 3.26968 3.75539 3.52092
# Velocity P-wave (km/s) = 5.75525 6.57802 6.18034
#
# Compressibility (1/GPa) = 0.02366171
#
# Stress axis : x y z
#
# Youngs Moduli (GPa) = 48.72116 65.19091 113.31858
#
# Poissons Ratio (x) = 0.49102 0.13558
# Poissons Ratio (y) = 0.36697 0.20230
# Poissons Ratio (z) = 0.05829 0.11638
#
# Static dielectric constant tensor:
#      x y z
#    x 1.816880 0.000000 -0.013540 
#    y 0.000000 1.816470 0.000000 
#    z -0.013540 0.000000 1.855170 
# 
# From -- ./inp_files/29338.got.cif
#   From: 2010.05.17/outbox.cif.g08.bks.cpg/sg15_15_cif.got.tgz:29338.got - 2010.06.03 18:47:42.
