data_PCOD9297643
_publ_section_title
;
Structure prediction by ZEFSAII (Michael W. Deem and Ramdas Pophale) SiO2 
 PCOD9297643
Probable space group: C 2/C
;
_chemical_formula_sum "Si O2"
_cell_formula_units_Z 36
_cell_length_a 9.195897
_cell_length_b 14.678313
_cell_length_c 18.490150
_cell_angle_alpha 90.000000
_cell_angle_beta 38.421986
_cell_angle_gamma 90.000000
_cell_volume 1551.014268
_symmetry_space_group_name_H-M "C 2/C"
_symmetry_group_IT_number 15
_symmetry_cell_setting 'monoclinic'
loop_
_space_group_symop_operation_xyz
x,y,z
-x,y,1/2-z
-x,-y,-z
x,-y,1/2+z
1/2+x,1/2+y,z
1/2-x,1/2+y,1/2-z
1/2-x,1/2-y,-z
1/2+x,1/2-y,1/2+z
loop_
_atom_site_type_symbol
_atom_site_label
_atom_site_fract_x
_atom_site_fract_y
_atom_site_fract_z
Si Si1 0.000000 0.500000 0.500000
Si Si2 0.000000 0.030990 0.750000
Si Si3 0.805152 0.897847 0.182000
Si Si4 0.302593 0.305211 0.551700
Si Si5 0.476717 0.813882 0.415893
Si Si6 0.500000 0.939752 0.750000
O O1 0.747154 0.481904 0.641183
O O2 0.946473 0.411720 0.466559
O O3 0.028298 0.088121 0.813108
O O4 0.595608 0.835011 0.292680
O O5 0.956254 0.857204 0.058811
O O6 0.703439 0.994791 0.198743
O O7 0.250000 0.250000 0.500000
O O8 0.340106 0.240812 0.605364
O O9 0.101424 0.377203 0.647171
O O10 0.250000 0.750000 0.500000
#
# Coordination Sequence:
#
# PCOD9297643 Si02
#       6
#     4   4   8   8   8   4
#     4  10  24  44  72 110 144 202 242 322 374 472
#     4  10  24  41  77 102 152 192 258 295 398 451
#     4  11  25  46  72 109 150 194 254 316 383 470
#     4  12  26  46  72 106 148 191 250 315 386 459
#     4  11  26  46  75 108 151 193 262 311 391 465
#     4  12  28  45  75 104 148 200 246 311 390 459
#
# _framework density 23.210618
#
# number of rings (size 3 to 8) (size 9 to 14) (size 15 to 20)
#    0.000    0.889    0.000    6.000   15.556    2.667 
#    0.000    0.000    0.000    0.000    0.000    0.000 
#    0.000    0.000    0.000    0.000    0.000    0.000 
#
# Total GULP energy -100222.585088 kJ/mol
# GULP energy per Si atom -5567.921394 kJ/mol
# Density = 2.315779 g / cm^3
# Si number density = 23.210618 Si / 1000 Ang^3
#
#
#
# Elastic Constant Matrix: (Units=GPa)
#
#
# Indices 1 2 3 4 5 6 
#
# 1 76.9713 41.7882 -5.6733 -0.0005 0.8937 0.0004
# 2 41.7882 109.9987 68.4102 -0.0008 5.8232 0.0001
# 3 -5.6733 68.4102 171.9155 -0.0022 10.3784 0.0024
# 4 -0.0005 -0.0008 -0.0022 40.0055 0.0005 -0.4876
# 5 0.8937 5.8232 10.3784 0.0005 27.7719 -0.0008
# 6 0.0004 0.0001 0.0024 -0.4876 -0.0008 36.1223
#
#
#
# Elastic Compliance Matrix: (Units=1/GPa)
#
#
# Indices 1 2 3 4 5 6 
#
# 1 0.018747 -0.009970 0.004600 0.000000 -0.000232 0.000000
# 2 -0.009970 0.017399 -0.007214 0.000000 -0.000631 0.000001
# 3 0.004600 -0.007214 0.008959 0.000000 -0.001983 -0.000001
# 4 0.000000 0.000000 0.000000 0.025001 -0.000001 0.000337
# 5 -0.000232 -0.000631 -0.001983 -0.000001 0.036889 0.000001
# 6 0.000000 0.000001 -0.000001 0.000337 0.000001 0.027688
#
#
# Mechanical properties :
#
#
# Convention : Reuss Voigt Hill
#
# Bulk Modulus (GPa) = 50.16227 63.10395 56.63311
# Shear Modulus (GPa) = 30.03057 37.73731 33.88394
#
# Velocity S-wave (km/s) = 3.60089 4.03658 3.82494
# Velocity P-wave (km/s) = 6.24077 6.99799 6.63020
#
# Compressibility (1/GPa) = 0.01993530
#
# Stress axis : x y z
#
# Youngs Moduli (GPa) = 53.34298 57.47458 111.61694
#
# Poissons Ratio (x) = 0.57305 -0.51346
# Poissons Ratio (y) = 0.53185 0.80526
# Poissons Ratio (z) = -0.24539 0.41465
#
# Static dielectric constant tensor:
#      x y z
#    x 1.971920 0.000000 -0.120970 
#    y 0.000000 1.863570 0.000000 
#    z -0.120970 0.000000 1.942190 
# 
# From -- ./inp_files/269660.got.cif
#   From: 2010.05.17/outbox.cif.g08.bks.cpg/sg15_135_cif.got.tgz:269660.got - 2010.06.03 18:47:42.
