data_PCOD9297109
_publ_section_title
;
Structure prediction by ZEFSAII (Michael W. Deem and Ramdas Pophale) SiO2 
 PCOD9297109
Probable space group: C 2/C
;
_chemical_formula_sum "Si O2"
_cell_formula_units_Z 64
_cell_length_a 13.290631
_cell_length_b 14.164694
_cell_length_c 17.172989
_cell_angle_alpha 90.000000
_cell_angle_beta 58.011924
_cell_angle_gamma 90.000000
_cell_volume 2742.051686
_symmetry_space_group_name_H-M "C 2/C"
_symmetry_group_IT_number 15
_symmetry_cell_setting 'monoclinic'
loop_
_space_group_symop_operation_xyz
x,y,z
-x,y,1/2-z
-x,-y,-z
x,-y,1/2+z
1/2+x,1/2+y,z
1/2-x,1/2+y,1/2-z
1/2-x,1/2-y,-z
1/2+x,1/2-y,1/2+z
loop_
_atom_site_type_symbol
_atom_site_label
_atom_site_fract_x
_atom_site_fract_y
_atom_site_fract_z
Si Si1 0.692269 0.553015 0.608504
Si Si2 0.954603 0.104256 0.393354
Si Si3 0.553832 0.723844 0.642471
Si Si4 0.404252 0.922312 0.468442
Si Si5 0.545624 0.094848 0.375122
Si Si6 0.637492 0.367200 0.395109
Si Si7 0.296864 0.543776 0.228055
Si Si8 0.125155 0.279781 0.157384
O O1 0.577865 0.501210 0.618765
O O2 0.674689 0.662933 0.597008
O O3 0.802159 0.499879 0.524200
O O4 0.697898 0.522121 0.696493
O O5 0.917230 0.124589 0.496349
O O6 0.880611 0.171906 0.367214
O O7 0.093571 0.116070 0.320804
O O8 0.500000 0.711627 0.750000
O O9 0.548915 0.834310 0.623413
O O10 0.461341 0.677830 0.619658
O O11 0.439245 0.883394 0.538933
O O12 0.368786 0.841737 0.423780
O O13 0.508824 0.985043 0.389195
O O14 0.672401 0.097825 0.280820
O O15 0.680693 0.471083 0.351263
O O16 0.756289 0.304056 0.345262
O O17 0.000000 0.301970 0.250000
#
# Coordination Sequence:
#
# PCOD9297109 Si02
#       8
#     8   8   8   8   8   8   8   8
#     4  11  22  44  72  96 146 188 236 294 369 420
#     4  12  24  42  69 108 142 184 239 298 361 429
#     4  12  25  45  67 104 142 189 237 300 350 427
#     4  10  23  48  69 102 141 192 233 303 361 430
#     4  10  25  45  73  98 142 188 243 288 368 430
#     4  12  25  42  70 103 143 183 238 304 352 426
#     4  11  23  44  71 101 140 191 237 293 364 433
#     4  12  26  42  72 106 145 180 239 295 367 428
#
# _framework density 23.340187
#
# number of rings (size 3 to 8) (size 9 to 14) (size 15 to 20)
#    0.000    0.750    3.750    3.375    5.250    2.000 
#    0.000    1.250    0.000    0.000    0.000    0.000 
#    0.000    0.000    0.000    0.000    0.000    0.000 
#
# Total GULP energy -179159.249603 kJ/mol
# GULP energy per Si atom -5598.726550 kJ/mol
# Density = 2.328706 g / cm^3
# Si number density = 23.340187 Si / 1000 Ang^3
#
#
#
# Elastic Constant Matrix: (Units=GPa)
#
#
# Indices 1 2 3 4 5 6 
#
# 1 52.0208 19.0886 17.6193 0.0000 -1.7447 0.0000
# 2 19.0886 73.5272 16.4178 0.0000 4.7983 0.0000
# 3 17.6193 16.4178 91.3078 0.0000 -6.5903 0.0000
# 4 0.0000 0.0000 0.0000 26.2251 0.0000 -3.2133
# 5 -1.7447 4.7983 -6.5903 0.0000 35.7833 0.0000
# 6 0.0000 0.0000 0.0000 -3.2133 0.0000 43.8346
#
#
#
# Elastic Compliance Matrix: (Units=1/GPa)
#
#
# Indices 1 2 3 4 5 6 
#
# 1 0.022255 -0.005119 -0.003290 0.000000 0.001166 0.000000
# 2 -0.005119 0.015553 -0.002004 0.000000 -0.002704 0.000000
# 3 -0.003290 -0.002004 0.012116 0.000000 0.002340 0.000000
# 4 0.000000 0.000000 0.000000 0.038477 0.000000 0.002821
# 5 0.001166 -0.002704 0.002340 0.000000 0.028796 0.000000
# 6 0.000000 0.000000 0.000000 0.002821 0.000000 0.023020
#
#
# Mechanical properties :
#
#
# Convention : Reuss Voigt Hill
#
# Bulk Modulus (GPa) = 34.36625 35.90079 35.13352
# Shear Modulus (GPa) = 29.28384 32.08395 30.68390
#
# Velocity S-wave (km/s) = 3.54595 3.71161 3.62973
# Velocity P-wave (km/s) = 5.61436 5.81232 5.71420
#
# Compressibility (1/GPa) = 0.02909832
#
# Stress axis : x y z
#
# Youngs Moduli (GPa) = 44.93408 64.29481 82.53548
#
# Poissons Ratio (x) = 0.32913 0.27153
# Poissons Ratio (y) = 0.23002 0.16540
# Poissons Ratio (z) = 0.14783 0.12885
#
# Static dielectric constant tensor:
#      x y z
#    x 1.894190 0.000000 -0.032600 
#    y 0.000000 1.886280 0.000000 
#    z -0.032600 0.000000 1.867590 
# 
# From -- ./inp_files/205712.got.cif
#   From: 2010.05.17/outbox.cif.g08.bks.cpg/sg15_103_cif.got.tgz:205712.got - 2010.06.03 18:47:42.
