data_PCOD9297174
_publ_section_title
;
Structure prediction by ZEFSAII (Michael W. Deem and Ramdas Pophale) SiO2 
 PCOD9297174
Probable space group: C 2/C
;
_chemical_formula_sum "Si O2"
_cell_formula_units_Z 40
_cell_length_a 6.718462
_cell_length_b 12.161347
_cell_length_c 18.682174
_cell_angle_alpha 90.000000
_cell_angle_beta 109.967325
_cell_angle_gamma 90.000000
_cell_volume 1434.679325
_symmetry_space_group_name_H-M "C 2/C"
_symmetry_group_IT_number 15
_symmetry_cell_setting 'monoclinic'
loop_
_space_group_symop_operation_xyz
x,y,z
-x,y,1/2-z
-x,-y,-z
x,-y,1/2+z
1/2+x,1/2+y,z
1/2-x,1/2+y,1/2-z
1/2-x,1/2-y,-z
1/2+x,1/2-y,1/2+z
loop_
_atom_site_type_symbol
_atom_site_label
_atom_site_fract_x
_atom_site_fract_y
_atom_site_fract_z
Si Si1 0.244961 0.946181 0.486956
Si Si2 0.429966 0.517402 0.323954
Si Si3 0.020651 0.252288 0.547433
Si Si4 0.297848 0.248854 0.175399
Si Si5 0.884503 0.381855 0.123697
O O1 0.437399 0.859459 0.497697
O O2 0.668704 0.977384 0.439825
O O3 0.129338 0.998711 0.403609
O O4 0.066626 0.862093 0.495551
O O5 0.500000 0.509645 0.250000
O O6 0.320099 0.635410 0.321022
O O7 0.250279 0.428375 0.325453
O O8 0.266298 0.231328 0.585966
O O9 0.905725 0.256028 0.610333
O O10 0.500000 0.262147 0.250000
O O11 0.125078 0.345582 0.162893
#
# Coordination Sequence:
#
# PCOD9297174 Si02
#       5
#     8   8   8   8   8
#     4  10  23  53  86 126 163 216 281 340 416 504
#     4  11  26  56  87 123 173 221 277 347 422 496
#     4  10  23  49  86 126 165 206 282 350 406 500
#     4  12  30  55  81 122 174 222 282 347 415 494
#     4  11  26  56  88 120 163 227 276 344 418 499
#
# _framework density 27.880797999999999
#
# number of rings (size 3 to 8) (size 9 to 14) (size 15 to 20)
#    0.000    1.200    2.000    2.400    5.600    4.800 
#   21.600    0.000    0.000    0.000    0.000    0.000 
#    0.000    0.000    0.000    0.000    0.000    0.000 
#
# Total GULP energy -112143.904056 kJ/mol
# GULP energy per Si atom -5607.195203 kJ/mol
# Density = 2.781734 g / cm^3
# Si number density = 27.880798 Si / 1000 Ang^3
#
#
#
# Elastic Constant Matrix: (Units=GPa)
#
#
# Indices 1 2 3 4 5 6 
#
# 1 178.7298 110.0144 106.1990 0.0000 36.3228 0.0000
# 2 110.0144 180.0154 104.1622 0.0000 4.5404 0.0000
# 3 106.1990 104.1622 242.6221 0.0000 16.8132 0.0000
# 4 0.0000 0.0000 0.0000 32.6984 0.0000 -0.3017
# 5 36.3228 4.5404 16.8132 0.0000 56.0355 0.0000
# 6 0.0000 0.0000 0.0000 -0.3017 0.0000 38.8678
#
#
#
# Elastic Compliance Matrix: (Units=1/GPa)
#
#
# Indices 1 2 3 4 5 6 
#
# 1 0.011780 -0.005738 -0.002243 0.000000 -0.006498 0.000000
# 2 -0.005738 0.010193 -0.002109 0.000000 0.003526 0.000000
# 3 -0.002243 -0.002109 0.006021 0.000000 -0.000182 0.000000
# 4 0.000000 0.000000 0.000000 0.030585 0.000000 0.000237
# 5 -0.006498 0.003526 -0.000182 0.000000 0.021827 0.000000
# 6 0.000000 0.000000 0.000000 0.000237 0.000000 0.025730
#
#
# Mechanical properties :
#
#
# Convention : Reuss Voigt Hill
#
# Bulk Modulus (GPa) = 127.94714 138.01317 132.98015
# Shear Modulus (GPa) = 38.78398 44.25312 41.51855
#
# Velocity S-wave (km/s) = 3.73374 3.98832 3.86313
# Velocity P-wave (km/s) = 8.03606 8.41532 8.22787
#
# Compressibility (1/GPa) = 0.00781573
#
# Stress axis : x y z
#
# Youngs Moduli (GPa) = 84.89082 98.10769 166.07713
#
# Poissons Ratio (x) = 0.56290 0.37245
# Poissons Ratio (y) = 0.48707 0.35025
# Poissons Ratio (z) = 0.19038 0.20690
#
# Static dielectric constant tensor:
#      x y z
#    x 2.196270 0.000000 -0.026060 
#    y 0.000000 2.235350 0.000000 
#    z -0.026060 0.000000 2.233360 
# 
# From -- ./inp_files/260216.got.cif
#   From: 2010.05.17/outbox.cif.g08.bks.cpg/sg15_131_cif.got.tgz:260216.got - 2010.06.03 18:47:42.
