data_PCOD9297593
_publ_section_title
;
Structure prediction by ZEFSAII (Michael W. Deem and Ramdas Pophale) SiO2 
 PCOD9297593
Probable space group: C 2/C
;
_chemical_formula_sum "Si O2"
_cell_formula_units_Z 44
_cell_length_a 25.268354
_cell_length_b 10.280180
_cell_length_c 14.204518
_cell_angle_alpha 90.000000
_cell_angle_beta 34.389303
_cell_angle_gamma 90.000000
_cell_volume 2084.053272
_symmetry_space_group_name_H-M "C 2/C"
_symmetry_group_IT_number 15
_symmetry_cell_setting 'monoclinic'
loop_
_space_group_symop_operation_xyz
x,y,z
-x,y,1/2-z
-x,-y,-z
x,-y,1/2+z
1/2+x,1/2+y,z
1/2-x,1/2+y,1/2-z
1/2-x,1/2-y,-z
1/2+x,1/2-y,1/2+z
loop_
_atom_site_type_symbol
_atom_site_label
_atom_site_fract_x
_atom_site_fract_y
_atom_site_fract_z
Si Si1 0.875731 0.885824 0.030045
Si Si2 0.029752 0.342040 0.017305
Si Si3 0.320123 0.029249 0.598620
Si Si4 0.000000 0.902993 0.250000
Si Si5 0.161619 0.320907 0.081050
Si Si6 0.511084 0.837833 0.634797
O O1 0.933114 0.805420 0.024006
O O2 0.779273 0.941690 0.210982
O O3 0.866172 0.780831 0.959955
O O4 0.929778 0.005985 0.906978
O O5 0.109218 0.434308 0.946959
O O6 0.021466 0.377227 0.919693
O O7 0.928467 0.344567 0.218911
O O8 0.311054 0.956494 0.511305
O O9 0.376073 0.166078 0.527656
O O10 0.962184 0.798543 0.229969
O O11 0.250000 0.250000 0.000000
O O12 0.500000 0.918468 0.750000
#
# Coordination Sequence:
#
# PCOD9297593 Si02
#       6
#     8   8   8   4   8   8
#     4  11  23  43  64  98 133 174 220 276 328 399
#     4  11  23  44  70  94 134 178 222 273 334 395
#     4  11  24  42  69  99 135 169 222 274 333 402
#     4  10  24  42  62  90 136 164 220 268 340 380
#     4  11  24  42  69 101 128 179 226 267 329 402
#     4  10  24  41  67  94 130 171 218 272 336 383
#
# _framework density 21.112703
#
# number of rings (size 3 to 8) (size 9 to 14) (size 15 to 20)
#    0.545    0.727    1.818    4.364    7.636    3.636 
#    0.000    1.818    0.000    0.000    0.000    0.000 
#    0.000    0.000    0.000    0.000    0.000    0.000 
#
# Total GULP energy -122475.996510 kJ/mol
# GULP energy per Si atom -5567.090750 kJ/mol
# Density = 2.106465 g / cm^3
# Si number density = 21.112703 Si / 1000 Ang^3
#
#
#
# Elastic Constant Matrix: (Units=GPa)
#
#
# Indices 1 2 3 4 5 6 
#
# 1 119.8348 33.5977 57.6334 0.0000 22.6721 0.0000
# 2 33.5977 97.4051 43.7821 0.0000 7.6293 0.0000
# 3 57.6334 43.7821 177.9632 0.0000 2.2131 0.0000
# 4 0.0000 0.0000 0.0000 40.0044 0.0000 3.0940
# 5 22.6721 7.6293 2.2131 0.0000 30.4290 0.0000
# 6 0.0000 0.0000 0.0000 3.0940 0.0000 34.5201
#
#
#
# Elastic Compliance Matrix: (Units=1/GPa)
#
#
# Indices 1 2 3 4 5 6 
#
# 1 0.012062 -0.002030 -0.003304 0.000000 -0.008238 0.000000
# 2 -0.002030 0.012109 -0.002305 0.000000 -0.001356 0.000000
# 3 -0.003304 -0.002305 0.007225 0.000000 0.002514 0.000000
# 4 0.000000 0.000000 0.000000 0.025172 0.000000 -0.002256
# 5 -0.008238 -0.001356 0.002514 0.000000 0.039158 0.000000
# 6 0.000000 0.000000 0.000000 -0.002256 0.000000 0.029171
#
#
# Mechanical properties :
#
#
# Convention : Reuss Voigt Hill
#
# Bulk Modulus (GPa) = 62.04466 73.91438 67.97952
# Shear Modulus (GPa) = 34.35328 38.33669 36.34498
#
# Velocity S-wave (km/s) = 4.03816 4.26586 4.15357
# Velocity P-wave (km/s) = 7.15496 7.70382 7.43446
#
# Compressibility (1/GPa) = 0.01611742
#
# Stress axis : x y z
#
# Youngs Moduli (GPa) = 82.90730 82.58516 138.40868
#
# Poissons Ratio (x) = 0.16764 0.45735
# Poissons Ratio (y) = 0.16830 0.31899
# Poissons Ratio (z) = 0.27395 0.19033
#
# Static dielectric constant tensor:
#      x y z
#    x 1.796970 0.000000 0.029600 
#    y 0.000000 1.844000 0.000000 
#    z 0.029600 0.000000 1.841860 
# 
# From -- ./inp_files/177505.got.cif
#   From: 2010.05.17/outbox.cif.g08.bks.cpg/sg15_89_cif.got.tgz:177505.got - 2010.06.03 18:47:42.
