data_PCOD9297658
_publ_section_title
;
Structure prediction by ZEFSAII (Michael W. Deem and Ramdas Pophale) SiO2 
 PCOD9297658
Probable space group: C 2/C
;
_chemical_formula_sum "Si O2"
_cell_formula_units_Z 40
_cell_length_a 10.538638
_cell_length_b 18.687665
_cell_length_c 10.433437
_cell_angle_alpha 90.000000
_cell_angle_beta 101.856870
_cell_angle_gamma 90.000000
_cell_volume 2010.946457
_symmetry_space_group_name_H-M "C 2/C"
_symmetry_group_IT_number 15
_symmetry_cell_setting 'monoclinic'
loop_
_space_group_symop_operation_xyz
x,y,z
-x,y,1/2-z
-x,-y,-z
x,-y,1/2+z
1/2+x,1/2+y,z
1/2-x,1/2+y,1/2-z
1/2-x,1/2-y,-z
1/2+x,1/2-y,1/2+z
loop_
_atom_site_type_symbol
_atom_site_label
_atom_site_fract_x
_atom_site_fract_y
_atom_site_fract_z
Si Si1 0.713263 0.483881 0.143245
Si Si2 0.633937 0.177580 0.196232
Si Si3 0.925874 0.165862 0.869157
Si Si4 0.908916 0.131200 0.351443
Si Si5 0.864127 0.528087 0.421502
O O1 0.664977 0.403232 0.144614
O O2 0.606457 0.544951 0.146780
O O3 0.822883 0.498549 0.273698
O O4 0.762031 0.494242 0.008614
O O5 0.500000 0.172026 0.250000
O O6 0.641523 0.256810 0.140313
O O7 0.763771 0.161850 0.304554
O O8 0.631955 0.113847 0.092614
O O9 0.000000 0.163079 0.750000
O O10 0.025522 0.158979 0.006596
O O11 0.000000 0.149785 0.250000
O O12 0.000000 0.500000 0.500000
#
# Coordination Sequence:
#
# PCOD9297658 Si02
#       5
#     8   8   8   8   8
#     4  11  22  38  62  90 121 157 206 253 298 357
#     4  10  24  42  61  89 127 161 196 250 311 359
#     4  11  23  39  63  90 119 158 206 249 299 364
#     4  11  23  41  63  89 125 160 198 253 306 354
#     4  11  22  39  62  88 123 163 203 248 302 363
#
# _framework density 19.891131999999999
#
# number of rings (size 3 to 8) (size 9 to 14) (size 15 to 20)
#    0.000    1.200    0.000    7.800    0.000    8.000 
#    0.000    0.000    0.000    0.000    0.000    0.000 
#    0.000    0.000    0.000    0.000    0.000    0.000 
#
# Total GULP energy -111779.380358 kJ/mol
# GULP energy per Si atom -5588.969018 kJ/mol
# Density = 1.984586 g / cm^3
# Si number density = 19.891132 Si / 1000 Ang^3
#
#
#
# Elastic Constant Matrix: (Units=GPa)
#
#
# Indices 1 2 3 4 5 6 
#
# 1 75.7856 40.8684 31.0925 0.0000 3.3303 0.0000
# 2 40.8684 140.7423 44.0928 0.0000 34.4139 0.0000
# 3 31.0925 44.0928 120.4462 0.0000 9.3269 0.0000
# 4 0.0000 0.0000 0.0000 37.5512 0.0000 -2.1975
# 5 3.3303 34.4139 9.3269 0.0000 31.8773 0.0000
# 6 0.0000 0.0000 0.0000 -2.1975 0.0000 29.4357
#
#
#
# Elastic Compliance Matrix: (Units=1/GPa)
#
#
# Indices 1 2 3 4 5 6 
#
# 1 0.016941 -0.005162 -0.002842 0.000000 0.004635 0.000000
# 2 -0.005162 0.012239 -0.002217 0.000000 -0.012025 0.000000
# 3 -0.002842 -0.002217 0.009863 0.000000 -0.000196 0.000000
# 4 0.000000 0.000000 0.000000 0.026747 0.000000 0.001997
# 5 0.004635 -0.012025 -0.000196 0.000000 0.043925 0.000000
# 6 0.000000 0.000000 0.000000 0.001997 0.000000 0.034121
#
#
# Mechanical properties :
#
#
# Convention : Reuss Voigt Hill
#
# Bulk Modulus (GPa) = 53.76169 63.23130 58.49650
# Shear Modulus (GPa) = 29.32903 34.50087 31.91495
#
# Velocity S-wave (km/s) = 3.84406 4.16923 4.00994
# Velocity P-wave (km/s) = 6.84025 7.41852 7.13524
#
# Compressibility (1/GPa) = 0.01860061
#
# Stress axis : x y z
#
# Youngs Moduli (GPa) = 59.02703 81.70671 101.39051
#
# Poissons Ratio (x) = 0.42178 0.28820
# Poissons Ratio (y) = 0.30471 0.22475
# Poissons Ratio (z) = 0.16778 0.18112
#
# Static dielectric constant tensor:
#      x y z
#    x 1.703490 0.000000 0.016290 
#    y 0.000000 1.694280 0.000000 
#    z 0.016290 0.000000 1.616400 
# 
# From -- ./inp_files/29085.got.cif
#   From: 2010.05.17/outbox.cif.g08.bks.cpg/sg15_15_cif.got.tgz:29085.got - 2010.06.03 18:47:42.
