data_PCOD9297063
_publ_section_title
;
Structure prediction by ZEFSAII (Michael W. Deem and Ramdas Pophale) SiO2 
 PCOD9297063
Probable space group: C 2/C
;
_chemical_formula_sum "Si O2"
_cell_formula_units_Z 56
_cell_length_a 7.080358
_cell_length_b 20.982330
_cell_length_c 19.293852
_cell_angle_alpha 90.000000
_cell_angle_beta 49.653621
_cell_angle_gamma 90.000000
_cell_volume 2184.566188
_symmetry_space_group_name_H-M "C 2/C"
_symmetry_group_IT_number 15
_symmetry_cell_setting 'monoclinic'
loop_
_space_group_symop_operation_xyz
x,y,z
-x,y,1/2-z
-x,-y,-z
x,-y,1/2+z
1/2+x,1/2+y,z
1/2-x,1/2+y,1/2-z
1/2-x,1/2-y,-z
1/2+x,1/2-y,1/2+z
loop_
_atom_site_type_symbol
_atom_site_label
_atom_site_fract_x
_atom_site_fract_y
_atom_site_fract_z
Si Si1 0.870251 0.640055 0.469721
Si Si2 0.037064 0.428855 0.328301
Si Si3 0.273127 0.175974 0.342964
Si Si4 0.982944 0.966281 0.079201
Si Si5 0.442375 0.212856 0.687922
Si Si6 0.212945 0.656949 0.507253
Si Si7 0.797374 0.038995 0.342181
O O1 0.005236 0.675217 0.500360
O O2 0.059126 0.581958 0.409965
O O3 0.843631 0.680599 0.406604
O O4 0.616481 0.602764 0.546043
O O5 0.807141 0.454305 0.337729
O O6 0.148972 0.360082 0.281486
O O7 0.891346 0.407895 0.434238
O O8 0.224748 0.481735 0.307944
O O9 0.500000 0.139924 0.250000
O O10 0.238819 0.241081 0.309268
O O11 0.989291 0.149619 0.412394
O O12 0.106007 0.008627 0.109656
O O13 0.000000 0.000000 0.000000
O O14 0.500000 0.238605 0.750000
O O15 0.680938 0.204418 0.580473
O O16 0.000000 0.077834 0.250000
#
# Coordination Sequence:
#
# PCOD9297063 Si02
#       7
#     8   8   8   8   8   8   8
#     4  12  25  46  71 106 147 198 250 303 371 457
#     4  10  23  47  74 106 148 191 244 306 374 444
#     4  12  29  48  74 108 143 201 252 313 382 444
#     4  12  22  42  73 102 144 193 242 294 375 445
#     4  10  25  51  76 106 145 190 249 321 377 442
#     4  10  24  47  78 105 149 192 248 316 375 448
#     4  12  28  41  70 112 154 198 243 305 372 458
#
# _framework density 25.634381999999999
#
# number of rings (size 3 to 8) (size 9 to 14) (size 15 to 20)
#    0.857    0.000    4.286    1.714    6.000    1.143 
#    5.143    0.000    0.000    0.000    0.000    0.000 
#    0.000    0.000    0.000    0.000    0.000    0.000 
#
# Total GULP energy -156662.177140 kJ/mol
# GULP energy per Si atom -5595.077755 kJ/mol
# Density = 2.557604 g / cm^3
# Si number density = 25.634382 Si / 1000 Ang^3
#
#
#
# Elastic Constant Matrix: (Units=GPa)
#
#
# Indices 1 2 3 4 5 6 
#
# 1 167.3121 41.4563 49.5151 0.0000 24.0570 0.0000
# 2 41.4563 72.7348 6.9220 0.0000 15.5361 0.0000
# 3 49.5151 6.9220 125.5316 0.0000 -12.7809 0.0000
# 4 0.0000 0.0000 0.0000 23.0388 0.0000 9.8016
# 5 24.0570 15.5361 -12.7809 0.0000 58.6611 0.0000
# 6 0.0000 0.0000 0.0000 9.8016 0.0000 28.9583
#
#
#
# Elastic Compliance Matrix: (Units=1/GPa)
#
#
# Indices 1 2 3 4 5 6 
#
# 1 0.008382 -0.003772 -0.003423 0.000000 -0.003184 0.000000
# 2 -0.003772 0.016456 0.000301 0.000000 -0.002746 0.000000
# 3 -0.003423 0.000301 0.009648 0.000000 0.003426 0.000000
# 4 0.000000 0.000000 0.000000 0.050707 0.000000 -0.017163
# 5 -0.003184 -0.002746 0.003426 0.000000 0.019827 0.000000
# 6 0.000000 0.000000 0.000000 -0.017163 0.000000 0.040341
#
#
# Mechanical properties :
#
#
# Convention : Reuss Voigt Hill
#
# Bulk Modulus (GPa) = 48.30966 62.37391 55.34179
# Shear Modulus (GPa) = 30.11170 39.97731 35.04451
#
# Velocity S-wave (km/s) = 3.43105 3.95336 3.70143
# Velocity P-wave (km/s) = 5.88071 6.72486 6.31690
#
# Compressibility (1/GPa) = 0.02069979
#
# Stress axis : x y z
#
# Youngs Moduli (GPa) = 119.30168 60.76726 103.64470
#
# Poissons Ratio (x) = 0.22919 0.35472
# Poissons Ratio (y) = 0.44996 -0.03117
# Poissons Ratio (z) = 0.40831 -0.01827
#
# Static dielectric constant tensor:
#      x y z
#    x 2.029300 0.000000 0.031030 
#    y 0.000000 2.051020 0.000000 
#    z 0.031030 0.000000 2.119400 
# 
# From -- ./inp_files/228409.got.cif
#   From: 2010.05.17/outbox.cif.g08.bks.cpg/sg15_115_cif.got.tgz:228409.got - 2010.06.03 18:47:42.
