data_PCOD9297092
_publ_section_title
;
Structure prediction by ZEFSAII (Michael W. Deem and Ramdas Pophale) SiO2 
 PCOD9297092
Probable space group: C 2/C
;
_chemical_formula_sum "Si O2"
_cell_formula_units_Z 56
_cell_length_a 19.637154
_cell_length_b 7.868941
_cell_length_c 20.931398
_cell_angle_alpha 90.000000
_cell_angle_beta 43.799627
_cell_angle_gamma 90.000000
_cell_volume 2238.649294
_symmetry_space_group_name_H-M "C 2/C"
_symmetry_group_IT_number 15
_symmetry_cell_setting 'monoclinic'
loop_
_space_group_symop_operation_xyz
x,y,z
-x,y,1/2-z
-x,-y,-z
x,-y,1/2+z
1/2+x,1/2+y,z
1/2-x,1/2+y,1/2-z
1/2-x,1/2-y,-z
1/2+x,1/2-y,1/2+z
loop_
_atom_site_type_symbol
_atom_site_label
_atom_site_fract_x
_atom_site_fract_y
_atom_site_fract_z
Si Si1 0.350190 0.934137 0.739498
Si Si2 0.546938 0.818527 0.554535
Si Si3 0.814130 0.021126 0.434169
Si Si4 0.324363 0.874955 0.578174
Si Si5 0.953352 0.072147 0.447346
Si Si6 0.322951 0.685047 0.210589
Si Si7 0.648040 0.157175 0.123609
O O1 0.431335 0.850960 0.638926
O O2 0.246341 0.837680 0.804050
O O3 0.385762 0.927668 0.788495
O O4 0.336710 0.124332 0.725143
O O5 0.569352 0.607037 0.368751
O O6 0.562861 0.624483 0.524095
O O7 0.585347 0.846544 0.601243
O O8 0.748349 0.935510 0.534589
O O9 0.839687 0.858485 0.372712
O O10 0.744462 0.138185 0.438889
O O11 0.909613 0.093388 0.404652
O O12 0.393008 0.707675 0.530205
O O13 0.247135 0.894064 0.687279
O O14 0.394898 0.039278 0.524334
#
# Coordination Sequence:
#
# PCOD9297092 Si02
#       7
#     8   8   8   8   8   8   8
#     4  12  25  49  68 106 151 194 251 297 363 442
#     4  10  23  47  80 104 146 185 237 314 373 432
#     4   9  20  40  75 109 145 183 236 310 365 430
#     4  11  24  47  72 113 147 190 246 305 365 435
#     4  11  23  48  69 114 143 190 249 290 382 429
#     4  12  29  46  74 106 149 206 245 303 357 448
#     4   9  20  41  75 109 138 191 236 299 376 425
#
# _framework density 25.015082
#
# number of rings (size 3 to 8) (size 9 to 14) (size 15 to 20)
#    0.000    1.429    1.429    3.429    4.000    2.286 
#    2.571    3.571    0.000    0.000    0.000    0.000 
#    0.000    0.000    0.000    0.000    0.000    0.000 
#
# Total GULP energy -156889.631107 kJ/mol
# GULP energy per Si atom -5603.201111 kJ/mol
# Density = 2.495815 g / cm^3
# Si number density = 25.015082 Si / 1000 Ang^3
#
#
#
# Elastic Constant Matrix: (Units=GPa)
#
#
# Indices 1 2 3 4 5 6 
#
# 1 139.3713 44.5602 70.0218 0.0001 -24.1094 0.0005
# 2 44.5602 134.7861 34.9482 0.0002 4.6710 0.0012
# 3 70.0218 34.9482 95.1870 0.0001 -2.3931 0.0002
# 4 0.0001 0.0002 0.0001 22.1571 0.0000 -3.9615
# 5 -24.1094 4.6710 -2.3931 0.0000 41.3011 0.0001
# 6 0.0005 0.0012 0.0002 -3.9615 0.0001 35.8360
#
#
#
# Elastic Compliance Matrix: (Units=1/GPa)
#
#
# Indices 1 2 3 4 5 6 
#
# 1 0.013926 -0.002511 -0.009124 0.000000 0.007885 0.000000
# 2 -0.002511 0.008703 -0.001412 0.000000 -0.002532 0.000000
# 3 -0.009124 -0.001412 0.017631 0.000000 -0.004145 0.000000
# 4 0.000000 0.000000 0.000000 0.046042 0.000000 0.005090
# 5 0.007885 -0.002532 -0.004145 0.000000 0.028861 0.000000
# 6 0.000000 0.000000 0.000000 0.005090 0.000000 0.028468
#
#
# Mechanical properties :
#
#
# Convention : Reuss Voigt Hill
#
# Bulk Modulus (GPa) = 70.58814 74.26719 72.42766
# Shear Modulus (GPa) = 28.66186 34.51313 31.58749
#
# Velocity S-wave (km/s) = 3.38861 3.71845 3.55736
# Velocity P-wave (km/s) = 6.60225 6.94185 6.77418
#
# Compressibility (1/GPa) = 0.01416669
#
# Stress axis : x y z
#
# Youngs Moduli (GPa) = 71.80841 114.90028 56.71671
#
# Poissons Ratio (x) = 0.28856 0.51748
# Poissons Ratio (y) = 0.18034 0.08006
# Poissons Ratio (z) = 0.65518 0.16219
#
# Static dielectric constant tensor:
#      x y z
#    x 2.050080 0.000000 0.001300 
#    y 0.000000 1.967870 0.000000 
#    z 0.001300 0.000000 1.961370 
# 
# From -- ./inp_files/251507.got.cif
#   From: 2010.05.17/outbox.cif.g08.bks.cpg/sg15_126_cif.got.tgz:251507.got - 2010.06.03 18:47:42.
