data_PCOD9297710
_publ_section_title
;
Structure prediction by ZEFSAII (Michael W. Deem and Ramdas Pophale) SiO2 
 PCOD9297710
Probable space group: C 2/C
;
_chemical_formula_sum "Si O2"
_cell_formula_units_Z 60
_cell_length_a 27.100309
_cell_length_b 23.096796
_cell_length_c 8.591889
_cell_angle_alpha 90.000000
_cell_angle_beta 29.432483
_cell_angle_gamma 90.000000
_cell_volume 2642.698797
_symmetry_space_group_name_H-M "C 2/C"
_symmetry_group_IT_number 15
_symmetry_cell_setting 'monoclinic'
loop_
_space_group_symop_operation_xyz
x,y,z
-x,y,1/2-z
-x,-y,-z
x,-y,1/2+z
1/2+x,1/2+y,z
1/2-x,1/2+y,1/2-z
1/2-x,1/2-y,-z
1/2+x,1/2-y,1/2+z
loop_
_atom_site_type_symbol
_atom_site_label
_atom_site_fract_x
_atom_site_fract_y
_atom_site_fract_z
Si Si1 0.222033 0.005440 0.693399
Si Si2 0.926691 0.645812 0.719223
Si Si3 0.000000 0.430495 0.750000
Si Si4 0.032711 0.161715 0.329428
Si Si5 0.930883 0.262253 0.783121
Si Si6 0.867347 0.464191 0.535105
Si Si7 0.715145 0.250806 0.279526
Si Si8 0.581948 0.548027 0.320168
O O1 0.275235 0.962872 0.667249
O O2 0.143677 0.972631 0.799076
O O3 0.312156 0.033040 0.350166
O O4 0.161508 0.051019 0.960787
O O5 0.927892 0.610851 0.550184
O O6 0.028050 0.682813 0.425586
O O7 0.927270 0.593080 0.835880
O O8 0.840756 0.691744 0.006850
O O9 0.068616 0.476553 0.656580
O O10 0.036741 0.111212 0.445305
O O11 0.000000 0.138652 0.250000
O O12 0.953917 0.207578 0.611503
O O13 0.134591 0.198068 0.026226
O O14 0.000000 0.259138 0.750000
O O15 0.811607 0.263378 0.123643
O O16 0.750000 0.250000 0.000000
O O17 0.500000 0.500000 0.500000
#
# Coordination Sequence:
#
# PCOD9297710 Si02
#       8
#     8   8   4   8   8   8   8   8
#     4  10  24  42  65 105 139 193 244 288 366 448
#     4  11  26  45  75 104 154 191 247 306 378 439
#     4  12  24  50  68 112 150 192 240 308 372 456
#     4  11  24  45  73 106 141 191 254 307 367 443
#     4  11  26  48  72 107 145 192 250 308 372 439
#     4  11  24  44  70 103 149 187 244 297 371 443
#     4  11  26  48  75 106 145 194 253 311 374 437
#     4  11  24  43  69 100 149 189 243 303 368 429
#
# _framework density 22.704063999999999
#
# number of rings (size 3 to 8) (size 9 to 14) (size 15 to 20)
#    0.000    1.067    3.333    1.600    1.867   10.667 
#    0.000    0.000    0.000    0.000    0.000    0.000 
#    0.000    0.000    0.000    0.000    0.000    0.000 
#
# Total GULP energy -167576.020886 kJ/mol
# GULP energy per Si atom -5585.867363 kJ/mol
# Density = 2.265239 g / cm^3
# Si number density = 22.704064 Si / 1000 Ang^3
#
#
#
# Elastic Constant Matrix: (Units=GPa)
#
#
# Indices 1 2 3 4 5 6 
#
# 1 114.3236 19.6106 23.4561 0.0000 -25.5103 0.0000
# 2 19.6106 129.3933 25.9516 0.0000 -5.9632 0.0000
# 3 23.4561 25.9516 96.0131 0.0000 -2.0685 0.0000
# 4 0.0000 0.0000 0.0000 0.1681 0.0000 4.9508
# 5 -25.5103 -5.9632 -2.0685 0.0000 37.4010 0.0000
# 6 0.0000 0.0000 0.0000 4.9508 0.0000 16.2516
#
#
#
# Elastic Compliance Matrix: (Units=1/GPa)
#
#
# Indices 1 2 3 4 5 6 
#
# 1 0.010978 -0.000872 -0.002291 0.000000 0.007222 0.000000
# 2 -0.000872 0.008293 -0.002015 0.000000 0.000616 0.000000
# 3 -0.002291 -0.002015 0.011493 0.000000 -0.001248 0.000000
# 4 0.000000 0.000000 0.000000 -0.746229 0.000000 0.227325
# 5 0.007222 0.000616 -0.001248 0.000000 0.031693 0.000000
# 6 0.000000 0.000000 0.000000 0.227325 0.000000 -0.007718
#
#
# Mechanical properties :
#
#
# Convention : Reuss Voigt Hill
#
# Bulk Modulus (GPa) = 48.99896 53.08518 51.04207
# Shear Modulus (GPa) = -7.41475 28.81158 10.69842
#
# Velocity S-wave (km/s) = -1.80912 3.56617 2.17310
# Velocity P-wave (km/s) = 4.15506 6.35523 5.36905
#
# Compressibility (1/GPa) = 0.02040859
#
# Stress axis : x y z
#
# Youngs Moduli (GPa) = 91.08944 120.58254 87.01146
#
# Poissons Ratio (x) = 0.10509 0.19933
# Poissons Ratio (y) = 0.07939 0.17536
# Poissons Ratio (z) = 0.20867 0.24302
#
# Static dielectric constant tensor:
#      x y z
#    x 1.945840 0.000000 0.044890 
#    y 0.000000 1.834630 0.000000 
#    z 0.044890 0.000000 1.898470 
# 
# From -- ./inp_files/67727.got.cif
#   From: 2010.05.17/outbox.cif.g08.bks.cpg/sg15_34_cif.got.tgz:67727.got - 2010.06.03 18:47:42.
