data_PCOD9297022
_publ_section_title
;
Structure prediction by ZEFSAII (Michael W. Deem and Ramdas Pophale) SiO2 
 PCOD9297022
Probable space group: C 2/C
;
_chemical_formula_sum "Si O2"
_cell_formula_units_Z 28
_cell_length_a 5.893181
_cell_length_b 17.405471
_cell_length_c 14.731926
_cell_angle_alpha 90.000000
_cell_angle_beta 127.386197
_cell_angle_gamma 90.000000
_cell_volume 1200.666211
_symmetry_space_group_name_H-M "C 2/C"
_symmetry_group_IT_number 15
_symmetry_cell_setting 'monoclinic'
loop_
_space_group_symop_operation_xyz
x,y,z
-x,y,1/2-z
-x,-y,-z
x,-y,1/2+z
1/2+x,1/2+y,z
1/2-x,1/2+y,1/2-z
1/2-x,1/2-y,-z
1/2+x,1/2-y,1/2+z
loop_
_atom_site_type_symbol
_atom_site_label
_atom_site_fract_x
_atom_site_fract_y
_atom_site_fract_z
Si Si1 0.000000 0.275738 0.250000
Si Si2 0.569276 0.144040 0.168316
Si Si3 0.469565 0.382485 0.445419
Si Si4 0.679307 0.473621 0.908801
O O1 0.761466 0.219144 0.234625
O O2 0.800569 0.328240 0.138293
O O3 0.500000 0.109814 0.250000
O O4 0.756349 0.083971 0.157632
O O5 0.278150 0.157382 0.039755
O O6 0.415560 0.426121 0.526491
O O7 0.499388 0.446671 0.372203
O O8 0.000000 0.500000 0.000000
#
# Coordination Sequence:
#
# PCOD9297022 Si02
#       4
#     4   8   8   8
#     4  12  26  44  70 110 140 188 234 294 354 420
#     4  11  24  43  71 104 144 190 230 289 358 424
#     4  10  23  47  70 105 143 184 239 293 352 415
#     4   9  21  47  70  99 139 187 236 292 349 418
#
# _framework density 23.320387
#
# number of rings (size 3 to 8) (size 9 to 14) (size 15 to 20)
#    0.000    1.714    0.000    2.571    0.000    9.143 
#   43.714    0.000    0.000    0.000    0.000    0.000 
#    0.000    0.000    0.000    0.000    0.000    0.000 
#
# Total GULP energy -78029.365774 kJ/mol
# GULP energy per Si atom -5573.526127 kJ/mol
# Density = 2.326731 g / cm^3
# Si number density = 23.320387 Si / 1000 Ang^3
#
#
#
# Elastic Constant Matrix: (Units=GPa)
#
#
# Indices 1 2 3 4 5 6 
#
# 1 115.6532 60.0508 56.2126 0.0000 8.8764 0.0000
# 2 60.0508 116.3211 66.6553 0.0000 10.5499 0.0000
# 3 56.2126 66.6553 127.0809 0.0000 36.5989 0.0000
# 4 0.0000 0.0000 0.0000 144.8245 0.0000 40.2407
# 5 8.8764 10.5499 36.5989 0.0000 70.1072 0.0000
# 6 0.0000 0.0000 0.0000 40.2407 0.0000 43.8100
#
#
#
# Elastic Compliance Matrix: (Units=1/GPa)
#
#
# Indices 1 2 3 4 5 6 
#
# 1 0.012655 -0.004661 -0.003405 0.000000 0.000877 0.000000
# 2 -0.004661 0.014201 -0.005815 0.000000 0.001489 0.000000
# 3 -0.003405 -0.005815 0.014181 0.000000 -0.006097 0.000000
# 4 0.000000 0.000000 0.000000 0.009271 0.000000 -0.008516
# 5 0.000877 0.001489 -0.006097 0.000000 0.017112 0.000000
# 6 0.000000 0.000000 0.000000 -0.008516 0.000000 0.030648
#
#
# Mechanical properties :
#
#
# Convention : Reuss Voigt Hill
#
# Bulk Modulus (GPa) = 75.34157 80.54361 77.94259
# Shear Modulus (GPa) = 38.38623 63.49079 50.93851
#
# Velocity S-wave (km/s) = 4.06154 5.22346 4.67871
# Velocity P-wave (km/s) = 7.37375 8.42569 7.91721
#
# Compressibility (1/GPa) = 0.01327289
#
# Stress axis : x y z
#
# Youngs Moduli (GPa) = 79.02287 70.41997 70.51452
#
# Poissons Ratio (x) = 0.32823 0.24013
# Poissons Ratio (y) = 0.36833 0.41007
# Poissons Ratio (z) = 0.26910 0.40952
#
# Static dielectric constant tensor:
#      x y z
#    x 1.847670 0.000000 -0.073450 
#    y 0.000000 1.953280 0.000000 
#    z -0.073450 0.000000 2.085060 
# 
# From -- ./inp_files/128226.got.cif
#   From: 2010.05.17/outbox.cif.g08.bks.cpg/sg15_65_cif.got.tgz:128226.got - 2010.06.03 18:47:42.
