data_PCOD9297314
_publ_section_title
;
Structure prediction by ZEFSAII (Michael W. Deem and Ramdas Pophale) SiO2 
 PCOD9297314
Probable space group: C 2/C
;
_chemical_formula_sum "Si O2"
_cell_formula_units_Z 56
_cell_length_a 8.994520
_cell_length_b 18.213270
_cell_length_c 24.586557
_cell_angle_alpha 90.000000
_cell_angle_beta 140.365055
_cell_angle_gamma 90.000000
_cell_volume 2569.283468
_symmetry_space_group_name_H-M "C 2/C"
_symmetry_group_IT_number 15
_symmetry_cell_setting 'monoclinic'
loop_
_space_group_symop_operation_xyz
x,y,z
-x,y,1/2-z
-x,-y,-z
x,-y,1/2+z
1/2+x,1/2+y,z
1/2-x,1/2+y,1/2-z
1/2-x,1/2-y,-z
1/2+x,1/2-y,1/2+z
loop_
_atom_site_type_symbol
_atom_site_label
_atom_site_fract_x
_atom_site_fract_y
_atom_site_fract_z
Si Si1 0.498823 0.747533 0.000234
Si Si2 0.782197 0.439718 0.229080
Si Si3 0.626423 0.841126 0.947848
Si Si4 0.015910 0.788377 0.627366
Si Si5 0.040590 0.500309 0.604502
Si Si6 0.145568 0.955621 0.909942
Si Si7 0.749046 0.731514 0.708865
O O1 0.620762 0.683709 0.000080
O O2 0.571632 0.733541 0.082060
O O3 0.590233 0.825464 0.001994
O O4 0.220332 0.745330 0.922185
O O5 0.500000 0.950151 0.250000
O O6 0.858358 0.460387 0.313006
O O7 0.572412 0.489811 0.148180
O O8 0.707400 0.354769 0.202897
O O9 0.562581 0.920640 0.909249
O O10 0.444483 0.781141 0.873926
O O11 0.951124 0.873137 0.617483
O O12 0.222176 0.764967 0.723701
O O13 0.231148 0.479539 0.611979
O O14 0.831543 0.539175 0.511857
O O15 0.000000 0.742047 0.750000
#
# Coordination Sequence:
#
# PCOD9297314 Si02
#       7
#     8   8   8   8   8   8   8
#     4  10  24  38  70  98 126 160 230 264 316 390
#     4  11  28  43  63 100 133 171 230 274 327 402
#     4  11  23  43  67  95 131 172 214 271 325 393
#     4  11  23  43  67  95 131 172 214 271 325 393
#     4  11  25  44  70  98 135 179 217 271 343 400
#     4  11  25  44  70  98 135 179 217 271 343 400
#     4  11  23  42  68  91 130 174 213 275 328 377
#
# _framework density 21.795960000000001
#
# number of rings (size 3 to 8) (size 9 to 14) (size 15 to 20)
#    0.000    1.143    2.857    1.286   10.000    1.143 
#    2.571    0.000    0.000    0.000    0.000    0.000 
#    0.000    0.000    0.000    0.000    0.000    0.000 
#
# Total GULP energy -156521.058734 kJ/mol
# GULP energy per Si atom -5590.037812 kJ/mol
# Density = 2.174635 g / cm^3
# Si number density = 21.795960 Si / 1000 Ang^3
#
#
#
# Elastic Constant Matrix: (Units=GPa)
#
#
# Indices 1 2 3 4 5 6 
#
# 1 76.0128 18.3964 24.1886 0.0001 -20.5448 0.0001
# 2 18.3964 100.3184 35.7398 -0.0005 9.6914 -0.0004
# 3 24.1886 35.7398 76.4680 -0.0002 -23.5840 -0.0002
# 4 0.0001 -0.0005 -0.0002 -306.0015 -0.0010 -266.7922
# 5 -20.5448 9.6914 -23.5840 -0.0010 30.2291 -0.0008
# 6 0.0001 -0.0004 -0.0002 -266.7922 -0.0008 -194.1604
#
#
#
# Elastic Compliance Matrix: (Units=1/GPa)
#
#
# Indices 1 2 3 4 5 6 
#
# 1 0.018050 -0.005254 0.001381 0.000000 0.015029 0.000000
# 2 -0.005254 0.016932 -0.011888 0.000000 -0.018274 0.000000
# 3 0.001381 -0.011888 0.025892 0.000000 0.024950 0.000000
# 4 0.000000 0.000000 0.000000 0.016504 0.000000 -0.022677
# 5 0.015029 -0.018274 0.024950 0.000000 0.068619 0.000000
# 6 0.000000 0.000000 0.000000 -0.022677 0.000000 0.026010
#
#
# Mechanical properties :
#
#
# Convention : Reuss Voigt Hill
#
# Bulk Modulus (GPa) = 34.06844 45.49432 39.78138
# Shear Modulus (GPa) = 23.43985 -82.35492 -29.45753
#
# Velocity S-wave (km/s) = 3.28292 -6.15358 -3.68028
# Velocity P-wave (km/s) = 5.48039 5.43788 0.48171
#
# Compressibility (1/GPa) = 0.02935268
#
# Stress axis : x y z
#
# Youngs Moduli (GPa) = 55.40218 59.05859 38.62263
#
# Poissons Ratio (x) = 0.31030 -0.05335
# Poissons Ratio (y) = 0.29109 0.45914
# Poissons Ratio (z) = -0.07653 0.70208
#
# Static dielectric constant tensor:
#      x y z
#    x 1.746280 0.000000 0.082230 
#    y 0.000000 1.768850 0.000000 
#    z 0.082230 0.000000 1.672360 
# 
# From -- ./inp_files/289772.got.cif
#   From: 2010.05.17/outbox.cif.g08.bks.cpg/sg15_145_cif.got.tgz:289772.got - 2010.06.03 18:47:42.
