data_PCOD9297110
_publ_section_title
;
Structure prediction by ZEFSAII (Michael W. Deem and Ramdas Pophale) SiO2 
 PCOD9297110
Probable space group: C 2/C
;
_chemical_formula_sum "Si O2"
_cell_formula_units_Z 44
_cell_length_a 20.031684
_cell_length_b 10.073151
_cell_length_c 9.079354
_cell_angle_alpha 90.000000
_cell_angle_beta 69.759192
_cell_angle_gamma 90.000000
_cell_volume 1718.916854
_symmetry_space_group_name_H-M "C 2/C"
_symmetry_group_IT_number 15
_symmetry_cell_setting 'monoclinic'
loop_
_space_group_symop_operation_xyz
x,y,z
-x,y,1/2-z
-x,-y,-z
x,-y,1/2+z
1/2+x,1/2+y,z
1/2-x,1/2+y,1/2-z
1/2-x,1/2-y,-z
1/2+x,1/2-y,1/2+z
loop_
_atom_site_type_symbol
_atom_site_label
_atom_site_fract_x
_atom_site_fract_y
_atom_site_fract_z
Si Si1 0.380769 0.371468 0.785924
Si Si2 0.457170 0.799671 0.002796
Si Si3 0.231018 0.507502 0.323286
Si Si4 0.661415 0.118541 0.103219
Si Si5 0.118774 0.281801 0.928031
Si Si6 0.500000 0.573901 0.750000
O O1 0.409761 0.240841 0.679319
O O2 0.308160 0.430003 0.778086
O O3 0.375680 0.338900 0.963827
O O4 0.441350 0.480597 0.723556
O O5 0.413746 0.894898 0.925788
O O6 0.467029 0.666106 0.900301
O O7 0.537695 0.834704 0.984532
O O8 0.199656 0.513096 0.183327
O O9 0.216837 0.372940 0.425238
O O10 0.175696 0.611333 0.440222
O O11 0.642637 0.232564 0.238785
#
# Coordination Sequence:
#
# PCOD9297110 Si02
#       6
#     8   8   8   8   8   4
#     4  12  26  43  73 103 147 181 240 292 359 421
#     4  12  24  48  70 107 138 188 238 298 351 423
#     4  10  26  46  67 108 136 196 227 295 350 426
#     4  10  25  46  72 100 145 182 243 286 355 423
#     4  10  23  48  69 106 137 190 233 294 354 417
#     4  12  24  42  72 104 136 184 234 292 356 416
#
# _framework density 25.597517
#
# number of rings (size 3 to 8) (size 9 to 14) (size 15 to 20)
#    1.091    0.000    3.636    1.091    5.091    1.455 
#    3.273    0.000    0.000    0.000    0.000    0.000 
#    0.000    0.000    0.000    0.000    0.000    0.000 
#
# Total GULP energy -122782.703632 kJ/mol
# GULP energy per Si atom -5581.031983 kJ/mol
# Density = 2.553926 g / cm^3
# Si number density = 25.597517 Si / 1000 Ang^3
#
#
#
# Elastic Constant Matrix: (Units=GPa)
#
#
# Indices 1 2 3 4 5 6 
#
# 1 222.4615 57.1865 84.0280 0.0000 -6.1831 0.0000
# 2 57.1865 37.0618 33.0236 0.0000 7.1505 0.0000
# 3 84.0280 33.0236 95.9545 0.0000 21.4118 0.0000
# 4 0.0000 0.0000 0.0000 42.3193 0.0000 -9.3264
# 5 -6.1831 7.1505 21.4118 0.0000 43.1778 0.0000
# 6 0.0000 0.0000 0.0000 -9.3264 0.0000 36.4179
#
#
#
# Elastic Compliance Matrix: (Units=1/GPa)
#
#
# Indices 1 2 3 4 5 6 
#
# 1 0.009813 -0.010742 -0.006305 0.000000 0.006311 0.000000
# 2 -0.010742 0.050675 -0.006542 0.000000 -0.006686 0.000000
# 3 -0.006305 -0.006542 0.020413 0.000000 -0.009942 0.000000
# 4 0.000000 0.000000 0.000000 0.025043 0.000000 0.006413
# 5 0.006311 -0.006686 -0.009942 0.000000 0.030101 0.000000
# 6 0.000000 0.000000 0.000000 0.006413 0.000000 0.029101
#
#
# Mechanical properties :
#
#
# Convention : Reuss Voigt Hill
#
# Bulk Modulus (GPa) = 29.65190 78.21712 53.93451
# Shear Modulus (GPa) = 22.36473 36.46566 29.41519
#
# Velocity S-wave (km/s) = 2.95906 3.77845 3.39358
# Velocity P-wave (km/s) = 4.82532 7.04688 6.03913
#
# Compressibility (1/GPa) = 0.03372465
#
# Stress axis : x y z
#
# Youngs Moduli (GPa) = 101.90204 19.73346 48.98841
#
# Poissons Ratio (x) = 0.21197 0.30887
# Poissons Ratio (y) = 1.09459 0.32048
# Poissons Ratio (z) = 0.64250 0.12909
#
# Static dielectric constant tensor:
#      x y z
#    x 1.948700 0.000000 -0.003850 
#    y 0.000000 2.073250 0.000000 
#    z -0.003850 0.000000 2.018410 
# 
# From -- ./inp_files/54379.got.cif
#   From: 2010.05.17/outbox.cif.g08.bks.cpg/sg15_28_cif.got.tgz:54379.got - 2010.06.03 18:47:42.
