data_PCOD9297875
_publ_section_title
;
Structure prediction by ZEFSAII (Michael W. Deem and Ramdas Pophale) SiO2 
 PCOD9297875
Probable space group: C 2/C
;
_chemical_formula_sum "Si O2"
_cell_formula_units_Z 36
_cell_length_a 8.575237
_cell_length_b 23.854288
_cell_length_c 9.479413
_cell_angle_alpha 90.000000
_cell_angle_beta 120.322357
_cell_angle_gamma 90.000000
_cell_volume 1673.804653
_symmetry_space_group_name_H-M "C 2/C"
_symmetry_group_IT_number 15
_symmetry_cell_setting 'monoclinic'
loop_
_space_group_symop_operation_xyz
x,y,z
-x,y,1/2-z
-x,-y,-z
x,-y,1/2+z
1/2+x,1/2+y,z
1/2-x,1/2+y,1/2-z
1/2-x,1/2-y,-z
1/2+x,1/2-y,1/2+z
loop_
_atom_site_type_symbol
_atom_site_label
_atom_site_fract_x
_atom_site_fract_y
_atom_site_fract_z
Si Si1 0.669722 0.144103 0.737807
Si Si2 0.676168 0.811108 0.926587
Si Si3 0.483318 0.347581 0.584382
Si Si4 0.000000 0.045048 0.250000
Si Si5 0.367774 0.988899 0.310784
O O1 0.500000 0.164131 0.750000
O O2 0.650943 0.160370 0.566501
O O3 0.666745 0.076501 0.736019
O O4 0.840940 0.169839 0.899658
O O5 0.500000 0.807205 0.750000
O O6 0.824062 0.843712 0.901338
O O7 0.750000 0.750000 0.000000
O O8 0.500000 0.320288 0.750000
O O9 0.429126 0.411282 0.599887
O O10 0.829996 0.013410 0.240521
O O11 0.500000 0.013354 0.250000
O O12 0.500000 0.000000 0.500000
#
# Coordination Sequence:
#
# PCOD9297875 Si02
#       5
#     8   8   8   4   8
#     4  11  24  44  69 102 140 184 231 291 345 418
#     4  12  27  47  75 102 135 178 232 294 358 422
#     4  10  24  44  67 101 139 177 235 278 354 410
#     4  10  24  42  70 100 148 192 232 288 342 416
#     4  11  26  40  66 102 144 190 241 281 349 413
#
# _framework density 21.507885000000002
#
# number of rings (size 3 to 8) (size 9 to 14) (size 15 to 20)
#    0.667    0.444    0.000    6.000    9.333    2.667 
#    0.000    4.444    0.000    0.000    0.000    0.000 
#    0.000    0.000    0.000    0.000    0.000    0.000 
#
# Total GULP energy -100374.097451 kJ/mol
# GULP energy per Si atom -5576.338747 kJ/mol
# Density = 2.145893 g / cm^3
# Si number density = 21.507885 Si / 1000 Ang^3
#
#
#
# Elastic Constant Matrix: (Units=GPa)
#
#
# Indices 1 2 3 4 5 6 
#
# 1 171.1799 21.0392 76.3597 0.0000 -21.6597 0.0000
# 2 21.0392 34.1738 2.2669 0.0000 -5.9258 0.0000
# 3 76.3597 2.2669 211.8069 0.0000 -3.6335 0.0000
# 4 0.0000 0.0000 0.0000 -9.5691 0.0000 97.5349
# 5 -21.6597 -5.9258 -3.6335 0.0000 55.4914 0.0000
# 6 0.0000 0.0000 0.0000 97.5349 0.0000 -292.3030
#
#
#
# Elastic Compliance Matrix: (Units=1/GPa)
#
#
# Indices 1 2 3 4 5 6 
#
# 1 0.007908 -0.004260 -0.002763 0.000000 0.002451 0.000000
# 2 -0.004260 0.032124 0.001224 0.000000 0.001848 0.000000
# 3 -0.002763 0.001224 0.005695 0.000000 -0.000575 0.000000
# 4 0.000000 0.000000 0.000000 0.043524 0.000000 0.014523
# 5 0.002451 0.001848 -0.000575 0.000000 0.019137 0.000000
# 6 0.000000 0.000000 0.000000 0.014523 0.000000 0.001425
#
#
# Mechanical properties :
#
#
# Convention : Reuss Voigt Hill
#
# Bulk Modulus (GPa) = 29.30216 68.49913 48.90065
# Shear Modulus (GPa) = 37.65388 -28.10984 4.77202
#
# Velocity S-wave (km/s) = 4.18868 -3.61911 1.49116
# Velocity P-wave (km/s) = 6.08661 3.80179 5.07447
#
# Compressibility (1/GPa) = 0.03412717
#
# Stress axis : x y z
#
# Youngs Moduli (GPa) = 126.45012 31.12901 175.60582
#
# Poissons Ratio (x) = 0.13262 0.48527
# Poissons Ratio (y) = 0.53873 -0.21491
# Poissons Ratio (z) = 0.34943 -0.03810
#
# Static dielectric constant tensor:
#      x y z
#    x 1.866260 0.000000 0.043200 
#    y 0.000000 1.872490 0.000000 
#    z 0.043200 0.000000 1.777690 
# 
# From -- ./inp_files/24639.got.cif
#   From: 2010.05.17/outbox.cif.g08.bks.cpg/sg15_13_cif.got.tgz:24639.got - 2010.06.03 18:47:42.
