data_PCOD9297134
_publ_section_title
;
Structure prediction by ZEFSAII (Michael W. Deem and Ramdas Pophale) SiO2 
 PCOD9297134
Probable space group: C 2/C
;
_chemical_formula_sum "Si O2"
_cell_formula_units_Z 32
_cell_length_a 7.021652
_cell_length_b 20.774447
_cell_length_c 8.672394
_cell_angle_alpha 90.000000
_cell_angle_beta 78.557831
_cell_angle_gamma 90.000000
_cell_volume 1239.907919
_symmetry_space_group_name_H-M "C 2/C"
_symmetry_group_IT_number 15
_symmetry_cell_setting 'monoclinic'
loop_
_space_group_symop_operation_xyz
x,y,z
-x,y,1/2-z
-x,-y,-z
x,-y,1/2+z
1/2+x,1/2+y,z
1/2-x,1/2+y,1/2-z
1/2-x,1/2-y,-z
1/2+x,1/2-y,1/2+z
loop_
_atom_site_type_symbol
_atom_site_label
_atom_site_fract_x
_atom_site_fract_y
_atom_site_fract_z
Si Si1 0.000000 0.752141 0.750000
Si Si2 0.842967 0.858106 0.549825
Si Si3 0.555509 0.132568 0.575127
Si Si4 0.500000 0.577548 0.750000
Si Si5 0.208154 0.537225 0.298778
O O1 0.882783 0.797837 0.653111
O O2 0.875288 0.702996 0.877067
O O3 0.637445 0.852082 0.494726
O O4 0.831471 0.919988 0.661286
O O5 0.002151 0.875381 0.395753
O O6 0.500000 0.103946 0.750000
O O7 0.672760 0.081126 0.455663
O O8 0.678673 0.528827 0.692066
O O9 0.000000 0.530329 0.250000
#
# Coordination Sequence:
#
# PCOD9297134 Si02
#       5
#     4   8   8   4   8
#     4  10  23  48  74 106 150 189 250 302 370 444
#     4  11  24  45  71 112 147 197 241 304 374 435
#     4   9  23  45  75 107 146 193 243 307 372 434
#     4  12  27  46  74 110 154 193 250 298 370 454
#     4  10  24  48  75 107 152 194 245 309 370 441
#
# _framework density 25.808368000000002
#
# number of rings (size 3 to 8) (size 9 to 14) (size 15 to 20)
#    0.750    1.000    0.000    2.250    0.000   12.000 
#   11.250    5.000    0.000    0.000    0.000    0.000 
#    0.000    0.000    0.000    0.000    0.000    0.000 
#
# Total GULP energy -89567.955561 kJ/mol
# GULP energy per Si atom -5597.997223 kJ/mol
# Density = 2.574963 g / cm^3
# Si number density = 25.808368 Si / 1000 Ang^3
#
#
#
# Elastic Constant Matrix: (Units=GPa)
#
#
# Indices 1 2 3 4 5 6 
#
# 1 121.3168 57.3875 57.1193 0.0000 23.9466 0.0000
# 2 57.3875 162.2825 66.2598 0.0000 10.2491 0.0000
# 3 57.1193 66.2598 194.3570 0.0000 11.2753 0.0000
# 4 0.0000 0.0000 0.0000 84.1038 0.0000 -36.2689
# 5 23.9466 10.2491 11.2753 0.0000 38.2122 0.0000
# 6 0.0000 0.0000 0.0000 -36.2689 0.0000 66.7293
#
#
#
# Elastic Compliance Matrix: (Units=1/GPa)
#
#
# Indices 1 2 3 4 5 6 
#
# 1 0.011812 -0.002931 -0.002125 0.000000 -0.005989 0.000000
# 2 -0.002931 0.007942 -0.001861 0.000000 0.000256 0.000000
# 3 -0.002125 -0.001861 0.006408 0.000000 -0.000060 0.000000
# 4 0.000000 0.000000 0.000000 0.015530 0.000000 0.008441
# 5 -0.005989 0.000256 -0.000060 0.000000 0.029872 0.000000
# 6 0.000000 0.000000 0.000000 0.008441 0.000000 0.019574
#
#
# Mechanical properties :
#
#
# Convention : Reuss Voigt Hill
#
# Bulk Modulus (GPa) = 81.11661 93.27661 87.19661
# Shear Modulus (GPa) = 45.83735 57.62169 51.72952
#
# Velocity S-wave (km/s) = 4.21891 4.73024 4.48188
# Velocity P-wave (km/s) = 7.43175 8.12737 7.78733
#
# Compressibility (1/GPa) = 0.01232793
#
# Stress axis : x y z
#
# Youngs Moduli (GPa) = 84.65937 125.90653 156.06628
#
# Poissons Ratio (x) = 0.36907 0.33158
# Poissons Ratio (y) = 0.24816 0.29045
# Poissons Ratio (z) = 0.17987 0.23432
#
# Static dielectric constant tensor:
#      x y z
#    x 2.164800 0.000000 -0.029000 
#    y 0.000000 1.999110 0.000000 
#    z -0.029000 0.000000 2.009450 
# 
# From -- ./inp_files/22194.got.cif
#   From: 2010.05.17/outbox.cif.g08.bks.cpg/sg15_12_cif.got.tgz:22194.got - 2010.06.03 18:47:42.
