data_PCOD9297787
_publ_section_title
;
Structure prediction by ZEFSAII (Michael W. Deem and Ramdas Pophale) SiO2 
 PCOD9297787
Probable space group: C 2/C
;
_chemical_formula_sum "Si O2"
_cell_formula_units_Z 48
_cell_length_a 12.335489
_cell_length_b 22.202226
_cell_length_c 20.919669
_cell_angle_alpha 90.000000
_cell_angle_beta 160.100748
_cell_angle_gamma 90.000000
_cell_volume 1950.093772
_symmetry_space_group_name_H-M "C 2/C"
_symmetry_group_IT_number 15
_symmetry_cell_setting 'monoclinic'
loop_
_space_group_symop_operation_xyz
x,y,z
-x,y,1/2-z
-x,-y,-z
x,-y,1/2+z
1/2+x,1/2+y,z
1/2-x,1/2+y,1/2-z
1/2-x,1/2-y,-z
1/2+x,1/2-y,1/2+z
loop_
_atom_site_type_symbol
_atom_site_label
_atom_site_fract_x
_atom_site_fract_y
_atom_site_fract_z
Si Si1 0.244153 0.075584 0.051575
Si Si2 0.655119 0.745276 0.073983
Si Si3 0.744191 0.843643 0.434386
Si Si4 0.829673 0.502746 0.801766
Si Si5 0.811988 0.191515 0.781224
Si Si6 0.922249 0.081788 0.142618
O O1 0.500000 0.081210 0.250000
O O2 0.445965 0.046880 0.105931
O O3 0.054098 0.136836 0.929707
O O4 0.956740 0.027247 0.901785
O O5 0.735808 0.800988 0.164668
O O6 0.000000 0.718509 0.250000
O O7 0.439521 0.702488 0.999335
O O8 0.476464 0.749576 0.907106
O O9 0.500000 0.876182 0.250000
O O10 0.516213 0.814892 0.361668
O O11 0.965788 0.885497 0.599287
O O12 0.660176 0.474794 0.769732
O O13 0.061076 0.558728 0.943523
O O14 0.000000 0.117517 0.250000
#
# Coordination Sequence:
#
# PCOD9297787 Si02
#       6
#     8   8   8   8   8   8
#     4  11  23  42  72 106 146 187 235 289 354 423
#     4  11  25  45  70  98 141 180 237 300 355 418
#     4  10  24  44  71  97 141 184 236 295 353 423
#     4  10  24  42  67 103 146 183 237 289 354 419
#     4  11  24  46  70 103 142 186 237 292 359 424
#     4  11  23  43  68 102 142 187 234 287 357 429
#
# _framework density 24.614201999999999
#
# number of rings (size 3 to 8) (size 9 to 14) (size 15 to 20)
#    0.000    1.333    1.667    2.500    7.000    4.000 
#    3.000    0.833    0.000    0.000    0.000    0.000 
#    0.000    0.000    0.000    0.000    0.000    0.000 
#
# Total GULP energy -134077.417645 kJ/mol
# GULP energy per Si atom -5586.559069 kJ/mol
# Density = 2.455818 g / cm^3
# Si number density = 24.614202 Si / 1000 Ang^3
#
#
#
# Elastic Constant Matrix: (Units=GPa)
#
#
# Indices 1 2 3 4 5 6 
#
# 1 87.7621 23.0635 36.1159 0.0069 0.0317 0.0020
# 2 23.0635 40.3949 28.4636 0.0733 -0.0183 0.0437
# 3 36.1159 28.4636 109.3222 0.0158 21.2585 0.0302
# 4 0.0069 0.0733 0.0158 33.5677 0.0040 0.3403
# 5 0.0317 -0.0183 21.2585 0.0040 45.7790 -0.0028
# 6 0.0020 0.0437 0.0302 0.3403 -0.0028 19.5832
#
#
#
# Elastic Compliance Matrix: (Units=1/GPa)
#
#
# Indices 1 2 3 4 5 6 
#
# 1 0.014361 -0.005669 -0.003590 0.000011 0.001655 0.000017
# 2 -0.005669 0.033252 -0.007462 -0.000068 0.003482 -0.000061
# 3 -0.003590 -0.007462 0.013495 0.000011 -0.006267 -0.000005
# 4 0.000011 -0.000068 0.000011 0.029796 -0.000008 -0.000518
# 5 0.001655 0.003482 -0.006267 -0.000008 0.024755 0.000005
# 6 0.000017 -0.000061 -0.000005 -0.000518 0.000005 0.051073
#
#
# Mechanical properties :
#
#
# Convention : Reuss Voigt Hill
#
# Bulk Modulus (GPa) = 36.14586 45.86280 41.00433
# Shear Modulus (GPa) = 23.87821 29.77505 26.82663
#
# Velocity S-wave (km/s) = 3.11802 3.48180 3.30492
# Velocity P-wave (km/s) = 5.26114 5.90229 5.59091
#
# Compressibility (1/GPa) = 0.02766568
#
# Stress axis : x y z
#
# Youngs Moduli (GPa) = 69.63273 30.07337 74.10233
#
# Poissons Ratio (x) = 0.17049 0.26604
# Poissons Ratio (y) = 0.39475 0.55295
# Poissons Ratio (z) = 0.24999 0.22441
#
# Static dielectric constant tensor:
#      x y z
#    x 1.951340 -0.000040 -0.038300 
#    y -0.000040 2.031170 -0.000200 
#    z -0.038300 -0.000200 1.997970 
# 
# From -- ./inp_files/241064.got.cif
#   From: 2010.05.17/outbox.cif.g08.bks.cpg/sg15_121_cif.got.tgz:241064.got - 2010.06.03 18:47:42.
