data_PCOD9297877
_publ_section_title
;
Structure prediction by ZEFSAII (Michael W. Deem and Ramdas Pophale) SiO2 
 PCOD9297877
Probable space group: C 2/C
;
_chemical_formula_sum "Si O2"
_cell_formula_units_Z 52
_cell_length_a 17.870150
_cell_length_b 5.025086
_cell_length_c 25.894240
_cell_angle_alpha 90.000000
_cell_angle_beta 119.721508
_cell_angle_gamma 90.000000
_cell_volume 2019.377055
_symmetry_space_group_name_H-M "C 2/C"
_symmetry_group_IT_number 15
_symmetry_cell_setting 'monoclinic'
loop_
_space_group_symop_operation_xyz
x,y,z
-x,y,1/2-z
-x,-y,-z
x,-y,1/2+z
1/2+x,1/2+y,z
1/2-x,1/2+y,1/2-z
1/2-x,1/2-y,-z
1/2+x,1/2-y,1/2+z
loop_
_atom_site_type_symbol
_atom_site_label
_atom_site_fract_x
_atom_site_fract_y
_atom_site_fract_z
Si Si1 0.255232 0.083271 0.053998
Si Si2 0.908828 0.863571 0.455613
Si Si3 0.434083 0.215591 0.627082
Si Si4 0.588727 0.850348 0.106153
Si Si5 0.847311 0.085697 0.666742
Si Si6 0.500000 0.085773 0.250000
Si Si7 0.762294 0.659505 0.287283
O O1 0.167834 0.916345 0.030581
O O2 0.341103 0.907490 0.083613
O O3 0.271398 0.264404 0.110603
O O4 0.250000 0.250000 0.000000
O O5 0.882787 0.052936 0.398496
O O6 0.915626 0.556011 0.443276
O O7 0.000000 0.000000 0.500000
O O8 0.495860 0.184247 0.600317
O O9 0.480777 0.083744 0.692478
O O10 0.410455 0.503678 0.641286
O O11 0.651321 0.009393 0.165608
O O12 0.802934 0.856201 0.685799
O O13 0.911752 0.246705 0.725723
O O14 0.727691 0.450758 0.232552
#
# Coordination Sequence:
#
# PCOD9297877 Si02
#       7
#     8   8   8   8   8   4   8
#     4  11  26  48  74 105 146 199 250 311 380 452
#     4  12  27  50  76 105 148 192 252 311 373 445
#     4  11  26  44  74 105 147 191 249 306 376 454
#     4  12  27  48  73 110 146 193 248 307 376 448
#     4  11  25  45  71 109 146 192 249 310 374 458
#     4  10  24  42  70 102 144 184 244 298 370 432
#     4  12  27  45  75 106 149 195 244 305 380 446
#
# _framework density 25.750516000000001
#
# number of rings (size 3 to 8) (size 9 to 14) (size 15 to 20)
#    0.000    0.615    1.538    4.615   15.077    0.615 
#    0.000    0.000    0.000    0.000    0.000    0.000 
#    0.000    0.000    0.000    0.000    0.000    0.000 
#
# Total GULP energy -145671.610101 kJ/mol
# GULP energy per Si atom -5602.754235 kJ/mol
# Density = 2.569191 g / cm^3
# Si number density = 25.750516 Si / 1000 Ang^3
#
#
#
# Elastic Constant Matrix: (Units=GPa)
#
#
# Indices 1 2 3 4 5 6 
#
# 1 152.8995 14.4001 25.4670 0.0000 -6.1806 0.0013
# 2 14.4001 85.5501 15.0371 -0.0009 -6.2144 0.0026
# 3 25.4670 15.0371 125.0454 -0.0001 23.8211 0.0004
# 4 0.0000 -0.0009 -0.0001 44.3508 0.0000 -6.7355
# 5 -6.1806 -6.2144 23.8211 0.0000 41.1127 0.0001
# 6 0.0013 0.0026 0.0004 -6.7355 0.0001 40.7397
#
#
#
# Elastic Compliance Matrix: (Units=1/GPa)
#
#
# Indices 1 2 3 4 5 6 
#
# 1 0.006970 -0.000735 -0.001697 0.000000 0.001920 0.000000
# 2 -0.000735 0.012349 -0.001877 0.000000 0.002844 -0.000001
# 3 -0.001697 -0.001877 0.009747 0.000000 -0.006186 0.000000
# 4 0.000000 0.000000 0.000000 0.023128 0.000000 0.003824
# 5 0.001920 0.002844 -0.006186 0.000000 0.028626 0.000000
# 6 0.000000 -0.000001 0.000000 0.003824 0.000000 0.025178
#
#
# Mechanical properties :
#
#
# Convention : Reuss Voigt Hill
#
# Bulk Modulus (GPa) = 48.90567 52.58927 50.74747
# Shear Modulus (GPa) = 41.17507 45.81337 43.49422
#
# Velocity S-wave (km/s) = 4.00309 4.22254 4.11428
# Velocity P-wave (km/s) = 6.35607 6.65132 6.50537
#
# Compressibility (1/GPa) = 0.02044753
#
# Stress axis : x y z
#
# Youngs Moduli (GPa) = 143.47786 80.97601 102.59741
#
# Poissons Ratio (x) = 0.05956 0.17408
# Poissons Ratio (y) = 0.10553 0.19257
# Poissons Ratio (z) = 0.24344 0.15199
#
# Static dielectric constant tensor:
#      x y z
#    x 2.016320 0.000000 -0.029040 
#    y 0.000000 2.045310 0.000000 
#    z -0.029040 0.000000 2.160590 
# 
# From -- ./inp_files/297831.got.cif
#   From: 2010.05.17/outbox.cif.g08.bks.cpg/sg15_149_cif.got.tgz:297831.got - 2010.06.03 18:47:42.
