data_PCOD9297690
_publ_section_title
;
Structure prediction by ZEFSAII (Michael W. Deem and Ramdas Pophale) SiO2 
 PCOD9297690
Probable space group: C 2/C
;
_chemical_formula_sum "Si O2"
_cell_formula_units_Z 60
_cell_length_a 18.327934
_cell_length_b 19.216273
_cell_length_c 9.428180
_cell_angle_alpha 90.000000
_cell_angle_beta 127.186944
_cell_angle_gamma 90.000000
_cell_volume 2645.377951
_symmetry_space_group_name_H-M "C 2/C"
_symmetry_group_IT_number 15
_symmetry_cell_setting 'monoclinic'
loop_
_space_group_symop_operation_xyz
x,y,z
-x,y,1/2-z
-x,-y,-z
x,-y,1/2+z
1/2+x,1/2+y,z
1/2-x,1/2+y,1/2-z
1/2-x,1/2-y,-z
1/2+x,1/2-y,1/2+z
loop_
_atom_site_type_symbol
_atom_site_label
_atom_site_fract_x
_atom_site_fract_y
_atom_site_fract_z
Si Si1 0.251748 0.798914 0.852401
Si Si2 0.001463 0.876707 0.088019
Si Si3 0.702115 0.571815 0.130698
Si Si4 0.199608 0.062948 0.799221
Si Si5 0.949548 0.254169 0.041234
Si Si6 0.811237 0.655695 0.723176
Si Si7 0.486931 0.097330 0.495981
Si Si8 0.500000 0.000024 0.750000
O O1 0.246182 0.855410 0.724814
O O2 0.173532 0.739684 0.743745
O O3 0.342382 0.752082 0.949988
O O4 0.263027 0.843625 0.011008
O O5 0.090010 0.924879 0.167174
O O6 0.000000 0.851101 0.250000
O O7 0.014016 0.813469 0.994470
O O8 0.905753 0.916418 0.962113
O O9 0.730346 0.506174 0.255573
O O10 0.721695 0.558363 0.990140
O O11 0.248175 0.125948 0.774037
O O12 0.000000 0.266253 0.250000
O O13 0.955866 0.323506 0.954395
O O14 0.903916 0.609631 0.843811
O O15 0.464199 0.053033 0.329198
O O16 0.447570 0.054377 0.584279
#
# Coordination Sequence:
#
# PCOD9297690 Si02
#       8
#     8   8   8   8   8   8   8   4
#     4  11  24  43  66 100 134 173 219 277 328 401
#     4  10  24  45  67  99 134 170 222 274 332 394
#     4  11  25  43  70  97 136 176 219 275 336 393
#     4  11  24  44  67 102 133 176 219 273 331 399
#     4  12  23  43  70  97 127 174 223 271 325 398
#     4  11  23  42  67  96 136 168 224 270 333 391
#     4  11  23  42  64  94 126 175 217 270 325 391
#     4  10  24  42  64  90 130 172 224 270 322 388
#
# _framework density 22.681069000000001
#
# number of rings (size 3 to 8) (size 9 to 14) (size 15 to 20)
#    0.000    1.067    3.333    2.000    2.800    6.933 
#    0.000    0.000    0.000    0.000    0.000    0.000 
#    0.000    0.000    0.000    0.000    0.000    0.000 
#
# Total GULP energy -167475.490403 kJ/mol
# GULP energy per Si atom -5582.516347 kJ/mol
# Density = 2.262945 g / cm^3
# Si number density = 22.681069 Si / 1000 Ang^3
#
#
#
# Elastic Constant Matrix: (Units=GPa)
#
#
# Indices 1 2 3 4 5 6 
#
# 1 96.5160 20.2116 45.5281 0.0000 -8.1455 0.0000
# 2 20.2116 125.0490 62.8210 0.0000 -27.3893 0.0000
# 3 45.5281 62.8210 88.5838 0.0000 -21.2395 0.0000
# 4 0.0000 0.0000 0.0000 36.5035 0.0000 -20.8767
# 5 -8.1455 -27.3893 -21.2395 0.0000 40.2607 0.0000
# 6 0.0000 0.0000 0.0000 -20.8767 0.0000 22.1490
#
#
#
# Elastic Compliance Matrix: (Units=1/GPa)
#
#
# Indices 1 2 3 4 5 6 
#
# 1 0.014029 0.002045 -0.008754 0.000000 -0.000388 0.000000
# 2 0.002045 0.013425 -0.009482 0.000000 0.004545 0.000000
# 3 -0.008754 -0.009482 0.023515 0.000000 0.004184 0.000000
# 4 0.000000 0.000000 0.000000 0.059431 0.000000 0.056017
# 5 -0.000388 0.004545 0.004184 0.000000 0.030058 0.000000
# 6 0.000000 0.000000 0.000000 0.056017 0.000000 0.097948
#
#
# Mechanical properties :
#
#
# Convention : Reuss Voigt Hill
#
# Bulk Modulus (GPa) = 53.79818 63.03002 58.41410
# Shear Modulus (GPa) = 18.05148 31.88853 24.97001
#
# Velocity S-wave (km/s) = 2.82420 3.75367 3.32161
# Velocity P-wave (km/s) = 5.86564 6.82911 6.36563
#
# Compressibility (1/GPa) = 0.01858799
#
# Stress axis : x y z
#
# Youngs Moduli (GPa) = 71.27968 74.48604 42.52519
#
# Poissons Ratio (x) = -0.15233 0.37226
# Poissons Ratio (y) = -0.14577 0.40323
# Poissons Ratio (z) = 0.62397 0.70630
#
# Static dielectric constant tensor:
#      x y z
#    x 1.933350 0.000000 0.078600 
#    y 0.000000 1.808220 0.000000 
#    z 0.078600 0.000000 1.839770 
# 
# From -- ./inp_files/57032.got.cif
#   From: 2010.05.17/outbox.cif.g08.bks.cpg/sg15_29_cif.got.tgz:57032.got - 2010.06.03 18:47:42.
