data_PCOD9297215
_publ_section_title
;
Structure prediction by ZEFSAII (Michael W. Deem and Ramdas Pophale) SiO2 
 PCOD9297215
Probable space group: C 2/C
;
_chemical_formula_sum "Si O2"
_cell_formula_units_Z 60
_cell_length_a 21.138921
_cell_length_b 18.604423
_cell_length_c 8.713953
_cell_angle_alpha 90.000000
_cell_angle_beta 119.558045
_cell_angle_gamma 90.000000
_cell_volume 2980.998728
_symmetry_space_group_name_H-M "C 2/C"
_symmetry_group_IT_number 15
_symmetry_cell_setting 'monoclinic'
loop_
_space_group_symop_operation_xyz
x,y,z
-x,y,1/2-z
-x,-y,-z
x,-y,1/2+z
1/2+x,1/2+y,z
1/2-x,1/2+y,1/2-z
1/2-x,1/2-y,-z
1/2+x,1/2-y,1/2+z
loop_
_atom_site_type_symbol
_atom_site_label
_atom_site_fract_x
_atom_site_fract_y
_atom_site_fract_z
Si Si1 0.139478 0.267062 0.029820
Si Si2 0.589434 0.572591 0.142909
Si Si3 0.272761 0.208580 0.374336
Si Si4 0.243376 0.555768 0.230344
Si Si5 0.764365 0.406509 0.419074
Si Si6 0.473952 0.715453 0.378103
Si Si7 0.125904 0.809819 0.192999
Si Si8 0.500000 0.464606 0.250000
O O1 0.203994 0.218726 0.179099
O O2 0.177867 0.343039 0.043284
O O3 0.070604 0.266603 0.061132
O O4 0.118876 0.228425 0.848265
O O5 0.672282 0.553190 0.216704
O O6 0.580137 0.648668 0.216022
O O7 0.549653 0.514119 0.200274
O O8 0.552363 0.576889 0.930039
O O9 0.250000 0.250000 0.500000
O O10 0.288471 0.123962 0.401465
O O11 0.338477 0.251583 0.377695
O O12 0.215262 0.477304 0.152096
O O13 0.236397 0.573096 0.402134
O O14 0.684496 0.374379 0.276971
O O15 0.500000 0.749145 0.250000
O O16 0.545023 0.677396 0.536411
#
# Coordination Sequence:
#
# PCOD9297215 Si02
#       8
#     8   8   8   8   8   8   8   4
#     4  11  22  46  64  89 130 174 220 266 319 391
#     4  11  23  37  56  86 130 169 208 249 307 394
#     4  11  22  39  64  94 130 169 219 271 312 377
#     4  12  24  40  63  94 131 169 218 262 328 381
#     4  11  25  41  64  98 129 172 216 268 323 395
#     4  12  25  39  65  98 125 165 221 270 326 385
#     4  11  23  42  66  90 131 174 213 263 322 389
#     4  10  24  36  50  80 136 180 198 242 308 388
#
# _framework density 20.127482000000001
#
# number of rings (size 3 to 8) (size 9 to 14) (size 15 to 20)
#    0.000    0.800    4.667    2.800   11.200    0.000 
#    0.000    0.000    0.000    0.800    0.000    0.000 
#    0.000    0.000    0.000    0.000    0.000    0.000 
#
# Total GULP energy -167745.608851 kJ/mol
# GULP energy per Si atom -5591.520295 kJ/mol
# Density = 2.008167 g / cm^3
# Si number density = 20.127482 Si / 1000 Ang^3
#
#
#
# Elastic Constant Matrix: (Units=GPa)
#
#
# Indices 1 2 3 4 5 6 
#
# 1 101.9988 32.6251 18.5989 0.0000 -30.9333 0.0000
# 2 32.6251 124.7939 15.8338 0.0000 -17.1123 0.0000
# 3 18.5989 15.8338 47.9309 0.0000 -14.6497 0.0000
# 4 0.0000 0.0000 0.0000 20.4952 0.0000 -6.8225
# 5 -30.9333 -17.1123 -14.6497 0.0000 23.9092 0.0000
# 6 0.0000 0.0000 0.0000 -6.8225 0.0000 31.5909
#
#
#
# Elastic Compliance Matrix: (Units=1/GPa)
#
#
# Indices 1 2 3 4 5 6 
#
# 1 0.016398 -0.001545 0.000361 0.000000 0.020331 0.000000
# 2 -0.001545 0.009089 -0.001262 0.000000 0.003733 0.000000
# 3 0.000361 -0.001262 0.025847 0.000000 0.015402 0.000000
# 4 0.000000 0.000000 0.000000 0.052571 0.000000 0.011353
# 5 0.020331 0.003733 0.015402 0.000000 0.080238 0.000000
# 6 0.000000 0.000000 0.000000 0.011353 0.000000 0.034107
#
#
# Mechanical properties :
#
#
# Convention : Reuss Voigt Hill
#
# Bulk Modulus (GPa) = 21.53144 45.42658 33.47901
# Shear Modulus (GPa) = 20.95352 29.04344 24.99848
#
# Velocity S-wave (km/s) = 3.23002 3.80277 3.52804
# Velocity P-wave (km/s) = 4.96301 6.47301 5.76764
#
# Compressibility (1/GPa) = 0.04644371
#
# Stress axis : x y z
#
# Youngs Moduli (GPa) = 60.98226 110.02130 38.68853
#
# Poissons Ratio (x) = 0.16998 -0.01398
# Poissons Ratio (y) = 0.09421 0.04883
# Poissons Ratio (z) = -0.02204 0.13885
#
# Static dielectric constant tensor:
#      x y z
#    x 1.710150 0.000000 -0.030990 
#    y 0.000000 1.748010 0.000000 
#    z -0.030990 0.000000 1.891140 
# 
# From -- ./inp_files/57051.got.cif
#   From: 2010.05.17/outbox.cif.g08.bks.cpg/sg15_29_cif.got.tgz:57051.got - 2010.06.03 18:47:42.
