data_PCOD9297688
_publ_section_title
;
Structure prediction by ZEFSAII (Michael W. Deem and Ramdas Pophale) SiO2 
 PCOD9297688
Probable space group: C 2/C
;
_chemical_formula_sum "Si O2"
_cell_formula_units_Z 60
_cell_length_a 14.340714
_cell_length_b 21.635406
_cell_length_c 19.730214
_cell_angle_alpha 90.000000
_cell_angle_beta 151.677028
_cell_angle_gamma 90.000000
_cell_volume 2904.357035
_symmetry_space_group_name_H-M "C 2/C"
_symmetry_group_IT_number 15
_symmetry_cell_setting 'monoclinic'
loop_
_space_group_symop_operation_xyz
x,y,z
-x,y,1/2-z
-x,-y,-z
x,-y,1/2+z
1/2+x,1/2+y,z
1/2-x,1/2+y,1/2-z
1/2-x,1/2-y,-z
1/2+x,1/2-y,1/2+z
loop_
_atom_site_type_symbol
_atom_site_label
_atom_site_fract_x
_atom_site_fract_y
_atom_site_fract_z
Si Si1 0.365236 0.831714 0.328102
Si Si2 0.395255 0.139009 0.003959
Si Si3 0.285484 0.213432 0.217140
Si Si4 0.521302 0.393627 0.483709
Si Si5 0.936355 0.578062 0.631169
Si Si6 0.605558 0.016217 0.137121
Si Si7 0.500000 0.695403 0.750000
Si Si8 0.941166 0.978800 0.561789
O O1 0.387889 0.861179 0.417503
O O2 0.362799 0.758185 0.337576
O O3 0.533123 0.856344 0.385439
O O4 0.155534 0.855470 0.164438
O O5 0.176614 0.153051 0.890827
O O6 0.544700 0.191138 0.124069
O O7 0.494995 0.076710 0.092897
O O8 0.392231 0.259633 0.233325
O O9 0.180005 0.156510 0.111653
O O10 0.443068 0.432439 0.498434
O O11 0.599523 0.450042 0.486519
O O12 0.721298 0.547889 0.491806
O O13 0.000000 0.579519 0.750000
O O14 0.077676 0.534678 0.676895
O O15 0.835304 0.024230 0.269834
O O16 0.500000 0.000000 0.000000
#
# Coordination Sequence:
#
# PCOD9297688 Si02
#       8
#     8   8   8   8   8   8   4   8
#     4  11  22  43  65  96 144 183 220 285 353 415
#     4  11  23  42  68  98 143 177 228 287 359 413
#     4  11  24  41  72  99 141 186 235 285 351 430
#     4  11  21  44  70  97 141 182 229 294 361 413
#     4  12  24  41  71  99 134 185 235 290 349 426
#     4  12  24  45  68 102 140 177 225 301 367 409
#     4  10  24  42  64 108 138 186 230 280 350 446
#     4  11  23  42  71 102 134 183 242 296 351 422
#
# _framework density 20.658618000000001
#
# number of rings (size 3 to 8) (size 9 to 14) (size 15 to 20)
#    0.000    0.800    5.333    2.800    0.000    5.867 
#    0.000    0.667    0.000    0.000    0.000    0.000 
#    0.000    0.000    0.000    0.000    0.000    0.000 
#
# Total GULP energy -167582.850379 kJ/mol
# GULP energy per Si atom -5586.095013 kJ/mol
# Density = 2.061160 g / cm^3
# Si number density = 20.658618 Si / 1000 Ang^3
#
#
#
# Elastic Constant Matrix: (Units=GPa)
#
#
# Indices 1 2 3 4 5 6 
#
# 1 71.8040 28.8156 41.0667 -0.0015 15.4036 -0.0006
# 2 28.8156 122.2985 47.9459 -0.0103 15.8580 -0.0031
# 3 41.0667 47.9459 143.1568 -0.0019 13.2297 -0.0033
# 4 -0.0015 -0.0103 -0.0019 38.3953 0.0030 -6.2201
# 5 15.4036 15.8580 13.2297 0.0030 36.4981 -0.0020
# 6 -0.0006 -0.0031 -0.0033 -6.2201 -0.0020 21.3942
#
#
#
# Elastic Compliance Matrix: (Units=1/GPa)
#
#
# Indices 1 2 3 4 5 6 
#
# 1 0.018196 -0.002005 -0.004055 0.000000 -0.005338 -0.000001
# 2 -0.002005 0.009973 -0.002527 0.000003 -0.002571 0.000002
# 3 -0.004055 -0.002527 0.009038 0.000000 -0.000467 0.000001
# 4 0.000000 0.000003 0.000000 0.027332 -0.000003 0.007947
# 5 -0.005338 -0.002571 -0.000467 -0.000003 0.030938 0.000001
# 6 -0.000001 0.000002 0.000001 0.007947 0.000001 0.049052
#
#
# Mechanical properties :
#
#
# Convention : Reuss Voigt Hill
#
# Bulk Modulus (GPa) = 49.91979 63.65731 56.78855
# Shear Modulus (GPa) = 29.69439 33.88625 31.79032
#
# Velocity S-wave (km/s) = 3.79540 4.05445 3.92706
# Velocity P-wave (km/s) = 6.58964 7.26629 6.93622
#
# Compressibility (1/GPa) = 0.02003214
#
# Stress axis : x y z
#
# Youngs Moduli (GPa) = 54.95782 100.26647 110.64237
#
# Poissons Ratio (x) = 0.20108 0.44863
# Poissons Ratio (y) = 0.11021 0.27964
# Poissons Ratio (z) = 0.22284 0.25342
#
# Static dielectric constant tensor:
#      x y z
#    x 1.738760 0.000000 0.003170 
#    y 0.000000 1.826740 0.000000 
#    z 0.003170 0.000000 1.748660 
# 
# From -- ./inp_files/245478.got.cif
#   From: 2010.05.17/outbox.cif.g08.bks.cpg/sg15_123_cif.got.tgz:245478.got - 2010.06.03 18:47:42.
