data_PCOD9297487
_publ_section_title
;
Structure prediction by ZEFSAII (Michael W. Deem and Ramdas Pophale) SiO2 
 PCOD9297487
Probable space group: C 2/C
;
_chemical_formula_sum "Si O2"
_cell_formula_units_Z 36
_cell_length_a 13.744399
_cell_length_b 8.108061
_cell_length_c 11.872929
_cell_angle_alpha 90.000000
_cell_angle_beta 91.194549
_cell_angle_gamma 90.000000
_cell_volume 1322.836707
_symmetry_space_group_name_H-M "C 2/C"
_symmetry_group_IT_number 15
_symmetry_cell_setting 'monoclinic'
loop_
_space_group_symop_operation_xyz
x,y,z
-x,y,1/2-z
-x,-y,-z
x,-y,1/2+z
1/2+x,1/2+y,z
1/2-x,1/2+y,1/2-z
1/2-x,1/2-y,-z
1/2+x,1/2-y,1/2+z
loop_
_atom_site_type_symbol
_atom_site_label
_atom_site_fract_x
_atom_site_fract_y
_atom_site_fract_z
Si Si1 0.000000 0.501602 0.750000
Si Si2 0.662316 0.171899 0.390585
Si Si3 0.619107 0.279261 0.685516
Si Si4 0.506283 0.386789 0.120024
Si Si5 0.353647 0.806569 0.045533
O O1 0.096856 0.406952 0.789110
O O2 0.047084 0.625870 0.659218
O O3 0.654149 0.006078 0.464368
O O4 0.772478 0.214884 0.361843
O O5 0.604195 0.339195 0.420171
O O6 0.429501 0.274146 0.460183
O O7 0.560395 0.438231 0.638513
O O8 0.365602 0.261273 0.676421
O O9 0.500000 0.344361 0.250000
O O10 0.250000 0.750000 0.000000
#
# Coordination Sequence:
#
# PCOD9297487 Si02
#       5
#     4   8   8   8   8
#     4  10  24  40  70 110 140 188 250 284 372 436
#     4  11  24  45  77 106 150 194 238 309 372 432
#     4  11  25  46  73 108 149 194 238 312 367 438
#     4  12  24  46  76 107 149 197 249 303 370 437
#     4  11  24  46  77 115 150 192 252 305 370 449
#
# _framework density 27.214241999999999
#
# number of rings (size 3 to 8) (size 9 to 14) (size 15 to 20)
#    0.000    0.889    4.444    2.000    3.111    0.889 
#    0.000    0.000    0.000   13.333    0.000    0.000 
#    0.000    0.000    0.000    0.000    0.000    0.000 
#
# Total GULP energy -100332.303074 kJ/mol
# GULP energy per Si atom -5574.016837 kJ/mol
# Density = 2.715230 g / cm^3
# Si number density = 27.214242 Si / 1000 Ang^3
#
#
#
# Elastic Constant Matrix: (Units=GPa)
#
#
# Indices 1 2 3 4 5 6 
#
# 1 271.8075 61.8169 57.6911 0.0000 -3.6618 0.0000
# 2 61.8169 111.1222 60.0726 0.0000 10.5625 0.0000
# 3 57.6911 60.0726 144.9430 0.0000 -28.3557 0.0000
# 4 0.0000 0.0000 0.0000 -132.9512 0.0000 -14.7257
# 5 -3.6618 10.5625 -28.3557 0.0000 51.5491 0.0000
# 6 0.0000 0.0000 0.0000 -14.7257 0.0000 54.1842
#
#
#
# Elastic Compliance Matrix: (Units=1/GPa)
#
#
# Indices 1 2 3 4 5 6 
#
# 1 0.004309 -0.001955 -0.000859 0.000000 0.000234 0.000000
# 2 -0.001955 0.014150 -0.006366 0.000000 -0.006540 0.000000
# 3 -0.000859 -0.006366 0.011343 0.000000 0.007483 0.000000
# 4 0.000000 0.000000 0.000000 -0.007302 0.000000 -0.001984
# 5 0.000234 -0.006540 0.007483 0.000000 0.024872 0.000000
# 6 0.000000 0.000000 0.000000 -0.001984 0.000000 0.017916
#
#
# Mechanical properties :
#
#
# Convention : Reuss Voigt Hill
#
# Bulk Modulus (GPa) = 87.39207 98.55934 92.97570
# Shear Modulus (GPa) = 57.16764 17.77589 37.47176
#
# Velocity S-wave (km/s) = 4.58826 2.55852 3.71471
# Velocity P-wave (km/s) = 7.76221 6.70990 7.25516
#
# Compressibility (1/GPa) = 0.01144269
#
# Stress axis : x y z
#
# Youngs Moduli (GPa) = 232.06162 70.67375 88.15695
#
# Poissons Ratio (x) = 0.13817 0.07574
# Poissons Ratio (y) = 0.45368 0.56117
# Poissons Ratio (z) = 0.19937 0.44988
#
# Static dielectric constant tensor:
#      x y z
#    x 2.019230 0.000000 -0.003290 
#    y 0.000000 2.549650 0.000000 
#    z -0.003290 0.000000 2.160560 
# 
# From -- ./inp_files/150407.got.cif
#   From: 2010.05.17/outbox.cif.g08.bks.cpg/sg15_76_cif.got.tgz:150407.got - 2010.06.03 18:47:42.
