data_PCOD9297280
_publ_section_title
;
Structure prediction by ZEFSAII (Michael W. Deem and Ramdas Pophale) SiO2 
 PCOD9297280
Probable space group: C 2/C
;
_chemical_formula_sum "Si O2"
_cell_formula_units_Z 60
_cell_length_a 12.120296
_cell_length_b 14.064286
_cell_length_c 18.496303
_cell_angle_alpha 90.000000
_cell_angle_beta 52.729123
_cell_angle_gamma 90.000000
_cell_volume 2509.051811
_symmetry_space_group_name_H-M "C 2/C"
_symmetry_group_IT_number 15
_symmetry_cell_setting 'monoclinic'
loop_
_space_group_symop_operation_xyz
x,y,z
-x,y,1/2-z
-x,-y,-z
x,-y,1/2+z
1/2+x,1/2+y,z
1/2-x,1/2+y,1/2-z
1/2-x,1/2-y,-z
1/2+x,1/2-y,1/2+z
loop_
_atom_site_type_symbol
_atom_site_label
_atom_site_fract_x
_atom_site_fract_y
_atom_site_fract_z
Si Si1 0.652937 0.143954 0.886522
Si Si2 0.371978 0.655935 0.926544
Si Si3 0.662197 0.490135 0.951463
Si Si4 0.351730 0.471759 0.200667
Si Si5 0.500000 0.186687 0.750000
Si Si6 0.495709 0.148073 0.164199
Si Si7 0.324204 0.684342 0.228589
Si Si8 0.408216 0.940043 0.421149
O O1 0.748669 0.141179 0.918756
O O2 0.646773 0.248582 0.852640
O O3 0.496739 0.101782 0.952640
O O4 0.739654 0.076336 0.797043
O O5 0.509954 0.593097 0.853233
O O6 0.420578 0.763511 0.901640
O O7 0.326469 0.616360 0.022637
O O8 0.720313 0.517641 0.850005
O O9 0.740843 0.553296 0.980697
O O10 0.500000 0.500000 0.000000
O O11 0.392447 0.580317 0.201627
O O12 0.625306 0.254059 0.724325
O O13 0.542494 0.125150 0.664688
O O14 0.500000 0.151136 0.250000
O O15 0.337728 0.164828 0.205089
O O16 0.544732 0.046586 0.116233
#
# Coordination Sequence:
#
# PCOD9297280 Si02
#       8
#     8   8   8   8   4   8   8   8
#     4  11  22  39  64  96 122 157 212 276 308 360
#     4  11  24  39  63  91 132 167 205 257 318 384
#     4  10  24  42  63  87 126 177 209 249 321 393
#     4  11  21  40  66  92 127 166 214 256 321 368
#     4  10  24  38  64  92 128 162 208 268 320 374
#     4  12  20  36  63  96 122 156 211 266 312 364
#     4  11  22  36  61  97 125 157 205 268 314 369
#     4  11  22  39  64  90 123 165 212 260 317 370
#
# _framework density 23.913416000000002
#
# number of rings (size 3 to 8) (size 9 to 14) (size 15 to 20)
#    0.000    1.067    4.667    2.800    3.733    1.067 
#    0.000    0.000    0.000    6.400    0.000    0.000 
#    0.000    0.000    0.000    0.000    0.000    0.000 
#
# Total GULP energy -167826.336314 kJ/mol
# GULP energy per Si atom -5594.211210 kJ/mol
# Density = 2.385899 g / cm^3
# Si number density = 23.913416 Si / 1000 Ang^3
#
#
#
# Elastic Constant Matrix: (Units=GPa)
#
#
# Indices 1 2 3 4 5 6 
#
# 1 178.3035 61.5988 25.7424 0.0000 -19.4333 0.0000
# 2 61.5988 165.0770 22.6071 0.0000 -0.2931 0.0000
# 3 25.7424 22.6071 43.3642 0.0000 0.5385 0.0000
# 4 0.0000 0.0000 0.0000 32.4426 0.0000 -4.1260
# 5 -19.4333 -0.2931 0.5385 0.0000 35.2599 0.0000
# 6 0.0000 0.0000 0.0000 -4.1260 0.0000 45.6368
#
#
#
# Elastic Compliance Matrix: (Units=1/GPa)
#
#
# Indices 1 2 3 4 5 6 
#
# 1 0.007299 -0.002279 -0.003195 0.000000 0.004052 0.000000
# 2 -0.002279 0.007235 -0.002405 0.000000 -0.001159 0.000000
# 3 -0.003195 -0.002405 0.026238 0.000000 -0.002182 0.000000
# 4 0.000000 0.000000 0.000000 0.031182 0.000000 0.002819
# 5 0.004052 -0.001159 -0.002182 0.000000 0.030618 0.000000
# 6 0.000000 0.000000 0.000000 0.002819 0.000000 0.022167
#
#
# Mechanical properties :
#
#
# Convention : Reuss Voigt Hill
#
# Bulk Modulus (GPa) = 39.97655 67.40459 53.69057
# Shear Modulus (GPa) = 33.59430 41.12096 37.35763
#
# Velocity S-wave (km/s) = 3.75217 4.15128 3.95676
# Velocity P-wave (km/s) = 5.96031 7.15721 6.58600
#
# Compressibility (1/GPa) = 0.02501466
#
# Stress axis : x y z
#
# Youngs Moduli (GPa) = 137.01235 138.20955 38.11261
#
# Poissons Ratio (x) = 0.31494 0.12177
# Poissons Ratio (y) = 0.31222 0.09166
# Poissons Ratio (z) = 0.43776 0.33238
#
# Static dielectric constant tensor:
#      x y z
#    x 1.962230 0.000000 -0.021170 
#    y 0.000000 1.901940 0.000000 
#    z -0.021170 0.000000 2.031680 
# 
# From -- ./inp_files/238688.got.cif
#   From: 2010.05.17/outbox.cif.g08.bks.cpg/sg15_120_cif.got.tgz:238688.got - 2010.06.03 18:47:42.
