data_PCOD9297458
_publ_section_title
;
Structure prediction by ZEFSAII (Michael W. Deem and Ramdas Pophale) SiO2 
 PCOD9297458
Probable space group: C 2/C
;
_chemical_formula_sum "Si O2"
_cell_formula_units_Z 40
_cell_length_a 24.403754
_cell_length_b 5.124125
_cell_length_c 21.012140
_cell_angle_alpha 90.000000
_cell_angle_beta 35.489317
_cell_angle_gamma 90.000000
_cell_volume 1525.411900
_symmetry_space_group_name_H-M "C 2/C"
_symmetry_group_IT_number 15
_symmetry_cell_setting 'monoclinic'
loop_
_space_group_symop_operation_xyz
x,y,z
-x,y,1/2-z
-x,-y,-z
x,-y,1/2+z
1/2+x,1/2+y,z
1/2-x,1/2+y,1/2-z
1/2-x,1/2-y,-z
1/2+x,1/2-y,1/2+z
loop_
_atom_site_type_symbol
_atom_site_label
_atom_site_fract_x
_atom_site_fract_y
_atom_site_fract_z
Si Si1 0.192497 0.003590 0.033582
Si Si2 0.039700 0.406427 0.845094
Si Si3 0.141448 0.984957 0.830763
Si Si4 0.500000 0.000000 0.500000
Si Si5 0.500000 0.341833 0.250000
Si Si6 0.256152 0.856333 0.344943
O O1 0.093412 0.009245 0.162164
O O2 0.250000 0.750000 0.000000
O O3 0.185176 0.045193 0.965376
O O4 0.250000 0.250000 0.000000
O O5 0.997653 0.311938 0.818880
O O6 0.143129 0.512906 0.731670
O O7 0.066475 0.216087 0.882644
O O8 0.964373 0.563072 0.958101
O O9 0.210175 0.066431 0.821683
O O10 0.204493 0.934257 0.707748
O O11 0.087945 0.721531 0.901727
#
# Coordination Sequence:
#
# PCOD9297458 Si02
#       6
#     8   8   8   4   4   8
#     4  12  28  52  79 114 159 213 266 324 397 481
#     4  11  23  46  68 109 148 196 253 316 395 463
#     4  11  22  43  69 103 143 193 251 320 387 455
#     4  10  24  40  68 106 140 194 254 312 376 464
#     4  12  26  52  78 110 164 208 264 326 400 488
#     4  11  23  43  74 104 147 198 259 323 389 461
#
# _framework density 26.222427
#
# number of rings (size 3 to 8) (size 9 to 14) (size 15 to 20)
#    0.000    0.800    4.000    3.000    0.000    0.800 
#   14.400    0.000    0.000    0.000    0.000    0.000 
#    0.000    0.000    0.000    0.000    0.000    0.000 
#
# Total GULP energy -111393.728871 kJ/mol
# GULP energy per Si atom -5569.686444 kJ/mol
# Density = 2.616274 g / cm^3
# Si number density = 26.222427 Si / 1000 Ang^3
#
#
#
# Elastic Constant Matrix: (Units=GPa)
#
#
# Indices 1 2 3 4 5 6 
#
# 1 139.4409 38.9535 20.0557 0.0050 24.3803 -0.0060
# 2 38.9535 99.1665 9.4985 -0.0009 -11.7912 -0.0241
# 3 20.0557 9.4985 115.5870 -0.0005 19.5229 0.0148
# 4 0.0050 -0.0009 -0.0005 28.4310 0.0118 -4.2797
# 5 24.3803 -11.7912 19.5229 0.0118 53.3440 0.0058
# 6 -0.0060 -0.0241 0.0148 -4.2797 0.0058 39.5269
#
#
#
# Elastic Compliance Matrix: (Units=1/GPa)
#
#
# Indices 1 2 3 4 5 6 
#
# 1 0.009283 -0.004203 -0.000418 0.000000 -0.005019 0.000000
# 2 -0.004203 0.012452 -0.001155 0.000000 0.005096 0.000007
# 3 -0.000418 -0.001155 0.009411 0.000001 -0.003509 -0.000004
# 4 0.000000 0.000000 0.000001 0.035756 -0.000009 0.003871
# 5 -0.005019 0.005096 -0.003509 -0.000009 0.023451 -0.000001
# 6 0.000000 0.000007 -0.000004 0.003871 -0.000001 0.025718
#
#
# Mechanical properties :
#
#
# Convention : Reuss Voigt Hill
#
# Bulk Modulus (GPa) = 51.03263 54.57888 52.80576
# Shear Modulus (GPa) = 37.27049 43.30615 40.28832
#
# Velocity S-wave (km/s) = 3.77413 4.06827 3.92396
# Velocity P-wave (km/s) = 6.20450 6.55185 6.38054
#
# Compressibility (1/GPa) = 0.01959531
#
# Stress axis : x y z
#
# Youngs Moduli (GPa) = 107.71963 80.31030 106.25321
#
# Poissons Ratio (x) = 0.33757 0.04437
# Poissons Ratio (y) = 0.45279 0.12268
# Poissons Ratio (z) = 0.04498 0.09273
#
# Static dielectric constant tensor:
#      x y z
#    x 2.246480 -0.000270 0.382190 
#    y -0.000270 3.098820 0.000020 
#    z 0.382190 0.000020 1.681370 
# 
# From -- ./inp_files/175565.got.cif
#   From: 2010.05.17/outbox.cif.g08.bks.cpg/sg15_88_cif.got.tgz:175565.got - 2010.06.03 18:47:42.
