data_PCOD9297423
_publ_section_title
;
Structure prediction by ZEFSAII (Michael W. Deem and Ramdas Pophale) SiO2 
 PCOD9297423
Probable space group: C 2/C
;
_chemical_formula_sum "Si O2"
_cell_formula_units_Z 40
_cell_length_a 11.130909
_cell_length_b 15.436507
_cell_length_c 16.456247
_cell_angle_alpha 90.000000
_cell_angle_beta 147.452356
_cell_angle_gamma 90.000000
_cell_volume 1521.224589
_symmetry_space_group_name_H-M "C 2/C"
_symmetry_group_IT_number 15
_symmetry_cell_setting 'monoclinic'
loop_
_space_group_symop_operation_xyz
x,y,z
-x,y,1/2-z
-x,-y,-z
x,-y,1/2+z
1/2+x,1/2+y,z
1/2-x,1/2+y,1/2-z
1/2-x,1/2-y,-z
1/2+x,1/2-y,1/2+z
loop_
_atom_site_type_symbol
_atom_site_label
_atom_site_fract_x
_atom_site_fract_y
_atom_site_fract_z
Si Si1 0.750658 0.230363 0.124018
Si Si2 0.629757 0.419032 0.465602
Si Si3 0.330619 0.138485 0.813296
Si Si4 0.999393 0.886823 0.573593
Si Si5 0.558058 0.044126 0.119493
O O1 0.780501 0.282650 0.224846
O O2 0.000000 0.194849 0.250000
O O3 0.532781 0.170742 0.985001
O O4 0.684714 0.312123 0.026279
O O5 0.413923 0.386809 0.292071
O O6 0.601577 0.380625 0.540197
O O7 0.614172 0.521686 0.472477
O O8 0.858206 0.405745 0.548629
O O9 0.389858 0.046930 0.802948
O O10 0.221873 0.897241 0.754436
O O11 0.500000 0.000000 0.000000
#
# Coordination Sequence:
#
# PCOD9297423 Si02
#       5
#     8   8   8   8   8
#     4  11  22  41  66  97 137 178 227 278 340 409
#     4   9  19  41  64  94 130 170 231 274 331 394
#     4  10  24  40  65  99 131 179 220 281 343 402
#     4   9  20  37  68  94 127 175 223 278 328 403
#     4  11  23  40  69  99 133 174 228 283 337 392
#
# _framework density 26.294606999999999
#
# number of rings (size 3 to 8) (size 9 to 14) (size 15 to 20)
#    0.000    2.000    0.000    3.600    2.800    3.200 
#    3.600    1.000    8.800    0.000    0.000    0.000 
#    0.000    0.000    0.000    0.000    0.000    0.000 
#
# Total GULP energy -111741.722717 kJ/mol
# GULP energy per Si atom -5587.086136 kJ/mol
# Density = 2.623476 g / cm^3
# Si number density = 26.294607 Si / 1000 Ang^3
#
#
#
# Elastic Constant Matrix: (Units=GPa)
#
#
# Indices 1 2 3 4 5 6 
#
# 1 124.1862 23.8202 56.8420 0.0004 34.3553 0.0000
# 2 23.8202 112.6722 44.6204 0.0014 13.4794 0.0003
# 3 56.8420 44.6204 208.6736 0.0021 2.6288 0.0003
# 4 0.0004 0.0014 0.0021 56.3367 0.0006 11.7473
# 5 34.3553 13.4794 2.6288 0.0006 49.6516 0.0000
# 6 0.0000 0.0003 0.0003 11.7473 0.0000 27.5027
#
#
#
# Elastic Compliance Matrix: (Units=1/GPa)
#
#
# Indices 1 2 3 4 5 6 
#
# 1 0.011653 -0.000340 -0.003003 0.000000 -0.007812 0.000000
# 2 -0.000340 0.010033 -0.002023 0.000000 -0.002382 0.000000
# 3 -0.003003 -0.002023 0.006014 0.000000 0.002309 0.000000
# 4 0.000000 0.000000 0.000000 0.019486 0.000000 -0.008323
# 5 -0.007812 -0.002382 0.002309 0.000000 0.026070 0.000000
# 6 0.000000 0.000000 0.000000 -0.008323 0.000000 0.039915
#
#
# Mechanical properties :
#
#
# Convention : Reuss Voigt Hill
#
# Bulk Modulus (GPa) = 58.93251 77.34416 68.13833
# Shear Modulus (GPa) = 38.59240 48.04816 43.32028
#
# Velocity S-wave (km/s) = 3.83520 4.27933 4.06334
# Velocity P-wave (km/s) = 6.48635 7.34134 6.92705
#
# Compressibility (1/GPa) = 0.01696856
#
# Stress axis : x y z
#
# Youngs Moduli (GPa) = 85.81188 99.66976 166.28657
#
# Poissons Ratio (x) = 0.03386 0.49941
# Poissons Ratio (y) = 0.02915 0.33637
# Poissons Ratio (z) = 0.25772 0.20162
#
# Static dielectric constant tensor:
#      x y z
#    x 2.120040 0.000000 -0.143500 
#    y 0.000000 2.231090 0.000000 
#    z -0.143500 0.000000 2.217230 
# 
# From -- ./inp_files/199747.got.cif
#   From: 2010.05.17/outbox.cif.g08.bks.cpg/sg15_100_cif.got.tgz:199747.got - 2010.06.03 18:47:42.
