data_PCOD9297481
_publ_section_title
;
Structure prediction by ZEFSAII (Michael W. Deem and Ramdas Pophale) SiO2 
 PCOD9297481
Probable space group: C 2/C
;
_chemical_formula_sum "Si O2"
_cell_formula_units_Z 36
_cell_length_a 24.537756
_cell_length_b 10.969277
_cell_length_c 9.674419
_cell_angle_alpha 90.000000
_cell_angle_beta 38.687637
_cell_angle_gamma 90.000000
_cell_volume 1627.681189
_symmetry_space_group_name_H-M "C 2/C"
_symmetry_group_IT_number 15
_symmetry_cell_setting 'monoclinic'
loop_
_space_group_symop_operation_xyz
x,y,z
-x,y,1/2-z
-x,-y,-z
x,-y,1/2+z
1/2+x,1/2+y,z
1/2-x,1/2+y,1/2-z
1/2-x,1/2-y,-z
1/2+x,1/2-y,1/2+z
loop_
_atom_site_type_symbol
_atom_site_label
_atom_site_fract_x
_atom_site_fract_y
_atom_site_fract_z
Si Si1 0.110714 0.987010 0.291600
Si Si2 0.673546 0.264948 0.762507
Si Si3 0.433406 0.986904 0.006592
Si Si4 0.263922 0.857612 0.864525
Si Si5 0.500000 0.527599 0.250000
O O1 0.109490 0.128911 0.335169
O O2 0.055578 0.963343 0.261414
O O3 0.073635 0.915212 0.500158
O O4 0.208594 0.962298 0.051031
O O5 0.750000 0.250000 0.500000
O O6 0.620358 0.140185 0.888143
O O7 0.718729 0.315022 0.812411
O O8 0.360924 0.093498 0.149944
O O9 0.500000 0.992591 0.750000
O O10 0.500000 0.000000 0.000000
O O11 0.250000 0.750000 0.000000
#
# Coordination Sequence:
#
# PCOD9297481 Si02
#       5
#     8   8   8   8   4
#     4  11  24  47  70 109 143 194 254 302 391 450
#     4  12  26  47  78 102 149 201 250 311 381 458
#     4  12  28  50  75 114 153 195 259 316 384 455
#     4  12  28  49  78 105 151 208 252 314 385 473
#     4  10  24  40  70 102 146 174 244 320 356 450
#
# _framework density 22.117353000000001
#
# number of rings (size 3 to 8) (size 9 to 14) (size 15 to 20)
#    0.000    0.444    4.444    2.667    7.778    3.556 
#    4.000    0.000    0.000    0.000    0.000    0.000 
#    0.000    0.000    0.000    0.000    0.000    0.000 
#
# Total GULP energy -100437.072889 kJ/mol
# GULP energy per Si atom -5579.837383 kJ/mol
# Density = 2.206701 g / cm^3
# Si number density = 22.117353 Si / 1000 Ang^3
#
#
#
# Elastic Constant Matrix: (Units=GPa)
#
#
# Indices 1 2 3 4 5 6 
#
# 1 140.3056 54.6039 97.1477 0.0000 7.1670 0.0000
# 2 54.6039 119.4374 59.7024 0.0000 -12.2247 0.0000
# 3 97.1477 59.7024 246.3354 0.0000 3.8411 0.0000
# 4 0.0000 0.0000 0.0000 31.6663 0.0000 -7.6510
# 5 7.1670 -12.2247 3.8411 0.0000 56.1196 0.0000
# 6 0.0000 0.0000 0.0000 -7.6510 0.0000 25.7220
#
#
#
# Elastic Compliance Matrix: (Units=1/GPa)
#
#
# Indices 1 2 3 4 5 6 
#
# 1 0.010973 -0.003488 -0.003452 0.000000 -0.001925 0.000000
# 2 -0.003488 0.010924 -0.001317 0.000000 0.002915 0.000000
# 3 -0.003452 -0.001317 0.005744 0.000000 -0.000239 0.000000
# 4 0.000000 0.000000 0.000000 0.034025 0.000000 0.010121
# 5 -0.001925 0.002915 -0.000239 0.000000 0.018716 0.000000
# 6 0.000000 0.000000 0.000000 0.010121 0.000000 0.041888
#
#
# Mechanical properties :
#
#
# Convention : Reuss Voigt Hill
#
# Bulk Modulus (GPa) = 89.87944 103.22073 96.55009
# Shear Modulus (GPa) = 35.08905 42.34319 38.71612
#
# Velocity S-wave (km/s) = 3.98740 4.38022 4.18842
# Velocity P-wave (km/s) = 7.86924 8.50604 8.19383
#
# Compressibility (1/GPa) = 0.01112601
#
# Stress axis : x y z
#
# Youngs Moduli (GPa) = 91.12890 91.53962 174.09519
#
# Poissons Ratio (x) = 0.31931 0.60101
# Poissons Ratio (y) = 0.31788 0.22936
# Poissons Ratio (z) = 0.31460 0.12060
#
# Static dielectric constant tensor:
#      x y z
#    x 1.487040 0.000000 -0.168700 
#    y 0.000000 1.927270 0.000000 
#    z -0.168700 0.000000 1.810920 
# 
# From -- ./inp_files/55569.got.cif
#   From: 2010.05.17/outbox.cif.g08.bks.cpg/sg15_28_cif.got.tgz:55569.got - 2010.06.03 18:47:42.
