data_PCOD9297915
_publ_section_title
;
Structure prediction by ZEFSAII (Michael W. Deem and Ramdas Pophale) SiO2 
 PCOD9297915
Probable space group: C 2/C
;
_chemical_formula_sum "Si O2"
_cell_formula_units_Z 44
_cell_length_a 7.580901
_cell_length_b 17.291699
_cell_length_c 14.275808
_cell_angle_alpha 90.000000
_cell_angle_beta 85.746970
_cell_angle_gamma 90.000000
_cell_volume 1866.214712
_symmetry_space_group_name_H-M "C 2/C"
_symmetry_group_IT_number 15
_symmetry_cell_setting 'monoclinic'
loop_
_space_group_symop_operation_xyz
x,y,z
-x,y,1/2-z
-x,-y,-z
x,-y,1/2+z
1/2+x,1/2+y,z
1/2-x,1/2+y,1/2-z
1/2-x,1/2-y,-z
1/2+x,1/2-y,1/2+z
loop_
_atom_site_type_symbol
_atom_site_label
_atom_site_fract_x
_atom_site_fract_y
_atom_site_fract_z
Si Si1 0.500000 0.935415 0.250000
Si Si2 0.618235 0.345506 0.552762
Si Si3 0.222724 0.439233 0.807912
Si Si4 0.500000 0.461832 0.250000
Si Si5 0.352554 0.666167 0.894360
Si Si6 0.567315 0.181291 0.603895
Si Si7 0.000000 0.703504 0.250000
O O1 0.380107 0.874079 0.311717
O O2 0.427592 0.995771 0.175640
O O3 0.653323 0.422814 0.608849
O O4 0.453678 0.340342 0.488743
O O5 0.591197 0.271981 0.622028
O O6 0.798457 0.334756 0.485797
O O7 0.342495 0.481004 0.725543
O O8 0.143327 0.357384 0.782910
O O9 0.581704 0.406700 0.168585
O O10 0.421697 0.741637 0.834526
O O11 0.139819 0.667376 0.909788
#
# Coordination Sequence:
#
# PCOD9297915 Si02
#       7
#     4   8   8   4   8   8   4
#     4  11  24  48  70  97 140 190 236 275 364 414
#     4  11  26  43  70 109 144 175 243 290 357 403
#     4  11  25  44  67 104 141 184 229 302 340 422
#     4  11  24  46  68 101 140 186 238 273 360 418
#     4  11  24  48  71 103 137 190 236 293 340 431
#     4  11  24  45  74 102 138 192 230 294 345 425
#     4  10  24  42  72 100 136 180 250 290 336 416
#
# _framework density 23.577135999999999
#
# number of rings (size 3 to 8) (size 9 to 14) (size 15 to 20)
#    0.000    1.091    1.818    3.818    7.636    1.455 
#    3.273    0.000    0.000    0.000    0.000    0.000 
#    0.000    0.000    0.000    0.000    0.000    0.000 
#
# Total GULP energy -122878.481797 kJ/mol
# GULP energy per Si atom -5585.385536 kJ/mol
# Density = 2.352347 g / cm^3
# Si number density = 23.577136 Si / 1000 Ang^3
#
#
#
# Elastic Constant Matrix: (Units=GPa)
#
#
# Indices 1 2 3 4 5 6 
#
# 1 126.7734 41.0897 27.0151 0.0000 5.1367 0.0000
# 2 41.0897 126.3282 50.9603 0.0000 14.9904 0.0000
# 3 27.0151 50.9603 66.0536 0.0000 17.0761 0.0000
# 4 0.0000 0.0000 0.0000 27.1373 0.0000 6.6205
# 5 5.1367 14.9904 17.0761 0.0000 32.3449 0.0000
# 6 0.0000 0.0000 0.0000 6.6205 0.0000 45.3589
#
#
#
# Elastic Compliance Matrix: (Units=1/GPa)
#
#
# Indices 1 2 3 4 5 6 
#
# 1 0.009023 -0.002115 -0.002248 0.000000 0.000734 0.000000
# 2 -0.002115 0.012004 -0.008158 0.000000 -0.000920 0.000000
# 3 -0.002248 -0.008158 0.024647 0.000000 -0.008874 0.000000
# 4 0.000000 0.000000 0.000000 0.038210 0.000000 -0.005577
# 5 0.000734 -0.000920 -0.008874 0.000000 0.035912 0.000000
# 6 0.000000 0.000000 0.000000 -0.005577 0.000000 0.022860
#
#
# Mechanical properties :
#
#
# Convention : Reuss Voigt Hill
#
# Bulk Modulus (GPa) = 48.47109 61.92059 55.19584
# Shear Modulus (GPa) = 28.64080 34.30757 31.47419
#
# Velocity S-wave (km/s) = 3.48914 3.81874 3.65765
# Velocity P-wave (km/s) = 6.06920 6.76489 6.42647
#
# Compressibility (1/GPa) = 0.02063085
#
# Stress axis : x y z
#
# Youngs Moduli (GPa) = 110.82834 83.30573 40.57309
#
# Poissons Ratio (x) = 0.17619 0.09123
# Poissons Ratio (y) = 0.23440 0.33100
# Poissons Ratio (z) = 0.24919 0.67962
#
# Static dielectric constant tensor:
#      x y z
#    x 2.061670 0.000000 0.033740 
#    y 0.000000 1.880910 0.000000 
#    z 0.033740 0.000000 1.907810 
# 
# From -- ./inp_files/134468.got.cif
#   From: 2010.05.17/outbox.cif.g08.bks.cpg/sg15_68_cif.got.tgz:134468.got - 2010.06.03 18:47:42.
