data_PCOD9297466
_publ_section_title
;
Structure prediction by ZEFSAII (Michael W. Deem and Ramdas Pophale) SiO2 
 PCOD9297466
Probable space group: C 2/C
;
_chemical_formula_sum "Si O2"
_cell_formula_units_Z 56
_cell_length_a 26.686192
_cell_length_b 8.331361
_cell_length_c 19.528572
_cell_angle_alpha 90.000000
_cell_angle_beta 151.285206
_cell_angle_gamma 90.000000
_cell_volume 2086.033179
_symmetry_space_group_name_H-M "C 2/C"
_symmetry_group_IT_number 15
_symmetry_cell_setting 'monoclinic'
loop_
_space_group_symop_operation_xyz
x,y,z
-x,y,1/2-z
-x,-y,-z
x,-y,1/2+z
1/2+x,1/2+y,z
1/2-x,1/2+y,1/2-z
1/2-x,1/2-y,-z
1/2+x,1/2-y,1/2+z
loop_
_atom_site_type_symbol
_atom_site_label
_atom_site_fract_x
_atom_site_fract_y
_atom_site_fract_z
Si Si1 0.325891 0.662083 0.445331
Si Si2 0.913314 0.677462 0.824838
Si Si3 0.272466 0.176888 0.453461
Si Si4 0.401671 0.793961 0.880917
Si Si5 0.835799 0.114059 0.609637
Si Si6 0.510745 0.466270 0.102428
Si Si7 0.919335 0.521894 0.540510
O O1 0.200909 0.660858 0.284743
O O2 0.351924 0.576128 0.549129
O O3 0.388061 0.566071 0.461539
O O4 0.369247 0.846712 0.491076
O O5 0.792241 0.713285 0.677139
O O6 0.956828 0.538621 0.826867
O O7 0.963839 0.846020 0.859552
O O8 0.972950 0.653923 0.968390
O O9 0.250000 0.250000 0.500000
O O10 0.386212 0.131342 0.565236
O O11 0.216340 0.008148 0.399551
O O12 0.426579 0.612258 0.885953
O O13 0.374572 0.875162 0.921897
O O14 0.750000 0.250000 0.500000
O O15 0.944648 0.135907 0.778722
#
# Coordination Sequence:
#
# PCOD9297466 Si02
#       7
#     8   8   8   8   8   8   8
#     4  12  24  43  70  99 138 179 230 283 342 406
#     4   9  24  43  64  98 133 176 229 267 346 413
#     4  11  24  45  71  93 136 178 222 286 338 408
#     4  10  24  40  68  96 140 178 223 276 342 414
#     4  11  22  45  68  98 132 177 234 277 341 403
#     4  11  23  42  70  96 136 184 226 279 335 416
#     4  10  25  43  63 102 134 173 227 281 342 403
#
# _framework density 26.845210999999999
#
# number of rings (size 3 to 8) (size 9 to 14) (size 15 to 20)
#    0.857    0.571    2.857    1.714    6.000    2.286 
#    2.571    0.000    0.000    0.000    0.000    0.000 
#    0.000    0.000    0.000    0.000    0.000    0.000 
#
# Total GULP energy -155911.936772 kJ/mol
# GULP energy per Si atom -5568.283456 kJ/mol
# Density = 2.678411 g / cm^3
# Si number density = 26.845211 Si / 1000 Ang^3
#
#
#
# Elastic Constant Matrix: (Units=GPa)
#
#
# Indices 1 2 3 4 5 6 
#
# 1 120.7071 29.0841 18.5787 0.0000 10.6551 0.0000
# 2 29.0841 110.5547 25.2741 0.0000 2.0551 0.0000
# 3 18.5787 25.2741 97.1811 0.0000 9.5434 0.0000
# 4 0.0000 0.0000 0.0000 25.7279 0.0000 1.8332
# 5 10.6551 2.0551 9.5434 0.0000 39.7386 0.0000
# 6 0.0000 0.0000 0.0000 1.8332 0.0000 45.8797
#
#
#
# Elastic Compliance Matrix: (Units=1/GPa)
#
#
# Indices 1 2 3 4 5 6 
#
# 1 0.009137 -0.002140 -0.000984 0.000000 -0.002103 0.000000
# 2 -0.002140 0.010119 -0.002281 0.000000 0.000598 0.000000
# 3 -0.000984 -0.002281 0.011300 0.000000 -0.002332 0.000000
# 4 0.000000 0.000000 0.000000 0.038979 0.000000 -0.001557
# 5 -0.002103 0.000598 -0.002332 0.000000 0.026257 0.000000
# 6 0.000000 0.000000 0.000000 -0.001557 0.000000 0.021858
#
#
# Mechanical properties :
#
#
# Convention : Reuss Voigt Hill
#
# Bulk Modulus (GPa) = 50.64160 52.70186 51.67173
# Shear Modulus (GPa) = 37.02521 39.30297 38.16409
#
# Velocity S-wave (km/s) = 3.71780 3.83045 3.77455
# Velocity P-wave (km/s) = 6.11021 6.26399 6.18758
#
# Compressibility (1/GPa) = 0.01974661
#
# Stress axis : x y z
#
# Youngs Moduli (GPa) = 109.44337 98.82778 88.49208
#
# Poissons Ratio (x) = 0.21147 0.08706
# Poissons Ratio (y) = 0.23418 0.20187
# Poissons Ratio (z) = 0.10767 0.22545
#
# Static dielectric constant tensor:
#      x y z
#    x 2.250440 0.000000 -0.102720 
#    y 0.000000 2.437610 0.000000 
#    z -0.102720 0.000000 2.305420 
# 
# From -- ./inp_files/259025.got.cif
#   From: 2010.05.17/outbox.cif.g08.bks.cpg/sg15_130_cif.got.tgz:259025.got - 2010.06.03 18:47:42.
