data_PCOD9297112
_publ_section_title
;
Structure prediction by ZEFSAII (Michael W. Deem and Ramdas Pophale) SiO2 
 PCOD9297112
Probable space group: C 2/C
;
_chemical_formula_sum "Si O2"
_cell_formula_units_Z 64
_cell_length_a 9.746017
_cell_length_b 20.279023
_cell_length_c 32.946820
_cell_angle_alpha 90.000000
_cell_angle_beta 152.504266
_cell_angle_gamma 90.000000
_cell_volume 3006.292085
_symmetry_space_group_name_H-M "C 2/C"
_symmetry_group_IT_number 15
_symmetry_cell_setting 'monoclinic'
loop_
_space_group_symop_operation_xyz
x,y,z
-x,y,1/2-z
-x,-y,-z
x,-y,1/2+z
1/2+x,1/2+y,z
1/2-x,1/2+y,1/2-z
1/2-x,1/2-y,-z
1/2+x,1/2-y,1/2+z
loop_
_atom_site_type_symbol
_atom_site_label
_atom_site_fract_x
_atom_site_fract_y
_atom_site_fract_z
Si Si1 0.801699 0.391031 0.304511
Si Si2 0.403471 0.124242 0.135368
Si Si3 0.682086 0.574472 0.990773
Si Si4 0.511858 0.318948 0.709122
Si Si5 0.354035 0.825273 0.169155
Si Si6 0.201321 0.922775 0.999378
Si Si7 0.282280 0.917410 0.929567
Si Si8 0.797016 0.504802 0.236612
O O1 0.500000 0.381665 0.250000
O O2 0.775564 0.445036 0.262125
O O3 0.926163 0.329874 0.311671
O O4 0.055243 0.414013 0.402147
O O5 0.628967 0.185184 0.200887
O O6 0.564455 0.065448 0.201912
O O7 0.073093 0.126977 0.066693
O O8 0.344897 0.102320 0.073625
O O9 0.420995 0.626056 0.911677
O O10 0.582340 0.498585 0.971475
O O11 0.922475 0.569738 0.018203
O O12 0.500000 0.356160 0.750000
O O13 0.316265 0.253264 0.663624
O O14 0.375172 0.357313 0.635461
O O15 0.500000 0.846042 0.250000
O O16 0.340257 0.908294 0.992086
O O17 0.035732 0.974819 0.862729
O O18 0.000000 0.494757 0.250000
#
# Coordination Sequence:
#
# PCOD9297112 Si02
#       8
#     8   8   8   8   8   8   8   8
#     4  12  26  43  64  98 147 181 224 287 362 409
#     4  11  21  41  68  96 133 178 219 286 332 415
#     4  12  23  43  70 100 142 174 229 282 353 422
#     4  10  23  48  69  97 131 181 246 278 337 402
#     4  11  27  46  68  96 133 186 237 289 343 407
#     4  12  24  42  64 111 139 174 225 280 361 421
#     4  11  25  40  70 104 135 182 228 285 339 418
#     4  11  22  39  65 101 141 183 223 275 354 421
#
# _framework density 21.288682999999999
#
# number of rings (size 3 to 8) (size 9 to 14) (size 15 to 20)
#    0.000    0.750    5.000    2.625    3.500    0.500 
#    2.250    0.625    0.000    0.000    0.000    0.000 
#    0.000    0.000    0.000    0.000    0.000    0.000 
#
# Total GULP energy -178742.200375 kJ/mol
# GULP energy per Si atom -5585.693762 kJ/mol
# Density = 2.124023 g / cm^3
# Si number density = 21.288683 Si / 1000 Ang^3
#
#
#
# Elastic Constant Matrix: (Units=GPa)
#
#
# Indices 1 2 3 4 5 6 
#
# 1 158.4250 17.2399 44.0624 0.0023 -1.6755 0.0002
# 2 17.2399 53.7178 37.1837 -0.0093 -7.4215 -0.0030
# 3 44.0624 37.1837 113.0513 -0.0097 -3.7997 -0.0011
# 4 0.0023 -0.0093 -0.0097 15.1632 -0.0019 -1.1096
# 5 -1.6755 -7.4215 -3.7997 -0.0019 54.7542 0.0003
# 6 0.0002 -0.0030 -0.0011 -1.1096 0.0003 18.6654
#
#
#
# Elastic Compliance Matrix: (Units=1/GPa)
#
#
# Indices 1 2 3 4 5 6 
#
# 1 0.007089 -0.000474 -0.002608 -0.000003 -0.000028 -0.000001
# 2 -0.000474 0.024547 -0.007796 0.000011 0.002772 0.000004
# 3 -0.002608 -0.007796 0.012417 0.000004 -0.000275 0.000000
# 4 -0.000003 0.000011 0.000004 0.066237 0.000004 0.003938
# 5 -0.000028 0.002772 -0.000275 0.000004 0.018619 0.000000
# 6 -0.000001 0.000004 0.000000 0.003938 0.000000 0.053809
#
#
# Mechanical properties :
#
#
# Convention : Reuss Voigt Hill
#
# Bulk Modulus (GPa) = 44.84809 58.01846 51.43327
# Shear Modulus (GPa) = 23.59527 32.83041 28.21284
#
# Velocity S-wave (km/s) = 3.33280 3.93129 3.64435
# Velocity P-wave (km/s) = 5.99353 6.92236 6.47462
#
# Compressibility (1/GPa) = 0.02229750
#
# Stress axis : x y z
#
# Youngs Moduli (GPa) = 141.06865 40.73780 80.53471
#
# Poissons Ratio (x) = 0.01929 0.21004
# Poissons Ratio (y) = 0.06681 0.62785
# Poissons Ratio (z) = 0.36791 0.31759
#
# Static dielectric constant tensor:
#      x y z
#    x 1.809970 0.000000 0.037560 
#    y 0.000000 1.802160 0.000000 
#    z 0.037560 0.000000 1.774860 
# 
# From -- ./inp_files/309138.got.cif
#   From: 2010.05.17/outbox.cif.g08.bks.cpg/sg15_155_cif.got.tgz:309138.got - 2010.06.03 18:47:42.
