data_PCOD9297809
_publ_section_title
;
Structure prediction by ZEFSAII (Michael W. Deem and Ramdas Pophale) SiO2 
 PCOD9297809
Probable space group: C 2/C
;
_chemical_formula_sum "Si O2"
_cell_formula_units_Z 48
_cell_length_a 12.665046
_cell_length_b 25.092830
_cell_length_c 8.509906
_cell_angle_alpha 90.000000
_cell_angle_beta 49.367302
_cell_angle_gamma 90.000000
_cell_volume 2052.417052
_symmetry_space_group_name_H-M "C 2/C"
_symmetry_group_IT_number 15
_symmetry_cell_setting 'monoclinic'
loop_
_space_group_symop_operation_xyz
x,y,z
-x,y,1/2-z
-x,-y,-z
x,-y,1/2+z
1/2+x,1/2+y,z
1/2-x,1/2+y,1/2-z
1/2-x,1/2-y,-z
1/2+x,1/2-y,1/2+z
loop_
_atom_site_type_symbol
_atom_site_label
_atom_site_fract_x
_atom_site_fract_y
_atom_site_fract_z
Si Si1 0.878081 0.743819 0.756735
Si Si2 0.902277 0.651640 0.495706
Si Si3 0.728352 0.005639 0.597336
Si Si4 0.074226 0.865792 0.846345
Si Si5 0.648448 0.575202 0.742045
Si Si6 0.873251 0.421065 0.573340
O O1 0.855188 0.703811 0.635821
O O2 0.922474 0.801806 0.650263
O O3 0.000000 0.722286 0.750000
O O4 0.750000 0.750000 0.000000
O O5 0.766374 0.618112 0.582071
O O6 0.000000 0.662564 0.250000
O O7 0.994853 0.615907 0.525234
O O8 0.844809 0.971352 0.393234
O O9 0.633770 0.962296 0.775508
O O10 0.798431 0.043873 0.655417
O O11 0.642363 0.041359 0.561383
O O12 0.231777 0.886439 0.702131
O O13 0.000000 0.878896 0.750000
O O14 0.987776 0.893411 0.069872
#
# Coordination Sequence:
#
# PCOD9297809 Si02
#       6
#     8   8   8   8   8   8
#     4  11  25  47  76 103 133 182 233 288 354 421
#     4  12  26  47  69 105 139 181 230 294 347 411
#     4  10  24  42  68 102 137 190 228 280 341 412
#     4  11  23  45  69 102 133 181 228 289 343 416
#     4  11  24  43  68 100 141 179 234 281 342 414
#     4  11  24  43  69 103 138 184 231 281 343 408
#
# _framework density 23.387060999999999
#
# number of rings (size 3 to 8) (size 9 to 14) (size 15 to 20)
#    0.000    1.000    3.333    3.000    2.333    8.667 
#    3.000    2.500    0.000    0.000    0.000    0.000 
#    0.000    0.000    0.000    0.000    0.000    0.000 
#
# Total GULP energy -134482.747116 kJ/mol
# GULP energy per Si atom -5603.447796 kJ/mol
# Density = 2.333383 g / cm^3
# Si number density = 23.387061 Si / 1000 Ang^3
#
#
#
# Elastic Constant Matrix: (Units=GPa)
#
#
# Indices 1 2 3 4 5 6 
#
# 1 51.1126 6.7423 20.9557 0.0000 -6.2112 0.0000
# 2 6.7423 98.9318 50.8932 0.0000 15.2486 0.0000
# 3 20.9557 50.8932 119.3919 0.0000 3.5981 0.0000
# 4 0.0000 0.0000 0.0000 40.6364 0.0000 17.5779
# 5 -6.2112 15.2486 3.5981 0.0000 45.5485 0.0000
# 6 0.0000 0.0000 0.0000 17.5779 0.0000 4.8759
#
#
#
# Elastic Compliance Matrix: (Units=1/GPa)
#
#
# Indices 1 2 3 4 5 6 
#
# 1 0.021550 0.000037 -0.003896 0.000000 0.003234 0.000000
# 2 0.000037 0.013680 -0.005714 0.000000 -0.004123 0.000000
# 3 -0.003896 -0.005714 0.011481 0.000000 0.000475 0.000000
# 4 0.000000 0.000000 0.000000 -0.043990 0.000000 0.158584
# 5 0.003234 -0.004123 0.000475 0.000000 0.023739 0.000000
# 6 0.000000 0.000000 0.000000 0.158584 0.000000 -0.366615
#
#
# Mechanical properties :
#
#
# Convention : Reuss Voigt Hill
#
# Bulk Modulus (GPa) = 36.27634 47.40207 41.83921
# Shear Modulus (GPa) = -16.03485 30.93516 7.45016
#
# Velocity S-wave (km/s) = -2.62129 3.64090 1.78676
# Velocity P-wave (km/s) = 2.52654 6.16339 4.71014
#
# Compressibility (1/GPa) = 0.02756618
#
# Stress axis : x y z
#
# Youngs Moduli (GPa) = 46.40379 73.09769 87.10180
#
# Poissons Ratio (x) = -0.00270 0.33932
# Poissons Ratio (y) = -0.00171 0.49768
# Poissons Ratio (z) = 0.18077 0.41766
#
# Static dielectric constant tensor:
#      x y z
#    x 1.900150 0.000000 -0.001440 
#    y 0.000000 1.836220 0.000000 
#    z -0.001440 0.000000 1.911700 
# 
# From -- ./inp_files/43834.got.cif
#   From: 2010.05.17/outbox.cif.g08.bks.cpg/sg15_22_cif.got.tgz:43834.got - 2010.06.03 18:47:42.
