data_PCOD9297409
_publ_section_title
;
Structure prediction by ZEFSAII (Michael W. Deem and Ramdas Pophale) SiO2 
 PCOD9297409
Probable space group: C 2/C
;
_chemical_formula_sum "Si O2"
_cell_formula_units_Z 36
_cell_length_a 27.974487
_cell_length_b 6.458732
_cell_length_c 26.854576
_cell_angle_alpha 90.000000
_cell_angle_beta 20.656794
_cell_angle_gamma 90.000000
_cell_volume 1711.664030
_symmetry_space_group_name_H-M "C 2/C"
_symmetry_group_IT_number 15
_symmetry_cell_setting 'monoclinic'
loop_
_space_group_symop_operation_xyz
x,y,z
-x,y,1/2-z
-x,-y,-z
x,-y,1/2+z
1/2+x,1/2+y,z
1/2-x,1/2+y,1/2-z
1/2-x,1/2-y,-z
1/2+x,1/2-y,1/2+z
loop_
_atom_site_type_symbol
_atom_site_label
_atom_site_fract_x
_atom_site_fract_y
_atom_site_fract_z
Si Si1 0.000000 0.730425 0.750000
Si Si2 0.162463 0.510019 0.901264
Si Si3 0.125916 0.427629 0.547400
Si Si4 0.921356 0.195223 0.599092
Si Si5 0.919081 0.134036 0.780020
O O1 0.090639 0.589756 0.625477
O O2 0.074348 0.886967 0.716538
O O3 0.151258 0.314575 0.875711
O O4 0.303512 0.624659 0.751565
O O5 0.153413 0.459331 0.968360
O O6 0.034588 0.654605 0.011952
O O7 0.263715 0.308349 0.427199
O O8 0.008406 0.256502 0.653142
O O9 0.000000 0.000000 0.500000
O O10 0.000000 0.207851 0.750000
#
# Coordination Sequence:
#
# PCOD9297409 Si02
#       5
#     4   8   8   8   8
#     4  10  24  40  64  92 134 172 216 266 322 380
#     4  11  25  41  71  97 131 177 219 275 329 391
#     4  12  23  43  65  98 130 173 222 264 325 388
#     4  11  23  48  66  97 135 171 219 277 332 391
#     4  10  24  41  65  90 134 174 211 273 315 378
#
# _framework density 21.032166
#
# number of rings (size 3 to 8) (size 9 to 14) (size 15 to 20)
#    0.667    0.444    3.333    2.667    0.000    3.556 
#    0.000    0.000    0.000    0.000    0.000    0.000 
#    0.000    0.000    0.000    0.000    0.000    0.000 
#
# Total GULP energy -100334.067713 kJ/mol
# GULP energy per Si atom -5574.114873 kJ/mol
# Density = 2.098430 g / cm^3
# Si number density = 21.032166 Si / 1000 Ang^3
#
#
#
# Elastic Constant Matrix: (Units=GPa)
#
#
# Indices 1 2 3 4 5 6 
#
# 1 41.0951 8.0776 16.6386 0.0453 26.2561 0.0347
# 2 8.0776 77.5982 41.2734 0.0439 8.1686 -0.0159
# 3 16.6386 41.2734 153.4503 0.0149 11.2024 0.0405
# 4 0.0453 0.0439 0.0149 29.2576 -0.0307 -0.5360
# 5 26.2561 8.1686 11.2024 -0.0307 28.3143 -0.0172
# 6 0.0347 -0.0159 0.0405 -0.5360 -0.0172 16.9444
#
#
#
# Elastic Compliance Matrix: (Units=1/GPa)
#
#
# Indices 1 2 3 4 5 6 
#
# 1 0.060728 0.001013 -0.002806 -0.000156 -0.055496 -0.000178
# 2 0.001013 0.015277 -0.003942 -0.000026 -0.003787 0.000017
# 3 -0.002806 -0.003942 0.007835 0.000007 0.000639 -0.000016
# 4 -0.000156 -0.000026 0.000007 0.034199 0.000187 0.001082
# 5 -0.055496 -0.003787 0.000639 0.000187 0.087620 0.000204
# 6 -0.000178 0.000017 -0.000016 0.001082 0.000204 0.059051
#
#
# Mechanical properties :
#
#
# Convention : Reuss Voigt Hill
#
# Bulk Modulus (GPa) = 13.81797 44.90254 29.36025
# Shear Modulus (GPa) = 16.64975 28.64685 22.64830
#
# Velocity S-wave (km/s) = 2.81665 3.69460 3.28509
# Velocity P-wave (km/s) = 4.14273 6.29253 5.32720
#
# Compressibility (1/GPa) = 0.07236953
#
# Stress axis : x y z
#
# Youngs Moduli (GPa) = 16.46678 65.45770 127.63713
#
# Poissons Ratio (x) = -0.06630 0.35811
# Poissons Ratio (y) = -0.01668 0.50320
# Poissons Ratio (z) = 0.04620 0.25806
#
# Static dielectric constant tensor:
#      x y z
#    x 1.796970 0.000010 0.034040 
#    y 0.000010 1.783680 0.000070 
#    z 0.034040 0.000070 1.791880 
# 
# From -- ./inp_files/68029.got.cif
#   From: 2010.05.17/outbox.cif.g08.bks.cpg/sg15_35_cif.got.tgz:68029.got - 2010.06.03 18:47:42.
