data_PCOD9297984
_publ_section_title
;
Structure prediction by ZEFSAII (Michael W. Deem and Ramdas Pophale) SiO2 
 PCOD9297984
Probable space group: C 2/C
;
_chemical_formula_sum "Si O2"
_cell_formula_units_Z 36
_cell_length_a 18.304626
_cell_length_b 9.781198
_cell_length_c 8.042256
_cell_angle_alpha 90.000000
_cell_angle_beta 77.382663
_cell_angle_gamma 90.000000
_cell_volume 1405.122493
_symmetry_space_group_name_H-M "C 2/C"
_symmetry_group_IT_number 15
_symmetry_cell_setting 'monoclinic'
loop_
_space_group_symop_operation_xyz
x,y,z
-x,y,1/2-z
-x,-y,-z
x,-y,1/2+z
1/2+x,1/2+y,z
1/2-x,1/2+y,1/2-z
1/2-x,1/2-y,-z
1/2+x,1/2-y,1/2+z
loop_
_atom_site_type_symbol
_atom_site_label
_atom_site_fract_x
_atom_site_fract_y
_atom_site_fract_z
Si Si1 0.500000 0.029413 0.750000
Si Si2 0.506985 0.296622 0.557432
Si Si3 0.228362 0.119228 0.116465
Si Si4 0.352574 0.634009 0.006901
Si Si5 0.129613 0.665787 0.281587
O O1 0.490875 0.135548 0.602320
O O2 0.428747 0.933282 0.777864
O O3 0.500000 0.354712 0.750000
O O4 0.556852 0.634086 0.522055
O O5 0.585208 0.275743 0.421275
O O6 0.175661 0.163356 0.294463
O O7 0.308669 0.077528 0.152878
O O8 0.186047 0.004318 0.034665
O O9 0.250000 0.250000 0.000000
O O10 0.331996 0.746323 0.881007
#
# Coordination Sequence:
#
# PCOD9297984 Si02
#       5
#     4   8   8   8   8
#     4  10  24  42  84 114 164 204 286 318 404 474
#     4  10  24  46  80 121 160 217 274 336 398 483
#     4  12  30  52  78 116 166 214 268 339 428 490
#     4  12  27  53  80 117 161 213 276 343 407 493
#     4  12  24  48  79 119 158 221 274 336 403 484
#
# _framework density 25.620542
#
# number of rings (size 3 to 8) (size 9 to 14) (size 15 to 20)
#    0.667    0.000    2.222    4.000    3.111    1.778 
#    0.000   15.556    0.000    0.000    0.000    0.000 
#    0.000    0.000    0.000    0.000    0.000    0.000 
#
# Total GULP energy -100838.013701 kJ/mol
# GULP energy per Si atom -5602.111872 kJ/mol
# Density = 2.556223 g / cm^3
# Si number density = 25.620542 Si / 1000 Ang^3
#
#
#
# Elastic Constant Matrix: (Units=GPa)
#
#
# Indices 1 2 3 4 5 6 
#
# 1 171.0898 59.0393 14.2238 0.0000 11.5824 0.0000
# 2 59.0393 135.9340 51.9811 0.0000 10.3184 0.0000
# 3 14.2238 51.9811 153.9172 0.0000 -19.1071 0.0000
# 4 0.0000 0.0000 0.0000 33.7912 0.0000 7.3971
# 5 11.5824 10.3184 -19.1071 0.0000 46.1791 0.0000
# 6 0.0000 0.0000 0.0000 7.3971 0.0000 53.4095
#
#
#
# Elastic Compliance Matrix: (Units=1/GPa)
#
#
# Indices 1 2 3 4 5 6 
#
# 1 0.006937 -0.003044 0.000269 0.000000 -0.000948 0.000000
# 2 -0.003044 0.010268 -0.003559 0.000000 -0.003003 0.000000
# 3 0.000269 -0.003559 0.008185 0.000000 0.004114 0.000000
# 4 0.000000 0.000000 0.000000 0.030519 0.000000 -0.004227
# 5 -0.000948 -0.003003 0.004114 0.000000 0.024266 0.000000
# 6 0.000000 0.000000 0.000000 -0.004227 0.000000 0.019309
#
#
# Mechanical properties :
#
#
# Convention : Reuss Voigt Hill
#
# Bulk Modulus (GPa) = 78.60492 79.04771 78.82631
# Shear Modulus (GPa) = 42.95854 49.05574 46.00714
#
# Velocity S-wave (km/s) = 4.09922 4.38048 4.24218
# Velocity P-wave (km/s) = 7.29053 7.51698 7.40462
#
# Compressibility (1/GPa) = 0.01272185
#
# Stress axis : x y z
#
# Youngs Moduli (GPa) = 144.15279 97.39459 122.17685
#
# Poissons Ratio (x) = 0.29646 -0.03289
# Poissons Ratio (y) = 0.43878 0.43484
# Poissons Ratio (z) = -0.03880 0.34664
#
# Static dielectric constant tensor:
#      x y z
#    x 2.061710 0.000000 0.013820 
#    y 0.000000 1.993290 0.000000 
#    z 0.013820 0.000000 2.072980 
# 
# From -- ./inp_files/59849.got.cif
#   From: 2010.05.17/outbox.cif.g08.bks.cpg/sg15_30_cif.got.tgz:59849.got - 2010.06.03 18:47:42.
