data_PCOD9297076
_publ_section_title
;
Structure prediction by ZEFSAII (Michael W. Deem and Ramdas Pophale) SiO2 
 PCOD9297076
Probable space group: C 2/C
;
_chemical_formula_sum "Si O2"
_cell_formula_units_Z 64
_cell_length_a 11.134760
_cell_length_b 30.354574
_cell_length_c 17.102862
_cell_angle_alpha 90.000000
_cell_angle_beta 151.280923
_cell_angle_gamma 90.000000
_cell_volume 2777.673630
_symmetry_space_group_name_H-M "C 2/C"
_symmetry_group_IT_number 15
_symmetry_cell_setting 'monoclinic'
loop_
_space_group_symop_operation_xyz
x,y,z
-x,y,1/2-z
-x,-y,-z
x,-y,1/2+z
1/2+x,1/2+y,z
1/2-x,1/2+y,1/2-z
1/2-x,1/2-y,-z
1/2+x,1/2-y,1/2+z
loop_
_atom_site_type_symbol
_atom_site_label
_atom_site_fract_x
_atom_site_fract_y
_atom_site_fract_z
Si Si1 0.625683 0.953698 0.588287
Si Si2 0.430271 0.470867 0.537709
Si Si3 0.503747 0.635265 0.891342
Si Si4 0.186191 0.951875 0.431210
Si Si5 0.760045 0.290710 0.447706
Si Si6 0.454948 0.124061 0.558807
Si Si7 0.368775 0.365595 0.488404
Si Si8 0.689364 0.689497 0.297590
O O1 0.865344 0.963648 0.776472
O O2 0.433461 0.930186 0.536977
O O3 0.616263 0.925886 0.503591
O O4 0.500000 0.000000 0.500000
O O5 0.500000 0.500000 0.500000
O O6 0.249543 0.504765 0.481674
O O7 0.380268 0.419746 0.488786
O O8 0.567655 0.583896 0.920500
O O9 0.713069 0.664566 0.970273
O O10 0.233984 0.637360 0.695524
O O11 0.440985 0.649265 0.943158
O O12 0.000000 0.958874 0.250000
O O13 0.500000 0.287338 0.250000
O O14 0.750000 0.250000 0.500000
O O15 0.040349 0.289488 0.570215
O O16 0.388957 0.137572 0.609262
O O17 0.270046 0.149635 0.398331
O O18 0.552452 0.334797 0.646892
O O19 0.500000 0.715508 0.250000
#
# Coordination Sequence:
#
# PCOD9297076 Si02
#       8
#     8   8   8   8   8   8   8   8
#     4  12  23  37  62  85 123 184 238 295 352 418
#     4  12  25  42  53  94 138 180 244 307 363 412
#     4  12  24  45  70 102 143 182 241 294 362 442
#     4  12  23  39  65  90 126 181 241 291 358 426
#     4  12  28  51  82 114 147 185 237 304 370 449
#     4  11  21  42  68  98 134 189 242 289 355 431
#     4  11  25  40  67 101 145 192 241 300 358 424
#     4  10  23  47  76 106 144 190 237 287 357 437
#
# _framework density 23.040865
#
# number of rings (size 3 to 8) (size 9 to 14) (size 15 to 20)
#    0.000    0.500    6.250    2.250    1.750    0.500 
#    2.250    1.875    0.000    0.000    0.000    0.000 
#    0.000    0.000    0.000    0.000    0.000    0.000 
#
# Total GULP energy -178179.929082 kJ/mol
# GULP energy per Si atom -5568.122784 kJ/mol
# Density = 2.298842 g / cm^3
# Si number density = 23.040865 Si / 1000 Ang^3
#
#
#
# Elastic Constant Matrix: (Units=GPa)
#
#
# Indices 1 2 3 4 5 6 
#
# 1 148.2396 24.7222 43.7755 0.0000 11.6018 0.0000
# 2 24.7222 50.2322 13.1790 0.0000 3.2666 0.0000
# 3 43.7755 13.1790 47.3959 0.0000 12.7616 -0.0001
# 4 0.0000 0.0000 0.0000 13.0367 0.0000 -8.0081
# 5 11.6018 3.2666 12.7616 0.0000 45.0349 0.0000
# 6 0.0000 0.0000 -0.0001 -8.0081 0.0000 24.1031
#
#
#
# Elastic Compliance Matrix: (Units=1/GPa)
#
#
# Indices 1 2 3 4 5 6 
#
# 1 0.009576 -0.002581 -0.008134 0.000000 0.000025 0.000000
# 2 -0.002581 0.022170 -0.003819 0.000000 0.000139 0.000000
# 3 -0.008134 -0.003819 0.031433 0.000000 -0.006535 0.000000
# 4 0.000000 0.000000 0.000000 0.096376 0.000000 0.032021
# 5 0.000025 0.000139 -0.006535 0.000000 0.024040 0.000000
# 6 0.000000 0.000000 0.000000 0.032021 0.000000 0.052127
#
#
# Mechanical properties :
#
#
# Convention : Reuss Voigt Hill
#
# Bulk Modulus (GPa) = 29.31421 45.46903 37.39162
# Shear Modulus (GPa) = 18.10539 27.38098 22.74319
#
# Velocity S-wave (km/s) = 2.80624 3.45101 3.14519
# Velocity P-wave (km/s) = 4.82186 5.97128 5.42709
#
# Compressibility (1/GPa) = 0.03411315
#
# Stress axis : x y z
#
# Youngs Moduli (GPa) = 104.42540 45.10509 31.81384
#
# Poissons Ratio (x) = 0.11640 0.25877
# Poissons Ratio (y) = 0.26948 0.12149
# Poissons Ratio (z) = 0.84939 0.17224
#
# Static dielectric constant tensor:
#      x y z
#    x 2.524190 0.000000 -0.743050 
#    y 0.000000 1.883010 0.000000 
#    z -0.743050 0.000000 3.056360 
# 
# From -- ./inp_files/201507.got.cif
#   From: 2010.05.17/outbox.cif.g08.bks.cpg/sg15_101_cif.got.tgz:201507.got - 2010.06.03 18:47:42.
