data_PCOD9297899
_publ_section_title
;
Structure prediction by ZEFSAII (Michael W. Deem and Ramdas Pophale) SiO2 
 PCOD9297899
Probable space group: C 2/C
;
_chemical_formula_sum "Si O2"
_cell_formula_units_Z 44
_cell_length_a 30.625602
_cell_length_b 10.851101
_cell_length_c 18.724708
_cell_angle_alpha 90.000000
_cell_angle_beta 18.215252
_cell_angle_gamma 90.000000
_cell_volume 1945.115976
_symmetry_space_group_name_H-M "C 2/C"
_symmetry_group_IT_number 15
_symmetry_cell_setting 'monoclinic'
loop_
_space_group_symop_operation_xyz
x,y,z
-x,y,1/2-z
-x,-y,-z
x,-y,1/2+z
1/2+x,1/2+y,z
1/2-x,1/2+y,1/2-z
1/2-x,1/2-y,-z
1/2+x,1/2-y,1/2+z
loop_
_atom_site_type_symbol
_atom_site_label
_atom_site_fract_x
_atom_site_fract_y
_atom_site_fract_z
Si Si1 0.059664 0.613246 0.862025
Si Si2 0.173541 0.037372 0.568516
Si Si3 0.273849 0.799729 0.777784
Si Si4 0.656466 0.446514 0.251382
Si Si5 0.500000 0.633402 0.250000
Si Si6 0.224767 0.201314 0.198250
O O1 0.202682 0.561523 0.608968
O O2 0.103835 0.726783 0.843367
O O3 0.000000 0.500000 0.000000
O O4 0.929655 0.651609 0.016050
O O5 0.213667 0.120671 0.437626
O O6 0.163978 0.104016 0.658776
O O7 0.039816 0.956353 0.753984
O O8 0.297215 0.661321 0.768025
O O9 0.186619 0.808868 0.841049
O O10 0.500000 0.500000 0.500000
O O11 0.746635 0.567446 0.130539
O O12 0.363136 0.714429 0.476946
#
# Coordination Sequence:
#
# PCOD9297899 Si02
#       6
#     8   8   8   8   4   8
#     4   9  21  42  67  93 135 172 217 272 330 390
#     4  10  24  43  69  98 132 178 218 276 335 395
#     4  11  24  43  69  97 139 171 223 273 337 393
#     4  12  25  43  69  96 138 177 225 275 337 395
#     4  10  24  42  70  96 136 172 230 274 328 396
#     4  11  25  41  68 103 128 180 227 274 327 401
#
# _framework density 22.620759
#
# number of rings (size 3 to 8) (size 9 to 14) (size 15 to 20)
#    0.000    1.455    1.818    1.636   12.727    1.455 
#    0.000    0.909    0.000    0.000    0.000    0.000 
#    0.000    0.000    0.000    0.000    0.000    0.000 
#
# Total GULP energy -122921.711946 kJ/mol
# GULP energy per Si atom -5587.350543 kJ/mol
# Density = 2.256927 g / cm^3
# Si number density = 22.620759 Si / 1000 Ang^3
#
#
#
# Elastic Constant Matrix: (Units=GPa)
#
#
# Indices 1 2 3 4 5 6 
#
# 1 69.3766 2.0995 4.0350 0.0000 23.3891 0.0000
# 2 2.0995 101.4342 4.7325 0.0000 -0.4870 0.0000
# 3 4.0350 4.7325 38.2420 0.0000 -4.9622 0.0000
# 4 0.0000 0.0000 0.0000 23.4432 0.0000 -0.2450
# 5 23.3891 -0.4870 -4.9622 0.0000 35.2985 0.0000
# 6 0.0000 0.0000 0.0000 -0.2450 0.0000 26.5000
#
#
#
# Elastic Compliance Matrix: (Units=1/GPa)
#
#
# Indices 1 2 3 4 5 6 
#
# 1 0.019074 -0.000286 -0.003685 0.000000 -0.013160 0.000000
# 2 -0.000286 0.009920 -0.001177 0.000000 0.000161 0.000000
# 3 -0.003685 -0.001177 0.027500 0.000000 0.006291 0.000000
# 4 0.000000 0.000000 0.000000 0.042660 0.000000 0.000394
# 5 -0.013160 0.000161 0.006291 0.000000 0.037937 0.000000
# 6 0.000000 0.000000 0.000000 0.000394 0.000000 0.037739
#
#
# Mechanical properties :
#
#
# Convention : Reuss Voigt Hill
#
# Bulk Modulus (GPa) = 21.64542 25.64298 23.64420
# Shear Modulus (GPa) = 24.93453 30.26073 27.59763
#
# Velocity S-wave (km/s) = 3.32367 3.66148 3.49666
# Velocity P-wave (km/s) = 4.93139 5.40703 5.17468
#
# Compressibility (1/GPa) = 0.04619915
#
# Stress axis : x y z
#
# Youngs Moduli (GPa) = 52.42777 100.80442 36.36365
#
# Poissons Ratio (x) = 0.02884 0.13399
# Poissons Ratio (y) = 0.01500 0.04278
# Poissons Ratio (z) = 0.19319 0.11860
#
# Static dielectric constant tensor:
#      x y z
#    x 1.841330 0.000000 0.019120 
#    y 0.000000 1.831330 0.000000 
#    z 0.019120 0.000000 1.876090 
# 
# From -- ./inp_files/225103.got.cif
#   From: 2010.05.17/outbox.cif.g08.bks.cpg/sg15_113_cif.got.tgz:225103.got - 2010.06.03 18:47:42.
