data_PCOD9297367
_publ_section_title
;
Structure prediction by ZEFSAII (Michael W. Deem and Ramdas Pophale) SiO2 
 PCOD9297367
Probable space group: C 2/C
;
_chemical_formula_sum "Si O2"
_cell_formula_units_Z 44
_cell_length_a 10.691798
_cell_length_b 18.085820
_cell_length_c 11.987727
_cell_angle_alpha 90.000000
_cell_angle_beta 127.836121
_cell_angle_gamma 90.000000
_cell_volume 1830.735400
_symmetry_space_group_name_H-M "C 2/C"
_symmetry_group_IT_number 15
_symmetry_cell_setting 'monoclinic'
loop_
_space_group_symop_operation_xyz
x,y,z
-x,y,1/2-z
-x,-y,-z
x,-y,1/2+z
1/2+x,1/2+y,z
1/2-x,1/2+y,1/2-z
1/2-x,1/2-y,-z
1/2+x,1/2-y,1/2+z
loop_
_atom_site_type_symbol
_atom_site_label
_atom_site_fract_x
_atom_site_fract_y
_atom_site_fract_z
Si Si1 0.753837 0.822216 0.425786
Si Si2 0.700802 0.763262 0.148588
Si Si3 0.500000 0.356183 0.250000
Si Si4 0.484632 0.114356 0.537087
Si Si5 0.422329 0.605235 0.466835
Si Si6 0.638612 0.015517 0.231360
O O1 0.750000 0.750000 0.500000
O O2 0.705970 0.786966 0.281112
O O3 0.630769 0.874813 0.421595
O O4 0.917812 0.867539 0.507693
O O5 0.850911 0.802239 0.178443
O O6 0.545069 0.807446 0.023364
O O7 0.688020 0.677824 0.113479
O O8 0.529763 0.402063 0.377947
O O9 0.404645 0.070966 0.392842
O O10 0.626736 0.064349 0.664981
O O11 0.312541 0.537106 0.370115
O O12 0.500000 0.022072 0.250000
#
# Coordination Sequence:
#
# PCOD9297367 Si02
#       6
#     8   8   4   8   8   8
#     4  11  22  40  67 103 134 175 232 288 348 406
#     4  11  22  39  65  95 138 180 225 288 345 406
#     4  10  24  40  60 106 138 182 230 288 344 414
#     4  11  24  44  68 100 140 181 231 285 347 416
#     4  11  24  40  69 101 140 181 233 288 350 418
#     4  11  25  44  68  98 138 188 229 277 347 426
#
# _framework density 24.034057000000001
#
# number of rings (size 3 to 8) (size 9 to 14) (size 15 to 20)
#    0.000    1.091    1.818    4.364    3.818    2.182 
#    0.000   11.818    0.000    0.000    0.000    0.000 
#    0.000    0.000    0.000    0.000    0.000    0.000 
#
# Total GULP energy -123166.560884 kJ/mol
# GULP energy per Si atom -5598.480040 kJ/mol
# Density = 2.397935 g / cm^3
# Si number density = 24.034057 Si / 1000 Ang^3
#
#
#
# Elastic Constant Matrix: (Units=GPa)
#
#
# Indices 1 2 3 4 5 6 
#
# 1 105.6445 19.0577 44.8571 0.0000 -0.4815 0.0000
# 2 19.0577 91.8199 41.2187 0.0000 3.3953 0.0000
# 3 44.8571 41.2187 101.6857 0.0000 5.7328 0.0000
# 4 0.0000 0.0000 0.0000 43.4970 0.0000 10.4594
# 5 -0.4815 3.3953 5.7328 0.0000 33.5316 0.0000
# 6 0.0000 0.0000 0.0000 10.4594 0.0000 31.6066
#
#
#
# Elastic Compliance Matrix: (Units=1/GPa)
#
#
# Indices 1 2 3 4 5 6 
#
# 1 0.011686 -0.000151 -0.005154 0.000000 0.001064 0.000000
# 2 -0.000151 0.013322 -0.005308 0.000000 -0.000444 0.000000
# 3 -0.005154 -0.005308 0.014372 0.000000 -0.001994 0.000000
# 4 0.000000 0.000000 0.000000 0.024978 0.000000 -0.008266
# 5 0.001064 -0.000444 -0.001994 0.000000 0.030224 0.000000
# 6 0.000000 0.000000 0.000000 -0.008266 0.000000 0.034374
#
#
# Mechanical properties :
#
#
# Convention : Reuss Voigt Hill
#
# Bulk Modulus (GPa) = 55.08751 56.60191 55.84471
# Shear Modulus (GPa) = 32.00351 34.66150 33.33250
#
# Velocity S-wave (km/s) = 3.65305 3.80173 3.72813
# Velocity P-wave (km/s) = 6.38463 6.54772 6.46669
#
# Compressibility (1/GPa) = 0.01815294
#
# Stress axis : x y z
#
# Youngs Moduli (GPa) = 85.57102 75.06620 69.58039
#
# Poissons Ratio (x) = 0.01136 0.35861
# Poissons Ratio (y) = 0.01295 0.36935
# Poissons Ratio (z) = 0.44102 0.39847
#
# Static dielectric constant tensor:
#      x y z
#    x 1.922030 0.000000 0.015640 
#    y 0.000000 1.904000 0.000000 
#    z 0.015640 0.000000 1.947650 
# 
# From -- ./inp_files/89202.got.cif
#   From: 2010.05.17/outbox.cif.g08.bks.cpg/sg15_45_cif.got.tgz:89202.got - 2010.06.03 18:47:42.
