data_PCOD9297080
_publ_section_title
;
Structure prediction by ZEFSAII (Michael W. Deem and Ramdas Pophale) SiO2 
 PCOD9297080
Probable space group: C 2/C
;
_chemical_formula_sum "Si O2"
_cell_formula_units_Z 40
_cell_length_a 11.670695
_cell_length_b 28.329835
_cell_length_c 8.720588
_cell_angle_alpha 90.000000
_cell_angle_beta 141.285819
_cell_angle_gamma 90.000000
_cell_volume 1803.305339
_symmetry_space_group_name_H-M "C 2/C"
_symmetry_group_IT_number 15
_symmetry_cell_setting 'monoclinic'
loop_
_space_group_symop_operation_xyz
x,y,z
-x,y,1/2-z
-x,-y,-z
x,-y,1/2+z
1/2+x,1/2+y,z
1/2-x,1/2+y,1/2-z
1/2-x,1/2-y,-z
1/2+x,1/2-y,1/2+z
loop_
_atom_site_type_symbol
_atom_site_label
_atom_site_fract_x
_atom_site_fract_y
_atom_site_fract_z
Si Si1 0.846433 0.435014 0.301443
Si Si2 0.590189 0.363193 0.180279
Si Si3 0.731430 0.694351 0.300903
Si Si4 0.000000 0.508566 0.250000
Si Si5 0.411349 0.213436 0.003517
Si Si6 0.000000 0.641831 0.750000
O O1 0.665619 0.408271 0.168040
O O2 0.926630 0.459482 0.536217
O O3 0.847082 0.474558 0.168619
O O4 0.975186 0.394139 0.365240
O O5 0.500000 0.374851 0.250000
O O6 0.755412 0.325058 0.375569
O O7 0.434678 0.338361 0.918308
O O8 0.820638 0.675121 0.550748
O O9 0.909870 0.689749 0.380852
O O10 0.662656 0.747048 0.191376
O O11 0.500000 0.236761 0.250000
#
# Coordination Sequence:
#
# PCOD9297080 Si02
#       6
#     8   8   8   4   8   4
#     4  10  23  47  76 110 138 184 231 291 380 436
#     4  12  25  41  74 108 142 194 246 300 346 429
#     4  12  25  42  66 102 151 196 249 295 343 408
#     4   9  22  48  86 102 144 180 222 308 380 445
#     4  12  23  43  66 105 148 199 253 295 347 408
#     4  11  26  44  74 106 146 198 236 302 354 425
#
# _framework density 22.181491999999999
#
# number of rings (size 3 to 8) (size 9 to 14) (size 15 to 20)
#    0.000    0.800    6.000    1.200    4.200    1.600 
#    0.000    1.000    0.000    0.000    0.000    0.000 
#    0.000    0.000    0.000    0.000    0.000    0.000 
#
# Total GULP energy -111666.994476 kJ/mol
# GULP energy per Si atom -5583.349724 kJ/mol
# Density = 2.213101 g / cm^3
# Si number density = 22.181492 Si / 1000 Ang^3
#
#
#
# Elastic Constant Matrix: (Units=GPa)
#
#
# Indices 1 2 3 4 5 6 
#
# 1 129.5257 83.5568 45.0350 0.0000 10.4768 0.0000
# 2 83.5568 126.4256 64.3297 0.0000 -11.0564 0.0000
# 3 45.0350 64.3297 112.6832 0.0000 6.6439 0.0000
# 4 0.0000 0.0000 0.0000 21.8222 0.0000 -2.2196
# 5 10.4768 -11.0564 6.6439 0.0000 40.4452 0.0000
# 6 0.0000 0.0000 0.0000 -2.2196 0.0000 29.3066
#
#
#
# Elastic Compliance Matrix: (Units=1/GPa)
#
#
# Indices 1 2 3 4 5 6 
#
# 1 0.015112 -0.010903 0.000597 0.000000 -0.006993 0.000000
# 2 -0.010903 0.019744 -0.007471 0.000000 0.009449 0.000000
# 3 0.000597 -0.007471 0.013158 0.000000 -0.004358 0.000000
# 4 0.000000 0.000000 0.000000 0.046181 0.000000 0.003498
# 5 -0.006993 0.009449 -0.004358 0.000000 0.029835 0.000000
# 6 0.000000 0.000000 0.000000 0.003498 0.000000 0.034387
#
#
# Mechanical properties :
#
#
# Convention : Reuss Voigt Hill
#
# Bulk Modulus (GPa) = 80.25979 83.83082 82.04531
# Shear Modulus (GPa) = 25.23662 30.02899 27.63280
#
# Velocity S-wave (km/s) = 3.37669 3.68337 3.53336
# Velocity P-wave (km/s) = 7.17387 7.48097 7.32903
#
# Compressibility (1/GPa) = 0.01245954
#
# Stress axis : x y z
#
# Youngs Moduli (GPa) = 66.17135 50.64848 76.00012
#
# Poissons Ratio (x) = 0.55224 -0.04539
# Poissons Ratio (y) = 0.72150 0.56780
# Poissons Ratio (z) = -0.03952 0.37840
#
# Static dielectric constant tensor:
#      x y z
#    x 1.910130 0.000000 -0.120640 
#    y 0.000000 1.834510 0.000000 
#    z -0.120640 0.000000 1.901420 
# 
# From -- ./inp_files/35486.got.cif
#   From: 2010.05.17/outbox.cif.g08.bks.cpg/sg15_18_cif.got.tgz:35486.got - 2010.06.03 18:47:42.
