data_PCOD9297561
_publ_section_title
;
Structure prediction by ZEFSAII (Michael W. Deem and Ramdas Pophale) SiO2 
 PCOD9297561
Probable space group: C 2/C
;
_chemical_formula_sum "Si O2"
_cell_formula_units_Z 48
_cell_length_a 21.815304
_cell_length_b 11.116154
_cell_length_c 9.596060
_cell_angle_alpha 90.000000
_cell_angle_beta 69.372136
_cell_angle_gamma 90.000000
_cell_volume 2177.874275
_symmetry_space_group_name_H-M "C 2/C"
_symmetry_group_IT_number 15
_symmetry_cell_setting 'monoclinic'
loop_
_space_group_symop_operation_xyz
x,y,z
-x,y,1/2-z
-x,-y,-z
x,-y,1/2+z
1/2+x,1/2+y,z
1/2-x,1/2+y,1/2-z
1/2-x,1/2-y,-z
1/2+x,1/2-y,1/2+z
loop_
_atom_site_type_symbol
_atom_site_label
_atom_site_fract_x
_atom_site_fract_y
_atom_site_fract_z
Si Si1 0.679906 0.241723 0.982204
Si Si2 0.877393 0.654903 0.075332
Si Si3 0.750924 0.804270 0.152813
Si Si4 0.839239 0.504111 0.850969
Si Si5 0.021034 0.826359 0.584744
Si Si6 0.061501 0.083190 0.594288
O O1 0.695703 0.242817 0.804508
O O2 0.750000 0.250000 0.000000
O O3 0.658841 0.109761 0.048392
O O4 0.626663 0.340670 0.070335
O O5 0.819484 0.751413 0.154478
O O6 0.873258 0.544954 0.185284
O O7 0.869114 0.608893 0.922999
O O8 0.944209 0.725863 0.032959
O O9 0.731865 0.944592 0.143621
O O10 0.750000 0.750000 0.000000
O O11 0.000000 0.777031 0.750000
O O12 0.962391 0.878669 0.540418
O O13 0.069117 0.938896 0.581020
O O14 0.000000 0.103482 0.750000
#
# Coordination Sequence:
#
# PCOD9297561 Si02
#       6
#     8   8   8   8   8   8
#     4  12  24  42  73 102 137 184 235 290 348 417
#     4  11  23  42  68  95 138 179 229 287 343 415
#     4  10  24  41  64  96 139 183 222 287 338 413
#     4  11  23  42  62 101 137 172 230 280 356 412
#     4  10  24  45  71  98 133 184 236 280 348 415
#     4  10  24  47  69 102 140 176 233 290 345 421
#
# _framework density 22.039838
#
# number of rings (size 3 to 8) (size 9 to 14) (size 15 to 20)
#    0.000    1.333    3.333    1.000    7.000    0.000 
#    0.000    4.167    0.000    0.000    0.000    0.000 
#    0.000    0.000    0.000    0.000    0.000    0.000 
#
# Total GULP energy -133812.717390 kJ/mol
# GULP energy per Si atom -5575.529891 kJ/mol
# Density = 2.198967 g / cm^3
# Si number density = 22.039838 Si / 1000 Ang^3
#
#
#
# Elastic Constant Matrix: (Units=GPa)
#
#
# Indices 1 2 3 4 5 6 
#
# 1 45.0178 28.4518 22.9768 0.0000 -0.3702 0.0000
# 2 28.4518 88.5859 28.3810 0.0000 -15.7707 0.0000
# 3 22.9768 28.3810 132.8492 0.0000 14.5559 0.0000
# 4 0.0000 0.0000 0.0000 46.0831 0.0000 -2.5592
# 5 -0.3702 -15.7707 14.5559 0.0000 28.0882 0.0000
# 6 0.0000 0.0000 0.0000 -2.5592 0.0000 30.4132
#
#
#
# Elastic Compliance Matrix: (Units=1/GPa)
#
#
# Indices 1 2 3 4 5 6 
#
# 1 0.029372 -0.009137 -0.002765 0.000000 -0.003310 0.000000
# 2 -0.009137 0.017321 -0.003363 0.000000 0.011348 0.000000
# 3 -0.002765 -0.003363 0.009473 0.000000 -0.006834 0.000000
# 4 0.000000 0.000000 0.000000 0.021802 0.000000 0.001835
# 5 -0.003310 0.011348 -0.006834 0.000000 0.045472 0.000000
# 6 0.000000 0.000000 0.000000 0.001835 0.000000 0.033035
#
#
# Mechanical properties :
#
#
# Convention : Reuss Voigt Hill
#
# Bulk Modulus (GPa) = 39.00992 47.34134 43.17563
# Shear Modulus (GPa) = 25.56881 33.35979 29.46430
#
# Velocity S-wave (km/s) = 3.40975 3.89474 3.66028
# Velocity P-wave (km/s) = 5.76541 6.46157 6.12339
#
# Compressibility (1/GPa) = 0.02563451
#
# Stress axis : x y z
#
# Youngs Moduli (GPa) = 34.04558 57.73391 105.56401
#
# Poissons Ratio (x) = 0.52752 0.29193
# Poissons Ratio (y) = 0.31108 0.35505
# Poissons Ratio (z) = 0.09415 0.19418
#
# Static dielectric constant tensor:
#      x y z
#    x 1.870920 0.000000 -0.003460 
#    y 0.000000 1.872260 0.000000 
#    z -0.003460 0.000000 1.841140 
# 
# From -- ./inp_files/110881.got.cif
#   From: 2010.05.17/outbox.cif.g08.bks.cpg/sg15_56_cif.got.tgz:110881.got - 2010.06.03 18:47:42.
