data_PCOD9297190
_publ_section_title
;
Structure prediction by ZEFSAII (Michael W. Deem and Ramdas Pophale) SiO2 
 PCOD9297190
Probable space group: C 2/C
;
_chemical_formula_sum "Si O2"
_cell_formula_units_Z 32
_cell_length_a 7.882467
_cell_length_b 28.682753
_cell_length_c 5.227908
_cell_angle_alpha 90.000000
_cell_angle_beta 88.592514
_cell_angle_gamma 90.000000
_cell_volume 1181.625567
_symmetry_space_group_name_H-M "C 2/C"
_symmetry_group_IT_number 15
_symmetry_cell_setting 'monoclinic'
loop_
_space_group_symop_operation_xyz
x,y,z
-x,y,1/2-z
-x,-y,-z
x,-y,1/2+z
1/2+x,1/2+y,z
1/2-x,1/2+y,1/2-z
1/2-x,1/2-y,-z
1/2+x,1/2-y,1/2+z
loop_
_atom_site_type_symbol
_atom_site_label
_atom_site_fract_x
_atom_site_fract_y
_atom_site_fract_z
Si Si1 0.500000 0.465608 0.250000
Si Si2 0.787336 0.811134 0.876510
Si Si3 0.500000 0.030313 0.250000
Si Si4 0.000000 0.348109 0.250000
Si Si5 0.000000 0.754549 0.250000
Si Si6 0.251022 0.402500 0.573319
O O1 0.500000 0.500000 0.500000
O O2 0.356986 0.428140 0.349146
O O3 0.054363 0.786455 0.488661
O O4 0.665592 0.778223 0.707862
O O5 0.823625 0.859506 0.732605
O O6 0.653808 0.820644 0.114258
O O7 0.323916 0.058310 0.241464
O O8 0.500000 0.000000 0.500000
O O9 0.916505 0.380661 0.043760
#
# Coordination Sequence:
#
# PCOD9297190 Si02
#       6
#     4   8   4   4   4   8
#     4  12  32  57  84 127 179 227 293 374 447 542
#     4  11  24  49  83 128 171 237 286 370 428 530
#     4  12  24  42  84 124 161 219 288 368 435 529
#     4  12  23  46  82 120 160 234 286 348 438 521
#     4  10  23  51  82 129 178 222 307 354 436 510
#     4  12  26  51  81 123 171 224 291 357 452 524
#
# _framework density 27.081336
#
# number of rings (size 3 to 8) (size 9 to 14) (size 15 to 20)
#    0.000    0.500    5.000    2.250    3.500    2.000 
#    0.000    0.000    0.000    1.500    0.000    0.000 
#    0.000    0.000    0.000    0.000    0.000    0.000 
#
# Total GULP energy -89647.848287 kJ/mol
# GULP energy per Si atom -5602.990518 kJ/mol
# Density = 2.701970 g / cm^3
# Si number density = 27.081336 Si / 1000 Ang^3
#
#
#
# Elastic Constant Matrix: (Units=GPa)
#
#
# Indices 1 2 3 4 5 6 
#
# 1 161.0998 82.2187 70.0036 0.0000 13.8238 0.0000
# 2 82.2187 182.9959 98.2732 0.0000 8.0789 0.0000
# 3 70.0036 98.2732 190.7333 0.0000 -0.0440 0.0000
# 4 0.0000 0.0000 0.0000 71.1888 0.0000 5.3357
# 5 13.8238 8.0789 -0.0440 0.0000 47.6151 0.0000
# 6 0.0000 0.0000 0.0000 5.3357 0.0000 -4.7788
#
#
#
# Elastic Compliance Matrix: (Units=1/GPa)
#
#
# Indices 1 2 3 4 5 6 
#
# 1 0.008566 -0.002864 -0.001669 0.000000 -0.002003 0.000000
# 2 -0.002864 0.008592 -0.003376 0.000000 -0.000629 0.000000
# 3 -0.001669 -0.003376 0.007595 0.000000 0.001064 0.000000
# 4 0.000000 0.000000 0.000000 0.012962 0.000000 0.014473
# 5 -0.002003 -0.000629 0.001064 0.000000 0.021691 0.000000
# 6 0.000000 0.000000 0.000000 0.014473 0.000000 -0.193099
#
#
# Mechanical properties :
#
#
# Convention : Reuss Voigt Hill
#
# Bulk Modulus (GPa) = 111.91074 115.09111 113.50093
# Shear Modulus (GPa) = -43.51752 41.76058 -0.87847
#
# Velocity S-wave (km/s) = -4.01299 3.93115 -0.57016
# Velocity P-wave (km/s) = 4.46560 7.94958 6.44738
#
# Compressibility (1/GPa) = 0.00893569
#
# Stress axis : x y z
#
# Youngs Moduli (GPa) = 116.74071 116.38472 131.66469
#
# Poissons Ratio (x) = 0.33334 0.21971
# Poissons Ratio (y) = 0.33436 0.44450
# Poissons Ratio (z) = 0.19480 0.39291
#
# Static dielectric constant tensor:
#      x y z
#    x 2.235370 0.000000 0.023210 
#    y 0.000000 2.224660 0.000000 
#    z 0.023210 0.000000 2.280980 
# 
# From -- ./inp_files/2619.got.cif
#   From: 2010.05.17/outbox.cif.g08.bks.cpg/sg15_2_cif.got.tgz:2619.got - 2010.06.03 18:47:42.
