data_PCOD9297894
_publ_section_title
;
Structure prediction by ZEFSAII (Michael W. Deem and Ramdas Pophale) SiO2 
 PCOD9297894
Probable space group: C 2/C
;
_chemical_formula_sum "Si O2"
_cell_formula_units_Z 44
_cell_length_a 5.104075
_cell_length_b 19.907571
_cell_length_c 23.142587
_cell_angle_alpha 90.000000
_cell_angle_beta 58.665461
_cell_angle_gamma 90.000000
_cell_volume 2008.533512
_symmetry_space_group_name_H-M "C 2/C"
_symmetry_group_IT_number 15
_symmetry_cell_setting 'monoclinic'
loop_
_space_group_symop_operation_xyz
x,y,z
-x,y,1/2-z
-x,-y,-z
x,-y,1/2+z
1/2+x,1/2+y,z
1/2-x,1/2+y,1/2-z
1/2-x,1/2-y,-z
1/2+x,1/2-y,1/2+z
loop_
_atom_site_type_symbol
_atom_site_label
_atom_site_fract_x
_atom_site_fract_y
_atom_site_fract_z
Si Si1 0.309768 0.740304 0.609533
Si Si2 0.820207 0.022954 0.079286
Si Si3 0.128348 0.341823 0.425753
Si Si4 0.000000 0.321887 0.250000
Si Si5 0.228418 0.430602 0.314505
Si Si6 0.828418 0.392155 0.573193
O O1 0.657350 0.713414 0.568712
O O2 0.246381 0.817147 0.601683
O O3 0.115565 0.695213 0.587138
O O4 0.211027 0.724788 0.686381
O O5 0.594894 0.081627 0.083762
O O6 0.058582 0.053495 0.097936
O O7 0.586969 0.968978 0.133956
O O8 0.000000 0.000000 0.000000
O O9 0.317384 0.393891 0.364294
O O10 0.961324 0.384388 0.493576
O O11 0.160970 0.370931 0.277110
O O12 0.500000 0.470289 0.250000
#
# Coordination Sequence:
#
# PCOD9297894 Si02
#       6
#     8   8   8   4   8   8
#     4  11  23  42  68 102 134 179 225 287 354 409
#     4  12  27  44  70 100 142 187 230 284 340 422
#     4  11  22  40  72 100 133 175 228 288 345 411
#     4  10  24  42  70  94 136 172 236 288 344 412
#     4  11  24  43  71  98 136 183 243 279 349 408
#     4  12  25  44  67 104 142 179 226 287 354 408
#
# _framework density 21.906528999999999
#
# number of rings (size 3 to 8) (size 9 to 14) (size 15 to 20)
#    0.000    0.727    3.636    3.818    5.091    0.000 
#    1.636    0.000    0.000    0.000    0.000    0.000 
#    0.000    0.000    0.000    0.000    0.000    0.000 
#
# Total GULP energy -123000.176803 kJ/mol
# GULP energy per Si atom -5590.917127 kJ/mol
# Density = 2.185667 g / cm^3
# Si number density = 21.906529 Si / 1000 Ang^3
#
#
#
# Elastic Constant Matrix: (Units=GPa)
#
#
# Indices 1 2 3 4 5 6 
#
# 1 64.9937 6.1987 6.6909 0.0000 -0.1676 0.0000
# 2 6.1987 64.7726 37.0222 0.0000 -0.8018 0.0000
# 3 6.6909 37.0222 135.3895 0.0000 -2.8560 0.0000
# 4 0.0000 0.0000 0.0000 1.2264 0.0000 -3.0533
# 5 -0.1676 -0.8018 -2.8560 0.0000 13.2128 0.0000
# 6 0.0000 0.0000 0.0000 -3.0533 0.0000 22.8533
#
#
#
# Elastic Compliance Matrix: (Units=1/GPa)
#
#
# Indices 1 2 3 4 5 6 
#
# 1 0.015549 -0.001243 -0.000428 0.000000 0.000029 0.000000
# 2 -0.001243 0.018398 -0.004969 0.000000 0.000027 0.000000
# 3 -0.000428 -0.004969 0.008800 0.000000 0.001595 0.000000
# 4 0.000000 0.000000 0.000000 1.221863 0.000000 0.163245
# 5 0.000029 0.000027 0.001595 0.000000 0.076031 0.000000
# 6 0.000000 0.000000 0.000000 0.163245 0.000000 0.065568
#
#
# Mechanical properties :
#
#
# Convention : Reuss Voigt Hill
#
# Bulk Modulus (GPa) = 33.93669 40.55329 37.24499
# Shear Modulus (GPa) = 3.49819 21.80808 12.65314
#
# Velocity S-wave (km/s) = 1.26504 3.15859 2.40593
# Velocity P-wave (km/s) = 4.20226 5.64397 4.97561
#
# Compressibility (1/GPa) = 0.02946663
#
# Stress axis : x y z
#
# Youngs Moduli (GPa) = 64.31372 54.35368 113.64089
#
# Poissons Ratio (x) = 0.06757 0.04862
# Poissons Ratio (y) = 0.07995 0.56468
# Poissons Ratio (z) = 0.02752 0.27008
#
# Static dielectric constant tensor:
#      x y z
#    x 1.813400 0.000000 -0.065190 
#    y 0.000000 1.791660 0.000000 
#    z -0.065190 0.000000 1.878990 
# 
# From -- ./inp_files/285965.got.cif
#   From: 2010.05.17/outbox.cif.g08.bks.cpg/sg15_143_cif.got.tgz:285965.got - 2010.06.03 18:47:42.
