data_PCOD9297495
_publ_section_title
;
Structure prediction by ZEFSAII (Michael W. Deem and Ramdas Pophale) SiO2 
 PCOD9297495
Probable space group: C 2/C
;
_chemical_formula_sum "Si O2"
_cell_formula_units_Z 44
_cell_length_a 16.818350
_cell_length_b 14.603759
_cell_length_c 13.808511
_cell_angle_alpha 90.000000
_cell_angle_beta 146.102549
_cell_angle_gamma 90.000000
_cell_volume 1891.480682
_symmetry_space_group_name_H-M "C 2/C"
_symmetry_group_IT_number 15
_symmetry_cell_setting 'monoclinic'
loop_
_space_group_symop_operation_xyz
x,y,z
-x,y,1/2-z
-x,-y,-z
x,-y,1/2+z
1/2+x,1/2+y,z
1/2-x,1/2+y,1/2-z
1/2-x,1/2-y,-z
1/2+x,1/2-y,1/2+z
loop_
_atom_site_type_symbol
_atom_site_label
_atom_site_fract_x
_atom_site_fract_y
_atom_site_fract_z
Si Si1 0.272520 0.539287 0.023094
Si Si2 0.500000 0.720034 0.750000
Si Si3 0.768689 0.648287 0.112813
Si Si4 0.856984 0.272695 0.904799
Si Si5 0.902780 0.298536 0.230175
Si Si6 0.499466 0.425553 0.915312
O O1 0.203546 0.442203 0.923855
O O2 0.159533 0.618423 0.892164
O O3 0.385122 0.551842 0.050124
O O4 0.352299 0.556425 0.205746
O O5 0.399760 0.663819 0.576614
O O6 0.618405 0.779209 0.815642
O O7 0.442349 0.673275 0.983602
O O8 0.793695 0.669977 0.251354
O O9 0.986955 0.331528 0.078009
O O10 0.727350 0.250650 0.847394
O O11 0.000000 0.242197 0.250000
O O12 0.500000 0.500000 0.000000
#
# Coordination Sequence:
#
# PCOD9297495 Si02
#       6
#     8   4   8   8   8   8
#     4  10  25  44  69 103 143 187 240 297 357 424
#     4  10  24  40  70  96 144 184 228 288 362 424
#     4  11  24  45  69 104 141 187 238 295 359 430
#     4  11  26  43  72 105 141 186 247 293 364 431
#     4  11  26  45  70 103 143 191 239 302 361 436
#     4  10  24  43  71 102 140 194 239 286 360 444
#
# _framework density 23.262198999999999
#
# number of rings (size 3 to 8) (size 9 to 14) (size 15 to 20)
#    0.000    1.455    0.000    2.727   19.091    0.727 
#    0.000    0.000    0.000    0.000    0.000    0.000 
#    0.000    0.000    0.000    0.000    0.000    0.000 
#
# Total GULP energy -122629.566414 kJ/mol
# GULP energy per Si atom -5574.071201 kJ/mol
# Density = 2.320925 g / cm^3
# Si number density = 23.262199 Si / 1000 Ang^3
#
#
#
# Elastic Constant Matrix: (Units=GPa)
#
#
# Indices 1 2 3 4 5 6 
#
# 1 88.9052 32.5981 53.6666 0.0000 -0.2817 0.0000
# 2 32.5981 106.9740 74.8805 0.0000 -18.3942 0.0000
# 3 53.6666 74.8805 250.6809 0.0000 -12.9533 0.0000
# 4 0.0000 0.0000 0.0000 29.6908 0.0000 -3.6298
# 5 -0.2817 -18.3942 -12.9533 0.0000 39.5248 0.0000
# 6 0.0000 0.0000 0.0000 -3.6298 0.0000 29.5542
#
#
#
# Elastic Compliance Matrix: (Units=1/GPa)
#
#
# Indices 1 2 3 4 5 6 
#
# 1 0.013626 -0.003011 -0.002121 0.000000 -0.001999 0.000000
# 2 -0.003011 0.013296 -0.003060 0.000000 0.005163 0.000000
# 3 -0.002121 -0.003060 0.005374 0.000000 0.000322 0.000000
# 4 0.000000 0.000000 0.000000 0.034194 0.000000 0.004200
# 5 -0.001999 0.005163 0.000322 0.000000 0.027795 0.000000
# 6 0.000000 0.000000 0.000000 0.004200 0.000000 0.034352
#
#
# Mechanical properties :
#
#
# Convention : Reuss Voigt Hill
#
# Bulk Modulus (GPa) = 62.85053 85.42783 74.13918
# Shear Modulus (GPa) = 33.26144 38.78160 36.02152
#
# Velocity S-wave (km/s) = 3.78544 4.08751 3.93937
# Velocity P-wave (km/s) = 6.79581 7.68639 7.25478
#
# Compressibility (1/GPa) = 0.01591076
#
# Stress axis : x y z
#
# Youngs Moduli (GPa) = 73.38897 75.21333 186.08600
#
# Poissons Ratio (x) = 0.22650 0.39466
# Poissons Ratio (y) = 0.22101 0.56942
# Poissons Ratio (z) = 0.15565 0.23015
#
# Static dielectric constant tensor:
#      x y z
#    x 1.950510 0.000000 -0.056480 
#    y 0.000000 1.982780 0.000000 
#    z -0.056480 0.000000 1.938600 
# 
# From -- ./inp_files/100539.got.cif
#   From: 2010.05.17/outbox.cif.g08.bks.cpg/sg15_51_cif.got.tgz:100539.got - 2010.06.03 18:47:42.
