data_PCOD9297784
_publ_section_title
;
Structure prediction by ZEFSAII (Michael W. Deem and Ramdas Pophale) SiO2 
 PCOD9297784
Probable space group: C 2/C
;
_chemical_formula_sum "Si O2"
_cell_formula_units_Z 48
_cell_length_a 16.604780
_cell_length_b 10.790905
_cell_length_c 13.031899
_cell_angle_alpha 90.000000
_cell_angle_beta 70.624775
_cell_angle_gamma 90.000000
_cell_volume 2202.820002
_symmetry_space_group_name_H-M "C 2/C"
_symmetry_group_IT_number 15
_symmetry_cell_setting 'monoclinic'
loop_
_space_group_symop_operation_xyz
x,y,z
-x,y,1/2-z
-x,-y,-z
x,-y,1/2+z
1/2+x,1/2+y,z
1/2-x,1/2+y,1/2-z
1/2-x,1/2-y,-z
1/2+x,1/2-y,1/2+z
loop_
_atom_site_type_symbol
_atom_site_label
_atom_site_fract_x
_atom_site_fract_y
_atom_site_fract_z
Si Si1 0.948642 0.257390 0.670368
Si Si2 0.348980 0.534785 0.603252
Si Si3 0.540715 0.868759 0.450219
Si Si4 0.559800 0.335159 0.804162
Si Si5 0.817538 0.518917 0.199952
Si Si6 0.700187 0.646295 0.083775
O O1 0.889395 0.151285 0.646775
O O2 0.887146 0.379062 0.708333
O O3 0.000000 0.224044 0.750000
O O4 0.022844 0.290058 0.558035
O O5 0.404394 0.417962 0.618528
O O6 0.252584 0.512424 0.684780
O O7 0.346703 0.563725 0.483299
O O8 0.507376 0.781009 0.372355
O O9 0.500000 0.000000 0.500000
O O10 0.633026 0.901252 0.367106
O O11 0.500000 0.408385 0.750000
O O12 0.638121 0.300025 0.697172
O O13 0.768208 0.571866 0.122256
O O14 0.750000 0.750000 0.000000
#
# Coordination Sequence:
#
# PCOD9297784 Si02
#       6
#     8   8   8   8   8   8
#     4  11  24  43  67  98 141 180 233 297 356 415
#     4  11  24  43  70 103 141 181 240 292 351 424
#     4  10  24  43  64 100 135 177 236 288 348 417
#     4  11  25  42  70 102 139 188 231 287 360 426
#     4  10  24  42  67 102 134 187 235 289 355 422
#     4  11  22  42  72  97 137 183 234 290 346 427
#
# _framework density 21.79025
#
# number of rings (size 3 to 8) (size 9 to 14) (size 15 to 20)
#    0.000    1.333    1.667    2.500    7.000    8.000 
#    0.000    1.667    0.000    0.000    0.000    0.000 
#    0.000    0.000    0.000    0.000    0.000    0.000 
#
# Total GULP energy -133890.759004 kJ/mol
# GULP energy per Si atom -5578.781625 kJ/mol
# Density = 2.174065 g / cm^3
# Si number density = 21.790250 Si / 1000 Ang^3
#
#
#
# Elastic Constant Matrix: (Units=GPa)
#
#
# Indices 1 2 3 4 5 6 
#
# 1 64.6343 20.8101 12.7486 0.0000 19.9480 0.0000
# 2 20.8101 73.7933 49.0646 0.0000 -5.3642 0.0000
# 3 12.7486 49.0646 110.2148 0.0000 17.2714 0.0000
# 4 0.0000 0.0000 0.0000 38.4937 0.0000 -6.3590
# 5 19.9480 -5.3642 17.2714 0.0000 34.9018 0.0000
# 6 0.0000 0.0000 0.0000 -6.3590 0.0000 24.5626
#
#
#
# Elastic Compliance Matrix: (Units=1/GPa)
#
#
# Indices 1 2 3 4 5 6 
#
# 1 0.023593 -0.011333 0.005097 0.000000 -0.017749 0.000000
# 2 -0.011333 0.026876 -0.013351 0.000000 0.017215 0.000000
# 3 0.005097 -0.013351 0.016484 0.000000 -0.013122 0.000000
# 4 0.000000 0.000000 0.000000 0.027139 0.000000 0.007026
# 5 -0.017749 0.017215 -0.013122 0.000000 0.047935 0.000000
# 6 0.000000 0.000000 0.000000 0.007026 0.000000 0.042531
#
#
# Mechanical properties :
#
#
# Convention : Reuss Voigt Hill
#
# Bulk Modulus (GPa) = 35.99839 45.98766 40.99303
# Shear Modulus (GPa) = 21.46015 30.65956 26.05985
#
# Velocity S-wave (km/s) = 3.14164 3.75511 3.46199
# Velocity P-wave (km/s) = 5.45125 6.32073 5.90202
#
# Compressibility (1/GPa) = 0.02777902
#
# Stress axis : x y z
#
# Youngs Moduli (GPa) = 42.38597 37.20836 60.66666
#
# Poissons Ratio (x) = 0.42167 -0.30924
# Poissons Ratio (y) = 0.48034 0.80997
# Poissons Ratio (z) = -0.21606 0.49677
#
# Static dielectric constant tensor:
#      x y z
#    x 1.836330 0.000000 -0.035110 
#    y 0.000000 1.851130 0.000000 
#    z -0.035110 0.000000 1.748480 
# 
# From -- ./inp_files/104148.got.cif
#   From: 2010.05.17/outbox.cif.g08.bks.cpg/sg15_53_cif.got.tgz:104148.got - 2010.06.03 18:47:42.
