data_PCOD9297464
_publ_section_title
;
Structure prediction by ZEFSAII (Michael W. Deem and Ramdas Pophale) SiO2 
 PCOD9297464
Probable space group: C 2/C
;
_chemical_formula_sum "Si O2"
_cell_formula_units_Z 44
_cell_length_a 12.604964
_cell_length_b 9.729457
_cell_length_c 24.561900
_cell_angle_alpha 90.000000
_cell_angle_beta 143.029261
_cell_angle_gamma 90.000000
_cell_volume 1811.593312
_symmetry_space_group_name_H-M "C 2/C"
_symmetry_group_IT_number 15
_symmetry_cell_setting 'monoclinic'
loop_
_space_group_symop_operation_xyz
x,y,z
-x,y,1/2-z
-x,-y,-z
x,-y,1/2+z
1/2+x,1/2+y,z
1/2-x,1/2+y,1/2-z
1/2-x,1/2-y,-z
1/2+x,1/2-y,1/2+z
loop_
_atom_site_type_symbol
_atom_site_label
_atom_site_fract_x
_atom_site_fract_y
_atom_site_fract_z
Si Si1 0.423395 0.135139 0.160294
Si Si2 0.536972 0.863091 0.376879
Si Si3 0.448378 0.391686 0.024211
Si Si4 0.280881 0.768337 0.801551
Si Si5 0.697420 0.442449 0.933256
Si Si6 0.500000 0.453745 0.750000
O O1 0.500000 0.172723 0.250000
O O2 0.569122 0.169911 0.175259
O O3 0.404162 0.969823 0.145626
O O4 0.228287 0.188083 0.066289
O O5 0.331276 0.836174 0.282171
O O6 0.630998 0.716089 0.407222
O O7 0.602711 0.927166 0.461421
O O8 0.614144 0.299200 0.106035
O O9 0.400859 0.474201 0.059527
O O10 0.500000 0.500000 0.000000
O O11 0.138951 0.869531 0.769839
O O12 0.632897 0.512120 0.850727
#
# Coordination Sequence:
#
# PCOD9297464 Si02
#       6
#     8   8   8   8   8   4
#     4  11  25  44  68 101 134 180 225 276 336 400
#     4   9  21  38  67  92 130 166 229 266 327 394
#     4  11  25  42  74  97 135 177 230 276 336 401
#     4  11  25  41  66 100 138 172 224 279 337 403
#     4   9  21  41  63  99 126 171 220 279 327 394
#     4  10  24  40  68  92 138 172 228 272 330 406
#
# _framework density 24.288012999999999
#
# number of rings (size 3 to 8) (size 9 to 14) (size 15 to 20)
#    0.000    1.818    0.000    1.636   28.000    0.000 
#    1.636    3.636    0.000    0.000    0.000    0.000 
#    0.000    0.000    0.000    0.000    0.000    0.000 
#
# Total GULP energy -122906.856915 kJ/mol
# GULP energy per Si atom -5586.675314 kJ/mol
# Density = 2.423273 g / cm^3
# Si number density = 24.288013 Si / 1000 Ang^3
#
#
#
# Elastic Constant Matrix: (Units=GPa)
#
#
# Indices 1 2 3 4 5 6 
#
# 1 105.1042 6.8685 63.9278 0.0000 -6.6116 0.0000
# 2 6.8685 35.4795 17.3164 0.0000 4.0261 0.0000
# 3 63.9278 17.3164 214.9160 0.0000 -7.3482 0.0000
# 4 0.0000 0.0000 0.0000 30.7610 0.0000 -5.2300
# 5 -6.6116 4.0261 -7.3482 0.0000 56.6203 0.0000
# 6 0.0000 0.0000 0.0000 -5.2300 0.0000 4.3130
#
#
#
# Elastic Compliance Matrix: (Units=1/GPa)
#
#
# Indices 1 2 3 4 5 6 
#
# 1 0.011681 -0.000721 -0.003383 0.000000 0.000976 0.000000
# 2 -0.000721 0.029713 -0.002265 0.000000 -0.002491 0.000000
# 3 -0.003383 -0.002265 0.005860 0.000000 0.000526 0.000000
# 4 0.000000 0.000000 0.000000 0.040951 0.000000 0.049658
# 5 0.000976 -0.002491 0.000526 0.000000 0.018021 0.000000
# 6 0.000000 0.000000 0.000000 0.049658 0.000000 0.292070
#
#
# Mechanical properties :
#
#
# Convention : Reuss Voigt Hill
#
# Bulk Modulus (GPa) = 28.97217 59.08056 44.02636
# Shear Modulus (GPa) = 11.83324 36.16466 23.99895
#
# Velocity S-wave (km/s) = 2.20967 3.86293 3.14681
# Velocity P-wave (km/s) = 4.29705 6.65388 5.60084
#
# Compressibility (1/GPa) = 0.03451589
#
# Stress axis : x y z
#
# Youngs Moduli (GPa) = 85.61267 33.65540 170.65597
#
# Poissons Ratio (x) = 0.02426 0.57732
# Poissons Ratio (y) = 0.06172 0.38650
# Poissons Ratio (z) = 0.28962 0.07622
#
# Static dielectric constant tensor:
#      x y z
#    x 1.890240 0.000000 -0.002100 
#    y 0.000000 2.055390 0.000000 
#    z -0.002100 0.000000 2.063970 
# 
# From -- ./inp_files/269350.got.cif
#   From: 2010.05.17/outbox.cif.g08.bks.cpg/sg15_135_cif.got.tgz:269350.got - 2010.06.03 18:47:42.
