data_PCOD9297075
_publ_section_title
;
Structure prediction by ZEFSAII (Michael W. Deem and Ramdas Pophale) SiO2 
 PCOD9297075
Probable space group: C 2/C
;
_chemical_formula_sum "Si O2"
_cell_formula_units_Z 56
_cell_length_a 10.824990
_cell_length_b 9.964679
_cell_length_c 18.055408
_cell_angle_alpha 90.000000
_cell_angle_beta 86.505866
_cell_angle_gamma 90.000000
_cell_volume 1943.972145
_symmetry_space_group_name_H-M "C 2/C"
_symmetry_group_IT_number 15
_symmetry_cell_setting 'monoclinic'
loop_
_space_group_symop_operation_xyz
x,y,z
-x,y,1/2-z
-x,-y,-z
x,-y,1/2+z
1/2+x,1/2+y,z
1/2-x,1/2+y,1/2-z
1/2-x,1/2-y,-z
1/2+x,1/2-y,1/2+z
loop_
_atom_site_type_symbol
_atom_site_label
_atom_site_fract_x
_atom_site_fract_y
_atom_site_fract_z
Si Si1 0.856026 0.727934 0.905429
Si Si2 0.066386 0.153918 0.472775
Si Si3 0.658994 0.915191 0.834122
Si Si4 0.127894 0.014778 0.827944
Si Si5 0.000000 0.243566 0.750000
Si Si6 0.235507 0.163214 0.595618
Si Si7 0.129550 0.539566 0.124417
Si Si8 0.000000 0.207867 0.250000
O O1 0.737184 0.809232 0.880155
O O2 0.849685 0.576716 0.937567
O O3 0.951736 0.726606 0.828595
O O4 0.924346 0.809982 0.967793
O O5 0.132905 0.106476 0.544207
O O6 0.139079 0.293228 0.450746
O O7 0.094884 0.046495 0.408100
O O8 0.517406 0.942874 0.864826
O O9 0.616897 0.842284 0.758467
O O10 0.730692 0.057270 0.841842
O O11 0.036014 0.135815 0.812061
O O12 0.274140 0.040061 0.823406
O O13 0.106907 0.894115 0.771069
O O14 0.181889 0.310793 0.615480
#
# Coordination Sequence:
#
# PCOD9297075 Si02
#       8
#     8   8   8   8   4   8   8   4
#     4  11  23  47  73 106 147 193 253 306 369 444
#     4   9  20  46  78 104 151 202 248 301 381 446
#     4  12  27  46  72 115 147 194 254 299 375 451
#     4   9  20  43  71 104 140 198 240 304 377 429
#     4  11  24  45  66 106 153 187 250 318 357 447
#     4  10  23  47  75 109 154 197 243 313 374 447
#     4  11  24  45  70 109 147 188 244 305 367 446
#     4   9  22  41  70 100 139 193 240 304 369 439
#
# _framework density 28.806999000000001
#
# number of rings (size 3 to 8) (size 9 to 14) (size 15 to 20)
#    0.000    1.714    2.857    0.000    2.000    5.143 
#    2.571    1.429    0.000    0.857    0.000    0.000 
#    0.000    0.000    0.000    0.000    0.000    0.000 
#
# Total GULP energy -156265.565219 kJ/mol
# GULP energy per Si atom -5580.913044 kJ/mol
# Density = 2.874143 g / cm^3
# Si number density = 28.806999 Si / 1000 Ang^3
#
#
#
# Elastic Constant Matrix: (Units=GPa)
#
#
# Indices 1 2 3 4 5 6 
#
# 1 154.5843 78.1858 63.3329 0.0000 58.7266 0.0000
# 2 78.1858 226.1085 49.5679 0.0000 21.2195 0.0000
# 3 63.3329 49.5679 120.9401 0.0000 40.3278 0.0000
# 4 0.0000 0.0000 0.0000 41.0061 0.0000 19.2407
# 5 58.7266 21.2195 40.3278 0.0000 56.7731 0.0000
# 6 0.0000 0.0000 0.0000 19.2407 0.0000 69.8086
#
#
#
# Elastic Compliance Matrix: (Units=1/GPa)
#
#
# Indices 1 2 3 4 5 6 
#
# 1 0.012907 -0.003028 -0.001892 0.000000 -0.010876 0.000000
# 2 -0.003028 0.005582 -0.001377 0.000000 0.002024 0.000000
# 3 -0.001892 -0.001377 0.011793 0.000000 -0.005905 0.000000
# 4 0.000000 0.000000 0.000000 0.028009 0.000000 -0.007720
# 5 -0.010876 0.002024 -0.005905 0.000000 0.032302 0.000000
# 6 0.000000 0.000000 0.000000 -0.007720 0.000000 0.016453
#
#
# Mechanical properties :
#
#
# Convention : Reuss Voigt Hill
#
# Bulk Modulus (GPa) = 56.53305 98.20069 77.36687
# Shear Modulus (GPa) = 39.82984 54.22063 47.02524
#
# Velocity S-wave (km/s) = 3.72243 4.34314 4.04471
# Velocity P-wave (km/s) = 6.17597 7.70154 6.98056
#
# Compressibility (1/GPa) = 0.01768877
#
# Stress axis : x y z
#
# Youngs Moduli (GPa) = 77.47699 179.16176 84.79882
#
# Poissons Ratio (x) = 0.54246 0.16040
# Poissons Ratio (y) = 0.23458 0.11676
# Poissons Ratio (z) = 0.14655 0.24669
#
# Static dielectric constant tensor:
#      x y z
#    x 2.346570 0.000000 -0.142860 
#    y 0.000000 2.322090 0.000000 
#    z -0.142860 0.000000 2.405820 
# 
# From -- ./inp_files/272881.got.cif
#   From: 2010.05.17/outbox.cif.g08.bks.cpg/sg15_137_cif.got.tgz:272881.got - 2010.06.03 18:47:42.
