data_PCOD9297383
_publ_section_title
;
Structure prediction by ZEFSAII (Michael W. Deem and Ramdas Pophale) SiO2 
 PCOD9297383
Probable space group: C 2/C
;
_chemical_formula_sum "Si O2"
_cell_formula_units_Z 60
_cell_length_a 18.133878
_cell_length_b 8.710916
_cell_length_c 15.164041
_cell_angle_alpha 90.000000
_cell_angle_beta 85.982566
_cell_angle_gamma 90.000000
_cell_volume 2389.466765
_symmetry_space_group_name_H-M "C 2/C"
_symmetry_group_IT_number 15
_symmetry_cell_setting 'monoclinic'
loop_
_space_group_symop_operation_xyz
x,y,z
-x,y,1/2-z
-x,-y,-z
x,-y,1/2+z
1/2+x,1/2+y,z
1/2-x,1/2+y,1/2-z
1/2-x,1/2-y,-z
1/2+x,1/2-y,1/2+z
loop_
_atom_site_type_symbol
_atom_site_label
_atom_site_fract_x
_atom_site_fract_y
_atom_site_fract_z
Si Si1 0.397930 0.594854 0.003058
Si Si2 0.585101 0.618834 0.844133
Si Si3 0.000000 0.875719 0.750000
Si Si4 0.253162 0.677208 0.723128
Si Si5 0.995493 0.637697 0.414149
Si Si6 0.376335 0.957675 0.468813
Si Si7 0.244152 0.371335 0.616202
Si Si8 0.128519 0.837133 0.626713
O O1 0.432695 0.460501 0.060522
O O2 0.325463 0.630049 0.067617
O O3 0.447648 0.744146 0.980554
O O4 0.376210 0.505789 0.915159
O O5 0.565898 0.483256 0.779770
O O6 0.666330 0.686390 0.828163
O O7 0.528291 0.754955 0.837917
O O8 0.954066 0.796268 0.830876
O O9 0.230120 0.508271 0.689584
O O10 0.263996 0.717251 0.825279
O O11 0.191823 0.796438 0.692152
O O12 0.934287 0.518051 0.390405
O O13 0.066898 0.558423 0.454046
O O14 0.351074 0.785577 0.451458
O O15 0.309177 0.075901 0.460039
#
# Coordination Sequence:
#
# PCOD9297383 Si02
#       8
#     8   8   4   8   8   8   8   8
#     4  11  22  42  73  94 126 171 234 277 321 400
#     4  11  23  40  69  94 130 175 225 280 326 407
#     4  12  24  40  70 100 130 180 236 278 338 402
#     4  10  24  43  64  95 136 173 222 271 347 399
#     4  11  22  42  62 100 131 168 213 283 331 399
#     4  10  24  40  62  95 136 166 215 269 351 388
#     4  10  24  45  67  96 131 180 223 279 331 412
#     4  11  22  43  67  97 128 174 227 279 333 402
#
# _framework density 25.110205000000001
#
# number of rings (size 3 to 8) (size 9 to 14) (size 15 to 20)
#    0.000    1.333    2.667    2.800    3.733    3.200 
#    9.600    0.000    0.000    0.000    0.000    0.000 
#    0.000    0.000    0.000    0.000    0.000    0.000 
#
# Total GULP energy -167296.526914 kJ/mol
# GULP energy per Si atom -5576.550897 kJ/mol
# Density = 2.505305 g / cm^3
# Si number density = 25.110205 Si / 1000 Ang^3
#
#
#
# Elastic Constant Matrix: (Units=GPa)
#
#
# Indices 1 2 3 4 5 6 
#
# 1 104.2312 32.7001 31.2165 0.0000 0.5076 0.0000
# 2 32.7001 93.3101 33.0304 0.0000 8.0010 0.0000
# 3 31.2165 33.0304 64.7159 0.0000 0.9890 0.0000
# 4 0.0000 0.0000 0.0000 32.6043 0.0000 11.4424
# 5 0.5076 8.0010 0.9890 0.0000 34.9202 0.0000
# 6 0.0000 0.0000 0.0000 11.4424 0.0000 39.2687
#
#
#
# Elastic Compliance Matrix: (Units=1/GPa)
#
#
# Indices 1 2 3 4 5 6 
#
# 1 0.011707 -0.002622 -0.004317 0.000000 0.000553 0.000000
# 2 -0.002622 0.013949 -0.005809 0.000000 -0.002993 0.000000
# 3 -0.004317 -0.005809 0.020487 0.000000 0.000813 0.000000
# 4 0.000000 0.000000 0.000000 0.034165 0.000000 -0.009955
# 5 0.000553 -0.002993 0.000813 0.000000 0.029292 0.000000
# 6 0.000000 0.000000 0.000000 -0.009955 0.000000 0.028366
#
#
# Mechanical properties :
#
#
# Convention : Reuss Voigt Hill
#
# Bulk Modulus (GPa) = 48.43392 50.68348 49.55870
# Shear Modulus (GPa) = 29.35253 32.37930 30.86592
#
# Velocity S-wave (km/s) = 3.42270 3.59484 3.50982
# Velocity P-wave (km/s) = 5.91187 6.12035 6.01702
#
# Compressibility (1/GPa) = 0.02064669
#
# Stress axis : x y z
#
# Youngs Moduli (GPa) = 85.41992 71.69141 48.81145
#
# Poissons Ratio (x) = 0.18796 0.21073
# Poissons Ratio (y) = 0.22395 0.28354
# Poissons Ratio (z) = 0.36878 0.41645
#
# Static dielectric constant tensor:
#      x y z
#    x 2.006760 0.000000 0.032600 
#    y 0.000000 2.080280 0.000000 
#    z 0.032600 0.000000 2.031240 
# 
# From -- ./inp_files/209590.got.cif
#   From: 2010.05.17/outbox.cif.g08.bks.cpg/sg15_105_cif.got.tgz:209590.got - 2010.06.03 18:47:42.
