data_PCOD9297873
_publ_section_title
;
Structure prediction by ZEFSAII (Michael W. Deem and Ramdas Pophale) SiO2 
 PCOD9297873
Probable space group: C 2/C
;
_chemical_formula_sum "Si O2"
_cell_formula_units_Z 48
_cell_length_a 9.210181
_cell_length_b 16.236759
_cell_length_c 18.235380
_cell_angle_alpha 90.000000
_cell_angle_beta 49.665004
_cell_angle_gamma 90.000000
_cell_volume 2078.705377
_symmetry_space_group_name_H-M "C 2/C"
_symmetry_group_IT_number 15
_symmetry_cell_setting 'monoclinic'
loop_
_space_group_symop_operation_xyz
x,y,z
-x,y,1/2-z
-x,-y,-z
x,-y,1/2+z
1/2+x,1/2+y,z
1/2-x,1/2+y,1/2-z
1/2-x,1/2-y,-z
1/2+x,1/2-y,1/2+z
loop_
_atom_site_type_symbol
_atom_site_label
_atom_site_fract_x
_atom_site_fract_y
_atom_site_fract_z
Si Si1 0.290442 0.766871 0.282710
Si Si2 0.627870 0.972201 0.609403
Si Si3 0.338774 0.517773 0.396837
Si Si4 0.141730 0.697300 0.473656
Si Si5 0.740543 0.406303 0.776465
Si Si6 0.651260 0.893670 0.344504
O O1 0.500000 0.777384 0.250000
O O2 0.848642 0.746615 0.104980
O O3 0.307084 0.688438 0.223008
O O4 0.231554 0.846419 0.255585
O O5 0.776792 0.976133 0.494432
O O6 0.434743 0.918726 0.666826
O O7 0.716365 0.938226 0.655434
O O8 0.526547 0.062290 0.639768
O O9 0.242636 0.608609 0.428100
O O10 0.559533 0.538597 0.314689
O O11 0.252691 0.458581 0.363561
O O12 0.250000 0.750000 0.500000
O O13 0.937582 0.674320 0.572481
#
# Coordination Sequence:
#
# PCOD9297873 Si02
#       6
#     8   8   8   8   8   8
#     4  12  23  41  67  98 136 183 232 274 343 423
#     4  10  24  42  70 100 137 176 229 283 350 409
#     4  11  22  43  70 103 136 179 232 292 340 407
#     4  11  21  39  67 100 136 183 231 276 340 418
#     4  11  23  42  68  98 136 183 226 281 347 414
#     4  11  24  41  68 104 133 179 235 288 339 409
#
# _framework density 23.091294999999999
#
# number of rings (size 3 to 8) (size 9 to 14) (size 15 to 20)
#    0.000    1.000    3.333    4.500    2.333    0.000 
#    0.000    5.833    0.000    0.000    0.000    1.167 
#    0.000    0.000    0.000    0.000    0.000    0.000 
#
# Total GULP energy -134121.308241 kJ/mol
# GULP energy per Si atom -5588.387843 kJ/mol
# Density = 2.303874 g / cm^3
# Si number density = 23.091295 Si / 1000 Ang^3
#
#
#
# Elastic Constant Matrix: (Units=GPa)
#
#
# Indices 1 2 3 4 5 6 
#
# 1 112.3674 62.4328 34.9525 0.0001 24.6881 0.0000
# 2 62.4328 127.7211 49.4515 0.0000 29.2303 0.0000
# 3 34.9525 49.4515 87.5408 -0.0003 20.0201 0.0001
# 4 0.0001 0.0000 -0.0003 36.9522 0.0001 16.3482
# 5 24.6881 29.2303 20.0201 0.0001 41.9854 -0.0001
# 6 0.0000 0.0000 0.0001 16.3482 -0.0001 44.6623
#
#
#
# Elastic Compliance Matrix: (Units=1/GPa)
#
#
# Indices 1 2 3 4 5 6 
#
# 1 0.012859 -0.004891 -0.001595 0.000000 -0.003396 0.000000
# 2 -0.004891 0.012825 -0.004386 0.000000 -0.003961 0.000000
# 3 -0.001595 -0.004386 0.015292 0.000000 -0.003301 0.000000
# 4 0.000000 0.000000 0.000000 0.032291 0.000000 -0.011820
# 5 -0.003396 -0.003961 -0.003301 0.000000 0.030146 0.000000
# 6 0.000000 0.000000 0.000000 -0.011820 0.000000 0.026717
#
#
# Mechanical properties :
#
#
# Convention : Reuss Voigt Hill
#
# Bulk Modulus (GPa) = 51.99408 69.03367 60.51388
# Shear Modulus (GPa) = 31.58831 36.77281 34.18056
#
# Velocity S-wave (km/s) = 3.70263 3.99494 3.85156
# Velocity P-wave (km/s) = 6.39100 7.15823 6.78547
#
# Compressibility (1/GPa) = 0.01923296
#
# Stress axis : x y z
#
# Youngs Moduli (GPa) = 77.76589 77.97050 65.39162
#
# Poissons Ratio (x) = 0.38137 0.10428
# Poissons Ratio (y) = 0.38037 0.28681
# Poissons Ratio (z) = 0.12401 0.34199
#
# Static dielectric constant tensor:
#      x y z
#    x 1.879310 0.000000 0.013150 
#    y 0.000000 1.896440 0.000000 
#    z 0.013150 0.000000 1.905610 
# 
# From -- ./inp_files/232475.got.cif
#   From: 2010.05.17/outbox.cif.g08.bks.cpg/sg15_117_cif.got.tgz:232475.got - 2010.06.03 18:47:42.
