data_PCOD9297779
_publ_section_title
;
Structure prediction by ZEFSAII (Michael W. Deem and Ramdas Pophale) SiO2 
 PCOD9297779
Probable space group: C 2/C
;
_chemical_formula_sum "Si O2"
_cell_formula_units_Z 56
_cell_length_a 15.452957
_cell_length_b 17.093363
_cell_length_c 11.565572
_cell_angle_alpha 90.000000
_cell_angle_beta 118.238776
_cell_angle_gamma 90.000000
_cell_volume 2691.373516
_symmetry_space_group_name_H-M "C 2/C"
_symmetry_group_IT_number 15
_symmetry_cell_setting 'monoclinic'
loop_
_space_group_symop_operation_xyz
x,y,z
-x,y,1/2-z
-x,-y,-z
x,-y,1/2+z
1/2+x,1/2+y,z
1/2-x,1/2+y,1/2-z
1/2-x,1/2-y,-z
1/2+x,1/2-y,1/2+z
loop_
_atom_site_type_symbol
_atom_site_label
_atom_site_fract_x
_atom_site_fract_y
_atom_site_fract_z
Si Si1 0.691876 0.605888 0.506451
Si Si2 0.779777 0.939674 0.999505
Si Si3 0.030331 0.767963 0.889930
Si Si4 0.327576 0.302108 0.867911
Si Si5 0.347566 0.138762 0.409933
Si Si6 0.592855 0.009216 0.225377
Si Si7 0.706407 0.123240 0.689089
O O1 0.654079 0.516932 0.473660
O O2 0.613414 0.668408 0.414962
O O3 0.788915 0.611720 0.487408
O O4 0.720480 0.627864 0.655541
O O5 0.820284 0.858756 0.973570
O O6 0.685052 0.963576 0.862704
O O7 0.751334 0.927553 0.114152
O O8 0.000000 0.728620 0.750000
O O9 0.935110 0.809890 0.881287
O O10 0.077627 0.706230 0.006662
O O11 0.239164 0.328867 0.727837
O O12 0.316117 0.208722 0.875150
O O13 0.405017 0.070631 0.379000
O O14 0.500000 0.010728 0.250000
O O15 0.614975 0.924618 0.184243
#
# Coordination Sequence:
#
# PCOD9297779 Si02
#       7
#     8   8   8   8   8   8   8
#     4  11  22  43  69  95 133 176 223 276 334 383
#     4  10  24  43  67  93 136 183 216 272 340 392
#     4  12  24  39  71 104 130 178 230 275 329 399
#     4  11  24  42  68 100 133 175 225 274 332 396
#     4  11  22  46  65  96 142 171 223 284 330 392
#     4  10  24  42  67 100 135 176 223 276 333 402
#     4  11  22  43  67  93 135 177 215 272 335 399
#
# _framework density 20.807220000000001
#
# number of rings (size 3 to 8) (size 9 to 14) (size 15 to 20)
#    0.000    1.143    4.286    1.714    2.000    4.000 
#    0.000    0.714    0.000    0.000    0.000    0.000 
#    0.000    0.000    0.000    0.000    0.000    0.000 
#
# Total GULP energy -156497.015968 kJ/mol
# GULP energy per Si atom -5589.179142 kJ/mol
# Density = 2.075986 g / cm^3
# Si number density = 20.807220 Si / 1000 Ang^3
#
#
#
# Elastic Constant Matrix: (Units=GPa)
#
#
# Indices 1 2 3 4 5 6 
#
# 1 80.2130 31.1727 19.0231 0.0000 -4.9078 0.0000
# 2 31.1727 128.8793 16.6607 0.0000 1.2381 0.0000
# 3 19.0231 16.6607 72.8337 0.0000 -8.3158 0.0000
# 4 0.0000 0.0000 0.0000 20.3064 0.0000 -12.9993
# 5 -4.9078 1.2381 -8.3158 0.0000 24.1570 0.0000
# 6 0.0000 0.0000 0.0000 -12.9993 0.0000 30.5230
#
#
#
# Elastic Compliance Matrix: (Units=1/GPa)
#
#
# Indices 1 2 3 4 5 6 
#
# 1 0.014495 -0.003162 -0.002819 0.000000 0.002137 0.000000
# 2 -0.003162 0.008713 -0.001344 0.000000 -0.001552 0.000000
# 3 -0.002819 -0.001344 0.015318 0.000000 0.004769 0.000000
# 4 0.000000 0.000000 0.000000 0.067704 0.000000 0.028834
# 5 0.002137 -0.001552 0.004769 0.000000 0.043551 0.000000
# 6 0.000000 0.000000 0.000000 0.028834 0.000000 0.045042
#
#
# Mechanical properties :
#
#
# Convention : Reuss Voigt Hill
#
# Bulk Modulus (GPa) = 41.88350 46.18211 44.03280
# Shear Modulus (GPa) = 22.99573 29.33523 26.16548
#
# Velocity S-wave (km/s) = 3.32803 3.75888 3.55000
# Velocity P-wave (km/s) = 5.91107 6.40955 6.16535
#
# Compressibility (1/GPa) = 0.02387575
#
# Stress axis : x y z
#
# Youngs Moduli (GPa) = 68.98998 114.77468 65.28212
#
# Poissons Ratio (x) = 0.36293 0.18400
# Poissons Ratio (y) = 0.21815 0.08776
# Poissons Ratio (z) = 0.19445 0.15429
#
# Static dielectric constant tensor:
#      x y z
#    x 1.727700 0.000000 0.003710 
#    y 0.000000 1.778770 0.000000 
#    z 0.003710 0.000000 1.740990 
# 
# From -- ./inp_files/98832.got.cif
#   From: 2010.05.17/outbox.cif.g08.bks.cpg/sg15_50_cif.got.tgz:98832.got - 2010.06.03 18:47:42.
