data_PCOD9297937
_publ_section_title
;
Structure prediction by ZEFSAII (Michael W. Deem and Ramdas Pophale) SiO2 
 PCOD9297937
Probable space group: C 2/C
;
_chemical_formula_sum "Si O2"
_cell_formula_units_Z 28
_cell_length_a 7.038393
_cell_length_b 18.889284
_cell_length_c 11.783937
_cell_angle_alpha 90.000000
_cell_angle_beta 137.554352
_cell_angle_gamma 90.000000
_cell_volume 1057.335321
_symmetry_space_group_name_H-M "C 2/C"
_symmetry_group_IT_number 15
_symmetry_cell_setting 'monoclinic'
loop_
_space_group_symop_operation_xyz
x,y,z
-x,y,1/2-z
-x,-y,-z
x,-y,1/2+z
1/2+x,1/2+y,z
1/2-x,1/2+y,1/2-z
1/2-x,1/2-y,-z
1/2+x,1/2-y,1/2+z
loop_
_atom_site_type_symbol
_atom_site_label
_atom_site_fract_x
_atom_site_fract_y
_atom_site_fract_z
Si Si1 0.929101 0.335859 0.935121
Si Si2 0.714966 0.392791 0.054962
Si Si3 0.690904 0.550717 0.947425
Si Si4 0.000000 0.241929 0.750000
O O1 0.000549 0.417042 0.935810
O O2 0.228915 0.306300 0.110069
O O3 0.714294 0.341232 0.945650
O O4 0.896310 0.289755 0.809150
O O5 0.458926 0.395130 0.029928
O O6 0.000000 0.377899 0.250000
O O7 0.720050 0.473671 0.014070
O O8 0.500000 0.546778 0.750000
#
# Coordination Sequence:
#
# PCOD9297937 Si02
#       4
#     8   8   8   4
#     4  11  22  45  63  94 131 173 214 276 311 392
#     4  11  23  39  68  98 130 170 213 273 334 387
#     4  11  23  39  65  98 134 165 218 268 333 389
#     4  10  24  42  72  90 132 180 224 256 328 376
#
# _framework density 26.481667000000002
#
# number of rings (size 3 to 8) (size 9 to 14) (size 15 to 20)
#    0.000    1.143    4.286    0.857    2.000    2.286 
#    0.000   15.714    0.000    0.000    0.000    0.000 
#    0.000    0.000    0.000    0.000    0.000    0.000 
#
# Total GULP energy -78460.851758 kJ/mol
# GULP energy per Si atom -5604.346554 kJ/mol
# Density = 2.642139 g / cm^3
# Si number density = 26.481667 Si / 1000 Ang^3
#
#
#
# Elastic Constant Matrix: (Units=GPa)
#
#
# Indices 1 2 3 4 5 6 
#
# 1 175.3309 19.5569 14.6975 0.0000 -35.3182 0.0000
# 2 19.5569 72.4820 24.5770 0.0000 -17.7976 0.0000
# 3 14.6975 24.5770 63.1863 0.0000 -31.8955 0.0000
# 4 0.0000 0.0000 0.0000 123.8947 0.0000 -56.3599
# 5 -35.3182 -17.7976 -31.8955 0.0000 39.7521 0.0000
# 6 0.0000 0.0000 0.0000 -56.3599 0.0000 62.7964
#
#
#
# Elastic Compliance Matrix: (Units=1/GPa)
#
#
# Indices 1 2 3 4 5 6 
#
# 1 0.007241 -0.000878 0.002868 0.000000 0.008342 0.000000
# 2 -0.000878 0.016316 -0.004787 0.000000 0.002684 0.000000
# 3 0.002868 -0.004787 0.028951 0.000000 0.023634 0.000000
# 4 0.000000 0.000000 0.000000 0.013640 0.000000 0.012242
# 5 0.008342 0.002684 0.023634 0.000000 0.052732 0.000000
# 6 0.000000 0.000000 0.000000 0.012242 0.000000 0.026912
#
#
# Mechanical properties :
#
#
# Convention : Reuss Voigt Hill
#
# Bulk Modulus (GPa) = 21.31592 47.62912 34.47252
# Shear Modulus (GPa) = 29.93567 62.09983 46.01775
#
# Velocity S-wave (km/s) = 3.36583 4.84779 4.17312
# Velocity P-wave (km/s) = 4.81372 7.02563 6.02210
#
# Compressibility (1/GPa) = 0.04691329
#
# Stress axis : x y z
#
# Youngs Moduli (GPa) = 138.09601 61.29096 34.54077
#
# Poissons Ratio (x) = 0.05381 -0.09906
# Poissons Ratio (y) = 0.12125 0.16536
# Poissons Ratio (z) = -0.39604 0.29342
#
# Static dielectric constant tensor:
#      x y z
#    x 2.160680 0.000000 -0.045280 
#    y 0.000000 2.041280 0.000000 
#    z -0.045280 0.000000 2.099820 
# 
# From -- ./inp_files/77469.got.cif
#   From: 2010.05.17/outbox.cif.g08.bks.cpg/sg15_39_cif.got.tgz:77469.got - 2010.06.03 18:47:42.
