data_PCOD9297635
_publ_section_title
;
Structure prediction by ZEFSAII (Michael W. Deem and Ramdas Pophale) SiO2 
 PCOD9297635
Probable space group: C 2/C
;
_chemical_formula_sum "Si O2"
_cell_formula_units_Z 56
_cell_length_a 11.766028
_cell_length_b 15.204422
_cell_length_c 14.935519
_cell_angle_alpha 90.000000
_cell_angle_beta 97.265653
_cell_angle_gamma 90.000000
_cell_volume 2650.445265
_symmetry_space_group_name_H-M "C 2/C"
_symmetry_group_IT_number 15
_symmetry_cell_setting 'monoclinic'
loop_
_space_group_symop_operation_xyz
x,y,z
-x,y,1/2-z
-x,-y,-z
x,-y,1/2+z
1/2+x,1/2+y,z
1/2-x,1/2+y,1/2-z
1/2-x,1/2-y,-z
1/2+x,1/2-y,1/2+z
loop_
_atom_site_type_symbol
_atom_site_label
_atom_site_fract_x
_atom_site_fract_y
_atom_site_fract_z
Si Si1 0.089735 0.551716 0.604505
Si Si2 0.964702 0.266305 0.346812
Si Si3 0.657838 0.568717 0.815326
Si Si4 0.850974 0.031382 0.885918
Si Si5 0.057950 0.910262 0.926747
Si Si6 0.618310 0.056512 0.397521
Si Si7 0.211446 0.253440 0.892205
O O1 0.021314 0.643750 0.597319
O O2 0.204355 0.560743 0.672235
O O3 0.127466 0.539951 0.505760
O O4 0.008136 0.477412 0.635099
O O5 0.829979 0.242519 0.347082
O O6 0.000000 0.287394 0.250000
O O7 0.043238 0.185288 0.383930
O O8 0.613897 0.564287 0.708981
O O9 0.615267 0.484905 0.869087
O O10 0.643044 0.664341 0.859992
O O11 0.720556 0.001356 0.868459
O O12 0.879044 0.094795 0.971602
O O13 0.928292 0.947357 0.922180
O O14 0.640363 0.157392 0.375230
O O15 0.250000 0.250000 0.000000
#
# Coordination Sequence:
#
# PCOD9297635 Si02
#       7
#     8   8   8   8   8   8   8
#     4  10  24  41  71  95 135 175 230 277 335 409
#     4  11  23  40  68 101 131 182 229 277 341 421
#     4  11  23  42  70 104 130 175 231 283 340 409
#     4  11  23  38  71  97 135 172 225 287 340 394
#     4  11  23  42  66  99 134 177 218 281 350 403
#     4  11  21  43  69  99 129 185 222 274 342 408
#     4  11  21  42  72  98 130 183 231 274 335 421
#
# _framework density 21.128526000000001
#
# number of rings (size 3 to 8) (size 9 to 14) (size 15 to 20)
#    0.000    1.143    5.714    1.286    6.000    0.000 
#    0.000    0.714   18.857    0.000    0.000    0.000 
#    0.000    0.000    0.000    0.000    0.000    0.000 
#
# Total GULP energy -156358.502366 kJ/mol
# GULP energy per Si atom -5584.232227 kJ/mol
# Density = 2.108044 g / cm^3
# Si number density = 21.128526 Si / 1000 Ang^3
#
#
#
# Elastic Constant Matrix: (Units=GPa)
#
#
# Indices 1 2 3 4 5 6 
#
# 1 65.3596 37.5202 8.4629 0.0000 -14.3937 0.0000
# 2 37.5202 94.7744 6.7598 0.0000 -12.9842 0.0000
# 3 8.4629 6.7598 81.5407 0.0000 -13.8829 0.0000
# 4 0.0000 0.0000 0.0000 21.4021 0.0000 -0.6100
# 5 -14.3937 -12.9842 -13.8829 0.0000 34.9336 0.0000
# 6 0.0000 0.0000 0.0000 -0.6100 0.0000 40.4635
#
#
#
# Elastic Compliance Matrix: (Units=1/GPa)
#
#
# Indices 1 2 3 4 5 6 
#
# 1 0.020894 -0.007462 -0.000597 0.000000 0.005598 0.000000
# 2 -0.007462 0.013787 -0.000021 0.000000 0.002041 0.000000
# 3 -0.000597 -0.000021 0.013176 0.000000 0.004983 0.000000
# 4 0.000000 0.000000 0.000000 0.046744 0.000000 0.000705
# 5 0.005598 0.002041 0.004983 0.000000 0.033671 0.000000
# 6 0.000000 0.000000 0.000000 0.000705 0.000000 0.024724
#
#
# Mechanical properties :
#
#
# Convention : Reuss Voigt Hill
#
# Bulk Modulus (GPa) = 31.54901 38.57339 35.06120
# Shear Modulus (GPa) = 27.82085 31.95528 29.88807
#
# Velocity S-wave (km/s) = 3.63263 3.89321 3.76518
# Velocity P-wave (km/s) = 5.70605 6.20529 5.96090
#
# Compressibility (1/GPa) = 0.03169672
#
# Stress axis : x y z
#
# Youngs Moduli (GPa) = 47.86112 72.53363 75.89673
#
# Poissons Ratio (x) = 0.54125 0.04529
# Poissons Ratio (y) = 0.35715 0.00159
# Poissons Ratio (z) = 0.02856 0.00152
#
# Static dielectric constant tensor:
#      x y z
#    x 1.813470 0.000000 -0.074220 
#    y 0.000000 1.761520 0.000000 
#    z -0.074220 0.000000 2.049620 
# 
# From -- ./inp_files/144269.got.cif
#   From: 2010.05.17/outbox.cif.g08.bks.cpg/sg15_73_cif.got.tgz:144269.got - 2010.06.03 18:47:42.
