data_PCOD9297000
_publ_section_title
;
Structure prediction by ZEFSAII (Michael W. Deem and Ramdas Pophale) SiO2 
 PCOD9297000
Probable space group: C 2/C
;
_chemical_formula_sum "Si O2"
_cell_formula_units_Z 36
_cell_length_a 11.170098
_cell_length_b 14.961651
_cell_length_c 9.354599
_cell_angle_alpha 90.000000
_cell_angle_beta 69.098784
_cell_angle_gamma 90.000000
_cell_volume 1460.495093
_symmetry_space_group_name_H-M "C 2/C"
_symmetry_group_IT_number 15
_symmetry_cell_setting 'monoclinic'
loop_
_space_group_symop_operation_xyz
x,y,z
-x,y,1/2-z
-x,-y,-z
x,-y,1/2+z
1/2+x,1/2+y,z
1/2-x,1/2+y,1/2-z
1/2-x,1/2-y,-z
1/2+x,1/2-y,1/2+z
loop_
_atom_site_type_symbol
_atom_site_label
_atom_site_fract_x
_atom_site_fract_y
_atom_site_fract_z
Si Si1 0.749855 0.617801 0.093781
Si Si2 0.000000 0.099550 0.750000
Si Si3 0.329333 0.388275 0.559580
Si Si4 0.405916 0.965137 0.919132
Si Si5 0.069665 0.218303 0.956873
O O1 0.700225 0.579232 0.266585
O O2 0.868265 0.684652 0.079577
O O3 0.805377 0.547024 0.957702
O O4 0.639482 0.672675 0.061511
O O5 0.904440 0.163946 0.701011
O O6 0.078842 0.054843 0.588287
O O7 0.192542 0.382810 0.539434
O O8 0.417673 0.299907 0.539527
O O9 0.500000 0.953098 0.750000
O O10 0.500000 0.000000 0.000000
#
# Coordination Sequence:
#
# PCOD9297000 Si02
#       5
#     8   4   8   8   8
#     4  11  23  44  73 100 145 179 233 293 355 425
#     4   8  22  42  70 106 134 182 230 296 346 424
#     4  10  23  47  68 103 141 183 234 286 356 416
#     4  12  27  45  66 100 137 191 234 285 349 420
#     4   9  23  43  69 110 132 183 227 298 353 415
#
# _framework density 24.649176000000001
#
# number of rings (size 3 to 8) (size 9 to 14) (size 15 to 20)
#    1.333    0.444    2.222    0.667    3.111    7.111 
#    4.000    0.000    0.000    0.000    0.000    0.000 
#    0.000    0.000    0.000    0.000    0.000    0.000 
#
# Total GULP energy -100243.570683 kJ/mol
# GULP energy per Si atom -5569.087260 kJ/mol
# Density = 2.459307 g / cm^3
# Si number density = 24.649176 Si / 1000 Ang^3
#
#
#
# Elastic Constant Matrix: (Units=GPa)
#
#
# Indices 1 2 3 4 5 6 
#
# 1 169.0088 63.0653 69.0570 0.0000 -6.5321 0.0000
# 2 63.0653 57.7844 28.7472 0.0000 -10.9827 0.0000
# 3 69.0570 28.7472 124.2556 0.0000 -17.7124 0.0000
# 4 0.0000 0.0000 0.0000 19.5243 0.0000 7.1065
# 5 -6.5321 -10.9827 -17.7124 0.0000 53.1450 0.0000
# 6 0.0000 0.0000 0.0000 7.1065 0.0000 41.2865
#
#
#
# Elastic Compliance Matrix: (Units=1/GPa)
#
#
# Indices 1 2 3 4 5 6 
#
# 1 0.011711 -0.011091 -0.004267 0.000000 -0.002275 0.000000
# 2 -0.011091 0.030425 -0.000182 0.000000 0.004864 0.000000
# 3 -0.004267 -0.000182 0.010899 0.000000 0.003070 0.000000
# 4 0.000000 0.000000 0.000000 0.054642 0.000000 -0.009405
# 5 -0.002275 0.004864 0.003070 0.000000 0.020565 0.000000
# 6 0.000000 0.000000 0.000000 -0.009405 0.000000 0.025840
#
#
# Mechanical properties :
#
#
# Convention : Reuss Voigt Hill
#
# Bulk Modulus (GPa) = 45.54559 74.75421 60.14990
# Shear Modulus (GPa) = 25.97687 35.46978 30.72332
#
# Velocity S-wave (km/s) = 3.24985 3.79751 3.53430
# Velocity P-wave (km/s) = 5.70961 7.04423 6.41174
#
# Compressibility (1/GPa) = 0.02195602
#
# Stress axis : x y z
#
# Youngs Moduli (GPa) = 85.39095 32.86787 91.75121
#
# Poissons Ratio (x) = 0.36453 0.39149
# Poissons Ratio (y) = 0.94705 0.01668
# Poissons Ratio (z) = 0.36435 0.00598
#
# Static dielectric constant tensor:
#      x y z
#    x 2.013200 0.000000 -0.003090 
#    y 0.000000 1.980310 0.000000 
#    z -0.003090 0.000000 1.945230 
# 
# From -- ./inp_files/28999.got.cif
#   From: 2010.05.17/outbox.cif.g08.bks.cpg/sg15_15_cif.got.tgz:28999.got - 2010.06.03 18:47:42.
