data_PCOD9297031
_publ_section_title
;
Structure prediction by ZEFSAII (Michael W. Deem and Ramdas Pophale) SiO2 
 PCOD9297031
Probable space group: C 2/C
;
_chemical_formula_sum "Si O2"
_cell_formula_units_Z 44
_cell_length_a 13.533188
_cell_length_b 5.315538
_cell_length_c 24.619841
_cell_angle_alpha 90.000000
_cell_angle_beta 78.925215
_cell_angle_gamma 90.000000
_cell_volume 1738.075317
_symmetry_space_group_name_H-M "C 2/C"
_symmetry_group_IT_number 15
_symmetry_cell_setting 'monoclinic'
loop_
_space_group_symop_operation_xyz
x,y,z
-x,y,1/2-z
-x,-y,-z
x,-y,1/2+z
1/2+x,1/2+y,z
1/2-x,1/2+y,1/2-z
1/2-x,1/2-y,-z
1/2+x,1/2-y,1/2+z
loop_
_atom_site_type_symbol
_atom_site_label
_atom_site_fract_x
_atom_site_fract_y
_atom_site_fract_z
Si Si1 0.500000 0.984805 0.250000
Si Si2 0.543536 0.603691 0.606652
Si Si3 0.129946 0.893998 0.800134
Si Si4 0.163539 0.211987 0.687459
Si Si5 0.839809 0.073270 0.016941
Si Si6 0.084832 0.553086 0.446035
O O1 0.411614 0.840868 0.229014
O O2 0.439194 0.131245 0.301842
O O3 0.460979 0.458711 0.650689
O O4 0.644750 0.572485 0.632878
O O5 0.582247 0.534833 0.541779
O O6 0.479196 0.856055 0.598683
O O7 0.232720 0.855589 0.821068
O O8 0.153659 0.079134 0.747091
O O9 0.750000 0.250000 0.000000
O O10 0.869442 0.273948 0.060534
O O11 0.841575 0.788436 0.043023
O O12 0.000000 0.500000 0.500000
#
# Coordination Sequence:
#
# PCOD9297031 Si02
#       6
#     4   8   8   8   8   8
#     4  12  22  44  72  88 154 176 228 308 340 418
#     4  11  24  45  72 102 138 188 243 286 371 441
#     4  12  25  45  67 104 142 188 238 293 360 424
#     4  12  25  45  66 105 139 188 238 295 357 426
#     4  11  25  48  73 110 148 184 244 313 371 438
#     4  10  23  47  71 102 149 184 235 312 367 433
#
# _framework density 25.315356999999999
#
# number of rings (size 3 to 8) (size 9 to 14) (size 15 to 20)
#    0.000    0.727    5.455    2.727    2.545    4.364 
#    6.545    0.000    0.000    0.000    0.000    0.000 
#    0.000    0.000    0.000    0.000    0.000    0.000 
#
# Total GULP energy -122495.769309 kJ/mol
# GULP energy per Si atom -5567.989514 kJ/mol
# Density = 2.525774 g / cm^3
# Si number density = 25.315357 Si / 1000 Ang^3
#
#
#
# Elastic Constant Matrix: (Units=GPa)
#
#
# Indices 1 2 3 4 5 6 
#
# 1 105.5641 18.9008 43.5472 0.0000 21.6957 0.0000
# 2 18.9008 108.2895 33.7995 0.0000 2.9824 0.0001
# 3 43.5472 33.7995 140.3465 0.0000 19.0682 0.0000
# 4 0.0000 0.0000 0.0000 19.9899 0.0000 -2.9938
# 5 21.6957 2.9824 19.0682 0.0000 48.6078 0.0000
# 6 0.0000 0.0001 0.0000 -2.9938 0.0000 42.0887
#
#
#
# Elastic Compliance Matrix: (Units=1/GPa)
#
#
# Indices 1 2 3 4 5 6 
#
# 1 0.011650 -0.001043 -0.002816 0.000000 -0.004031 0.000000
# 2 -0.001043 0.010084 -0.002201 0.000000 0.000711 0.000000
# 3 -0.002816 -0.002201 0.008809 0.000000 -0.002064 0.000000
# 4 0.000000 0.000000 0.000000 0.050564 0.000000 0.003597
# 5 -0.004031 0.000711 -0.002064 0.000000 0.023138 0.000000
# 6 0.000000 0.000000 0.000000 0.003597 0.000000 0.024015
#
#
# Mechanical properties :
#
#
# Convention : Reuss Voigt Hill
#
# Bulk Modulus (GPa) = 54.28195 60.74390 57.51292
# Shear Modulus (GPa) = 34.12441 39.33410 36.72926
#
# Velocity S-wave (km/s) = 3.67546 3.94606 3.81316
# Velocity P-wave (km/s) = 6.28497 6.69394 6.49267
#
# Compressibility (1/GPa) = 0.01842233
#
# Stress axis : x y z
#
# Youngs Moduli (GPa) = 85.83847 99.16560 113.51417
#
# Poissons Ratio (x) = 0.10348 0.31963
# Poissons Ratio (y) = 0.08957 0.24988
# Poissons Ratio (z) = 0.24170 0.21830
#
# Static dielectric constant tensor:
#      x y z
#    x 2.157850 0.000000 0.297280 
#    y 0.000000 2.279950 0.000000 
#    z 0.297280 0.000000 2.451150 
# 
# From -- ./inp_files/294239.got.cif
#   From: 2010.05.17/outbox.cif.g08.bks.cpg/sg15_148_cif.got.tgz:294239.got - 2010.06.03 18:47:42.
