data_PCOD9297258
_publ_section_title
;
Structure prediction by ZEFSAII (Michael W. Deem and Ramdas Pophale) SiO2 
 PCOD9297258
Probable space group: C 2/C
;
_chemical_formula_sum "Si O2"
_cell_formula_units_Z 56
_cell_length_a 8.456325
_cell_length_b 13.001337
_cell_length_c 21.874963
_cell_angle_alpha 90.000000
_cell_angle_beta 94.067969
_cell_angle_gamma 90.000000
_cell_volume 2398.951485
_symmetry_space_group_name_H-M "C 2/C"
_symmetry_group_IT_number 15
_symmetry_cell_setting 'monoclinic'
loop_
_space_group_symop_operation_xyz
x,y,z
-x,y,1/2-z
-x,-y,-z
x,-y,1/2+z
1/2+x,1/2+y,z
1/2-x,1/2+y,1/2-z
1/2-x,1/2-y,-z
1/2+x,1/2-y,1/2+z
loop_
_atom_site_type_symbol
_atom_site_label
_atom_site_fract_x
_atom_site_fract_y
_atom_site_fract_z
Si Si1 0.939389 0.853467 0.513813
Si Si2 0.522034 0.134640 0.935604
Si Si3 0.827879 0.013133 0.766284
Si Si4 0.738801 0.037622 0.486563
Si Si5 0.058162 0.859463 0.132702
Si Si6 0.330292 0.818313 0.769628
Si Si7 0.210776 0.659745 0.675487
O O1 0.904533 0.742872 0.541271
O O2 0.823661 0.947250 0.529103
O O3 0.927929 0.846921 0.439494
O O4 0.117678 0.892548 0.534038
O O5 0.630416 0.033374 0.940135
O O6 0.443179 0.153998 0.868760
O O7 0.380759 0.108512 0.979138
O O8 0.793617 0.910156 0.727188
O O9 0.000000 0.053719 0.750000
O O10 0.850230 0.039281 0.838289
O O11 0.698116 0.086536 0.733531
O O12 0.130571 0.762480 0.174521
O O13 0.869009 0.866783 0.140602
O O14 0.500000 0.858756 0.750000
O O15 0.254363 0.765631 0.707989
#
# Coordination Sequence:
#
# PCOD9297258 Si02
#       7
#     8   8   8   8   8   8   8
#     4  11  22  42  61  88 127 160 202 250 299 356
#     4  11  22  42  61  88 127 160 202 250 299 356
#     4   9  19  39  58  82 114 149 191 245 298 351
#     4  10  24  38  60  90 118 162 204 236 298 364
#     4   9  19  38  59  80 118 152 192 246 295 352
#     4   9  19  37  60  86 106 153 199 235 306 355
#     4   9  19  38  59  80 118 152 192 246 295 352
#
# _framework density 23.343532
#
# number of rings (size 3 to 8) (size 9 to 14) (size 15 to 20)
#    0.000    2.286    1.429    2.571    0.000    4.571 
#   10.286    1.429    0.000    0.000    0.000    0.000 
#    0.000    0.000    0.000    0.000    0.000    0.000 
#
# Total GULP energy -156014.824147 kJ/mol
# GULP energy per Si atom -5571.958005 kJ/mol
# Density = 2.329040 g / cm^3
# Si number density = 23.343532 Si / 1000 Ang^3
#
#
#
# Elastic Constant Matrix: (Units=GPa)
#
#
# Indices 1 2 3 4 5 6 
#
# 1 52.9467 0.4321 16.8473 0.0000 15.1442 0.0000
# 2 0.4321 54.4954 13.4510 0.0000 11.0368 0.0000
# 3 16.8473 13.4510 113.0128 0.0000 36.4087 0.0000
# 4 0.0000 0.0000 0.0000 12.1821 0.0000 11.0895
# 5 15.1442 11.0368 36.4087 0.0000 32.0567 0.0000
# 6 0.0000 0.0000 0.0000 11.0895 0.0000 31.2494
#
#
#
# Elastic Compliance Matrix: (Units=1/GPa)
#
#
# Indices 1 2 3 4 5 6 
#
# 1 0.022055 0.002079 0.000082 0.000000 -0.011228 0.000000
# 2 0.002079 0.019926 -0.000244 0.000000 -0.007565 0.000000
# 3 0.000082 -0.000244 0.013958 0.000000 -0.015808 0.000000
# 4 0.000000 0.000000 0.000000 0.121260 0.000000 -0.043032
# 5 -0.011228 -0.007565 -0.015808 0.000000 0.057057 0.000000
# 6 0.000000 0.000000 0.000000 -0.043032 0.000000 0.047271
#
#
# Mechanical properties :
#
#
# Convention : Reuss Voigt Hill
#
# Bulk Modulus (GPa) = 16.73003 31.32397 24.02700
# Shear Modulus (GPa) = 16.79994 27.74592 22.27293
#
# Velocity S-wave (km/s) = 2.68560 3.45134 3.09226
# Velocity P-wave (km/s) = 4.09866 5.41573 4.80256
#
# Compressibility (1/GPa) = 0.05977277
#
# Stress axis : x y z
#
# Youngs Moduli (GPa) = 45.34020 50.18539 71.64320
#
# Poissons Ratio (x) = -0.10433 -0.00588
# Poissons Ratio (y) = -0.09426 0.01751
# Poissons Ratio (z) = -0.00372 0.01227
#
# Static dielectric constant tensor:
#      x y z
#    x 1.936740 0.000000 -0.019450 
#    y 0.000000 1.954410 0.000000 
#    z -0.019450 0.000000 1.929440 
# 
# From -- ./inp_files/264408.got.cif
#   From: 2010.05.17/outbox.cif.g08.bks.cpg/sg15_133_cif.got.tgz:264408.got - 2010.06.03 18:47:42.
