data_PCOD9297434
_publ_section_title
;
Structure prediction by ZEFSAII (Michael W. Deem and Ramdas Pophale) SiO2 
 PCOD9297434
Probable space group: C 2/C
;
_chemical_formula_sum "Si O2"
_cell_formula_units_Z 52
_cell_length_a 25.658222
_cell_length_b 11.676039
_cell_length_c 13.569294
_cell_angle_alpha 90.000000
_cell_angle_beta 143.751755
_cell_angle_gamma 90.000000
_cell_volume 2403.677343
_symmetry_space_group_name_H-M "C 2/C"
_symmetry_group_IT_number 15
_symmetry_cell_setting 'monoclinic'
loop_
_space_group_symop_operation_xyz
x,y,z
-x,y,1/2-z
-x,-y,-z
x,-y,1/2+z
1/2+x,1/2+y,z
1/2-x,1/2+y,1/2-z
1/2-x,1/2-y,-z
1/2+x,1/2-y,1/2+z
loop_
_atom_site_type_symbol
_atom_site_label
_atom_site_fract_x
_atom_site_fract_y
_atom_site_fract_z
Si Si1 0.128737 0.983172 0.783205
Si Si2 0.800673 0.349987 0.975004
Si Si3 0.000000 0.557555 0.250000
Si Si4 0.173561 0.890734 0.059427
Si Si5 0.441700 0.104184 0.842649
Si Si6 0.460625 0.331692 0.475127
Si Si7 0.354626 0.029695 0.909688
O O1 0.221036 0.933027 0.883319
O O2 0.051700 0.902011 0.622819
O O3 0.099343 0.109722 0.701682
O O4 0.137765 0.966159 0.914343
O O5 0.778822 0.223671 0.907298
O O6 0.854299 0.410065 0.968066
O O7 0.865413 0.331783 0.165750
O O8 0.026225 0.483572 0.193245
O O9 0.089471 0.612726 0.430460
O O10 0.251447 0.949020 0.238305
O O11 0.093613 0.854804 0.007603
O O12 0.510997 0.198833 0.986662
O O13 0.397320 0.039752 0.866775
#
# Coordination Sequence:
#
# PCOD9297434 Si02
#       7
#     8   8   4   8   8   8   8
#     4  11  22  38  62 100 141 172 225 278 341 401
#     4  11  22  41  67 101 128 183 234 278 330 415
#     4  10  24  40  66  94 122 170 238 276 330 402
#     4  12  22  40  67  96 136 180 226 277 340 404
#     4  11  21  42  69  93 130 176 230 278 336 400
#     4  11  23  38  63 101 137 175 222 279 336 405
#     4  11  23  40  67  94 130 172 231 283 331 399
#
# _framework density 21.633519
#
# number of rings (size 3 to 8) (size 9 to 14) (size 15 to 20)
#    0.000    0.923    4.615    4.154    0.000    0.000 
#    0.000    1.538    0.000    4.615    0.000    0.000 
#    0.000    0.000    0.000    0.000    0.000    0.000 
#
# Total GULP energy -144984.687273 kJ/mol
# GULP energy per Si atom -5576.334126 kJ/mol
# Density = 2.158428 g / cm^3
# Si number density = 21.633519 Si / 1000 Ang^3
#
#
#
# Elastic Constant Matrix: (Units=GPa)
#
#
# Indices 1 2 3 4 5 6 
#
# 1 103.4717 26.4976 -11.0562 0.0000 -5.8082 0.0000
# 2 26.4976 65.5944 32.4595 0.0000 -17.6429 0.0000
# 3 -11.0562 32.4595 92.6525 0.0000 -11.4220 0.0000
# 4 0.0000 0.0000 0.0000 32.5338 0.0000 -0.1374
# 5 -5.8082 -17.6429 -11.4220 0.0000 32.3270 0.0000
# 6 0.0000 0.0000 0.0000 -0.1374 0.0000 24.2995
#
#
#
# Elastic Compliance Matrix: (Units=1/GPa)
#
#
# Indices 1 2 3 4 5 6 
#
# 1 0.011746 -0.006630 0.003700 0.000000 -0.000201 0.000000
# 2 -0.006630 0.024487 -0.008228 0.000000 0.009266 0.000000
# 3 0.003700 -0.008228 0.014267 0.000000 0.001215 0.000000
# 4 0.000000 0.000000 0.000000 0.030738 0.000000 0.000174
# 5 -0.000201 0.009266 0.001215 0.000000 0.036384 0.000000
# 6 0.000000 0.000000 0.000000 0.000174 0.000000 0.041154
#
#
# Mechanical properties :
#
#
# Convention : Reuss Voigt Hill
#
# Bulk Modulus (GPa) = 35.48035 39.72450 37.60242
# Shear Modulus (GPa) = 26.24857 32.08658 29.16758
#
# Velocity S-wave (km/s) = 3.48707 3.85540 3.67585
# Velocity P-wave (km/s) = 5.71394 6.18232 5.95274
#
# Compressibility (1/GPa) = 0.02818462
#
# Stress axis : x y z
#
# Youngs Moduli (GPa) = 85.13315 40.83796 70.09334
#
# Poissons Ratio (x) = 0.27075 -0.25932
# Poissons Ratio (y) = 0.56441 0.57669
# Poissons Ratio (z) = -0.31496 0.33600
#
# Static dielectric constant tensor:
#      x y z
#    x 1.836570 0.000000 0.077510 
#    y 0.000000 1.824240 0.000000 
#    z 0.077510 0.000000 1.894280 
# 
# From -- ./inp_files/118833.got.cif
#   From: 2010.05.17/outbox.cif.g08.bks.cpg/sg15_60_cif.got.tgz:118833.got - 2010.06.03 18:47:42.
