data_PCOD9297015
_publ_section_title
;
Structure prediction by ZEFSAII (Michael W. Deem and Ramdas Pophale) SiO2 
 PCOD9297015
Probable space group: C 2/C
;
_chemical_formula_sum "Si O2"
_cell_formula_units_Z 36
_cell_length_a 18.475960
_cell_length_b 12.386213
_cell_length_c 12.857781
_cell_angle_alpha 90.000000
_cell_angle_beta 146.953378
_cell_angle_gamma 90.000000
_cell_volume 1604.589821
_symmetry_space_group_name_H-M "C 2/C"
_symmetry_group_IT_number 15
_symmetry_cell_setting 'monoclinic'
loop_
_space_group_symop_operation_xyz
x,y,z
-x,y,1/2-z
-x,-y,-z
x,-y,1/2+z
1/2+x,1/2+y,z
1/2-x,1/2+y,1/2-z
1/2-x,1/2-y,-z
1/2+x,1/2-y,1/2+z
loop_
_atom_site_type_symbol
_atom_site_label
_atom_site_fract_x
_atom_site_fract_y
_atom_site_fract_z
Si Si1 0.500000 0.700104 0.750000
Si Si2 0.169473 0.192649 0.311404
Si Si3 0.705100 0.938614 0.725988
Si Si4 0.504286 0.494114 0.382021
Si Si5 0.549810 0.844756 0.994407
O O1 0.563492 0.613393 0.745720
O O2 0.577419 0.776849 0.923339
O O3 0.250000 0.250000 0.500000
O O4 0.259539 0.133445 0.332266
O O5 0.087362 0.277056 0.142419
O O6 0.072452 0.101588 0.241750
O O7 0.838698 0.976287 0.945311
O O8 0.604922 0.875656 0.680996
O O9 0.631975 0.045373 0.597163
O O10 0.500000 0.500000 0.500000
#
# Coordination Sequence:
#
# PCOD9297015 Si02
#       5
#     4   8   8   8   8
#     4  12  24  44  76 102 144 190 242 306 364 430
#     4  11  26  45  76 104 148 196 235 302 370 442
#     4  10  25  48  69 106 148 180 257 297 358 451
#     4  10  23  47  69 107 137 186 245 295 362 440
#     4  11  26  45  72 106 142 195 241 308 366 424
#
# _framework density 22.435641
#
# number of rings (size 3 to 8) (size 9 to 14) (size 15 to 20)
#    0.000    1.333    4.444    0.000    6.222    5.333 
#    4.000    0.000    0.000    0.000    0.000    0.000 
#    0.000    0.000    0.000    0.000    0.000    0.000 
#
# Total GULP energy -100469.721477 kJ/mol
# GULP energy per Si atom -5581.651193 kJ/mol
# Density = 2.238458 g / cm^3
# Si number density = 22.435641 Si / 1000 Ang^3
#
#
#
# Elastic Constant Matrix: (Units=GPa)
#
#
# Indices 1 2 3 4 5 6 
#
# 1 78.3013 38.6286 50.7023 0.0000 -10.1506 0.0000
# 2 38.6286 128.4498 65.3294 0.0000 1.4085 0.0000
# 3 50.7023 65.3294 138.9753 0.0000 -8.6801 0.0000
# 4 0.0000 0.0000 0.0000 48.1456 0.0000 -6.2822
# 5 -10.1506 1.4085 -8.6801 0.0000 50.8656 0.0000
# 6 0.0000 0.0000 0.0000 -6.2822 0.0000 45.7636
#
#
#
# Elastic Compliance Matrix: (Units=1/GPa)
#
#
# Indices 1 2 3 4 5 6 
#
# 1 0.017748 -0.002842 -0.004966 0.000000 0.002773 0.000000
# 2 -0.002842 0.010749 -0.004114 0.000000 -0.001567 0.000000
# 3 -0.004966 -0.004114 0.011004 0.000000 0.001001 0.000000
# 4 0.000000 0.000000 0.000000 0.021149 0.000000 0.002903
# 5 0.002773 -0.001567 0.001001 0.000000 0.020427 0.000000
# 6 0.000000 0.000000 0.000000 0.002903 0.000000 0.022250
#
#
# Mechanical properties :
#
#
# Convention : Reuss Voigt Hill
#
# Bulk Modulus (GPa) = 63.86826 72.78301 68.32564
# Shear Modulus (GPa) = 37.76687 41.69269 39.72978
#
# Velocity S-wave (km/s) = 4.10731 4.31550 4.21269
# Velocity P-wave (km/s) = 7.14300 7.57249 7.36088
#
# Compressibility (1/GPa) = 0.01565723
#
# Stress axis : x y z
#
# Youngs Moduli (GPa) = 56.34314 93.02793 90.87897
#
# Poissons Ratio (x) = 0.26441 0.45129
# Poissons Ratio (y) = 0.16014 0.37388
# Poissons Ratio (z) = 0.27979 0.38272
#
# Static dielectric constant tensor:
#      x y z
#    x 1.867030 0.000000 0.013680 
#    y 0.000000 1.855770 0.000000 
#    z 0.013680 0.000000 1.850060 
# 
# From -- ./inp_files/167775.got.cif
#   From: 2010.05.17/outbox.cif.g08.bks.cpg/sg15_84_cif.got.tgz:167775.got - 2010.06.03 18:47:42.
