data_PCOD9297971
_publ_section_title
;
Structure prediction by ZEFSAII (Michael W. Deem and Ramdas Pophale) SiO2 
 PCOD9297971
Probable space group: C 2/C
;
_chemical_formula_sum "Si O2"
_cell_formula_units_Z 36
_cell_length_a 8.679726
_cell_length_b 16.360996
_cell_length_c 20.247288
_cell_angle_alpha 90.000000
_cell_angle_beta 149.373857
_cell_angle_gamma 90.000000
_cell_volume 1464.774023
_symmetry_space_group_name_H-M "C 2/C"
_symmetry_group_IT_number 15
_symmetry_cell_setting 'monoclinic'
loop_
_space_group_symop_operation_xyz
x,y,z
-x,y,1/2-z
-x,-y,-z
x,-y,1/2+z
1/2+x,1/2+y,z
1/2-x,1/2+y,1/2-z
1/2-x,1/2-y,-z
1/2+x,1/2-y,1/2+z
loop_
_atom_site_type_symbol
_atom_site_label
_atom_site_fract_x
_atom_site_fract_y
_atom_site_fract_z
Si Si1 0.269673 0.066980 0.602058
Si Si2 0.396667 0.750302 0.983290
Si Si3 0.529943 0.813339 0.619169
Si Si4 0.864579 0.494994 0.877315
Si Si5 0.500000 0.252549 0.250000
O O1 0.500000 0.061257 0.750000
O O2 0.101220 0.154664 0.536542
O O3 0.488536 0.059375 0.619231
O O4 0.000000 0.000000 0.500000
O O5 0.273351 0.794146 0.873744
O O6 0.250000 0.750000 0.000000
O O7 0.712745 0.796471 0.115170
O O8 0.250000 0.750000 0.500000
O O9 0.510594 0.910116 0.607517
O O10 0.615451 0.795368 0.727016
O O11 0.500000 0.497523 0.750000
O O12 0.000000 0.500000 0.000000
#
# Coordination Sequence:
#
# PCOD9297971 Si02
#       5
#     8   8   8   8   4
#     4  12  28  48  77 109 152 201 256 309 382 462
#     4  11  26  46  75 109 144 194 253 314 380 453
#     4  10  24  47  73 105 144 193 253 307 380 450
#     4  12  28  49  74 111 157 202 248 317 388 459
#     4  10  24  42  76 100 150 188 242 312 384 434
#
# _framework density 24.577171
#
# number of rings (size 3 to 8) (size 9 to 14) (size 15 to 20)
#    0.000    0.889    0.000    5.333   15.556    0.000 
#   14.000    0.000    0.000    0.000    0.000    0.000 
#    0.000    0.000    0.000    0.000    0.000    0.000 
#
# Total GULP energy -100306.384224 kJ/mol
# GULP energy per Si atom -5572.576901 kJ/mol
# Density = 2.452123 g / cm^3
# Si number density = 24.577171 Si / 1000 Ang^3
#
#
#
# Elastic Constant Matrix: (Units=GPa)
#
#
# Indices 1 2 3 4 5 6 
#
# 1 189.7283 5.7387 60.2573 0.0003 -39.8737 0.0003
# 2 5.7387 97.7553 17.2245 -0.0008 0.6909 -0.0001
# 3 60.2573 17.2245 215.1400 0.0015 -4.3800 0.0037
# 4 0.0003 -0.0008 0.0015 9.2418 0.0002 -6.9972
# 5 -39.8737 0.6909 -4.3800 0.0002 60.0418 0.0002
# 6 0.0003 -0.0001 0.0037 -6.9972 0.0002 40.0621
#
#
#
# Elastic Compliance Matrix: (Units=1/GPa)
#
#
# Indices 1 2 3 4 5 6 
#
# 1 0.006761 -0.000111 -0.001796 0.000000 0.004360 0.000000
# 2 -0.000111 0.010380 -0.000805 0.000001 -0.000252 0.000000
# 3 -0.001796 -0.000805 0.005199 -0.000001 -0.000804 -0.000001
# 4 0.000000 0.000001 -0.000001 0.124693 0.000000 0.021779
# 5 0.004360 -0.000252 -0.000804 0.000000 0.019495 0.000000
# 6 0.000000 0.000000 -0.000001 0.021779 0.000000 0.028765
#
#
# Mechanical properties :
#
#
# Convention : Reuss Voigt Hill
#
# Bulk Modulus (GPa) = 59.11767 74.34054 66.72910
# Shear Modulus (GPa) = 24.23002 49.82934 37.02968
#
# Velocity S-wave (km/s) = 3.14327 4.50762 3.88580
# Velocity P-wave (km/s) = 6.10571 7.57661 6.88058
#
# Compressibility (1/GPa) = 0.01691542
#
# Stress axis : x y z
#
# Youngs Moduli (GPa) = 147.91230 96.34117 192.33651
#
# Poissons Ratio (x) = 0.01072 0.34542
# Poissons Ratio (y) = 0.01646 0.15483
# Poissons Ratio (z) = 0.26564 0.07755
#
# Static dielectric constant tensor:
#      x y z
#    x 2.073880 0.000000 0.129160 
#    y 0.000000 1.963450 0.000000 
#    z 0.129160 0.000000 1.988430 
# 
# From -- ./inp_files/233153.got.cif
#   From: 2010.05.17/outbox.cif.g08.bks.cpg/sg15_117_cif.got.tgz:233153.got - 2010.06.03 18:47:42.
