data_PCOD9297568
_publ_section_title
;
Structure prediction by ZEFSAII (Michael W. Deem and Ramdas Pophale) SiO2 
 PCOD9297568
Probable space group: C 2/C
;
_chemical_formula_sum "Si O2"
_cell_formula_units_Z 36
_cell_length_a 7.418293
_cell_length_b 7.125367
_cell_length_c 31.160065
_cell_angle_alpha 90.000000
_cell_angle_beta 71.420248
_cell_angle_gamma 90.000000
_cell_volume 1561.217553
_symmetry_space_group_name_H-M "C 2/C"
_symmetry_group_IT_number 15
_symmetry_cell_setting 'monoclinic'
loop_
_space_group_symop_operation_xyz
x,y,z
-x,y,1/2-z
-x,-y,-z
x,-y,1/2+z
1/2+x,1/2+y,z
1/2-x,1/2+y,1/2-z
1/2-x,1/2-y,-z
1/2+x,1/2-y,1/2+z
loop_
_atom_site_type_symbol
_atom_site_label
_atom_site_fract_x
_atom_site_fract_y
_atom_site_fract_z
Si Si1 0.004476 0.356833 0.960824
Si Si2 0.128956 0.184261 0.110673
Si Si3 0.081501 0.776574 0.788487
Si Si4 0.163000 0.026971 0.435087
Si Si5 0.500000 0.087815 0.250000
O O1 0.171484 0.418052 0.914923
O O2 0.803087 0.349736 0.952679
O O3 0.430155 0.352645 0.031604
O O4 0.000000 0.500000 0.000000
O O5 0.196064 0.401280 0.105613
O O6 0.024003 0.138404 0.162593
O O7 0.990011 0.135018 0.081680
O O8 0.306820 0.802495 0.772648
O O9 0.000000 0.859214 0.750000
O O10 0.035081 0.556114 0.786739
#
# Coordination Sequence:
#
# PCOD9297568 Si02
#       5
#     8   8   8   8   4
#     4  10  24  44  67  96 129 168 211 260 316 380
#     4  10  24  42  66  95 131 168 211 263 314 376
#     4  10  24  44  65  95 128 170 214 261 317 374
#     4  10  24  41  65  96 126 168 210 262 312 374
#     4  10  24  42  64  92 122 168 214 262 312 370
#
# _framework density 23.058924000000001
#
# number of rings (size 3 to 8) (size 9 to 14) (size 15 to 20)
#    2.000    0.000    0.000    2.000    4.667    5.333 
#    0.000    0.000    0.000    0.000    0.000    0.000 
#    0.000    0.000    0.000    0.000    0.000    0.000 
#
# Total GULP energy -100485.727496 kJ/mol
# GULP energy per Si atom -5582.540416 kJ/mol
# Density = 2.300644 g / cm^3
# Si number density = 23.058924 Si / 1000 Ang^3
#
#
#
# Elastic Constant Matrix: (Units=GPa)
#
#
# Indices 1 2 3 4 5 6 
#
# 1 189.9717 35.6977 46.1805 0.0000 -13.1014 0.0000
# 2 35.6977 59.2484 12.7394 0.0000 -3.0036 0.0000
# 3 46.1805 12.7394 107.1871 0.0000 -27.4263 0.0000
# 4 0.0000 0.0000 0.0000 -1.2516 0.0000 -7.7544
# 5 -13.1014 -3.0036 -27.4263 0.0000 29.0710 0.0000
# 6 0.0000 0.0000 0.0000 -7.7544 0.0000 38.1853
#
#
#
# Elastic Compliance Matrix: (Units=1/GPa)
#
#
# Indices 1 2 3 4 5 6 
#
# 1 0.006486 -0.003396 -0.002284 0.000000 0.000417 0.000000
# 2 -0.003396 0.019099 -0.000914 0.000000 -0.000420 0.000000
# 3 -0.002284 -0.000914 0.013360 0.000000 0.011480 0.000000
# 4 0.000000 0.000000 0.000000 -0.353814 0.000000 -0.071850
# 5 0.000417 -0.000420 0.011480 0.000000 0.045374 0.000000
# 6 0.000000 0.000000 0.000000 -0.071850 0.000000 0.011597
#
#
# Mechanical properties :
#
#
# Convention : Reuss Voigt Hill
#
# Bulk Modulus (GPa) = 38.82470 60.62695 49.72582
# Shear Modulus (GPa) = -21.17527 30.65358 4.73915
#
# Velocity S-wave (km/s) = -3.03365 3.64999 1.43516
# Velocity P-wave (km/s) = 2.14546 6.64173 4.93536
#
# Compressibility (1/GPa) = 0.02575680
#
# Stress axis : x y z
#
# Youngs Moduli (GPa) = 154.17731 52.35785 74.85233
#
# Poissons Ratio (x) = 0.17779 0.17097
# Poissons Ratio (y) = 0.52353 0.06845
# Poissons Ratio (z) = 0.35215 0.04788
#
# Static dielectric constant tensor:
#      x y z
#    x 1.717690 0.000000 -0.046990 
#    y 0.000000 1.894290 0.000000 
#    z -0.046990 0.000000 1.898750 
# 
# From -- ./inp_files/259868.got.cif
#   From: 2010.05.17/outbox.cif.g08.bks.cpg/sg15_130_cif.got.tgz:259868.got - 2010.06.03 18:47:42.
