data_PCOD9297890
_publ_section_title
;
Structure prediction by ZEFSAII (Michael W. Deem and Ramdas Pophale) SiO2 
 PCOD9297890
Probable space group: C 2/C
;
_chemical_formula_sum "Si O2"
_cell_formula_units_Z 44
_cell_length_a 23.597772
_cell_length_b 5.291876
_cell_length_c 15.310392
_cell_angle_alpha 90.000000
_cell_angle_beta 68.254336
_cell_angle_gamma 90.000000
_cell_volume 1775.851942
_symmetry_space_group_name_H-M "C 2/C"
_symmetry_group_IT_number 15
_symmetry_cell_setting 'monoclinic'
loop_
_space_group_symop_operation_xyz
x,y,z
-x,y,1/2-z
-x,-y,-z
x,-y,1/2+z
1/2+x,1/2+y,z
1/2-x,1/2+y,1/2-z
1/2-x,1/2-y,-z
1/2+x,1/2-y,1/2+z
loop_
_atom_site_type_symbol
_atom_site_label
_atom_site_fract_x
_atom_site_fract_y
_atom_site_fract_z
Si Si1 0.420140 0.109917 0.627931
Si Si2 0.351779 0.990408 0.332181
Si Si3 0.558662 0.823713 0.068215
Si Si4 0.648474 0.513651 0.439866
Si Si5 0.250000 0.250000 0.500000
Si Si6 0.749741 0.297365 0.691089
O O1 0.384963 0.952454 0.721923
O O2 0.486699 0.187190 0.624688
O O3 0.378610 0.352423 0.629596
O O4 0.431037 0.970464 0.529573
O O5 0.403436 0.941131 0.374303
O O6 0.307898 0.744171 0.340274
O O7 0.302404 0.183458 0.396215
O O8 0.590438 0.555187 0.031794
O O9 0.695738 0.692778 0.460742
O O10 0.689211 0.262687 0.399281
O O11 0.752150 0.557548 0.741579
#
# Coordination Sequence:
#
# PCOD9297890 Si02
#       6
#     8   8   8   8   4   8
#     4  11  23  48  70 103 148 200 253 321 386 469
#     4  11  23  44  73 105 151 194 258 311 399 464
#     4  11  25  44  73 102 147 199 259 319 382 473
#     4  11  23  43  69 104 149 188 258 318 397 457
#     4  10  24  42  70 108 144 184 246 324 378 474
#     4  11  24  42  73 112 151 196 257 322 393 475
#
# _framework density 24.776838999999999
#
# number of rings (size 3 to 8) (size 9 to 14) (size 15 to 20)
#    0.000    1.091    3.636    2.182    0.000    5.818 
#    3.273    0.000    4.000    0.000    0.000    0.000 
#    0.000    0.000    0.000    0.000    0.000    0.000 
#
# Total GULP energy -122679.396407 kJ/mol
# GULP energy per Si atom -5576.336200 kJ/mol
# Density = 2.472045 g / cm^3
# Si number density = 24.776839 Si / 1000 Ang^3
#
#
#
# Elastic Constant Matrix: (Units=GPa)
#
#
# Indices 1 2 3 4 5 6 
#
# 1 243.9841 30.8641 52.4251 0.0000 0.1205 0.0000
# 2 30.8641 74.0134 27.8113 -0.0002 4.0821 -0.0001
# 3 52.4251 27.8113 125.0077 0.0000 -8.6160 0.0000
# 4 0.0000 -0.0002 0.0000 35.0213 0.0000 -12.2295
# 5 0.1205 4.0821 -8.6160 0.0000 50.5028 0.0000
# 6 0.0000 -0.0001 0.0000 -12.2295 0.0000 12.1248
#
#
#
# Elastic Compliance Matrix: (Units=1/GPa)
#
#
# Indices 1 2 3 4 5 6 
#
# 1 0.004619 -0.001291 -0.001663 0.000000 -0.000190 0.000000
# 2 -0.001291 0.015263 -0.002974 0.000000 -0.001738 0.000000
# 3 -0.001663 -0.002974 0.009487 0.000000 0.001863 0.000000
# 4 0.000000 0.000000 0.000000 0.044080 0.000000 0.044460
# 5 -0.000190 -0.001738 0.001863 0.000000 0.020260 0.000000
# 6 0.000000 0.000000 0.000000 0.044460 0.000000 0.127320
#
#
# Mechanical properties :
#
#
# Convention : Reuss Voigt Hill
#
# Bulk Modulus (GPa) = 57.10039 73.91180 65.50610
# Shear Modulus (GPa) = 20.94486 41.65677 31.30081
#
# Velocity S-wave (km/s) = 2.91063 4.10479 3.55816
# Velocity P-wave (km/s) = 5.86443 7.23612 6.58609
#
# Compressibility (1/GPa) = 0.01751301
#
# Stress axis : x y z
#
# Youngs Moduli (GPa) = 216.47887 65.51901 105.40670
#
# Poissons Ratio (x) = 0.08458 0.17531
# Poissons Ratio (y) = 0.27944 0.31348
# Poissons Ratio (z) = 0.36005 0.19486
#
# Static dielectric constant tensor:
#      x y z
#    x 1.914040 0.000000 0.001720 
#    y 0.000000 2.078790 0.000000 
#    z 0.001720 0.000000 1.996080 
# 
# From -- ./inp_files/175387.got.cif
#   From: 2010.05.17/outbox.cif.g08.bks.cpg/sg15_88_cif.got.tgz:175387.got - 2010.06.03 18:47:42.
