data_PCOD9297016
_publ_section_title
;
Structure prediction by ZEFSAII (Michael W. Deem and Ramdas Pophale) SiO2 
 PCOD9297016
Probable space group: C 2/C
;
_chemical_formula_sum "Si O2"
_cell_formula_units_Z 48
_cell_length_a 14.624143
_cell_length_b 13.260585
_cell_length_c 21.379132
_cell_angle_alpha 90.000000
_cell_angle_beta 24.294467
_cell_angle_gamma 90.000000
_cell_volume 1705.749581
_symmetry_space_group_name_H-M "C 2/C"
_symmetry_group_IT_number 15
_symmetry_cell_setting 'monoclinic'
loop_
_space_group_symop_operation_xyz
x,y,z
-x,y,1/2-z
-x,-y,-z
x,-y,1/2+z
1/2+x,1/2+y,z
1/2-x,1/2+y,1/2-z
1/2-x,1/2-y,-z
1/2+x,1/2-y,1/2+z
loop_
_atom_site_type_symbol
_atom_site_label
_atom_site_fract_x
_atom_site_fract_y
_atom_site_fract_z
Si Si1 0.785696 0.180802 0.280265
Si Si2 0.354793 0.563935 0.998328
Si Si3 0.798758 0.894130 0.116503
Si Si4 0.229539 0.670603 0.822906
Si Si5 0.491047 0.999349 0.914249
Si Si6 0.000000 0.706819 0.250000
Si Si7 0.000000 0.954987 0.750000
O O1 0.732694 0.274515 0.360096
O O2 0.841718 0.247991 0.184450
O O3 0.614265 0.103701 0.353838
O O4 0.941193 0.112321 0.226190
O O5 0.299224 0.447832 0.048684
O O6 0.139408 0.631072 0.119053
O O7 0.275162 0.511171 0.913789
O O8 0.461064 0.591571 0.000177
O O9 0.614136 0.950665 0.276221
O O10 0.043604 0.585801 0.933283
O O11 0.317062 0.726606 0.829290
O O12 0.446183 0.605106 0.667568
#
# Coordination Sequence:
#
# PCOD9297016 Si02
#       7
#     8   8   8   8   8   4   4
#     4  10  23  47  69 109 150 205 262 324 391 463
#     4   9  20  42  67 110 152 198 253 318 386 463
#     4   9  21  45  74 102 154 202 255 331 386 456
#     4  10  25  44  76 114 159 202 262 325 392 468
#     4  10  23  47  69 112 153 203 268 334 386 472
#     4  12  22  40  78 118 156 208 253 319 404 474
#     4  12  26  44  76 104 154 214 267 325 396 470
#
# _framework density 28.140121000000001
#
# number of rings (size 3 to 8) (size 9 to 14) (size 15 to 20)
#    0.000    2.333    0.000    2.000    4.667    4.000 
#   24.000    0.000    0.000    0.000    0.000    0.000 
#    0.000    0.000    0.000    0.000    0.000    0.000 
#
# Total GULP energy -134198.156668 kJ/mol
# GULP energy per Si atom -5591.589861 kJ/mol
# Density = 2.807607 g / cm^3
# Si number density = 28.140121 Si / 1000 Ang^3
#
#
#
# Elastic Constant Matrix: (Units=GPa)
#
#
# Indices 1 2 3 4 5 6 
#
# 1 111.7885 47.4127 51.8516 0.0020 -5.9030 0.0008
# 2 47.4127 196.7295 62.6783 0.0089 13.7484 -0.0141
# 3 51.8516 62.6783 156.5967 -0.0606 10.0204 0.0007
# 4 0.0020 0.0089 -0.0606 38.1235 0.0179 -5.2928
# 5 -5.9030 13.7484 10.0204 0.0179 57.3296 0.0242
# 6 0.0008 -0.0141 0.0007 -5.2928 0.0242 35.2343
#
#
#
# Elastic Compliance Matrix: (Units=1/GPa)
#
#
# Indices 1 2 3 4 5 6 
#
# 1 0.011309 -0.001879 -0.003131 -0.000007 0.002162 -0.000003
# 2 -0.001879 0.006196 -0.001770 -0.000003 -0.001370 0.000003
# 3 -0.003131 -0.001770 0.008216 0.000015 -0.001334 0.000002
# 4 -0.000007 -0.000003 0.000015 0.026789 -0.000013 0.004024
# 5 0.002162 -0.001370 -0.001334 -0.000013 0.018227 -0.000015
# 6 -0.000003 0.000003 0.000002 0.004024 -0.000015 0.028986
#
#
# Mechanical properties :
#
#
# Convention : Reuss Voigt Hill
#
# Bulk Modulus (GPa) = 82.22985 87.66667 84.94826
# Shear Modulus (GPa) = 42.61243 46.34894 44.48069
#
# Velocity S-wave (km/s) = 3.89562 4.06282 3.98010
# Velocity P-wave (km/s) = 7.03700 7.29589 7.16761
#
# Compressibility (1/GPa) = 0.01216103
#
# Stress axis : x y z
#
# Youngs Moduli (GPa) = 88.42679 161.40362 121.70968
#
# Poissons Ratio (x) = 0.30330 0.38104
# Poissons Ratio (y) = 0.16616 0.21542
# Poissons Ratio (z) = 0.27684 0.28568
#
# Static dielectric constant tensor:
#      x y z
#    x 2.315990 0.000020 0.086160 
#    y 0.000020 2.198360 0.000100 
#    z 0.086160 0.000100 2.349970 
# 
# From -- ./inp_files/152145.got.cif
#   From: 2010.05.17/outbox.cif.g08.bks.cpg/sg15_77_cif.got.tgz:152145.got - 2010.06.03 18:47:42.
