data_PCOD9297456
_publ_section_title
;
Structure prediction by ZEFSAII (Michael W. Deem and Ramdas Pophale) SiO2 
 PCOD9297456
Probable space group: C 2/C
;
_chemical_formula_sum "Si O2"
_cell_formula_units_Z 52
_cell_length_a 11.015153
_cell_length_b 8.431153
_cell_length_c 27.078145
_cell_angle_alpha 90.000000
_cell_angle_beta 113.827063
_cell_angle_gamma 90.000000
_cell_volume 2300.423691
_symmetry_space_group_name_H-M "C 2/C"
_symmetry_group_IT_number 15
_symmetry_cell_setting 'monoclinic'
loop_
_space_group_symop_operation_xyz
x,y,z
-x,y,1/2-z
-x,-y,-z
x,-y,1/2+z
1/2+x,1/2+y,z
1/2-x,1/2+y,1/2-z
1/2-x,1/2-y,-z
1/2+x,1/2-y,1/2+z
loop_
_atom_site_type_symbol
_atom_site_label
_atom_site_fract_x
_atom_site_fract_y
_atom_site_fract_z
Si Si1 0.000000 0.555101 0.750000
Si Si2 0.729585 0.382035 0.292690
Si Si3 0.409629 0.621134 0.636261
Si Si4 0.107155 0.669871 0.967689
Si Si5 0.339308 0.164549 0.973817
Si Si6 0.366967 0.184436 0.306008
Si Si7 0.981706 0.246080 0.153082
O O1 0.916118 0.437060 0.771062
O O2 0.938627 0.671920 0.697831
O O3 0.615133 0.332863 0.311068
O O4 0.687787 0.339482 0.230443
O O5 0.759986 0.564975 0.311161
O O6 0.861266 0.280409 0.323450
O O7 0.267773 0.633467 0.586868
O O8 0.520219 0.750442 0.638636
O O9 0.457572 0.440460 0.642530
O O10 0.081880 0.669908 0.904934
O O11 0.974085 0.740747 0.972813
O O12 0.250000 0.750000 0.000000
O O13 0.119238 0.496621 0.992537
O O14 0.250000 0.250000 0.000000
#
# Coordination Sequence:
#
# PCOD9297456 Si02
#       7
#     4   8   8   8   8   8   8
#     4  10  24  40  68 104 136 188 232 294 358 438
#     4  11  24  42  66  97 139 186 233 296 351 426
#     4  12  24  45  66  99 142 187 228 302 359 427
#     4  11  24  51  72 105 144 190 242 308 362 435
#     4  11  27  45  76 105 142 186 247 303 371 428
#     4  11  24  41  66 100 140 185 242 286 360 435
#     4  11  25  44  69 101 144 183 243 293 361 432
#
# _framework density 22.604533
#
# number of rings (size 3 to 8) (size 9 to 14) (size 15 to 20)
#    0.000    0.923    4.615    0.923   10.769    0.615 
#    0.000    0.000    0.000    0.000    0.000    0.000 
#    0.000    0.000    0.000    0.000    0.000    0.000 
#
# Total GULP energy -145046.262253 kJ/mol
# GULP energy per Si atom -5578.702394 kJ/mol
# Density = 2.255308 g / cm^3
# Si number density = 22.604533 Si / 1000 Ang^3
#
#
#
# Elastic Constant Matrix: (Units=GPa)
#
#
# Indices 1 2 3 4 5 6 
#
# 1 103.3897 55.0239 52.8115 0.0000 13.3591 0.0000
# 2 55.0239 88.1038 15.1539 0.0000 8.6796 0.0000
# 3 52.8115 15.1539 117.5418 0.0000 9.2772 0.0000
# 4 0.0000 0.0000 0.0000 33.4592 0.0000 10.8172
# 5 13.3591 8.6796 9.2772 0.0000 38.1152 0.0000
# 6 0.0000 0.0000 0.0000 10.8172 0.0000 44.4177
#
#
#
# Elastic Compliance Matrix: (Units=1/GPa)
#
#
# Indices 1 2 3 4 5 6 
#
# 1 0.019232 -0.010536 -0.007076 0.000000 -0.002619 0.000000
# 2 -0.010536 0.017585 0.002540 0.000000 -0.000930 0.000000
# 3 -0.007076 0.002540 0.011429 0.000000 -0.000880 0.000000
# 4 0.000000 0.000000 0.000000 0.032441 0.000000 -0.007901
# 5 -0.002619 -0.000930 -0.000880 0.000000 0.027580 0.000000
# 6 0.000000 0.000000 0.000000 -0.007901 0.000000 0.024438
#
#
# Mechanical properties :
#
#
# Convention : Reuss Voigt Hill
#
# Bulk Modulus (GPa) = 55.24157 61.66821 58.45489
# Shear Modulus (GPa) = 29.60621 35.60151 32.60386
#
# Velocity S-wave (km/s) = 3.62297 3.97290 3.80196
# Velocity P-wave (km/s) = 6.48016 6.95599 6.72229
#
# Compressibility (1/GPa) = 0.01810231
#
# Stress axis : x y z
#
# Youngs Moduli (GPa) = 51.99588 56.86623 87.49800
#
# Poissons Ratio (x) = 0.59915 0.61913
# Poissons Ratio (y) = 0.54784 -0.22226
# Poissons Ratio (z) = 0.36792 -0.14445
#
# Static dielectric constant tensor:
#      x y z
#    x 1.942870 0.000000 0.012920 
#    y 0.000000 1.858200 0.000000 
#    z 0.012920 0.000000 1.890420 
# 
# From -- ./inp_files/291710.got.cif
#   From: 2010.05.17/outbox.cif.g08.bks.cpg/sg15_146_cif.got.tgz:291710.got - 2010.06.03 18:47:42.
