data_PCOD9298744
_publ_section_title
;
Structure prediction by ZEFSAII (Michael W. Deem and Ramdas Pophale) SiO2 
 PCOD9298744
Probable space group: C 2/C
;
_chemical_formula_sum "Si O2"
_cell_formula_units_Z 48
_cell_length_a 11.274550
_cell_length_b 14.399668
_cell_length_c 26.592064
_cell_angle_alpha 90.000000
_cell_angle_beta 149.229403
_cell_angle_gamma 90.000000
_cell_volume 2208.696152
_symmetry_space_group_name_H-M "C 2/C"
_symmetry_group_IT_number 15
_symmetry_cell_setting 'monoclinic'
loop_
_space_group_symop_operation_xyz
x,y,z
-x,y,1/2-z
-x,-y,-z
x,-y,1/2+z
1/2+x,1/2+y,z
1/2-x,1/2+y,1/2-z
1/2-x,1/2-y,-z
1/2+x,1/2-y,1/2+z
loop_
_atom_site_type_symbol
_atom_site_label
_atom_site_fract_x
_atom_site_fract_y
_atom_site_fract_z
Si Si1 0.734169 0.569743 0.858367
Si Si2 0.007247 0.396812 0.312012
Si Si3 0.073969 0.393502 0.854506
Si Si4 0.199273 0.547608 0.503220
Si Si5 0.203117 0.741879 0.689368
Si Si6 0.036990 0.110143 0.456834
O O1 0.500000 0.525715 0.750000
O O2 0.756004 0.669402 0.840384
O O3 0.963249 0.511221 0.927801
O O4 0.720374 0.581461 0.913224
O O5 0.845606 0.322699 0.280612
O O6 0.000000 0.386520 0.250000
O O7 0.955175 0.504587 0.306504
O O8 0.258821 0.377579 0.428352
O O9 0.142494 0.381206 0.937829
O O10 0.299268 0.399540 0.901059
O O11 0.908831 0.312552 0.775872
O O12 0.390648 0.480100 0.548434
O O13 0.993529 0.806765 0.593858
#
# Coordination Sequence:
#
# PCOD9298744 Si02
#       6
#     8   8   8   8   8   8
#     4  11  24  43  68 105 144 179 227 289 349 418
#     4  11  24  44  69 101 141 184 236 286 353 425
#     4  11  24  46  72 105 135 188 235 287 354 420
#     4  10  24  45  72 102 137 190 234 279 359 417
#     4  12  25  45  69 106 144 179 235 295 356 418
#     4  11  23  45  71 101 139 185 234 292 349 426
#
# _framework density 21.732278000000001
#
# number of rings (size 3 to 8) (size 9 to 14) (size 15 to 20)
#    0.000    1.000    3.333    5.000    2.333    4.000 
#    3.000    2.500    0.000    0.000    0.000    0.000 
#    0.000    0.000    0.000    0.000    0.000    0.000 
#
# Total GULP energy -134303.157145 kJ/mol
# GULP energy per Si atom -5595.964881 kJ/mol
# Density = 2.168281 g / cm^3
# Si number density = 21.732278 Si / 1000 Ang^3
#
#
#
# Elastic Constant Matrix: (Units=GPa)
#
#
# Indices 1 2 3 4 5 6 
#
# 1 143.1989 55.4040 78.6673 -0.0001 -44.8051 -0.0004
# 2 55.4040 75.9094 47.5724 0.0001 -3.2403 0.0001
# 3 78.6673 47.5724 115.3893 -0.0008 -22.8234 -0.0025
# 4 -0.0001 0.0001 -0.0008 36.4596 -0.0002 -8.9912
# 5 -44.8051 -3.2403 -22.8234 -0.0002 53.5777 -0.0007
# 6 -0.0004 0.0001 -0.0025 -8.9912 -0.0007 8.7246
#
#
#
# Elastic Compliance Matrix: (Units=1/GPa)
#
#
# Indices 1 2 3 4 5 6 
#
# 1 0.016851 -0.008088 -0.005966 0.000000 0.011061 0.000000
# 2 -0.008088 0.021893 -0.005010 -0.000001 -0.007574 -0.000004
# 3 -0.005966 -0.005010 0.015018 0.000002 0.001105 0.000006
# 4 0.000000 -0.000001 0.000002 0.036773 0.000001 0.037897
# 5 0.011061 -0.007574 0.001105 0.000001 0.027927 0.000005
# 6 0.000000 -0.000004 0.000006 0.037897 0.000005 0.153673
#
#
# Mechanical properties :
#
#
# Convention : Reuss Voigt Hill
#
# Bulk Modulus (GPa) = 63.96312 77.53167 70.74739
# Shear Modulus (GPa) = 15.84911 29.94265 22.89588
#
# Velocity S-wave (km/s) = 2.70346 3.71589 3.24935
# Velocity P-wave (km/s) = 6.26428 7.35960 6.83392
#
# Compressibility (1/GPa) = 0.01563401
#
# Stress axis : x y z
#
# Youngs Moduli (GPa) = 59.34423 45.67593 66.58791
#
# Poissons Ratio (x) = 0.36943 0.39725
# Poissons Ratio (y) = 0.47998 0.33362
# Poissons Ratio (z) = 0.35404 0.22884
#
# Static dielectric constant tensor:
#      x y z
#    x 1.802030 0.000000 0.025140 
#    y 0.000000 1.781430 0.000000 
#    z 0.025140 0.000000 1.832040 
# 
# From -- ./inp_files/293122.got.cif
#   From: 2010.05.17/outbox.cif.g08.bks.cpg/sg15_147_cif.got.tgz:293122.got - 2010.06.03 18:47:42.
