data_PCOD9298667
_publ_section_title
;
Structure prediction by ZEFSAII (Michael W. Deem and Ramdas Pophale) SiO2 
 PCOD9298667
Probable space group: C 2/C
;
_chemical_formula_sum "Si O2"
_cell_formula_units_Z 60
_cell_length_a 14.822572
_cell_length_b 14.069584
_cell_length_c 27.027189
_cell_angle_alpha 90.000000
_cell_angle_beta 31.742037
_cell_angle_gamma 90.000000
_cell_volume 2965.312620
_symmetry_space_group_name_H-M "C 2/C"
_symmetry_group_IT_number 15
_symmetry_cell_setting 'monoclinic'
loop_
_space_group_symop_operation_xyz
x,y,z
-x,y,1/2-z
-x,-y,-z
x,-y,1/2+z
1/2+x,1/2+y,z
1/2-x,1/2+y,1/2-z
1/2-x,1/2-y,-z
1/2+x,1/2-y,1/2+z
loop_
_atom_site_type_symbol
_atom_site_label
_atom_site_fract_x
_atom_site_fract_y
_atom_site_fract_z
Si Si1 0.854737 0.612207 0.216280
Si Si2 0.983426 0.021526 0.372828
Si Si3 0.178188 0.830111 0.287361
Si Si4 0.250768 0.573698 0.391249
Si Si5 0.797051 0.713860 0.839214
Si Si6 0.587689 0.950850 0.386870
Si Si7 0.340631 0.549820 0.545268
Si Si8 0.000000 0.456626 0.750000
O O1 0.655519 0.581208 0.304531
O O2 0.878777 0.722171 0.192594
O O3 0.943876 0.536964 0.137360
O O4 0.919865 0.598967 0.241399
O O5 0.902489 0.056281 0.359325
O O6 0.862404 0.032717 0.476966
O O7 0.036487 0.910970 0.345001
O O8 0.242938 0.834746 0.313282
O O9 0.332785 0.862416 0.179538
O O10 0.266645 0.673721 0.356003
O O11 0.224394 0.491971 0.362783
O O12 0.080452 0.573979 0.504298
O O13 0.679123 0.661977 0.934862
O O14 0.000000 0.700337 0.750000
O O15 0.500000 0.500000 0.500000
O O16 0.161629 0.511595 0.650859
#
# Coordination Sequence:
#
# PCOD9298667 Si02
#       8
#     8   8   8   8   8   8   8   4
#     4  11  23  43  67  96 138 181 233 288 346 428
#     4  11  25  43  69 102 140 180 235 296 351 419
#     4  11  24  44  66  98 137 184 227 293 352 422
#     4  11  25  44  70 100 137 185 234 300 349 427
#     4  12  25  42  71 103 136 182 240 293 354 417
#     4  10  24  45  68  96 144 181 234 289 360 417
#     4  12  23  44  68 101 141 181 228 294 356 416
#     4  12  24  42  66 100 136 182 228 288 350 418
#
# _framework density 20.233955000000002
#
# number of rings (size 3 to 8) (size 9 to 14) (size 15 to 20)
#    0.000    0.800    4.667    2.400    5.600    1.600 
#    0.000    4.000    0.000    0.000    0.000    0.000 
#    0.000    0.000    0.000    0.000    0.000    0.000 
#
# Total GULP energy -167668.161663 kJ/mol
# GULP energy per Si atom -5588.938722 kJ/mol
# Density = 2.018790 g / cm^3
# Si number density = 20.233955 Si / 1000 Ang^3
#
#
#
# Elastic Constant Matrix: (Units=GPa)
#
#
# Indices 1 2 3 4 5 6 
#
# 1 113.6232 16.5356 8.6583 0.0001 -1.0458 0.0000
# 2 16.5356 48.4803 11.6160 0.0000 -8.1583 -0.0001
# 3 8.6583 11.6160 93.2668 0.0003 3.4209 0.0000
# 4 0.0001 0.0000 0.0003 20.5056 -0.0002 0.3153
# 5 -1.0458 -8.1583 3.4209 -0.0002 34.3379 -0.0001
# 6 0.0000 -0.0001 0.0000 0.3153 -0.0001 20.8588
#
#
#
# Elastic Compliance Matrix: (Units=1/GPa)
#
#
# Indices 1 2 3 4 5 6 
#
# 1 0.009287 -0.003128 -0.000457 0.000000 -0.000415 0.000000
# 2 -0.003128 0.023335 -0.002826 0.000000 0.005730 0.000000
# 3 -0.000457 -0.002826 0.011182 0.000000 -0.001799 0.000000
# 4 0.000000 0.000000 0.000000 0.048779 0.000000 -0.000737
# 5 -0.000415 0.005730 -0.001799 0.000000 0.030650 0.000000
# 6 0.000000 0.000000 0.000000 -0.000737 0.000000 0.047953
#
#
# Mechanical properties :
#
#
# Convention : Reuss Voigt Hill
#
# Bulk Modulus (GPa) = 32.27670 36.55444 34.41557
# Shear Modulus (GPa) = 25.72854 29.71115 27.71985
#
# Velocity S-wave (km/s) = 3.56975 3.83610 3.70532
# Velocity P-wave (km/s) = 5.74258 6.14215 5.94572
#
# Compressibility (1/GPa) = 0.03098210
#
# Stress axis : x y z
#
# Youngs Moduli (GPa) = 107.67449 42.85364 89.42643
#
# Poissons Ratio (x) = 0.13404 0.04090
# Poissons Ratio (y) = 0.33679 0.25273
# Poissons Ratio (z) = 0.04925 0.12111
#
# Static dielectric constant tensor:
#      x y z
#    x 1.732010 0.000000 0.018730 
#    y 0.000000 1.726630 0.000000 
#    z 0.018730 0.000000 1.757940 
# 
# From -- ./inp_files/296676.got.cif
#   From: 2010.05.17/outbox.cif.g08.bks.cpg/sg15_149_cif.got.tgz:296676.got - 2010.06.03 18:47:42.
