data_PCOD9298698
_publ_section_title
;
Structure prediction by ZEFSAII (Michael W. Deem and Ramdas Pophale) SiO2 
 PCOD9298698
Probable space group: C 2/C
;
_chemical_formula_sum "Si O2"
_cell_formula_units_Z 40
_cell_length_a 20.234800
_cell_length_b 5.040569
_cell_length_c 24.040039
_cell_angle_alpha 90.000000
_cell_angle_beta 134.745725
_cell_angle_gamma 90.000000
_cell_volume 1741.475998
_symmetry_space_group_name_H-M "C 2/C"
_symmetry_group_IT_number 15
_symmetry_cell_setting 'monoclinic'
loop_
_space_group_symop_operation_xyz
x,y,z
-x,y,1/2-z
-x,-y,-z
x,-y,1/2+z
1/2+x,1/2+y,z
1/2-x,1/2+y,1/2-z
1/2-x,1/2-y,-z
1/2+x,1/2-y,1/2+z
loop_
_atom_site_type_symbol
_atom_site_label
_atom_site_fract_x
_atom_site_fract_y
_atom_site_fract_z
Si Si1 0.189636 0.820282 0.223637
Si Si2 0.904306 0.362167 0.162981
Si Si3 0.681932 0.629543 0.844889
Si Si4 0.995153 0.246235 0.956481
Si Si5 0.835702 0.620808 0.014747
O O1 0.252031 0.558853 0.268445
O O2 0.165282 0.920027 0.270781
O O3 0.100090 0.750693 0.134619
O O4 0.830985 0.559429 0.149923
O O5 0.886261 0.422526 0.087488
O O6 0.000000 0.437833 0.250000
O O7 0.889988 0.051439 0.164011
O O8 0.780011 0.524557 0.927050
O O9 0.079780 0.219835 0.962485
O O10 0.000000 0.500000 0.000000
O O11 0.000000 0.000000 0.000000
O O12 0.750000 0.750000 0.000000
#
# Coordination Sequence:
#
# PCOD9298698 Si02
#       5
#     8   8   8   8   8
#     4  12  25  45  70 101 140 188 239 298 360 432
#     4  11  23  40  64  96 132 176 226 284 346 413
#     4  11  23  41  64  95 131 176 226 284 346 413
#     4  12  27  47  74 107 144 191 244 299 364 435
#     4  10  24  45  70 101 141 183 231 289 351 421
#
# _framework density 22.969021999999999
#
# number of rings (size 3 to 8) (size 9 to 14) (size 15 to 20)
#    0.000    0.800    0.000    7.200    0.000   11.200 
#    0.000    0.000    0.000    0.000    0.000    0.000 
#    0.000    0.000    0.000    0.000    0.000    0.000 
#
# Total GULP energy -111715.741836 kJ/mol
# GULP energy per Si atom -5585.787092 kJ/mol
# Density = 2.291674 g / cm^3
# Si number density = 22.969022 Si / 1000 Ang^3
#
#
#
# Elastic Constant Matrix: (Units=GPa)
#
#
# Indices 1 2 3 4 5 6 
#
# 1 104.4378 32.0777 19.3924 -0.0066 1.5203 0.0047
# 2 32.0777 104.2311 16.6397 -0.0061 -0.8593 0.0062
# 3 19.3924 16.6397 144.8334 -0.0156 -0.8135 -0.0089
# 4 -0.0066 -0.0061 -0.0156 81.7366 -0.0003 3.0573
# 5 1.5203 -0.8593 -0.8135 -0.0003 40.3233 0.0005
# 6 0.0047 0.0062 -0.0089 3.0573 0.0005 33.9711
#
#
#
# Elastic Compliance Matrix: (Units=1/GPa)
#
#
# Indices 1 2 3 4 5 6 
#
# 1 0.010747 -0.003139 -0.001081 0.000000 -0.000494 -0.000001
# 2 -0.003139 0.010692 -0.000806 0.000000 0.000330 -0.000002
# 3 -0.001081 -0.000806 0.007143 0.000001 0.000168 0.000002
# 4 0.000000 0.000000 0.000001 0.012276 0.000000 -0.001105
# 5 -0.000494 0.000330 0.000168 0.000000 0.024829 0.000000
# 6 -0.000001 -0.000002 0.000002 -0.001105 0.000000 0.029536
#
#
# Mechanical properties :
#
#
# Convention : Reuss Voigt Hill
#
# Bulk Modulus (GPa) = 53.96974 54.41353 54.19164
# Shear Modulus (GPa) = 44.86281 50.23237 47.54759
#
# Velocity S-wave (km/s) = 4.42428 4.68157 4.55474
# Velocity P-wave (km/s) = 7.04605 7.27765 7.16279
#
# Compressibility (1/GPa) = 0.01852890
#
# Stress axis : x y z
#
# Youngs Moduli (GPa) = 93.04800 93.53202 140.00101
#
# Poissons Ratio (x) = 0.29359 0.15136
# Poissons Ratio (y) = 0.29208 0.11287
# Poissons Ratio (z) = 0.10060 0.07540
#
# Static dielectric constant tensor:
#      x y z
#    x 1.905070 -0.000010 0.004910 
#    y -0.000010 1.830250 0.000010 
#    z 0.004910 0.000010 1.892530 
# 
# From -- ./inp_files/279098.got.cif
#   From: 2010.05.17/outbox.cif.g08.bks.cpg/sg15_140_cif.got.tgz:279098.got - 2010.06.03 18:47:42.
