data_PCOD9298862
_publ_section_title
;
Structure prediction by ZEFSAII (Michael W. Deem and Ramdas Pophale) SiO2 
 PCOD9298862
Probable space group: C 2/C
;
_chemical_formula_sum "Si O2"
_cell_formula_units_Z 48
_cell_length_a 12.717708
_cell_length_b 20.422999
_cell_length_c 13.675215
_cell_angle_alpha 90.000000
_cell_angle_beta 38.369542
_cell_angle_gamma 90.000000
_cell_volume 2204.783877
_symmetry_space_group_name_H-M "C 2/C"
_symmetry_group_IT_number 15
_symmetry_cell_setting 'monoclinic'
loop_
_space_group_symop_operation_xyz
x,y,z
-x,y,1/2-z
-x,-y,-z
x,-y,1/2+z
1/2+x,1/2+y,z
1/2-x,1/2+y,1/2-z
1/2-x,1/2-y,-z
1/2+x,1/2-y,1/2+z
loop_
_atom_site_type_symbol
_atom_site_label
_atom_site_fract_x
_atom_site_fract_y
_atom_site_fract_z
Si Si1 0.808052 0.074656 0.422763
Si Si2 0.653563 0.308420 0.015245
Si Si3 0.993718 0.609092 0.520639
Si Si4 0.841186 0.562768 0.438090
Si Si5 0.152599 0.267581 0.812623
Si Si6 0.824670 0.670644 0.825012
O O1 0.676200 0.088704 0.430505
O O2 0.789681 0.133427 0.513417
O O3 0.000000 0.067933 0.250000
O O4 0.743274 0.007231 0.518221
O O5 0.710503 0.377861 0.016150
O O6 0.721428 0.302476 0.854345
O O7 0.750000 0.250000 0.000000
O O8 0.456165 0.289864 0.159869
O O9 0.021147 0.678796 0.447309
O O10 0.912910 0.564275 0.496367
O O11 0.873318 0.621372 0.701118
O O12 0.000000 0.573305 0.250000
O O13 0.244592 0.234593 0.836409
O O14 0.000000 0.687212 0.750000
#
# Coordination Sequence:
#
# PCOD9298862 Si02
#       6
#     8   8   8   8   8   8
#     4  11  28  45  67  98 133 180 230 276 331 396
#     4  12  23  41  67 103 137 171 223 274 338 395
#     4  11  23  44  69  97 134 180 223 272 337 398
#     4  12  23  45  70  98 137 181 219 275 335 401
#     4  12  23  41  69 104 134 175 222 275 336 397
#     4  10  24  46  67  99 137 179 225 274 334 396
#
# _framework density 21.770841000000001
#
# number of rings (size 3 to 8) (size 9 to 14) (size 15 to 20)
#    0.000    0.667    5.000    2.500    2.333    6.000 
#    0.000    2.500    0.000    0.000    0.000    0.000 
#    0.000    0.000    0.000    0.000    0.000    0.000 
#
# Total GULP energy -134361.141869 kJ/mol
# GULP energy per Si atom -5598.380911 kJ/mol
# Density = 2.172129 g / cm^3
# Si number density = 21.770841 Si / 1000 Ang^3
#
#
#
# Elastic Constant Matrix: (Units=GPa)
#
#
# Indices 1 2 3 4 5 6 
#
# 1 62.8404 19.6790 3.0919 -0.0007 16.9730 0.0004
# 2 19.6790 65.0484 -6.1036 0.0059 -1.0300 0.0051
# 3 3.0919 -6.1036 52.6020 0.0015 -1.7094 0.0053
# 4 -0.0007 0.0059 0.0015 22.6367 0.0018 -6.0850
# 5 16.9730 -1.0300 -1.7094 0.0018 23.5833 -0.0017
# 6 0.0004 0.0051 0.0053 -6.0850 -0.0017 35.7462
#
#
#
# Elastic Compliance Matrix: (Units=1/GPa)
#
#
# Indices 1 2 3 4 5 6 
#
# 1 0.023013 -0.007493 -0.002778 0.000005 -0.017091 0.000001
# 2 -0.007493 0.017998 0.002736 -0.000007 0.006377 -0.000004
# 3 -0.002778 0.002736 0.019606 -0.000003 0.003540 -0.000004
# 4 0.000005 -0.000007 -0.000003 0.046294 -0.000007 0.007881
# 5 -0.017091 0.006377 0.003540 -0.000007 0.055238 0.000000
# 6 0.000001 -0.000004 -0.000004 0.007881 0.000000 0.029316
#
#
# Mechanical properties :
#
#
# Convention : Reuss Voigt Hill
#
# Bulk Modulus (GPa) = 21.95510 23.75837 22.85674
# Shear Modulus (GPa) = 22.55113 27.31482 24.93298
#
# Velocity S-wave (km/s) = 3.22194 3.54595 3.38782
# Velocity P-wave (km/s) = 4.89364 5.26323 5.08180
#
# Compressibility (1/GPa) = 0.04554750
#
# Stress axis : x y z
#
# Youngs Moduli (GPa) = 43.45406 55.56237 51.00372
#
# Poissons Ratio (x) = 0.41634 0.14166
# Poissons Ratio (y) = 0.32561 -0.13955
# Poissons Ratio (z) = 0.12069 -0.15202
#
# Static dielectric constant tensor:
#      x y z
#    x 1.810080 0.000000 0.019460 
#    y 0.000000 1.766010 0.000000 
#    z 0.019460 0.000000 1.785810 
# 
# From -- ./inp_files/147369.got.cif
#   From: 2010.05.17/outbox.cif.g08.bks.cpg/sg15_74_cif.got.tgz:147369.got - 2010.06.03 18:47:42.
