data_PCOD9298905
_publ_section_title
;
Structure prediction by ZEFSAII (Michael W. Deem and Ramdas Pophale) SiO2 
 PCOD9298905
Probable space group: C 2/C
;
_chemical_formula_sum "Si O2"
_cell_formula_units_Z 40
_cell_length_a 15.083870
_cell_length_b 14.173158
_cell_length_c 9.244287
_cell_angle_alpha 90.000000
_cell_angle_beta 116.475297
_cell_angle_gamma 90.000000
_cell_volume 1769.038643
_symmetry_space_group_name_H-M "C 2/C"
_symmetry_group_IT_number 15
_symmetry_cell_setting 'monoclinic'
loop_
_space_group_symop_operation_xyz
x,y,z
-x,y,1/2-z
-x,-y,-z
x,-y,1/2+z
1/2+x,1/2+y,z
1/2-x,1/2+y,1/2-z
1/2-x,1/2-y,-z
1/2+x,1/2-y,1/2+z
loop_
_atom_site_type_symbol
_atom_site_label
_atom_site_fract_x
_atom_site_fract_y
_atom_site_fract_z
Si Si1 0.780324 0.502827 0.244370
Si Si2 0.678877 0.312066 0.542697
Si Si3 0.494766 0.279557 0.582096
Si Si4 0.596173 0.921720 0.412903
Si Si5 0.080273 0.081745 0.718399
O O1 0.815919 0.433956 0.141466
O O2 0.867712 0.516721 0.424884
O O3 0.681856 0.468152 0.252491
O O4 0.744606 0.603568 0.155457
O O5 0.750000 0.250000 0.500000
O O6 0.607512 0.262801 0.607718
O O7 0.604244 0.348105 0.366051
O O8 0.500000 0.311381 0.750000
O O9 0.431504 0.182265 0.545402
O O10 0.451264 0.360733 0.447147
O O11 0.500000 0.953116 0.250000
O O12 0.000000 0.019811 0.750000
#
# Coordination Sequence:
#
# PCOD9298905 Si02
#       5
#     8   8   8   8   8
#     4  12  25  45  74 104 142 190 239 298 357 431
#     4  11  25  44  70 102 144 193 237 286 370 435
#     4  10  25  44  73 105 145 185 238 302 352 423
#     4  11  26  46  70 107 145 185 240 298 359 426
#     4  10  24  46  69 105 145 185 239 296 362 429
#
# _framework density 22.611152000000001
#
# number of rings (size 3 to 8) (size 9 to 14) (size 15 to 20)
#    0.000    1.200    2.000    1.800    8.400    6.400 
#    0.000    0.000    0.000    0.000    0.000    0.000 
#    0.000    0.000    0.000    0.000    0.000    0.000 
#
# Total GULP energy -111591.706621 kJ/mol
# GULP energy per Si atom -5579.585331 kJ/mol
# Density = 2.255969 g / cm^3
# Si number density = 22.611152 Si / 1000 Ang^3
#
#
#
# Elastic Constant Matrix: (Units=GPa)
#
#
# Indices 1 2 3 4 5 6 
#
# 1 180.3830 70.1108 42.9332 0.0000 -34.9551 0.0000
# 2 70.1108 82.4718 32.0089 0.0000 -21.0558 0.0000
# 3 42.9332 32.0089 138.8032 0.0000 -16.3394 0.0000
# 4 0.0000 0.0000 0.0000 22.2411 0.0000 2.5449
# 5 -34.9551 -21.0558 -16.3394 0.0000 44.3063 0.0000
# 6 0.0000 0.0000 0.0000 2.5449 0.0000 61.3057
#
#
#
# Elastic Compliance Matrix: (Units=1/GPa)
#
#
# Indices 1 2 3 4 5 6 
#
# 1 0.008919 -0.006294 -0.000869 0.000000 0.003725 0.000000
# 2 -0.006294 0.019139 -0.002071 0.000000 0.003366 0.000000
# 3 -0.000869 -0.002071 0.008106 0.000000 0.001320 0.000000
# 4 0.000000 0.000000 0.000000 0.045176 0.000000 -0.001875
# 5 0.003725 0.003366 0.001320 0.000000 0.027596 0.000000
# 6 0.000000 0.000000 0.000000 -0.001875 0.000000 0.016390
#
#
# Mechanical properties :
#
#
# Convention : Reuss Voigt Hill
#
# Bulk Modulus (GPa) = 56.50525 76.86264 66.68395
# Shear Modulus (GPa) = 33.40238 42.67761 38.04000
#
# Velocity S-wave (km/s) = 3.84767 4.34920 4.10610
# Velocity P-wave (km/s) = 6.69206 7.69986 7.21358
#
# Compressibility (1/GPa) = 0.01769747
#
# Stress axis : x y z
#
# Youngs Moduli (GPa) = 112.12588 52.24985 123.36498
#
# Poissons Ratio (x) = 0.32884 0.10717
# Poissons Ratio (y) = 0.70568 0.25543
# Poissons Ratio (z) = 0.09741 0.10819
#
# Static dielectric constant tensor:
#      x y z
#    x 1.960010 0.000000 0.402770 
#    y 0.000000 1.991170 0.000000 
#    z 0.402770 0.000000 1.149400 
# 
# From -- ./inp_files/38054.got.cif
#   From: 2010.05.17/outbox.cif.g08.bks.cpg/sg15_20_cif.got.tgz:38054.got - 2010.06.03 18:47:42.
