data_PCOD9298788
_publ_section_title
;
Structure prediction by ZEFSAII (Michael W. Deem and Ramdas Pophale) SiO2 
 PCOD9298788
Probable space group: C 2/C
;
_chemical_formula_sum "Si O2"
_cell_formula_units_Z 44
_cell_length_a 7.882507
_cell_length_b 27.175692
_cell_length_c 11.374324
_cell_angle_alpha 90.000000
_cell_angle_beta 47.637761
_cell_angle_gamma 90.000000
_cell_volume 1800.346060
_symmetry_space_group_name_H-M "C 2/C"
_symmetry_group_IT_number 15
_symmetry_cell_setting 'monoclinic'
loop_
_space_group_symop_operation_xyz
x,y,z
-x,y,1/2-z
-x,-y,-z
x,-y,1/2+z
1/2+x,1/2+y,z
1/2-x,1/2+y,1/2-z
1/2-x,1/2-y,-z
1/2+x,1/2-y,1/2+z
loop_
_atom_site_type_symbol
_atom_site_label
_atom_site_fract_x
_atom_site_fract_y
_atom_site_fract_z
Si Si1 0.909567 0.817552 0.065456
Si Si2 0.325653 0.783458 0.723919
Si Si3 0.368069 0.049277 0.645995
Si Si4 0.000000 0.463372 0.750000
Si Si5 0.084213 0.082893 0.553639
Si Si6 0.758980 0.368209 0.575109
O O1 0.822265 0.771953 0.179147
O O2 0.045347 0.858555 0.077311
O O3 0.744049 0.846243 0.055111
O O4 0.080064 0.793815 0.892040
O O5 0.500000 0.787636 0.750000
O O6 0.366766 0.825927 0.608343
O O7 0.463955 0.998557 0.653323
O O8 0.207420 0.058733 0.607967
O O9 0.580913 0.084514 0.515096
O O10 0.174584 0.062435 0.836565
O O11 0.230622 0.430508 0.633037
O O12 0.500000 0.378117 0.750000
#
# Coordination Sequence:
#
# PCOD9298788 Si02
#       6
#     8   8   8   4   8   8
#     4  11  25  44  69 107 147 199 241 301 358 434
#     4  11  24  42  69 104 146 198 245 294 359 428
#     4  11  25  49  75 109 140 194 242 302 366 448
#     4  12  26  50  76 110 146 186 242 308 376 434
#     4  11  27  46  77 107 147 188 247 301 368 432
#     4  10  24  45  74 108 152 191 243 300 366 429
#
# _framework density 24.439744000000001
#
# number of rings (size 3 to 8) (size 9 to 14) (size 15 to 20)
#    0.000    1.091    0.000    4.364   11.455    0.000 
#    3.273    0.000    0.000    0.000    0.000    0.000 
#    0.000    0.000    0.000    0.000    0.000    0.000 
#
# Total GULP energy -122907.646857 kJ/mol
# GULP energy per Si atom -5586.711221 kJ/mol
# Density = 2.438412 g / cm^3
# Si number density = 24.439744 Si / 1000 Ang^3
#
#
#
# Elastic Constant Matrix: (Units=GPa)
#
#
# Indices 1 2 3 4 5 6 
#
# 1 97.9263 36.9635 34.7265 0.0000 11.3327 0.0000
# 2 36.9635 118.4288 54.5361 0.0000 -22.9593 0.0000
# 3 34.7265 54.5361 88.3600 0.0000 -27.6311 0.0000
# 4 0.0000 0.0000 0.0000 106.1511 0.0000 11.1472
# 5 11.3327 -22.9593 -27.6311 0.0000 41.7065 0.0000
# 6 0.0000 0.0000 0.0000 11.1472 0.0000 45.7991
#
#
#
# Elastic Compliance Matrix: (Units=1/GPa)
#
#
# Indices 1 2 3 4 5 6 
#
# 1 0.015421 -0.003591 -0.007281 0.000000 -0.010991 0.000000
# 2 -0.003591 0.012782 -0.005010 0.000000 0.004693 0.000000
# 3 -0.007281 -0.005010 0.021477 0.000000 0.013449 0.000000
# 4 0.000000 0.000000 0.000000 0.009668 0.000000 -0.002353
# 5 -0.010991 0.004693 0.013449 0.000000 0.038457 0.000000
# 6 0.000000 0.000000 0.000000 -0.002353 0.000000 0.022407
#
#
# Mechanical properties :
#
#
# Convention : Reuss Voigt Hill
#
# Bulk Modulus (GPa) = 55.81947 61.90747 58.86347
# Shear Modulus (GPa) = 31.65580 50.63061 41.14321
#
# Velocity S-wave (km/s) = 3.60288 4.55648 4.10744
# Velocity P-wave (km/s) = 6.34010 7.28475 6.82878
#
# Compressibility (1/GPa) = 0.01791490
#
# Stress axis : x y z
#
# Youngs Moduli (GPa) = 64.84519 78.23753 46.56133
#
# Poissons Ratio (x) = 0.28095 0.33904
# Poissons Ratio (y) = 0.23286 0.23328
# Poissons Ratio (z) = 0.47217 0.39198
#
# Static dielectric constant tensor:
#      x y z
#    x 1.823520 0.000000 0.064200 
#    y 0.000000 1.968270 0.000000 
#    z 0.064200 0.000000 2.085430 
# 
# From -- ./inp_files/81064.got.cif
#   From: 2010.05.17/outbox.cif.g08.bks.cpg/sg15_41_cif.got.tgz:81064.got - 2010.06.03 18:47:42.
