data_PCOD9298791
_publ_section_title
;
Structure prediction by ZEFSAII (Michael W. Deem and Ramdas Pophale) SiO2 
 PCOD9298791
Probable space group: C 2/C
;
_chemical_formula_sum "Si O2"
_cell_formula_units_Z 32
_cell_length_a 15.654787
_cell_length_b 16.125209
_cell_length_c 9.358737
_cell_angle_alpha 90.000000
_cell_angle_beta 147.645947
_cell_angle_gamma 90.000000
_cell_volume 1264.284780
_symmetry_space_group_name_H-M "C 2/C"
_symmetry_group_IT_number 15
_symmetry_cell_setting 'monoclinic'
loop_
_space_group_symop_operation_xyz
x,y,z
-x,y,1/2-z
-x,-y,-z
x,-y,1/2+z
1/2+x,1/2+y,z
1/2-x,1/2+y,1/2-z
1/2-x,1/2-y,-z
1/2+x,1/2-y,1/2+z
loop_
_atom_site_type_symbol
_atom_site_label
_atom_site_fract_x
_atom_site_fract_y
_atom_site_fract_z
Si Si1 0.336060 0.760146 0.438983
Si Si2 0.000000 0.514144 0.750000
Si Si3 0.500000 0.474548 0.750000
Si Si4 0.495222 0.682522 0.088332
Si Si5 0.303685 0.083423 0.212646
O O1 0.399078 0.731099 0.373431
O O2 0.190985 0.823879 0.217821
O O3 0.251014 0.678262 0.383546
O O4 0.500000 0.781301 0.750000
O O5 0.905607 0.569754 0.500645
O O6 0.894762 0.455355 0.705296
O O7 0.555242 0.410230 0.705297
O O8 0.356696 0.530753 0.498375
O O9 0.500000 0.725349 0.250000
#
# Coordination Sequence:
#
# PCOD9298791 Si02
#       5
#     8   4   4   8   8
#     4  12  25  45  71 103 138 181 230 287 341 405
#     4  10  26  41  66 109 138 178 222 298 336 405
#     4  10  24  45  74  97 136 184 226 280 338 415
#     4  10  26  46  70  97 138 188 229 275 343 416
#     4  11  24  46  72 103 140 179 233 281 347 404
#
# _framework density 25.310755
#
# number of rings (size 3 to 8) (size 9 to 14) (size 15 to 20)
#    0.750    0.500    1.250    3.000    5.250    6.000 
#    4.500    0.000    0.000    0.000    0.000    0.000 
#    0.000    0.000    0.000    0.000    0.000    0.000 
#
# Total GULP energy -89659.623908 kJ/mol
# GULP energy per Si atom -5603.726494 kJ/mol
# Density = 2.525315 g / cm^3
# Si number density = 25.310755 Si / 1000 Ang^3
#
#
#
# Elastic Constant Matrix: (Units=GPa)
#
#
# Indices 1 2 3 4 5 6 
#
# 1 118.3156 -28.3321 16.9498 0.0000 -14.0630 0.0000
# 2 -28.3321 68.4365 15.2313 0.0000 -7.6323 0.0000
# 3 16.9498 15.2313 142.0129 0.0000 -19.9561 0.0000
# 4 0.0000 0.0000 0.0000 3.1819 0.0000 -5.0146
# 5 -14.0630 -7.6323 -19.9561 0.0000 37.3019 0.0000
# 6 0.0000 0.0000 0.0000 -5.0146 0.0000 20.4337
#
#
#
# Elastic Compliance Matrix: (Units=1/GPa)
#
#
# Indices 1 2 3 4 5 6 
#
# 1 0.010331 0.005016 -0.001167 0.000000 0.004297 0.000000
# 2 0.005016 0.017603 -0.001854 0.000000 0.004501 0.000000
# 3 -0.001167 -0.001854 0.007855 0.000000 0.003383 0.000000
# 4 0.000000 0.000000 0.000000 0.512491 0.000000 0.125770
# 5 0.004297 0.004501 0.003383 0.000000 0.031159 0.000000
# 6 0.000000 0.000000 0.000000 0.125770 0.000000 0.079804
#
#
# Mechanical properties :
#
#
# Convention : Reuss Voigt Hill
#
# Bulk Modulus (GPa) = 25.13926 37.38478 31.26202
# Shear Modulus (GPa) = 7.47928 33.84456 20.66192
#
# Velocity S-wave (km/s) = 1.72087 3.66069 2.86025
# Velocity P-wave (km/s) = 3.72858 5.71576 4.82557
#
# Compressibility (1/GPa) = 0.03977842
#
# Stress axis : x y z
#
# Youngs Moduli (GPa) = 96.79588 56.80768 127.30449
#
# Poissons Ratio (x) = -0.28494 0.14859
# Poissons Ratio (y) = -0.48552 0.23605
# Poissons Ratio (z) = 0.11298 0.10533
#
# Static dielectric constant tensor:
#      x y z
#    x 2.060000 0.000000 -0.046490 
#    y 0.000000 1.949860 0.000000 
#    z -0.046490 0.000000 1.971550 
# 
# From -- ./inp_files/42813.got.cif
#   From: 2010.05.17/outbox.cif.g08.bks.cpg/sg15_22_cif.got.tgz:42813.got - 2010.06.03 18:47:42.
