data_PCOD9298811
_publ_section_title
;
Structure prediction by ZEFSAII (Michael W. Deem and Ramdas Pophale) SiO2 
 PCOD9298811
Probable space group: C 2/C
;
_chemical_formula_sum "Si O2"
_cell_formula_units_Z 44
_cell_length_a 25.623781
_cell_length_b 8.331513
_cell_length_c 11.336279
_cell_angle_alpha 90.000000
_cell_angle_beta 52.882341
_cell_angle_gamma 90.000000
_cell_volume 1929.801972
_symmetry_space_group_name_H-M "C 2/C"
_symmetry_group_IT_number 15
_symmetry_cell_setting 'monoclinic'
loop_
_space_group_symop_operation_xyz
x,y,z
-x,y,1/2-z
-x,-y,-z
x,-y,1/2+z
1/2+x,1/2+y,z
1/2-x,1/2+y,1/2-z
1/2-x,1/2-y,-z
1/2+x,1/2-y,1/2+z
loop_
_atom_site_type_symbol
_atom_site_label
_atom_site_fract_x
_atom_site_fract_y
_atom_site_fract_z
Si Si1 0.055089 0.774343 0.930678
Si Si2 0.597077 0.029360 0.700248
Si Si3 0.557100 0.332499 0.595627
Si Si4 0.666879 0.454664 0.846715
Si Si5 0.500000 0.767457 0.750000
Si Si6 0.780904 0.343371 0.067929
O O1 0.086054 0.606751 0.844445
O O2 0.113037 0.899935 0.821829
O O3 0.985283 0.798874 0.963838
O O4 0.043564 0.800240 0.084488
O O5 0.573603 0.169560 0.643328
O O6 0.549036 0.880896 0.755154
O O7 0.665981 0.963543 0.561814
O O8 0.500000 0.418047 0.750000
O O9 0.624609 0.422987 0.483653
O O10 0.727292 0.550040 0.709104
O O11 0.690041 0.294332 0.884420
O O12 0.750000 0.250000 0.000000
#
# Coordination Sequence:
#
# PCOD9298811 Si02
#       6
#     8   8   8   8   4   8
#     4  11  25  42  78 107 145 180 238 310 365 433
#     4  11  24  47  73 106 144 191 238 295 365 434
#     4  10  24  45  77 110 145 180 234 307 372 426
#     4  12  28  48  71 108 145 191 247 297 357 439
#     4  12  22  42  74 112 138 186 234 302 370 426
#     4  12  31  48  74 101 150 203 244 294 353 436
#
# _framework density 22.800266000000001
#
# number of rings (size 3 to 8) (size 9 to 14) (size 15 to 20)
#    0.000    0.727    4.545    2.182   11.455    0.727 
#    0.000    0.000    0.000    0.000    0.000    0.000 
#    0.000    0.000    0.000    0.000    0.000    0.000 
#
# Total GULP energy -122858.164570 kJ/mol
# GULP energy per Si atom -5584.462026 kJ/mol
# Density = 2.274837 g / cm^3
# Si number density = 22.800266 Si / 1000 Ang^3
#
#
#
# Elastic Constant Matrix: (Units=GPa)
#
#
# Indices 1 2 3 4 5 6 
#
# 1 87.3699 43.3501 53.7514 0.0000 -12.5810 0.0000
# 2 43.3501 68.1495 78.9996 0.0000 -13.2060 0.0000
# 3 53.7514 78.9996 178.2753 0.0000 -34.0052 0.0000
# 4 0.0000 0.0000 0.0000 66.8416 0.0000 -3.3650
# 5 -12.5810 -13.2060 -34.0052 0.0000 49.2999 0.0000
# 6 0.0000 0.0000 0.0000 -3.3650 0.0000 101.7534
#
#
#
# Elastic Compliance Matrix: (Units=1/GPa)
#
#
# Indices 1 2 3 4 5 6 
#
# 1 0.016841 -0.010001 -0.000388 0.000000 0.001351 0.000000
# 2 -0.010001 0.036186 -0.013424 0.000000 -0.002118 0.000000
# 3 -0.000388 -0.013424 0.012632 0.000000 0.005018 0.000000
# 4 0.000000 0.000000 0.000000 0.014986 0.000000 0.000496
# 5 0.001351 -0.002118 0.005018 0.000000 0.023523 0.000000
# 6 0.000000 0.000000 0.000000 0.000496 0.000000 0.009844
#
#
# Mechanical properties :
#
#
# Convention : Reuss Voigt Hill
#
# Bulk Modulus (GPa) = 55.45354 76.22187 65.83770
# Shear Modulus (GPa) = 29.82440 54.09188 41.95814
#
# Velocity S-wave (km/s) = 3.62065 4.87604 4.29446
# Velocity P-wave (km/s) = 6.46939 8.07489 7.31631
#
# Compressibility (1/GPa) = 0.01803311
#
# Stress axis : x y z
#
# Youngs Moduli (GPa) = 59.37873 27.63532 79.16308
#
# Poissons Ratio (x) = 0.27637 0.03075
# Poissons Ratio (y) = 0.59382 1.06267
# Poissons Ratio (z) = 0.02306 0.37097
#
# Static dielectric constant tensor:
#      x y z
#    x 1.887280 0.000000 -0.002140 
#    y 0.000000 1.911430 0.000000 
#    z -0.002140 0.000000 1.913040 
# 
# From -- ./inp_files/110157.got.cif
#   From: 2010.05.17/outbox.cif.g08.bks.cpg/sg15_56_cif.got.tgz:110157.got - 2010.06.03 18:47:42.
