data_PCOD9298351
_publ_section_title
;
Structure prediction by ZEFSAII (Michael W. Deem and Ramdas Pophale) SiO2 
 PCOD9298351
Probable space group: C 2/C
;
_chemical_formula_sum "Si O2"
_cell_formula_units_Z 40
_cell_length_a 13.394084
_cell_length_b 13.276822
_cell_length_c 10.297363
_cell_angle_alpha 90.000000
_cell_angle_beta 69.755927
_cell_angle_gamma 90.000000
_cell_volume 1718.071221
_symmetry_space_group_name_H-M "C 2/C"
_symmetry_group_IT_number 15
_symmetry_cell_setting 'monoclinic'
loop_
_space_group_symop_operation_xyz
x,y,z
-x,y,1/2-z
-x,-y,-z
x,-y,1/2+z
1/2+x,1/2+y,z
1/2-x,1/2+y,1/2-z
1/2-x,1/2-y,-z
1/2+x,1/2-y,1/2+z
loop_
_atom_site_type_symbol
_atom_site_label
_atom_site_fract_x
_atom_site_fract_y
_atom_site_fract_z
Si Si1 0.921491 0.376800 0.106420
Si Si2 0.000000 0.541162 0.250000
Si Si3 0.364358 0.216238 0.384742
Si Si4 0.318128 0.416486 0.276328
Si Si5 0.500000 0.724097 0.250000
Si Si6 0.593967 0.444747 0.535029
O O1 0.805462 0.419359 0.130965
O O2 0.912569 0.296450 0.226582
O O3 0.995853 0.465079 0.129225
O O4 0.943088 0.307023 0.970872
O O5 0.106035 0.611897 0.202570
O O6 0.250000 0.250000 0.500000
O O7 0.375628 0.310121 0.283111
O O8 0.371484 0.493626 0.353086
O O9 0.323141 0.434762 0.119865
O O10 0.448784 0.657955 0.385400
O O11 0.500000 0.500000 0.500000
#
# Coordination Sequence:
#
# PCOD9298351 Si02
#       6
#     8   4   8   8   4   8
#     4  10  25  45  67 103 140 186 234 300 350 426
#     4  11  24  43  74 102 140 193 234 289 364 426
#     4  10  24  44  68 102 142 180 234 293 352 426
#     4  11  26  43  73 102 143 183 242 291 365 422
#     4  11  24  43  70  96 150 173 246 291 360 426
#     4  12  24  44  72 105 138 192 235 299 360 432
#
# _framework density 23.281921000000001
#
# number of rings (size 3 to 8) (size 9 to 14) (size 15 to 20)
#    0.000    1.200    2.000    1.800   11.200    2.400 
#    0.000    0.000    0.000    0.000    0.000    0.000 
#    0.000    0.000    0.000    0.000    0.000    0.000 
#
# Total GULP energy -111367.852769 kJ/mol
# GULP energy per Si atom -5568.392638 kJ/mol
# Density = 2.322893 g / cm^3
# Si number density = 23.281921 Si / 1000 Ang^3
#
#
#
# Elastic Constant Matrix: (Units=GPa)
#
#
# Indices 1 2 3 4 5 6 
#
# 1 64.2619 30.3364 7.1447 0.0000 1.5877 0.0000
# 2 30.3364 119.6745 28.8263 0.0000 12.7952 0.0000
# 3 7.1447 28.8263 128.9002 0.0000 8.5936 0.0000
# 4 0.0000 0.0000 0.0000 18.6373 0.0000 12.3180
# 5 1.5877 12.7952 8.5936 0.0000 38.3724 0.0000
# 6 0.0000 0.0000 0.0000 12.3180 0.0000 34.8635
#
#
#
# Elastic Compliance Matrix: (Units=1/GPa)
#
#
# Indices 1 2 3 4 5 6 
#
# 1 0.017700 -0.004569 -0.000012 0.000000 0.000794 0.000000
# 2 -0.004569 0.010262 -0.001854 0.000000 -0.002818 0.000000
# 3 -0.000012 -0.001854 0.008255 0.000000 -0.001230 0.000000
# 4 0.000000 0.000000 0.000000 0.070003 0.000000 -0.024733
# 5 0.000794 -0.002818 -0.001230 0.000000 0.027243 0.000000
# 6 0.000000 0.000000 0.000000 -0.024733 0.000000 0.037422
#
#
# Mechanical properties :
#
#
# Convention : Reuss Voigt Hill
#
# Bulk Modulus (GPa) = 42.83134 49.49459 46.16297
# Shear Modulus (GPa) = 26.10475 34.80994 30.45734
#
# Velocity S-wave (km/s) = 3.35213 3.87091 3.62082
# Velocity P-wave (km/s) = 5.78093 6.42523 6.11158
#
# Compressibility (1/GPa) = 0.02334739
#
# Stress axis : x y z
#
# Youngs Moduli (GPa) = 56.49778 97.44797 121.13567
#
# Poissons Ratio (x) = 0.44521 0.00149
# Poissons Ratio (y) = 0.25812 0.22456
# Poissons Ratio (z) = 0.00069 0.18065
#
# Static dielectric constant tensor:
#      x y z
#    x 1.670660 0.000000 -0.164210 
#    y 0.000000 1.937060 0.000000 
#    z -0.164210 0.000000 2.028200 
# 
# From -- ./inp_files/61765.got.cif
#   From: 2010.05.17/outbox.cif.g08.bks.cpg/sg15_31_cif.got.tgz:61765.got - 2010.06.03 18:47:42.
