data_PCOD9298149
_publ_section_title
;
Structure prediction by ZEFSAII (Michael W. Deem and Ramdas Pophale) SiO2 
 PCOD9298149
Probable space group: C 2/C
;
_chemical_formula_sum "Si O2"
_cell_formula_units_Z 40
_cell_length_a 14.917141
_cell_length_b 21.880086
_cell_length_c 7.597433
_cell_angle_alpha 90.000000
_cell_angle_beta 134.800508
_cell_angle_gamma 90.000000
_cell_volume 1759.516610
_symmetry_space_group_name_H-M "C 2/C"
_symmetry_group_IT_number 15
_symmetry_cell_setting 'monoclinic'
loop_
_space_group_symop_operation_xyz
x,y,z
-x,y,1/2-z
-x,-y,-z
x,-y,1/2+z
1/2+x,1/2+y,z
1/2-x,1/2+y,1/2-z
1/2-x,1/2-y,-z
1/2+x,1/2-y,1/2+z
loop_
_atom_site_type_symbol
_atom_site_label
_atom_site_fract_x
_atom_site_fract_y
_atom_site_fract_z
Si Si1 0.552231 0.342449 0.625233
Si Si2 0.500000 0.750738 0.750000
Si Si3 0.734967 0.441578 0.993483
Si Si4 0.098023 0.367845 0.742233
Si Si5 0.500000 0.083441 0.750000
Si Si6 0.166490 0.068185 0.795668
O O1 0.500000 0.325975 0.750000
O O2 0.555384 0.288492 0.487751
O O3 0.456451 0.391483 0.405453
O O4 0.681107 0.379214 0.837459
O O5 0.603137 0.797328 0.810405
O O6 0.875159 0.454871 0.120447
O O7 0.733504 0.433812 0.199201
O O8 0.645729 0.498914 0.826488
O O9 0.000000 0.395599 0.750000
O O10 0.033806 0.375976 0.465419
O O11 0.233254 0.399796 0.937379
#
# Coordination Sequence:
#
# PCOD9298149 Si02
#       6
#     8   4   8   8   4   8
#     4  10  25  45  65 102 131 175 223 271 332 391
#     4  10  24  43  70  96 133 180 222 268 328 392
#     4  11  24  41  69 100 134 176 219 272 336 394
#     4  10  24  44  62  99 131 170 226 265 326 390
#     4  12  24  43  68  96 135 172 220 278 332 386
#     4  11  23  44  68  98 138 171 222 276 330 396
#
# _framework density 22.733516999999999
#
# number of rings (size 3 to 8) (size 9 to 14) (size 15 to 20)
#    0.600    0.800    2.000    1.800    8.400    2.400 
#    0.000    3.000    0.000    0.000    0.000    0.000 
#    0.000    0.000    0.000    0.000    0.000    0.000 
#
# Total GULP energy -111833.607730 kJ/mol
# GULP energy per Si atom -5591.680387 kJ/mol
# Density = 2.268177 g / cm^3
# Si number density = 22.733517 Si / 1000 Ang^3
#
#
#
# Elastic Constant Matrix: (Units=GPa)
#
#
# Indices 1 2 3 4 5 6 
#
# 1 68.0734 2.9948 27.8828 0.0000 -21.2726 0.0000
# 2 2.9948 86.1834 17.8288 0.0000 -20.3776 0.0000
# 3 27.8828 17.8288 107.2907 0.0000 -31.3652 0.0000
# 4 0.0000 0.0000 0.0000 38.7173 0.0000 -16.2438
# 5 -21.2726 -20.3776 -31.3652 0.0000 45.7004 0.0000
# 6 0.0000 0.0000 0.0000 -16.2438 0.0000 31.5393
#
#
#
# Elastic Compliance Matrix: (Units=1/GPa)
#
#
# Indices 1 2 3 4 5 6 
#
# 1 0.018031 0.001661 -0.002867 0.000000 0.007166 0.000000
# 2 0.001661 0.013153 -0.000847 0.000000 0.006057 0.000000
# 3 -0.002867 -0.000847 0.012142 0.000000 0.006621 0.000000
# 4 0.000000 0.000000 0.000000 0.032948 0.000000 0.016969
# 5 0.007166 0.006057 0.006621 0.000000 0.032462 0.000000
# 6 0.000000 0.000000 0.000000 0.016969 0.000000 0.040446
#
#
# Mechanical properties :
#
#
# Convention : Reuss Voigt Hill
#
# Bulk Modulus (GPa) = 25.49748 39.88450 32.69099
# Shear Modulus (GPa) = 30.05537 37.38080 33.71808
#
# Velocity S-wave (km/s) = 3.63998 4.05940 3.85540
# Velocity P-wave (km/s) = 5.37644 6.28920 5.85065
#
# Compressibility (1/GPa) = 0.03921956
#
# Stress axis : x y z
#
# Youngs Moduli (GPa) = 55.46155 76.03019 82.35974
#
# Poissons Ratio (x) = -0.12627 0.23612
# Poissons Ratio (y) = -0.09211 0.06973
# Poissons Ratio (z) = 0.15901 0.06437
#
# Static dielectric constant tensor:
#      x y z
#    x 1.867970 0.000000 -0.000750 
#    y 0.000000 1.824420 0.000000 
#    z -0.000750 0.000000 1.806420 
# 
# From -- ./inp_files/50483.got.cif
#   From: 2010.05.17/outbox.cif.g08.bks.cpg/sg15_26_cif.got.tgz:50483.got - 2010.06.03 18:47:42.
