data_PCOD9298603
_publ_section_title
;
Structure prediction by ZEFSAII (Michael W. Deem and Ramdas Pophale) SiO2 
 PCOD9298603
Probable space group: C 2/C
;
_chemical_formula_sum "Si O2"
_cell_formula_units_Z 40
_cell_length_a 18.157963
_cell_length_b 6.619741
_cell_length_c 20.114120
_cell_angle_alpha 90.000000
_cell_angle_beta 45.294594
_cell_angle_gamma 90.000000
_cell_volume 1718.366136
_symmetry_space_group_name_H-M "C 2/C"
_symmetry_group_IT_number 15
_symmetry_cell_setting 'monoclinic'
loop_
_space_group_symop_operation_xyz
x,y,z
-x,y,1/2-z
-x,-y,-z
x,-y,1/2+z
1/2+x,1/2+y,z
1/2-x,1/2+y,1/2-z
1/2-x,1/2-y,-z
1/2+x,1/2-y,1/2+z
loop_
_atom_site_type_symbol
_atom_site_label
_atom_site_fract_x
_atom_site_fract_y
_atom_site_fract_z
Si Si1 0.877197 0.057743 0.545649
Si Si2 0.329896 0.294603 0.853281
Si Si3 0.262544 0.836204 0.144300
Si Si4 0.111274 0.640575 0.342419
Si Si5 0.005557 0.285562 0.137237
O O1 0.769260 0.153716 0.588739
O O2 0.901980 0.174892 0.598362
O O3 0.962622 0.128763 0.439301
O O4 0.850453 0.823348 0.568881
O O5 0.286283 0.523287 0.881955
O O6 0.403435 0.228018 0.866396
O O7 0.399990 0.273335 0.742374
O O8 0.170649 0.717294 0.239564
O O9 0.313627 0.987209 0.165374
O O10 0.013207 0.505604 0.383107
#
# Coordination Sequence:
#
# PCOD9298603 Si02
#       5
#     8   8   8   8   8
#     4  11  23  42  70  96 131 179 222 276 340 398
#     4  10  24  45  62  94 138 177 220 273 342 397
#     4  11  21  42  68  90 134 179 218 278 336 398
#     4  11  21  41  68  99 128 174 225 276 336 393
#     4  11  23  44  65  99 136 171 227 278 331 413
#
# _framework density 23.277925
#
# number of rings (size 3 to 8) (size 9 to 14) (size 15 to 20)
#    0.000    1.200    4.000    2.400    0.000    1.600 
#   14.400    0.000    0.000    0.000    0.000    0.000 
#    0.000    0.000    0.000    0.000    0.000    0.000 
#
# Total GULP energy -112013.838061 kJ/mol
# GULP energy per Si atom -5600.691903 kJ/mol
# Density = 2.322494 g / cm^3
# Si number density = 23.277925 Si / 1000 Ang^3
#
#
#
# Elastic Constant Matrix: (Units=GPa)
#
#
# Indices 1 2 3 4 5 6 
#
# 1 116.3233 73.5419 30.4804 0.0003 -25.4053 0.0012
# 2 73.5419 111.8879 2.6515 0.0035 -12.4051 0.0027
# 3 30.4804 2.6515 57.0697 0.0003 -1.3454 -0.0022
# 4 0.0003 0.0035 0.0003 12.0270 -0.0004 -10.8158
# 5 -25.4053 -12.4051 -1.3454 -0.0004 22.6090 -0.0002
# 6 0.0012 0.0027 -0.0022 -10.8158 -0.0002 40.2591
#
#
#
# Elastic Compliance Matrix: (Units=1/GPa)
#
#
# Indices 1 2 3 4 5 6 
#
# 1 0.024803 -0.013847 -0.012143 0.000005 0.019550 0.000001
# 2 -0.013847 0.017253 0.006459 -0.000007 -0.005709 -0.000002
# 3 -0.012143 0.006459 0.023503 -0.000002 -0.008702 0.000001
# 4 0.000005 -0.000007 -0.000002 0.109634 0.000004 0.029454
# 5 0.019550 -0.005709 -0.008702 0.000004 0.062548 0.000001
# 6 0.000001 -0.000002 0.000001 0.029454 0.000001 0.032752
#
#
# Mechanical properties :
#
#
# Convention : Reuss Voigt Hill
#
# Bulk Modulus (GPa) = 37.73946 55.40317 46.57131
# Shear Modulus (GPa) = 15.70424 26.88615 21.29519
#
# Velocity S-wave (km/s) = 2.60020 3.40223 3.02789
# Velocity P-wave (km/s) = 5.02618 6.26785 5.68104
#
# Compressibility (1/GPa) = 0.02649747
#
# Stress axis : x y z
#
# Youngs Moduli (GPa) = 40.31813 57.96122 42.54865
#
# Poissons Ratio (x) = 0.80259 0.51666
# Poissons Ratio (y) = 0.55829 -0.27484
# Poissons Ratio (z) = 0.48957 -0.37440
#
# Static dielectric constant tensor:
#      x y z
#    x 1.868960 0.000000 -0.005540 
#    y 0.000000 1.875490 0.000000 
#    z -0.005540 0.000000 1.890330 
# 
# From -- ./inp_files/278792.got.cif
#   From: 2010.05.17/outbox.cif.g08.bks.cpg/sg15_140_cif.got.tgz:278792.got - 2010.06.03 18:47:42.
