data_PCOD9298106
_publ_section_title
;
Structure prediction by ZEFSAII (Michael W. Deem and Ramdas Pophale) SiO2 
 PCOD9298106
Probable space group: C 2/C
;
_chemical_formula_sum "Si O2"
_cell_formula_units_Z 48
_cell_length_a 15.406151
_cell_length_b 8.772380
_cell_length_c 25.795222
_cell_angle_alpha 90.000000
_cell_angle_beta 37.355671
_cell_angle_gamma 90.000000
_cell_volume 2115.283276
_symmetry_space_group_name_H-M "C 2/C"
_symmetry_group_IT_number 15
_symmetry_cell_setting 'monoclinic'
loop_
_space_group_symop_operation_xyz
x,y,z
-x,y,1/2-z
-x,-y,-z
x,-y,1/2+z
1/2+x,1/2+y,z
1/2-x,1/2+y,1/2-z
1/2-x,1/2-y,-z
1/2+x,1/2-y,1/2+z
loop_
_atom_site_type_symbol
_atom_site_label
_atom_site_fract_x
_atom_site_fract_y
_atom_site_fract_z
Si Si1 0.746112 0.284557 0.089194
Si Si2 0.840550 0.871365 0.849922
Si Si3 0.958353 0.706064 0.891352
Si Si4 0.082327 0.087371 0.415582
Si Si5 0.775098 0.794675 0.192701
Si Si6 0.951422 0.352596 0.899085
O O1 0.721413 0.459832 0.115137
O O2 0.796609 0.189392 0.114505
O O3 0.607770 0.215867 0.126282
O O4 0.868928 0.275473 0.986634
O O5 0.748018 0.771794 0.854043
O O6 0.000000 0.883491 0.750000
O O7 0.860348 0.789954 0.895747
O O8 0.974965 0.804794 0.935068
O O9 0.120151 0.700154 0.791913
O O10 0.916834 0.531079 0.918291
O O11 0.152359 0.960074 0.345529
O O12 0.000000 0.000000 0.500000
O O13 0.883071 0.684887 0.171777
#
# Coordination Sequence:
#
# PCOD9298106 Si02
#       6
#     8   8   8   8   8   8
#     4  11  25  42  64  96 133 170 216 273 325 392
#     4  10  24  43  68  98 130 172 220 272 329 394
#     4  11  25  43  68  97 132 176 220 272 329 394
#     4  12  25  42  67 100 131 172 218 273 327 390
#     4  11  23  45  68  96 134 171 223 271 329 398
#     4  11  24  42  66  96 130 174 217 265 333 387
#
# _framework density 22.691997000000001
#
# number of rings (size 3 to 8) (size 9 to 14) (size 15 to 20)
#    0.000    1.000    1.667    4.000    4.667    7.333 
#    0.000    0.000    0.000    0.000    0.000    0.000 
#    0.000    0.000    0.000    0.000    0.000    0.000 
#
# Total GULP energy -134532.220441 kJ/mol
# GULP energy per Si atom -5605.509185 kJ/mol
# Density = 2.264035 g / cm^3
# Si number density = 22.691997 Si / 1000 Ang^3
#
#
#
# Elastic Constant Matrix: (Units=GPa)
#
#
# Indices 1 2 3 4 5 6 
#
# 1 96.6915 12.6492 4.2213 -0.0001 1.0990 0.0004
# 2 12.6492 97.6829 -2.6621 -0.0001 3.9141 0.0005
# 3 4.2213 -2.6621 43.4921 0.0000 -3.1975 0.0001
# 4 -0.0001 -0.0001 0.0000 35.0153 0.0000 -0.5718
# 5 1.0990 3.9141 -3.1975 0.0000 31.9298 0.0000
# 6 0.0004 0.0005 0.0001 -0.5718 0.0000 39.0341
#
#
#
# Elastic Compliance Matrix: (Units=1/GPa)
#
#
# Indices 1 2 3 4 5 6 
#
# 1 0.010577 -0.001388 -0.001134 0.000000 -0.000307 0.000000
# 2 -0.001388 0.010483 0.000690 0.000000 -0.001168 0.000000
# 3 -0.001134 0.000690 0.023313 0.000000 0.002289 0.000000
# 4 0.000000 0.000000 0.000000 0.028566 0.000000 0.000418
# 5 -0.000307 -0.001168 0.002289 0.000000 0.031702 0.000000
# 6 0.000000 0.000000 0.000000 0.000418 0.000000 0.025625
#
#
# Mechanical properties :
#
#
# Convention : Reuss Voigt Hill
#
# Bulk Modulus (GPa) = 24.56463 29.58704 27.07583
# Shear Modulus (GPa) = 33.89870 36.10638 35.00254
#
# Velocity S-wave (km/s) = 3.86924 3.99325 3.93174
# Velocity P-wave (km/s) = 5.55069 5.85903 5.70694
#
# Compressibility (1/GPa) = 0.04070894
#
# Stress axis : x y z
#
# Youngs Moduli (GPa) = 94.54673 95.39622 42.89399
#
# Poissons Ratio (x) = 0.13243 0.04865
# Poissons Ratio (y) = 0.13125 -0.02962
# Poissons Ratio (z) = 0.10723 -0.06587
#
# Static dielectric constant tensor:
#      x y z
#    x 1.786490 0.000000 0.003200 
#    y 0.000000 1.771260 0.000000 
#    z 0.003200 0.000000 1.869060 
# 
# From -- ./inp_files/295378.got.cif
#   From: 2010.05.17/outbox.cif.g08.bks.cpg/sg15_148_cif.got.tgz:295378.got - 2010.06.03 18:47:42.
