data_PCOD9298471
_publ_section_title
;
Structure prediction by ZEFSAII (Michael W. Deem and Ramdas Pophale) SiO2 
 PCOD9298471
Probable space group: C 2/C
;
_chemical_formula_sum "Si O2"
_cell_formula_units_Z 36
_cell_length_a 24.210679
_cell_length_b 9.616884
_cell_length_c 8.646020
_cell_angle_alpha 90.000000
_cell_angle_beta 42.904607
_cell_angle_gamma 90.000000
_cell_volume 1370.453246
_symmetry_space_group_name_H-M "C 2/C"
_symmetry_group_IT_number 15
_symmetry_cell_setting 'monoclinic'
loop_
_space_group_symop_operation_xyz
x,y,z
-x,y,1/2-z
-x,-y,-z
x,-y,1/2+z
1/2+x,1/2+y,z
1/2-x,1/2+y,1/2-z
1/2-x,1/2-y,-z
1/2+x,1/2-y,1/2+z
loop_
_atom_site_type_symbol
_atom_site_label
_atom_site_fract_x
_atom_site_fract_y
_atom_site_fract_z
Si Si1 0.157063 0.852761 0.601838
Si Si2 0.330263 0.660711 0.857438
Si Si3 0.173694 0.670931 0.851151
Si Si4 0.006433 0.284812 0.072224
Si Si5 0.000000 0.558778 0.250000
O O1 0.169415 0.715579 0.681026
O O2 0.230009 0.859115 0.328078
O O3 0.061211 0.832980 0.766741
O O4 0.170868 0.997182 0.660517
O O5 0.404222 0.726483 0.613685
O O6 0.250000 0.750000 0.000000
O O7 0.349561 0.694313 0.999182
O O8 0.107788 0.556738 0.030915
O O9 0.000000 0.378357 0.250000
O O10 0.996671 0.365531 0.930888
#
# Coordination Sequence:
#
# PCOD9298471 Si02
#       5
#     8   8   8   8   4
#     4  11  26  45  67 105 139 182 236 289 349 418
#     4  12  26  44  72 100 142 187 230 293 351 419
#     4  11  26  42  71 102 138 185 231 292 347 421
#     4  10  24  44  70  99 137 183 230 288 342 418
#     4  10  24  46  72 102 140 178 238 280 360 410
#
# _framework density 26.268681999999998
#
# number of rings (size 3 to 8) (size 9 to 14) (size 15 to 20)
#    0.667    0.444    0.000    4.667    9.333    5.333 
#    0.000    0.000    0.000    0.000    0.000    0.000 
#    0.000    0.000    0.000    0.000    0.000    0.000 
#
# Total GULP energy -100293.186478 kJ/mol
# GULP energy per Si atom -5571.843693 kJ/mol
# Density = 2.620889 g / cm^3
# Si number density = 26.268682 Si / 1000 Ang^3
#
#
#
# Elastic Constant Matrix: (Units=GPa)
#
#
# Indices 1 2 3 4 5 6 
#
# 1 95.1256 43.2329 84.2880 0.0000 -33.7035 0.0000
# 2 43.2329 145.5330 90.9839 0.0000 -22.1817 0.0000
# 3 84.2880 90.9839 262.6434 0.0000 -46.1935 0.0000
# 4 0.0000 0.0000 0.0000 42.2852 0.0000 -2.9646
# 5 -33.7035 -22.1817 -46.1935 0.0000 80.4906 0.0000
# 6 0.0000 0.0000 0.0000 -2.9646 0.0000 47.3098
#
#
#
# Elastic Compliance Matrix: (Units=1/GPa)
#
#
# Indices 1 2 3 4 5 6 
#
# 1 0.016184 -0.001771 -0.003864 0.000000 0.004071 0.000000
# 2 -0.001771 0.009005 -0.002497 0.000000 0.000307 0.000000
# 3 -0.003864 -0.002497 0.006125 0.000000 0.001209 0.000000
# 4 0.000000 0.000000 0.000000 0.023753 0.000000 0.001488
# 5 0.004071 0.000307 0.001209 0.000000 0.014907 0.000000
# 6 0.000000 0.000000 0.000000 0.001488 0.000000 0.021231
#
#
# Mechanical properties :
#
#
# Convention : Reuss Voigt Hill
#
# Bulk Modulus (GPa) = 66.44969 104.47907 85.46438
# Shear Modulus (GPa) = 44.44972 53.00361 48.72666
#
# Velocity S-wave (km/s) = 4.11800 4.49681 4.31157
# Velocity P-wave (km/s) = 6.92543 8.17443 7.57572
#
# Compressibility (1/GPa) = 0.01504898
#
# Stress axis : x y z
#
# Youngs Moduli (GPa) = 61.79082 111.04354 163.25927
#
# Poissons Ratio (x) = 0.19671 0.63084
# Poissons Ratio (y) = 0.10946 0.40769
# Poissons Ratio (z) = 0.23876 0.27730
#
# Static dielectric constant tensor:
#      x y z
#    x 2.415120 0.000000 0.032390 
#    y 0.000000 1.971040 0.000000 
#    z 0.032390 0.000000 2.079590 
# 
# From -- ./inp_files/64981.got.cif
#   From: 2010.05.17/outbox.cif.g08.bks.cpg/sg15_33_cif.got.tgz:64981.got - 2010.06.03 18:47:42.
