data_PCOD9298721
_publ_section_title
;
Structure prediction by ZEFSAII (Michael W. Deem and Ramdas Pophale) SiO2 
 PCOD9298721
Probable space group: C 2/C
;
_chemical_formula_sum "Si O2"
_cell_formula_units_Z 56
_cell_length_a 25.867099
_cell_length_b 13.857065
_cell_length_c 15.115217
_cell_angle_alpha 90.000000
_cell_angle_beta 152.533042
_cell_angle_gamma 90.000000
_cell_volume 2498.949668
_symmetry_space_group_name_H-M "C 2/C"
_symmetry_group_IT_number 15
_symmetry_cell_setting 'monoclinic'
loop_
_space_group_symop_operation_xyz
x,y,z
-x,y,1/2-z
-x,-y,-z
x,-y,1/2+z
1/2+x,1/2+y,z
1/2-x,1/2+y,1/2-z
1/2-x,1/2-y,-z
1/2+x,1/2-y,1/2+z
loop_
_atom_site_type_symbol
_atom_site_label
_atom_site_fract_x
_atom_site_fract_y
_atom_site_fract_z
Si Si1 0.479339 0.649521 0.619409
Si Si2 0.238740 0.567493 0.737745
Si Si3 0.630339 0.075316 0.935711
Si Si4 0.761874 0.711629 0.275920
Si Si5 0.109499 0.552915 0.706455
Si Si6 0.991444 0.246323 0.019854
Si Si7 0.497604 0.432132 0.642980
O O1 0.500000 0.686251 0.750000
O O2 0.343508 0.644665 0.407925
O O3 0.520850 0.713959 0.600663
O O4 0.535408 0.543187 0.694524
O O5 0.166684 0.505772 0.560838
O O6 0.212556 0.681052 0.697449
O O7 0.210072 0.532797 0.792586
O O8 0.369134 0.562609 0.916033
O O9 0.500000 0.097887 0.750000
O O10 0.643859 0.032867 0.858716
O O11 0.696277 0.171421 0.065837
O O12 0.873291 0.717689 0.383588
O O13 0.000000 0.500000 0.500000
O O14 0.075197 0.664916 0.654957
O O15 0.042148 0.154280 0.150132
O O16 0.500000 0.403783 0.750000
#
# Coordination Sequence:
#
# PCOD9298721 Si02
#       7
#     8   8   8   8   8   8   8
#     4  11  24  46  69  98 145 188 230 290 356 427
#     4  11  24  44  68 105 138 179 237 291 348 428
#     4  12  24  45  72  98 145 187 231 302 351 413
#     4  11  24  43  70 105 139 179 239 287 350 422
#     4  12  25  42  71 103 136 186 236 291 356 418
#     4  11  24  43  72 102 140 179 241 290 353 423
#     4  10  24  45  70  98 142 184 230 291 350 424
#
# _framework density 22.409416
#
# number of rings (size 3 to 8) (size 9 to 14) (size 15 to 20)
#    0.000    0.857    5.714    0.429    4.000    4.000 
#   10.286    0.000    0.000    0.000    0.000    0.000 
#    0.000    0.000    0.000    0.000    0.000    0.000 
#
# Total GULP energy -156419.783620 kJ/mol
# GULP energy per Si atom -5586.420844 kJ/mol
# Density = 2.235841 g / cm^3
# Si number density = 22.409416 Si / 1000 Ang^3
#
#
#
# Elastic Constant Matrix: (Units=GPa)
#
#
# Indices 1 2 3 4 5 6 
#
# 1 111.0811 9.3287 22.5021 0.0000 -27.9665 0.0000
# 2 9.3287 85.6734 7.3413 0.0000 -15.5219 0.0000
# 3 22.5021 7.3413 77.1340 0.0000 -27.2395 0.0000
# 4 0.0000 0.0000 0.0000 18.6637 0.0000 -9.3971
# 5 -27.9665 -15.5219 -27.2395 0.0000 44.7520 0.0000
# 6 0.0000 0.0000 0.0000 -9.3971 0.0000 32.8453
#
#
#
# Elastic Compliance Matrix: (Units=1/GPa)
#
#
# Indices 1 2 3 4 5 6 
#
# 1 0.010740 0.000024 -0.000971 0.000000 0.006129 0.000000
# 2 0.000024 0.012466 0.000431 0.000000 0.004602 0.000000
# 3 -0.000971 0.000431 0.016617 0.000000 0.009657 0.000000
# 4 0.000000 0.000000 0.000000 0.062597 0.000000 0.017909
# 5 0.006129 0.004602 0.009657 0.000000 0.033650 0.000000
# 6 0.000000 0.000000 0.000000 0.017909 0.000000 0.035570
#
#
# Mechanical properties :
#
#
# Convention : Reuss Voigt Hill
#
# Bulk Modulus (GPa) = 25.77793 39.13697 32.45745
# Shear Modulus (GPa) = 26.93936 34.89997 30.91966
#
# Velocity S-wave (km/s) = 3.47096 3.95065 3.71854
# Velocity P-wave (km/s) = 5.25276 6.18972 5.74039
#
# Compressibility (1/GPa) = 0.03879288
#
# Stress axis : x y z
#
# Youngs Moduli (GPa) = 93.10802 80.21608 60.17907
#
# Poissons Ratio (x) = -0.00194 0.05844
# Poissons Ratio (y) = -0.00225 -0.02597
# Poissons Ratio (z) = 0.09041 -0.03461
#
# Static dielectric constant tensor:
#      x y z
#    x 1.923540 0.000000 0.001770 
#    y 0.000000 1.898710 0.000000 
#    z 0.001770 0.000000 1.794890 
# 
# From -- ./inp_files/178426.got.cif
#   From: 2010.05.17/outbox.cif.g08.bks.cpg/sg15_90_cif.got.tgz:178426.got - 2010.06.03 18:47:42.
