data_PCOD9298728
_publ_section_title
;
Structure prediction by ZEFSAII (Michael W. Deem and Ramdas Pophale) SiO2 
 PCOD9298728
Probable space group: C 2/C
;
_chemical_formula_sum "Si O2"
_cell_formula_units_Z 44
_cell_length_a 23.116883
_cell_length_b 8.372759
_cell_length_c 14.573312
_cell_angle_alpha 90.000000
_cell_angle_beta 138.991905
_cell_angle_gamma 90.000000
_cell_volume 1850.843170
_symmetry_space_group_name_H-M "C 2/C"
_symmetry_group_IT_number 15
_symmetry_cell_setting 'monoclinic'
loop_
_space_group_symop_operation_xyz
x,y,z
-x,y,1/2-z
-x,-y,-z
x,-y,1/2+z
1/2+x,1/2+y,z
1/2-x,1/2+y,1/2-z
1/2-x,1/2-y,-z
1/2+x,1/2-y,1/2+z
loop_
_atom_site_type_symbol
_atom_site_label
_atom_site_fract_x
_atom_site_fract_y
_atom_site_fract_z
Si Si1 0.152072 0.170815 0.552545
Si Si2 0.681450 0.125323 0.465692
Si Si3 0.675193 0.826034 0.326045
Si Si4 0.530489 0.558310 0.138010
Si Si5 0.000000 0.203464 0.750000
Si Si6 0.216642 0.488135 0.703446
O O1 0.217849 0.200773 0.546567
O O2 0.049845 0.163746 0.416656
O O3 0.177392 0.312540 0.651858
O O4 0.186578 0.003197 0.635415
O O5 0.750000 0.250000 0.500000
O O6 0.587119 0.199305 0.379386
O O7 0.721007 0.058019 0.607272
O O8 0.659377 0.975984 0.372978
O O9 0.616261 0.668269 0.252407
O O10 0.662283 0.900392 0.207375
O O11 0.533456 0.405033 0.206138
O O12 0.500000 0.500000 0.000000
#
# Coordination Sequence:
#
# PCOD9298728 Si02
#       6
#     8   8   8   8   4   8
#     4  10  24  45  71 102 143 176 244 285 351 432
#     4  12  27  48  74 102 148 189 238 305 364 426
#     4  10  26  44  76 104 138 202 236 286 390 418
#     4  12  27  48  74 102 148 189 238 305 364 426
#     4  12  32  44  72 108 144 180 256 294 356 440
#     4  10  24  45  71 102 143 176 244 285 351 432
#
# _framework density 23.772949000000001
#
# number of rings (size 3 to 8) (size 9 to 14) (size 15 to 20)
#    1.091    0.000    0.000    4.364   15.273    1.455 
#    0.000    0.000    0.000    0.000    0.000    0.000 
#    0.000    0.000    0.000    0.000    0.000    0.000 
#
# Total GULP energy -122928.952375 kJ/mol
# GULP energy per Si atom -5587.679653 kJ/mol
# Density = 2.371884 g / cm^3
# Si number density = 23.772949 Si / 1000 Ang^3
#
#
#
# Elastic Constant Matrix: (Units=GPa)
#
#
# Indices 1 2 3 4 5 6 
#
# 1 108.2149 37.8948 43.9219 0.0000 9.2235 0.0000
# 2 37.8948 100.5690 28.9572 0.0000 7.4092 0.0000
# 3 43.9219 28.9572 84.1791 0.0000 1.6480 0.0000
# 4 0.0000 0.0000 0.0000 38.3576 0.0000 0.1808
# 5 9.2235 7.4092 1.6480 0.0000 53.9232 0.0000
# 6 0.0000 0.0000 0.0000 0.1808 0.0000 58.9015
#
#
#
# Elastic Compliance Matrix: (Units=1/GPa)
#
#
# Indices 1 2 3 4 5 6 
#
# 1 0.012700 -0.003074 -0.005538 0.000000 -0.001581 0.000000
# 2 -0.003074 0.011888 -0.002465 0.000000 -0.001032 0.000000
# 3 -0.005538 -0.002465 0.015601 0.000000 0.000809 0.000000
# 4 0.000000 0.000000 0.000000 0.026071 0.000000 -0.000080
# 5 -0.001581 -0.001032 0.000809 0.000000 0.018932 0.000000
# 6 0.000000 0.000000 0.000000 -0.000080 0.000000 0.016978
#
#
# Mechanical properties :
#
#
# Convention : Reuss Voigt Hill
#
# Bulk Modulus (GPa) = 55.45051 57.16786 56.30918
# Shear Modulus (GPa) = 38.36259 42.38239 40.37249
#
# Velocity S-wave (km/s) = 4.02146 4.22690 4.12546
# Velocity P-wave (km/s) = 6.70362 6.92256 6.81397
#
# Compressibility (1/GPa) = 0.01803410
#
# Stress axis : x y z
#
# Youngs Moduli (GPa) = 78.74092 84.12085 64.09841
#
# Poissons Ratio (x) = 0.25862 0.35497
# Poissons Ratio (y) = 0.24208 0.15800
# Poissons Ratio (z) = 0.43606 0.20736
#
# Static dielectric constant tensor:
#      x y z
#    x 2.000360 0.000000 -0.027090 
#    y 0.000000 1.903050 0.000000 
#    z -0.027090 0.000000 1.958860 
# 
# From -- ./inp_files/176754.got.cif
#   From: 2010.05.17/outbox.cif.g08.bks.cpg/sg15_89_cif.got.tgz:176754.got - 2010.06.03 18:47:42.
