data_PCOD9298380
_publ_section_title
;
Structure prediction by ZEFSAII (Michael W. Deem and Ramdas Pophale) SiO2 
 PCOD9298380
Probable space group: C 2/C
;
_chemical_formula_sum "Si O2"
_cell_formula_units_Z 60
_cell_length_a 15.710637
_cell_length_b 11.812374
_cell_length_c 27.420682
_cell_angle_alpha 90.000000
_cell_angle_beta 32.476745
_cell_angle_gamma 90.000000
_cell_volume 2732.429386
_symmetry_space_group_name_H-M "C 2/C"
_symmetry_group_IT_number 15
_symmetry_cell_setting 'monoclinic'
loop_
_space_group_symop_operation_xyz
x,y,z
-x,y,1/2-z
-x,-y,-z
x,-y,1/2+z
1/2+x,1/2+y,z
1/2-x,1/2+y,1/2-z
1/2-x,1/2-y,-z
1/2+x,1/2-y,1/2+z
loop_
_atom_site_type_symbol
_atom_site_label
_atom_site_fract_x
_atom_site_fract_y
_atom_site_fract_z
Si Si1 0.010690 0.456109 0.411226
Si Si2 0.184489 0.223545 0.316904
Si Si3 0.967012 0.644129 0.025244
Si Si4 0.774114 0.193035 0.677679
Si Si5 0.334493 0.063616 0.405538
Si Si6 0.512760 0.509276 0.434520
Si Si7 0.330549 0.719027 0.843732
Si Si8 0.500000 0.100328 0.750000
O O1 0.083589 0.547190 0.412879
O O2 0.934064 0.522682 0.403914
O O3 0.123005 0.353169 0.341760
O O4 0.902606 0.388464 0.503013
O O5 0.270712 0.217874 0.223640
O O6 0.296545 0.213620 0.309706
O O7 0.048396 0.133750 0.395802
O O8 0.893250 0.759240 0.079370
O O9 0.160650 0.656072 0.933016
O O10 0.603149 0.175883 0.736519
O O11 0.845052 0.069258 0.653867
O O12 0.349988 0.191733 0.378418
O O13 0.151518 0.040159 0.505322
O O14 0.386733 0.980983 0.336228
O O15 0.500000 0.500000 0.500000
O O16 0.500000 0.659419 0.750000
#
# Coordination Sequence:
#
# PCOD9298380 Si02
#       8
#     8   8   8   8   8   8   8   4
#     4  10  24  44  68  98 132 185 227 276 359 406
#     4  11  25  42  68 102 140 187 222 292 352 412
#     4  10  24  47  69  91 145 185 222 286 351 429
#     4  12  25  42  69 104 139 184 231 284 359 413
#     4  12  23  40  71 101 133 178 237 287 342 410
#     4  12  23  44  69  99 143 180 237 287 343 423
#     4  11  23  41  67 103 135 179 238 292 339 410
#     4  12  24  38  64 106 138 168 230 296 332 422
#
# _framework density 21.958480000000002
#
# number of rings (size 3 to 8) (size 9 to 14) (size 15 to 20)
#    0.000    0.800    6.000    0.800    3.733    3.200 
#    0.000    0.000   13.200    0.000    0.000    0.000 
#    0.000    0.000    0.000    0.000    0.000    0.000 
#
# Total GULP energy -167283.918505 kJ/mol
# GULP energy per Si atom -5576.130617 kJ/mol
# Density = 2.190850 g / cm^3
# Si number density = 21.958480 Si / 1000 Ang^3
#
#
#
# Elastic Constant Matrix: (Units=GPa)
#
#
# Indices 1 2 3 4 5 6 
#
# 1 79.9427 20.7160 23.1307 0.0000 14.9861 0.0000
# 2 20.7160 85.6257 36.1861 0.0000 4.2722 0.0000
# 3 23.1307 36.1861 86.0956 -0.0003 1.5390 0.0000
# 4 0.0000 0.0000 -0.0003 17.5885 0.0000 6.6852
# 5 14.9861 4.2722 1.5390 0.0000 45.0117 0.0000
# 6 0.0000 0.0000 0.0000 6.6852 0.0000 35.1282
#
#
#
# Elastic Compliance Matrix: (Units=1/GPa)
#
#
# Indices 1 2 3 4 5 6 
#
# 1 0.014786 -0.002070 -0.003020 0.000000 -0.004623 0.000000
# 2 -0.002070 0.014550 -0.005550 0.000000 -0.000502 0.000000
# 3 -0.003020 -0.005550 0.014741 0.000000 0.001028 0.000000
# 4 0.000000 0.000000 0.000000 0.061288 0.000000 -0.011664
# 5 -0.004623 -0.000502 0.001028 0.000000 0.023768 0.000000
# 6 0.000000 0.000000 0.000000 -0.011664 0.000000 0.030687
#
#
# Mechanical properties :
#
#
# Convention : Reuss Voigt Hill
#
# Bulk Modulus (GPa) = 43.86706 45.74774 44.80740
# Shear Modulus (GPa) = 26.49717 30.98776 28.74247
#
# Velocity S-wave (km/s) = 3.47752 3.76067 3.62186
# Velocity P-wave (km/s) = 6.01206 6.30363 6.15957
#
# Compressibility (1/GPa) = 0.02279615
#
# Stress axis : x y z
#
# Youngs Moduli (GPa) = 67.63252 68.72710 67.83961
#
# Poissons Ratio (x) = 0.14230 0.20484
# Poissons Ratio (y) = 0.14003 0.37653
# Poissons Ratio (z) = 0.20422 0.38145
#
# Static dielectric constant tensor:
#      x y z
#    x 1.824590 0.000000 0.065950 
#    y 0.000000 1.810890 0.000000 
#    z 0.065950 0.000000 1.914510 
# 
# From -- ./inp_files/316065.got.cif
#   From: 2010.05.17/outbox.cif.g08.bks.cpg/sg15_159_cif.got.tgz:316065.got - 2010.06.03 18:47:42.
