data_PCOD9298301
_publ_section_title
;
Structure prediction by ZEFSAII (Michael W. Deem and Ramdas Pophale) SiO2 
 PCOD9298301
Probable space group: C 2/C
;
_chemical_formula_sum "Si O2"
_cell_formula_units_Z 44
_cell_length_a 23.276396
_cell_length_b 8.597714
_cell_length_c 23.281457
_cell_angle_alpha 90.000000
_cell_angle_beta 20.370127
_cell_angle_gamma 90.000000
_cell_volume 1621.780586
_symmetry_space_group_name_H-M "C 2/C"
_symmetry_group_IT_number 15
_symmetry_cell_setting 'monoclinic'
loop_
_space_group_symop_operation_xyz
x,y,z
-x,y,1/2-z
-x,-y,-z
x,-y,1/2+z
1/2+x,1/2+y,z
1/2-x,1/2+y,1/2-z
1/2-x,1/2-y,-z
1/2+x,1/2-y,1/2+z
loop_
_atom_site_type_symbol
_atom_site_label
_atom_site_fract_x
_atom_site_fract_y
_atom_site_fract_z
Si Si1 0.303257 0.418947 0.924108
Si Si2 0.395044 0.580706 0.517661
Si Si3 0.500000 0.143088 0.250000
Si Si4 0.612336 0.919433 0.992094
Si Si5 0.716874 0.595780 0.753791
Si Si6 0.341735 0.841880 0.788043
O O1 0.500000 0.441226 0.750000
O O2 0.269459 0.421478 0.887054
O O3 0.250000 0.250000 0.000000
O O4 0.156638 0.537317 0.083100
O O5 0.453139 0.745729 0.440762
O O6 0.280871 0.620447 0.680582
O O7 0.540437 0.475529 0.404338
O O8 0.295167 0.471223 0.568323
O O9 0.579985 0.235616 0.228712
O O10 0.658148 0.964110 0.884463
O O11 0.490396 0.053562 0.125808
O O12 0.730047 0.738141 0.696396
#
# Coordination Sequence:
#
# PCOD9298301 Si02
#       6
#     8   8   4   8   8   8
#     4  11  23  40  68 102 139 181 236 296 350 418
#     4  11  24  42  71  97 138 177 232 291 343 418
#     4  10  24  44  66 104 142 190 232 290 362 432
#     4  11  25  42  67 101 130 181 231 284 348 412
#     4  11  25  44  66 102 134 185 227 283 359 417
#     4  11  24  45  68  98 143 177 232 287 349 431
#
# _framework density 27.130673999999999
#
# number of rings (size 3 to 8) (size 9 to 14) (size 15 to 20)
#    0.000    1.091    0.909    4.364    7.636    5.818 
#    1.636    2.727    0.000    0.000    0.000    0.000 
#    0.000    0.000    0.000    0.000    0.000    0.000 
#
# Total GULP energy -123148.680983 kJ/mol
# GULP energy per Si atom -5597.667317 kJ/mol
# Density = 2.706892 g / cm^3
# Si number density = 27.130674 Si / 1000 Ang^3
#
#
#
# Elastic Constant Matrix: (Units=GPa)
#
#
# Indices 1 2 3 4 5 6 
#
# 1 136.1051 17.5699 20.7016 0.0013 -22.8275 0.0005
# 2 17.5699 120.3001 24.3955 0.0069 -5.7560 -0.0006
# 3 20.7016 24.3955 126.1180 0.0054 -18.7314 0.0009
# 4 0.0013 0.0069 0.0054 29.5840 -0.0013 7.1182
# 5 -22.8275 -5.7560 -18.7314 -0.0013 44.9411 -0.0007
# 6 0.0005 -0.0006 0.0009 7.1182 -0.0007 7.5393
#
#
#
# Elastic Compliance Matrix: (Units=1/GPa)
#
#
# Indices 1 2 3 4 5 6 
#
# 1 0.008191 -0.000891 -0.000609 0.000000 0.003793 0.000000
# 2 -0.000891 0.008757 -0.001544 -0.000002 0.000025 0.000003
# 3 -0.000609 -0.001544 0.008797 -0.000001 0.003160 0.000000
# 4 0.000000 -0.000002 -0.000001 0.043738 0.000000 -0.041296
# 5 0.003793 0.000025 0.003160 0.000000 0.025498 0.000002
# 6 0.000000 0.000003 0.000000 -0.041296 0.000002 0.171628
#
#
# Mechanical properties :
#
#
# Convention : Reuss Voigt Hill
#
# Bulk Modulus (GPa) = 50.87254 56.42858 53.65056
# Shear Modulus (GPa) = 17.90512 37.73661 27.82087
#
# Velocity S-wave (km/s) = 2.57175 3.73355 3.20572
# Velocity P-wave (km/s) = 5.25454 6.27932 5.78965
#
# Compressibility (1/GPa) = 0.01965697
#
# Stress axis : x y z
#
# Youngs Moduli (GPa) = 122.08468 114.19418 113.67629
#
# Poissons Ratio (x) = 0.10179 0.06921
# Poissons Ratio (y) = 0.10882 0.17550
# Poissons Ratio (z) = 0.07432 0.17630
#
# Static dielectric constant tensor:
#      x y z
#    x 2.163060 0.000000 0.054810 
#    y 0.000000 2.097660 0.000000 
#    z 0.054810 0.000000 2.116460 
# 
# From -- ./inp_files/68669.got.cif
#   From: 2010.05.17/outbox.cif.g08.bks.cpg/sg15_35_cif.got.tgz:68669.got - 2010.06.03 18:47:42.
