data_PCOD9298496
_publ_section_title
;
Structure prediction by ZEFSAII (Michael W. Deem and Ramdas Pophale) SiO2 
 PCOD9298496
Probable space group: C 2/C
;
_chemical_formula_sum "Si O2"
_cell_formula_units_Z 44
_cell_length_a 7.860431
_cell_length_b 28.942823
_cell_length_c 9.072431
_cell_angle_alpha 90.000000
_cell_angle_beta 65.743536
_cell_angle_gamma 90.000000
_cell_volume 1881.786534
_symmetry_space_group_name_H-M "C 2/C"
_symmetry_group_IT_number 15
_symmetry_cell_setting 'monoclinic'
loop_
_space_group_symop_operation_xyz
x,y,z
-x,y,1/2-z
-x,-y,-z
x,-y,1/2+z
1/2+x,1/2+y,z
1/2-x,1/2+y,1/2-z
1/2-x,1/2-y,-z
1/2+x,1/2-y,1/2+z
loop_
_atom_site_type_symbol
_atom_site_label
_atom_site_fract_x
_atom_site_fract_y
_atom_site_fract_z
Si Si1 0.778326 0.154536 0.325440
Si Si2 0.209242 0.446991 0.978361
Si Si3 0.270717 0.038677 0.695505
Si Si4 0.976033 0.718952 0.582751
Si Si5 0.500000 0.614607 0.750000
Si Si6 0.353863 0.684178 0.993540
O O1 0.744714 0.103099 0.397719
O O2 0.653232 0.191025 0.458252
O O3 0.735266 0.162461 0.168480
O O4 0.000000 0.163625 0.250000
O O5 0.274097 0.488001 0.848344
O O6 0.288716 0.454987 0.113547
O O7 0.988691 0.453549 0.087489
O O8 0.168032 0.080620 0.653549
O O9 0.787964 0.693340 0.591594
O O10 0.948516 0.768612 0.514553
O O11 0.000000 0.722516 0.750000
O O12 0.489776 0.648264 0.614037
#
# Coordination Sequence:
#
# PCOD9298496 Si02
#       6
#     8   8   8   8   4   8
#     4  12  27  46  76 113 148 196 253 305 370 440
#     4  10  24  47  70 106 146 197 238 300 368 448
#     4  10  24  44  72 102 147 192 244 300 368 431
#     4  11  28  51  78 105 153 199 245 306 370 442
#     4  12  26  44  76 110 138 192 246 312 362 442
#     4  11  28  47  75 109 149 194 251 303 371 438
#
# _framework density 23.382034000000001
#
# number of rings (size 3 to 8) (size 9 to 14) (size 15 to 20)
#    0.000    1.091    0.000    3.273   16.545    2.182 
#    3.273    0.000    0.000    0.000    0.000    0.000 
#    0.000    0.000    0.000    0.000    0.000    0.000 
#
# Total GULP energy -123112.738532 kJ/mol
# GULP energy per Si atom -5596.033570 kJ/mol
# Density = 2.332882 g / cm^3
# Si number density = 23.382034 Si / 1000 Ang^3
#
#
#
# Elastic Constant Matrix: (Units=GPa)
#
#
# Indices 1 2 3 4 5 6 
#
# 1 102.9006 60.0322 48.8663 0.0000 10.5741 0.0000
# 2 60.0322 192.0368 112.8453 0.0000 -0.6065 0.0000
# 3 48.8663 112.8453 133.3491 0.0000 9.4258 0.0000
# 4 0.0000 0.0000 0.0000 33.8765 0.0000 3.3090
# 5 10.5741 -0.6065 9.4258 0.0000 33.5416 0.0000
# 6 0.0000 0.0000 0.0000 3.3090 0.0000 16.1621
#
#
#
# Elastic Compliance Matrix: (Units=1/GPa)
#
#
# Indices 1 2 3 4 5 6 
#
# 1 0.012662 -0.002758 -0.002062 0.000000 -0.003462 0.000000
# 2 -0.002758 0.011205 -0.008720 0.000000 0.003523 0.000000
# 3 -0.002062 -0.008720 0.015916 0.000000 -0.003980 0.000000
# 4 0.000000 0.000000 0.000000 0.030121 0.000000 -0.006167
# 5 -0.003462 0.003523 -0.003980 0.000000 0.032087 0.000000
# 6 0.000000 0.000000 0.000000 -0.006167 0.000000 0.063136
#
#
# Mechanical properties :
#
#
# Convention : Reuss Voigt Hill
#
# Bulk Modulus (GPa) = 78.72304 96.86378 87.79341
# Shear Modulus (GPa) = 25.45306 30.48556 27.96931
#
# Velocity S-wave (km/s) = 3.30293 3.61474 3.46235
# Velocity P-wave (km/s) = 6.94889 7.67713 7.32207
#
# Compressibility (1/GPa) = 0.01270276
#
# Stress axis : x y z
#
# Youngs Moduli (GPa) = 78.97818 89.24704 62.83181
#
# Poissons Ratio (x) = 0.24611 0.12953
# Poissons Ratio (y) = 0.21779 0.54792
# Poissons Ratio (z) = 0.16282 0.77827
#
# Static dielectric constant tensor:
#      x y z
#    x 1.962380 0.000000 0.047570 
#    y 0.000000 1.840270 0.000000 
#    z 0.047570 0.000000 1.890620 
# 
# From -- ./inp_files/25973.got.cif
#   From: 2010.05.17/outbox.cif.g08.bks.cpg/sg15_13_cif.got.tgz:25973.got - 2010.06.03 18:47:42.
