data_PCOD9298797
_publ_section_title
;
Structure prediction by ZEFSAII (Michael W. Deem and Ramdas Pophale) SiO2 
 PCOD9298797
Probable space group: C 2/C
;
_chemical_formula_sum "Si O2"
_cell_formula_units_Z 44
_cell_length_a 5.485725
_cell_length_b 27.583106
_cell_length_c 13.686088
_cell_angle_alpha 90.000000
_cell_angle_beta 108.048383
_cell_angle_gamma 90.000000
_cell_volume 1968.990059
_symmetry_space_group_name_H-M "C 2/C"
_symmetry_group_IT_number 15
_symmetry_cell_setting 'monoclinic'
loop_
_space_group_symop_operation_xyz
x,y,z
-x,y,1/2-z
-x,-y,-z
x,-y,1/2+z
1/2+x,1/2+y,z
1/2-x,1/2+y,1/2-z
1/2-x,1/2-y,-z
1/2+x,1/2-y,1/2+z
loop_
_atom_site_type_symbol
_atom_site_label
_atom_site_fract_x
_atom_site_fract_y
_atom_site_fract_z
Si Si1 0.000000 0.577868 0.750000
Si Si2 0.500000 0.513935 0.750000
Si Si3 0.041118 0.956497 0.577771
Si Si4 0.784844 0.864754 0.450896
Si Si5 0.233648 0.329871 0.663845
Si Si6 0.542816 0.738699 0.561752
Si Si7 0.000000 0.417993 0.750000
O O1 0.258850 0.546771 0.756495
O O2 0.077894 0.611001 0.853126
O O3 0.393147 0.476993 0.654372
O O4 0.321052 0.948560 0.657092
O O5 0.967684 0.908060 0.511112
O O6 0.000000 0.000000 0.500000
O O7 0.699905 0.844014 0.545667
O O8 0.917975 0.818682 0.414730
O O9 0.500000 0.319501 0.750000
O O10 0.096808 0.277917 0.652570
O O11 0.155916 0.379289 0.706096
O O12 0.750000 0.750000 0.500000
O O13 0.250000 0.750000 0.500000
#
# Coordination Sequence:
#
# PCOD9298797 Si02
#       7
#     4   4   8   8   8   8   4
#     4  12  29  48  76 105 162 201 260 307 384 454
#     4  12  28  50  67 115 140 208 258 314 376 438
#     4  12  25  44  75 104 153 198 254 317 370 451
#     4  11  25  49  72 113 151 201 247 314 383 452
#     4  11  24  45  78 111 148 194 258 315 380 458
#     4  10  24  45  75 107 148 188 247 309 376 449
#     4  12  25  46  77 114 144 207 258 319 392 446
#
# _framework density 22.34648
#
# number of rings (size 3 to 8) (size 9 to 14) (size 15 to 20)
#    0.000    0.727    3.636    2.727    6.364    3.636 
#    0.000    0.909    0.000    0.000    0.000    0.000 
#    0.000    0.000    0.000    0.000    0.000    0.000 
#
# Total GULP energy -122569.221257 kJ/mol
# GULP energy per Si atom -5571.328239 kJ/mol
# Density = 2.229562 g / cm^3
# Si number density = 22.346480 Si / 1000 Ang^3
#
#
#
# Elastic Constant Matrix: (Units=GPa)
#
#
# Indices 1 2 3 4 5 6 
#
# 1 94.7762 50.5040 43.3949 0.0000 27.6475 0.0000
# 2 50.5040 199.5476 69.1895 0.0000 34.3010 0.0000
# 3 43.3949 69.1895 166.9014 0.0000 29.4631 0.0000
# 4 0.0000 0.0000 0.0000 -370.5708 0.0000 258.5500
# 5 27.6475 34.3010 29.4631 0.0000 20.8409 0.0000
# 6 0.0000 0.0000 0.0000 258.5500 0.0000 -115.0661
#
#
#
# Elastic Compliance Matrix: (Units=1/GPa)
#
#
# Indices 1 2 3 4 5 6 
#
# 1 0.017295 -0.000531 -0.000507 0.000000 -0.021353 0.000000
# 2 -0.000531 0.007176 -0.001168 0.000000 -0.009455 0.000000
# 3 -0.000507 -0.001168 0.008194 0.000000 -0.008990 0.000000
# 4 0.000000 0.000000 0.000000 0.004753 0.000000 0.010680
# 5 -0.021353 -0.009455 -0.008990 0.000000 0.104581 0.000000
# 6 0.000000 0.000000 0.000000 0.010680 0.000000 0.015308
#
#
# Mechanical properties :
#
#
# Convention : Reuss Voigt Hill
#
# Bulk Modulus (GPa) = 35.39332 87.48912 61.44122
# Shear Modulus (GPa) = 29.21637 -73.08342 -21.93352
#
# Velocity S-wave (km/s) = 3.61976 -5.72500 -3.13632
# Velocity P-wave (km/s) = 5.77434 2.11299 3.79989
#
# Compressibility (1/GPa) = 0.02825392
#
# Stress axis : x y z
#
# Youngs Moduli (GPa) = 57.81928 139.35555 122.03320
#
# Poissons Ratio (x) = 0.07400 0.06191
# Poissons Ratio (y) = 0.03070 0.14248
# Poissons Ratio (z) = 0.02933 0.16271
#
# Static dielectric constant tensor:
#      x y z
#    x 2.056580 0.000000 -0.175190 
#    y 0.000000 1.865870 0.000000 
#    z -0.175190 0.000000 1.784420 
# 
# From -- ./inp_files/74035.got.cif
#   From: 2010.05.17/outbox.cif.g08.bks.cpg/sg15_38_cif.got.tgz:74035.got - 2010.06.03 18:47:42.
