data_PCOD9298831
_publ_section_title
;
Structure prediction by ZEFSAII (Michael W. Deem and Ramdas Pophale) SiO2 
 PCOD9298831
Probable space group: C 2/C
;
_chemical_formula_sum "Si O2"
_cell_formula_units_Z 64
_cell_length_a 18.111385
_cell_length_b 15.343115
_cell_length_c 17.440325
_cell_angle_alpha 90.000000
_cell_angle_beta 37.558835
_cell_angle_gamma 90.000000
_cell_volume 2954.251573
_symmetry_space_group_name_H-M "C 2/C"
_symmetry_group_IT_number 15
_symmetry_cell_setting 'monoclinic'
loop_
_space_group_symop_operation_xyz
x,y,z
-x,y,1/2-z
-x,-y,-z
x,-y,1/2+z
1/2+x,1/2+y,z
1/2-x,1/2+y,1/2-z
1/2-x,1/2-y,-z
1/2+x,1/2-y,1/2+z
loop_
_atom_site_type_symbol
_atom_site_label
_atom_site_fract_x
_atom_site_fract_y
_atom_site_fract_z
Si Si1 0.510479 0.074325 0.653688
Si Si2 0.629104 0.510123 0.112586
Si Si3 0.796528 0.235530 0.691774
Si Si4 0.892284 0.960027 0.538509
Si Si5 0.577190 0.739570 0.495094
Si Si6 0.289700 0.053265 0.725134
Si Si7 0.253155 0.818192 0.567037
Si Si8 0.149348 0.413083 0.500305
O O1 0.500000 0.101810 0.750000
O O2 0.395229 0.081501 0.695441
O O3 0.619249 0.131999 0.532843
O O4 0.546839 0.972954 0.621404
O O5 0.500000 0.481913 0.250000
O O6 0.660435 0.603524 0.124887
O O7 0.728996 0.440437 0.056607
O O8 0.630275 0.515981 0.019732
O O9 0.687116 0.253913 0.842120
O O10 0.806522 0.130877 0.687703
O O11 0.743455 0.268911 0.655106
O O12 0.937373 0.264995 0.587692
O O13 0.920228 0.862461 0.487377
O O14 0.774142 0.966673 0.690694
O O15 0.000000 0.000000 0.500000
O O16 0.617113 0.811862 0.524136
O O17 0.335531 0.053127 0.600400
O O18 0.250000 0.750000 0.500000
#
# Coordination Sequence:
#
# PCOD9298831 Si02
#       8
#     8   8   8   8   8   8   8   8
#     4  11  23  41  67 101 142 192 237 295 361 430
#     4  11  26  43  68  98 138 188 232 296 370 421
#     4  11  24  44  66 108 140 186 236 294 358 421
#     4  12  25  44  73 100 138 184 237 293 362 428
#     4  11  27  44  74 103 141 186 249 295 352 425
#     4  11  22  41  70  97 142 180 239 296 351 433
#     4  11  24  40  65 100 147 182 231 289 364 439
#     4  10  24  46  64 100 140 183 246 295 356 424
#
# _framework density 21.663694
#
# number of rings (size 3 to 8) (size 9 to 14) (size 15 to 20)
#    0.000    1.000    1.250    5.625    8.750    2.000 
#    0.000    0.625    0.000    0.000    0.000    0.000 
#    0.000    0.000    0.000    0.000    0.000    0.000 
#
# Total GULP energy -178690.502506 kJ/mol
# GULP energy per Si atom -5584.078203 kJ/mol
# Density = 2.161439 g / cm^3
# Si number density = 21.663694 Si / 1000 Ang^3
#
#
#
# Elastic Constant Matrix: (Units=GPa)
#
#
# Indices 1 2 3 4 5 6 
#
# 1 93.3477 2.7323 13.3001 0.0000 -8.4098 0.0000
# 2 2.7323 88.9263 -4.3833 0.0000 -15.0461 0.0000
# 3 13.3001 -4.3833 58.2372 0.0000 -6.3096 0.0000
# 4 0.0000 0.0000 0.0000 26.8481 0.0000 9.4204
# 5 -8.4098 -15.0461 -6.3096 0.0000 22.6565 0.0000
# 6 0.0000 0.0000 0.0000 9.4204 0.0000 16.7671
#
#
#
# Elastic Compliance Matrix: (Units=1/GPa)
#
#
# Indices 1 2 3 4 5 6 
#
# 1 0.011353 0.000174 -0.002176 0.000000 0.003724 0.000000
# 2 0.000174 0.012884 0.001922 0.000000 0.009156 0.000000
# 3 -0.002176 0.001922 0.018419 0.000000 0.005598 0.000000
# 4 0.000000 0.000000 0.000000 0.046392 0.000000 -0.026065
# 5 0.003724 0.009156 0.005598 0.000000 0.053159 0.000000
# 6 0.000000 0.000000 0.000000 -0.026065 0.000000 0.074285
#
#
# Mechanical properties :
#
#
# Convention : Reuss Voigt Hill
#
# Bulk Modulus (GPa) = 23.53194 29.31217 26.42206
# Shear Modulus (GPa) = 21.66206 28.51181 25.08694
#
# Velocity S-wave (km/s) = 3.16559 3.63176 3.40666
# Velocity P-wave (km/s) = 4.92415 5.58087 5.26277
#
# Compressibility (1/GPa) = 0.04249543
#
# Stress axis : x y z
#
# Youngs Moduli (GPa) = 88.08188 77.61671 54.29076
#
# Poissons Ratio (x) = -0.01350 0.11815
# Poissons Ratio (y) = -0.01532 -0.10435
# Poissons Ratio (z) = 0.19169 -0.14918
#
# Static dielectric constant tensor:
#      x y z
#    x 1.641140 0.000000 -0.012370 
#    y 0.000000 1.864820 0.000000 
#    z -0.012370 0.000000 1.803670 
# 
# From -- ./inp_files/211357.got.cif
#   From: 2010.05.17/outbox.cif.g08.bks.cpg/sg15_106_cif.got.tgz:211357.got - 2010.06.03 18:47:42.
