data_PCOD9298369
_publ_section_title
;
Structure prediction by ZEFSAII (Michael W. Deem and Ramdas Pophale) SiO2 
 PCOD9298369
Probable space group: C 2/C
;
_chemical_formula_sum "Si O2"
_cell_formula_units_Z 36
_cell_length_a 14.337223
_cell_length_b 20.389765
_cell_length_c 9.346145
_cell_angle_alpha 90.000000
_cell_angle_beta 37.027441
_cell_angle_gamma 90.000000
_cell_volume 1645.313597
_symmetry_space_group_name_H-M "C 2/C"
_symmetry_group_IT_number 15
_symmetry_cell_setting 'monoclinic'
loop_
_space_group_symop_operation_xyz
x,y,z
-x,y,1/2-z
-x,-y,-z
x,-y,1/2+z
1/2+x,1/2+y,z
1/2-x,1/2+y,1/2-z
1/2-x,1/2-y,-z
1/2+x,1/2-y,1/2+z
loop_
_atom_site_type_symbol
_atom_site_label
_atom_site_fract_x
_atom_site_fract_y
_atom_site_fract_z
Si Si1 0.297685 0.340074 0.831682
Si Si2 0.152220 0.419913 0.498017
Si Si3 0.009775 0.930920 0.403190
Si Si4 0.000000 0.738545 0.750000
Si Si5 0.141048 0.447261 0.183094
O O1 0.369211 0.383421 0.618625
O O2 0.414597 0.284381 0.740319
O O3 0.271519 0.393526 0.989621
O O4 0.133541 0.304376 0.011047
O O5 0.326480 0.393560 0.270302
O O6 0.110280 0.444483 0.389336
O O7 0.177653 0.481299 0.575190
O O8 0.000000 0.384497 0.750000
O O9 0.000000 0.946786 0.250000
O O10 0.000000 0.000000 0.500000
O O11 0.000000 0.428501 0.250000
#
# Coordination Sequence:
#
# PCOD9298369 Si02
#       5
#     8   8   8   4   8
#     4  11  23  42  68  95 129 175 237 269 335 383
#     4  11  23  36  59  95 140 175 207 258 345 411
#     4  12  26  41  67 106 144 172 215 283 349 407
#     4  10  24  44  68  94 126 188 232 278 312 404
#     4  11  21  36  64  95 136 168 215 272 328 410
#
# _framework density 21.880327000000001
#
# number of rings (size 3 to 8) (size 9 to 14) (size 15 to 20)
#    0.000    0.889    3.333    5.333    4.667    0.000 
#    0.000    1.111    0.000    5.333    0.000    0.000 
#    0.000    0.000    0.000    0.000    0.000    0.000 
#
# Total GULP energy -100444.858466 kJ/mol
# GULP energy per Si atom -5580.269915 kJ/mol
# Density = 2.183053 g / cm^3
# Si number density = 21.880327 Si / 1000 Ang^3
#
#
#
# Elastic Constant Matrix: (Units=GPa)
#
#
# Indices 1 2 3 4 5 6 
#
# 1 107.2004 10.1557 65.8619 0.0003 4.6334 -0.0002
# 2 10.1557 74.1708 48.3622 0.0000 -12.0178 0.0000
# 3 65.8619 48.3622 162.2369 0.0002 5.5210 -0.0001
# 4 0.0003 0.0000 0.0002 38.9859 -0.0002 -8.6278
# 5 4.6334 -12.0178 5.5210 -0.0002 56.6537 0.0001
# 6 -0.0002 0.0000 -0.0001 -8.6278 0.0001 -5.9889
#
#
#
# Elastic Compliance Matrix: (Units=1/GPa)
#
#
# Indices 1 2 3 4 5 6 
#
# 1 0.012665 0.001997 -0.005735 0.000000 -0.000053 0.000000
# 2 0.001997 0.018030 -0.006331 0.000000 0.004278 0.000000
# 3 -0.005735 -0.006331 0.010444 0.000000 -0.001892 0.000000
# 4 0.000000 0.000000 0.000000 0.019449 0.000000 -0.028020
# 5 -0.000053 0.004278 -0.001892 0.000000 0.018747 0.000000
# 6 0.000000 0.000000 0.000000 -0.028020 0.000000 -0.126611
#
#
# Mechanical properties :
#
#
# Convention : Reuss Voigt Hill
#
# Bulk Modulus (GPa) = 47.61825 65.81864 56.71845
# Shear Modulus (GPa) = -248.30097 32.54534 -107.87782
#
# Velocity S-wave (km/s) = -10.66432 3.86090 -7.02927
# Velocity P-wave (km/s) = 11.39415 7.07262 6.31683
#
# Compressibility (1/GPa) = 0.02100035
#
# Stress axis : x y z
#
# Youngs Moduli (GPa) = 78.95881 55.46249 95.75332
#
# Poissons Ratio (x) = -0.11073 0.54912
# Poissons Ratio (y) = -0.15764 0.60620
# Poissons Ratio (z) = 0.45281 0.35112
#
# Static dielectric constant tensor:
#      x y z
#    x 1.851990 0.000000 -0.100910 
#    y 0.000000 1.799920 0.000000 
#    z -0.100910 0.000000 1.914920 
# 
# From -- ./inp_files/41171.got.cif
#   From: 2010.05.17/outbox.cif.g08.bks.cpg/sg15_21_cif.got.tgz:41171.got - 2010.06.03 18:47:42.
