data_PCOD9298093
_publ_section_title
;
Structure prediction by ZEFSAII (Michael W. Deem and Ramdas Pophale) SiO2 
 PCOD9298093
Probable space group: C 2/C
;
_chemical_formula_sum "Si O2"
_cell_formula_units_Z 24
_cell_length_a 7.751269
_cell_length_b 18.892335
_cell_length_c 7.283519
_cell_angle_alpha 90.000000
_cell_angle_beta 63.909988
_cell_angle_gamma 90.000000
_cell_volume 957.913861
_symmetry_space_group_name_H-M "C 2/C"
_symmetry_group_IT_number 15
_symmetry_cell_setting 'monoclinic'
loop_
_space_group_symop_operation_xyz
x,y,z
-x,y,1/2-z
-x,-y,-z
x,-y,1/2+z
1/2+x,1/2+y,z
1/2-x,1/2+y,1/2-z
1/2-x,1/2-y,-z
1/2+x,1/2-y,1/2+z
loop_
_atom_site_type_symbol
_atom_site_label
_atom_site_fract_x
_atom_site_fract_y
_atom_site_fract_z
Si Si1 0.411218 0.925166 0.488349
Si Si2 0.549413 0.640788 0.039358
Si Si3 0.773207 0.671472 0.563803
O O1 0.500000 0.914611 0.250000
O O2 0.183770 0.919661 0.568089
O O3 0.512834 0.859785 0.543571
O O4 0.500000 0.000000 0.500000
O O5 0.500000 0.684594 0.250000
O O6 0.681419 0.671873 0.812557
O O7 0.358760 0.623768 0.011765
O O8 0.750000 0.750000 0.500000
#
# Coordination Sequence:
#
# PCOD9298093 Si02
#       3
#     8   8   8
#     4  10  24  45  68  99 138 184 234 286 353 420
#     4  10  24  43  68 104 137 182 231 287 344 415
#     4  10  24  45  67  99 142 184 230 288 351 422
#
# _framework density 25.054448000000001
#
# number of rings (size 3 to 8) (size 9 to 14) (size 15 to 20)
#    0.000    2.000    0.000    0.000    4.667   13.333 
#    6.000    0.000    0.000    0.000    0.000    0.000 
#    0.000    0.000    0.000    0.000    0.000    0.000 
#
# Total GULP energy -66862.702455 kJ/mol
# GULP energy per Si atom -5571.891871 kJ/mol
# Density = 2.499742 g / cm^3
# Si number density = 25.054448 Si / 1000 Ang^3
#
#
#
# Elastic Constant Matrix: (Units=GPa)
#
#
# Indices 1 2 3 4 5 6 
#
# 1 178.6817 63.4478 28.9309 0.0000 -6.2869 0.0000
# 2 63.4478 104.2339 -2.6163 0.0000 14.1623 0.0000
# 3 28.9309 -2.6163 181.0082 0.0000 33.2867 0.0000
# 4 0.0000 0.0000 0.0000 6.1514 0.0000 12.4613
# 5 -6.2869 14.1623 33.2867 0.0000 42.9863 0.0000
# 6 0.0000 0.0000 0.0000 12.4613 0.0000 37.9489
#
#
#
# Elastic Compliance Matrix: (Units=1/GPa)
#
#
# Indices 1 2 3 4 5 6 
#
# 1 0.008147 -0.005671 -0.002270 0.000000 0.004818 0.000000
# 2 -0.005671 0.014112 0.002470 0.000000 -0.007391 0.000000
# 3 -0.002270 0.002470 0.007152 0.000000 -0.006684 0.000000
# 4 0.000000 0.000000 0.000000 0.485563 0.000000 -0.159444
# 5 0.004818 -0.007391 -0.006684 0.000000 0.031579 0.000000
# 6 0.000000 0.000000 0.000000 -0.159444 0.000000 0.078708
#
#
# Mechanical properties :
#
#
# Convention : Reuss Voigt Hill
#
# Bulk Modulus (GPa) = 54.14613 71.49429 62.82021
# Shear Modulus (GPa) = 7.78379 42.36143 25.07261
#
# Velocity S-wave (km/s) = 1.76451 4.11636 3.16686
# Velocity P-wave (km/s) = 5.08032 7.15473 6.20483
#
# Compressibility (1/GPa) = 0.01846854
#
# Stress axis : x y z
#
# Youngs Moduli (GPa) = 122.74035 70.86223 139.81489
#
# Poissons Ratio (x) = 0.40185 0.31740
# Poissons Ratio (y) = 0.69604 -0.34528
# Poissons Ratio (z) = 0.27864 -0.17500
#
# Static dielectric constant tensor:
#      x y z
#    x 2.131510 0.000000 -0.002860 
#    y 0.000000 1.266630 0.000000 
#    z -0.002860 0.000000 2.071130 
# 
# From -- ./inp_files/21370.got.cif
#   From: 2010.05.17/outbox.cif.g08.bks.cpg/sg15_11_cif.got.tgz:21370.got - 2010.06.03 18:47:42.
