data_PCOD9298857
_publ_section_title
;
Structure prediction by ZEFSAII (Michael W. Deem and Ramdas Pophale) SiO2 
 PCOD9298857
Probable space group: C 2/C
;
_chemical_formula_sum "Si O2"
_cell_formula_units_Z 40
_cell_length_a 8.298564
_cell_length_b 31.788498
_cell_length_c 7.697612
_cell_angle_alpha 90.000000
_cell_angle_beta 114.393090
_cell_angle_gamma 90.000000
_cell_volume 1849.354943
_symmetry_space_group_name_H-M "C 2/C"
_symmetry_group_IT_number 15
_symmetry_cell_setting 'monoclinic'
loop_
_space_group_symop_operation_xyz
x,y,z
-x,y,1/2-z
-x,-y,-z
x,-y,1/2+z
1/2+x,1/2+y,z
1/2-x,1/2+y,1/2-z
1/2-x,1/2-y,-z
1/2+x,1/2-y,1/2+z
loop_
_atom_site_type_symbol
_atom_site_label
_atom_site_fract_x
_atom_site_fract_y
_atom_site_fract_z
Si Si1 0.000000 0.067321 0.750000
Si Si2 0.500000 0.103065 0.250000
Si Si3 0.096398 0.542534 0.609699
Si Si4 0.349476 0.806205 0.312888
Si Si5 0.016477 0.226142 0.464789
Si Si6 0.172781 0.141126 0.012178
O O1 0.184828 0.042540 0.787684
O O2 0.052752 0.100120 0.927801
O O3 0.550818 0.075459 0.437973
O O4 0.671421 0.130656 0.285834
O O5 0.000000 0.552608 0.750000
O O6 0.000000 0.500000 0.500000
O O7 0.500000 0.821193 0.250000
O O8 0.432503 0.771075 0.479112
O O9 0.264735 0.845443 0.371989
O O10 0.205894 0.780900 0.135305
O O11 0.000000 0.226091 0.250000
O O12 0.919834 0.184037 0.480332
#
# Coordination Sequence:
#
# PCOD9298857 Si02
#       6
#     4   4   8   8   8   8
#     4  10  24  46  67 108 142 172 238 278 345 434
#     4  10  26  42  69 104 134 176 234 274 353 426
#     4  11  24  49  77 105 142 181 221 282 347 420
#     4  11  23  39  61  89 129 182 236 285 340 399
#     4  11  23  38  59  91 129 178 240 280 341 400
#     4  11  23  42  63  91 136 173 225 286 341 400
#
# _framework density 21.629161
#
# number of rings (size 3 to 8) (size 9 to 14) (size 15 to 20)
#    0.000    1.200    3.000    3.000    5.600    5.600 
#    0.000    0.000    0.000    0.000    0.000    0.000 
#    0.000    0.000    0.000    0.000    0.000    0.000 
#
# Total GULP energy -111570.805787 kJ/mol
# GULP energy per Si atom -5578.540289 kJ/mol
# Density = 2.157993 g / cm^3
# Si number density = 21.629161 Si / 1000 Ang^3
#
#
#
# Elastic Constant Matrix: (Units=GPa)
#
#
# Indices 1 2 3 4 5 6 
#
# 1 140.0194 52.7757 50.5550 0.0000 24.8181 0.0000
# 2 52.7757 84.3028 20.9247 0.0000 11.9577 0.0000
# 3 50.5550 20.9247 85.7282 0.0000 21.8332 0.0000
# 4 0.0000 0.0000 0.0000 21.6018 0.0000 24.5134
# 5 24.8181 11.9577 21.8332 0.0000 40.5060 0.0000
# 6 0.0000 0.0000 0.0000 24.5134 0.0000 56.1812
#
#
#
# Elastic Compliance Matrix: (Units=1/GPa)
#
#
# Indices 1 2 3 4 5 6 
#
# 1 0.011438 -0.005602 -0.004653 0.000000 -0.002846 0.000000
# 2 -0.005602 0.015574 -0.000233 0.000000 -0.001040 0.000000
# 3 -0.004653 -0.000233 0.015905 0.000000 -0.005654 0.000000
# 4 0.000000 0.000000 0.000000 0.091693 0.000000 -0.040008
# 5 -0.002846 -0.001040 -0.005654 0.000000 0.029786 0.000000
# 6 0.000000 0.000000 0.000000 -0.040008 0.000000 0.035256
#
#
# Mechanical properties :
#
#
# Convention : Reuss Voigt Hill
#
# Bulk Modulus (GPa) = 45.57488 62.06235 53.81862
# Shear Modulus (GPa) = 21.93548 36.04413 28.98980
#
# Velocity S-wave (km/s) = 3.18805 4.08666 3.66500
# Velocity P-wave (km/s) = 5.88798 7.14310 6.54569
#
# Compressibility (1/GPa) = 0.02194191
#
# Stress axis : x y z
#
# Youngs Moduli (GPa) = 87.43055 64.20891 62.87199
#
# Poissons Ratio (x) = 0.35968 0.29253
# Poissons Ratio (y) = 0.48976 0.01466
# Poissons Ratio (z) = 0.40679 0.01497
#
# Static dielectric constant tensor:
#      x y z
#    x 1.919320 0.000000 -0.016590 
#    y 0.000000 1.831410 0.000000 
#    z -0.016590 0.000000 1.951720 
# 
# From -- ./inp_files/25853.got.cif
#   From: 2010.05.17/outbox.cif.g08.bks.cpg/sg15_13_cif.got.tgz:25853.got - 2010.06.03 18:47:42.
