data_PCOD9298830
_publ_section_title
;
Structure prediction by ZEFSAII (Michael W. Deem and Ramdas Pophale) SiO2 
 PCOD9298830
Probable space group: C 2/C
;
_chemical_formula_sum "Si O2"
_cell_formula_units_Z 36
_cell_length_a 10.098599
_cell_length_b 17.599214
_cell_length_c 9.249573
_cell_angle_alpha 90.000000
_cell_angle_beta 106.430942
_cell_angle_gamma 90.000000
_cell_volume 1576.767857
_symmetry_space_group_name_H-M "C 2/C"
_symmetry_group_IT_number 15
_symmetry_cell_setting 'monoclinic'
loop_
_space_group_symop_operation_xyz
x,y,z
-x,y,1/2-z
-x,-y,-z
x,-y,1/2+z
1/2+x,1/2+y,z
1/2-x,1/2+y,1/2-z
1/2-x,1/2-y,-z
1/2+x,1/2-y,1/2+z
loop_
_atom_site_type_symbol
_atom_site_label
_atom_site_fract_x
_atom_site_fract_y
_atom_site_fract_z
Si Si1 0.227895 0.051311 0.818018
Si Si2 0.382791 0.330397 0.428860
Si Si3 0.000000 0.500000 0.500000
Si Si4 0.342846 0.586502 0.384539
Si Si5 0.350908 0.841095 0.895890
O O1 0.171923 0.128297 0.732148
O O2 0.141640 0.983491 0.720031
O O3 0.386700 0.030488 0.841856
O O4 0.218772 0.051455 0.987879
O O5 0.515251 0.373588 0.531522
O O6 0.416045 0.242299 0.414023
O O7 0.260809 0.339469 0.508324
O O8 0.048880 0.411630 0.547513
O O9 0.236441 0.643716 0.276486
#
# Coordination Sequence:
#
# PCOD9298830 Si02
#       5
#     8   8   4   8   8
#     4  11  24  42  72 100 137 177 225 282 343 409
#     4  11  24  44  69 101 134 182 231 288 338 413
#     4  10  24  46  64 100 136 182 222 280 344 424
#     4  11  24  45  69 103 133 178 229 283 340 412
#     4  10  25  44  70  97 137 184 229 282 349 407
#
# _framework density 22.831516000000001
#
# number of rings (size 3 to 8) (size 9 to 14) (size 15 to 20)
#    0.000    1.333    0.000    4.667    3.111   12.444 
#    4.000    0.000    0.000    0.000    0.000    0.000 
#    0.000    0.000    0.000    0.000    0.000    0.000 
#
# Total GULP energy -100291.944878 kJ/mol
# GULP energy per Si atom -5571.774715 kJ/mol
# Density = 2.277955 g / cm^3
# Si number density = 22.831516 Si / 1000 Ang^3
#
#
#
# Elastic Constant Matrix: (Units=GPa)
#
#
# Indices 1 2 3 4 5 6 
#
# 1 46.1051 29.0626 20.4753 0.0000 12.2618 0.0000
# 2 29.0626 173.4976 42.1309 0.0000 28.5629 0.0000
# 3 20.4753 42.1309 118.6337 0.0000 12.0546 0.0000
# 4 0.0000 0.0000 0.0000 9.1671 0.0000 29.0904
# 5 12.2618 28.5629 12.0546 0.0000 38.9256 0.0000
# 6 0.0000 0.0000 0.0000 29.0904 0.0000 -6.9708
#
#
#
# Elastic Compliance Matrix: (Units=1/GPa)
#
#
# Indices 1 2 3 4 5 6 
#
# 1 0.026180 -0.002791 -0.002992 0.000000 -0.005272 0.000000
# 2 -0.002791 0.007296 -0.001708 0.000000 -0.003945 0.000000
# 3 -0.002992 -0.001708 0.009632 0.000000 -0.000787 0.000000
# 4 0.000000 0.000000 0.000000 0.007659 0.000000 0.031962
# 5 -0.005272 -0.003945 -0.000787 0.000000 0.030490 0.000000
# 6 0.000000 0.000000 0.000000 0.031962 0.000000 -0.010072
#
#
# Mechanical properties :
#
#
# Convention : Reuss Voigt Hill
#
# Bulk Modulus (GPa) = 35.55440 57.95267 46.75353
# Shear Modulus (GPa) = 52.33372 24.66224 38.49798
#
# Velocity S-wave (km/s) = 4.79286 3.29018 4.11076
# Velocity P-wave (km/s) = 6.79963 6.31439 6.56150
#
# Compressibility (1/GPa) = 0.02812591
#
# Stress axis : x y z
#
# Youngs Moduli (GPa) = 38.19770 137.06866 103.81752
#
# Poissons Ratio (x) = 0.38255 0.31057
# Poissons Ratio (y) = 0.10661 0.17736
# Poissons Ratio (z) = 0.11427 0.23416
#
# Static dielectric constant tensor:
#      x y z
#    x 2.011310 0.000000 -0.049040 
#    y 0.000000 1.827830 0.000000 
#    z -0.049040 0.000000 1.852780 
# 
# From -- ./inp_files/29431.got.cif
#   From: 2010.05.17/outbox.cif.g08.bks.cpg/sg15_15_cif.got.tgz:29431.got - 2010.06.03 18:47:42.
