data_PCOD9298344
_publ_section_title
;
Structure prediction by ZEFSAII (Michael W. Deem and Ramdas Pophale) SiO2 
 PCOD9298344
Probable space group: C 2/C
;
_chemical_formula_sum "Si O2"
_cell_formula_units_Z 36
_cell_length_a 11.831033
_cell_length_b 27.212488
_cell_length_c 5.029082
_cell_angle_alpha 90.000000
_cell_angle_beta 74.745522
_cell_angle_gamma 90.000000
_cell_volume 1562.075305
_symmetry_space_group_name_H-M "C 2/C"
_symmetry_group_IT_number 15
_symmetry_cell_setting 'monoclinic'
loop_
_space_group_symop_operation_xyz
x,y,z
-x,y,1/2-z
-x,-y,-z
x,-y,1/2+z
1/2+x,1/2+y,z
1/2-x,1/2+y,1/2-z
1/2-x,1/2-y,-z
1/2+x,1/2-y,1/2+z
loop_
_atom_site_type_symbol
_atom_site_label
_atom_site_fract_x
_atom_site_fract_y
_atom_site_fract_z
Si Si1 0.918843 0.191366 0.064949
Si Si2 0.000000 0.666616 0.250000
Si Si3 0.131314 0.708635 0.593612
Si Si4 0.229679 0.630108 0.883350
Si Si5 0.637493 0.532120 0.659565
O O1 0.819266 0.154938 0.032893
O O2 0.000000 0.199520 0.750000
O O3 0.000000 0.170560 0.250000
O O4 0.863104 0.240179 0.249595
O O5 0.100470 0.705162 0.303457
O O6 0.903828 0.629422 0.432877
O O7 0.221205 0.669059 0.645771
O O8 0.000000 0.689192 0.750000
O O9 0.282102 0.577037 0.799947
O O10 0.500000 0.546729 0.750000
O O11 0.657713 0.512790 0.349729
#
# Coordination Sequence:
#
# PCOD9298344 Si02
#       5
#     8   4   8   8   8
#     4  11  26  41  67 103 138 182 235 285 336 396
#     4  10  24  44  68 100 138 194 224 278 342 396
#     4   9  22  41  64  94 141 182 228 274 329 395
#     4  11  24  43  72  99 140 182 233 278 340 416
#     4  10  24  46  74 104 135 169 219 288 355 404
#
# _framework density 23.046264000000001
#
# number of rings (size 3 to 8) (size 9 to 14) (size 15 to 20)
#    0.000    1.778    0.000    1.333   20.222    3.556 
#    0.000    4.444    0.000    0.000    0.000    0.000 
#    0.000    0.000    0.000    0.000    0.000    0.000 
#
# Total GULP energy -100227.987818 kJ/mol
# GULP energy per Si atom -5568.221545 kJ/mol
# Density = 2.299381 g / cm^3
# Si number density = 23.046264 Si / 1000 Ang^3
#
#
#
# Elastic Constant Matrix: (Units=GPa)
#
#
# Indices 1 2 3 4 5 6 
#
# 1 72.0476 62.0185 10.5108 0.0000 16.8543 0.0000
# 2 62.0185 89.0065 17.2442 0.0000 -6.4022 0.0000
# 3 10.5108 17.2442 64.0628 0.0000 3.8051 0.0000
# 4 0.0000 0.0000 0.0000 13.0602 0.0000 4.6943
# 5 16.8543 -6.4022 3.8051 0.0000 44.0418 0.0000
# 6 0.0000 0.0000 0.0000 4.6943 0.0000 45.2546
#
#
#
# Elastic Compliance Matrix: (Units=1/GPa)
#
#
# Indices 1 2 3 4 5 6 
#
# 1 0.055107 -0.041072 0.003640 0.000000 -0.027374 0.000000
# 2 -0.041072 0.042645 -0.006073 0.000000 0.022442 0.000000
# 3 0.003640 -0.006073 0.016869 0.000000 -0.003733 0.000000
# 4 0.000000 0.000000 0.000000 0.079534 0.000000 -0.008250
# 5 -0.027374 0.022442 -0.003733 0.000000 0.036766 0.000000
# 6 0.000000 0.000000 0.000000 -0.008250 0.000000 0.022953
#
#
# Mechanical properties :
#
#
# Convention : Reuss Voigt Hill
#
# Bulk Modulus (GPa) = 36.21834 44.96266 40.59050
# Shear Modulus (GPa) = 14.28210 29.49421 21.88816
#
# Velocity S-wave (km/s) = 2.49211 3.58129 3.08514
# Velocity P-wave (km/s) = 4.90208 6.05416 5.50833
#
# Compressibility (1/GPa) = 0.02761032
#
# Stress axis : x y z
#
# Youngs Moduli (GPa) = 18.14637 23.44959 59.28049
#
# Poissons Ratio (x) = 0.96313 -0.21579
# Poissons Ratio (y) = 0.74531 0.36002
# Poissons Ratio (z) = -0.06606 0.14241
#
# Static dielectric constant tensor:
#      x y z
#    x 1.815760 0.000000 -0.308990 
#    y 0.000000 1.848340 0.000000 
#    z -0.308990 0.000000 1.376370 
# 
# From -- ./inp_files/4682.got.cif
#   From: 2010.05.17/outbox.cif.g08.bks.cpg/sg15_3_cif.got.tgz:4682.got - 2010.06.03 18:47:42.
