data_PCOD9298199
_publ_section_title
;
Structure prediction by ZEFSAII (Michael W. Deem and Ramdas Pophale) SiO2 
 PCOD9298199
Probable space group: C 2/C
;
_chemical_formula_sum "Si O2"
_cell_formula_units_Z 44
_cell_length_a 8.666128
_cell_length_b 17.172951
_cell_length_c 18.537108
_cell_angle_alpha 90.000000
_cell_angle_beta 142.347604
_cell_angle_gamma 90.000000
_cell_volume 1685.234775
_symmetry_space_group_name_H-M "C 2/C"
_symmetry_group_IT_number 15
_symmetry_cell_setting 'monoclinic'
loop_
_space_group_symop_operation_xyz
x,y,z
-x,y,1/2-z
-x,-y,-z
x,-y,1/2+z
1/2+x,1/2+y,z
1/2-x,1/2+y,1/2-z
1/2-x,1/2-y,-z
1/2+x,1/2-y,1/2+z
loop_
_atom_site_type_symbol
_atom_site_label
_atom_site_fract_x
_atom_site_fract_y
_atom_site_fract_z
Si Si1 0.475922 0.349627 0.384192
Si Si2 0.747266 0.294406 0.858804
Si Si3 0.484519 0.950198 0.566766
Si Si4 0.029547 0.208242 0.411854
Si Si5 0.500000 0.726918 0.750000
Si Si6 0.723515 0.440236 0.066809
O O1 0.467918 0.261532 0.410239
O O2 0.729497 0.399098 0.479624
O O3 0.417540 0.334588 0.280460
O O4 0.266131 0.389986 0.356370
O O5 0.541281 0.282249 0.705640
O O6 0.832806 0.274497 0.980623
O O7 0.804352 0.384535 0.863310
O O8 0.500000 0.000000 0.500000
O O9 0.460527 0.011768 0.623627
O O10 0.743963 0.217548 0.339546
O O11 0.116648 0.121434 0.469003
O O12 0.500000 0.500000 0.000000
#
# Coordination Sequence:
#
# PCOD9298199 Si02
#       6
#     8   8   8   8   4   8
#     4  11  25  45  72 103 139 187 245 300 355 434
#     4  12  24  45  70 105 143 184 241 300 357 434
#     4  11  24  46  73 104 143 194 233 294 376 442
#     4  12  24  44  75 106 142 189 243 302 356 440
#     4  12  28  42  76 112 142 188 260 302 366 420
#     4  10  24  43  74 102 140 189 242 292 372 435
#
# _framework density 26.109124000000001
#
# number of rings (size 3 to 8) (size 9 to 14) (size 15 to 20)
#    0.000    0.727    5.455    1.636    5.091    0.000 
#    1.636    0.000   20.000    0.000    0.000    0.000 
#    0.000    0.000    0.000    0.000    0.000    0.000 
#
# Total GULP energy -122667.461519 kJ/mol
# GULP energy per Si atom -5575.793705 kJ/mol
# Density = 2.604970 g / cm^3
# Si number density = 26.109124 Si / 1000 Ang^3
#
#
#
# Elastic Constant Matrix: (Units=GPa)
#
#
# Indices 1 2 3 4 5 6 
#
# 1 194.7191 78.2967 68.0263 0.0004 0.0651 0.0003
# 2 78.2967 152.9573 45.9212 0.0000 -0.2355 0.0000
# 3 68.0263 45.9212 87.4297 0.0008 19.2562 0.0005
# 4 0.0004 0.0000 0.0008 27.0348 0.0004 0.5858
# 5 0.0651 -0.2355 19.2562 0.0004 64.6448 0.0002
# 6 0.0003 0.0000 0.0005 0.5858 0.0002 84.1668
#
#
#
# Elastic Compliance Matrix: (Units=1/GPa)
#
#
# Indices 1 2 3 4 5 6 
#
# 1 0.007968 -0.002509 -0.005220 0.000000 0.001538 0.000000
# 2 -0.002509 0.008660 -0.002787 0.000000 0.000864 0.000000
# 3 -0.005220 -0.002787 0.018155 0.000000 -0.005413 0.000000
# 4 0.000000 0.000000 0.000000 0.036995 0.000000 -0.000258
# 5 0.001538 0.000864 -0.005413 0.000000 0.017083 0.000000
# 6 0.000000 0.000000 0.000000 -0.000258 0.000000 0.011883
#
#
# Mechanical properties :
#
#
# Convention : Reuss Voigt Hill
#
# Bulk Modulus (GPa) = 72.72152 91.06606 81.89379
# Shear Modulus (GPa) = 39.56949 51.36008 45.46479
#
# Velocity S-wave (km/s) = 3.89722 4.44005 4.17746
# Velocity P-wave (km/s) = 6.94006 7.82561 7.39610
#
# Compressibility (1/GPa) = 0.01375109
#
# Stress axis : x y z
#
# Youngs Moduli (GPa) = 125.50711 115.47292 55.07986
#
# Poissons Ratio (x) = 0.28971 0.28754
# Poissons Ratio (y) = 0.31489 0.15350
# Poissons Ratio (z) = 0.65519 0.32180
#
# Static dielectric constant tensor:
#      x y z
#    x 1.949330 0.000000 -0.222020 
#    y 0.000000 1.732470 0.000000 
#    z -0.222020 0.000000 2.172410 
# 
# From -- ./inp_files/232357.got.cif
#   From: 2010.05.17/outbox.cif.g08.bks.cpg/sg15_117_cif.got.tgz:232357.got - 2010.06.03 18:47:42.
