data_PCOD9298442
_publ_section_title
;
Structure prediction by ZEFSAII (Michael W. Deem and Ramdas Pophale) SiO2 
 PCOD9298442
Probable space group: C 2/C
;
_chemical_formula_sum "Si O2"
_cell_formula_units_Z 52
_cell_length_a 19.688666
_cell_length_b 21.511798
_cell_length_c 10.851228
_cell_angle_alpha 90.000000
_cell_angle_beta 150.249553
_cell_angle_gamma 90.000000
_cell_volume 2280.599496
_symmetry_space_group_name_H-M "C 2/C"
_symmetry_group_IT_number 15
_symmetry_cell_setting 'monoclinic'
loop_
_space_group_symop_operation_xyz
x,y,z
-x,y,1/2-z
-x,-y,-z
x,-y,1/2+z
1/2+x,1/2+y,z
1/2-x,1/2+y,1/2-z
1/2-x,1/2-y,-z
1/2+x,1/2-y,1/2+z
loop_
_atom_site_type_symbol
_atom_site_label
_atom_site_fract_x
_atom_site_fract_y
_atom_site_fract_z
Si Si1 0.213195 0.544311 0.076741
Si Si2 0.530851 0.610307 0.941613
Si Si3 0.505458 0.069309 0.960519
Si Si4 0.950222 0.676791 0.041956
Si Si5 0.620009 0.283725 0.734711
Si Si6 0.000000 0.877371 0.750000
Si Si7 0.214462 0.091992 0.765011
O O1 0.373024 0.557710 0.346141
O O2 0.200953 0.469336 0.064939
O O3 0.139177 0.575151 0.841721
O O4 0.128158 0.572475 0.056669
O O5 0.500000 0.602501 0.750000
O O6 0.384663 0.611903 0.779956
O O7 0.622963 0.671067 0.120137
O O8 0.523576 0.116434 0.100984
O O9 0.500000 0.000000 0.000000
O O10 0.000000 0.702911 0.250000
O O11 0.961299 0.725729 0.949559
O O12 0.803564 0.648575 0.851263
O O13 0.558173 0.329916 0.739024
O O14 0.750000 0.250000 0.000000
O O15 0.887237 0.920641 0.509500
#
# Coordination Sequence:
#
# PCOD9298442 Si02
#       7
#     8   8   8   8   8   4   8
#     4  11  25  43  69 100 138 187 225 281 342 402
#     4  11  27  44  66 101 139 177 229 287 339 408
#     4  11  24  43  68 100 138 175 237 283 331 413
#     4  12  25  43  72  99 135 182 224 285 348 397
#     4  11  23  47  69  96 134 175 232 277 337 408
#     4  10  24  44  70 104 130 180 226 282 332 416
#     4  11  24  43  68  99 138 178 229 274 346 405
#
# _framework density 22.801023000000001
#
# number of rings (size 3 to 8) (size 9 to 14) (size 15 to 20)
#    0.000    0.923    3.077    2.769    7.538    2.462 
#    0.000    2.308    0.000    0.000    0.000    0.000 
#    0.000    0.000    0.000    0.000    0.000    0.000 
#
# Total GULP energy -145093.903860 kJ/mol
# GULP energy per Si atom -5580.534764 kJ/mol
# Density = 2.274913 g / cm^3
# Si number density = 22.801023 Si / 1000 Ang^3
#
#
#
# Elastic Constant Matrix: (Units=GPa)
#
#
# Indices 1 2 3 4 5 6 
#
# 1 95.5245 -1.8104 9.6398 0.0000 3.7122 0.0000
# 2 -1.8104 75.8396 -4.8798 0.0000 -5.0638 0.0000
# 3 9.6398 -4.8798 62.8746 0.0000 -5.8547 0.0000
# 4 0.0000 0.0000 0.0000 32.1896 0.0000 -11.5837
# 5 3.7122 -5.0638 -5.8547 0.0000 31.3385 0.0000
# 6 0.0000 0.0000 0.0000 -11.5837 0.0000 29.1809
#
#
#
# Elastic Compliance Matrix: (Units=1/GPa)
#
#
# Indices 1 2 3 4 5 6 
#
# 1 0.010712 0.000034 -0.001788 0.000000 -0.001597 0.000000
# 2 0.000034 0.013428 0.001261 0.000000 0.002401 0.000000
# 3 -0.001788 0.001261 0.016604 0.000000 0.003518 0.000000
# 4 0.000000 0.000000 0.000000 0.036243 0.000000 0.014387
# 5 -0.001597 0.002401 0.003518 0.000000 0.033144 0.000000
# 6 0.000000 0.000000 0.000000 0.014387 0.000000 0.039980
#
#
# Mechanical properties :
#
#
# Convention : Reuss Voigt Hill
#
# Bulk Modulus (GPa) = 25.15335 26.68200 25.91768
# Shear Modulus (GPa) = 30.42267 33.96108 32.19187
#
# Velocity S-wave (km/s) = 3.65673 3.86353 3.76155
# Velocity P-wave (km/s) = 5.37443 5.62406 5.50066
#
# Compressibility (1/GPa) = 0.03975613
#
# Stress axis : x y z
#
# Youngs Moduli (GPa) = 93.35570 74.47144 60.22552
#
# Poissons Ratio (x) = -0.00253 0.10771
# Poissons Ratio (y) = -0.00317 -0.07592
# Poissons Ratio (z) = 0.16696 -0.09387
#
# Static dielectric constant tensor:
#      x y z
#    x 1.866310 0.000000 0.028720 
#    y 0.000000 1.903560 0.000000 
#    z 0.028720 0.000000 1.954380 
# 
# From -- ./inp_files/114402.got.cif
#   From: 2010.05.17/outbox.cif.g08.bks.cpg/sg15_58_cif.got.tgz:114402.got - 2010.06.03 18:47:42.
