data_PCOD9298257
_publ_section_title
;
Structure prediction by ZEFSAII (Michael W. Deem and Ramdas Pophale) SiO2 
 PCOD9298257
Probable space group: C 2/C
;
_chemical_formula_sum "Si O2"
_cell_formula_units_Z 36
_cell_length_a 16.940172
_cell_length_b 12.724131
_cell_length_c 9.214469
_cell_angle_alpha 90.000000
_cell_angle_beta 112.410803
_cell_angle_gamma 90.000000
_cell_volume 1836.162192
_symmetry_space_group_name_H-M "C 2/C"
_symmetry_group_IT_number 15
_symmetry_cell_setting 'monoclinic'
loop_
_space_group_symop_operation_xyz
x,y,z
-x,y,1/2-z
-x,-y,-z
x,-y,1/2+z
1/2+x,1/2+y,z
1/2-x,1/2+y,1/2-z
1/2-x,1/2-y,-z
1/2+x,1/2-y,1/2+z
loop_
_atom_site_type_symbol
_atom_site_label
_atom_site_fract_x
_atom_site_fract_y
_atom_site_fract_z
Si Si1 0.136019 0.661026 0.379633
Si Si2 0.687517 0.602343 0.912127
Si Si3 0.475653 0.879432 0.962271
Si Si4 0.500000 0.264320 0.750000
Si Si5 0.585892 0.447681 0.629521
O O1 0.210454 0.591634 0.503715
O O2 0.170708 0.776084 0.366544
O O3 0.102493 0.618345 0.203823
O O4 0.055985 0.670856 0.432123
O O5 0.636551 0.530075 0.764714
O O6 0.646693 0.582144 0.040158
O O7 0.461644 0.812475 0.098816
O O8 0.500000 0.000000 0.000000
O O9 0.561980 0.345570 0.708718
O O10 0.500000 0.500000 0.500000
#
# Coordination Sequence:
#
# PCOD9298257 Si02
#       5
#     8   8   8   4   8
#     4  10  24  44  64  88 135 175 210 263 323 389
#     4  11  24  42  65  99 131 169 210 271 328 383
#     4  11  24  44  66  89 129 179 222 261 323 391
#     4  12  22  40  70 100 120 174 228 270 322 390
#     4  12  23  40  69 100 133 165 213 273 334 390
#
# _framework density 19.606110999999999
#
# number of rings (size 3 to 8) (size 9 to 14) (size 15 to 20)
#    0.000    0.889    4.444    2.667    6.222    0.000 
#    0.000    1.111    0.000    0.000    0.000    0.000 
#    0.000    0.000    0.000    0.000    0.000    0.000 
#
# Total GULP energy -100503.985411 kJ/mol
# GULP energy per Si atom -5583.554745 kJ/mol
# Density = 1.956149 g / cm^3
# Si number density = 19.606111 Si / 1000 Ang^3
#
#
#
# Elastic Constant Matrix: (Units=GPa)
#
#
# Indices 1 2 3 4 5 6 
#
# 1 54.1753 7.6939 39.7621 0.0000 17.0096 0.0000
# 2 7.6939 108.7670 71.3047 0.0000 21.1600 0.0000
# 3 39.7621 71.3047 161.8837 0.0000 20.0947 0.0000
# 4 0.0000 0.0000 0.0000 43.6506 0.0000 -0.9887
# 5 17.0096 21.1600 20.0947 0.0000 34.6593 0.0000
# 6 0.0000 0.0000 0.0000 -0.9887 0.0000 24.0935
#
#
#
# Elastic Compliance Matrix: (Units=1/GPa)
#
#
# Indices 1 2 3 4 5 6 
#
# 1 0.027022 0.005371 -0.007489 0.000000 -0.012199 0.000000
# 2 0.005371 0.014832 -0.006898 0.000000 -0.007692 0.000000
# 3 -0.007489 -0.006898 0.010857 0.000000 0.001592 0.000000
# 4 0.000000 0.000000 0.000000 0.022931 0.000000 0.000941
# 5 -0.012199 -0.007692 0.001592 0.000000 0.038613 0.000000
# 6 0.000000 0.000000 0.000000 0.000941 0.000000 0.041544
#
#
# Mechanical properties :
#
#
# Convention : Reuss Voigt Hill
#
# Bulk Modulus (GPa) = 28.83372 62.48304 45.65838
# Shear Modulus (GPa) = 26.97015 34.21837 30.59426
#
# Velocity S-wave (km/s) = 3.71293 4.18220 3.95453
# Velocity P-wave (km/s) = 5.75496 7.43367 6.64752
#
# Compressibility (1/GPa) = 0.03468162
#
# Stress axis : x y z
#
# Youngs Moduli (GPa) = 37.00632 67.41979 92.10348
#
# Poissons Ratio (x) = -0.36213 0.68975
# Poissons Ratio (y) = -0.19877 0.63530
# Poissons Ratio (z) = 0.27714 0.46504
#
# Static dielectric constant tensor:
#      x y z
#    x 1.749910 0.000000 0.020050 
#    y 0.000000 1.698620 0.000000 
#    z 0.020050 0.000000 1.689660 
# 
# From -- ./inp_files/45989.got.cif
#   From: 2010.05.17/outbox.cif.g08.bks.cpg/sg15_23_cif.got.tgz:45989.got - 2010.06.03 18:47:42.
