data_PCOD9298896
_publ_section_title
;
Structure prediction by ZEFSAII (Michael W. Deem and Ramdas Pophale) SiO2 
 PCOD9298896
Probable space group: C 2/C
;
_chemical_formula_sum "Si O2"
_cell_formula_units_Z 40
_cell_length_a 11.285678
_cell_length_b 17.003765
_cell_length_c 9.036261
_cell_angle_alpha 90.000000
_cell_angle_beta 68.738465
_cell_angle_gamma 90.000000
_cell_volume 1616.021311
_symmetry_space_group_name_H-M "C 2/C"
_symmetry_group_IT_number 15
_symmetry_cell_setting 'monoclinic'
loop_
_space_group_symop_operation_xyz
x,y,z
-x,y,1/2-z
-x,-y,-z
x,-y,1/2+z
1/2+x,1/2+y,z
1/2-x,1/2+y,1/2-z
1/2-x,1/2-y,-z
1/2+x,1/2-y,1/2+z
loop_
_atom_site_type_symbol
_atom_site_label
_atom_site_fract_x
_atom_site_fract_y
_atom_site_fract_z
Si Si1 0.469401 0.916476 0.435024
Si Si2 0.684759 0.346596 0.568179
Si Si3 0.591900 0.516402 0.593167
Si Si4 0.801719 0.246225 0.729482
Si Si5 0.692476 0.860663 0.525335
O O1 0.500000 0.928465 0.250000
O O2 0.333454 0.873134 0.494857
O O3 0.570137 0.864320 0.477102
O O4 0.500000 0.000000 0.500000
O O5 0.624211 0.429285 0.635736
O O6 0.677718 0.281865 0.700526
O O7 0.642661 0.306427 0.431529
O O8 0.500000 0.560059 0.750000
O O9 0.500000 0.500000 0.500000
O O10 0.723484 0.560118 0.494406
O O11 0.783952 0.190958 0.878938
O O12 0.845693 0.324327 0.799576
#
# Coordination Sequence:
#
# PCOD9298896 Si02
#       5
#     8   8   8   8   8
#     4  12  26  44  79 103 139 179 240 314 347 425
#     4  11  24  49  70 105 142 183 243 284 365 410
#     4  12  26  45  73 100 140 192 234 286 346 434
#     4  10  24  46  69 101 145 182 226 300 347 436
#     4  11  24  49  70 105 140 183 247 286 364 415
#
# _framework density 24.752147999999998
#
# number of rings (size 3 to 8) (size 9 to 14) (size 15 to 20)
#    0.000    0.800    4.000    2.400    2.800    0.000 
#   36.000    0.000    0.000    0.000    0.000    0.000 
#    0.000    0.000    0.000    0.000    0.000    0.000 
#
# Total GULP energy -111480.301901 kJ/mol
# GULP energy per Si atom -5574.015095 kJ/mol
# Density = 2.469581 g / cm^3
# Si number density = 24.752148 Si / 1000 Ang^3
#
#
#
# Elastic Constant Matrix: (Units=GPa)
#
#
# Indices 1 2 3 4 5 6 
#
# 1 112.7575 17.1110 45.4692 0.0000 0.2250 0.0000
# 2 17.1110 103.8059 24.6417 0.0000 -6.8333 0.0000
# 3 45.4692 24.6417 155.6791 0.0000 33.0468 0.0000
# 4 0.0000 0.0000 0.0000 38.8264 0.0000 23.6249
# 5 0.2250 -6.8333 33.0468 0.0000 36.5594 0.0000
# 6 0.0000 0.0000 0.0000 23.6249 0.0000 11.9420
#
#
#
# Elastic Compliance Matrix: (Units=1/GPa)
#
#
# Indices 1 2 3 4 5 6 
#
# 1 0.010408 -0.000665 -0.003582 0.000000 0.003050 0.000000
# 2 -0.000665 0.010571 -0.002350 0.000000 0.004105 0.000000
# 3 -0.003582 -0.002350 0.009813 0.000000 -0.009288 0.000000
# 4 0.000000 0.000000 0.000000 -0.126405 0.000000 0.250068
# 5 0.003050 0.004105 -0.009288 0.000000 0.036496 0.000000
# 6 0.000000 0.000000 0.000000 0.250068 0.000000 -0.410974
#
#
# Mechanical properties :
#
#
# Convention : Reuss Voigt Hill
#
# Bulk Modulus (GPa) = 56.82406 60.74291 58.78349
# Shear Modulus (GPa) = -11.08572 36.46694 12.69061
#
# Velocity S-wave (km/s) = -2.11859 3.84250 2.26676
# Velocity P-wave (km/s) = 4.12583 6.65433 5.53637
#
# Compressibility (1/GPa) = 0.01759818
#
# Stress axis : x y z
#
# Youngs Moduli (GPa) = 96.08217 94.59807 101.90333
#
# Poissons Ratio (x) = 0.06286 0.36501
# Poissons Ratio (y) = 0.06385 0.23952
# Poissons Ratio (z) = 0.34416 0.22235
#
# Static dielectric constant tensor:
#      x y z
#    x 2.226380 0.000000 -0.027270 
#    y 0.000000 2.226940 0.000000 
#    z -0.027270 0.000000 1.950230 
# 
# From -- ./inp_files/29091.got.cif
#   From: 2010.05.17/outbox.cif.g08.bks.cpg/sg15_15_cif.got.tgz:29091.got - 2010.06.03 18:47:42.
