data_PCOD9298871
_publ_section_title
;
Structure prediction by ZEFSAII (Michael W. Deem and Ramdas Pophale) SiO2 
 PCOD9298871
Probable space group: C 2/C
;
_chemical_formula_sum "Si O2"
_cell_formula_units_Z 48
_cell_length_a 18.703227
_cell_length_b 22.923903
_cell_length_c 5.118934
_cell_angle_alpha 90.000000
_cell_angle_beta 73.320053
_cell_angle_gamma 90.000000
_cell_volume 2102.399490
_symmetry_space_group_name_H-M "C 2/C"
_symmetry_group_IT_number 15
_symmetry_cell_setting 'monoclinic'
loop_
_space_group_symop_operation_xyz
x,y,z
-x,y,1/2-z
-x,-y,-z
x,-y,1/2+z
1/2+x,1/2+y,z
1/2-x,1/2+y,1/2-z
1/2-x,1/2-y,-z
1/2+x,1/2-y,1/2+z
loop_
_atom_site_type_symbol
_atom_site_label
_atom_site_fract_x
_atom_site_fract_y
_atom_site_fract_z
Si Si1 0.650604 0.621652 0.279542
Si Si2 0.000000 0.847707 0.750000
Si Si3 0.000000 0.236300 0.750000
Si Si4 0.759933 0.042014 0.010228
Si Si5 0.417962 0.039818 0.895024
Si Si6 0.333309 0.246036 0.546659
Si Si7 0.800090 0.626237 0.795932
O O1 0.573127 0.614147 0.216311
O O2 0.663823 0.575887 0.498305
O O3 0.654332 0.688225 0.371396
O O4 0.720008 0.616782 0.011208
O O5 0.007931 0.805377 0.493278
O O6 0.082225 0.268148 0.656440
O O7 0.707455 0.096983 0.984018
O O8 0.750991 0.999492 0.771698
O O9 0.500000 0.063708 0.750000
O O10 0.359894 0.089426 0.890597
O O11 0.410774 0.987546 0.689472
O O12 0.250000 0.250000 0.500000
O O13 0.320347 0.193857 0.763942
#
# Coordination Sequence:
#
# PCOD9298871 Si02
#       7
#     8   4   4   8   8   8   8
#     4  11  25  46  74 103 143 186 236 292 357 431
#     4  10  24  46  74  97 140 189 226 284 366 416
#     4  10  24  46  68 105 148 183 232 286 344 434
#     4  12  25  43  70 103 137 183 240 292 352 418
#     4  10  24  46  68  98 142 191 233 281 341 407
#     4  11  23  45  73 110 143 189 234 289 362 426
#     4  12  24  43  73 108 143 183 240 293 350 421
#
# _framework density 22.831054000000002
#
# number of rings (size 3 to 8) (size 9 to 14) (size 15 to 20)
#    0.000    1.000    3.333    2.500    4.667    1.333 
#   13.500    0.833    0.000    0.000    0.000    0.000 
#    0.000    0.000    0.000    0.000    0.000    0.000 
#
# Total GULP energy -133914.392637 kJ/mol
# GULP energy per Si atom -5579.766360 kJ/mol
# Density = 2.277909 g / cm^3
# Si number density = 22.831054 Si / 1000 Ang^3
#
#
#
# Elastic Constant Matrix: (Units=GPa)
#
#
# Indices 1 2 3 4 5 6 
#
# 1 198.0673 13.7975 23.5173 0.0000 -23.2052 0.0000
# 2 13.7975 63.2873 -4.8740 0.0000 -0.7171 0.0000
# 3 23.5173 -4.8740 85.2345 0.0000 10.4335 0.0000
# 4 0.0000 0.0000 0.0000 28.4347 0.0000 -3.9796
# 5 -23.2052 -0.7171 10.4335 0.0000 43.3099 0.0000
# 6 0.0000 0.0000 0.0000 -3.9796 0.0000 41.2923
#
#
#
# Elastic Compliance Matrix: (Units=1/GPa)
#
#
# Indices 1 2 3 4 5 6 
#
# 1 0.005821 -0.001392 -0.002127 0.000000 0.003608 0.000000
# 2 -0.001392 0.016204 0.001411 0.000000 -0.000817 0.000000
# 3 -0.002127 0.001411 0.012918 0.000000 -0.004228 0.000000
# 4 0.000000 0.000000 0.000000 0.035649 0.000000 0.003436
# 5 0.003608 -0.000817 -0.004228 0.000000 0.026028 0.000000
# 6 0.000000 0.000000 0.000000 0.003436 0.000000 0.024549
#
#
# Mechanical properties :
#
#
# Convention : Reuss Voigt Hill
#
# Bulk Modulus (GPa) = 32.54673 45.71897 39.13285
# Shear Modulus (GPa) = 36.86572 43.55060 40.20816
#
# Velocity S-wave (km/s) = 4.02272 4.37225 4.20112
# Velocity P-wave (km/s) = 5.98855 6.74960 6.38043
#
# Compressibility (1/GPa) = 0.03072505
#
# Stress axis : x y z
#
# Youngs Moduli (GPa) = 171.78872 61.71386 77.41384
#
# Poissons Ratio (x) = 0.08591 0.16469
# Poissons Ratio (y) = 0.23914 -0.10921
# Poissons Ratio (z) = 0.36547 -0.08706
#
# Static dielectric constant tensor:
#      x y z
#    x 1.917420 0.000000 -0.040190 
#    y 0.000000 1.832810 0.000000 
#    z -0.040190 0.000000 1.964330 
# 
# From -- ./inp_files/10907.got.cif
#   From: 2010.05.17/outbox.cif.g08.bks.cpg/sg15_6_cif.got.tgz:10907.got - 2010.06.03 18:47:42.
