data_PCOD9298081
_publ_section_title
;
Structure prediction by ZEFSAII (Michael W. Deem and Ramdas Pophale) SiO2 
 PCOD9298081
Probable space group: C 2/C
;
_chemical_formula_sum "Si O2"
_cell_formula_units_Z 48
_cell_length_a 20.197902
_cell_length_b 8.422267
_cell_length_c 18.991960
_cell_angle_alpha 90.000000
_cell_angle_beta 43.589925
_cell_angle_gamma 90.000000
_cell_volume 2227.585622
_symmetry_space_group_name_H-M "C 2/C"
_symmetry_group_IT_number 15
_symmetry_cell_setting 'monoclinic'
loop_
_space_group_symop_operation_xyz
x,y,z
-x,y,1/2-z
-x,-y,-z
x,-y,1/2+z
1/2+x,1/2+y,z
1/2-x,1/2+y,1/2-z
1/2-x,1/2-y,-z
1/2+x,1/2-y,1/2+z
loop_
_atom_site_type_symbol
_atom_site_label
_atom_site_fract_x
_atom_site_fract_y
_atom_site_fract_z
Si Si1 0.404898 0.740217 0.866072
Si Si2 0.777360 0.380135 0.849495
Si Si3 0.880317 0.644194 0.124150
Si Si4 0.094453 0.314476 0.477295
Si Si5 0.728353 0.269594 0.416762
Si Si6 0.599674 0.367457 0.636114
O O1 0.500000 0.786344 0.750000
O O2 0.317254 0.769467 0.880799
O O3 0.411546 0.551829 0.876964
O O4 0.400682 0.835354 0.941982
O O5 0.847772 0.376369 0.729038
O O6 0.674376 0.318279 0.902027
O O7 0.770597 0.553945 0.887569
O O8 0.883900 0.474522 0.082041
O O9 0.805107 0.742691 0.136550
O O10 0.984846 0.725008 0.042600
O O11 0.636899 0.267944 0.540010
O O12 0.811393 0.151412 0.378309
O O13 0.500000 0.317342 0.750000
#
# Coordination Sequence:
#
# PCOD9298081 Si02
#       6
#     8   8   8   8   8   8
#     4  11  22  44  71  96 127 172 223 268 324 388
#     4  12  24  42  70  97 129 174 220 269 326 384
#     4  11  26  44  64  97 137 173 216 266 327 394
#     4  11  24  44  67  96 131 175 216 269 324 388
#     4  11  25  42  65 101 131 168 216 270 328 384
#     4  10  24  43  67  99 129 170 216 272 328 382
#
# _framework density 21.547992000000001
#
# number of rings (size 3 to 8) (size 9 to 14) (size 15 to 20)
#    0.000    1.000    3.333    2.500    4.667    5.333 
#    0.000    0.000    0.000    0.000    0.000    0.000 
#    0.000    0.000    0.000    0.000    0.000    0.000 
#
# Total GULP energy -134178.477165 kJ/mol
# GULP energy per Si atom -5590.769882 kJ/mol
# Density = 2.149895 g / cm^3
# Si number density = 21.547992 Si / 1000 Ang^3
#
#
#
# Elastic Constant Matrix: (Units=GPa)
#
#
# Indices 1 2 3 4 5 6 
#
# 1 87.8569 4.5848 28.4066 0.0000 7.1524 0.0000
# 2 4.5848 27.6431 6.9737 0.0000 -1.2021 -0.0003
# 3 28.4066 6.9737 103.8469 0.0000 3.4082 0.0001
# 4 0.0000 0.0000 0.0000 16.8211 0.0000 -5.7410
# 5 7.1524 -1.2021 3.4082 0.0000 28.1707 -0.0002
# 6 0.0000 -0.0003 0.0001 -5.7410 -0.0002 20.7424
#
#
#
# Elastic Compliance Matrix: (Units=1/GPa)
#
#
# Indices 1 2 3 4 5 6 
#
# 1 0.012759 -0.001410 -0.003300 0.000000 -0.002900 0.000000
# 2 -0.001410 0.037054 -0.002175 0.000000 0.002202 0.000001
# 3 -0.003300 -0.002175 0.010696 0.000000 -0.000549 0.000000
# 4 0.000000 0.000000 0.000000 0.065650 0.000000 0.018170
# 5 -0.002900 0.002202 -0.000549 0.000000 0.036395 0.000000
# 6 0.000000 0.000001 0.000000 0.018170 0.000000 0.053240
#
#
# Mechanical properties :
#
#
# Convention : Reuss Voigt Hill
#
# Bulk Modulus (GPa) = 21.39534 33.25301 27.32417
# Shear Modulus (GPa) = 20.39625 25.10563 22.75094
#
# Velocity S-wave (km/s) = 3.07994 3.41706 3.25287
# Velocity P-wave (km/s) = 4.75382 5.57082 5.17845
#
# Compressibility (1/GPa) = 0.04673916
#
# Stress axis : x y z
#
# Youngs Moduli (GPa) = 78.37671 26.98786 93.48943
#
# Poissons Ratio (x) = 0.03804 0.30854
# Poissons Ratio (y) = 0.11049 0.20334
# Poissons Ratio (z) = 0.25866 0.05870
#
# Static dielectric constant tensor:
#      x y z
#    x 1.749760 0.000000 -0.016630 
#    y 0.000000 1.772410 0.000000 
#    z -0.016630 0.000000 1.805060 
# 
# From -- ./inp_files/247262.got.cif
#   From: 2010.05.17/outbox.cif.g08.bks.cpg/sg15_124_cif.got.tgz:247262.got - 2010.06.03 18:47:42.
