data_PCOD9298480
_publ_section_title
;
Structure prediction by ZEFSAII (Michael W. Deem and Ramdas Pophale) SiO2 
 PCOD9298480
Probable space group: C 2/C
;
_chemical_formula_sum "Si O2"
_cell_formula_units_Z 44
_cell_length_a 18.317258
_cell_length_b 15.508523
_cell_length_c 24.791563
_cell_angle_alpha 90.000000
_cell_angle_beta 18.262150
_cell_angle_gamma 90.000000
_cell_volume 2206.914768
_symmetry_space_group_name_H-M "C 2/C"
_symmetry_group_IT_number 15
_symmetry_cell_setting 'monoclinic'
loop_
_space_group_symop_operation_xyz
x,y,z
-x,y,1/2-z
-x,-y,-z
x,-y,1/2+z
1/2+x,1/2+y,z
1/2-x,1/2+y,1/2-z
1/2-x,1/2-y,-z
1/2+x,1/2-y,1/2+z
loop_
_atom_site_type_symbol
_atom_site_label
_atom_site_fract_x
_atom_site_fract_y
_atom_site_fract_z
Si Si1 0.740571 0.077947 0.878368
Si Si2 0.786252 0.898202 0.789671
Si Si3 0.523941 0.775604 0.295951
Si Si4 0.298587 0.349502 0.458663
Si Si5 0.500000 0.955393 0.750000
Si Si6 0.869309 0.930632 0.052254
O O1 0.758703 0.107288 0.927939
O O2 0.933341 0.135556 0.713712
O O3 0.816139 0.980790 0.808599
O O4 0.481006 0.095473 0.041106
O O5 0.841958 0.811881 0.783192
O O6 0.945553 0.899235 0.623501
O O7 0.500000 0.796408 0.250000
O O8 0.698627 0.853226 0.195423
O O9 0.250000 0.750000 0.500000
O O10 0.250000 0.250000 0.500000
O O11 0.127794 0.397858 0.617413
O O12 0.311946 0.012813 0.853090
O O13 0.000000 0.000000 0.000000
#
# Coordination Sequence:
#
# PCOD9298480 Si02
#       6
#     8   8   8   8   4   8
#     4  10  24  44  71 103 139 194 238 296 377 441
#     4  11  24  47  71 106 144 183 249 303 361 449
#     4  12  26  47  77 109 148 195 248 309 374 446
#     4  11  24  43  69 101 142 189 240 298 370 445
#     4  12  22  44  68  96 150 180 246 300 376 438
#     4  12  26  46  73 110 148 197 242 310 382 448
#
# _framework density 19.937335000000001
#
# number of rings (size 3 to 8) (size 9 to 14) (size 15 to 20)
#    0.000    0.727    4.545    2.182    2.545    7.273 
#    0.000    0.000    0.000    0.000    0.000    0.000 
#    0.000    0.000    0.000    0.000    0.000    0.000 
#
# Total GULP energy -122529.816770 kJ/mol
# GULP energy per Si atom -5569.537126 kJ/mol
# Density = 1.989196 g / cm^3
# Si number density = 19.937335 Si / 1000 Ang^3
#
#
#
# Elastic Constant Matrix: (Units=GPa)
#
#
# Indices 1 2 3 4 5 6 
#
# 1 77.0414 50.5067 28.9661 -0.0027 -11.6790 -0.0346
# 2 50.5067 180.6105 71.2888 -0.0399 -13.9048 -0.0009
# 3 28.9661 71.2888 160.0507 0.0826 -5.3162 0.0318
# 4 -0.0027 -0.0399 0.0826 52.6582 -0.0115 1.6576
# 5 -11.6790 -13.9048 -5.3162 -0.0115 34.2064 0.0548
# 6 -0.0346 -0.0009 0.0318 1.6576 0.0548 28.1128
#
#
#
# Elastic Compliance Matrix: (Units=1/GPa)
#
#
# Indices 1 2 3 4 5 6 
#
# 1 0.016539 -0.003876 -0.001137 0.000000 0.003894 0.000014
# 2 -0.003876 0.007808 -0.002729 0.000010 0.001426 -0.000005
# 3 -0.001137 -0.002729 0.007659 -0.000014 -0.000307 -0.000009
# 4 0.000000 0.000010 -0.000014 0.019026 0.000010 -0.001122
# 5 0.003894 0.001426 -0.000307 0.000010 0.031096 -0.000056
# 6 0.000014 -0.000005 -0.000009 -0.001122 -0.000056 0.035637
#
#
# Mechanical properties :
#
#
# Convention : Reuss Voigt Hill
#
# Bulk Modulus (GPa) = 60.52852 79.91398 70.22125
# Shear Modulus (GPa) = 36.03420 40.79154 38.41287
#
# Velocity S-wave (km/s) = 4.25593 4.52817 4.39416
# Velocity P-wave (km/s) = 7.38755 8.21636 7.81296
#
# Compressibility (1/GPa) = 0.01652114
#
# Stress axis : x y z
#
# Youngs Moduli (GPa) = 60.46203 128.07975 130.56416
#
# Poissons Ratio (x) = 0.49648 0.14850
# Poissons Ratio (y) = 0.23437 0.35627
# Poissons Ratio (z) = 0.06877 0.34949
#
# Static dielectric constant tensor:
#      x y z
#    x 1.694740 0.005220 -0.009800 
#    y 0.005220 0.090650 0.007280 
#    z -0.009800 0.007280 1.741620 
# 
# From -- ./inp_files/277611.got.cif
#   From: 2010.05.17/outbox.cif.g08.bks.cpg/sg15_139_cif.got.tgz:277611.got - 2010.06.03 18:47:42.
