data_PCOD9298403
_publ_section_title
;
Structure prediction by ZEFSAII (Michael W. Deem and Ramdas Pophale) SiO2 
 PCOD9298403
Probable space group: C 2/C
;
_chemical_formula_sum "Si O2"
_cell_formula_units_Z 36
_cell_length_a 12.568286
_cell_length_b 8.272237
_cell_length_c 14.847745
_cell_angle_alpha 90.000000
_cell_angle_beta 84.504966
_cell_angle_gamma 90.000000
_cell_volume 1536.593968
_symmetry_space_group_name_H-M "C 2/C"
_symmetry_group_IT_number 15
_symmetry_cell_setting 'monoclinic'
loop_
_space_group_symop_operation_xyz
x,y,z
-x,y,1/2-z
-x,-y,-z
x,-y,1/2+z
1/2+x,1/2+y,z
1/2-x,1/2+y,1/2-z
1/2-x,1/2-y,-z
1/2+x,1/2-y,1/2+z
loop_
_atom_site_type_symbol
_atom_site_label
_atom_site_fract_x
_atom_site_fract_y
_atom_site_fract_z
Si Si1 0.000000 0.213202 0.250000
Si Si2 0.714164 0.893609 0.936016
Si Si3 0.621884 0.963919 0.751923
Si Si4 0.049788 0.029894 0.592115
Si Si5 0.841954 0.656656 0.436046
O O1 0.100189 0.340148 0.249932
O O2 0.994253 0.088845 0.167372
O O3 0.666110 0.887067 0.839907
O O4 0.827352 0.978704 0.909783
O O5 0.750000 0.750000 0.000000
O O6 0.635157 0.004522 0.002101
O O7 0.500000 0.906371 0.750000
O O8 0.690232 0.911897 0.659261
O O9 0.060883 0.223181 0.592424
O O10 0.000000 0.000000 0.500000
O O11 0.750000 0.750000 0.500000
#
# Coordination Sequence:
#
# PCOD9298403 Si02
#       5
#     4   8   8   8   8
#     4  10  24  44  72 102 146 192 248 296 376 448
#     4  11  25  44  72 100 141 195 249 309 381 449
#     4  10  25  45  72 101 144 192 257 305 376 453
#     4  11  25  40  66 102 141 183 238 303 370 440
#     4  10  24  44  69 103 145 188 246 309 374 445
#
# _framework density 23.428439000000001
#
# number of rings (size 3 to 8) (size 9 to 14) (size 15 to 20)
#    0.667    0.889    0.000    2.667    4.667   11.556 
#    0.000    0.000    0.000    0.000    0.000    0.000 
#    0.000    0.000    0.000    0.000    0.000    0.000 
#
# Total GULP energy -100227.124071 kJ/mol
# GULP energy per Si atom -5568.173559 kJ/mol
# Density = 2.337511 g / cm^3
# Si number density = 23.428439 Si / 1000 Ang^3
#
#
#
# Elastic Constant Matrix: (Units=GPa)
#
#
# Indices 1 2 3 4 5 6 
#
# 1 78.0870 16.6380 47.0426 0.0000 18.4273 0.0000
# 2 16.6380 122.0876 87.0723 0.0000 -17.8230 0.0000
# 3 47.0426 87.0723 247.7820 0.0000 13.0574 0.0000
# 4 0.0000 0.0000 0.0000 48.3980 0.0000 -13.9647
# 5 18.4273 -17.8230 13.0574 0.0000 38.8085 0.0000
# 6 0.0000 0.0000 0.0000 -13.9647 0.0000 22.2282
#
#
#
# Elastic Compliance Matrix: (Units=1/GPa)
#
#
# Indices 1 2 3 4 5 6 
#
# 1 0.016304 -0.001974 -0.001981 0.000000 -0.007982 0.000000
# 2 -0.001974 0.013008 -0.004643 0.000000 0.008474 0.000000
# 3 -0.001981 -0.004643 0.006216 0.000000 -0.003283 0.000000
# 4 0.000000 0.000000 0.000000 0.025237 0.000000 0.015855
# 5 -0.007982 0.008474 -0.003283 0.000000 0.034554 0.000000
# 6 0.000000 0.000000 0.000000 0.015855 0.000000 0.054949
#
#
# Mechanical properties :
#
#
# Convention : Reuss Voigt Hill
#
# Bulk Modulus (GPa) = 54.54867 83.27361 68.91114
# Shear Modulus (GPa) = 28.80606 41.70053 35.25330
#
# Velocity S-wave (km/s) = 3.51028 4.22348 3.88328
# Velocity P-wave (km/s) = 6.30579 7.70744 7.04158
#
# Compressibility (1/GPa) = 0.01833225
#
# Stress axis : x y z
#
# Youngs Moduli (GPa) = 61.33521 76.87454 160.86313
#
# Poissons Ratio (x) = 0.15177 0.31867
# Poissons Ratio (y) = 0.12109 0.74687
# Poissons Ratio (z) = 0.12150 0.35692
#
# Static dielectric constant tensor:
#      x y z
#    x 1.875530 0.000000 -0.039290 
#    y 0.000000 2.096380 0.000000 
#    z -0.039290 0.000000 1.901050 
# 
# From -- ./inp_files/150288.got.cif
#   From: 2010.05.17/outbox.cif.g08.bks.cpg/sg15_76_cif.got.tgz:150288.got - 2010.06.03 18:47:42.
