data_PCOD9298049
_publ_section_title
;
Structure prediction by ZEFSAII (Michael W. Deem and Ramdas Pophale) SiO2 
 PCOD9298049
Probable space group: C 2/C
;
_chemical_formula_sum "Si O2"
_cell_formula_units_Z 48
_cell_length_a 20.466188
_cell_length_b 19.840804
_cell_length_c 8.681794
_cell_angle_alpha 90.000000
_cell_angle_beta 146.521005
_cell_angle_gamma 90.000000
_cell_volume 1944.708696
_symmetry_space_group_name_H-M "C 2/C"
_symmetry_group_IT_number 15
_symmetry_cell_setting 'monoclinic'
loop_
_space_group_symop_operation_xyz
x,y,z
-x,y,1/2-z
-x,-y,-z
x,-y,1/2+z
1/2+x,1/2+y,z
1/2-x,1/2+y,1/2-z
1/2-x,1/2-y,-z
1/2+x,1/2-y,1/2+z
loop_
_atom_site_type_symbol
_atom_site_label
_atom_site_fract_x
_atom_site_fract_y
_atom_site_fract_z
Si Si1 0.178802 0.085887 0.666966
Si Si2 0.113869 0.771375 0.908022
Si Si3 0.305490 0.326288 0.721286
Si Si4 0.899539 0.350643 0.445882
Si Si5 0.172371 0.943712 0.497613
Si Si6 0.549945 0.065738 0.016839
O O1 0.123927 0.156783 0.509796
O O2 0.147251 0.019107 0.507201
O O3 0.320580 0.100723 0.907387
O O4 0.128166 0.072190 0.739180
O O5 0.099855 0.786951 0.697705
O O6 0.000000 0.734785 0.750000
O O7 0.232243 0.728294 0.176128
O O8 0.348598 0.388667 0.907564
O O9 0.208761 0.340764 0.394777
O O10 0.000000 0.312101 0.750000
O O11 0.994153 0.377725 0.510662
O O12 0.311444 0.938320 0.734369
O O13 0.500000 0.070247 0.750000
O O14 0.500000 0.000000 0.000000
#
# Coordination Sequence:
#
# PCOD9298049 Si02
#       6
#     8   8   8   8   8   8
#     4  11  23  38  61  93 132 171 214 267 319 386
#     4  10  24  47  68  90 129 173 215 266 324 383
#     4  10  24  43  66  96 128 169 216 268 321 384
#     4  11  20  33  54  92 132 166 210 253 317 392
#     4  12  22  38  62  94 132 166 216 275 317 377
#     4  12  20  29  50  90 130 171 202 250 330 380
#
# _framework density 24.682359000000002
#
# number of rings (size 3 to 8) (size 9 to 14) (size 15 to 20)
#    0.000    1.000    5.000    3.500    2.333    0.667 
#    0.000    7.500    0.000    0.000    0.000    0.000 
#    0.000    0.000    0.000    0.000    0.000    0.000 
#
# Total GULP energy -133605.697434 kJ/mol
# GULP energy per Si atom -5566.904060 kJ/mol
# Density = 2.462618 g / cm^3
# Si number density = 24.682359 Si / 1000 Ang^3
#
#
#
# Elastic Constant Matrix: (Units=GPa)
#
#
# Indices 1 2 3 4 5 6 
#
# 1 97.8402 15.4345 32.8087 0.0000 -7.0013 0.0000
# 2 15.4345 89.0798 21.1008 0.0000 -30.9214 0.0000
# 3 32.8087 21.1008 60.8146 0.0000 -21.8529 0.0000
# 4 0.0000 0.0000 0.0000 22.5173 0.0000 -17.0753
# 5 -7.0013 -30.9214 -21.8529 0.0000 40.8612 0.0000
# 6 0.0000 0.0000 0.0000 -17.0753 0.0000 40.3017
#
#
#
# Elastic Compliance Matrix: (Units=1/GPa)
#
#
# Indices 1 2 3 4 5 6 
#
# 1 0.012723 -0.001450 -0.007392 0.000000 -0.002871 0.000000
# 2 -0.001450 0.015489 -0.000581 0.000000 0.011162 0.000000
# 3 -0.007392 -0.000581 0.024783 0.000000 0.011548 0.000000
# 4 0.000000 0.000000 0.000000 0.065433 0.000000 0.027723
# 5 -0.002871 0.011162 0.011548 0.000000 0.038604 0.000000
# 6 0.000000 0.000000 0.000000 0.027723 0.000000 0.036559
#
#
# Mechanical properties :
#
#
# Convention : Reuss Voigt Hill
#
# Bulk Modulus (GPa) = 29.28408 42.93584 36.10996
# Shear Modulus (GPa) = 22.33934 32.62874 27.48404
#
# Velocity S-wave (km/s) = 3.01171 3.63980 3.34055
# Velocity P-wave (km/s) = 4.89734 5.92430 5.43513
#
# Compressibility (1/GPa) = 0.03414825
#
# Stress axis : x y z
#
# Youngs Moduli (GPa) = 78.59836 64.56016 40.35088
#
# Poissons Ratio (x) = 0.09360 0.29829
# Poissons Ratio (y) = 0.11396 0.02345
# Poissons Ratio (z) = 0.58103 0.03752
#
# Static dielectric constant tensor:
#      x y z
#    x 2.106340 0.000000 -0.030100 
#    y 0.000000 2.052460 0.000000 
#    z -0.030100 0.000000 2.052610 
# 
# From -- ./inp_files/57969.got.cif
#   From: 2010.05.17/outbox.cif.g08.bks.cpg/sg15_29_cif.got.tgz:57969.got - 2010.06.03 18:47:42.
