data_PCOD9298239
_publ_section_title
;
Structure prediction by ZEFSAII (Michael W. Deem and Ramdas Pophale) SiO2 
 PCOD9298239
Probable space group: C 2/C
;
_chemical_formula_sum "Si O2"
_cell_formula_units_Z 32
_cell_length_a 23.420274
_cell_length_b 9.251300
_cell_length_c 7.212573
_cell_angle_alpha 90.000000
_cell_angle_beta 124.857338
_cell_angle_gamma 90.000000
_cell_volume 1282.344310
_symmetry_space_group_name_H-M "C 2/C"
_symmetry_group_IT_number 15
_symmetry_cell_setting 'monoclinic'
loop_
_space_group_symop_operation_xyz
x,y,z
-x,y,1/2-z
-x,-y,-z
x,-y,1/2+z
1/2+x,1/2+y,z
1/2-x,1/2+y,1/2-z
1/2-x,1/2-y,-z
1/2+x,1/2-y,1/2+z
loop_
_atom_site_type_symbol
_atom_site_label
_atom_site_fract_x
_atom_site_fract_y
_atom_site_fract_z
Si Si1 0.305748 0.914584 0.020181
Si Si2 0.876790 0.696245 0.292656
Si Si3 0.331520 0.323791 0.836979
Si Si4 0.984963 0.833128 0.009117
O O1 0.300005 0.825809 0.200720
O O2 0.359793 0.043308 0.160840
O O3 0.334623 0.818974 0.903581
O O4 0.225960 0.944232 0.812617
O O5 0.957154 0.735627 0.485131
O O6 0.850047 0.810030 0.088100
O O7 0.402044 0.327408 0.847719
O O8 0.000000 0.794468 0.250000
O O9 0.000000 0.000000 0.000000
#
# Coordination Sequence:
#
# PCOD9298239 Si02
#       4
#     8   8   8   8
#     4  11  23  41  71  96 136 174 226 281 338 398
#     4  11  23  45  68 101 132 183 226 279 338 407
#     4  10  24  44  63 101 133 175 225 278 339 403
#     4  10  25  45  66  97 135 177 226 276 341 408
#
# _framework density 24.9543
#
# number of rings (size 3 to 8) (size 9 to 14) (size 15 to 20)
#    0.000    1.500    2.500    0.750    3.500    7.000 
#    4.500    0.000    0.000    0.000    0.000    0.000 
#    0.000    0.000    0.000    0.000    0.000    0.000 
#
# Total GULP energy -89299.277049 kJ/mol
# GULP energy per Si atom -5581.204816 kJ/mol
# Density = 2.489750 g / cm^3
# Si number density = 24.954300 Si / 1000 Ang^3
#
#
#
# Elastic Constant Matrix: (Units=GPa)
#
#
# Indices 1 2 3 4 5 6 
#
# 1 178.6691 50.7168 72.5173 0.0000 32.7566 0.0000
# 2 50.7168 79.2008 28.5634 0.0000 28.4115 0.0000
# 3 72.5173 28.5634 120.9960 0.0000 17.9260 0.0000
# 4 0.0000 0.0000 0.0000 29.9587 0.0000 3.6107
# 5 32.7566 28.4115 17.9260 0.0000 56.8523 0.0000
# 6 0.0000 0.0000 0.0000 3.6107 0.0000 42.9552
#
#
#
# Elastic Compliance Matrix: (Units=1/GPa)
#
#
# Indices 1 2 3 4 5 6 
#
# 1 0.008540 -0.003292 -0.004045 0.000000 -0.002000 0.000000
# 2 -0.003292 0.017485 -0.001197 0.000000 -0.006463 0.000000
# 3 -0.004045 -0.001197 0.011054 0.000000 -0.000557 0.000000
# 4 0.000000 0.000000 0.000000 0.033721 0.000000 -0.002834
# 5 -0.002000 -0.006463 -0.000557 0.000000 0.022147 0.000000
# 6 0.000000 0.000000 0.000000 -0.002834 0.000000 0.023518
#
#
# Mechanical properties :
#
#
# Convention : Reuss Voigt Hill
#
# Bulk Modulus (GPa) = 49.97344 75.82900 62.90122
# Shear Modulus (GPa) = 35.66260 41.09113 38.37687
#
# Velocity S-wave (km/s) = 3.78447 4.06230 3.92584
# Velocity P-wave (km/s) = 6.25825 7.24266 6.76838
#
# Compressibility (1/GPa) = 0.02001063
#
# Stress axis : x y z
#
# Youngs Moduli (GPa) = 117.09879 57.19281 90.46590
#
# Poissons Ratio (x) = 0.18831 0.36591
# Poissons Ratio (y) = 0.38555 0.10826
# Poissons Ratio (z) = 0.47363 0.06844
#
# Static dielectric constant tensor:
#      x y z
#    x 2.006320 0.000000 0.079030 
#    y 0.000000 2.011410 0.000000 
#    z 0.079030 0.000000 2.063990 
# 
# From -- ./inp_files/64658.got.cif
#   From: 2010.05.17/outbox.cif.g08.bks.cpg/sg15_33_cif.got.tgz:64658.got - 2010.06.03 18:47:42.
