data_PCOD9298724
_publ_section_title
;
Structure prediction by ZEFSAII (Michael W. Deem and Ramdas Pophale) SiO2 
 PCOD9298724
Probable space group: C 2/C
;
_chemical_formula_sum "Si O2"
_cell_formula_units_Z 56
_cell_length_a 30.174084
_cell_length_b 4.902010
_cell_length_c 13.802788
_cell_angle_alpha 90.000000
_cell_angle_beta 94.391851
_cell_angle_gamma 90.000000
_cell_volume 2035.626006
_symmetry_space_group_name_H-M "C 2/C"
_symmetry_group_IT_number 15
_symmetry_cell_setting 'monoclinic'
loop_
_space_group_symop_operation_xyz
x,y,z
-x,y,1/2-z
-x,-y,-z
x,-y,1/2+z
1/2+x,1/2+y,z
1/2-x,1/2+y,1/2-z
1/2-x,1/2-y,-z
1/2+x,1/2-y,1/2+z
loop_
_atom_site_type_symbol
_atom_site_label
_atom_site_fract_x
_atom_site_fract_y
_atom_site_fract_z
Si Si1 0.116740 0.148739 0.409034
Si Si2 0.060175 0.354272 0.907821
Si Si3 0.929607 0.304112 0.361043
Si Si4 0.000000 0.965530 0.250000
Si Si5 0.371527 0.297596 0.363072
Si Si6 0.212598 0.269893 0.358994
Si Si7 0.250000 0.750000 0.500000
Si Si8 0.709368 0.083417 0.646104
O O1 0.074608 0.342694 0.381063
O O2 0.125897 0.225665 0.521160
O O3 0.161463 0.204849 0.360311
O O4 0.102440 0.839182 0.394399
O O5 0.021628 0.229207 0.835948
O O6 0.053809 0.323501 0.023587
O O7 0.910729 0.599931 0.330034
O O8 0.886392 0.104339 0.343747
O O9 0.966695 0.159986 0.303982
O O10 0.324572 0.155500 0.331968
O O11 0.224997 0.538474 0.417082
O O12 0.246075 0.033667 0.404619
O O13 0.222686 0.278648 0.247315
O O14 0.199788 0.787995 0.557689
#
# Coordination Sequence:
#
# PCOD9298724 Si02
#       8
#     8   8   8   4   8   8   4   8
#     4  10  24  45  71 100 143 183 233 289 355 416
#     4  10  25  45  69 104 136 180 227 291 352 434
#     4  10  25  45  69 104 136 180 227 291 352 434
#     4  12  26  46  76 100 136 182 226 294 364 440
#     4  10  24  45  71 100 143 183 233 289 355 416
#     4  12  27  43  71 105 145 195 247 300 354 430
#     4  12  26  48  68 104 148 198 240 308 358 422
#     4  12  27  43  71 105 145 195 247 300 354 430
#
# _framework density 27.509965999999999
#
# number of rings (size 3 to 8) (size 9 to 14) (size 15 to 20)
#    0.000    1.143    2.857    0.857    8.000    2.286 
#    0.000    4.286    0.000    0.000    0.000    0.000 
#    0.000    0.000    0.000    0.000    0.000    0.000 
#
# Total GULP energy -156830.980534 kJ/mol
# GULP energy per Si atom -5601.106448 kJ/mol
# Density = 2.744735 g / cm^3
# Si number density = 27.509966 Si / 1000 Ang^3
#
#
#
# Elastic Constant Matrix: (Units=GPa)
#
#
# Indices 1 2 3 4 5 6 
#
# 1 99.0861 11.1809 48.8288 0.0000 -12.6004 0.0000
# 2 11.1809 88.7094 27.2110 0.0000 5.7545 0.0000
# 3 48.8288 27.2110 170.3296 0.0000 -8.5353 0.0000
# 4 0.0000 0.0000 0.0000 38.5234 0.0000 8.7428
# 5 -12.6004 5.7545 -8.5353 0.0000 44.5691 0.0000
# 6 0.0000 0.0000 0.0000 8.7428 0.0000 42.1153
#
#
#
# Elastic Compliance Matrix: (Units=1/GPa)
#
#
# Indices 1 2 3 4 5 6 
#
# 1 0.012129 -0.000731 -0.003214 0.000000 0.002908 0.000000
# 2 -0.000731 0.012061 -0.001823 0.000000 -0.002113 0.000000
# 3 -0.003214 -0.001823 0.007118 0.000000 0.000690 0.000000
# 4 0.000000 0.000000 0.000000 0.027242 0.000000 -0.005655
# 5 0.002908 -0.002113 0.000690 0.000000 0.023664 0.000000
# 6 0.000000 0.000000 0.000000 -0.005655 0.000000 0.024918
#
#
# Mechanical properties :
#
#
# Convention : Reuss Voigt Hill
#
# Bulk Modulus (GPa) = 50.58044 59.17404 54.87724
# Shear Modulus (GPa) = 39.91702 43.10185 41.50943
#
# Velocity S-wave (km/s) = 3.81333 3.96254 3.88865
# Velocity P-wave (km/s) = 6.14938 6.51862 6.33669
#
# Compressibility (1/GPa) = 0.01977049
#
# Stress axis : x y z
#
# Youngs Moduli (GPa) = 82.45012 82.91021 140.48373
#
# Poissons Ratio (x) = 0.06063 0.45157
# Poissons Ratio (y) = 0.06030 0.25611
# Poissons Ratio (z) = 0.26503 0.15115
#
# Static dielectric constant tensor:
#      x y z
#    x 2.198190 0.000000 -0.023980 
#    y 0.000000 2.159200 0.000000 
#    z -0.023980 0.000000 2.156560 
# 
# From -- ./inp_files/180145.got.cif
#   From: 2010.05.17/outbox.cif.g08.bks.cpg/sg15_91_cif.got.tgz:180145.got - 2010.06.03 18:47:42.
