data_PCOD9298891
_publ_section_title
;
Structure prediction by ZEFSAII (Michael W. Deem and Ramdas Pophale) SiO2 
 PCOD9298891
Probable space group: C 2/C
;
_chemical_formula_sum "Si O2"
_cell_formula_units_Z 60
_cell_length_a 24.651028
_cell_length_b 8.563284
_cell_length_c 12.639702
_cell_angle_alpha 90.000000
_cell_angle_beta 90.984122
_cell_angle_gamma 90.000000
_cell_volume 2667.768568
_symmetry_space_group_name_H-M "C 2/C"
_symmetry_group_IT_number 15
_symmetry_cell_setting 'monoclinic'
loop_
_space_group_symop_operation_xyz
x,y,z
-x,y,1/2-z
-x,-y,-z
x,-y,1/2+z
1/2+x,1/2+y,z
1/2-x,1/2+y,1/2-z
1/2-x,1/2-y,-z
1/2+x,1/2-y,1/2+z
loop_
_atom_site_type_symbol
_atom_site_label
_atom_site_fract_x
_atom_site_fract_y
_atom_site_fract_z
Si Si1 0.085296 0.846430 0.772889
Si Si2 0.200803 0.930079 0.836790
Si Si3 0.294000 0.628381 0.463252
Si Si4 0.217870 0.435277 0.308408
Si Si5 0.903671 0.292489 0.448457
Si Si6 0.096328 0.524594 0.873099
Si Si7 0.000000 0.655839 0.250000
Si Si8 0.523091 0.405829 0.402322
O O1 0.144569 0.928729 0.768251
O O2 0.069596 0.757590 0.662654
O O3 0.088400 0.709473 0.860393
O O4 0.045758 0.976380 0.816033
O O5 0.216721 0.747630 0.835903
O O6 0.254002 0.027609 0.802519
O O7 0.185641 0.008040 0.947206
O O8 0.250000 0.750000 0.500000
O O9 0.261744 0.523603 0.380216
O O10 0.342697 0.738217 0.427932
O O11 0.157284 0.501646 0.327824
O O12 0.907001 0.461425 0.505823
O O13 0.927774 0.188448 0.543160
O O14 0.050048 0.443945 0.798192
O O15 0.985503 0.774517 0.345893
O O16 0.500000 0.500000 0.500000
#
# Coordination Sequence:
#
# PCOD9298891 Si02
#       8
#     8   8   8   8   8   8   4   8
#     4  11  24  45  71 104 140 180 237 289 355 426
#     4  11  24  40  65 103 139 185 232 284 351 425
#     4  12  22  40  65  95 140 180 230 285 351 418
#     4  11  23  40  65 101 138 185 231 288 350 429
#     4  11  23  43  68  99 137 184 227 289 354 416
#     4  10  25  43  69 100 141 184 238 292 356 414
#     4  10  24  46  68  98 134 182 236 286 356 410
#     4  11  24  45  70 100 132 178 234 291 349 421
#
# _framework density 22.490708000000001
#
# number of rings (size 3 to 8) (size 9 to 14) (size 15 to 20)
#    0.000    1.067    4.000    2.000    1.867    2.667 
#    2.400    2.667    0.000    0.000    0.000    0.000 
#    0.000    0.000    0.000    0.000    0.000    0.000 
#
# Total GULP energy -167338.019462 kJ/mol
# GULP energy per Si atom -5577.933982 kJ/mol
# Density = 2.243952 g / cm^3
# Si number density = 22.490708 Si / 1000 Ang^3
#
#
#
# Elastic Constant Matrix: (Units=GPa)
#
#
# Indices 1 2 3 4 5 6 
#
# 1 67.3004 29.8995 18.2074 0.0000 15.1917 0.0000
# 2 29.8995 91.3237 23.7578 0.0000 -3.5491 0.0000
# 3 18.2074 23.7578 68.2309 0.0000 7.4113 0.0000
# 4 0.0000 0.0000 0.0000 10.0450 0.0000 12.7945
# 5 15.1917 -3.5491 7.4113 0.0000 30.1010 0.0000
# 6 0.0000 0.0000 0.0000 12.7945 0.0000 20.5787
#
#
#
# Elastic Compliance Matrix: (Units=1/GPa)
#
#
# Indices 1 2 3 4 5 6 
#
# 1 0.020830 -0.006706 -0.002051 0.000000 -0.010799 0.000000
# 2 -0.006706 0.014389 -0.003876 0.000000 0.006035 0.000000
# 3 -0.002051 -0.003876 0.016943 0.000000 -0.003594 0.000000
# 4 0.000000 0.000000 0.000000 0.478422 0.000000 -0.297452
# 5 -0.010799 0.006035 -0.003594 0.000000 0.040268 0.000000
# 6 0.000000 0.000000 0.000000 -0.297452 0.000000 0.233531
#
#
# Mechanical properties :
#
#
# Convention : Reuss Voigt Hill
#
# Bulk Modulus (GPa) = 37.17924 41.17605 39.17765
# Shear Modulus (GPa) = 5.96222 22.47764 14.21993
#
# Velocity S-wave (km/s) = 1.62995 3.16479 2.51720
# Velocity P-wave (km/s) = 4.48432 5.63048 5.08976
#
# Compressibility (1/GPa) = 0.02689673
#
# Stress axis : x y z
#
# Youngs Moduli (GPa) = 48.00668 69.49955 59.02033
#
# Poissons Ratio (x) = 0.46607 0.12102
# Poissons Ratio (y) = 0.32194 0.22877
# Poissons Ratio (z) = 0.09844 0.26939
#
# Static dielectric constant tensor:
#      x y z
#    x 1.855010 0.000000 -0.035990 
#    y 0.000000 1.829620 0.000000 
#    z -0.035990 0.000000 1.970060 
# 
# From -- ./inp_files/121977.got.cif
#   From: 2010.05.17/outbox.cif.g08.bks.cpg/sg15_61_cif.got.tgz:121977.got - 2010.06.03 18:47:42.
