data_PCOD9298148
_publ_section_title
;
Structure prediction by ZEFSAII (Michael W. Deem and Ramdas Pophale) SiO2 
 PCOD9298148
Probable space group: C 2/C
;
_chemical_formula_sum "Si O2"
_cell_formula_units_Z 48
_cell_length_a 8.418259
_cell_length_b 11.236922
_cell_length_c 22.081725
_cell_angle_alpha 90.000000
_cell_angle_beta 80.346690
_cell_angle_gamma 90.000000
_cell_volume 2059.250960
_symmetry_space_group_name_H-M "C 2/C"
_symmetry_group_IT_number 15
_symmetry_cell_setting 'monoclinic'
loop_
_space_group_symop_operation_xyz
x,y,z
-x,y,1/2-z
-x,-y,-z
x,-y,1/2+z
1/2+x,1/2+y,z
1/2-x,1/2+y,1/2-z
1/2-x,1/2-y,-z
1/2+x,1/2-y,1/2+z
loop_
_atom_site_type_symbol
_atom_site_label
_atom_site_fract_x
_atom_site_fract_y
_atom_site_fract_z
Si Si1 0.609017 0.623909 0.186626
Si Si2 0.264328 0.031913 0.980267
Si Si3 0.830770 0.688075 0.407992
Si Si4 0.008199 0.695344 0.595863
Si Si5 0.525925 0.447774 0.094186
Si Si6 0.459047 0.973947 0.685463
O O1 0.500000 0.660627 0.250000
O O2 0.610231 0.726789 0.136356
O O3 0.527224 0.508846 0.159471
O O4 0.787969 0.591391 0.195321
O O5 0.348152 0.904787 0.962059
O O6 0.383534 0.141886 0.964658
O O7 0.162891 0.018926 0.047402
O O8 0.138145 0.041118 0.932686
O O9 0.644396 0.726461 0.413896
O O10 0.926202 0.810329 0.408343
O O11 0.902597 0.616282 0.346456
O O12 0.949425 0.580963 0.637887
O O13 0.500000 0.016966 0.750000
#
# Coordination Sequence:
#
# PCOD9298148 Si02
#       6
#     8   8   8   8   8   8
#     4  12  25  44  67  95 135 174 220 274 329 396
#     4  10  24  43  70  95 136 173 217 278 327 397
#     4  11  22  44  66  97 132 171 220 270 335 392
#     4  11  23  44  68  96 131 173 220 275 331 394
#     4  11  23  44  66 101 132 174 221 270 337 391
#     4  11  25  43  66  93 129 177 223 270 330 392
#
# _framework density 23.309446000000001
#
# number of rings (size 3 to 8) (size 9 to 14) (size 15 to 20)
#    0.000    1.000    3.333    3.000    2.333    2.000 
#    6.000    0.000    0.000    0.000    0.000    0.000 
#    0.000    0.000    0.000    0.000    0.000    0.000 
#
# Total GULP energy -134480.528815 kJ/mol
# GULP energy per Si atom -5603.355367 kJ/mol
# Density = 2.325639 g / cm^3
# Si number density = 23.309446 Si / 1000 Ang^3
#
#
#
# Elastic Constant Matrix: (Units=GPa)
#
#
# Indices 1 2 3 4 5 6 
#
# 1 62.6552 27.0881 15.5313 0.0000 1.4401 0.0000
# 2 27.0881 93.6096 9.8594 0.0000 -10.5496 0.0000
# 3 15.5313 9.8594 62.2672 0.0000 -6.5024 0.0000
# 4 0.0000 0.0000 0.0000 14.7693 0.0000 -5.8215
# 5 1.4401 -10.5496 -6.5024 0.0000 30.5513 0.0000
# 6 0.0000 0.0000 0.0000 -5.8215 0.0000 31.9122
#
#
#
# Elastic Compliance Matrix: (Units=1/GPa)
#
#
# Indices 1 2 3 4 5 6 
#
# 1 0.019569 -0.005629 -0.004387 0.000000 -0.003800 0.000000
# 2 -0.005629 0.012853 -0.000143 0.000000 0.004673 0.000000
# 3 -0.004387 -0.000143 0.017584 0.000000 0.003900 0.000000
# 4 0.000000 0.000000 0.000000 0.072954 0.000000 0.013308
# 5 -0.003800 0.004673 0.003900 0.000000 0.035355 0.000000
# 6 0.000000 0.000000 0.000000 0.013308 0.000000 0.033764
#
#
# Mechanical properties :
#
#
# Convention : Reuss Voigt Hill
#
# Bulk Modulus (GPa) = 33.68292 35.94329 34.81311
# Shear Modulus (GPa) = 22.49305 26.51677 24.50491
#
# Velocity S-wave (km/s) = 3.10978 3.37649 3.24587
# Velocity P-wave (km/s) = 5.23221 5.53664 5.38658
#
# Compressibility (1/GPa) = 0.02968864
#
# Stress axis : x y z
#
# Youngs Moduli (GPa) = 51.10225 77.80139 56.87033
#
# Poissons Ratio (x) = 0.43793 0.24946
# Poissons Ratio (y) = 0.28765 0.00814
# Poissons Ratio (z) = 0.22416 0.01114
#
# Static dielectric constant tensor:
#      x y z
#    x 1.875340 0.000000 -0.004900 
#    y 0.000000 1.869410 0.000000 
#    z -0.004900 0.000000 1.842670 
# 
# From -- ./inp_files/263162.got.cif
#   From: 2010.05.17/outbox.cif.g08.bks.cpg/sg15_132_cif.got.tgz:263162.got - 2010.06.03 18:47:42.
