data_PCOD9298658
_publ_section_title
;
Structure prediction by ZEFSAII (Michael W. Deem and Ramdas Pophale) SiO2 
 PCOD9298658
Probable space group: C 2/C
;
_chemical_formula_sum "Si O2"
_cell_formula_units_Z 60
_cell_length_a 10.171392
_cell_length_b 26.387763
_cell_length_c 8.478133
_cell_angle_alpha 90.000000
_cell_angle_beta 87.332413
_cell_angle_gamma 90.000000
_cell_volume 2273.067434
_symmetry_space_group_name_H-M "C 2/C"
_symmetry_group_IT_number 15
_symmetry_cell_setting 'monoclinic'
loop_
_space_group_symop_operation_xyz
x,y,z
-x,y,1/2-z
-x,-y,-z
x,-y,1/2+z
1/2+x,1/2+y,z
1/2-x,1/2+y,1/2-z
1/2-x,1/2-y,-z
1/2+x,1/2-y,1/2+z
loop_
_atom_site_type_symbol
_atom_site_label
_atom_site_fract_x
_atom_site_fract_y
_atom_site_fract_z
Si Si1 0.246562 0.492472 0.199002
Si Si2 0.364481 0.666775 0.756521
Si Si3 0.847067 0.927133 0.911760
Si Si4 0.875379 0.569734 0.508547
Si Si5 0.626920 0.866964 0.049557
Si Si6 0.246532 0.675947 0.099444
Si Si7 0.627931 0.767225 0.895610
Si Si8 0.500000 0.649491 0.250000
O O1 0.340881 0.534591 0.267918
O O2 0.198430 0.456423 0.341281
O O3 0.324392 0.460234 0.066456
O O4 0.129635 0.524491 0.120379
O O5 0.500000 0.633487 0.750000
O O6 0.234509 0.642609 0.680331
O O7 0.419341 0.710945 0.637700
O O8 0.300213 0.689244 0.921027
O O9 0.965894 0.888650 0.894309
O O10 0.720024 0.890126 0.909197
O O11 0.012504 0.591874 0.566119
O O12 0.805728 0.618943 0.434586
O O13 0.566634 0.812911 0.001964
O O14 0.150289 0.707950 0.219590
O O15 0.376272 0.679922 0.201203
O O16 0.750000 0.750000 0.000000
#
# Coordination Sequence:
#
# PCOD9298658 Si02
#       8
#     8   8   8   8   8   8   8   4
#     4  10  24  45  68 115 148 192 255 305 377 436
#     4  11  26  46  77 110 144 190 245 318 373 456
#     4  11  23  43  69  99 145 191 242 305 357 446
#     4  11  25  46  77 111 155 200 247 320 373 458
#     4  11  24  47  73 107 148 193 246 296 383 452
#     4  12  25  46  75 106 146 200 253 303 385 451
#     4  10  24  47  72 108 144 190 247 308 378 448
#     4  12  24  46  72  98 140 200 242 296 370 436
#
# _framework density 26.396049999999999
#
# number of rings (size 3 to 8) (size 9 to 14) (size 15 to 20)
#    0.000    1.067    2.667    2.000    3.733    7.467 
#    0.000    1.333    0.000    0.000    0.000    0.000 
#    0.000    0.000    0.000    0.000    0.000    0.000 
#
# Total GULP energy -167488.314360 kJ/mol
# GULP energy per Si atom -5582.943812 kJ/mol
# Density = 2.633597 g / cm^3
# Si number density = 26.396050 Si / 1000 Ang^3
#
#
#
# Elastic Constant Matrix: (Units=GPa)
#
#
# Indices 1 2 3 4 5 6 
#
# 1 68.6205 -8.0076 15.6346 0.0000 10.3618 0.0000
# 2 -8.0076 99.4896 21.9213 0.0000 -0.6166 0.0000
# 3 15.6346 21.9213 131.6665 0.0000 12.5510 0.0000
# 4 0.0000 0.0000 0.0000 55.5527 0.0000 2.8299
# 5 10.3618 -0.6166 12.5510 0.0000 40.3998 0.0000
# 6 0.0000 0.0000 0.0000 2.8299 0.0000 33.8313
#
#
#
# Elastic Compliance Matrix: (Units=1/GPa)
#
#
# Indices 1 2 3 4 5 6 
#
# 1 0.015696 0.001641 -0.001809 0.000000 -0.003439 0.000000
# 2 0.001641 0.010626 -0.001998 0.000000 0.000362 0.000000
# 3 -0.001809 -0.001998 0.008348 0.000000 -0.002160 0.000000
# 4 0.000000 0.000000 0.000000 0.018078 0.000000 -0.001512
# 5 -0.003439 0.000362 -0.002160 0.000000 0.026311 0.000000
# 6 0.000000 0.000000 0.000000 -0.001512 0.000000 0.029685
#
#
# Mechanical properties :
#
#
# Convention : Reuss Voigt Hill
#
# Bulk Modulus (GPa) = 32.96399 39.87479 36.41939
# Shear Modulus (GPa) = 40.58768 43.97200 42.27984
#
# Velocity S-wave (km/s) = 3.92553 4.08592 4.00653
# Velocity P-wave (km/s) = 5.74993 6.11545 5.93551
#
# Compressibility (1/GPa) = 0.03033613
#
# Stress axis : x y z
#
# Youngs Moduli (GPa) = 63.71140 94.10939 119.78337
#
# Poissons Ratio (x) = -0.15440 0.21671
# Poissons Ratio (y) = -0.10453 0.23938
# Poissons Ratio (z) = 0.11526 0.18807
#
# Static dielectric constant tensor:
#      x y z
#    x 2.135140 0.000000 0.021470 
#    y 0.000000 2.101340 0.000000 
#    z 0.021470 0.000000 2.157970 
# 
# From -- ./inp_files/51897.got.cif
#   From: 2010.05.17/outbox.cif.g08.bks.cpg/sg15_26_cif.got.tgz:51897.got - 2010.06.03 18:47:42.
