data_PCOD9298420
_publ_section_title
;
Structure prediction by ZEFSAII (Michael W. Deem and Ramdas Pophale) SiO2 
 PCOD9298420
Probable space group: C 2/C
;
_chemical_formula_sum "Si O2"
_cell_formula_units_Z 40
_cell_length_a 12.392456
_cell_length_b 12.128904
_cell_length_c 13.730194
_cell_angle_alpha 90.000000
_cell_angle_beta 121.212785
_cell_angle_gamma 90.000000
_cell_volume 1765.013426
_symmetry_space_group_name_H-M "C 2/C"
_symmetry_group_IT_number 15
_symmetry_cell_setting 'monoclinic'
loop_
_space_group_symop_operation_xyz
x,y,z
-x,y,1/2-z
-x,-y,-z
x,-y,1/2+z
1/2+x,1/2+y,z
1/2-x,1/2+y,1/2-z
1/2-x,1/2-y,-z
1/2+x,1/2-y,1/2+z
loop_
_atom_site_type_symbol
_atom_site_label
_atom_site_fract_x
_atom_site_fract_y
_atom_site_fract_z
Si Si1 0.144202 0.583512 0.843339
Si Si2 0.070371 0.385827 0.511109
Si Si3 0.101849 0.988673 0.133294
Si Si4 0.873853 0.228249 0.312077
Si Si5 0.894105 0.748010 0.277123
O O1 0.167140 0.586231 0.969503
O O2 0.255885 0.518427 0.843219
O O3 0.151431 0.705204 0.799069
O O4 0.000000 0.545668 0.750000
O O5 0.107674 0.331287 0.629656
O O6 0.000000 0.500000 0.500000
O O7 0.982494 0.295269 0.417483
O O8 0.079854 0.874095 0.178479
O O9 0.095111 0.101527 0.189941
O O10 0.000000 0.000000 0.000000
O O11 0.750931 0.241867 0.323577
O O12 0.000000 0.714862 0.250000
#
# Coordination Sequence:
#
# PCOD9298420 Si02
#       5
#     8   8   8   8   8
#     4   9  23  45  70  97 134 185 227 266 339 415
#     4  11  25  44  67 100 131 182 231 271 332 411
#     4  11  23  46  69 106 136 171 228 289 345 390
#     4  10  24  44  69  97 137 174 227 278 344 407
#     4  11  27  43  68  98 138 181 223 284 347 397
#
# _framework density 22.662718000000002
#
# number of rings (size 3 to 8) (size 9 to 14) (size 15 to 20)
#    0.000    1.600    2.000    0.000   11.200    8.000 
#    3.600    0.000    0.000    0.000    0.000    0.000 
#    0.000    0.000    0.000    0.000    0.000    0.000 
#
# Total GULP energy -111782.032511 kJ/mol
# GULP energy per Si atom -5589.101626 kJ/mol
# Density = 2.261114 g / cm^3
# Si number density = 22.662718 Si / 1000 Ang^3
#
#
#
# Elastic Constant Matrix: (Units=GPa)
#
#
# Indices 1 2 3 4 5 6 
#
# 1 99.6859 1.8756 17.1628 0.0000 -13.8034 0.0000
# 2 1.8756 165.9168 18.0381 0.0000 -7.5678 0.0000
# 3 17.1628 18.0381 43.9535 0.0000 -13.5669 0.0000
# 4 0.0000 0.0000 0.0000 24.2282 0.0000 13.3315
# 5 -13.8034 -7.5678 -13.5669 0.0000 35.6672 0.0000
# 6 0.0000 0.0000 0.0000 13.3315 0.0000 14.0888
#
#
#
# Elastic Compliance Matrix: (Units=1/GPa)
#
#
# Indices 1 2 3 4 5 6 
#
# 1 0.011052 0.000398 -0.003549 0.000000 0.003012 0.000000
# 2 0.000398 0.006328 -0.002595 0.000000 0.000510 0.000000
# 3 -0.003549 -0.002595 0.027882 0.000000 0.008681 0.000000
# 4 0.000000 0.000000 0.000000 0.086107 0.000000 -0.081478
# 5 0.003012 0.000510 0.008681 0.000000 0.032613 0.000000
# 6 0.000000 0.000000 0.000000 -0.081478 0.000000 0.148077
#
#
# Mechanical properties :
#
#
# Convention : Reuss Voigt Hill
#
# Bulk Modulus (GPa) = 29.61256 42.63436 36.12346
# Shear Modulus (GPa) = 14.93393 32.96217 23.94805
#
# Velocity S-wave (km/s) = 2.56982 3.81788 3.25424
# Velocity P-wave (km/s) = 4.67977 6.18776 5.48583
#
# Compressibility (1/GPa) = 0.03376946
#
# Stress axis : x y z
#
# Youngs Moduli (GPa) = 90.48019 158.02778 35.86550
#
# Poissons Ratio (x) = -0.06295 0.12730
# Poissons Ratio (y) = -0.03604 0.09308
# Poissons Ratio (z) = 0.32116 0.41011
#
# Static dielectric constant tensor:
#      x y z
#    x 1.932090 0.000000 -0.054460 
#    y 0.000000 1.854870 0.000000 
#    z -0.054460 0.000000 1.998500 
# 
# From -- ./inp_files/142394.got.cif
#   From: 2010.05.17/outbox.cif.g08.bks.cpg/sg15_72_cif.got.tgz:142394.got - 2010.06.03 18:47:42.
