data_PCOD9298876
_publ_section_title
;
Structure prediction by ZEFSAII (Michael W. Deem and Ramdas Pophale) SiO2 
 PCOD9298876
Probable space group: C 2/C
;
_chemical_formula_sum "Si O2"
_cell_formula_units_Z 28
_cell_length_a 10.956979
_cell_length_b 10.172024
_cell_length_c 23.348693
_cell_angle_alpha 90.000000
_cell_angle_beta 156.542938
_cell_angle_gamma 90.000000
_cell_volume 1035.884125
_symmetry_space_group_name_H-M "C 2/C"
_symmetry_group_IT_number 15
_symmetry_cell_setting 'monoclinic'
loop_
_space_group_symop_operation_xyz
x,y,z
-x,y,1/2-z
-x,-y,-z
x,-y,1/2+z
1/2+x,1/2+y,z
1/2-x,1/2+y,1/2-z
1/2-x,1/2-y,-z
1/2+x,1/2-y,1/2+z
loop_
_atom_site_type_symbol
_atom_site_label
_atom_site_fract_x
_atom_site_fract_y
_atom_site_fract_z
Si Si1 0.971378 0.853134 0.356557
Si Si2 0.339874 0.749991 0.909626
Si Si3 0.214126 0.863665 0.671379
Si Si4 0.500000 0.493912 0.250000
O O1 0.086510 0.795796 0.468202
O O2 0.751340 0.733573 0.241448
O O3 0.856129 0.994201 0.332679
O O4 0.048793 0.903920 0.325943
O O5 0.000000 0.693798 0.750000
O O6 0.282290 0.904034 0.873895
O O7 0.448950 0.698567 0.017384
O O8 0.500000 0.872762 0.750000
#
# Coordination Sequence:
#
# PCOD9298876 Si02
#       4
#     8   8   8   4
#     4  12  24  48  72 108 143 187 234 295 350 424
#     4  10  25  50  72 103 143 190 234 290 353 419
#     4  12  27  47  75 106 142 186 239 292 353 417
#     4  10  24  46  68 108 140 188 228 290 352 416
#
# _framework density 27.030049999999999
#
# number of rings (size 3 to 8) (size 9 to 14) (size 15 to 20)
#    0.857    0.000    4.286    1.714    0.000    9.143 
#    5.143    0.000    0.000    0.000    0.000    0.000 
#    0.000    0.000    0.000    0.000    0.000    0.000 
#
# Total GULP energy -78097.034451 kJ/mol
# GULP energy per Si atom -5578.359604 kJ/mol
# Density = 2.696853 g / cm^3
# Si number density = 27.030050 Si / 1000 Ang^3
#
#
#
# Elastic Constant Matrix: (Units=GPa)
#
#
# Indices 1 2 3 4 5 6 
#
# 1 142.5825 74.1373 77.2676 0.0027 -38.1937 -0.0013
# 2 74.1373 263.7091 107.6003 0.0022 -26.3749 0.0001
# 3 77.2676 107.6003 236.6685 0.0144 -32.2927 0.0027
# 4 0.0027 0.0022 0.0144 114.3146 0.0067 11.7215
# 5 -38.1937 -26.3749 -32.2927 0.0067 71.9782 0.0006
# 6 -0.0013 0.0001 0.0027 11.7215 0.0006 102.8024
#
#
#
# Elastic Compliance Matrix: (Units=1/GPa)
#
#
# Indices 1 2 3 4 5 6 
#
# 1 0.009947 -0.001600 -0.002002 0.000000 0.003793 0.000000
# 2 -0.001600 0.004957 -0.001704 0.000000 0.000203 0.000000
# 3 -0.002002 -0.001704 0.005777 -0.000001 0.000905 0.000000
# 4 0.000000 0.000000 -0.000001 0.008851 -0.000001 -0.001009
# 5 0.003793 0.000203 0.000905 -0.000001 0.016386 0.000000
# 6 0.000000 0.000000 0.000000 -0.001009 0.000000 0.009842
#
#
# Mechanical properties :
#
#
# Convention : Reuss Voigt Hill
#
# Bulk Modulus (GPa) = 99.31480 128.99672 114.15576
# Shear Modulus (GPa) = 71.70532 83.41604 77.56068
#
# Velocity S-wave (km/s) = 5.15612 5.56125 5.36251
# Velocity P-wave (km/s) = 8.50115 9.43736 8.98146
#
# Compressibility (1/GPa) = 0.01006899
#
# Stress axis : x y z
#
# Youngs Moduli (GPa) = 100.53660 201.72068 173.09505
#
# Poissons Ratio (x) = 0.32273 0.34661
# Poissons Ratio (y) = 0.16085 0.29492
# Poissons Ratio (z) = 0.20131 0.34369
#
# Static dielectric constant tensor:
#      x y z
#    x 2.542310 -0.000020 0.415110 
#    y -0.000020 2.175760 -0.000030 
#    z 0.415110 -0.000030 2.290330 
# 
# From -- ./inp_files/237320.got.cif
#   From: 2010.05.17/outbox.cif.g08.bks.cpg/sg15_119_cif.got.tgz:237320.got - 2010.06.03 18:47:42.
