data_PCOD9298252
_publ_section_title
;
Structure prediction by ZEFSAII (Michael W. Deem and Ramdas Pophale) SiO2 
 PCOD9298252
Probable space group: C 2/C
;
_chemical_formula_sum "Si O2"
_cell_formula_units_Z 60
_cell_length_a 26.709782
_cell_length_b 12.567216
_cell_length_c 8.779222
_cell_angle_alpha 90.000000
_cell_angle_beta 67.166092
_cell_angle_gamma 90.000000
_cell_volume 2715.962568
_symmetry_space_group_name_H-M "C 2/C"
_symmetry_group_IT_number 15
_symmetry_cell_setting 'monoclinic'
loop_
_space_group_symop_operation_xyz
x,y,z
-x,y,1/2-z
-x,-y,-z
x,-y,1/2+z
1/2+x,1/2+y,z
1/2-x,1/2+y,1/2-z
1/2-x,1/2-y,-z
1/2+x,1/2-y,1/2+z
loop_
_atom_site_type_symbol
_atom_site_label
_atom_site_fract_x
_atom_site_fract_y
_atom_site_fract_z
Si Si1 0.751975 0.619297 0.475111
Si Si2 0.998887 0.875140 0.478600
Si Si3 0.808434 0.009505 0.709084
Si Si4 0.500000 0.225576 0.750000
Si Si5 0.638806 0.903556 0.847894
Si Si6 0.109505 0.181310 0.757320
Si Si7 0.390887 0.890443 0.278839
Si Si8 0.127243 0.189497 0.388644
O O1 0.750000 0.750000 0.500000
O O2 0.743178 0.566054 0.650716
O O3 0.710528 0.538772 0.430507
O O4 0.805450 0.601235 0.311853
O O5 0.019675 0.806683 0.597353
O O6 0.936325 0.840554 0.544335
O O7 0.047394 0.853720 0.302548
O O8 0.000000 0.000000 0.500000
O O9 0.856111 0.097521 0.680650
O O10 0.836697 0.900575 0.735846
O O11 0.549711 0.153034 0.746143
O O12 0.610174 0.794113 0.837534
O O13 0.605732 0.003076 0.822743
O O14 0.642032 0.909073 0.026289
O O15 0.136894 0.195678 0.558907
O O16 0.363945 0.800365 0.205562
#
# Coordination Sequence:
#
# PCOD9298252 Si02
#       8
#     8   8   8   4   8   8   8   8
#     4  12  27  48  73 112 146 191 254 304 370 442
#     4  11  23  38  71 105 151 186 235 290 371 442
#     4  12  25  44  78 100 151 186 237 313 358 429
#     4  10  24  44  64 110 140 186 248 288 358 454
#     4  12  25  49  72  97 144 188 247 303 363 438
#     4  12  24  45  72 108 145 193 240 300 370 442
#     4  11  26  47  72 102 143 191 242 305 367 440
#     4  11  25  43  69 109 147 189 240 298 368 447
#
# _framework density 22.091615000000001
#
# number of rings (size 3 to 8) (size 9 to 14) (size 15 to 20)
#    0.000    0.533    5.333    2.000    3.733    1.600 
#    2.400    2.000    0.000    0.000    0.000    0.000 
#    0.000    0.000    0.000    0.000    0.000    0.000 
#
# Total GULP energy -167215.462225 kJ/mol
# GULP energy per Si atom -5573.848741 kJ/mol
# Density = 2.204133 g / cm^3
# Si number density = 22.091615 Si / 1000 Ang^3
#
#
#
# Elastic Constant Matrix: (Units=GPa)
#
#
# Indices 1 2 3 4 5 6 
#
# 1 53.3161 37.5863 11.7562 0.0000 -2.8242 0.0000
# 2 37.5863 142.6879 37.3558 0.0000 30.3077 0.0000
# 3 11.7562 37.3558 107.4317 0.0000 -1.3933 0.0000
# 4 0.0000 0.0000 0.0000 36.3360 0.0000 -4.9723
# 5 -2.8242 30.3077 -1.3933 0.0000 28.8160 0.0000
# 6 0.0000 0.0000 0.0000 -4.9723 0.0000 31.3049
#
#
#
# Elastic Compliance Matrix: (Units=1/GPa)
#
#
# Indices 1 2 3 4 5 6 
#
# 1 0.026230 -0.009854 0.000724 0.000000 0.012970 0.000000
# 2 -0.009854 0.014035 -0.004008 0.000000 -0.015921 0.000000
# 3 0.000724 -0.004008 0.010685 0.000000 0.004804 0.000000
# 4 0.000000 0.000000 0.000000 0.028132 0.000000 0.004468
# 5 0.012970 -0.015921 0.004804 0.000000 0.052952 0.000000
# 6 0.000000 0.000000 0.000000 0.004468 0.000000 0.032654
#
#
# Mechanical properties :
#
#
# Convention : Reuss Voigt Hill
#
# Bulk Modulus (GPa) = 40.52826 52.98136 46.75481
# Shear Modulus (GPa) = 25.10178 33.74053 29.42116
#
# Velocity S-wave (km/s) = 3.37450 3.91231 3.65331
# Velocity P-wave (km/s) = 5.79382 6.66655 6.24545
#
# Compressibility (1/GPa) = 0.02467414
#
# Stress axis : x y z
#
# Youngs Moduli (GPa) = 38.12412 71.24967 93.58836
#
# Poissons Ratio (x) = 0.70209 -0.06778
# Poissons Ratio (y) = 0.37567 0.37514
# Poissons Ratio (z) = -0.02761 0.28560
#
# Static dielectric constant tensor:
#      x y z
#    x 1.983870 0.000000 0.145430 
#    y 0.000000 1.701440 0.000000 
#    z 0.145430 0.000000 2.284600 
# 
# From -- ./inp_files/69338.got.cif
#   From: 2010.05.17/outbox.cif.g08.bks.cpg/sg15_35_cif.got.tgz:69338.got - 2010.06.03 18:47:42.
