data_PCOD9298978
_publ_section_title
;
Structure prediction by ZEFSAII (Michael W. Deem and Ramdas Pophale) SiO2 
 PCOD9298978
Probable space group: C 2/C
;
_chemical_formula_sum "Si O2"
_cell_formula_units_Z 64
_cell_length_a 23.564155
_cell_length_b 9.560756
_cell_length_c 28.167037
_cell_angle_alpha 90.000000
_cell_angle_beta 152.235594
_cell_angle_gamma 90.000000
_cell_volume 2956.101001
_symmetry_space_group_name_H-M "C 2/C"
_symmetry_group_IT_number 15
_symmetry_cell_setting 'monoclinic'
loop_
_space_group_symop_operation_xyz
x,y,z
-x,y,1/2-z
-x,-y,-z
x,-y,1/2+z
1/2+x,1/2+y,z
1/2-x,1/2+y,1/2-z
1/2-x,1/2-y,-z
1/2+x,1/2-y,1/2+z
loop_
_atom_site_type_symbol
_atom_site_label
_atom_site_fract_x
_atom_site_fract_y
_atom_site_fract_z
Si Si1 0.859628 0.068695 0.628255
Si Si2 0.567422 0.227114 0.160381
Si Si3 0.154835 0.935075 0.046168
Si Si4 0.239418 0.168344 0.377573
Si Si5 0.681952 0.311920 0.503744
Si Si6 0.401622 0.446730 0.812348
Si Si7 0.526837 0.164952 0.019970
Si Si8 0.316198 0.605456 0.348835
O O1 0.802695 0.220681 0.597480
O O2 0.838029 0.081036 0.555241
O O3 0.000000 0.057518 0.750000
O O4 0.783245 0.945111 0.597886
O O5 0.432039 0.204607 0.080428
O O6 0.593700 0.388090 0.193124
O O7 0.563227 0.208892 0.100404
O O8 0.678187 0.137205 0.261601
O O9 0.260523 0.830909 0.108259
O O10 0.139706 0.965478 0.091115
O O11 0.030428 0.896523 0.927766
O O12 0.174529 0.093339 0.044107
O O13 0.138927 0.132938 0.264052
O O14 0.367031 0.172720 0.441836
O O15 0.311493 0.425416 0.789403
O O16 0.407816 0.262247 0.921853
O O17 0.500000 0.000000 0.000000
#
# Coordination Sequence:
#
# PCOD9298978 Si02
#       8
#     8   8   8   8   8   8   8   8
#     4  11  25  48  75  93 131 183 244 305 360 414
#     4  11  23  40  67 101 140 181 227 281 358 436
#     4  11  24  43  67 100 140 180 228 288 356 419
#     4  12  25  42  67  99 136 186 234 288 353 424
#     4  10  24  46  72 103 127 179 243 300 358 424
#     4  11  22  40  61  94 143 186 222 262 352 430
#     4  12  23  38  63 104 142 178 229 277 348 439
#     4  12  23  38  67  98 148 187 218 278 354 437
#
# _framework density 21.650138999999999
#
# number of rings (size 3 to 8) (size 9 to 14) (size 15 to 20)
#    0.000    0.750    5.000    4.125    3.500    0.500 
#    2.250    0.625    0.000    0.000    0.000    0.000 
#    0.000    0.000    0.000    0.000    0.000    0.000 
#
# Total GULP energy -178438.436022 kJ/mol
# GULP energy per Si atom -5576.201126 kJ/mol
# Density = 2.160086 g / cm^3
# Si number density = 21.650139 Si / 1000 Ang^3
#
#
#
# Elastic Constant Matrix: (Units=GPa)
#
#
# Indices 1 2 3 4 5 6 
#
# 1 79.0295 15.8377 21.1510 0.0000 2.0611 0.0000
# 2 15.8377 74.4931 29.6859 0.0002 8.9105 0.0000
# 3 21.1510 29.6859 54.5090 0.0003 9.0429 0.0001
# 4 0.0000 0.0002 0.0003 24.7128 0.0001 6.8807
# 5 2.0611 8.9105 9.0429 0.0001 20.7995 0.0000
# 6 0.0000 0.0000 0.0001 6.8807 0.0000 40.6738
#
#
#
# Elastic Compliance Matrix: (Units=1/GPa)
#
#
# Indices 1 2 3 4 5 6 
#
# 1 0.014216 -0.001142 -0.005111 0.000000 0.001302 0.000000
# 2 -0.001142 0.017482 -0.008465 0.000000 -0.003696 0.000000
# 3 -0.005111 -0.008465 0.026138 0.000000 -0.007231 0.000000
# 4 0.000000 0.000000 0.000000 0.042465 0.000000 -0.007184
# 5 0.001302 -0.003696 -0.007231 0.000000 0.052676 0.000000
# 6 0.000000 0.000000 0.000000 -0.007184 0.000000 0.025801
#
#
# Mechanical properties :
#
#
# Convention : Reuss Voigt Hill
#
# Bulk Modulus (GPa) = 35.20798 37.93122 36.56960
# Shear Modulus (GPa) = 22.96948 26.66102 24.81525
#
# Velocity S-wave (km/s) = 3.26074 3.51301 3.38922
# Velocity P-wave (km/s) = 5.52034 5.83207 5.67834
#
# Compressibility (1/GPa) = 0.02840265
#
# Stress axis : x y z
#
# Youngs Moduli (GPa) = 70.34284 57.20134 38.25815
#
# Poissons Ratio (x) = 0.06530 0.19552
# Poissons Ratio (y) = 0.08030 0.32384
# Poissons Ratio (z) = 0.35949 0.48419
#
# Static dielectric constant tensor:
#      x y z
#    x 1.945650 0.000000 0.037010 
#    y 0.000000 1.902270 0.000000 
#    z 0.037010 0.000000 1.795130 
# 
# From -- ./inp_files/318647.got.cif
#   From: 2010.05.17/outbox.cif.g08.bks.cpg/sg15_160_cif.got.tgz:318647.got - 2010.06.03 18:47:42.
