data_PCOD9298828
_publ_section_title
;
Structure prediction by ZEFSAII (Michael W. Deem and Ramdas Pophale) SiO2 
 PCOD9298828
Probable space group: C 2/C
;
_chemical_formula_sum "Si O2"
_cell_formula_units_Z 52
_cell_length_a 17.279528
_cell_length_b 24.015152
_cell_length_c 9.389346
_cell_angle_alpha 90.000000
_cell_angle_beta 144.429766
_cell_angle_gamma 90.000000
_cell_volume 2266.480442
_symmetry_space_group_name_H-M "C 2/C"
_symmetry_group_IT_number 15
_symmetry_cell_setting 'monoclinic'
loop_
_space_group_symop_operation_xyz
x,y,z
-x,y,1/2-z
-x,-y,-z
x,-y,1/2+z
1/2+x,1/2+y,z
1/2-x,1/2+y,1/2-z
1/2-x,1/2-y,-z
1/2+x,1/2-y,1/2+z
loop_
_atom_site_type_symbol
_atom_site_label
_atom_site_fract_x
_atom_site_fract_y
_atom_site_fract_z
Si Si1 0.379155 0.929367 0.826701
Si Si2 0.004757 0.776402 0.425702
Si Si3 0.580736 0.154803 0.519306
Si Si4 0.654252 0.368253 0.967892
Si Si5 0.500000 0.006679 0.250000
Si Si6 0.363491 0.756928 0.980140
Si Si7 0.312355 0.367131 0.783409
O O1 0.402181 0.957953 0.707612
O O2 0.237598 0.903477 0.660390
O O3 0.485907 0.879035 0.983649
O O4 0.419145 0.970620 0.014113
O O5 0.090957 0.719514 0.581072
O O6 0.041082 0.841014 0.507192
O O7 0.000000 0.775308 0.250000
O O8 0.881173 0.763750 0.343464
O O9 0.726342 0.126256 0.738828
O O10 0.500000 0.154407 0.250000
O O11 0.500000 0.386312 0.750000
O O12 0.649176 0.300296 0.947938
O O13 0.710983 0.393583 0.906003
O O14 0.500000 0.780322 0.250000
O O15 0.265057 0.808287 0.828665
#
# Coordination Sequence:
#
# PCOD9298828 Si02
#       7
#     8   8   8   8   4   8   8
#     4  11  23  42  71  97 129 170 227 293 357 384
#     4  11  23  36  53  94 147 179 216 262 322 409
#     4  11  22  38  63 100 137 183 220 270 336 409
#     4  11  22  37  59  91 142 189 224 268 311 403
#     4  10  24  46  64 100 128 158 236 316 346 376
#     4  11  20  34  54  83 133 181 222 256 298 390
#     4  12  22  37  63  96 129 187 230 263 337 410
#
# _framework density 22.943061
#
# number of rings (size 3 to 8) (size 9 to 14) (size 15 to 20)
#    0.000    0.923    6.923    2.308    1.077    1.846 
#    0.000    0.000    0.000    0.000    0.000   28.000 
#    0.000    0.000    0.000    0.000    0.000    0.000 
#
# Total GULP energy -144752.688340 kJ/mol
# GULP energy per Si atom -5567.411090 kJ/mol
# Density = 2.289084 g / cm^3
# Si number density = 22.943061 Si / 1000 Ang^3
#
#
#
# Elastic Constant Matrix: (Units=GPa)
#
#
# Indices 1 2 3 4 5 6 
#
# 1 145.3802 27.0425 34.6223 0.0000 -29.1355 0.0000
# 2 27.0425 57.1484 6.6492 0.0000 -13.6814 0.0000
# 3 34.6223 6.6492 69.3666 0.0000 -9.7829 0.0000
# 4 0.0000 0.0000 0.0000 1.8501 0.0000 -4.6418
# 5 -29.1355 -13.6814 -9.7829 0.0000 36.3970 0.0000
# 6 0.0000 0.0000 0.0000 -4.6418 0.0000 40.4910
#
#
#
# Elastic Compliance Matrix: (Units=1/GPa)
#
#
# Indices 1 2 3 4 5 6 
#
# 1 0.009344 -0.002683 -0.003631 0.000000 0.005495 0.000000
# 2 -0.002683 0.020048 0.000184 0.000000 0.005438 0.000000
# 3 -0.003631 0.000184 0.016434 0.000000 0.001579 0.000000
# 4 0.000000 0.000000 0.000000 0.758771 0.000000 0.086984
# 5 0.005495 0.005438 0.001579 0.000000 0.034342 0.000000
# 6 0.000000 0.000000 0.000000 0.086984 0.000000 0.034669
#
#
# Mechanical properties :
#
#
# Convention : Reuss Voigt Hill
#
# Bulk Modulus (GPa) = 29.79295 45.39147 37.59221
# Shear Modulus (GPa) = 5.57378 29.31969 17.44674
#
# Velocity S-wave (km/s) = 1.56034 3.57870 2.76059
# Velocity P-wave (km/s) = 4.03237 6.07482 5.15575
#
# Compressibility (1/GPa) = 0.03356499
#
# Stress axis : x y z
#
# Youngs Moduli (GPa) = 107.02379 49.87926 60.85025
#
# Poissons Ratio (x) = 0.13385 0.22098
# Poissons Ratio (y) = 0.28719 -0.01123
# Poissons Ratio (z) = 0.38866 -0.00920
#
# Static dielectric constant tensor:
#      x y z
#    x 3.553630 0.000000 0.865660 
#    y 0.000000 1.887910 0.000000 
#    z 0.865660 0.000000 2.430010 
# 
# From -- ./inp_files/52211.got.cif
#   From: 2010.05.17/outbox.cif.g08.bks.cpg/sg15_27_cif.got.tgz:52211.got - 2010.06.03 18:47:42.
