data_PCOD9298414
_publ_section_title
;
Structure prediction by ZEFSAII (Michael W. Deem and Ramdas Pophale) SiO2 
 PCOD9298414
Probable space group: C 2/C
;
_chemical_formula_sum "Si O2"
_cell_formula_units_Z 40
_cell_length_a 14.049621
_cell_length_b 13.354511
_cell_length_c 14.248582
_cell_angle_alpha 90.000000
_cell_angle_beta 38.213064
_cell_angle_gamma 90.000000
_cell_volume 1653.733137
_symmetry_space_group_name_H-M "C 2/C"
_symmetry_group_IT_number 15
_symmetry_cell_setting 'monoclinic'
loop_
_space_group_symop_operation_xyz
x,y,z
-x,y,1/2-z
-x,-y,-z
x,-y,1/2+z
1/2+x,1/2+y,z
1/2-x,1/2+y,1/2-z
1/2-x,1/2-y,-z
1/2+x,1/2-y,1/2+z
loop_
_atom_site_type_symbol
_atom_site_label
_atom_site_fract_x
_atom_site_fract_y
_atom_site_fract_z
Si Si1 0.565887 0.379774 0.830291
Si Si2 0.500000 0.056329 0.750000
Si Si3 0.000000 0.942068 0.250000
Si Si4 0.158783 0.628461 0.051538
Si Si5 0.273839 0.721073 0.141310
Si Si6 0.751601 0.206308 0.636848
O O1 0.530150 0.485698 0.815174
O O2 0.646437 0.373494 0.869249
O O3 0.679811 0.316360 0.674700
O O4 0.411278 0.315906 0.963877
O O5 0.627061 0.124537 0.702008
O O6 0.582446 0.980105 0.613344
O O7 0.842304 0.884518 0.390015
O O8 0.114067 0.707271 0.006027
O O9 0.155406 0.674869 0.158852
O O10 0.224815 0.788248 0.268496
#
# Coordination Sequence:
#
# PCOD9298414 Si02
#       6
#     8   4   4   8   8   8
#     4  10  24  44  70  96 131 179 215 274 329 399
#     4  12  25  41  68 100 134 164 234 273 329 378
#     4  12  25  41  70 102 134 164 236 269 329 380
#     4  11  26  42  68 101 132 180 213 283 321 397
#     4   9  26  45  69  91 143 174 224 256 351 388
#     4  10  24  44  69  96 131 177 219 273 332 394
#
# _framework density 24.1877
#
# number of rings (size 3 to 8) (size 9 to 14) (size 15 to 20)
#    1.200    0.400    2.000    0.600    8.400    6.400 
#    0.000    0.000    0.000    0.000    0.000    0.000 
#    0.000    0.000    0.000    0.000    0.000    0.000 
#
# Total GULP energy -111749.915602 kJ/mol
# GULP energy per Si atom -5587.495780 kJ/mol
# Density = 2.413265 g / cm^3
# Si number density = 24.187700 Si / 1000 Ang^3
#
#
#
# Elastic Constant Matrix: (Units=GPa)
#
#
# Indices 1 2 3 4 5 6 
#
# 1 131.9112 25.4491 18.6064 -0.0002 18.5626 -0.0001
# 2 25.4491 71.5211 -5.0584 -0.0002 1.8604 -0.0001
# 3 18.6064 -5.0584 52.3707 -0.0006 0.0000 -0.0003
# 4 -0.0002 -0.0002 -0.0006 109.7242 0.0003 16.7405
# 5 18.5626 1.8604 0.0000 0.0003 40.2544 0.0001
# 6 -0.0001 -0.0001 -0.0003 16.7405 0.0001 18.7268
#
#
#
# Elastic Compliance Matrix: (Units=1/GPa)
#
#
# Indices 1 2 3 4 5 6 
#
# 1 0.009352 -0.003479 -0.003659 0.000000 -0.004152 0.000000
# 2 -0.003479 0.015389 0.002722 0.000000 0.000893 0.000000
# 3 -0.003659 0.002722 0.020657 0.000000 0.001561 0.000000
# 4 0.000000 0.000000 0.000000 0.010553 0.000000 -0.009434
# 5 -0.004152 0.000893 0.001561 0.000000 0.026715 0.000000
# 6 0.000000 0.000000 0.000000 -0.009434 0.000000 0.061833
#
#
# Mechanical properties :
#
#
# Convention : Reuss Voigt Hill
#
# Bulk Modulus (GPa) = 27.34577 37.08857 32.21717
# Shear Modulus (GPa) = 30.20796 48.19480 39.20138
#
# Velocity S-wave (km/s) = 3.53781 4.46862 4.03018
# Velocity P-wave (km/s) = 5.29323 6.48010 5.91650
#
# Compressibility (1/GPa) = 0.03656873
#
# Stress axis : x y z
#
# Youngs Moduli (GPa) = 106.92578 64.98169 48.40864
#
# Poissons Ratio (x) = 0.22604 0.17711
# Poissons Ratio (y) = 0.37195 -0.13178
# Poissons Ratio (z) = 0.39121 -0.17690
#
# Static dielectric constant tensor:
#      x y z
#    x 1.948110 0.000000 -0.008500 
#    y 0.000000 1.891620 0.000000 
#    z -0.008500 0.000000 1.997120 
# 
# From -- ./inp_files/211041.got.cif
#   From: 2010.05.17/outbox.cif.g08.bks.cpg/sg15_106_cif.got.tgz:211041.got - 2010.06.03 18:47:42.
