data_PCOD9298699
_publ_section_title
;
Structure prediction by ZEFSAII (Michael W. Deem and Ramdas Pophale) SiO2 
 PCOD9298699
Probable space group: C 2/C
;
_chemical_formula_sum "Si O2"
_cell_formula_units_Z 52
_cell_length_a 21.190297
_cell_length_b 12.005553
_cell_length_c 11.901721
_cell_angle_alpha 90.000000
_cell_angle_beta 125.411367
_cell_angle_gamma 90.000000
_cell_volume 2467.706115
_symmetry_space_group_name_H-M "C 2/C"
_symmetry_group_IT_number 15
_symmetry_cell_setting 'monoclinic'
loop_
_space_group_symop_operation_xyz
x,y,z
-x,y,1/2-z
-x,-y,-z
x,-y,1/2+z
1/2+x,1/2+y,z
1/2-x,1/2+y,1/2-z
1/2-x,1/2-y,-z
1/2+x,1/2-y,1/2+z
loop_
_atom_site_type_symbol
_atom_site_label
_atom_site_fract_x
_atom_site_fract_y
_atom_site_fract_z
Si Si1 0.861619 0.740299 0.711898
Si Si2 0.000000 0.863620 0.750000
Si Si3 0.919095 0.003639 0.482402
Si Si4 0.415432 0.283991 0.116309
Si Si5 0.801441 0.651794 0.411521
Si Si6 0.651561 0.100388 0.582980
Si Si7 0.822721 0.170378 0.745173
O O1 0.836318 0.689929 0.566277
O O2 0.791634 0.825816 0.672952
O O3 0.863921 0.642781 0.806821
O O4 0.945948 0.794408 0.779796
O O5 0.061569 0.936668 0.883292
O O6 0.857502 0.938746 0.342715
O O7 0.896996 0.127644 0.498287
O O8 0.000000 0.000000 0.500000
O O9 0.500000 0.309500 0.250000
O O10 0.361729 0.303990 0.167692
O O11 0.410341 0.160055 0.061081
O O12 0.831635 0.529043 0.414684
O O13 0.832296 0.731816 0.345323
O O14 0.732396 0.156529 0.631693
#
# Coordination Sequence:
#
# PCOD9298699 Si02
#       7
#     8   4   8   8   8   8   8
#     4  10  24  45  70 102 132 181 236 284 352 418
#     4  12  22  42  70 100 134 176 232 290 350 406
#     4  12  23  41  70 103 137 178 227 294 351 402
#     4  12  26  44  67 107 143 179 229 286 356 413
#     4  10  24  46  67  98 134 180 234 282 344 418
#     4  11  27  43  71  97 141 187 226 287 345 428
#     4  11  25  44  68 101 136 181 233 288 343 413
#
# _framework density 21.072202000000001
#
# number of rings (size 3 to 8) (size 9 to 14) (size 15 to 20)
#    0.000    0.923    3.846    1.385   10.769    0.000 
#    1.385    1.538    0.000    0.000    0.000    0.000 
#    0.000    0.000    0.000    0.000    0.000    0.000 
#
# Total GULP energy -145378.120651 kJ/mol
# GULP energy per Si atom -5591.466179 kJ/mol
# Density = 2.102424 g / cm^3
# Si number density = 21.072202 Si / 1000 Ang^3
#
#
#
# Elastic Constant Matrix: (Units=GPa)
#
#
# Indices 1 2 3 4 5 6 
#
# 1 97.6602 33.3004 4.5998 0.0000 -22.0840 0.0000
# 2 33.3004 150.7930 28.0467 0.0000 -18.6840 0.0000
# 3 4.5998 28.0467 67.5217 0.0000 -13.9885 0.0000
# 4 0.0000 0.0000 0.0000 23.2478 0.0000 -12.5224
# 5 -22.0840 -18.6840 -13.9885 0.0000 30.6629 0.0000
# 6 0.0000 0.0000 0.0000 -12.5224 0.0000 66.5700
#
#
#
# Elastic Compliance Matrix: (Units=1/GPa)
#
#
# Indices 1 2 3 4 5 6 
#
# 1 0.012859 -0.002085 0.001817 0.000000 0.008820 0.000000
# 2 -0.002085 0.007847 -0.002692 0.000000 0.002052 0.000000
# 3 0.001817 -0.002692 0.017378 0.000000 0.007596 0.000000
# 4 0.000000 0.000000 0.000000 0.047865 0.000000 0.009004
# 5 0.008820 0.002052 0.007596 0.000000 0.043681 0.000000
# 6 0.000000 0.000000 0.000000 0.009004 0.000000 0.016715
#
#
# Mechanical properties :
#
#
# Convention : Reuss Voigt Hill
#
# Bulk Modulus (GPa) = 31.08998 49.76319 40.42659
# Shear Modulus (GPa) = 30.67722 40.76468 35.72095
#
# Velocity S-wave (km/s) = 3.81965 4.40309 4.12171
# Velocity P-wave (km/s) = 5.85141 7.03679 6.47130
#
# Compressibility (1/GPa) = 0.03216471
#
# Stress axis : x y z
#
# Youngs Moduli (GPa) = 77.76374 127.43721 57.54295
#
# Poissons Ratio (x) = 0.26570 -0.10457
# Poissons Ratio (y) = 0.16213 0.15493
# Poissons Ratio (z) = -0.14132 0.34311
#
# Static dielectric constant tensor:
#      x y z
#    x 1.742580 0.000000 -0.002990 
#    y 0.000000 1.805230 0.000000 
#    z -0.002990 0.000000 1.777730 
# 
# From -- ./inp_files/117921.got.cif
#   From: 2010.05.17/outbox.cif.g08.bks.cpg/sg15_59_cif.got.tgz:117921.got - 2010.06.03 18:47:42.
