data_PCOD9298141
_publ_section_title
;
Structure prediction by ZEFSAII (Michael W. Deem and Ramdas Pophale) SiO2 
 PCOD9298141
Probable space group: C 2/C
;
_chemical_formula_sum "Si O2"
_cell_formula_units_Z 36
_cell_length_a 21.900015
_cell_length_b 7.616282
_cell_length_c 14.003523
_cell_angle_alpha 90.000000
_cell_angle_beta 138.977365
_cell_angle_gamma 90.000000
_cell_volume 1533.080446
_symmetry_space_group_name_H-M "C 2/C"
_symmetry_group_IT_number 15
_symmetry_cell_setting 'monoclinic'
loop_
_space_group_symop_operation_xyz
x,y,z
-x,y,1/2-z
-x,-y,-z
x,-y,1/2+z
1/2+x,1/2+y,z
1/2-x,1/2+y,1/2-z
1/2-x,1/2-y,-z
1/2+x,1/2-y,1/2+z
loop_
_atom_site_type_symbol
_atom_site_label
_atom_site_fract_x
_atom_site_fract_y
_atom_site_fract_z
Si Si1 0.193019 0.588448 0.393272
Si Si2 0.717563 0.663606 0.353336
Si Si3 0.670365 0.693816 0.687424
Si Si4 0.511050 0.175914 0.577194
Si Si5 0.500000 0.996451 0.750000
O O1 0.250000 0.750000 0.500000
O O2 0.240365 0.414424 0.495795
O O3 0.190342 0.635245 0.278025
O O4 0.088298 0.602937 0.311316
O O5 0.706449 0.478657 0.282298
O O6 0.784037 0.775215 0.361705
O O7 0.614613 0.755232 0.223507
O O8 0.558650 0.683226 0.548502
O O9 0.466781 0.117630 0.625146
O O10 0.500000 0.000000 0.500000
#
# Coordination Sequence:
#
# PCOD9298141 Si02
#       5
#     8   8   8   8   4
#     4  10  24  43  70 104 142 187 236 297 362 430
#     4  11  25  44  71 105 141 188 243 294 370 433
#     4  11  23  44  70 103 141 188 237 301 360 440
#     4  12  25  44  70 104 143 187 240 302 363 433
#     4  12  24  44  70 100 142 184 236 296 368 420
#
# _framework density 23.482135
#
# number of rings (size 3 to 8) (size 9 to 14) (size 15 to 20)
#    0.000    0.889    4.444    2.000    3.111    2.667 
#    0.000    4.444    0.000    0.000    0.000    0.000 
#    0.000    0.000    0.000    0.000    0.000    0.000 
#
# Total GULP energy -100427.057120 kJ/mol
# GULP energy per Si atom -5579.280951 kJ/mol
# Density = 2.342869 g / cm^3
# Si number density = 23.482135 Si / 1000 Ang^3
#
#
#
# Elastic Constant Matrix: (Units=GPa)
#
#
# Indices 1 2 3 4 5 6 
#
# 1 122.4358 -3.0390 26.2237 0.0000 -11.1026 0.0000
# 2 -3.0390 52.8607 -7.1506 0.0000 16.7646 0.0000
# 3 26.2237 -7.1506 124.4584 0.0000 7.0370 0.0000
# 4 0.0000 0.0000 0.0000 36.2344 0.0000 20.3801
# 5 -11.1026 16.7646 7.0370 0.0000 48.9183 0.0000
# 6 0.0000 0.0000 0.0000 20.3801 0.0000 28.5404
#
#
#
# Elastic Compliance Matrix: (Units=1/GPa)
#
#
# Indices 1 2 3 4 5 6 
#
# 1 0.008814 -0.000555 -0.002029 0.000000 0.002482 0.000000
# 2 -0.000555 0.021598 0.001798 0.000000 -0.007787 0.000000
# 3 -0.002029 0.001798 0.008697 0.000000 -0.002328 0.000000
# 4 0.000000 0.000000 0.000000 0.046122 0.000000 -0.032935
# 5 0.002482 -0.007787 -0.002328 0.000000 0.024009 0.000000
# 6 0.000000 0.000000 0.000000 -0.032935 0.000000 0.058556
#
#
# Mechanical properties :
#
#
# Convention : Reuss Voigt Hill
#
# Bulk Modulus (GPa) = 26.64052 36.86922 31.75487
# Shear Modulus (GPa) = 27.49035 41.65335 34.57185
#
# Velocity S-wave (km/s) = 3.42525 4.21626 3.84117
# Velocity P-wave (km/s) = 5.19738 6.27993 5.76412
#
# Compressibility (1/GPa) = 0.03753681
#
# Stress axis : x y z
#
# Youngs Moduli (GPa) = 113.46208 46.29954 114.97793
#
# Poissons Ratio (x) = 0.02570 0.23332
# Poissons Ratio (y) = 0.06299 -0.20675
# Poissons Ratio (z) = 0.23025 -0.08325
#
# Static dielectric constant tensor:
#      x y z
#    x 1.842250 0.000000 -0.023880 
#    y 0.000000 1.933730 0.000000 
#    z -0.023880 0.000000 1.959560 
# 
# From -- ./inp_files/166729.got.cif
#   From: 2010.05.17/outbox.cif.g08.bks.cpg/sg15_84_cif.got.tgz:166729.got - 2010.06.03 18:47:42.
