data_PCOD9298084
_publ_section_title
;
Structure prediction by ZEFSAII (Michael W. Deem and Ramdas Pophale) SiO2 
 PCOD9298084
Probable space group: C 2/C
;
_chemical_formula_sum "Si O2"
_cell_formula_units_Z 24
_cell_length_a 23.170109
_cell_length_b 5.226573
_cell_length_c 9.540524
_cell_angle_alpha 90.000000
_cell_angle_beta 54.796169
_cell_angle_gamma 90.000000
_cell_volume 944.051993
_symmetry_space_group_name_H-M "C 2/C"
_symmetry_group_IT_number 15
_symmetry_cell_setting 'monoclinic'
loop_
_space_group_symop_operation_xyz
x,y,z
-x,y,1/2-z
-x,-y,-z
x,-y,1/2+z
1/2+x,1/2+y,z
1/2-x,1/2+y,1/2-z
1/2-x,1/2-y,-z
1/2+x,1/2-y,1/2+z
loop_
_atom_site_type_symbol
_atom_site_label
_atom_site_fract_x
_atom_site_fract_y
_atom_site_fract_z
Si Si1 0.886676 0.439640 0.153129
Si Si2 0.319196 0.213568 0.493861
Si Si3 0.433267 0.450427 0.943573
O O1 0.867934 0.521398 0.334858
O O2 0.069610 0.817149 0.939104
O O3 0.815838 0.394639 0.156699
O O4 0.924885 0.681222 0.030117
O O5 0.250000 0.250000 0.500000
O O6 0.363412 0.473907 0.451120
O O7 0.500000 0.467283 0.750000
#
# Coordination Sequence:
#
# PCOD9298084 Si02
#       3
#     8   8   8
#     4  10  25  43  69  97 131 175 223 266 331 390
#     4  10  26  44  70  95 139 170 224 271 330 391
#     4  10  24  43  68 100 133 174 218 274 329 389
#
# _framework density 25.422328
#
# number of rings (size 3 to 8) (size 9 to 14) (size 15 to 20)
#    2.000    0.000    0.000    1.000    9.333    4.000 
#    0.000    0.000    0.000    0.000    0.000    0.000 
#    0.000    0.000    0.000    0.000    0.000    0.000 
#
# Total GULP energy -67119.092757 kJ/mol
# GULP energy per Si atom -5593.257730 kJ/mol
# Density = 2.536447 g / cm^3
# Si number density = 25.422328 Si / 1000 Ang^3
#
#
#
# Elastic Constant Matrix: (Units=GPa)
#
#
# Indices 1 2 3 4 5 6 
#
# 1 119.8208 -11.4676 -4.5494 0.0000 -3.0016 0.0000
# 2 -11.4676 154.1755 28.5953 0.0000 6.3106 0.0000
# 3 -4.5494 28.5953 53.1643 0.0000 12.9568 0.0000
# 4 0.0000 0.0000 0.0000 25.4961 0.0000 -0.0226
# 5 -3.0016 6.3106 12.9568 0.0000 43.8754 0.0000
# 6 0.0000 0.0000 0.0000 -0.0226 0.0000 15.6767
#
#
#
# Elastic Compliance Matrix: (Units=1/GPa)
#
#
# Indices 1 2 3 4 5 6 
#
# 1 0.008421 0.000549 0.000328 0.000000 0.000400 0.000000
# 2 0.000549 0.007241 -0.003883 0.000000 0.000143 0.000000
# 3 0.000328 -0.003883 0.022396 0.000000 -0.006033 0.000000
# 4 0.000000 0.000000 0.000000 0.039222 0.000000 0.000057
# 5 0.000400 0.000143 -0.006033 0.000000 0.024580 0.000000
# 6 0.000000 0.000000 0.000000 0.000057 0.000000 0.063789
#
#
# Mechanical properties :
#
#
# Convention : Reuss Voigt Hill
#
# Bulk Modulus (GPa) = 31.20437 39.14636 35.17537
# Shear Modulus (GPa) = 27.42085 37.98179 32.70132
#
# Velocity S-wave (km/s) = 3.28779 3.86947 3.59043
# Velocity P-wave (km/s) = 5.16854 5.94941 5.57267
#
# Compressibility (1/GPa) = 0.03204679
#
# Stress axis : x y z
#
# Youngs Moduli (GPa) = 118.75320 138.09789 44.65032
#
# Poissons Ratio (x) = -0.07584 -0.01463
# Poissons Ratio (y) = -0.06522 0.17336
# Poissons Ratio (z) = -0.03891 0.53618
#
# Static dielectric constant tensor:
#      x y z
#    x 2.133860 0.000000 0.015040 
#    y 0.000000 1.972800 0.000000 
#    z 0.015040 0.000000 1.952370 
# 
# From -- ./inp_files/115179.got.cif
#   From: 2010.05.17/outbox.cif.g08.bks.cpg/sg15_58_cif.got.tgz:115179.got - 2010.06.03 18:47:42.
