data_PCOD9298120
_publ_section_title
;
Structure prediction by ZEFSAII (Michael W. Deem and Ramdas Pophale) SiO2 
 PCOD9298120
Probable space group: C 2/C
;
_chemical_formula_sum "Si O2"
_cell_formula_units_Z 48
_cell_length_a 14.360124
_cell_length_b 11.424307
_cell_length_c 14.066127
_cell_angle_alpha 90.000000
_cell_angle_beta 57.046650
_cell_angle_gamma 90.000000
_cell_volume 1936.348031
_symmetry_space_group_name_H-M "C 2/C"
_symmetry_group_IT_number 15
_symmetry_cell_setting 'monoclinic'
loop_
_space_group_symop_operation_xyz
x,y,z
-x,y,1/2-z
-x,-y,-z
x,-y,1/2+z
1/2+x,1/2+y,z
1/2-x,1/2+y,1/2-z
1/2-x,1/2-y,-z
1/2+x,1/2-y,1/2+z
loop_
_atom_site_type_symbol
_atom_site_label
_atom_site_fract_x
_atom_site_fract_y
_atom_site_fract_z
Si Si1 0.148437 0.131687 0.415119
Si Si2 0.682081 0.347696 0.592246
Si Si3 0.997621 0.979609 0.364342
Si Si4 0.593161 0.100514 0.461137
Si Si5 0.588080 0.189101 0.811155
Si Si6 0.113665 0.579182 0.240426
O O1 0.055186 0.126185 0.547544
O O2 0.153469 0.258385 0.363756
O O3 0.272945 0.104916 0.376847
O O4 0.103109 0.035751 0.361263
O O5 0.750000 0.250000 0.500000
O O6 0.598366 0.421634 0.575898
O O7 0.782093 0.430034 0.576200
O O8 0.615541 0.281803 0.713357
O O9 0.000000 0.956523 0.250000
O O10 0.535055 0.177878 0.575384
O O11 0.611690 0.144764 0.343396
O O12 0.500000 0.000000 0.500000
O O13 0.617445 0.060525 0.759182
O O14 0.000000 0.603720 0.250000
#
# Coordination Sequence:
#
# PCOD9298120 Si02
#       6
#     8   8   8   8   8   8
#     4  11  24  45  69 108 146 184 233 306 365 426
#     4  12  24  40  75 110 133 182 251 299 354 423
#     4  11  23  41  68 102 152 179 230 298 375 413
#     4  10  24  43  69 105 147 180 237 303 353 421
#     4  11  24  43  73 103 137 182 243 292 349 427
#     4  11  25  46  75 104 142 189 241 296 360 429
#
# _framework density 24.788931999999999
#
# number of rings (size 3 to 8) (size 9 to 14) (size 15 to 20)
#    0.000    1.000    3.333    2.000   11.667    1.333 
#    0.000    1.667    0.000    0.000    0.000    0.000 
#    0.000    0.000    0.000    0.000    0.000    0.000 
#
# Total GULP energy -134065.166586 kJ/mol
# GULP energy per Si atom -5586.048608 kJ/mol
# Density = 2.473251 g / cm^3
# Si number density = 24.788932 Si / 1000 Ang^3
#
#
#
# Elastic Constant Matrix: (Units=GPa)
#
#
# Indices 1 2 3 4 5 6 
#
# 1 150.7019 21.0001 17.1747 0.0000 -26.4372 0.0000
# 2 21.0001 27.9135 6.7596 0.0000 -6.0452 0.0000
# 3 17.1747 6.7596 99.8838 0.0000 -4.7541 0.0000
# 4 0.0000 0.0000 0.0000 33.8933 0.0000 0.9622
# 5 -26.4372 -6.0452 -4.7541 0.0000 45.1088 0.0000
# 6 0.0000 0.0000 0.0000 0.9622 0.0000 18.4397
#
#
#
# Elastic Compliance Matrix: (Units=1/GPa)
#
#
# Indices 1 2 3 4 5 6 
#
# 1 0.008140 -0.005047 -0.000868 0.000000 0.004003 0.000000
# 2 -0.005047 0.040546 -0.001767 0.000000 0.002290 0.000000
# 3 -0.000868 -0.001767 0.010297 0.000000 0.000340 0.000000
# 4 0.000000 0.000000 0.000000 0.029548 0.000000 -0.001542
# 5 0.004003 0.002290 0.000340 0.000000 0.024857 0.000000
# 6 0.000000 0.000000 0.000000 -0.001542 0.000000 0.054311
#
#
# Mechanical properties :
#
#
# Convention : Reuss Voigt Hill
#
# Bulk Modulus (GPa) = 22.92584 40.92980 31.92782
# Shear Modulus (GPa) = 25.30341 35.05934 30.18138
#
# Velocity S-wave (km/s) = 3.19839 3.76482 3.49310
# Velocity P-wave (km/s) = 4.78624 5.95362 5.40156
#
# Compressibility (1/GPa) = 0.04361890
#
# Stress axis : x y z
#
# Youngs Moduli (GPa) = 122.85031 24.66354 97.11963
#
# Poissons Ratio (x) = 0.12448 0.08426
# Poissons Ratio (y) = 0.62002 0.17163
# Poissons Ratio (z) = 0.10658 0.04358
#
# Static dielectric constant tensor:
#      x y z
#    x 2.010010 0.000000 0.034190 
#    y 0.000000 2.040240 0.000000 
#    z 0.034190 0.000000 2.034120 
# 
# From -- ./inp_files/152437.got.cif
#   From: 2010.05.17/outbox.cif.g08.bks.cpg/sg15_77_cif.got.tgz:152437.got - 2010.06.03 18:47:42.
