data_PCOD9298167
_publ_section_title
;
Structure prediction by ZEFSAII (Michael W. Deem and Ramdas Pophale) SiO2 
 PCOD9298167
Probable space group: C 2/C
;
_chemical_formula_sum "Si O2"
_cell_formula_units_Z 56
_cell_length_a 7.987779
_cell_length_b 15.616244
_cell_length_c 19.054486
_cell_angle_alpha 90.000000
_cell_angle_beta 67.379750
_cell_angle_gamma 90.000000
_cell_volume 2193.999592
_symmetry_space_group_name_H-M "C 2/C"
_symmetry_group_IT_number 15
_symmetry_cell_setting 'monoclinic'
loop_
_space_group_symop_operation_xyz
x,y,z
-x,y,1/2-z
-x,-y,-z
x,-y,1/2+z
1/2+x,1/2+y,z
1/2-x,1/2+y,1/2-z
1/2-x,1/2-y,-z
1/2+x,1/2-y,1/2+z
loop_
_atom_site_type_symbol
_atom_site_label
_atom_site_fract_x
_atom_site_fract_y
_atom_site_fract_z
Si Si1 0.126918 0.366000 0.458219
Si Si2 0.731615 0.386024 0.453541
Si Si3 0.764117 0.280219 0.622979
Si Si4 0.370334 0.207558 0.384328
Si Si5 0.361078 0.465629 0.897374
Si Si6 0.268729 0.541314 0.704058
Si Si7 0.000000 0.315653 0.250000
Si Si8 0.500000 0.906926 0.750000
O O1 0.236656 0.287013 0.406517
O O2 0.132494 0.341591 0.540311
O O3 0.227341 0.455203 0.430070
O O4 0.927005 0.378002 0.459079
O O5 0.670330 0.288419 0.446456
O O6 0.596204 0.429876 0.530688
O O7 0.750389 0.438084 0.377587
O O8 0.730277 0.380278 0.619041
O O9 0.572777 0.242530 0.676548
O O10 0.918851 0.264835 0.655538
O O11 0.361975 0.143408 0.321658
O O12 0.528561 0.505300 0.827339
O O13 0.170693 0.627246 0.747389
O O14 0.140401 0.472193 0.762846
#
# Coordination Sequence:
#
# PCOD9298167 Si02
#       8
#     8   8   8   8   8   8   4   4
#     4  11  25  45  73 107 147 184 239 302 362 424
#     4  11  23  44  73 105 144 180 230 303 359 429
#     4  11  25  42  72 102 141 186 234 294 357 426
#     4  11  26  46  72 103 146 191 239 295 368 433
#     4  12  24  42  69 111 135 181 235 295 356 429
#     4  10  24  43  71  96 140 188 240 282 365 422
#     4   9  22  46  61  90 138 188 227 286 340 429
#     4  11  26  44  73 102 138 190 239 298 348 429
#
# _framework density 25.524160999999999
#
# number of rings (size 3 to 8) (size 9 to 14) (size 15 to 20)
#    0.000    1.143    1.429    3.857    6.000    2.286 
#    0.000    0.714    0.000    0.000    0.000    0.000 
#    0.000    0.000    0.000    0.000    0.000    0.000 
#
# Total GULP energy -156380.538475 kJ/mol
# GULP energy per Si atom -5585.019231 kJ/mol
# Density = 2.546607 g / cm^3
# Si number density = 25.524161 Si / 1000 Ang^3
#
#
#
# Elastic Constant Matrix: (Units=GPa)
#
#
# Indices 1 2 3 4 5 6 
#
# 1 64.5120 39.0881 8.6408 0.0000 -15.0826 0.0000
# 2 39.0881 175.6233 47.6236 0.0000 -17.7924 0.0000
# 3 8.6408 47.6236 87.1173 0.0000 -13.3690 0.0000
# 4 0.0000 0.0000 0.0000 32.7946 0.0000 -21.6247
# 5 -15.0826 -17.7924 -13.3690 0.0000 40.9724 0.0000
# 6 0.0000 0.0000 0.0000 -21.6247 0.0000 27.3012
#
#
#
# Elastic Compliance Matrix: (Units=1/GPa)
#
#
# Indices 1 2 3 4 5 6 
#
# 1 0.019088 -0.003988 0.001157 0.000000 0.005673 0.000000
# 2 -0.003988 0.007647 -0.003685 0.000000 0.000650 0.000000
# 3 0.001157 -0.003685 0.013894 0.000000 0.003359 0.000000
# 4 0.000000 0.000000 0.000000 0.063832 0.000000 0.050560
# 5 0.005673 0.000650 0.003359 0.000000 0.027873 0.000000
# 6 0.000000 0.000000 0.000000 0.050560 0.000000 0.076676
#
#
# Mechanical properties :
#
#
# Convention : Reuss Voigt Hill
#
# Bulk Modulus (GPa) = 36.23417 57.55087 46.89252
# Shear Modulus (GPa) = 21.62254 35.67365 28.64809
#
# Velocity S-wave (km/s) = 2.91372 3.74256 3.35385
# Velocity P-wave (km/s) = 5.05436 6.42435 5.78009
#
# Compressibility (1/GPa) = 0.02759826
#
# Stress axis : x y z
#
# Youngs Moduli (GPa) = 52.38810 130.77737 71.97433
#
# Poissons Ratio (x) = 0.52147 -0.08328
# Poissons Ratio (y) = 0.20890 0.26521
# Poissons Ratio (z) = -0.06062 0.48189
#
# Static dielectric constant tensor:
#      x y z
#    x 2.127580 0.000000 0.030280 
#    y 0.000000 2.106620 0.000000 
#    z 0.030280 0.000000 2.142930 
# 
# From -- ./inp_files/264622.got.cif
#   From: 2010.05.17/outbox.cif.g08.bks.cpg/sg15_133_cif.got.tgz:264622.got - 2010.06.03 18:47:42.
