data_PCOD9298705
_publ_section_title
;
Structure prediction by ZEFSAII (Michael W. Deem and Ramdas Pophale) SiO2 
 PCOD9298705
Probable space group: C 2/C
;
_chemical_formula_sum "Si O2"
_cell_formula_units_Z 36
_cell_length_a 12.773512
_cell_length_b 4.841700
_cell_length_c 23.380046
_cell_angle_alpha 90.000000
_cell_angle_beta 89.226476
_cell_angle_gamma 90.000000
_cell_volume 1445.819169
_symmetry_space_group_name_H-M "C 2/C"
_symmetry_group_IT_number 15
_symmetry_cell_setting 'monoclinic'
loop_
_space_group_symop_operation_xyz
x,y,z
-x,y,1/2-z
-x,-y,-z
x,-y,1/2+z
1/2+x,1/2+y,z
1/2-x,1/2+y,1/2-z
1/2-x,1/2-y,-z
1/2+x,1/2-y,1/2+z
loop_
_atom_site_type_symbol
_atom_site_label
_atom_site_fract_x
_atom_site_fract_y
_atom_site_fract_z
Si Si1 0.794626 0.109010 0.556754
Si Si2 0.500000 0.020154 0.250000
Si Si3 0.618639 0.220528 0.640383
Si Si4 0.060362 0.397045 0.443697
Si Si5 0.283032 0.803724 0.717418
O O1 0.750000 0.250000 0.500000
O O2 0.699244 0.043583 0.600525
O O3 0.878630 0.333299 0.580467
O O4 0.854906 0.832022 0.541495
O O5 0.592471 0.177704 0.282435
O O6 0.441547 0.859295 0.300914
O O7 0.522390 0.253290 0.597681
O O8 0.709129 0.417568 0.666895
O O9 0.000000 0.500000 0.500000
O O10 0.256316 0.484869 0.728489
#
# Coordination Sequence:
#
# PCOD9298705 Si02
#       5
#     8   4   8   8   8
#     4  12  27  47  74 109 148 193 247 306 366 440
#     4  10  24  48  72 108 146 198 240 302 374 442
#     4  11  26  45  76 105 151 191 249 304 370 441
#     4  12  27  48  76 110 147 196 247 304 376 444
#     4  10  24  45  70 103 143 191 243 300 362 438
#
# _framework density 24.899377000000001
#
# number of rings (size 3 to 8) (size 9 to 14) (size 15 to 20)
#    0.000    0.889    2.222    2.667    0.000   19.556 
#    0.000    0.000    0.000    0.000    0.000    0.000 
#    0.000    0.000    0.000    0.000    0.000    0.000 
#
# Total GULP energy -100324.702596 kJ/mol
# GULP energy per Si atom -5573.594589 kJ/mol
# Density = 2.484270 g / cm^3
# Si number density = 24.899377 Si / 1000 Ang^3
#
#
#
# Elastic Constant Matrix: (Units=GPa)
#
#
# Indices 1 2 3 4 5 6 
#
# 1 186.0707 41.4079 58.6202 0.0000 -0.5820 0.0000
# 2 41.4079 102.3372 21.1515 0.0000 -8.7211 0.0000
# 3 58.6202 21.1515 151.8156 0.0000 -5.3876 0.0000
# 4 0.0000 0.0000 0.0000 12.8005 0.0000 -0.5900
# 5 -0.5820 -8.7211 -5.3876 0.0000 71.9579 0.0000
# 6 0.0000 0.0000 0.0000 -0.5900 0.0000 41.5507
#
#
#
# Elastic Compliance Matrix: (Units=1/GPa)
#
#
# Indices 1 2 3 4 5 6 
#
# 1 0.006576 -0.002230 -0.002242 0.000000 -0.000385 0.000000
# 2 -0.002230 0.010908 -0.000614 0.000000 0.001258 0.000000
# 3 -0.002242 -0.000614 0.007555 0.000000 0.000473 0.000000
# 4 0.000000 0.000000 0.000000 0.078173 0.000000 0.001110
# 5 -0.000385 0.001258 0.000473 0.000000 0.014082 0.000000
# 6 0.000000 0.000000 0.000000 0.001110 0.000000 0.024083
#
#
# Mechanical properties :
#
#
# Convention : Reuss Voigt Hill
#
# Bulk Modulus (GPa) = 67.26524 75.84255 71.55390
# Shear Modulus (GPa) = 31.94806 46.53142 39.23974
#
# Velocity S-wave (km/s) = 3.58591 4.32763 3.97411
# Velocity P-wave (km/s) = 6.64969 7.44962 7.06100
#
# Compressibility (1/GPa) = 0.01486652
#
# Stress axis : x y z
#
# Youngs Moduli (GPa) = 152.07481 91.67518 132.36303
#
# Poissons Ratio (x) = 0.20444 0.29676
# Poissons Ratio (y) = 0.33914 0.08127
# Poissons Ratio (z) = 0.34095 0.05629
#
# Static dielectric constant tensor:
#      x y z
#    x 2.029030 0.000000 0.081660 
#    y 0.000000 1.991350 0.000000 
#    z 0.081660 0.000000 2.085780 
# 
# From -- ./inp_files/267063.got.cif
#   From: 2010.05.17/outbox.cif.g08.bks.cpg/sg15_134_cif.got.tgz:267063.got - 2010.06.03 18:47:42.
