data_PCOD9298553
_publ_section_title
;
Structure prediction by ZEFSAII (Michael W. Deem and Ramdas Pophale) SiO2 
 PCOD9298553
Probable space group: C 2/C
;
_chemical_formula_sum "Si O2"
_cell_formula_units_Z 32
_cell_length_a 22.985812
_cell_length_b 4.806232
_cell_length_c 11.586180
_cell_angle_alpha 90.000000
_cell_angle_beta 73.910826
_cell_angle_gamma 90.000000
_cell_volume 1229.849874
_symmetry_space_group_name_H-M "C 2/C"
_symmetry_group_IT_number 15
_symmetry_cell_setting 'monoclinic'
loop_
_space_group_symop_operation_xyz
x,y,z
-x,y,1/2-z
-x,-y,-z
x,-y,1/2+z
1/2+x,1/2+y,z
1/2-x,1/2+y,1/2-z
1/2-x,1/2-y,-z
1/2+x,1/2-y,1/2+z
loop_
_atom_site_type_symbol
_atom_site_label
_atom_site_fract_x
_atom_site_fract_y
_atom_site_fract_z
Si Si1 0.244526 0.110923 0.684357
Si Si2 0.121054 0.115372 0.149017
Si Si3 0.500000 0.000000 0.000000
Si Si4 0.500000 0.688562 0.750000
Si Si5 0.128505 0.382629 0.500467
O O1 0.242382 0.438594 0.706455
O O2 0.303312 0.054297 0.575548
O O3 0.180775 0.992127 0.678230
O O4 0.121132 0.439248 0.121878
O O5 0.057968 0.012822 0.235862
O O6 0.122883 0.946337 0.026321
O O7 0.493997 0.858420 0.872557
O O8 0.574533 0.025249 0.946519
#
# Coordination Sequence:
#
# PCOD9298553 Si02
#       5
#     8   8   4   4   8
#     4  12  24  40  66  98 137 183 235 292 356 425
#     4  11  24  43  68  98 138 186 236 293 353 421
#     4  10  24  46  72 106 142 188 236 292 352 420
#     4  10  24  44  74 106 144 188 238 292 354 422
#     4  11  24  43  67  97 138 184 237 293 353 420
#
# _framework density 26.019435000000001
#
# number of rings (size 3 to 8) (size 9 to 14) (size 15 to 20)
#    0.000    1.000    0.000    6.000    0.000   12.000 
#    0.000    0.000    0.000    0.000    0.000    0.000 
#    0.000    0.000    0.000    0.000    0.000    0.000 
#
# Total GULP energy -89067.851747 kJ/mol
# GULP energy per Si atom -5566.740734 kJ/mol
# Density = 2.596021 g / cm^3
# Si number density = 26.019435 Si / 1000 Ang^3
#
#
#
# Elastic Constant Matrix: (Units=GPa)
#
#
# Indices 1 2 3 4 5 6 
#
# 1 213.8538 22.3179 26.2285 0.0000 -6.5106 0.0000
# 2 22.3179 89.2842 26.5116 0.0000 0.5754 0.0000
# 3 26.2285 26.5116 82.9735 0.0000 -16.3399 0.0000
# 4 0.0000 0.0000 0.0000 27.0771 0.0000 0.9351
# 5 -6.5106 0.5754 -16.3399 0.0000 53.9622 0.0000
# 6 0.0000 0.0000 0.0000 0.9351 0.0000 29.9882
#
#
#
# Elastic Compliance Matrix: (Units=1/GPa)
#
#
# Indices 1 2 3 4 5 6 
#
# 1 0.004925 -0.000866 -0.001235 0.000000 0.000229 0.000000
# 2 -0.000866 0.012629 -0.004050 0.000000 -0.001465 0.000000
# 3 -0.001235 -0.004050 0.014585 0.000000 0.004311 0.000000
# 4 0.000000 0.000000 0.000000 0.036971 0.000000 -0.001153
# 5 0.000229 -0.001465 0.004311 0.000000 0.019880 0.000000
# 6 0.000000 0.000000 0.000000 -0.001153 0.000000 0.033382
#
#
# Mechanical properties :
#
#
# Convention : Reuss Voigt Hill
#
# Bulk Modulus (GPa) = 50.40992 59.58081 54.99537
# Shear Modulus (GPa) = 35.38901 42.94240 39.16571
#
# Velocity S-wave (km/s) = 3.69195 4.06692 3.88396
# Velocity P-wave (km/s) = 6.13107 6.70831 6.42617
#
# Compressibility (1/GPa) = 0.01983737
#
# Stress axis : x y z
#
# Youngs Moduli (GPa) = 203.04984 79.18506 68.56189
#
# Poissons Ratio (x) = 0.06856 0.08467
# Poissons Ratio (y) = 0.17581 0.27767
# Poissons Ratio (z) = 0.25076 0.32070
#
# Static dielectric constant tensor:
#      x y z
#    x 2.064950 0.000000 -0.045650 
#    y 0.000000 1.978600 0.000000 
#    z -0.045650 0.000000 2.002830 
# 
# From -- ./inp_files/109066.got.cif
#   From: 2010.05.17/outbox.cif.g08.bks.cpg/sg15_55_cif.got.tgz:109066.got - 2010.06.03 18:47:42.
