data_PCOD9298531
_publ_section_title
;
Structure prediction by ZEFSAII (Michael W. Deem and Ramdas Pophale) SiO2 
 PCOD9298531
Probable space group: C 2/C
;
_chemical_formula_sum "Si O2"
_cell_formula_units_Z 44
_cell_length_a 12.489401
_cell_length_b 17.998167
_cell_length_c 9.020571
_cell_angle_alpha 90.000000
_cell_angle_beta 104.858808
_cell_angle_gamma 90.000000
_cell_volume 1959.896085
_symmetry_space_group_name_H-M "C 2/C"
_symmetry_group_IT_number 15
_symmetry_cell_setting 'monoclinic'
loop_
_space_group_symop_operation_xyz
x,y,z
-x,y,1/2-z
-x,-y,-z
x,-y,1/2+z
1/2+x,1/2+y,z
1/2-x,1/2+y,1/2-z
1/2-x,1/2-y,-z
1/2+x,1/2-y,1/2+z
loop_
_atom_site_type_symbol
_atom_site_label
_atom_site_fract_x
_atom_site_fract_y
_atom_site_fract_z
Si Si1 0.572532 0.870399 0.898679
Si Si2 0.774994 0.111332 0.260578
Si Si3 0.891342 0.736244 0.809917
Si Si4 0.080430 0.031713 0.652624
Si Si5 0.711327 0.115261 0.903303
Si Si6 0.500000 0.988172 0.250000
O O1 0.500000 0.827219 0.750000
O O2 0.688191 0.894316 0.864516
O O3 0.507766 0.949369 0.884987
O O4 0.588020 0.818731 0.044644
O O5 0.849348 0.181930 0.329343
O O6 0.849532 0.038732 0.264315
O O7 0.713469 0.121728 0.081441
O O8 0.803025 0.695023 0.675593
O O9 0.000000 0.741891 0.750000
O O10 0.000000 0.064445 0.750000
O O11 0.172521 0.083933 0.613759
O O12 0.000000 0.000000 0.500000
O O13 0.608407 0.063790 0.807166
#
# Coordination Sequence:
#
# PCOD9298531 Si02
#       6
#     8   8   8   8   8   4
#     4  10  24  44  73 104 143 183 243 308 369 435
#     4  12  26  49  70 105 152 192 247 301 368 447
#     4  12  27  46  72 107 148 198 240 305 378 444
#     4  12  26  47  72 107 149 198 247 303 366 447
#     4  12  26  45  78 107 147 194 249 308 372 436
#     4  10  24  44  78 110 146 176 258 314 374 418
#
# _framework density 22.450168999999999
#
# number of rings (size 3 to 8) (size 9 to 14) (size 15 to 20)
#    0.545    0.000    4.545    2.727    5.091    1.455 
#    0.000    0.000    0.000    0.000    0.000    0.000 
#    0.000    0.000    0.000    0.000    0.000    0.000 
#
# Total GULP energy -122947.386569 kJ/mol
# GULP energy per Si atom -5588.517571 kJ/mol
# Density = 2.239907 g / cm^3
# Si number density = 22.450169 Si / 1000 Ang^3
#
#
#
# Elastic Constant Matrix: (Units=GPa)
#
#
# Indices 1 2 3 4 5 6 
#
# 1 125.8980 5.9331 16.3655 0.0000 -7.8878 0.0000
# 2 5.9331 51.6279 -3.5372 0.0000 -9.1316 0.0000
# 3 16.3655 -3.5372 86.7864 0.0000 -4.6771 0.0000
# 4 0.0000 0.0000 0.0000 31.8690 0.0000 -9.3509
# 5 -7.8878 -9.1316 -4.6771 0.0000 27.1540 0.0000
# 6 0.0000 0.0000 0.0000 -9.3509 0.0000 45.3536
#
#
#
# Elastic Compliance Matrix: (Units=1/GPa)
#
#
# Indices 1 2 3 4 5 6 
#
# 1 0.008290 -0.000717 -0.001490 0.000000 0.001911 0.000000
# 2 -0.000717 0.020786 0.001360 0.000000 0.007016 0.000000
# 3 -0.001490 0.001360 0.011971 0.000000 0.002087 0.000000
# 4 0.000000 0.000000 0.000000 0.033399 0.000000 0.006886
# 5 0.001911 0.007016 0.002087 0.000000 0.040101 0.000000
# 6 0.000000 0.000000 0.000000 0.006886 0.000000 0.023469
#
#
# Mechanical properties :
#
#
# Convention : Reuss Voigt Hill
#
# Bulk Modulus (GPa) = 25.40939 33.53725 29.47332
# Shear Modulus (GPa) = 32.71690 37.24538 34.98114
#
# Velocity S-wave (km/s) = 3.82162 4.07753 3.95165
# Velocity P-wave (km/s) = 5.55119 6.09420 5.82902
#
# Compressibility (1/GPa) = 0.03935552
#
# Stress axis : x y z
#
# Youngs Moduli (GPa) = 120.62665 48.10948 83.53281
#
# Poissons Ratio (x) = 0.03449 0.12442
# Poissons Ratio (y) = 0.08647 -0.11364
# Poissons Ratio (z) = 0.17968 -0.06545
#
# Static dielectric constant tensor:
#      x y z
#    x 1.874600 0.000000 -0.007800 
#    y 0.000000 1.829470 0.000000 
#    z -0.007800 0.000000 1.886170 
# 
# From -- ./inp_files/31053.got.cif
#   From: 2010.05.17/outbox.cif.g08.bks.cpg/sg15_16_cif.got.tgz:31053.got - 2010.06.03 18:47:42.
