data_PCOD9298072
_publ_section_title
;
Structure prediction by ZEFSAII (Michael W. Deem and Ramdas Pophale) SiO2 
 PCOD9298072
Probable space group: C 2/C
;
_chemical_formula_sum "Si O2"
_cell_formula_units_Z 56
_cell_length_a 8.658619
_cell_length_b 24.862975
_cell_length_c 18.296413
_cell_angle_alpha 90.000000
_cell_angle_beta 46.119805
_cell_angle_gamma 90.000000
_cell_volume 2839.075120
_symmetry_space_group_name_H-M "C 2/C"
_symmetry_group_IT_number 15
_symmetry_cell_setting 'monoclinic'
loop_
_space_group_symop_operation_xyz
x,y,z
-x,y,1/2-z
-x,-y,-z
x,-y,1/2+z
1/2+x,1/2+y,z
1/2-x,1/2+y,1/2-z
1/2-x,1/2-y,-z
1/2+x,1/2-y,1/2+z
loop_
_atom_site_type_symbol
_atom_site_label
_atom_site_fract_x
_atom_site_fract_y
_atom_site_fract_z
Si Si1 0.995200 0.525403 0.582365
Si Si2 0.837327 0.429044 0.735695
Si Si3 0.529176 0.556036 0.032549
Si Si4 0.873523 0.850889 0.471303
Si Si5 0.536414 0.187804 0.324236
Si Si6 0.247424 0.868272 0.150730
Si Si7 0.792685 0.295105 0.267471
O O1 0.220449 0.553689 0.529365
O O2 0.000000 0.500000 0.500000
O O3 0.923087 0.476632 0.657426
O O4 0.827280 0.573299 0.646430
O O5 0.607881 0.440079 0.847853
O O6 0.000000 0.427313 0.750000
O O7 0.859756 0.370387 0.692029
O O8 0.500000 0.500000 0.000000
O O9 0.436617 0.602052 0.008152
O O10 0.703957 0.810709 0.564382
O O11 0.744005 0.866429 0.439915
O O12 0.099074 0.827580 0.369815
O O13 0.500000 0.191189 0.250000
O O14 0.694254 0.235721 0.292837
O O15 0.346590 0.822181 0.170673
O O16 0.000000 0.862483 0.250000
O O17 0.000000 0.296441 0.250000
#
# Coordination Sequence:
#
# PCOD9298072 Si02
#       7
#     8   8   8   8   8   8   8
#     4  12  26  41  65 101 140 173 220 274 329 397
#     4  11  23  42  67  95 132 178 221 269 331 397
#     4  12  23  40  68  97 132 177 220 267 331 400
#     4  11  22  44  71  96 128 177 225 270 334 397
#     4  11  21  45  67  93 129 176 225 272 335 398
#     4  10  24  43  67  96 133 171 221 279 331 392
#     4  11  25  44  67  98 131 171 221 280 337 399
#
# _framework density 19.724734000000002
#
# number of rings (size 3 to 8) (size 9 to 14) (size 15 to 20)
#    0.000    0.857    4.286    4.286    6.000    0.571 
#    5.143    1.429    0.000    0.000    0.000    0.000 
#    0.000    0.000    0.000    0.000    0.000    0.000 
#
# Total GULP energy -156227.142078 kJ/mol
# GULP energy per Si atom -5579.540788 kJ/mol
# Density = 1.967984 g / cm^3
# Si number density = 19.724734 Si / 1000 Ang^3
#
#
#
# Elastic Constant Matrix: (Units=GPa)
#
#
# Indices 1 2 3 4 5 6 
#
# 1 111.2544 54.5096 22.9987 0.0000 9.4315 0.0000
# 2 54.5096 125.0993 33.6488 0.0000 8.5590 0.0000
# 3 22.9987 33.6488 84.9638 0.0000 16.5445 0.0000
# 4 0.0000 0.0000 0.0000 -22.9022 0.0000 -21.0732
# 5 9.4315 8.5590 16.5445 0.0000 14.5876 0.0000
# 6 0.0000 0.0000 0.0000 -21.0732 0.0000 26.4923
#
#
#
# Elastic Compliance Matrix: (Units=1/GPa)
#
#
# Indices 1 2 3 4 5 6 
#
# 1 0.011754 -0.004697 -0.000485 0.000000 -0.004293 0.000000
# 2 -0.004697 0.010852 -0.003052 0.000000 0.000131 0.000000
# 3 -0.000485 -0.003052 0.016300 0.000000 -0.016382 0.000000
# 4 0.000000 0.000000 0.000000 -0.025211 0.000000 -0.020054
# 5 -0.004293 0.000131 -0.016382 0.000000 0.089830 0.000000
# 6 0.000000 0.000000 0.000000 -0.020054 0.000000 0.021795
#
#
# Mechanical properties :
#
#
# Convention : Reuss Voigt Hill
#
# Bulk Modulus (GPa) = 44.56956 60.40351 52.48653
# Shear Modulus (GPa) = 33.49681 17.64623 25.57152
#
# Velocity S-wave (km/s) = 4.12541 2.99427 3.60449
# Velocity P-wave (km/s) = 6.73326 6.53023 6.63252
#
# Compressibility (1/GPa) = 0.02243684
#
# Stress axis : x y z
#
# Youngs Moduli (GPa) = 85.07598 92.14574 61.35069
#
# Poissons Ratio (x) = 0.43284 0.02978
# Poissons Ratio (y) = 0.39963 0.18724
# Poissons Ratio (z) = 0.04130 0.28122
#
# Static dielectric constant tensor:
#      x y z
#    x 1.685980 0.000000 0.108120 
#    y 0.000000 1.639450 0.000000 
#    z 0.108120 0.000000 1.634350 
# 
# From -- ./inp_files/193214.got.cif
#   From: 2010.05.17/outbox.cif.g08.bks.cpg/sg15_97_cif.got.tgz:193214.got - 2010.06.03 18:47:42.
