data_PCOD9298366
_publ_section_title
;
Structure prediction by ZEFSAII (Michael W. Deem and Ramdas Pophale) SiO2 
 PCOD9298366
Probable space group: C 2/C
;
_chemical_formula_sum "Si O2"
_cell_formula_units_Z 56
_cell_length_a 13.745428
_cell_length_b 15.609255
_cell_length_c 17.803645
_cell_angle_alpha 90.000000
_cell_angle_beta 43.871623
_cell_angle_gamma 90.000000
_cell_volume 2647.346114
_symmetry_space_group_name_H-M "C 2/C"
_symmetry_group_IT_number 15
_symmetry_cell_setting 'monoclinic'
loop_
_space_group_symop_operation_xyz
x,y,z
-x,y,1/2-z
-x,-y,-z
x,-y,1/2+z
1/2+x,1/2+y,z
1/2-x,1/2+y,1/2-z
1/2-x,1/2-y,-z
1/2+x,1/2-y,1/2+z
loop_
_atom_site_type_symbol
_atom_site_label
_atom_site_fract_x
_atom_site_fract_y
_atom_site_fract_z
Si Si1 0.274106 0.919385 0.362924
Si Si2 0.606407 0.713308 0.878044
Si Si3 0.485300 0.973393 0.378537
Si Si4 0.156458 0.121082 0.638103
Si Si5 0.375129 0.426021 0.505864
Si Si6 0.146437 0.304327 0.695527
Si Si7 0.042267 0.619076 0.993702
O O1 0.228071 0.823236 0.365070
O O2 0.374889 0.938562 0.378273
O O3 0.364304 0.954894 0.243012
O O4 0.137842 0.977819 0.457221
O O5 0.648392 0.757999 0.775803
O O6 0.504559 0.783202 0.972273
O O7 0.516095 0.627748 0.913834
O O8 0.462270 0.920496 0.467959
O O9 0.488618 0.069436 0.411127
O O10 0.188864 0.076226 0.542043
O O11 0.155991 0.224388 0.631781
O O12 0.292004 0.105124 0.613743
O O13 0.000000 0.095781 0.750000
O O14 0.272577 0.369426 0.614862
O O15 0.000000 0.346806 0.750000
#
# Coordination Sequence:
#
# PCOD9298366 Si02
#       7
#     8   8   8   8   8   8   8
#     4  11  25  42  61  94 134 174 215 267 338 394
#     4  12  24  39  64  97 132 172 212 275 331 401
#     4  10  24  44  68  91 126 175 225 278 318 398
#     4  11  20  35  62  98 130 160 208 274 339 387
#     4  12  22  37  61  92 130 169 205 267 335 393
#     4  11  21  34  61  94 129 161 217 269 329 395
#     4  11  22  43  69  96 124 173 230 270 328 387
#
# _framework density 21.153261000000001
#
# number of rings (size 3 to 8) (size 9 to 14) (size 15 to 20)
#    0.000    0.857    5.714    3.429    2.000    0.571 
#    0.000    0.000    0.000    0.000    0.000    0.000 
#    0.000    0.000    0.000    0.000    0.000    0.000 
#
# Total GULP energy -156109.931792 kJ/mol
# GULP energy per Si atom -5575.354707 kJ/mol
# Density = 2.110512 g / cm^3
# Si number density = 21.153261 Si / 1000 Ang^3
#
#
#
# Elastic Constant Matrix: (Units=GPa)
#
#
# Indices 1 2 3 4 5 6 
#
# 1 90.7736 36.1934 34.1399 0.0000 19.4372 0.0000
# 2 36.1934 74.1426 26.1185 0.0000 15.9791 0.0000
# 3 34.1399 26.1185 75.9353 0.0000 11.5963 0.0000
# 4 0.0000 0.0000 0.0000 16.7994 0.0000 -2.8263
# 5 19.4372 15.9791 11.5963 0.0000 30.6493 0.0000
# 6 0.0000 0.0000 0.0000 -2.8263 0.0000 14.1397
#
#
#
# Elastic Compliance Matrix: (Units=1/GPa)
#
#
# Indices 1 2 3 4 5 6 
#
# 1 0.015948 -0.004914 -0.004592 0.000000 -0.005814 0.000000
# 2 -0.004914 0.018131 -0.003247 0.000000 -0.005108 0.000000
# 3 -0.004592 -0.003247 0.016607 0.000000 -0.001678 0.000000
# 4 0.000000 0.000000 0.000000 0.061597 0.000000 0.012312
# 5 -0.005814 -0.005108 -0.001678 0.000000 0.039613 0.000000
# 6 0.000000 0.000000 0.000000 0.012312 0.000000 0.073184
#
#
# Mechanical properties :
#
#
# Convention : Reuss Voigt Hill
#
# Bulk Modulus (GPa) = 39.71478 48.19502 43.95490
# Shear Modulus (GPa) = 19.30662 21.94432 20.62547
#
# Velocity S-wave (km/s) = 3.02437 3.22436 3.12597
# Velocity P-wave (km/s) = 5.56878 6.05765 5.81835
#
# Compressibility (1/GPa) = 0.02517954
#
# Stress axis : x y z
#
# Youngs Moduli (GPa) = 62.70418 55.15381 60.21689
#
# Poissons Ratio (x) = 0.27105 0.27650
# Poissons Ratio (y) = 0.30816 0.19552
# Poissons Ratio (z) = 0.28792 0.17908
#
# Static dielectric constant tensor:
#      x y z
#    x 1.859000 0.000000 -0.048630 
#    y 0.000000 1.771340 0.000000 
#    z -0.048630 0.000000 1.805350 
# 
# From -- ./inp_files/206237.got.cif
#   From: 2010.05.17/outbox.cif.g08.bks.cpg/sg15_104_cif.got.tgz:206237.got - 2010.06.03 18:47:42.
