data_PCOD9298171
_publ_section_title
;
Structure prediction by ZEFSAII (Michael W. Deem and Ramdas Pophale) SiO2 
 PCOD9298171
Probable space group: C 2/C
;
_chemical_formula_sum "Si O2"
_cell_formula_units_Z 52
_cell_length_a 25.265706
_cell_length_b 8.592380
_cell_length_c 12.693534
_cell_angle_alpha 90.000000
_cell_angle_beta 128.073233
_cell_angle_gamma 90.000000
_cell_volume 2169.328630
_symmetry_space_group_name_H-M "C 2/C"
_symmetry_group_IT_number 15
_symmetry_cell_setting 'monoclinic'
loop_
_space_group_symop_operation_xyz
x,y,z
-x,y,1/2-z
-x,-y,-z
x,-y,1/2+z
1/2+x,1/2+y,z
1/2-x,1/2+y,1/2-z
1/2-x,1/2-y,-z
1/2+x,1/2-y,1/2+z
loop_
_atom_site_type_symbol
_atom_site_label
_atom_site_fract_x
_atom_site_fract_y
_atom_site_fract_z
Si Si1 0.575372 0.104376 0.987119
Si Si2 0.796350 0.568294 0.236875
Si Si3 0.500000 0.432658 0.250000
Si Si4 0.760401 0.889267 0.150002
Si Si5 0.377282 0.418567 0.713970
Si Si6 0.155105 0.396197 0.397579
Si Si7 0.462675 0.755361 0.492354
O O1 0.649753 0.150200 0.119833
O O2 0.562029 0.925322 0.001683
O O3 0.584164 0.105782 0.871895
O O4 0.522719 0.211731 0.982769
O O5 0.751120 0.447051 0.244737
O O6 0.843253 0.480043 0.212123
O O7 0.793872 0.506940 0.977659
O O8 0.564700 0.532713 0.295514
O O9 0.515963 0.333224 0.374982
O O10 0.832301 0.936530 0.192723
O O11 0.751754 0.704938 0.133012
O O12 0.330489 0.284919 0.605081
O O13 0.409281 0.342855 0.858715
#
# Coordination Sequence:
#
# PCOD9298171 Si02
#       7
#     8   8   4   8   8   8   8
#     4  10  24  43  71  99 139 187 234 297 346 425
#     4  11  23  46  67 105 137 185 236 294 355 420
#     4  12  28  42  76 108 144 186 244 288 358 422
#     4  11  26  41  72 100 144 183 234 297 353 426
#     4  12  25  46  68 104 148 186 232 297 349 422
#     4  11  24  44  71 100 140 189 242 276 365 421
#     4  11  25  45  69 104 142 185 236 291 354 417
#
# _framework density 23.970548999999998
#
# number of rings (size 3 to 8) (size 9 to 14) (size 15 to 20)
#    0.000    0.923    1.538    4.154    6.462    4.923 
#    0.000    0.000    0.000    0.000    0.000    0.000 
#    0.000    0.000    0.000    0.000    0.000    0.000 
#
# Total GULP energy -145434.054618 kJ/mol
# GULP energy per Si atom -5593.617485 kJ/mol
# Density = 2.391599 g / cm^3
# Si number density = 23.970549 Si / 1000 Ang^3
#
#
#
# Elastic Constant Matrix: (Units=GPa)
#
#
# Indices 1 2 3 4 5 6 
#
# 1 126.6557 35.9873 44.5071 0.0000 -31.6872 0.0000
# 2 35.9873 99.1054 37.6206 0.0000 -20.0520 0.0000
# 3 44.5071 37.6206 47.9130 0.0000 -16.9528 0.0000
# 4 0.0000 0.0000 0.0000 36.6948 0.0000 -3.9004
# 5 -31.6872 -20.0520 -16.9528 0.0000 36.8922 0.0000
# 6 0.0000 0.0000 0.0000 -3.9004 0.0000 40.9719
#
#
#
# Elastic Compliance Matrix: (Units=1/GPa)
#
#
# Indices 1 2 3 4 5 6 
#
# 1 0.012987 0.000465 -0.010022 0.000000 0.006802 0.000000
# 2 0.000465 0.014702 -0.010756 0.000000 0.003448 0.000000
# 3 -0.010022 -0.010756 0.040018 0.000000 0.003935 0.000000
# 4 0.000000 0.000000 0.000000 0.027530 0.000000 0.002621
# 5 0.006802 0.003448 0.003935 0.000000 0.036630 0.000000
# 6 0.000000 0.000000 0.000000 0.002621 0.000000 0.024656
#
#
# Mechanical properties :
#
#
# Convention : Reuss Voigt Hill
#
# Bulk Modulus (GPa) = 36.92560 56.65601 46.79080
# Shear Modulus (GPa) = 24.25104 33.28239 28.76672
#
# Velocity S-wave (km/s) = 3.18418 3.73026 3.46798
# Velocity P-wave (km/s) = 5.38114 6.49924 5.96644
#
# Compressibility (1/GPa) = 0.02708149
#
# Stress axis : x y z
#
# Youngs Moduli (GPa) = 77.00137 68.01843 24.98866
#
# Poissons Ratio (x) = -0.03161 0.25043
# Poissons Ratio (y) = -0.03579 0.26877
# Poissons Ratio (z) = 0.77170 0.73158
#
# Static dielectric constant tensor:
#      x y z
#    x 1.898500 0.000000 -0.025000 
#    y 0.000000 1.870050 0.000000 
#    z -0.025000 0.000000 2.026550 
# 
# From -- ./inp_files/122057.got.cif
#   From: 2010.05.17/outbox.cif.g08.bks.cpg/sg15_62_cif.got.tgz:122057.got - 2010.06.03 18:47:42.
