data_PCOD9298580
_publ_section_title
;
Structure prediction by ZEFSAII (Michael W. Deem and Ramdas Pophale) SiO2 
 PCOD9298580
Probable space group: C 2/C
;
_chemical_formula_sum "Si O2"
_cell_formula_units_Z 44
_cell_length_a 8.454077
_cell_length_b 33.161476
_cell_length_c 9.870729
_cell_angle_alpha 90.000000
_cell_angle_beta 44.889852
_cell_angle_gamma 90.000000
_cell_volume 1952.979874
_symmetry_space_group_name_H-M "C 2/C"
_symmetry_group_IT_number 15
_symmetry_cell_setting 'monoclinic'
loop_
_space_group_symop_operation_xyz
x,y,z
-x,y,1/2-z
-x,-y,-z
x,-y,1/2+z
1/2+x,1/2+y,z
1/2-x,1/2+y,1/2-z
1/2-x,1/2-y,-z
1/2+x,1/2-y,1/2+z
loop_
_atom_site_type_symbol
_atom_site_label
_atom_site_fract_x
_atom_site_fract_y
_atom_site_fract_z
Si Si1 0.966987 0.460607 0.929469
Si Si2 0.157105 0.866808 0.391702
Si Si3 0.431269 0.198014 0.136521
Si Si4 0.147901 0.383345 0.953256
Si Si5 0.000000 0.916804 0.250000
Si Si6 0.787273 0.716945 0.778712
O O1 0.000000 0.468486 0.750000
O O2 0.718719 0.444139 0.110360
O O3 0.000000 0.500000 0.000000
O O4 0.127812 0.424258 0.881651
O O5 0.403517 0.874853 0.172932
O O6 0.178967 0.884893 0.527847
O O7 0.994417 0.888525 0.386245
O O8 0.122730 0.818700 0.425231
O O9 0.500000 0.198270 0.250000
O O10 0.292737 0.237502 0.177475
O O11 0.320984 0.155964 0.158696
O O12 0.651193 0.204188 0.910730
O O13 0.000000 0.713770 0.750000
#
# Coordination Sequence:
#
# PCOD9298580 Si02
#       6
#     8   8   8   8   4   8
#     4  11  26  47  74 104 139 175 222 284 340 413
#     4   9  18  38  66  91 126 179 217 268 332 403
#     4  11  22  37  58  88 130 171 223 274 325 387
#     4   9  19  41  64  89 133 174 215 278 342 389
#     4  10  24  44  76 100 138 176 228 270 346 412
#     4  11  21  38  58  88 125 175 223 271 331 386
#
# _framework density 22.529674
#
# number of rings (size 3 to 8) (size 9 to 14) (size 15 to 20)
#    0.000    1.818    3.636    1.636    6.364    0.727 
#    6.545    0.000    0.000    0.000    0.000    0.000 
#    0.000    0.000    0.000    0.000    0.000    0.000 
#
# Total GULP energy -123079.782046 kJ/mol
# GULP energy per Si atom -5594.535548 kJ/mol
# Density = 2.247840 g / cm^3
# Si number density = 22.529674 Si / 1000 Ang^3
#
#
#
# Elastic Constant Matrix: (Units=GPa)
#
#
# Indices 1 2 3 4 5 6 
#
# 1 107.7327 93.1997 37.4581 0.0000 33.7485 0.0000
# 2 93.1997 222.2449 54.0466 0.0000 35.2826 0.0000
# 3 37.4581 54.0466 103.9162 0.0000 34.1421 0.0000
# 4 0.0000 0.0000 0.0000 34.5320 0.0000 4.2876
# 5 33.7485 35.2826 34.1421 0.0000 38.8708 0.0000
# 6 0.0000 0.0000 0.0000 4.2876 0.0000 40.6695
#
#
#
# Elastic Compliance Matrix: (Units=1/GPa)
#
#
# Indices 1 2 3 4 5 6 
#
# 1 0.017286 -0.005679 -0.000056 0.000000 -0.009804 0.000000
# 2 -0.005679 0.007329 -0.001685 0.000000 -0.000242 0.000000
# 3 -0.000056 -0.001685 0.014058 0.000000 -0.010769 0.000000
# 4 0.000000 0.000000 0.000000 0.029343 0.000000 -0.003094
# 5 -0.009804 -0.000242 -0.010769 0.000000 0.043917 0.000000
# 6 0.000000 0.000000 0.000000 -0.003094 0.000000 0.024915
#
#
# Mechanical properties :
#
#
# Convention : Reuss Voigt Hill
#
# Bulk Modulus (GPa) = 41.95999 89.25584 65.60791
# Shear Modulus (GPa) = 31.32193 39.42707 35.37450
#
# Velocity S-wave (km/s) = 3.73265 4.18785 3.96678
# Velocity P-wave (km/s) = 6.10260 7.94274 7.08268
#
# Compressibility (1/GPa) = 0.02383223
#
# Stress axis : x y z
#
# Youngs Moduli (GPa) = 57.85145 136.43996 71.13203
#
# Poissons Ratio (x) = 0.77481 0.00400
# Poissons Ratio (y) = 0.32852 0.11989
# Poissons Ratio (z) = 0.00326 0.22997
#
# Static dielectric constant tensor:
#      x y z
#    x 1.839970 0.000000 -0.069800 
#    y 0.000000 1.810650 0.000000 
#    z -0.069800 0.000000 1.902740 
# 
# From -- ./inp_files/25954.got.cif
#   From: 2010.05.17/outbox.cif.g08.bks.cpg/sg15_13_cif.got.tgz:25954.got - 2010.06.03 18:47:42.
