data_PCOD9298752
_publ_section_title
;
Structure prediction by ZEFSAII (Michael W. Deem and Ramdas Pophale) SiO2 
 PCOD9298752
Probable space group: C 2/C
;
_chemical_formula_sum "Si O2"
_cell_formula_units_Z 40
_cell_length_a 24.414012
_cell_length_b 7.468706
_cell_length_c 15.744539
_cell_angle_alpha 90.000000
_cell_angle_beta 33.580938
_cell_angle_gamma 90.000000
_cell_volume 1587.923003
_symmetry_space_group_name_H-M "C 2/C"
_symmetry_group_IT_number 15
_symmetry_cell_setting 'monoclinic'
loop_
_space_group_symop_operation_xyz
x,y,z
-x,y,1/2-z
-x,-y,-z
x,-y,1/2+z
1/2+x,1/2+y,z
1/2-x,1/2+y,1/2-z
1/2-x,1/2-y,-z
1/2+x,1/2-y,1/2+z
loop_
_atom_site_type_symbol
_atom_site_label
_atom_site_fract_x
_atom_site_fract_y
_atom_site_fract_z
Si Si1 0.313179 0.090934 0.836623
Si Si2 0.893730 0.421487 0.905817
Si Si3 0.564896 0.454640 0.832729
Si Si4 0.116227 0.813145 0.517531
Si Si5 0.202766 0.765553 0.222971
O O1 0.345620 0.996120 0.881386
O O2 0.374215 0.269661 0.737692
O O3 0.329295 0.938143 0.745783
O O4 0.195782 0.134820 0.986304
O O5 0.911297 0.604894 0.935706
O O6 0.000000 0.337993 0.750000
O O7 0.817468 0.294748 0.053029
O O8 0.484083 0.423528 0.864236
O O9 0.643054 0.615021 0.731624
O O10 0.500000 0.500000 0.000000
O O11 0.176094 0.829352 0.351494
#
# Coordination Sequence:
#
# PCOD9298752 Si02
#       5
#     8   8   8   8   8
#     4  12  25  45  75 105 152 191 247 314 377 434
#     4  12  25  48  74 113 151 196 249 315 384 441
#     4  10  24  45  72 110 148 194 255 300 378 447
#     4  11  24  47  74 104 150 202 243 308 378 452
#     4  11  26  47  74 109 150 197 255 304 370 467
#
# _framework density 25.190137
#
# number of rings (size 3 to 8) (size 9 to 14) (size 15 to 20)
#    0.000    0.800    4.000    2.400    2.800    4.800 
#    3.600    1.000    0.000    0.000    0.000    0.000 
#    0.000    0.000    0.000    0.000    0.000    0.000 
#
# Total GULP energy -112108.638049 kJ/mol
# GULP energy per Si atom -5605.431902 kJ/mol
# Density = 2.513280 g / cm^3
# Si number density = 25.190137 Si / 1000 Ang^3
#
#
#
# Elastic Constant Matrix: (Units=GPa)
#
#
# Indices 1 2 3 4 5 6 
#
# 1 114.1077 35.4657 57.5426 -0.0013 -18.6806 0.0013
# 2 35.4657 134.2290 39.4927 -0.0010 -11.3955 -0.0020
# 3 57.5426 39.4927 147.5790 0.0011 -30.5868 -0.0012
# 4 -0.0013 -0.0010 0.0011 32.4593 -0.0010 1.4544
# 5 -18.6806 -11.3955 -30.5868 -0.0010 46.8275 0.0006
# 6 0.0013 -0.0020 -0.0012 1.4544 0.0006 28.6677
#
#
#
# Elastic Compliance Matrix: (Units=1/GPa)
#
#
# Indices 1 2 3 4 5 6 
#
# 1 0.011435 -0.001810 -0.003609 0.000001 0.001764 -0.000001
# 2 -0.001810 0.008390 -0.001464 0.000000 0.000363 0.000001
# 3 -0.003609 -0.001464 0.009487 0.000000 0.004401 0.000000
# 4 0.000001 0.000000 0.000000 0.030878 0.000001 -0.001567
# 5 0.001764 0.000363 0.004401 0.000001 0.025022 0.000000
# 6 -0.000001 0.000001 0.000000 -0.001567 0.000000 0.034962
#
#
# Mechanical properties :
#
#
# Convention : Reuss Voigt Hill
#
# Bulk Modulus (GPa) = 64.32372 73.43531 68.87952
# Shear Modulus (GPa) = 35.94011 39.15186 37.54599
#
# Velocity S-wave (km/s) = 3.78134 3.94668 3.86489
# Velocity P-wave (km/s) = 6.68247 7.06994 6.87893
#
# Compressibility (1/GPa) = 0.01554636
#
# Stress axis : x y z
#
# Youngs Moduli (GPa) = 87.45316 119.19288 105.40753
#
# Poissons Ratio (x) = 0.21571 0.38037
# Poissons Ratio (y) = 0.15827 0.15434
# Poissons Ratio (z) = 0.31558 0.17452
#
# Static dielectric constant tensor:
#      x y z
#    x 2.006270 0.000000 -0.003350 
#    y 0.000000 1.950980 0.000000 
#    z -0.003350 0.000000 1.970460 
# 
# From -- ./inp_files/221804.got.cif
#   From: 2010.05.17/outbox.cif.g08.bks.cpg/sg15_111_cif.got.tgz:221804.got - 2010.06.03 18:47:42.
