data_PCOD9298196
_publ_section_title
;
Structure prediction by ZEFSAII (Michael W. Deem and Ramdas Pophale) SiO2 
 PCOD9298196
Probable space group: C 2/C
;
_chemical_formula_sum "Si O2"
_cell_formula_units_Z 64
_cell_length_a 28.936853
_cell_length_b 8.841175
_cell_length_c 11.791933
_cell_angle_alpha 90.000000
_cell_angle_beta 102.446954
_cell_angle_gamma 90.000000
_cell_volume 2945.891486
_symmetry_space_group_name_H-M "C 2/C"
_symmetry_group_IT_number 15
_symmetry_cell_setting 'monoclinic'
loop_
_space_group_symop_operation_xyz
x,y,z
-x,y,1/2-z
-x,-y,-z
x,-y,1/2+z
1/2+x,1/2+y,z
1/2-x,1/2+y,1/2-z
1/2-x,1/2-y,-z
1/2+x,1/2-y,1/2+z
loop_
_atom_site_type_symbol
_atom_site_label
_atom_site_fract_x
_atom_site_fract_y
_atom_site_fract_z
Si Si1 0.315082 0.415001 0.787410
Si Si2 0.620045 0.368368 0.873825
Si Si3 0.414031 0.036205 0.952662
Si Si4 0.178180 0.387035 0.525642
Si Si5 0.238971 0.793078 0.211726
Si Si6 0.798992 0.684997 0.081010
Si Si7 0.555565 0.900857 0.279767
Si Si8 0.612659 0.349171 0.490252
O O1 0.337369 0.438019 0.677082
O O2 0.291855 0.248517 0.775606
O O3 0.275248 0.533430 0.803868
O O4 0.358767 0.426814 0.893433
O O5 0.586773 0.251782 0.789713
O O6 0.647532 0.258291 0.974273
O O7 0.592075 0.510576 0.909757
O O8 0.433696 0.008662 0.834106
O O9 0.419374 0.215391 0.979366
O O10 0.359067 0.983007 0.918990
O O11 0.432344 0.967199 0.085453
O O12 0.225524 0.315448 0.601568
O O13 0.194159 0.506889 0.438966
O O14 0.204770 0.729778 0.291296
O O15 0.750000 0.750000 0.000000
O O16 0.845569 0.764102 0.055929
O O17 0.500000 0.871027 0.250000
#
# Coordination Sequence:
#
# PCOD9298196 Si02
#       8
#     8   8   8   8   8   8   8   8
#     4  12  25  37  61  87 131 174 231 277 330 383
#     4  11  24  43  63  92 129 176 216 280 338 403
#     4  10  24  43  74 101 136 174 218 273 340 410
#     4  10  25  37  60  88 123 173 220 263 328 392
#     4  12  25  37  58  89 124 174 227 276 315 378
#     4  11  22  37  55  81 121 163 220 270 316 367
#     4  11  24  47  75 107 135 167 216 277 344 422
#     4  11  22  42  59  90 129 179 219 271 331 394
#
# _framework density 21.725173000000002
#
# number of rings (size 3 to 8) (size 9 to 14) (size 15 to 20)
#    0.000    1.000    5.000    1.125    8.750    0.500 
#    0.000    1.250    0.000    0.000    0.000    0.000 
#    0.000    0.000    0.000    0.000    0.000    0.000 
#
# Total GULP energy -178330.590474 kJ/mol
# GULP energy per Si atom -5572.830952 kJ/mol
# Density = 2.167573 g / cm^3
# Si number density = 21.725173 Si / 1000 Ang^3
#
#
#
# Elastic Constant Matrix: (Units=GPa)
#
#
# Indices 1 2 3 4 5 6 
#
# 1 53.1830 -0.9357 8.7356 0.0000 1.1002 0.0000
# 2 -0.9357 102.9581 23.2741 0.0000 6.7830 0.0000
# 3 8.7356 23.2741 71.4728 0.0000 -5.1772 0.0000
# 4 0.0000 0.0000 0.0000 22.1787 0.0000 -9.9192
# 5 1.1002 6.7830 -5.1772 0.0000 27.5591 0.0000
# 6 0.0000 0.0000 0.0000 -9.9192 0.0000 8.0791
#
#
#
# Elastic Compliance Matrix: (Units=1/GPa)
#
#
# Indices 1 2 3 4 5 6 
#
# 1 0.019304 0.000899 -0.002762 0.000000 -0.001511 0.000000
# 2 0.000899 0.010825 -0.003883 0.000000 -0.003430 0.000000
# 3 -0.002762 -0.003883 0.015887 0.000000 0.004050 0.000000
# 4 0.000000 0.000000 0.000000 0.099996 0.000000 0.122769
# 5 -0.001511 -0.003430 0.004050 0.000000 0.037951 0.000000
# 6 0.000000 0.000000 0.000000 0.122769 0.000000 0.274505
#
#
# Mechanical properties :
#
#
# Convention : Reuss Voigt Hill
#
# Bulk Modulus (GPa) = 28.96544 32.19578 30.58061
# Shear Modulus (GPa) = 10.38495 24.66605 17.52550
#
# Velocity S-wave (km/s) = 2.18873 3.37318 2.84331
# Velocity P-wave (km/s) = 4.44398 5.47931 4.98858
#
# Compressibility (1/GPa) = 0.03452391
#
# Stress axis : x y z
#
# Youngs Moduli (GPa) = 51.80361 92.38195 62.94539
#
# Poissons Ratio (x) = -0.08307 0.17383
# Poissons Ratio (y) = -0.04658 0.24443
# Poissons Ratio (z) = 0.14306 0.35874
#
# Static dielectric constant tensor:
#      x y z
#    x 1.760260 0.000000 -0.004480 
#    y 0.000000 1.828540 0.000000 
#    z -0.004480 0.000000 1.972990 
# 
# From -- ./inp_files/125933.got.cif
#   From: 2010.05.17/outbox.cif.g08.bks.cpg/sg15_63_cif.got.tgz:125933.got - 2010.06.03 18:47:42.
