data_PCOD9298987
_publ_section_title
;
Structure prediction by ZEFSAII (Michael W. Deem and Ramdas Pophale) SiO2 
 PCOD9298987
Probable space group: C 2/C
;
_chemical_formula_sum "Si O2"
_cell_formula_units_Z 36
_cell_length_a 16.767144
_cell_length_b 9.407367
_cell_length_c 20.434033
_cell_angle_alpha 90.000000
_cell_angle_beta 150.173518
_cell_angle_gamma 90.000000
_cell_volume 1603.116975
_symmetry_space_group_name_H-M "C 2/C"
_symmetry_group_IT_number 15
_symmetry_cell_setting 'monoclinic'
loop_
_space_group_symop_operation_xyz
x,y,z
-x,y,1/2-z
-x,-y,-z
x,-y,1/2+z
1/2+x,1/2+y,z
1/2-x,1/2+y,1/2-z
1/2-x,1/2-y,-z
1/2+x,1/2-y,1/2+z
loop_
_atom_site_type_symbol
_atom_site_label
_atom_site_fract_x
_atom_site_fract_y
_atom_site_fract_z
Si Si1 0.838244 0.029688 0.970973
Si Si2 0.672944 0.924720 0.726784
Si Si3 0.000000 0.644070 0.750000
Si Si4 0.063268 0.210950 0.868901
Si Si5 0.577010 0.759706 0.162742
O O1 0.661300 0.053274 0.875707
O O2 0.802450 0.956625 0.876442
O O3 0.926502 0.178961 0.024498
O O4 0.944593 0.932881 0.094045
O O5 0.536057 0.830879 0.663430
O O6 0.765947 0.833255 0.739731
O O7 0.606760 0.079258 0.659667
O O8 0.037375 0.729996 0.711354
O O9 0.000000 0.195132 0.750000
O O10 0.250000 0.250000 0.000000
#
# Coordination Sequence:
#
# PCOD9298987 Si02
#       5
#     8   8   4   8   8
#     4  11  23  46  73 101 146 196 242 300 363 435
#     4  11  25  47  70 108 145 189 247 306 359 435
#     4  10  24  46  72 108 144 188 246 306 358 436
#     4  12  24  46  75 108 152 193 243 301 370 433
#     4  11  24  45  73 102 146 192 234 304 368 427
#
# _framework density 22.456254000000001
#
# number of rings (size 3 to 8) (size 9 to 14) (size 15 to 20)
#    0.000    0.889    2.222    5.333    3.111    1.778 
#    4.000    5.556    0.000    0.000    0.000    0.000 
#    0.000    0.000    0.000    0.000    0.000    0.000 
#
# Total GULP energy -100749.344939 kJ/mol
# GULP energy per Si atom -5597.185830 kJ/mol
# Density = 2.240514 g / cm^3
# Si number density = 22.456254 Si / 1000 Ang^3
#
#
#
# Elastic Constant Matrix: (Units=GPa)
#
#
# Indices 1 2 3 4 5 6 
#
# 1 107.7351 62.8599 20.4360 0.0000 11.2821 0.0000
# 2 62.8599 167.6805 58.6702 0.0001 11.8883 0.0001
# 3 20.4360 58.6702 104.7330 0.0003 8.7963 0.0004
# 4 0.0000 0.0001 0.0003 51.5868 0.0001 11.3768
# 5 11.2821 11.8883 8.7963 0.0001 30.0027 0.0002
# 6 0.0000 0.0001 0.0004 11.3768 0.0002 36.2453
#
#
#
# Elastic Compliance Matrix: (Units=1/GPa)
#
#
# Indices 1 2 3 4 5 6 
#
# 1 0.012123 -0.004473 0.000384 0.000000 -0.002899 0.000000
# 2 -0.004473 0.009161 -0.004199 0.000000 -0.000717 0.000000
# 3 0.000384 -0.004199 0.011993 0.000000 -0.001997 0.000000
# 4 0.000000 0.000000 0.000000 0.020826 0.000000 -0.006537
# 5 -0.002899 -0.000717 -0.001997 0.000000 0.035290 0.000000
# 6 0.000000 0.000000 0.000000 -0.006537 0.000000 0.029642
#
#
# Mechanical properties :
#
#
# Convention : Reuss Voigt Hill
#
# Bulk Modulus (GPa) = 59.87962 73.78674 66.83318
# Shear Modulus (GPa) = 35.41653 39.44580 37.43116
#
# Velocity S-wave (km/s) = 3.97562 4.19568 4.08713
# Velocity P-wave (km/s) = 6.91354 7.51006 7.21796
#
# Compressibility (1/GPa) = 0.01670017
#
# Stress axis : x y z
#
# Youngs Moduli (GPa) = 82.48891 109.16333 83.38284
#
# Poissons Ratio (x) = 0.48833 -0.03201
# Poissons Ratio (y) = 0.36901 0.35009
# Poissons Ratio (z) = -0.03167 0.45833
#
# Static dielectric constant tensor:
#      x y z
#    x 1.854940 0.000000 -0.004840 
#    y 0.000000 1.870620 0.000000 
#    z -0.004840 0.000000 1.829610 
# 
# From -- ./inp_files/125382.got.cif
#   From: 2010.05.17/outbox.cif.g08.bks.cpg/sg15_63_cif.got.tgz:125382.got - 2010.06.03 18:47:42.
