data_PCOD9298364
_publ_section_title
;
Structure prediction by ZEFSAII (Michael W. Deem and Ramdas Pophale) SiO2 
 PCOD9298364
Probable space group: C 2/C
;
_chemical_formula_sum "Si O2"
_cell_formula_units_Z 44
_cell_length_a 5.117532
_cell_length_b 18.831530
_cell_length_c 24.600845
_cell_angle_alpha 90.000000
_cell_angle_beta 57.820714
_cell_angle_gamma 90.000000
_cell_volume 2006.617272
_symmetry_space_group_name_H-M "C 2/C"
_symmetry_group_IT_number 15
_symmetry_cell_setting 'monoclinic'
loop_
_space_group_symop_operation_xyz
x,y,z
-x,y,1/2-z
-x,-y,-z
x,-y,1/2+z
1/2+x,1/2+y,z
1/2-x,1/2+y,1/2-z
1/2-x,1/2-y,-z
1/2+x,1/2-y,1/2+z
loop_
_atom_site_type_symbol
_atom_site_label
_atom_site_fract_x
_atom_site_fract_y
_atom_site_fract_z
Si Si1 0.951197 0.266520 0.820142
Si Si2 0.252988 0.580549 0.122575
Si Si3 0.974088 0.425855 0.535866
Si Si4 0.000000 0.679806 0.750000
Si Si5 0.822448 0.360895 0.091070
Si Si6 0.860465 0.424979 0.346373
O O1 0.897278 0.347775 0.838899
O O2 0.705394 0.215987 0.877564
O O3 0.000000 0.256233 0.750000
O O4 0.270419 0.232926 0.805792
O O5 0.618691 0.582497 0.092090
O O6 0.118883 0.508755 0.163675
O O7 0.185868 0.575242 0.065577
O O8 0.000000 0.500000 0.500000
O O9 0.071859 0.364524 0.482790
O O10 0.902658 0.622658 0.714971
O O11 0.485625 0.399117 0.130161
O O12 0.061949 0.406067 0.100304
#
# Coordination Sequence:
#
# PCOD9298364 Si02
#       6
#     8   8   8   4   8   8
#     4  11  26  46  65  98 137 176 218 284 331 390
#     4  12  26  40  71 103 134 168 224 279 336 380
#     4  12  23  44  68 101 137 170 220 281 324 399
#     4  10  24  44  68  86 142 176 224 266 330 406
#     4  11  23  42  72  91 134 178 219 256 342 395
#     4  11  21  41  66 101 118 182 220 263 324 400
#
# _framework density 21.927448999999999
#
# number of rings (size 3 to 8) (size 9 to 14) (size 15 to 20)
#    0.000    0.727    5.455    1.636    3.818    1.455 
#    0.000    0.000    0.000    0.000    0.000    0.000 
#    0.000    0.000    0.000    0.000    0.000    0.000 
#
# Total GULP energy -122836.682051 kJ/mol
# GULP energy per Si atom -5583.485548 kJ/mol
# Density = 2.187754 g / cm^3
# Si number density = 21.927449 Si / 1000 Ang^3
#
#
#
# Elastic Constant Matrix: (Units=GPa)
#
#
# Indices 1 2 3 4 5 6 
#
# 1 54.2844 11.4522 -8.0528 0.0000 4.4016 0.0000
# 2 11.4522 186.7074 25.7127 0.0000 -20.1559 0.0000
# 3 -8.0528 25.7127 34.6837 0.0000 -6.1390 0.0000
# 4 0.0000 0.0000 0.0000 39.0907 0.0000 -2.7610
# 5 4.4016 -20.1559 -6.1390 0.0000 32.4705 0.0000
# 6 0.0000 0.0000 0.0000 -2.7610 0.0000 20.0094
#
#
#
# Elastic Compliance Matrix: (Units=1/GPa)
#
#
# Indices 1 2 3 4 5 6 
#
# 1 0.020041 -0.002369 0.005865 0.000000 -0.003079 0.000000
# 2 -0.002369 0.006535 -0.004780 0.000000 0.003474 0.000000
# 3 0.005865 -0.004780 0.034216 0.000000 0.002707 0.000000
# 4 0.000000 0.000000 0.000000 0.025833 0.000000 0.003565
# 5 -0.003079 0.003474 0.002707 0.000000 0.033883 0.000000
# 6 0.000000 0.000000 0.000000 0.003565 0.000000 0.050468
#
#
# Mechanical properties :
#
#
# Convention : Reuss Voigt Hill
#
# Bulk Modulus (GPa) = 17.17532 37.09998 27.13765
# Shear Modulus (GPa) = 25.91317 34.75169 30.33243
#
# Velocity S-wave (km/s) = 3.44142 3.98533 3.72332
# Velocity P-wave (km/s) = 4.86219 6.17522 5.55762
#
# Compressibility (1/GPa) = 0.05822308
#
# Stress axis : x y z
#
# Youngs Moduli (GPa) = 49.89782 153.03299 29.22600
#
# Poissons Ratio (x) = 0.36258 -0.17140
# Poissons Ratio (y) = 0.11822 0.13969
# Poissons Ratio (z) = -0.29263 0.73144
#
# Static dielectric constant tensor:
#      x y z
#    x 1.916360 0.000000 -0.021680 
#    y 0.000000 1.775360 0.000000 
#    z -0.021680 0.000000 1.858870 
# 
# From -- ./inp_files/226917.got.cif
#   From: 2010.05.17/outbox.cif.g08.bks.cpg/sg15_114_cif.got.tgz:226917.got - 2010.06.03 18:47:42.
