data_PCOD9298539
_publ_section_title
;
Structure prediction by ZEFSAII (Michael W. Deem and Ramdas Pophale) SiO2 
 PCOD9298539
Probable space group: C 2/C
;
_chemical_formula_sum "Si O2"
_cell_formula_units_Z 44
_cell_length_a 10.712736
_cell_length_b 34.923739
_cell_length_c 5.510437
_cell_angle_alpha 90.000000
_cell_angle_beta 80.268522
_cell_angle_gamma 90.000000
_cell_volume 2031.948100
_symmetry_space_group_name_H-M "C 2/C"
_symmetry_group_IT_number 15
_symmetry_cell_setting 'monoclinic'
loop_
_space_group_symop_operation_xyz
x,y,z
-x,y,1/2-z
-x,-y,-z
x,-y,1/2+z
1/2+x,1/2+y,z
1/2-x,1/2+y,1/2-z
1/2-x,1/2-y,-z
1/2+x,1/2-y,1/2+z
loop_
_atom_site_type_symbol
_atom_site_label
_atom_site_fract_x
_atom_site_fract_y
_atom_site_fract_z
Si Si1 0.400205 0.695758 0.981036
Si Si2 0.000000 0.624259 0.250000
Si Si3 0.345980 0.171242 0.706060
Si Si4 0.000000 0.738559 0.750000
Si Si5 0.652749 0.021142 0.711187
Si Si6 0.000000 0.874894 0.750000
Si Si7 0.732340 0.098462 0.469634
O O1 0.500000 0.709739 0.750000
O O2 0.261791 0.688606 0.928149
O O3 0.405513 0.730656 0.163582
O O4 0.456901 0.655568 0.058260
O O5 0.118620 0.599232 0.308497
O O6 0.944948 0.649744 0.491111
O O7 0.398253 0.205623 0.857983
O O8 0.284350 0.138715 0.889185
O O9 0.500000 0.023673 0.750000
O O10 0.707328 0.063400 0.656184
O O11 0.689939 0.997152 0.457101
O O12 0.123892 0.900475 0.667570
#
# Coordination Sequence:
#
# PCOD9298539 Si02
#       7
#     8   4   8   4   8   4   8
#     4  11  24  43  65  89 137 184 229 289 359 423
#     4  12  24  40  70  99 132 165 241 296 341 404
#     4  12  24  43  65  98 129 178 240 290 353 419
#     4  11  26  40  60 101 128 178 230 306 355 420
#     4  10  24  44  73 114 153 190 231 291 365 429
#     4  11  24  46  68 100 130 187 239 276 352 424
#     4  12  25  44  74 102 137 183 235 291 346 428
#
# _framework density 21.654097
#
# number of rings (size 3 to 8) (size 9 to 14) (size 15 to 20)
#    0.000    0.727    5.455    1.636    7.636    0.727 
#    0.000    0.909    0.000    0.000    0.000    0.000 
#    0.000    0.000    0.000    0.000    0.000    0.000 
#
# Total GULP energy -122661.122739 kJ/mol
# GULP energy per Si atom -5575.505579 kJ/mol
# Density = 2.160481 g / cm^3
# Si number density = 21.654097 Si / 1000 Ang^3
#
#
#
# Elastic Constant Matrix: (Units=GPa)
#
#
# Indices 1 2 3 4 5 6 
#
# 1 123.4646 26.9657 16.5769 0.0000 -1.6652 0.0000
# 2 26.9657 101.5909 13.7409 0.0000 2.7809 0.0000
# 3 16.5769 13.7409 41.6645 0.0000 -6.5578 0.0000
# 4 0.0000 0.0000 0.0000 -201.7341 0.0000 156.4121
# 5 -1.6652 2.7809 -6.5578 0.0000 24.1051 0.0000
# 6 0.0000 0.0000 0.0000 156.4121 0.0000 -127.6857
#
#
#
# Elastic Compliance Matrix: (Units=1/GPa)
#
#
# Indices 1 2 3 4 5 6 
#
# 1 0.008920 -0.001979 -0.002887 0.000000 0.000059 0.000000
# 2 -0.001979 0.010856 -0.003146 0.000000 -0.002245 0.000000
# 3 -0.002887 -0.003146 0.027386 0.000000 0.007614 0.000000
# 4 0.000000 0.000000 0.000000 -0.098691 0.000000 -0.120894
# 5 0.000059 -0.002245 0.007614 0.000000 0.043819 0.000000
# 6 0.000000 0.000000 0.000000 -0.120894 0.000000 -0.155924
#
#
# Mechanical properties :
#
#
# Convention : Reuss Voigt Hill
#
# Bulk Modulus (GPa) = 32.11571 42.36522 37.24046
# Shear Modulus (GPa) = -36.43513 -47.10049 -41.76781
#
# Velocity S-wave (km/s) = -4.10640 -4.66889 -4.39665
# Velocity P-wave (km/s) = 2.76042 3.07534 2.92212
#
# Compressibility (1/GPa) = 0.03113741
#
# Stress axis : x y z
#
# Youngs Moduli (GPa) = 112.10623 92.11799 36.51505
#
# Poissons Ratio (x) = 0.18228 0.10542
# Poissons Ratio (y) = 0.22184 0.11488
# Poissons Ratio (z) = 0.32366 0.28982
#
# Static dielectric constant tensor:
#      x y z
#    x 1.830780 0.000000 0.052950 
#    y 0.000000 1.745340 0.000000 
#    z 0.052950 0.000000 1.865640 
# 
# From -- ./inp_files/5838.got.cif
#   From: 2010.05.17/outbox.cif.g08.bks.cpg/sg15_3_cif.got.tgz:5838.got - 2010.06.03 18:47:42.
