data_PCOD9298246
_publ_section_title
;
Structure prediction by ZEFSAII (Michael W. Deem and Ramdas Pophale) SiO2 
 PCOD9298246
Probable space group: C 2/C
;
_chemical_formula_sum "Si O2"
_cell_formula_units_Z 32
_cell_length_a 21.879944
_cell_length_b 7.073190
_cell_length_c 13.208903
_cell_angle_alpha 90.000000
_cell_angle_beta 36.474115
_cell_angle_gamma 90.000000
_cell_volume 1215.207938
_symmetry_space_group_name_H-M "C 2/C"
_symmetry_group_IT_number 15
_symmetry_cell_setting 'monoclinic'
loop_
_space_group_symop_operation_xyz
x,y,z
-x,y,1/2-z
-x,-y,-z
x,-y,1/2+z
1/2+x,1/2+y,z
1/2-x,1/2+y,1/2-z
1/2-x,1/2-y,-z
1/2+x,1/2-y,1/2+z
loop_
_atom_site_type_symbol
_atom_site_label
_atom_site_fract_x
_atom_site_fract_y
_atom_site_fract_z
Si Si1 0.809806 0.431679 0.164044
Si Si2 0.352704 0.443156 0.481821
Si Si3 0.016215 0.305848 0.124532
Si Si4 0.609442 0.476903 0.792916
O O1 0.753775 0.456096 0.346371
O O2 0.854309 0.244234 0.049997
O O3 0.713568 0.488616 0.217222
O O4 0.902130 0.580509 0.047764
O O5 0.428870 0.610141 0.414983
O O6 0.374110 0.407883 0.334482
O O7 0.000000 0.417691 0.250000
O O8 0.911104 0.238419 0.215301
O O9 0.500000 0.500000 0.000000
#
# Coordination Sequence:
#
# PCOD9298246 Si02
#       4
#     8   8   8   8
#     4  12  23  45  71 103 139 187 232 289 351 411
#     4  11  23  41  70  99 142 181 230 289 341 414
#     4  10  24  44  63  99 143 176 233 288 340 410
#     4  11  23  44  73 102 141 188 229 287 355 407
#
# _framework density 26.332943
#
# number of rings (size 3 to 8) (size 9 to 14) (size 15 to 20)
#    0.000    1.000    5.000    0.750    0.000    7.000 
#    0.000    3.750    0.000    0.000    0.000    0.000 
#    0.000    0.000    0.000    0.000    0.000    0.000 
#
# Total GULP energy -89177.800443 kJ/mol
# GULP energy per Si atom -5573.612528 kJ/mol
# Density = 2.627301 g / cm^3
# Si number density = 26.332943 Si / 1000 Ang^3
#
#
#
# Elastic Constant Matrix: (Units=GPa)
#
#
# Indices 1 2 3 4 5 6 
#
# 1 26.2112 14.8094 1.4539 -0.0002 -2.2313 0.0002
# 2 14.8094 105.3627 37.5717 -0.0002 -15.7396 0.0005
# 3 1.4539 37.5717 160.0573 -0.0003 19.8887 0.0004
# 4 -0.0002 -0.0002 -0.0003 53.2359 0.0001 -17.2989
# 5 -2.2313 -15.7396 19.8887 0.0001 49.4375 -0.0002
# 6 0.0002 0.0005 0.0004 -17.2989 -0.0002 28.5361
#
#
#
# Elastic Compliance Matrix: (Units=1/GPa)
#
#
# Indices 1 2 3 4 5 6 
#
# 1 0.041632 -0.006372 0.001196 0.000000 -0.000631 0.000000
# 2 -0.006372 0.012381 -0.003476 0.000000 0.005053 0.000000
# 3 0.001196 -0.003476 0.007562 0.000000 -0.004095 0.000000
# 4 0.000000 0.000000 0.000000 0.023392 0.000000 0.014181
# 5 -0.000631 0.005053 -0.004095 0.000000 0.023455 0.000000
# 6 0.000000 0.000000 0.000000 0.014181 0.000000 0.043640
#
#
# Mechanical properties :
#
#
# Convention : Reuss Voigt Hill
#
# Bulk Modulus (GPa) = 22.58885 44.36679 33.47782
# Shear Modulus (GPa) = 27.15564 42.09499 34.62531
#
# Velocity S-wave (km/s) = 3.21478 4.00255 3.63010
# Velocity P-wave (km/s) = 4.73038 6.18429 5.50554
#
# Compressibility (1/GPa) = 0.04426963
#
# Stress axis : x y z
#
# Youngs Moduli (GPa) = 24.01999 80.76803 132.24454
#
# Poissons Ratio (x) = 0.51469 -0.15818
# Poissons Ratio (y) = 0.15307 0.45972
# Poissons Ratio (z) = -0.02873 0.28077
#
# Static dielectric constant tensor:
#      x y z
#    x 2.421550 0.000000 0.138490 
#    y 0.000000 2.179430 0.000000 
#    z 0.138490 0.000000 2.170790 
# 
# From -- ./inp_files/176406.got.cif
#   From: 2010.05.17/outbox.cif.g08.bks.cpg/sg15_89_cif.got.tgz:176406.got - 2010.06.03 18:47:42.
