data_PCOD9298387
_publ_section_title
;
Structure prediction by ZEFSAII (Michael W. Deem and Ramdas Pophale) SiO2 
 PCOD9298387
Probable space group: C 2/C
;
_chemical_formula_sum "Si O2"
_cell_formula_units_Z 64
_cell_length_a 11.180006
_cell_length_b 11.154483
_cell_length_c 24.273529
_cell_angle_alpha 90.000000
_cell_angle_beta 96.352701
_cell_angle_gamma 90.000000
_cell_volume 3008.496015
_symmetry_space_group_name_H-M "C 2/C"
_symmetry_group_IT_number 15
_symmetry_cell_setting 'monoclinic'
loop_
_space_group_symop_operation_xyz
x,y,z
-x,y,1/2-z
-x,-y,-z
x,-y,1/2+z
1/2+x,1/2+y,z
1/2-x,1/2+y,1/2-z
1/2-x,1/2-y,-z
1/2+x,1/2-y,1/2+z
loop_
_atom_site_type_symbol
_atom_site_label
_atom_site_fract_x
_atom_site_fract_y
_atom_site_fract_z
Si Si1 0.849605 0.426064 0.625517
Si Si2 0.841005 0.005975 0.291801
Si Si3 0.784824 0.612211 0.998072
Si Si4 0.492205 0.670917 0.145210
Si Si5 0.576879 0.081428 0.599002
Si Si6 0.260240 0.089318 0.327279
Si Si7 0.536571 0.459751 0.441659
Si Si8 0.526841 0.719169 0.652731
O O1 0.760997 0.485388 0.665576
O O2 0.788635 0.423066 0.562186
O O3 0.966555 0.503201 0.616047
O O4 0.902207 0.296885 0.649906
O O5 0.931283 0.893096 0.306651
O O6 0.775957 0.020465 0.230346
O O7 0.922119 0.124436 0.302302
O O8 0.750000 0.750000 0.000000
O O9 0.902291 0.591735 0.965861
O O10 0.677919 0.553818 0.958191
O O11 0.547698 0.788702 0.121741
O O12 0.354358 0.665535 0.157502
O O13 0.497552 0.566886 0.100108
O O14 0.692417 0.016179 0.630903
O O15 0.368879 0.184383 0.330520
O O16 0.500000 0.500000 0.500000
O O17 0.482473 0.340946 0.409121
#
# Coordination Sequence:
#
# PCOD9298387 Si02
#       8
#     8   8   8   8   8   8   8   8
#     4  11  24  45  68 103 137 179 237 277 358 415
#     4  11  25  45  70 100 136 183 232 294 346 412
#     4  12  21  41  69  98 140 180 226 284 343 418
#     4  11  24  43  66 100 136 174 233 281 341 416
#     4  11  25  43  69 100 142 180 224 288 351 417
#     4  11  25  48  67 101 139 182 235 286 358 419
#     4  11  22  41  66 101 136 180 229 280 349 413
#     4  10  24  44  68  98 140 174 234 283 345 420
#
# _framework density 21.273088000000001
#
# number of rings (size 3 to 8) (size 9 to 14) (size 15 to 20)
#    0.000    1.000    2.500    4.500    1.750    2.000 
#    6.750    1.250    0.000    0.000    0.000    0.000 
#    0.000    0.000    0.000    0.000    0.000    0.000 
#
# Total GULP energy -178409.743477 kJ/mol
# GULP energy per Si atom -5575.304484 kJ/mol
# Density = 2.122467 g / cm^3
# Si number density = 21.273088 Si / 1000 Ang^3
#
#
#
# Elastic Constant Matrix: (Units=GPa)
#
#
# Indices 1 2 3 4 5 6 
#
# 1 77.1976 7.8641 23.9256 0.0000 3.7836 0.0000
# 2 7.8641 85.1885 17.7508 0.0000 7.5081 0.0000
# 3 23.9256 17.7508 106.3013 0.0000 9.7608 0.0000
# 4 0.0000 0.0000 0.0000 23.8049 0.0000 7.9075
# 5 3.7836 7.5081 9.7608 0.0000 35.3811 0.0000
# 6 0.0000 0.0000 0.0000 7.9075 0.0000 23.5010
#
#
#
# Elastic Compliance Matrix: (Units=1/GPa)
#
#
# Indices 1 2 3 4 5 6 
#
# 1 0.013970 -0.000619 -0.002992 0.000000 -0.000537 0.000000
# 2 -0.000619 0.012339 -0.001731 0.000000 -0.002075 0.000000
# 3 -0.002992 -0.001731 0.010574 0.000000 -0.002230 0.000000
# 4 0.000000 0.000000 0.000000 0.047294 0.000000 -0.015913
# 5 -0.000537 -0.002075 -0.002230 0.000000 0.029377 0.000000
# 6 0.000000 0.000000 0.000000 -0.015913 0.000000 0.047906
#
#
# Mechanical properties :
#
#
# Convention : Reuss Voigt Hill
#
# Bulk Modulus (GPa) = 38.16584 40.86317 39.51451
# Shear Modulus (GPa) = 27.64311 31.14721 29.39516
#
# Velocity S-wave (km/s) = 3.60869 3.83059 3.72129
# Velocity P-wave (km/s) = 5.94503 6.23017 6.08927
#
# Compressibility (1/GPa) = 0.02620144
#
# Stress axis : x y z
#
# Youngs Moduli (GPa) = 71.58018 81.04190 94.56871
#
# Poissons Ratio (x) = 0.05016 0.28292
# Poissons Ratio (y) = 0.04430 0.16367
# Poissons Ratio (z) = 0.21414 0.14026
#
# Static dielectric constant tensor:
#      x y z
#    x 1.823290 0.000000 -0.044070 
#    y 0.000000 1.794670 0.000000 
#    z -0.044070 0.000000 1.668020 
# 
# From -- ./inp_files/268921.got.cif
#   From: 2010.05.17/outbox.cif.g08.bks.cpg/sg15_135_cif.got.tgz:268921.got - 2010.06.03 18:47:42.
