data_PCOD9298271
_publ_section_title
;
Structure prediction by ZEFSAII (Michael W. Deem and Ramdas Pophale) SiO2 
 PCOD9298271
Probable space group: C 2/C
;
_chemical_formula_sum "Si O2"
_cell_formula_units_Z 60
_cell_length_a 20.126374
_cell_length_b 6.449362
_cell_length_c 26.016531
_cell_angle_alpha 90.000000
_cell_angle_beta 123.174417
_cell_angle_gamma 90.000000
_cell_volume 2826.582490
_symmetry_space_group_name_H-M "C 2/C"
_symmetry_group_IT_number 15
_symmetry_cell_setting 'monoclinic'
loop_
_space_group_symop_operation_xyz
x,y,z
-x,y,1/2-z
-x,-y,-z
x,-y,1/2+z
1/2+x,1/2+y,z
1/2-x,1/2+y,1/2-z
1/2-x,1/2-y,-z
1/2+x,1/2-y,1/2+z
loop_
_atom_site_type_symbol
_atom_site_label
_atom_site_fract_x
_atom_site_fract_y
_atom_site_fract_z
Si Si1 0.676304 0.701110 0.662835
Si Si2 0.436945 0.724863 0.789155
Si Si3 0.500000 0.354038 0.750000
Si Si4 0.091662 0.041234 0.036007
Si Si5 0.686160 0.922755 0.100264
Si Si6 0.078901 0.540827 0.865383
Si Si7 0.310331 0.939954 0.672735
Si Si8 0.669485 0.777144 0.497209
O O1 0.627874 0.678629 0.694423
O O2 0.627293 0.578234 0.599515
O O3 0.763091 0.601718 0.689015
O O4 0.675886 0.940576 0.646640
O O5 0.447809 0.516429 0.760893
O O6 0.393315 0.888436 0.734179
O O7 0.519294 0.839867 0.841129
O O8 0.540357 0.214150 0.811366
O O9 0.112643 0.279502 0.053126
O O10 0.133728 0.937165 0.004629
O O11 0.000000 0.000000 0.000000
O O12 0.757283 0.764277 0.141949
O O13 0.693863 0.080643 0.056230
O O14 0.163756 0.504763 0.873288
O O15 0.102129 0.621088 0.931910
O O16 0.750000 0.750000 0.500000
#
# Coordination Sequence:
#
# PCOD9298271 Si02
#       8
#     8   8   4   8   8   8   8   8
#     4  10  26  42  69 100 136 178 232 282 353 413
#     4  12  27  44  69 105 131 191 231 285 351 416
#     4  12  26  46  66  96 144 184 224 302 342 404
#     4  10  24  44  65 102 134 176 227 281 344 417
#     4  10  24  45  70  97 142 178 220 294 344 411
#     4  12  26  46  71 103 143 177 244 285 346 421
#     4  11  24  46  66 102 139 179 235 283 344 428
#     4  11  26  43  72 105 137 186 233 285 350 418
#
# _framework density 21.227048
#
# number of rings (size 3 to 8) (size 9 to 14) (size 15 to 20)
#    0.000    1.067    2.667    2.400   11.200    4.267 
#    0.000    0.000    0.000    0.000    0.000    0.000 
#    0.000    0.000    0.000    0.000    0.000    0.000 
#
# Total GULP energy -167418.551226 kJ/mol
# GULP energy per Si atom -5580.618374 kJ/mol
# Density = 2.117873 g / cm^3
# Si number density = 21.227048 Si / 1000 Ang^3
#
#
#
# Elastic Constant Matrix: (Units=GPa)
#
#
# Indices 1 2 3 4 5 6 
#
# 1 101.5525 39.2969 1.5133 0.0000 -6.5617 0.0000
# 2 39.2969 77.0836 -7.6511 0.0000 -3.9970 -0.0001
# 3 1.5133 -7.6511 50.4018 0.0001 -5.6157 0.0000
# 4 0.0000 0.0000 0.0001 14.9433 0.0000 6.2172
# 5 -6.5617 -3.9970 -5.6157 0.0000 38.3949 0.0000
# 6 0.0000 -0.0001 0.0000 6.2172 0.0000 17.8540
#
#
#
# Elastic Compliance Matrix: (Units=1/GPa)
#
#
# Indices 1 2 3 4 5 6 
#
# 1 0.012418 -0.006383 -0.001199 0.000000 0.001282 0.000000
# 2 -0.006383 0.016561 0.002822 0.000000 0.001046 0.000000
# 3 -0.001199 0.002822 0.020651 0.000000 0.003109 0.000000
# 4 0.000000 0.000000 0.000000 0.078257 0.000000 -0.027251
# 5 0.001282 0.001046 0.003109 0.000000 0.026828 0.000000
# 6 0.000000 0.000000 0.000000 -0.027251 0.000000 0.065500
#
#
# Mechanical properties :
#
#
# Convention : Reuss Voigt Hill
#
# Bulk Modulus (GPa) = 24.93076 32.81736 28.87406
# Shear Modulus (GPa) = 20.56721 27.29702 23.93211
#
# Velocity S-wave (km/s) = 3.11612 3.58991 3.36137
# Velocity P-wave (km/s) = 4.97164 5.71638 5.35697
#
# Compressibility (1/GPa) = 0.04011109
#
# Stress axis : x y z
#
# Youngs Moduli (GPa) = 80.52923 60.38152 48.42283
#
# Poissons Ratio (x) = 0.38542 0.05806
# Poissons Ratio (y) = 0.51402 -0.13666
# Poissons Ratio (z) = 0.09655 -0.17041
#
# Static dielectric constant tensor:
#      x y z
#    x 1.893580 0.000000 -0.137630 
#    y 0.000000 1.834520 0.000000 
#    z -0.137630 0.000000 1.857280 
# 
# From -- ./inp_files/300133.got.cif
#   From: 2010.05.17/outbox.cif.g08.bks.cpg/sg15_151_cif.got.tgz:300133.got - 2010.06.03 18:47:42.
