data_PCOD9298352
_publ_section_title
;
Structure prediction by ZEFSAII (Michael W. Deem and Ramdas Pophale) SiO2 
 PCOD9298352
Probable space group: C 2/C
;
_chemical_formula_sum "Si O2"
_cell_formula_units_Z 28
_cell_length_a 5.062073
_cell_length_b 23.711915
_cell_length_c 10.600868
_cell_angle_alpha 90.000000
_cell_angle_beta 65.794760
_cell_angle_gamma 90.000000
_cell_volume 1160.568133
_symmetry_space_group_name_H-M "C 2/C"
_symmetry_group_IT_number 15
_symmetry_cell_setting 'monoclinic'
loop_
_space_group_symop_operation_xyz
x,y,z
-x,y,1/2-z
-x,-y,-z
x,-y,1/2+z
1/2+x,1/2+y,z
1/2-x,1/2+y,1/2-z
1/2-x,1/2-y,-z
1/2+x,1/2-y,1/2+z
loop_
_atom_site_type_symbol
_atom_site_label
_atom_site_fract_x
_atom_site_fract_y
_atom_site_fract_z
Si Si1 0.000000 0.381126 0.750000
Si Si2 0.277215 0.468450 0.888630
Si Si3 0.786582 0.617267 0.897773
Si Si4 0.754676 0.316653 0.016904
O O1 0.836206 0.421248 0.685590
O O2 0.208316 0.341326 0.630720
O O3 0.500000 0.500417 0.750000
O O4 0.375801 0.432817 0.992911
O O5 0.000000 0.500000 0.000000
O O6 0.551243 0.657829 0.881265
O O7 0.000000 0.592772 0.750000
O O8 0.987642 0.656360 0.949588
O O9 0.750000 0.250000 0.000000
#
# Coordination Sequence:
#
# PCOD9298352 Si02
#       4
#     4   8   8   8
#     4  10  24  44  68 102 142 180 246 296 348 444
#     4  11  25  46  72 101 143 194 240 307 367 430
#     4  11  25  45  69 106 143 180 244 299 353 441
#     4  11  24  44  72 102 144 189 234 296 366 430
#
# _framework density 24.126111999999999
#
# number of rings (size 3 to 8) (size 9 to 14) (size 15 to 20)
#    0.000    1.143    2.857    1.714    6.000    5.714 
#    0.000    0.000    0.000    0.000    0.000    0.000 
#    0.000    0.000    0.000    0.000    0.000    0.000 
#
# Total GULP energy -78232.074525 kJ/mol
# GULP energy per Si atom -5588.005323 kJ/mol
# Density = 2.407120 g / cm^3
# Si number density = 24.126112 Si / 1000 Ang^3
#
#
#
# Elastic Constant Matrix: (Units=GPa)
#
#
# Indices 1 2 3 4 5 6 
#
# 1 94.2534 20.8896 20.8287 0.0000 -10.5133 0.0000
# 2 20.8896 78.5273 48.4553 0.0000 -9.6126 0.0000
# 3 20.8287 48.4553 194.2976 0.0000 -22.1332 0.0000
# 4 0.0000 0.0000 0.0000 32.4456 0.0000 -1.9313
# 5 -10.5133 -9.6126 -22.1332 0.0000 41.8923 0.0000
# 6 0.0000 0.0000 0.0000 -1.9313 0.0000 31.4351
#
#
#
# Elastic Compliance Matrix: (Units=1/GPa)
#
#
# Indices 1 2 3 4 5 6 
#
# 1 0.011495 -0.002585 -0.000347 0.000000 0.002108 0.000000
# 2 -0.002585 0.015729 -0.003520 0.000000 0.001101 0.000000
# 3 -0.000347 -0.003520 0.006342 0.000000 0.002456 0.000000
# 4 0.000000 0.000000 0.000000 0.030934 0.000000 0.001901
# 5 0.002108 0.001101 0.002456 0.000000 0.025950 0.000000
# 6 0.000000 0.000000 0.000000 0.001901 0.000000 0.031928
#
#
# Mechanical properties :
#
#
# Convention : Reuss Voigt Hill
#
# Bulk Modulus (GPa) = 48.40388 60.82506 54.61447
# Shear Modulus (GPa) = 35.16935 39.61490 37.39212
#
# Velocity S-wave (km/s) = 3.82216 4.05655 3.94110
# Velocity P-wave (km/s) = 6.29166 6.87072 6.58756
#
# Compressibility (1/GPa) = 0.02065950
#
# Stress axis : x y z
#
# Youngs Moduli (GPa) = 86.99744 63.57694 157.68976
#
# Poissons Ratio (x) = 0.16437 0.05477
# Poissons Ratio (y) = 0.22492 0.55508
# Poissons Ratio (z) = 0.03022 0.22380
#
# Static dielectric constant tensor:
#      x y z
#    x 1.966000 0.000000 -0.100310 
#    y 0.000000 1.900290 0.000000 
#    z -0.100310 0.000000 2.013380 
# 
# From -- ./inp_files/19671.got.cif
#   From: 2010.05.17/outbox.cif.g08.bks.cpg/sg15_10_cif.got.tgz:19671.got - 2010.06.03 18:47:42.
