data_PCOD9298332
_publ_section_title
;
Structure prediction by ZEFSAII (Michael W. Deem and Ramdas Pophale) SiO2 
 PCOD9298332
Probable space group: C 2/C
;
_chemical_formula_sum "Si O2"
_cell_formula_units_Z 56
_cell_length_a 13.071438
_cell_length_b 7.493557
_cell_length_c 29.628708
_cell_angle_alpha 90.000000
_cell_angle_beta 53.512478
_cell_angle_gamma 90.000000
_cell_volume 2333.311867
_symmetry_space_group_name_H-M "C 2/C"
_symmetry_group_IT_number 15
_symmetry_cell_setting 'monoclinic'
loop_
_space_group_symop_operation_xyz
x,y,z
-x,y,1/2-z
-x,-y,-z
x,-y,1/2+z
1/2+x,1/2+y,z
1/2-x,1/2+y,1/2-z
1/2-x,1/2-y,-z
1/2+x,1/2-y,1/2+z
loop_
_atom_site_type_symbol
_atom_site_label
_atom_site_fract_x
_atom_site_fract_y
_atom_site_fract_z
Si Si1 0.604834 0.233478 0.389963
Si Si2 0.350194 0.295255 0.418343
Si Si3 0.879857 0.798371 0.308192
Si Si4 0.343084 0.904613 0.527217
Si Si5 0.114987 0.626158 0.581402
Si Si6 0.862815 0.603185 0.790193
Si Si7 0.639793 0.084307 0.813413
O O1 0.474340 0.342325 0.416044
O O2 0.595917 0.131424 0.440053
O O3 0.743205 0.322967 0.349092
O O4 0.609573 0.104344 0.344931
O O5 0.375200 0.358829 0.360588
O O6 0.221705 0.401737 0.463438
O O7 0.339677 0.078972 0.422120
O O8 0.894247 0.584966 0.304943
O O9 0.752662 0.837511 0.313793
O O10 0.000000 0.873273 0.250000
O O11 0.228053 0.763329 0.557265
O O12 0.423369 0.861825 0.461412
O O13 0.995460 0.679448 0.643608
O O14 0.822456 0.574957 0.748550
O O15 0.000000 0.701108 0.750000
#
# Coordination Sequence:
#
# PCOD9298332 Si02
#       7
#     8   8   8   8   8   8   8
#     4  11  23  41  65  98 128 168 227 268 332 409
#     4  11  23  43  65  96 130 173 216 274 335 392
#     4  11  22  40  61  91 131 168 215 270 334 396
#     4  11  23  46  66  97 130 172 220 275 327 394
#     4  10  24  44  67  93 134 168 219 275 324 400
#     4  11  22  39  63  91 131 170 210 275 330 393
#     4  11  22  40  62  95 127 170 215 267 332 389
#
# _framework density 24.000221
#
# number of rings (size 3 to 8) (size 9 to 14) (size 15 to 20)
#    0.000    1.143    1.429    7.286    2.000    2.857 
#    7.714    1.429    0.000    0.000    0.000    0.000 
#    0.000    0.000    0.000    0.000    0.000    0.000 
#
# Total GULP energy -156483.769434 kJ/mol
# GULP energy per Si atom -5588.706051 kJ/mol
# Density = 2.394560 g / cm^3
# Si number density = 24.000221 Si / 1000 Ang^3
#
#
#
# Elastic Constant Matrix: (Units=GPa)
#
#
# Indices 1 2 3 4 5 6 
#
# 1 115.4214 9.0671 23.4464 0.0000 14.6561 0.0000
# 2 9.0671 46.6683 -6.3725 0.0001 -5.6765 0.0001
# 3 23.4464 -6.3725 104.4526 -0.0001 38.0289 -0.0001
# 4 0.0000 0.0001 -0.0001 22.5553 0.0001 -2.7423
# 5 14.6561 -5.6765 38.0289 0.0001 44.5372 0.0000
# 6 0.0000 0.0001 -0.0001 -2.7423 0.0000 41.6297
#
#
#
# Elastic Compliance Matrix: (Units=1/GPa)
#
#
# Indices 1 2 3 4 5 6 
#
# 1 0.009414 -0.002290 -0.001478 0.000000 -0.002128 0.000000
# 2 -0.002290 0.022337 0.000821 0.000000 0.002899 0.000000
# 3 -0.001478 0.000821 0.014134 0.000000 -0.011478 0.000000
# 4 0.000000 0.000000 0.000000 0.044693 0.000000 0.002944
# 5 -0.002128 0.002899 -0.011478 0.000000 0.033323 0.000000
# 6 0.000000 0.000000 0.000000 0.002944 0.000000 0.024215
#
#
# Mechanical properties :
#
#
# Convention : Reuss Voigt Hill
#
# Bulk Modulus (GPa) = 25.00470 35.42493 30.21481
# Shear Modulus (GPa) = 29.87878 37.77119 33.82498
#
# Velocity S-wave (km/s) = 3.53220 3.97140 3.75822
# Velocity P-wave (km/s) = 5.20349 5.98512 5.60794
#
# Compressibility (1/GPa) = 0.03999248
#
# Stress axis : x y z
#
# Youngs Moduli (GPa) = 106.22212 44.76778 70.74891
#
# Poissons Ratio (x) = 0.10251 0.10459
# Poissons Ratio (y) = 0.24322 -0.05810
# Poissons Ratio (z) = 0.15703 -0.03676
#
# Static dielectric constant tensor:
#      x y z
#    x 2.025460 0.000000 -0.063580 
#    y 0.000000 1.953640 0.000000 
#    z -0.063580 0.000000 1.959990 
# 
# From -- ./inp_files/310242.got.cif
#   From: 2010.05.17/outbox.cif.g08.bks.cpg/sg15_156_cif.got.tgz:310242.got - 2010.06.03 18:47:42.
