data_PCOD9298511
_publ_section_title
;
Structure prediction by ZEFSAII (Michael W. Deem and Ramdas Pophale) SiO2 
 PCOD9298511
Probable space group: C 2/C
;
_chemical_formula_sum "Si O2"
_cell_formula_units_Z 44
_cell_length_a 10.880587
_cell_length_b 21.058926
_cell_length_c 8.049119
_cell_angle_alpha 90.000000
_cell_angle_beta 107.708063
_cell_angle_gamma 90.000000
_cell_volume 1756.936191
_symmetry_space_group_name_H-M "C 2/C"
_symmetry_group_IT_number 15
_symmetry_cell_setting 'monoclinic'
loop_
_space_group_symop_operation_xyz
x,y,z
-x,y,1/2-z
-x,-y,-z
x,-y,1/2+z
1/2+x,1/2+y,z
1/2-x,1/2+y,1/2-z
1/2-x,1/2-y,-z
1/2+x,1/2-y,1/2+z
loop_
_atom_site_type_symbol
_atom_site_label
_atom_site_fract_x
_atom_site_fract_y
_atom_site_fract_z
Si Si1 0.767317 0.879195 0.359840
Si Si2 0.500000 0.159912 0.250000
Si Si3 0.246602 0.743059 0.299491
Si Si4 0.057297 0.567099 0.586476
Si Si5 0.030540 0.069401 0.951025
Si Si6 0.353714 0.380151 0.730541
O O1 0.730683 0.810036 0.280249
O O2 0.707631 0.930000 0.208525
O O3 0.749484 0.897207 0.547255
O O4 0.922411 0.875998 0.432877
O O5 0.610771 0.206379 0.223417
O O6 0.539976 0.116071 0.425319
O O7 0.250000 0.750000 0.500000
O O8 0.347412 0.694327 0.260414
O O9 0.000000 0.584639 0.750000
O O10 0.000000 0.500000 0.500000
O O11 0.000000 0.061417 0.750000
O O12 0.162695 0.090068 0.092918
O O13 0.000000 0.000000 0.000000
O O14 0.500000 0.403141 0.750000
#
# Coordination Sequence:
#
# PCOD9298511 Si02
#       6
#     8   4   8   8   8   8
#     4  11  25  44  70 104 139 191 237 303 364 431
#     4  12  28  48  76 112 152 202 250 314 376 450
#     4  12  25  44  72 106 148 192 244 301 374 440
#     4  12  27  49  74 106 150 197 253 307 375 454
#     4  11  24  43  70 102 139 182 239 295 358 435
#     4  10  24  44  72 106 143 188 241 304 369 435
#
# _framework density 25.043596999999998
#
# number of rings (size 3 to 8) (size 9 to 14) (size 15 to 20)
#    0.000    0.727    2.727    4.364    6.364    5.091 
#    0.000    0.000    0.000    0.000    0.000    0.000 
#    0.000    0.000    0.000    0.000    0.000    0.000 
#
# Total GULP energy -122476.970779 kJ/mol
# GULP energy per Si atom -5567.135035 kJ/mol
# Density = 2.498660 g / cm^3
# Si number density = 25.043597 Si / 1000 Ang^3
#
#
#
# Elastic Constant Matrix: (Units=GPa)
#
#
# Indices 1 2 3 4 5 6 
#
# 1 57.4147 -7.4103 2.3907 0.0000 3.4246 0.0000
# 2 -7.4103 106.8440 47.1727 0.0000 29.9944 0.0000
# 3 2.3907 47.1727 249.2827 0.0000 23.6866 0.0000
# 4 0.0000 0.0000 0.0000 23.4897 0.0000 -12.5146
# 5 3.4246 29.9944 23.6866 0.0000 21.5456 0.0000
# 6 0.0000 0.0000 0.0000 -12.5146 0.0000 25.2621
#
#
#
# Elastic Compliance Matrix: (Units=1/GPa)
#
#
# Indices 1 2 3 4 5 6 
#
# 1 0.018320 0.003451 -0.000107 0.000000 -0.007599 0.000000
# 2 0.003451 0.016230 -0.001011 0.000000 -0.022032 0.000000
# 3 -0.000107 -0.001011 0.004543 0.000000 -0.003570 0.000000
# 4 0.000000 0.000000 0.000000 0.057837 0.000000 0.028652
# 5 -0.007599 -0.022032 -0.003570 0.000000 0.082217 0.000000
# 6 0.000000 0.000000 0.000000 0.028652 0.000000 0.053779
#
#
# Mechanical properties :
#
#
# Convention : Reuss Voigt Hill
#
# Bulk Modulus (GPa) = 22.85193 55.31639 39.08416
# Shear Modulus (GPa) = 20.58918 38.81869 29.70394
#
# Velocity S-wave (km/s) = 2.87040 3.94133 3.44770
# Velocity P-wave (km/s) = 4.48667 6.54585 5.61152
#
# Compressibility (1/GPa) = 0.04375997
#
# Stress axis : x y z
#
# Youngs Moduli (GPa) = 54.58449 61.61398 220.11529
#
# Poissons Ratio (x) = -0.21263 0.02349
# Poissons Ratio (y) = -0.18837 0.22253
# Poissons Ratio (z) = 0.00582 0.06229
#
# Static dielectric constant tensor:
#      x y z
#    x 2.069220 0.000000 0.164840 
#    y 0.000000 1.883070 0.000000 
#    z 0.164840 0.000000 1.802930 
# 
# From -- ./inp_files/32718.got.cif
#   From: 2010.05.17/outbox.cif.g08.bks.cpg/sg15_17_cif.got.tgz:32718.got - 2010.06.03 18:47:42.
