data_PCOD9298445
_publ_section_title
;
Structure prediction by ZEFSAII (Michael W. Deem and Ramdas Pophale) SiO2 
 PCOD9298445
Probable space group: C 2/C
;
_chemical_formula_sum "Si O2"
_cell_formula_units_Z 48
_cell_length_a 14.495294
_cell_length_b 12.520588
_cell_length_c 14.115432
_cell_angle_alpha 90.000000
_cell_angle_beta 51.877003
_cell_angle_gamma 90.000000
_cell_volume 2015.338794
_symmetry_space_group_name_H-M "C 2/C"
_symmetry_group_IT_number 15
_symmetry_cell_setting 'monoclinic'
loop_
_space_group_symop_operation_xyz
x,y,z
-x,y,1/2-z
-x,-y,-z
x,-y,1/2+z
1/2+x,1/2+y,z
1/2-x,1/2+y,1/2-z
1/2-x,1/2-y,-z
1/2+x,1/2-y,1/2+z
loop_
_atom_site_type_symbol
_atom_site_label
_atom_site_fract_x
_atom_site_fract_y
_atom_site_fract_z
Si Si1 0.793091 0.191581 0.332622
Si Si2 0.000000 0.902613 0.250000
Si Si3 0.454690 0.963981 0.927883
Si Si4 0.609116 0.418536 0.915725
Si Si5 0.783680 0.008438 0.479318
Si Si6 0.057770 0.242658 0.878610
Si Si7 0.500000 0.147406 0.750000
O O1 0.842002 0.110304 0.219411
O O2 0.672726 0.243415 0.370214
O O3 0.892722 0.278484 0.287325
O O4 0.772109 0.126745 0.443482
O O5 0.910611 0.972929 0.364499
O O6 0.927331 0.832798 0.221254
O O7 0.524633 0.858153 0.859275
O O8 0.469732 0.065772 0.852217
O O9 0.316852 0.940940 0.008626
O O10 0.500000 0.000000 0.000000
O O11 0.500000 0.500000 0.000000
O O12 0.711883 0.474542 0.913260
O O13 0.552303 0.308638 0.993741
#
# Coordination Sequence:
#
# PCOD9298445 Si02
#       7
#     8   4   8   8   8   8   4
#     4  12  26  48  76 109 148 197 251 311 373 448
#     4  10  24  44  70 104 140 192 240 304 366 442
#     4  12  27  47  70 110 150 192 243 310 375 440
#     4  11  26  47  77 110 149 198 250 308 373 446
#     4  11  26  46  76 104 150 190 250 306 372 445
#     4  11  26  44  73 107 148 192 251 301 377 445
#     4  12  30  46  76 108 152 196 254 304 376 444
#
# _framework density 23.817335
#
# number of rings (size 3 to 8) (size 9 to 14) (size 15 to 20)
#    0.000    0.667    1.667    5.000   11.667    2.000 
#    0.000    0.000    0.000    0.000    0.000    0.000 
#    0.000    0.000    0.000    0.000    0.000    0.000 
#
# Total GULP energy -134309.271384 kJ/mol
# GULP energy per Si atom -5596.219641 kJ/mol
# Density = 2.376313 g / cm^3
# Si number density = 23.817335 Si / 1000 Ang^3
#
#
#
# Elastic Constant Matrix: (Units=GPa)
#
#
# Indices 1 2 3 4 5 6 
#
# 1 169.6758 51.6160 26.0592 0.0000 6.8405 0.0000
# 2 51.6160 103.5819 29.1310 0.0000 11.2331 0.0000
# 3 26.0592 29.1310 87.0209 0.0000 20.2872 0.0000
# 4 0.0000 0.0000 0.0000 39.4596 0.0000 15.1416
# 5 6.8405 11.2331 20.2872 0.0000 36.3976 0.0000
# 6 0.0000 0.0000 0.0000 15.1416 0.0000 47.3143
#
#
#
# Elastic Compliance Matrix: (Units=1/GPa)
#
#
# Indices 1 2 3 4 5 6 
#
# 1 0.007032 -0.003228 -0.001091 0.000000 0.000283 0.000000
# 2 -0.003228 0.012210 -0.002740 0.000000 -0.001635 0.000000
# 3 -0.001091 -0.002740 0.014356 0.000000 -0.006951 0.000000
# 4 0.000000 0.000000 0.000000 0.028890 0.000000 -0.009245
# 5 0.000283 -0.001635 -0.006951 0.000000 0.031800 0.000000
# 6 0.000000 0.000000 0.000000 -0.009245 0.000000 0.024094
#
#
# Mechanical properties :
#
#
# Convention : Reuss Voigt Hill
#
# Bulk Modulus (GPa) = 51.33330 63.76566 57.54948
# Shear Modulus (GPa) = 35.97298 41.53246 38.75272
#
# Velocity S-wave (km/s) = 3.89056 4.18040 4.03808
# Velocity P-wave (km/s) = 6.46388 7.08039 6.77915
#
# Compressibility (1/GPa) = 0.01948053
#
# Stress axis : x y z
#
# Youngs Moduli (GPa) = 142.21381 81.89697 69.65761
#
# Poissons Ratio (x) = 0.26434 0.07600
# Poissons Ratio (y) = 0.45903 0.19085
# Poissons Ratio (z) = 0.15517 0.22439
#
# Static dielectric constant tensor:
#      x y z
#    x 2.028220 0.000000 0.004370 
#    y 0.000000 1.925300 0.000000 
#    z 0.004370 0.000000 1.958880 
# 
# From -- ./inp_files/152505.got.cif
#   From: 2010.05.17/outbox.cif.g08.bks.cpg/sg15_77_cif.got.tgz:152505.got - 2010.06.03 18:47:42.
