data_PCOD9298986
_publ_section_title
;
Structure prediction by ZEFSAII (Michael W. Deem and Ramdas Pophale) SiO2 
 PCOD9298986
Probable space group: C 2/C
;
_chemical_formula_sum "Si O2"
_cell_formula_units_Z 44
_cell_length_a 22.290571
_cell_length_b 11.904771
_cell_length_c 15.761137
_cell_angle_alpha 90.000000
_cell_angle_beta 23.117712
_cell_angle_gamma 90.000000
_cell_volume 1642.115877
_symmetry_space_group_name_H-M "C 2/C"
_symmetry_group_IT_number 15
_symmetry_cell_setting 'monoclinic'
loop_
_space_group_symop_operation_xyz
x,y,z
-x,y,1/2-z
-x,-y,-z
x,-y,1/2+z
1/2+x,1/2+y,z
1/2-x,1/2+y,1/2-z
1/2-x,1/2-y,-z
1/2+x,1/2-y,1/2+z
loop_
_atom_site_type_symbol
_atom_site_label
_atom_site_fract_x
_atom_site_fract_y
_atom_site_fract_z
Si Si1 0.000000 0.000000 0.000000
Si Si2 0.580837 0.496684 0.558845
Si Si3 0.078045 0.213908 0.740220
Si Si4 0.741081 0.193806 0.373913
Si Si5 0.092211 0.576485 0.315439
Si Si6 0.923146 0.361319 0.236456
O O1 0.101940 0.066317 0.944120
O O2 0.858134 0.094742 0.199851
O O3 0.500000 0.450527 0.750000
O O4 0.454527 0.587496 0.684216
O O5 0.729419 0.567369 0.391293
O O6 0.250000 0.250000 0.500000
O O7 0.027738 0.303505 0.875075
O O8 0.000000 0.221394 0.750000
O O9 0.821281 0.313060 0.291192
O O10 0.658228 0.174605 0.571943
O O11 0.594607 0.184899 0.503007
O O12 0.078618 0.495599 0.252205
O O13 0.000000 0.500000 0.500000
#
# Coordination Sequence:
#
# PCOD9298986 Si02
#       6
#     4   8   8   8   8   8
#     4  12  26  44  80 110 150 204 264 320 392 470
#     4  11  25  49  73 112 154 202 258 324 393 466
#     4  11  24  47  78 106 153 207 260 318 396 474
#     4  10  24  46  72 108 143 202 256 313 388 460
#     4  12  26  45  71 112 152 193 255 326 386 461
#     4  10  24  47  72 102 153 200 248 317 389 467
#
# _framework density 26.794699000000001
#
# number of rings (size 3 to 8) (size 9 to 14) (size 15 to 20)
#    0.000    1.091    3.636    2.182    7.636    1.455 
#    0.000    0.000    0.000    0.000    0.000    0.000 
#    0.000    0.000    0.000    0.000    0.000    0.000 
#
# Total GULP energy -122478.464510 kJ/mol
# GULP energy per Si atom -5567.202932 kJ/mol
# Density = 2.673371 g / cm^3
# Si number density = 26.794699 Si / 1000 Ang^3
#
#
#
# Elastic Constant Matrix: (Units=GPa)
#
#
# Indices 1 2 3 4 5 6 
#
# 1 79.0348 -16.8225 12.2165 0.0000 -15.9078 0.0000
# 2 -16.8225 102.9313 5.5817 0.0000 0.2074 0.0000
# 3 12.2165 5.5817 106.5582 0.0000 7.2591 0.0000
# 4 0.0000 0.0000 0.0000 29.6722 0.0000 -6.0266
# 5 -15.9078 0.2074 7.2591 0.0000 42.0228 0.0000
# 6 0.0000 0.0000 0.0000 -6.0266 0.0000 22.9453
#
#
#
# Elastic Compliance Matrix: (Units=1/GPa)
#
#
# Indices 1 2 3 4 5 6 
#
# 1 0.014729 0.002516 -0.002226 0.000000 0.005948 0.000000
# 2 0.002516 0.010173 -0.000893 0.000000 0.001057 0.000000
# 3 -0.002226 -0.000893 0.009860 0.000000 -0.002541 0.000000
# 4 0.000000 0.000000 0.000000 0.035601 0.000000 0.009351
# 5 0.005948 0.001057 -0.002541 0.000000 0.026482 0.000000
# 6 0.000000 0.000000 0.000000 0.009351 0.000000 0.046038
#
#
# Mechanical properties :
#
#
# Convention : Reuss Voigt Hill
#
# Bulk Modulus (GPa) = 29.80109 32.27508 31.03809
# Shear Modulus (GPa) = 32.20123 38.09795 35.14959
#
# Velocity S-wave (km/s) = 3.47043 3.77483 3.62582
# Velocity P-wave (km/s) = 5.21581 5.57410 5.39793
#
# Compressibility (1/GPa) = 0.03355582
#
# Stress axis : x y z
#
# Youngs Moduli (GPa) = 67.89162 98.30202 101.42384
#
# Poissons Ratio (x) = -0.24733 0.22573
# Poissons Ratio (y) = -0.17081 0.09060
# Poissons Ratio (z) = 0.15110 0.08781
#
# Static dielectric constant tensor:
#      x y z
#    x 2.071340 0.000000 -0.121380 
#    y 0.000000 2.268120 0.000000 
#    z -0.121380 0.000000 2.156170 
# 
# From -- ./inp_files/219670.got.cif
#   From: 2010.05.17/outbox.cif.g08.bks.cpg/sg15_110_cif.got.tgz:219670.got - 2010.06.03 18:47:42.
