data_PCOD9298636
_publ_section_title
;
Structure prediction by ZEFSAII (Michael W. Deem and Ramdas Pophale) SiO2 
 PCOD9298636
Probable space group: C 2/C
;
_chemical_formula_sum "Si O2"
_cell_formula_units_Z 56
_cell_length_a 15.388394
_cell_length_b 25.631898
_cell_length_c 9.208939
_cell_angle_alpha 90.000000
_cell_angle_beta 55.420519
_cell_angle_gamma 90.000000
_cell_volume 2990.630120
_symmetry_space_group_name_H-M "C 2/C"
_symmetry_group_IT_number 15
_symmetry_cell_setting 'monoclinic'
loop_
_space_group_symop_operation_xyz
x,y,z
-x,y,1/2-z
-x,-y,-z
x,-y,1/2+z
1/2+x,1/2+y,z
1/2-x,1/2+y,1/2-z
1/2-x,1/2-y,-z
1/2+x,1/2-y,1/2+z
loop_
_atom_site_type_symbol
_atom_site_label
_atom_site_fract_x
_atom_site_fract_y
_atom_site_fract_z
Si Si1 0.608590 0.018420 0.474240
Si Si2 0.500000 0.856428 0.750000
Si Si3 0.307459 0.934254 0.880019
Si Si4 0.409713 0.627594 0.927951
Si Si5 0.605284 0.188814 0.876078
Si Si6 0.315523 0.713907 0.816903
Si Si7 0.000000 0.389961 0.250000
Si Si8 0.493478 0.703396 0.084011
O O1 0.685325 0.033044 0.273010
O O2 0.577576 0.070293 0.592601
O O3 0.500000 0.000000 0.500000
O O4 0.660227 0.973522 0.521994
O O5 0.401639 0.891868 0.795560
O O6 0.534266 0.821705 0.583806
O O7 0.196176 0.905779 0.979180
O O8 0.500000 0.598967 0.750000
O O9 0.382733 0.678626 0.859794
O O10 0.451145 0.651902 0.039839
O O11 0.724434 0.182812 0.817608
O O12 0.566300 0.147617 0.793442
O O13 0.588408 0.248390 0.846148
O O14 0.401455 0.725084 0.604054
O O15 0.250000 0.750000 0.000000
O O16 0.500000 0.692259 0.250000
#
# Coordination Sequence:
#
# PCOD9298636 Si02
#       8
#     8   4   8   8   8   8   4   8
#     4  12  22  39  62  95 136 160 202 269 345 392
#     4  12  21  34  64  98 132 166 216 247 334 408
#     4  12  23  40  68  94 130 169 207 274 332 402
#     4  10  24  45  67  91 126 181 234 266 314 390
#     4  12  23  37  60  97 133 171 216 258 326 404
#     4  11  22  39  65  89 128 180 226 265 317 390
#     4  12  23  38  58  98 140 164 200 263 336 408
#     4  11  25  43  60  93 139 177 222 281 320 381
#
# _framework density 18.725151
#
# number of rings (size 3 to 8) (size 9 to 14) (size 15 to 20)
#    0.000    0.571    7.857    0.857    1.000    1.714 
#    0.000    2.143    0.000    0.000    0.000    0.000 
#    0.000    0.000    0.000    0.000    0.000    0.000 
#
# Total GULP energy -156007.744588 kJ/mol
# GULP energy per Si atom -5571.705164 kJ/mol
# Density = 1.868253 g / cm^3
# Si number density = 18.725151 Si / 1000 Ang^3
#
#
#
# Elastic Constant Matrix: (Units=GPa)
#
#
# Indices 1 2 3 4 5 6 
#
# 1 112.1195 33.9698 51.0111 0.0000 1.2014 0.0000
# 2 33.9698 53.4075 23.5481 0.0000 2.8694 0.0000
# 3 51.0111 23.5481 99.6070 0.0000 6.7154 0.0000
# 4 0.0000 0.0000 0.0000 -214.1895 0.0000 -36.0235
# 5 1.2014 2.8694 6.7154 0.0000 42.0000 0.0000
# 6 0.0000 0.0000 0.0000 -36.0235 0.0000 23.4414
#
#
#
# Elastic Compliance Matrix: (Units=1/GPa)
#
#
# Indices 1 2 3 4 5 6 
#
# 1 0.013198 -0.006069 -0.005385 0.000000 0.000898 0.000000
# 2 -0.006069 0.023710 -0.002426 0.000000 -0.001058 0.000000
# 3 -0.005385 -0.002426 0.013495 0.000000 -0.001838 0.000000
# 4 0.000000 0.000000 0.000000 -0.003710 0.000000 -0.005701
# 5 0.000898 -0.001058 -0.001838 0.000000 0.024150 0.000000
# 6 0.000000 0.000000 0.000000 -0.005701 0.000000 0.033898
#
#
# Mechanical properties :
#
#
# Convention : Reuss Voigt Hill
#
# Bulk Modulus (GPa) = 44.16206 53.57688 48.86947
# Shear Modulus (GPa) = 35.70181 -19.30930 8.19626
#
# Velocity S-wave (km/s) = 4.37123 -3.21471 2.09443
# Velocity P-wave (km/s) = 7.00802 3.85944 5.65719
#
# Compressibility (1/GPa) = 0.02264387
#
# Stress axis : x y z
#
# Youngs Moduli (GPa) = 75.76875 42.17541 74.10331
#
# Poissons Ratio (x) = 0.25594 0.39904
# Poissons Ratio (y) = 0.45981 0.17979
# Poissons Ratio (z) = 0.40801 0.10233
#
# Static dielectric constant tensor:
#      x y z
#    x 1.622110 0.000000 -0.016610 
#    y 0.000000 1.688980 0.000000 
#    z -0.016610 0.000000 1.723070 
# 
# From -- ./inp_files/42561.got.cif
#   From: 2010.05.17/outbox.cif.g08.bks.cpg/sg15_22_cif.got.tgz:42561.got - 2010.06.03 18:47:42.
