data_PCOD9298003
_publ_section_title
;
Structure prediction by ZEFSAII (Michael W. Deem and Ramdas Pophale) SiO2 
 PCOD9298003
Probable space group: C 2/C
;
_chemical_formula_sum "Si O2"
_cell_formula_units_Z 60
_cell_length_a 30.406045
_cell_length_b 10.800756
_cell_length_c 22.062460
_cell_angle_alpha 90.000000
_cell_angle_beta 25.035486
_cell_angle_gamma 90.000000
_cell_volume 3066.144693
_symmetry_space_group_name_H-M "C 2/C"
_symmetry_group_IT_number 15
_symmetry_cell_setting 'monoclinic'
loop_
_space_group_symop_operation_xyz
x,y,z
-x,y,1/2-z
-x,-y,-z
x,-y,1/2+z
1/2+x,1/2+y,z
1/2-x,1/2+y,1/2-z
1/2-x,1/2-y,-z
1/2+x,1/2-y,1/2+z
loop_
_atom_site_type_symbol
_atom_site_label
_atom_site_fract_x
_atom_site_fract_y
_atom_site_fract_z
Si Si1 0.560238 0.217618 0.325842
Si Si2 0.783634 0.667554 0.165972
Si Si3 0.263613 0.300321 0.635872
Si Si4 0.016192 0.917977 0.161345
Si Si5 0.456197 0.640483 0.066724
Si Si6 0.885998 0.556633 0.478976
Si Si7 0.524199 0.302252 0.617480
Si Si8 0.500000 0.888789 0.250000
O O1 0.671219 0.164537 0.206208
O O2 0.562667 0.341012 0.281760
O O3 0.504779 0.266931 0.456232
O O4 0.487888 0.122784 0.379353
O O5 0.776471 0.701613 0.245268
O O6 0.667598 0.646643 0.286984
O O7 0.843741 0.538923 0.081306
O O8 0.853590 0.766997 0.042391
O O9 0.366539 0.383937 0.505024
O O10 0.302827 0.163024 0.571013
O O11 0.000000 0.876321 0.250000
O O12 0.004498 0.063739 0.169851
O O13 0.483781 0.688304 0.099236
O O14 0.500000 0.500000 0.000000
O O15 0.911954 0.479058 0.386472
O O16 0.475369 0.199575 0.723332
#
# Coordination Sequence:
#
# PCOD9298003 Si02
#       8
#     8   8   8   8   8   8   8   4
#     4  11  23  41  67 100 130 173 216 277 328 390
#     4  11  23  40  66  99 131 173 211 281 335 384
#     4  11  23  40  68  99 130 169 221 276 330 385
#     4  11  24  43  66  95 134 175 217 274 320 398
#     4  12  21  39  69 102 132 166 218 275 336 388
#     4  10  24  43  64  92 137 172 220 264 330 397
#     4  11  23  44  68  95 135 170 223 265 335 401
#     4  10  24  50  64  86 138 188 202 274 328 392
#
# _framework density 19.568549000000001
#
# number of rings (size 3 to 8) (size 9 to 14) (size 15 to 20)
#    0.000    1.067    6.000    0.800    5.600    1.067 
#    4.800    2.667    0.000    0.000    0.000    0.000 
#    0.000    0.000    0.000    0.000    0.000    0.000 
#
# Total GULP energy -167474.740330 kJ/mol
# GULP energy per Si atom -5582.491344 kJ/mol
# Density = 1.952401 g / cm^3
# Si number density = 19.568549 Si / 1000 Ang^3
#
#
#
# Elastic Constant Matrix: (Units=GPa)
#
#
# Indices 1 2 3 4 5 6 
#
# 1 99.4800 14.3318 32.9676 0.0000 6.1191 0.0000
# 2 14.3318 67.4329 15.8313 -0.0004 9.8014 0.0001
# 3 32.9676 15.8313 59.0932 -0.0007 16.5245 0.0003
# 4 0.0000 -0.0004 -0.0007 23.7340 0.0003 11.7340
# 5 6.1191 9.8014 16.5245 0.0003 42.7716 -0.0001
# 6 0.0000 0.0001 0.0003 11.7340 -0.0001 21.3191
#
#
#
# Elastic Compliance Matrix: (Units=1/GPa)
#
#
# Indices 1 2 3 4 5 6 
#
# 1 0.012458 -0.001185 -0.006962 0.000000 0.001179 0.000000
# 2 -0.001185 0.016129 -0.002998 0.000000 -0.002368 0.000000
# 3 -0.006962 -0.002998 0.023700 0.000001 -0.007473 -0.000001
# 4 0.000000 0.000000 0.000001 0.057885 -0.000001 -0.031860
# 5 0.001179 -0.002368 -0.007473 -0.000001 0.026641 0.000001
# 6 0.000000 0.000000 -0.000001 -0.031860 0.000001 0.064442
#
#
# Mechanical properties :
#
#
# Convention : Reuss Voigt Hill
#
# Bulk Modulus (GPa) = 33.33680 39.14082 36.23881
# Shear Modulus (GPa) = 21.40923 28.42329 24.91626
#
# Velocity S-wave (km/s) = 3.31125 3.81530 3.57218
# Velocity P-wave (km/s) = 5.62957 6.28124 5.96431
#
# Compressibility (1/GPa) = 0.02999688
#
# Stress axis : x y z
#
# Youngs Moduli (GPa) = 80.27130 61.99859 42.19472
#
# Poissons Ratio (x) = 0.07344 0.29378
# Poissons Ratio (y) = 0.09508 0.12650
# Poissons Ratio (z) = 0.55889 0.18587
#
# Static dielectric constant tensor:
#      x y z
#    x 1.699880 0.000000 -0.032360 
#    y 0.000000 1.696160 0.000000 
#    z -0.032360 0.000000 1.744470 
# 
# From -- ./inp_files/222552.got.cif
#   From: 2010.05.17/outbox.cif.g08.bks.cpg/sg15_112_cif.got.tgz:222552.got - 2010.06.03 18:47:42.
