data_PCOD9298362
_publ_section_title
;
Structure prediction by ZEFSAII (Michael W. Deem and Ramdas Pophale) SiO2 
 PCOD9298362
Probable space group: C 2/C
;
_chemical_formula_sum "Si O2"
_cell_formula_units_Z 28
_cell_length_a 5.773648
_cell_length_b 18.246784
_cell_length_c 11.562060
_cell_angle_alpha 90.000000
_cell_angle_beta 108.208741
_cell_angle_gamma 90.000000
_cell_volume 1157.073352
_symmetry_space_group_name_H-M "C 2/C"
_symmetry_group_IT_number 15
_symmetry_cell_setting 'monoclinic'
loop_
_space_group_symop_operation_xyz
x,y,z
-x,y,1/2-z
-x,-y,-z
x,-y,1/2+z
1/2+x,1/2+y,z
1/2-x,1/2+y,1/2-z
1/2-x,1/2-y,-z
1/2+x,1/2-y,1/2+z
loop_
_atom_site_type_symbol
_atom_site_label
_atom_site_fract_x
_atom_site_fract_y
_atom_site_fract_z
Si Si1 0.123184 0.981941 0.895810
Si Si2 0.773240 0.305115 0.288872
Si Si3 0.546394 0.113138 0.491716
Si Si4 0.500000 0.165480 0.250000
O O1 0.263653 0.906246 0.942892
O O2 0.000000 0.978088 0.750000
O O3 0.322002 0.047950 0.918855
O O4 0.000000 0.000000 0.000000
O O5 0.500000 0.340633 0.250000
O O6 0.875928 0.312616 0.434038
O O7 0.704247 0.223171 0.238342
O O8 0.000000 0.335367 0.250000
O O9 0.614408 0.117340 0.368121
#
# Coordination Sequence:
#
# PCOD9298362 Si02
#       4
#     8   8   8   4
#     4  11  26  43  71 102 141 195 244 308 361 432
#     4  10  25  44  72 106 146 188 239 293 368 433
#     4  11  24  44  69 100 146 184 248 294 369 428
#     4  10  24  44  68 108 142 194 234 302 358 448
#
# _framework density 24.198982999999998
#
# number of rings (size 3 to 8) (size 9 to 14) (size 15 to 20)
#    0.857    0.571    0.000    3.429    8.000    6.857 
#    0.000    0.000    0.000    0.000    0.000    0.000 
#    0.000    0.000    0.000    0.000    0.000    0.000 
#
# Total GULP energy -77937.310459 kJ/mol
# GULP energy per Si atom -5566.950747 kJ/mol
# Density = 2.414390 g / cm^3
# Si number density = 24.198983 Si / 1000 Ang^3
#
#
#
# Elastic Constant Matrix: (Units=GPa)
#
#
# Indices 1 2 3 4 5 6 
#
# 1 137.8867 15.5919 63.8314 0.0000 1.3698 0.0000
# 2 15.5919 51.6672 34.7595 0.0000 19.6199 0.0000
# 3 63.8314 34.7595 212.0256 0.0000 24.8476 0.0000
# 4 0.0000 0.0000 0.0000 38.1190 0.0000 15.1347
# 5 1.3698 19.6199 24.8476 0.0000 35.1119 0.0000
# 6 0.0000 0.0000 0.0000 15.1347 0.0000 -14.9936
#
#
#
# Elastic Compliance Matrix: (Units=1/GPa)
#
#
# Indices 1 2 3 4 5 6 
#
# 1 0.008635 -0.001813 -0.002597 0.000000 0.002514 0.000000
# 2 -0.001813 0.026380 -0.002246 0.000000 -0.013081 0.000000
# 3 -0.002597 -0.002246 0.006224 0.000000 -0.003048 0.000000
# 4 0.000000 0.000000 0.000000 0.018728 0.000000 0.018904
# 5 0.002514 -0.013081 -0.003048 0.000000 0.037849 0.000000
# 6 0.000000 0.000000 0.000000 0.018904 0.000000 -0.047613
#
#
# Mechanical properties :
#
#
# Convention : Reuss Voigt Hill
#
# Bulk Modulus (GPa) = 35.80891 69.99388 52.90140
# Shear Modulus (GPa) = 68.66027 30.80723 49.73375
#
# Velocity S-wave (km/s) = 5.33243 3.57189 4.53835
# Velocity P-wave (km/s) = 7.26243 6.78221 7.02642
#
# Compressibility (1/GPa) = 0.02792601
#
# Stress axis : x y z
#
# Youngs Moduli (GPa) = 115.81381 37.90751 160.67904
#
# Poissons Ratio (x) = 0.06874 0.41726
# Poissons Ratio (y) = 0.21001 0.36086
# Poissons Ratio (z) = 0.30075 0.08514
#
# Static dielectric constant tensor:
#      x y z
#    x 2.085690 0.000000 -0.056490 
#    y 0.000000 1.921460 0.000000 
#    z -0.056490 0.000000 1.963800 
# 
# From -- ./inp_files/71618.got.cif
#   From: 2010.05.17/outbox.cif.g08.bks.cpg/sg15_36_cif.got.tgz:71618.got - 2010.06.03 18:47:42.
