data_PCOD9298258
_publ_section_title
;
Structure prediction by ZEFSAII (Michael W. Deem and Ramdas Pophale) SiO2 
 PCOD9298258
Probable space group: C 2/C
;
_chemical_formula_sum "Si O2"
_cell_formula_units_Z 56
_cell_length_a 25.062045
_cell_length_b 9.372348
_cell_length_c 14.790415
_cell_angle_alpha 90.000000
_cell_angle_beta 58.978927
_cell_angle_gamma 90.000000
_cell_volume 2977.246892
_symmetry_space_group_name_H-M "C 2/C"
_symmetry_group_IT_number 15
_symmetry_cell_setting 'monoclinic'
loop_
_space_group_symop_operation_xyz
x,y,z
-x,y,1/2-z
-x,-y,-z
x,-y,1/2+z
1/2+x,1/2+y,z
1/2-x,1/2+y,1/2-z
1/2-x,1/2-y,-z
1/2+x,1/2-y,1/2+z
loop_
_atom_site_type_symbol
_atom_site_label
_atom_site_fract_x
_atom_site_fract_y
_atom_site_fract_z
Si Si1 0.051564 0.830510 0.128090
Si Si2 0.668767 0.841928 0.001284
Si Si3 0.757349 0.415627 0.390143
Si Si4 0.307594 0.301693 0.510492
Si Si5 0.833401 0.586056 0.644805
Si Si6 0.529536 0.156634 0.965164
Si Si7 0.042298 0.168747 0.124153
O O1 0.122898 0.790289 0.091812
O O2 0.000000 0.807752 0.250000
O O3 0.050463 0.998753 0.104317
O O4 0.033658 0.734463 0.058130
O O5 0.692771 0.917575 0.071708
O O6 0.608353 0.747725 0.075444
O O7 0.724364 0.737991 0.920849
O O8 0.656031 0.954157 0.932670
O O9 0.706034 0.534280 0.455845
O O10 0.788111 0.445795 0.266977
O O11 0.250000 0.250000 0.500000
O O12 0.307968 0.210989 0.602328
O O13 0.899270 0.635354 0.627502
O O14 0.492154 0.256073 0.929269
O O15 0.500000 0.000000 0.000000
O O16 0.000000 0.188990 0.250000
#
# Coordination Sequence:
#
# PCOD9298258 Si02
#       7
#     8   8   8   8   8   8   8
#     4  10  24  44  64  90 127 169 210 255 316 380
#     4  11  22  41  63  90 125 161 210 259 311 374
#     4  11  23  40  63  89 125 165 207 257 313 374
#     4  11  22  42  63  92 127 161 209 259 311 376
#     4  11  23  41  61  93 126 163 203 260 319 371
#     4  11  23  40  62  93 125 156 209 259 311 376
#     4  11  22  42  65  89 121 170 210 256 312 377
#
# _framework density 18.809324
#
# number of rings (size 3 to 8) (size 9 to 14) (size 15 to 20)
#    0.000    1.143    4.286    2.143    0.000    1.714 
#    2.571    1.429    0.000    0.000    0.000    0.000 
#    0.000    0.000    0.000    0.000    0.000    0.000 
#
# Total GULP energy -156397.838608 kJ/mol
# GULP energy per Si atom -5585.637093 kJ/mol
# Density = 1.876651 g / cm^3
# Si number density = 18.809324 Si / 1000 Ang^3
#
#
#
# Elastic Constant Matrix: (Units=GPa)
#
#
# Indices 1 2 3 4 5 6 
#
# 1 114.7921 26.3212 51.4874 0.0000 -14.9767 0.0000
# 2 26.3212 82.5776 36.9994 0.0000 1.0356 0.0000
# 3 51.4874 36.9994 101.7499 0.0000 -14.0107 0.0000
# 4 0.0000 0.0000 0.0000 18.3367 0.0000 -5.2629
# 5 -14.9767 1.0356 -14.0107 0.0000 16.2453 0.0000
# 6 0.0000 0.0000 0.0000 -5.2629 0.0000 38.2339
#
#
#
# Elastic Compliance Matrix: (Units=1/GPa)
#
#
# Indices 1 2 3 4 5 6 
#
# 1 0.012109 -0.001999 -0.004364 0.000000 0.007527 0.000000
# 2 -0.001999 0.015368 -0.005635 0.000000 -0.007682 0.000000
# 3 -0.004364 -0.005635 0.015411 0.000000 0.009627 0.000000
# 4 0.000000 0.000000 0.000000 0.056779 0.000000 0.007816
# 5 0.007527 -0.007682 0.009627 0.000000 0.077288 0.000000
# 6 0.000000 0.000000 0.000000 0.007816 0.000000 0.027231
#
#
# Mechanical properties :
#
#
# Convention : Reuss Voigt Hill
#
# Bulk Modulus (GPa) = 52.93008 58.74840 55.83924
# Shear Modulus (GPa) = 21.32399 26.85063 24.08731
#
# Velocity S-wave (km/s) = 3.37069 3.78235 3.58244
# Velocity P-wave (km/s) = 6.58408 7.09763 6.84567
#
# Compressibility (1/GPa) = 0.01889285
#
# Stress axis : x y z
#
# Youngs Moduli (GPa) = 82.58175 65.07086 64.88904
#
# Poissons Ratio (x) = 0.13006 0.28319
# Poissons Ratio (y) = 0.16506 0.36562
# Poissons Ratio (z) = 0.36041 0.36665
#
# Static dielectric constant tensor:
#      x y z
#    x 1.677450 0.000000 -0.049410 
#    y 0.000000 1.643770 0.000000 
#    z -0.049410 0.000000 1.654980 
# 
# From -- ./inp_files/172300.got.cif
#   From: 2010.05.17/outbox.cif.g08.bks.cpg/sg15_87_cif.got.tgz:172300.got - 2010.06.03 18:47:42.
