data_PCOD9298230
_publ_section_title
;
Structure prediction by ZEFSAII (Michael W. Deem and Ramdas Pophale) SiO2 
 PCOD9298230
Probable space group: C 2/C
;
_chemical_formula_sum "Si O2"
_cell_formula_units_Z 48
_cell_length_a 13.677098
_cell_length_b 14.016983
_cell_length_c 14.288883
_cell_angle_alpha 90.000000
_cell_angle_beta 48.354210
_cell_angle_gamma 90.000000
_cell_volume 2047.023061
_symmetry_space_group_name_H-M "C 2/C"
_symmetry_group_IT_number 15
_symmetry_cell_setting 'monoclinic'
loop_
_space_group_symop_operation_xyz
x,y,z
-x,y,1/2-z
-x,-y,-z
x,-y,1/2+z
1/2+x,1/2+y,z
1/2-x,1/2+y,1/2-z
1/2-x,1/2-y,-z
1/2+x,1/2-y,1/2+z
loop_
_atom_site_type_symbol
_atom_site_label
_atom_site_fract_x
_atom_site_fract_y
_atom_site_fract_z
Si Si1 0.789637 0.069164 0.309824
Si Si2 0.116038 0.579784 0.814786
Si Si3 0.336410 0.038781 0.928977
Si Si4 0.006492 0.087508 0.858245
Si Si5 0.275103 0.155029 0.425982
Si Si6 0.789959 0.755755 0.231126
O O1 0.783755 0.055561 0.425189
O O2 0.764534 0.180110 0.308010
O O3 0.670239 0.008651 0.339937
O O4 0.916493 0.013599 0.188119
O O5 0.174663 0.570943 0.671514
O O6 0.169998 0.673781 0.830427
O O7 0.962620 0.586261 0.895430
O O8 0.366273 0.925465 0.911141
O O9 0.093512 0.168547 0.854483
O O10 0.000000 0.111078 0.750000
O O11 0.863312 0.099112 0.992720
O O12 0.250000 0.250000 0.500000
O O13 0.326020 0.189461 0.294996
#
# Coordination Sequence:
#
# PCOD9298230 Si02
#       6
#     8   8   8   8   8   8
#     4  11  23  43  66  96 133 177 217 277 333 388
#     4  10  24  44  62 104 132 170 226 271 326 405
#     4  11  23  42  68  91 140 174 213 278 336 386
#     4  11  23  43  64 100 134 163 231 276 320 401
#     4  12  23  40  70  99 125 179 221 278 330 381
#     4  11  25  42  67  99 130 174 228 269 332 398
#
# _framework density 23.448685000000001
#
# number of rings (size 3 to 8) (size 9 to 14) (size 15 to 20)
#    0.000    1.000    5.000    1.500    4.667    1.333 
#    3.000    0.000    0.000    0.000    0.000    0.000 
#    0.000    0.000    0.000    0.000    0.000    0.000 
#
# Total GULP energy -134049.337316 kJ/mol
# GULP energy per Si atom -5585.389055 kJ/mol
# Density = 2.339531 g / cm^3
# Si number density = 23.448685 Si / 1000 Ang^3
#
#
#
# Elastic Constant Matrix: (Units=GPa)
#
#
# Indices 1 2 3 4 5 6 
#
# 1 54.0541 8.7317 -10.7212 0.0000 -9.3543 0.0000
# 2 8.7317 107.9130 -2.9067 0.0000 -2.3487 0.0000
# 3 -10.7212 -2.9067 35.0557 0.0000 -3.0847 0.0000
# 4 0.0000 0.0000 0.0000 19.7152 0.0000 10.4308
# 5 -9.3543 -2.3487 -3.0847 0.0000 31.9170 0.0000
# 6 0.0000 0.0000 0.0000 10.4308 0.0000 40.4206
#
#
#
# Elastic Compliance Matrix: (Units=1/GPa)
#
#
# Indices 1 2 3 4 5 6 
#
# 1 0.021291 -0.001386 0.006996 0.000000 0.006814 0.000000
# 2 -0.001386 0.009396 0.000384 0.000000 0.000322 0.000000
# 3 0.006996 0.000384 0.031145 0.000000 0.005089 0.000000
# 4 0.000000 0.000000 0.000000 0.058742 0.000000 -0.015159
# 5 0.006814 0.000322 0.005089 0.000000 0.033844 0.000000
# 6 0.000000 0.000000 0.000000 -0.015159 0.000000 0.028652
#
#
# Mechanical properties :
#
#
# Convention : Reuss Voigt Hill
#
# Bulk Modulus (GPa) = 13.54656 20.80340 17.17498
# Shear Modulus (GPa) = 25.55073 31.87183 28.71128
#
# Velocity S-wave (km/s) = 3.30456 3.69075 3.50298
# Velocity P-wave (km/s) = 4.51107 5.20129 4.86843
#
# Compressibility (1/GPa) = 0.07381949
#
# Stress axis : x y z
#
# Youngs Moduli (GPa) = 46.96894 106.42580 32.10761
#
# Poissons Ratio (x) = 0.14750 -0.22463
# Poissons Ratio (y) = 0.06510 -0.01232
# Poissons Ratio (z) = -0.32860 -0.04082
#
# Static dielectric constant tensor:
#      x y z
#    x 1.903370 0.000000 -0.006370 
#    y 0.000000 1.909140 0.000000 
#    z -0.006370 0.000000 1.943990 
# 
# From -- ./inp_files/153789.got.cif
#   From: 2010.05.17/outbox.cif.g08.bks.cpg/sg15_77_cif.got.tgz:153789.got - 2010.06.03 18:47:42.
