data_PCOD9298602
_publ_section_title
;
Structure prediction by ZEFSAII (Michael W. Deem and Ramdas Pophale) SiO2 
 PCOD9298602
Probable space group: C 2/C
;
_chemical_formula_sum "Si O2"
_cell_formula_units_Z 60
_cell_length_a 24.757656
_cell_length_b 11.149864
_cell_length_c 18.159282
_cell_angle_alpha 90.000000
_cell_angle_beta 38.119016
_cell_angle_gamma 90.000000
_cell_volume 3094.367896
_symmetry_space_group_name_H-M "C 2/C"
_symmetry_group_IT_number 15
_symmetry_cell_setting 'monoclinic'
loop_
_space_group_symop_operation_xyz
x,y,z
-x,y,1/2-z
-x,-y,-z
x,-y,1/2+z
1/2+x,1/2+y,z
1/2-x,1/2+y,1/2-z
1/2-x,1/2-y,-z
1/2+x,1/2-y,1/2+z
loop_
_atom_site_type_symbol
_atom_site_label
_atom_site_fract_x
_atom_site_fract_y
_atom_site_fract_z
Si Si1 0.661047 0.191404 0.834311
Si Si2 0.711504 0.888087 0.537251
Si Si3 0.373663 0.452158 0.286502
Si Si4 0.862028 0.229264 0.658107
Si Si5 0.618247 0.971820 0.778148
Si Si6 0.558740 0.878588 0.588556
Si Si7 0.000000 0.174068 0.750000
Si Si8 0.527724 0.615100 0.422818
O O1 0.764106 0.214808 0.732502
O O2 0.604651 0.310337 0.879354
O O3 0.640129 0.096698 0.792630
O O4 0.621980 0.137537 0.951599
O O5 0.750000 0.750000 0.500000
O O6 0.775508 0.968736 0.419364
O O7 0.691542 0.934874 0.639914
O O8 0.619011 0.898897 0.594789
O O9 0.369140 0.355885 0.223735
O O10 0.418542 0.403075 0.312428
O O11 0.430104 0.563023 0.196603
O O12 0.879877 0.364671 0.664362
O O13 0.938740 0.192048 0.519272
O O14 0.521289 0.965370 0.846063
O O15 0.516609 0.752389 0.659165
O O16 0.500000 0.500000 0.500000
#
# Coordination Sequence:
#
# PCOD9298602 Si02
#       8
#     8   8   8   8   8   8   4   8
#     4  12  26  40  68 100 137 178 225 282 353 415
#     4  12  20  38  66 100 132 164 231 290 346 398
#     4  11  22  39  63  97 130 172 227 280 339 408
#     4  11  22  40  64  98 134 175 225 283 337 400
#     4  12  24  40  64 103 134 171 228 289 350 400
#     4  12  19  38  63  95 132 167 220 293 337 392
#     4  12  20  36  66  92 122 172 222 284 336 388
#     4  10  24  45  62  93 140 178 223 274 344 420
#
# _framework density 19.390067999999999
#
# number of rings (size 3 to 8) (size 9 to 14) (size 15 to 20)
#    0.000    0.533    8.000    1.200    3.733    1.067 
#    0.000    0.667    2.933    0.000    0.000    0.000 
#    0.000    0.000    0.000    0.000    0.000    0.000 
#
# Total GULP energy -167348.975064 kJ/mol
# GULP energy per Si atom -5578.299169 kJ/mol
# Density = 1.934593 g / cm^3
# Si number density = 19.390068 Si / 1000 Ang^3
#
#
#
# Elastic Constant Matrix: (Units=GPa)
#
#
# Indices 1 2 3 4 5 6 
#
# 1 104.4237 38.5431 27.7271 0.0000 -26.5050 0.0000
# 2 38.5431 62.8797 30.0160 -0.0001 -3.1355 0.0000
# 3 27.7271 30.0160 119.4619 0.0000 -13.3067 0.0000
# 4 0.0000 -0.0001 0.0000 18.0685 0.0000 8.7873
# 5 -26.5050 -3.1355 -13.3067 0.0000 39.2527 0.0000
# 6 0.0000 0.0000 0.0000 8.7873 0.0000 16.5377
#
#
#
# Elastic Compliance Matrix: (Units=1/GPa)
#
#
# Indices 1 2 3 4 5 6 
#
# 1 0.015313 -0.008773 -0.000287 0.000000 0.009542 0.000000
# 2 -0.008773 0.023098 -0.004387 0.000000 -0.005566 0.000000
# 3 -0.000287 -0.004387 0.009851 0.000000 0.002795 0.000000
# 4 0.000000 0.000000 0.000000 0.074630 0.000000 -0.039655
# 5 0.009542 -0.005566 0.002795 0.000000 0.032422 0.000000
# 6 0.000000 0.000000 0.000000 -0.039655 0.000000 0.081538
#
#
# Mechanical properties :
#
#
# Convention : Reuss Voigt Hill
#
# Bulk Modulus (GPa) = 46.80187 53.25975 50.03081
# Shear Modulus (GPa) = 18.45904 27.47038 22.96471
#
# Velocity S-wave (km/s) = 3.08877 3.76802 3.44518
# Velocity P-wave (km/s) = 6.07537 6.81600 6.45631
#
# Compressibility (1/GPa) = 0.02136667
#
# Stress axis : x y z
#
# Youngs Moduli (GPa) = 65.30502 43.29383 101.51074
#
# Poissons Ratio (x) = 0.37984 0.02912
# Poissons Ratio (y) = 0.57295 0.44536
# Poissons Ratio (z) = 0.01873 0.18994
#
# Static dielectric constant tensor:
#      x y z
#    x 1.770660 0.000000 -0.066980 
#    y 0.000000 1.717530 0.000000 
#    z -0.066980 0.000000 1.738970 
# 
# From -- ./inp_files/219291.got.cif
#   From: 2010.05.17/outbox.cif.g08.bks.cpg/sg15_110_cif.got.tgz:219291.got - 2010.06.03 18:47:42.
