data_PCOD9298633
_publ_section_title
;
Structure prediction by ZEFSAII (Michael W. Deem and Ramdas Pophale) SiO2 
 PCOD9298633
Probable space group: C 2/C
;
_chemical_formula_sum "Si O2"
_cell_formula_units_Z 40
_cell_length_a 23.104283
_cell_length_b 5.053442
_cell_length_c 22.936160
_cell_angle_alpha 90.000000
_cell_angle_beta 146.244161
_cell_angle_gamma 90.000000
_cell_volume 1488.009452
_symmetry_space_group_name_H-M "C 2/C"
_symmetry_group_IT_number 15
_symmetry_cell_setting 'monoclinic'
loop_
_space_group_symop_operation_xyz
x,y,z
-x,y,1/2-z
-x,-y,-z
x,-y,1/2+z
1/2+x,1/2+y,z
1/2-x,1/2+y,1/2-z
1/2-x,1/2-y,-z
1/2+x,1/2-y,1/2+z
loop_
_atom_site_type_symbol
_atom_site_label
_atom_site_fract_x
_atom_site_fract_y
_atom_site_fract_z
Si Si1 0.191222 0.918616 0.183388
Si Si2 0.684128 0.307251 0.043906
Si Si3 0.468353 0.503345 0.356792
Si Si4 0.425495 0.951289 0.602111
Si Si5 0.135977 0.710111 0.328584
O O1 0.228324 0.662918 0.251235
O O2 0.176091 0.804087 0.106418
O O3 0.093343 0.042754 0.135470
O O4 0.761623 0.535904 0.093890
O O5 0.558946 0.282987 0.919276
O O6 0.696835 0.052904 0.014529
O O7 0.386829 0.445639 0.236984
O O8 0.541746 0.244834 0.424494
O O9 0.392479 0.743977 0.628331
O O10 0.544472 0.993826 0.729095
#
# Coordination Sequence:
#
# PCOD9298633 Si02
#       5
#     8   8   8   8   8
#     4  12  28  48  77 106 149 199 245 310 370 432
#     4  12  24  42  76 100 142 202 239 305 373 442
#     4  10  24  45  67 106 143 190 247 305 367 444
#     4   9  22  45  68 102 144 183 245 300 364 446
#     4   9  21  48  62 107 147 180 248 306 367 437
#
# _framework density 26.881549
#
# number of rings (size 3 to 8) (size 9 to 14) (size 15 to 20)
#    1.200    0.400    2.000    1.200    8.400    1.600 
#    7.200    0.000    0.000    0.000    0.000    0.000 
#    0.000    0.000    0.000    0.000    0.000    0.000 
#
# Total GULP energy -111356.194597 kJ/mol
# GULP energy per Si atom -5567.809730 kJ/mol
# Density = 2.682037 g / cm^3
# Si number density = 26.881549 Si / 1000 Ang^3
#
#
#
# Elastic Constant Matrix: (Units=GPa)
#
#
# Indices 1 2 3 4 5 6 
#
# 1 125.2810 -0.4745 14.7570 -0.0003 -10.6586 0.0009
# 2 -0.4745 88.9408 -9.6500 0.0051 -5.5997 0.0203
# 3 14.7570 -9.6500 86.9159 0.0007 -4.8626 0.0004
# 4 -0.0003 0.0051 0.0007 34.9515 -0.0009 0.4567
# 5 -10.6586 -5.5997 -4.8626 -0.0009 31.5204 -0.0028
# 6 0.0009 0.0203 0.0004 0.4567 -0.0028 5.7652
#
#
#
# Elastic Compliance Matrix: (Units=1/GPa)
#
#
# Indices 1 2 3 4 5 6 
#
# 1 0.008356 0.000074 -0.001263 0.000000 0.002644 0.000000
# 2 0.000074 0.011540 0.001397 -0.000001 0.002291 -0.000040
# 3 -0.001263 0.001397 0.011968 0.000000 0.001667 -0.000005
# 4 0.000000 -0.000001 0.000000 0.028641 0.000000 -0.002269
# 5 0.002644 0.002291 0.001667 0.000000 0.033284 0.000008
# 6 0.000000 -0.000040 -0.000005 -0.002269 0.000008 0.173635
#
#
# Mechanical properties :
#
#
# Convention : Reuss Voigt Hill
#
# Bulk Modulus (GPa) = 30.97873 34.48918 32.73395
# Shear Modulus (GPa) = 18.00070 34.21441 26.10756
#
# Velocity S-wave (km/s) = 2.59053 3.57148 3.11980
# Velocity P-wave (km/s) = 4.52736 5.46491 5.01808
#
# Compressibility (1/GPa) = 0.03228021
#
# Stress axis : x y z
#
# Youngs Moduli (GPa) = 119.67443 86.65813 83.55539
#
# Poissons Ratio (x) = -0.00642 0.10550
# Poissons Ratio (y) = -0.00886 -0.11671
# Poissons Ratio (z) = 0.15110 -0.12104
#
# Static dielectric constant tensor:
#      x y z
#    x 2.111890 0.000000 0.155960 
#    y 0.000000 2.273530 0.000020 
#    z 0.155960 0.000020 2.278100 
# 
# From -- ./inp_files/179860.got.cif
#   From: 2010.05.17/outbox.cif.g08.bks.cpg/sg15_90_cif.got.tgz:179860.got - 2010.06.03 18:47:42.
