data_PCOD9298456
_publ_section_title
;
Structure prediction by ZEFSAII (Michael W. Deem and Ramdas Pophale) SiO2 
 PCOD9298456
Probable space group: C 2/C
;
_chemical_formula_sum "Si O2"
_cell_formula_units_Z 40
_cell_length_a 17.090293
_cell_length_b 6.227079
_cell_length_c 19.363436
_cell_angle_alpha 90.000000
_cell_angle_beta 123.170358
_cell_angle_gamma 90.000000
_cell_volume 1724.909855
_symmetry_space_group_name_H-M "C 2/C"
_symmetry_group_IT_number 15
_symmetry_cell_setting 'monoclinic'
loop_
_space_group_symop_operation_xyz
x,y,z
-x,y,1/2-z
-x,-y,-z
x,-y,1/2+z
1/2+x,1/2+y,z
1/2-x,1/2+y,1/2-z
1/2-x,1/2-y,-z
1/2+x,1/2-y,1/2+z
loop_
_atom_site_type_symbol
_atom_site_label
_atom_site_fract_x
_atom_site_fract_y
_atom_site_fract_z
Si Si1 0.608839 0.724535 0.656055
Si Si2 0.635456 0.592374 0.043478
Si Si3 0.500000 0.000000 0.500000
Si Si4 0.942458 0.951705 0.632036
Si Si5 0.500000 0.922744 0.250000
Si Si6 0.329926 0.748125 0.673014
O O1 0.633363 0.549631 0.610667
O O2 0.521371 0.631109 0.657920
O O3 0.687280 0.736758 0.753179
O O4 0.578053 0.933527 0.598659
O O5 0.737380 0.692958 0.086712
O O6 0.610397 0.439731 0.966395
O O7 0.558120 0.778503 0.010445
O O8 0.873817 0.036834 0.658604
O O9 0.990006 0.733504 0.679259
O O10 0.592804 0.064704 0.295817
#
# Coordination Sequence:
#
# PCOD9298456 Si02
#       6
#     8   8   4   8   4   8
#     4  11  24  43  69 105 137 186 234 294 352 438
#     4  11  28  43  73 106 143 184 242 294 362 429
#     4  10  24  44  70  92 144 184 222 288 368 410
#     4  11  23  48  69 100 140 183 246 289 353 435
#     4  12  24  42  76  92 142 194 230 298 368 400
#     4  12  26  44  70 108 142 185 243 298 352 435
#
# _framework density 23.189616999999998
#
# number of rings (size 3 to 8) (size 9 to 14) (size 15 to 20)
#    0.000    0.800    4.000    3.000    8.400    2.400 
#    0.000    0.000    0.000    0.000    0.000    0.000 
#    0.000    0.000    0.000    0.000    0.000    0.000 
#
# Total GULP energy -111398.353019 kJ/mol
# GULP energy per Si atom -5569.917651 kJ/mol
# Density = 2.313684 g / cm^3
# Si number density = 23.189617 Si / 1000 Ang^3
#
#
#
# Elastic Constant Matrix: (Units=GPa)
#
#
# Indices 1 2 3 4 5 6 
#
# 1 34.1330 19.6130 19.1615 0.0000 -4.7638 0.0000
# 2 19.6130 65.3718 11.6144 0.0000 -10.7800 0.0000
# 3 19.1615 11.6144 112.0888 0.0000 -16.7594 0.0000
# 4 0.0000 0.0000 0.0000 55.4637 0.0000 -14.6773
# 5 -4.7638 -10.7800 -16.7594 0.0000 35.0739 0.0000
# 6 0.0000 0.0000 0.0000 -14.6773 0.0000 22.7893
#
#
#
# Elastic Compliance Matrix: (Units=1/GPa)
#
#
# Indices 1 2 3 4 5 6 
#
# 1 0.038456 -0.010665 -0.005576 0.000000 -0.000719 0.000000
# 2 -0.010665 0.019177 0.000539 0.000000 0.004703 0.000000
# 3 -0.005576 0.000539 0.010479 0.000000 0.004416 0.000000
# 4 0.000000 0.000000 0.000000 0.021734 0.000000 0.013998
# 5 -0.000719 0.004703 0.004416 0.000000 0.031969 0.000000
# 6 0.000000 0.000000 0.000000 0.013998 0.000000 0.052895
#
#
# Mechanical properties :
#
#
# Convention : Reuss Voigt Hill
#
# Bulk Modulus (GPa) = 27.24310 34.70794 30.97552
# Shear Modulus (GPa) = 22.89900 33.41236 28.15568
#
# Velocity S-wave (km/s) = 3.14581 3.79995 3.48825
# Velocity P-wave (km/s) = 4.99683 5.85255 5.44154
#
# Compressibility (1/GPa) = 0.03670654
#
# Stress axis : x y z
#
# Youngs Moduli (GPa) = 26.00401 52.14662 95.42799
#
# Poissons Ratio (x) = 0.55617 0.53214
# Poissons Ratio (y) = 0.27734 -0.05147
# Poissons Ratio (z) = 0.14501 -0.02813
#
# Static dielectric constant tensor:
#      x y z
#    x 1.825050 0.000000 0.006620 
#    y 0.000000 1.733150 0.000000 
#    z 0.006620 0.000000 1.932090 
# 
# From -- ./inp_files/246325.got.cif
#   From: 2010.05.17/outbox.cif.g08.bks.cpg/sg15_124_cif.got.tgz:246325.got - 2010.06.03 18:47:42.
