data_PCOD9298417
_publ_section_title
;
Structure prediction by ZEFSAII (Michael W. Deem and Ramdas Pophale) SiO2 
 PCOD9298417
Probable space group: C 2/C
;
_chemical_formula_sum "Si O2"
_cell_formula_units_Z 56
_cell_length_a 17.149547
_cell_length_b 12.016884
_cell_length_c 14.480395
_cell_angle_alpha 90.000000
_cell_angle_beta 116.930638
_cell_angle_gamma 90.000000
_cell_volume 2660.561482
_symmetry_space_group_name_H-M "C 2/C"
_symmetry_group_IT_number 15
_symmetry_cell_setting 'monoclinic'
loop_
_space_group_symop_operation_xyz
x,y,z
-x,y,1/2-z
-x,-y,-z
x,-y,1/2+z
1/2+x,1/2+y,z
1/2-x,1/2+y,1/2-z
1/2-x,1/2-y,-z
1/2+x,1/2-y,1/2+z
loop_
_atom_site_type_symbol
_atom_site_label
_atom_site_fract_x
_atom_site_fract_y
_atom_site_fract_z
Si Si1 0.172733 0.261093 0.531841
Si Si2 0.892436 0.514286 0.285617
Si Si3 0.401448 0.986924 0.080983
Si Si4 0.486962 0.657997 0.455763
Si Si5 0.543553 0.448875 0.173283
Si Si6 0.315948 0.742489 0.753231
Si Si7 0.650726 0.156496 0.588187
O O1 0.250000 0.250000 0.500000
O O2 0.131105 0.382817 0.495507
O O3 0.211718 0.245798 0.654497
O O4 0.088216 0.178965 0.480558
O O5 0.877625 0.468918 0.174731
O O6 0.870385 0.644597 0.270232
O O7 0.839617 0.442308 0.331385
O O8 0.994139 0.500676 0.366339
O O9 0.360570 0.097919 0.015908
O O10 0.442051 0.571359 0.361663
O O11 0.487635 0.608754 0.560358
O O12 0.434559 0.772547 0.431441
O O13 0.500000 0.457002 0.250000
O O14 0.625885 0.367523 0.228498
O O15 0.233649 0.735596 0.642366
#
# Coordination Sequence:
#
# PCOD9298417 Si02
#       7
#     8   8   8   8   8   8   8
#     4  11  22  44  69 100 135 176 222 287 333 400
#     4  11  24  43  69 101 130 177 229 275 339 409
#     4  11  23  41  71  99 131 178 228 273 347 399
#     4  10  24  44  69  97 130 181 226 269 340 408
#     4  10  24  45  66  93 136 179 221 275 338 401
#     4  11  26  41  67  98 139 174 226 280 334 403
#     4  12  24  44  69  97 139 173 225 284 334 400
#
# _framework density 21.048188
#
# number of rings (size 3 to 8) (size 9 to 14) (size 15 to 20)
#    0.000    1.143    2.857    3.000    6.000    4.000 
#    2.571    0.000    0.000    0.000    0.000    0.000 
#    0.000    0.000    0.000    0.000    0.000    0.000 
#
# Total GULP energy -156475.621208 kJ/mol
# GULP energy per Si atom -5588.415043 kJ/mol
# Density = 2.100028 g / cm^3
# Si number density = 21.048188 Si / 1000 Ang^3
#
#
#
# Elastic Constant Matrix: (Units=GPa)
#
#
# Indices 1 2 3 4 5 6 
#
# 1 44.5146 17.2704 29.9181 0.0000 -9.3859 0.0000
# 2 17.2704 84.3876 23.4027 0.0000 1.4711 0.0000
# 3 29.9181 23.4027 83.5771 0.0000 -7.4371 0.0000
# 4 0.0000 0.0000 0.0000 34.7244 0.0000 1.3177
# 5 -9.3859 1.4711 -7.4371 0.0000 26.9151 0.0000
# 6 0.0000 0.0000 0.0000 1.3177 0.0000 23.1133
#
#
#
# Elastic Compliance Matrix: (Units=1/GPa)
#
#
# Indices 1 2 3 4 5 6 
#
# 1 0.032425 -0.004109 -0.009668 0.000000 0.008860 0.000000
# 2 -0.004109 0.013448 -0.002550 0.000000 -0.002873 0.000000
# 3 -0.009668 -0.002550 0.016252 0.000000 0.001259 0.000000
# 4 0.000000 0.000000 0.000000 0.028861 0.000000 -0.001645
# 5 0.008860 -0.002873 0.001259 0.000000 0.040748 0.000000
# 6 0.000000 0.000000 0.000000 -0.001645 0.000000 0.043359
#
#
# Mechanical properties :
#
#
# Convention : Reuss Voigt Hill
#
# Bulk Modulus (GPa) = 33.93280 39.29573 36.61427
# Shear Modulus (GPa) = 22.98089 26.40977 24.69533
#
# Velocity S-wave (km/s) = 3.30786 3.54606 3.42903
# Velocity P-wave (km/s) = 5.54488 5.95617 5.75420
#
# Compressibility (1/GPa) = 0.02947001
#
# Stress axis : x y z
#
# Youngs Moduli (GPa) = 30.84050 74.35820 61.53079
#
# Poissons Ratio (x) = 0.30555 0.59488
# Poissons Ratio (y) = 0.12673 0.15693
# Poissons Ratio (z) = 0.29817 0.18964
#
# Static dielectric constant tensor:
#      x y z
#    x 1.748380 0.000000 -0.004000 
#    y 0.000000 1.758180 0.000000 
#    z -0.004000 0.000000 1.747820 
# 
# From -- ./inp_files/161406.got.cif
#   From: 2010.05.17/outbox.cif.g08.bks.cpg/sg15_81_cif.got.tgz:161406.got - 2010.06.03 18:47:42.
