data_PCOD9298927
_publ_section_title
;
Structure prediction by ZEFSAII (Michael W. Deem and Ramdas Pophale) SiO2 
 PCOD9298927
Probable space group: C 2/C
;
_chemical_formula_sum "Si O2"
_cell_formula_units_Z 28
_cell_length_a 5.165447
_cell_length_b 24.047190
_cell_length_c 10.165279
_cell_angle_alpha 90.000000
_cell_angle_beta 92.883446
_cell_angle_gamma 90.000000
_cell_volume 1261.076269
_symmetry_space_group_name_H-M "C 2/C"
_symmetry_group_IT_number 15
_symmetry_cell_setting 'monoclinic'
loop_
_space_group_symop_operation_xyz
x,y,z
-x,y,1/2-z
-x,-y,-z
x,-y,1/2+z
1/2+x,1/2+y,z
1/2-x,1/2+y,1/2-z
1/2-x,1/2-y,-z
1/2+x,1/2-y,1/2+z
loop_
_atom_site_type_symbol
_atom_site_label
_atom_site_fract_x
_atom_site_fract_y
_atom_site_fract_z
Si Si1 0.500000 0.440992 0.250000
Si Si2 0.000000 0.364627 0.250000
Si Si3 0.007089 0.710613 0.007187
Si Si4 0.500000 0.127722 0.250000
Si Si5 0.829115 0.481947 0.621179
O O1 0.257343 0.400614 0.237108
O O2 0.434060 0.482842 0.368490
O O3 0.009526 0.327661 0.379492
O O4 0.250000 0.750000 0.000000
O O5 0.060690 0.670494 0.133805
O O6 0.750000 0.750000 0.000000
O O7 0.687480 0.083452 0.336044
O O8 0.000000 0.501485 0.750000
O O9 0.000000 0.500000 0.500000
#
# Coordination Sequence:
#
# PCOD9298927 Si02
#       5
#     4   4   8   4   8
#     4  12  24  45  71 108 147 191 240 294 372 450
#     4  12  25  46  73 104 145 196 247 304 372 444
#     4  12  26  48  72 102 140 188 251 314 369 426
#     4  10  25  47  70 110 138 193 237 304 366 436
#     4  10  24  46  70 108 151 188 243 294 370 452
#
# _framework density 22.203257000000001
#
# number of rings (size 3 to 8) (size 9 to 14) (size 15 to 20)
#    0.857    0.000    1.429    5.143    0.000    3.429 
#    0.000    0.000    0.000    0.000    0.000    0.000 
#    0.000    0.000    0.000    0.000    0.000    0.000 
#
# Total GULP energy -77949.365225 kJ/mol
# GULP energy per Si atom -5567.811802 kJ/mol
# Density = 2.215272 g / cm^3
# Si number density = 22.203257 Si / 1000 Ang^3
#
#
#
# Elastic Constant Matrix: (Units=GPa)
#
#
# Indices 1 2 3 4 5 6 
#
# 1 178.6704 106.7704 54.1763 0.0000 -31.8118 0.0000
# 2 106.7704 220.0018 99.5573 0.0000 -22.5909 0.0000
# 3 54.1763 99.5573 223.9951 0.0000 -36.7890 0.0000
# 4 0.0000 0.0000 0.0000 35.1529 0.0000 -27.9688
# 5 -31.8118 -22.5909 -36.7890 0.0000 27.6597 0.0000
# 6 0.0000 0.0000 0.0000 -27.9688 0.0000 51.9931
#
#
#
# Elastic Compliance Matrix: (Units=1/GPa)
#
#
# Indices 1 2 3 4 5 6 
#
# 1 0.009259 -0.004049 0.000980 0.000000 0.008645 0.000000
# 2 -0.004049 0.007520 -0.002711 0.000000 -0.002122 0.000000
# 3 0.000980 -0.002711 0.006722 0.000000 0.007854 0.000000
# 4 0.000000 0.000000 0.000000 0.049733 0.000000 0.026753
# 5 0.008645 -0.002122 0.007854 0.000000 0.054810 0.000000
# 6 0.000000 0.000000 0.000000 0.026753 0.000000 0.033624
#
#
# Mechanical properties :
#
#
# Convention : Reuss Voigt Hill
#
# Bulk Modulus (GPa) = 83.75124 127.07503 105.41313
# Shear Modulus (GPa) = 28.21535 47.10536 37.66036
#
# Velocity S-wave (km/s) = 3.56866 4.61103 4.12292
# Velocity P-wave (km/s) = 7.40153 9.25773 8.38118
#
# Compressibility (1/GPa) = 0.01194012
#
# Stress axis : x y z
#
# Youngs Moduli (GPa) = 108.00676 132.98454 148.75834
#
# Poissons Ratio (x) = 0.53849 -0.14583
# Poissons Ratio (y) = 0.43735 0.40333
# Poissons Ratio (z) = -0.10588 0.36056
#
# Static dielectric constant tensor:
#      x y z
#    x 2.130960 0.000000 0.163610 
#    y 0.000000 1.907300 0.000000 
#    z 0.163610 0.000000 1.920670 
# 
# From -- ./inp_files/72053.got.cif
#   From: 2010.05.17/outbox.cif.g08.bks.cpg/sg15_37_cif.got.tgz:72053.got - 2010.06.03 18:47:42.
