data_PCOD9298313
_publ_section_title
;
Structure prediction by ZEFSAII (Michael W. Deem and Ramdas Pophale) SiO2 
 PCOD9298313
Probable space group: C 2/C
;
_chemical_formula_sum "Si O2"
_cell_formula_units_Z 44
_cell_length_a 19.940711
_cell_length_b 6.923699
_cell_length_c 20.139253
_cell_angle_alpha 90.000000
_cell_angle_beta 140.897628
_cell_angle_gamma 90.000000
_cell_volume 1753.680492
_symmetry_space_group_name_H-M "C 2/C"
_symmetry_group_IT_number 15
_symmetry_cell_setting 'monoclinic'
loop_
_space_group_symop_operation_xyz
x,y,z
-x,y,1/2-z
-x,-y,-z
x,-y,1/2+z
1/2+x,1/2+y,z
1/2-x,1/2+y,1/2-z
1/2-x,1/2-y,-z
1/2+x,1/2-y,1/2+z
loop_
_atom_site_type_symbol
_atom_site_label
_atom_site_fract_x
_atom_site_fract_y
_atom_site_fract_z
Si Si1 0.886584 0.558819 0.596166
Si Si2 0.458724 0.679996 0.033937
Si Si3 0.683540 0.939751 0.651874
Si Si4 0.667542 0.619367 0.121784
Si Si5 0.329755 0.392115 0.648025
Si Si6 0.000000 0.791379 0.250000
O O1 0.952087 0.682813 0.592000
O O2 0.767726 0.542226 0.474807
O O3 0.877056 0.698047 0.652635
O O4 0.938936 0.354953 0.653738
O O5 0.419346 0.813115 0.941946
O O6 0.371818 0.508154 0.969863
O O7 0.571885 0.595261 0.101853
O O8 0.724637 0.940988 0.758400
O O9 0.774324 0.848969 0.675133
O O10 0.672059 0.153803 0.614722
O O11 0.415179 0.563488 0.718145
#
# Coordination Sequence:
#
# PCOD9298313 Si02
#       6
#     8   8   8   8   8   4
#     4  10  24  46  68  95 137 176 213 275 338 387
#     4  10  24  44  66  93 134 172 217 273 327 393
#     4  11  23  43  66  97 131 172 223 267 328 397
#     4  11  23  41  67  96 129 175 218 270 326 390
#     4  10  25  44  66  97 136 172 220 274 332 393
#     4  12  24  40  70 104 124 170 228 268 330 398
#
# _framework density 25.090091000000001
#
# number of rings (size 3 to 8) (size 9 to 14) (size 15 to 20)
#    0.000    1.455    1.818    1.636    5.091    8.727 
#    6.545    0.000    0.000    0.000    0.000    0.000 
#    0.000    0.000    0.000    0.000    0.000    0.000 
#
# Total GULP energy -123176.001671 kJ/mol
# GULP energy per Si atom -5598.909167 kJ/mol
# Density = 2.503298 g / cm^3
# Si number density = 25.090091 Si / 1000 Ang^3
#
#
#
# Elastic Constant Matrix: (Units=GPa)
#
#
# Indices 1 2 3 4 5 6 
#
# 1 41.3485 2.4086 -6.2695 0.0000 0.4229 0.0000
# 2 2.4086 136.3134 18.6921 -0.0001 -1.6854 -0.0002
# 3 -6.2695 18.6921 96.7757 0.0000 2.7174 -0.0001
# 4 0.0000 -0.0001 0.0000 47.6726 0.0000 6.0599
# 5 0.4229 -1.6854 2.7174 0.0000 18.2619 0.0000
# 6 0.0000 -0.0002 -0.0001 6.0599 0.0000 30.4222
#
#
#
# Elastic Compliance Matrix: (Units=1/GPa)
#
#
# Indices 1 2 3 4 5 6 
#
# 1 0.024498 -0.000683 0.001744 0.000000 -0.000890 0.000000
# 2 -0.000683 0.007570 -0.001533 0.000000 0.000943 0.000000
# 3 0.001744 -0.001533 0.010792 0.000000 -0.001788 0.000000
# 4 0.000000 0.000000 0.000000 0.021521 0.000000 -0.004287
# 5 -0.000890 0.000943 -0.001788 0.000000 0.055133 0.000000
# 6 0.000000 0.000000 0.000000 -0.004287 0.000000 0.033725
#
#
# Mechanical properties :
#
#
# Convention : Reuss Voigt Hill
#
# Bulk Modulus (GPa) = 23.85689 33.78888 28.82289
# Shear Modulus (GPa) = 29.73448 36.57842 33.15645
#
# Velocity S-wave (km/s) = 3.44628 3.82237 3.63918
# Velocity P-wave (km/s) = 5.03636 5.74255 5.40101
#
# Compressibility (1/GPa) = 0.04191661
#
# Stress axis : x y z
#
# Youngs Moduli (GPa) = 40.81966 132.10125 92.65766
#
# Poissons Ratio (x) = 0.09023 -0.16159
# Poissons Ratio (y) = 0.02788 0.14203
# Poissons Ratio (z) = -0.07119 0.20249
#
# Static dielectric constant tensor:
#      x y z
#    x 1.969730 0.000000 0.010770 
#    y 0.000000 1.947020 0.000000 
#    z 0.010770 0.000000 2.065200 
# 
# From -- ./inp_files/170824.got.cif
#   From: 2010.05.17/outbox.cif.g08.bks.cpg/sg15_86_cif.got.tgz:170824.got - 2010.06.03 18:47:42.
