data_PCOD9298798
_publ_section_title
;
Structure prediction by ZEFSAII (Michael W. Deem and Ramdas Pophale) SiO2 
 PCOD9298798
Probable space group: C 2/C
;
_chemical_formula_sum "Si O2"
_cell_formula_units_Z 36
_cell_length_a 7.815056
_cell_length_b 21.323983
_cell_length_c 9.401395
_cell_angle_alpha 90.000000
_cell_angle_beta 106.113886
_cell_angle_gamma 90.000000
_cell_volume 1505.171200
_symmetry_space_group_name_H-M "C 2/C"
_symmetry_group_IT_number 15
_symmetry_cell_setting 'monoclinic'
loop_
_space_group_symop_operation_xyz
x,y,z
-x,y,1/2-z
-x,-y,-z
x,-y,1/2+z
1/2+x,1/2+y,z
1/2-x,1/2+y,1/2-z
1/2-x,1/2-y,-z
1/2+x,1/2-y,1/2+z
loop_
_atom_site_type_symbol
_atom_site_label
_atom_site_fract_x
_atom_site_fract_y
_atom_site_fract_z
Si Si1 0.388254 0.358973 0.402425
Si Si2 0.500000 0.748745 0.750000
Si Si3 0.792586 0.081790 0.160643
Si Si4 0.153555 0.449112 0.169032
Si Si5 0.692152 0.860238 0.930416
O O1 0.363740 0.295748 0.305879
O O2 0.295497 0.368623 0.532811
O O3 0.316104 0.416994 0.293118
O O4 0.599658 0.358698 0.478570
O O5 0.604198 0.793209 0.883540
O O6 0.694613 0.106945 0.277265
O O7 0.000000 0.072610 0.250000
O O8 0.715096 0.013320 0.110149
O O9 0.000000 0.458754 0.250000
O O10 0.101428 0.400707 0.032933
#
# Coordination Sequence:
#
# PCOD9298798 Si02
#       5
#     8   4   8   8   8
#     4  11  24  48  73 104 142 192 235 288 355 421
#     4  12  26  46  76 100 146 190 248 286 336 426
#     4  10  24  45  75 108 141 185 234 292 365 424
#     4  12  26  44  76 111 143 180 236 297 362 420
#     4  11  25  47  73 105 145 191 233 295 351 419
#
# _framework density 23.917546000000002
#
# number of rings (size 3 to 8) (size 9 to 14) (size 15 to 20)
#    0.000    0.889    2.222    3.333    4.667    6.222 
#    0.000    0.000    0.000    0.000    0.000    0.000 
#    0.000    0.000    0.000    0.000    0.000    0.000 
#
# Total GULP energy -100822.321255 kJ/mol
# GULP energy per Si atom -5601.240070 kJ/mol
# Density = 2.386311 g / cm^3
# Si number density = 23.917546 Si / 1000 Ang^3
#
#
#
# Elastic Constant Matrix: (Units=GPa)
#
#
# Indices 1 2 3 4 5 6 
#
# 1 117.9678 44.9917 31.2798 0.0000 -13.0372 0.0000
# 2 44.9917 138.0554 54.5512 0.0000 -10.4218 0.0000
# 3 31.2798 54.5512 149.7889 0.0000 -25.9260 0.0000
# 4 0.0000 0.0000 0.0000 62.1026 0.0000 10.6341
# 5 -13.0372 -10.4218 -25.9260 0.0000 43.8093 0.0000
# 6 0.0000 0.0000 0.0000 10.6341 0.0000 22.4534
#
#
#
# Elastic Compliance Matrix: (Units=1/GPa)
#
#
# Indices 1 2 3 4 5 6 
#
# 1 0.009949 -0.002813 -0.000731 0.000000 0.001859 0.000000
# 2 -0.002813 0.009258 -0.002839 0.000000 -0.000315 0.000000
# 3 -0.000731 -0.002839 0.008588 0.000000 0.004189 0.000000
# 4 0.000000 0.000000 0.000000 0.017523 0.000000 -0.008299
# 5 0.001859 -0.000315 0.004189 0.000000 0.025784 0.000000
# 6 0.000000 0.000000 0.000000 -0.008299 0.000000 0.048467
#
#
# Mechanical properties :
#
#
# Convention : Reuss Voigt Hill
#
# Bulk Modulus (GPa) = 66.54000 74.16196 70.35098
# Shear Modulus (GPa) = 36.40456 44.00568 40.20512
#
# Velocity S-wave (km/s) = 3.90562 4.29405 4.10443
# Velocity P-wave (km/s) = 6.94403 7.46055 7.20692
#
# Compressibility (1/GPa) = 0.01502855
#
# Stress axis : x y z
#
# Youngs Moduli (GPa) = 100.51141 108.01269 116.44544
#
# Poissons Ratio (x) = 0.30384 0.08517
# Poissons Ratio (y) = 0.28274 0.33056
# Poissons Ratio (z) = 0.07352 0.30662
#
# Static dielectric constant tensor:
#      x y z
#    x 1.948180 0.000000 0.070110 
#    y 0.000000 1.883850 0.000000 
#    z 0.070110 0.000000 1.944560 
# 
# From -- ./inp_files/22516.got.cif
#   From: 2010.05.17/outbox.cif.g08.bks.cpg/sg15_12_cif.got.tgz:22516.got - 2010.06.03 18:47:42.
