data_PCOD9298076
_publ_section_title
;
Structure prediction by ZEFSAII (Michael W. Deem and Ramdas Pophale) SiO2 
 PCOD9298076
Probable space group: C 2/C
;
_chemical_formula_sum "Si O2"
_cell_formula_units_Z 56
_cell_length_a 29.581886
_cell_length_b 13.029277
_cell_length_c 14.757084
_cell_angle_alpha 90.000000
_cell_angle_beta 28.165730
_cell_angle_gamma 90.000000
_cell_volume 2684.790446
_symmetry_space_group_name_H-M "C 2/C"
_symmetry_group_IT_number 15
_symmetry_cell_setting 'monoclinic'
loop_
_space_group_symop_operation_xyz
x,y,z
-x,y,1/2-z
-x,-y,-z
x,-y,1/2+z
1/2+x,1/2+y,z
1/2-x,1/2+y,1/2-z
1/2-x,1/2-y,-z
1/2+x,1/2-y,1/2+z
loop_
_atom_site_type_symbol
_atom_site_label
_atom_site_fract_x
_atom_site_fract_y
_atom_site_fract_z
Si Si1 0.500000 0.091065 0.250000
Si Si2 0.297927 0.821163 0.784321
Si Si3 0.021835 0.905188 0.026703
Si Si4 0.000000 0.026804 0.250000
Si Si5 0.889347 0.277619 0.801374
Si Si6 0.322236 0.652901 0.610646
Si Si7 0.274002 0.703303 0.360000
Si Si8 0.695163 0.026238 0.386001
O O1 0.535799 0.162294 0.268997
O O2 0.409813 0.020755 0.433427
O O3 0.347983 0.843588 0.791183
O O4 0.357374 0.741879 0.616442
O O5 0.280275 0.917962 0.752001
O O6 0.198795 0.763813 0.982952
O O7 0.938416 0.821554 0.171198
O O8 0.120318 0.845497 0.832026
O O9 0.020945 0.954064 0.128175
O O10 0.000000 0.000000 0.000000
O O11 0.907713 0.100393 0.404142
O O12 0.246141 0.707560 0.678452
O O13 0.270427 0.565850 0.761400
O O14 0.250000 0.750000 0.500000
O O15 0.206623 0.609222 0.445551
#
# Coordination Sequence:
#
# PCOD9298076 Si02
#       8
#     4   8   8   4   8   8   8   8
#     4  12  25  41  72  98 140 188 232 284 356 440
#     4  10  24  43  67  97 140 184 230 294 353 429
#     4  12  25  41  69 104 133 186 245 294 352 428
#     4  12  23  39  72  96 134 182 240 288 348 428
#     4  11  24  42  68  98 137 186 236 292 353 422
#     4  11  22  44  67  98 139 184 234 294 356 416
#     4  11  26  44  67 101 147 183 236 308 362 422
#     4  11  24  43  68  98 137 185 235 286 359 427
#
# _framework density 20.858238
#
# number of rings (size 3 to 8) (size 9 to 14) (size 15 to 20)
#    0.000    0.857    2.857    3.857    4.000    5.143 
#    0.000    0.000    0.000    0.000    0.000    0.000 
#    0.000    0.000    0.000    0.000    0.000    0.000 
#
# Total GULP energy -156560.938079 kJ/mol
# GULP energy per Si atom -5591.462074 kJ/mol
# Density = 2.081076 g / cm^3
# Si number density = 20.858238 Si / 1000 Ang^3
#
#
#
# Elastic Constant Matrix: (Units=GPa)
#
#
# Indices 1 2 3 4 5 6 
#
# 1 105.3446 33.5034 28.0616 0.0000 15.1157 0.0000
# 2 33.5034 79.6295 29.6242 0.0000 2.5585 0.0000
# 3 28.0616 29.6242 98.3963 0.0000 0.7529 0.0000
# 4 0.0000 0.0000 0.0000 36.4900 0.0000 -5.4040
# 5 15.1157 2.5585 0.7529 0.0000 30.8543 0.0000
# 6 0.0000 0.0000 0.0000 -5.4040 0.0000 24.3166
#
#
#
# Elastic Compliance Matrix: (Units=1/GPa)
#
#
# Indices 1 2 3 4 5 6 
#
# 1 0.012191 -0.004136 -0.002189 0.000000 -0.005576 0.000000
# 2 -0.004136 0.015581 -0.003518 0.000000 0.000820 0.000000
# 3 -0.002189 -0.003518 0.011838 0.000000 0.001075 0.000000
# 4 0.000000 0.000000 0.000000 0.028337 0.000000 0.006298
# 5 -0.005576 0.000820 0.001075 0.000000 0.035048 0.000000
# 6 0.000000 0.000000 0.000000 0.006298 0.000000 0.042524
#
#
# Mechanical properties :
#
#
# Convention : Reuss Voigt Hill
#
# Bulk Modulus (GPa) = 50.18815 51.74986 50.96901
# Shear Modulus (GPa) = 29.09590 31.14425 30.12007
#
# Velocity S-wave (km/s) = 3.73894 3.86831 3.80417
# Velocity P-wave (km/s) = 6.53860 6.69447 6.61699
#
# Compressibility (1/GPa) = 0.01992502
#
# Stress axis : x y z
#
# Youngs Moduli (GPa) = 82.02627 64.18244 84.47312
#
# Poissons Ratio (x) = 0.26545 0.18491
# Poissons Ratio (y) = 0.33925 0.29715
# Poissons Ratio (z) = 0.17955 0.22577
#
# Static dielectric constant tensor:
#      x y z
#    x 1.777690 0.000000 -0.007230 
#    y 0.000000 1.741090 0.000000 
#    z -0.007230 0.000000 1.726440 
# 
# From -- ./inp_files/181939.got.cif
#   From: 2010.05.17/outbox.cif.g08.bks.cpg/sg15_91_cif.got.tgz:181939.got - 2010.06.03 18:47:42.
