data_PCOD9298293
_publ_section_title
;
Structure prediction by ZEFSAII (Michael W. Deem and Ramdas Pophale) SiO2 
 PCOD9298293
Probable space group: C 2/C
;
_chemical_formula_sum "Si O2"
_cell_formula_units_Z 44
_cell_length_a 17.633871
_cell_length_b 5.515672
_cell_length_c 20.223694
_cell_angle_alpha 90.000000
_cell_angle_beta 64.717956
_cell_angle_gamma 90.000000
_cell_volume 1778.602808
_symmetry_space_group_name_H-M "C 2/C"
_symmetry_group_IT_number 15
_symmetry_cell_setting 'monoclinic'
loop_
_space_group_symop_operation_xyz
x,y,z
-x,y,1/2-z
-x,-y,-z
x,-y,1/2+z
1/2+x,1/2+y,z
1/2-x,1/2+y,1/2-z
1/2-x,1/2-y,-z
1/2+x,1/2-y,1/2+z
loop_
_atom_site_type_symbol
_atom_site_label
_atom_site_fract_x
_atom_site_fract_y
_atom_site_fract_z
Si Si1 0.279167 0.731500 0.156437
Si Si2 0.430763 0.786981 0.516530
Si Si3 0.334676 0.155241 0.499124
Si Si4 0.500000 0.600781 0.250000
Si Si5 0.498119 0.384269 0.391123
Si Si6 0.178245 0.237226 0.208615
O O1 0.339280 0.728053 0.070503
O O2 0.225640 0.485167 0.173100
O O3 0.325287 0.739138 0.209791
O O4 0.223214 0.980224 0.173396
O O5 0.470134 0.604276 0.449190
O O6 0.423169 0.716399 0.596513
O O7 0.500000 0.000000 0.500000
O O8 0.345584 0.875084 0.514085
O O9 0.250000 0.250000 0.500000
O O10 0.414896 0.218396 0.425175
O O11 0.515274 0.446204 0.310053
O O12 0.586254 0.745972 0.210648
#
# Coordination Sequence:
#
# PCOD9298293 Si02
#       6
#     8   8   8   4   8   8
#     4  10  24  47  69 101 143 191 233 301 369 451
#     4   9  22  43  66  99 135 183 237 288 370 434
#     4  11  24  41  72 100 136 184 244 303 355 437
#     4  12  26  44  72 102 144 186 244 312 350 454
#     4  10  24  44  66 102 139 186 241 293 375 432
#     4  10  25  45  69 103 141 188 240 290 381 428
#
# _framework density 24.738520999999999
#
# number of rings (size 3 to 8) (size 9 to 14) (size 15 to 20)
#    0.000    1.818    0.000    1.091   12.727    4.364 
#    3.273    0.000    0.000    0.000    0.000    0.000 
#    0.000    0.000    0.000    0.000    0.000    0.000 
#
# Total GULP energy -122954.072415 kJ/mol
# GULP energy per Si atom -5588.821473 kJ/mol
# Density = 2.468222 g / cm^3
# Si number density = 24.738521 Si / 1000 Ang^3
#
#
#
# Elastic Constant Matrix: (Units=GPa)
#
#
# Indices 1 2 3 4 5 6 
#
# 1 125.1584 33.6740 -7.2679 0.0118 4.2884 0.0079
# 2 33.6740 87.5606 16.4601 0.0217 8.3394 0.0054
# 3 -7.2679 16.4601 107.7586 0.0074 11.4425 0.0047
# 4 0.0118 0.0217 0.0074 29.0380 0.0035 0.4723
# 5 4.2884 8.3394 11.4425 0.0035 25.0575 0.0044
# 6 0.0079 0.0054 0.0047 0.4723 0.0044 31.8192
#
#
#
# Elastic Compliance Matrix: (Units=1/GPa)
#
#
# Indices 1 2 3 4 5 6 
#
# 1 0.009074 -0.003640 0.001266 -0.000001 -0.000919 -0.000002
# 2 -0.003640 0.013476 -0.001990 -0.000008 -0.002953 -0.000001
# 3 0.001266 -0.001990 0.010112 -0.000001 -0.004172 -0.000001
# 4 -0.000001 -0.000008 -0.000001 0.034446 -0.000001 -0.000511
# 5 -0.000919 -0.002953 -0.004172 -0.000001 0.042953 -0.000005
# 6 -0.000002 -0.000001 -0.000001 -0.000511 -0.000005 0.031435
#
#
# Mechanical properties :
#
#
# Convention : Reuss Voigt Hill
#
# Bulk Modulus (GPa) = 41.78332 45.13445 43.45888
# Shear Modulus (GPa) = 31.60466 35.69038 33.64752
#
# Velocity S-wave (km/s) = 3.57816 3.80242 3.69199
# Velocity P-wave (km/s) = 5.83075 6.12879 5.98162
#
# Compressibility (1/GPa) = 0.02393300
#
# Stress axis : x y z
#
# Youngs Moduli (GPa) = 110.20181 74.20598 98.88840
#
# Poissons Ratio (x) = 0.27012 -0.12516
# Poissons Ratio (y) = 0.40115 0.19683
# Poissons Ratio (z) = -0.13948 0.14770
#
# Static dielectric constant tensor:
#      x y z
#    x 1.988030 0.000000 -0.024730 
#    y 0.000000 2.150280 0.000000 
#    z -0.024730 0.000000 1.943310 
# 
# From -- ./inp_files/246388.got.cif
#   From: 2010.05.17/outbox.cif.g08.bks.cpg/sg15_124_cif.got.tgz:246388.got - 2010.06.03 18:47:42.
