data_PCOD9298039
_publ_section_title
;
Structure prediction by ZEFSAII (Michael W. Deem and Ramdas Pophale) SiO2 
 PCOD9298039
Probable space group: C 2/C
;
_chemical_formula_sum "Si O2"
_cell_formula_units_Z 64
_cell_length_a 15.385227
_cell_length_b 10.415314
_cell_length_c 26.147551
_cell_angle_alpha 90.000000
_cell_angle_beta 34.324480
_cell_angle_gamma 90.000000
_cell_volume 2362.616212
_symmetry_space_group_name_H-M "C 2/C"
_symmetry_group_IT_number 15
_symmetry_cell_setting 'monoclinic'
loop_
_space_group_symop_operation_xyz
x,y,z
-x,y,1/2-z
-x,-y,-z
x,-y,1/2+z
1/2+x,1/2+y,z
1/2-x,1/2+y,1/2-z
1/2-x,1/2-y,-z
1/2+x,1/2-y,1/2+z
loop_
_atom_site_type_symbol
_atom_site_label
_atom_site_fract_x
_atom_site_fract_y
_atom_site_fract_z
Si Si1 0.211299 0.326266 0.953749
Si Si2 0.712050 0.961703 0.050455
Si Si3 0.696352 0.272917 0.700828
Si Si4 0.593838 0.014073 0.253528
Si Si5 0.501926 0.719104 0.880852
Si Si6 0.767059 0.730215 0.415509
Si Si7 0.162474 0.963556 0.786819
Si Si8 0.887167 0.406968 0.091254
O O1 0.262441 0.182110 0.942302
O O2 0.273745 0.345665 0.866228
O O3 0.254380 0.442271 0.970653
O O4 0.025245 0.320462 0.046350
O O5 0.530724 0.991746 0.141722
O O6 0.769804 0.076026 0.060239
O O7 0.648961 0.128930 0.712103
O O8 0.584280 0.349726 0.792729
O O9 0.847783 0.270731 0.663170
O O10 0.500000 0.065996 0.250000
O O11 0.740374 0.076866 0.209903
O O12 0.438132 0.744737 0.854792
O O13 0.539917 0.568450 0.863714
O O14 0.361894 0.776958 0.981340
O O15 0.723777 0.812952 0.387533
O O16 0.279373 0.032508 0.688534
O O17 0.000000 0.500000 0.000000
#
# Coordination Sequence:
#
# PCOD9298039 Si02
#       8
#     8   8   8   8   8   8   8   8
#     4  11  23  42  71 104 135 185 244 287 354 431
#     4  11  25  44  69 103 142 183 239 294 353 435
#     4  11  22  45  73  98 143 188 238 292 361 425
#     4  11  23  44  66 101 140 187 228 285 365 413
#     4  10  24  43  66 105 137 186 235 289 363 419
#     4  11  25  46  70  98 145 190 233 296 362 427
#     4  11  24  43  71 104 139 183 242 298 344 436
#     4  12  24  45  75 103 141 188 236 295 360 427
#
# _framework density 27.088612999999999
#
# number of rings (size 3 to 8) (size 9 to 14) (size 15 to 20)
#    0.000    1.000    5.000    0.750    3.500    3.000 
#    9.000    0.000    0.000    0.000    0.000    0.000 
#    0.000    0.000    0.000    0.000    0.000    0.000 
#
# Total GULP energy -178668.286790 kJ/mol
# GULP energy per Si atom -5583.383962 kJ/mol
# Density = 2.702696 g / cm^3
# Si number density = 27.088613 Si / 1000 Ang^3
#
#
#
# Elastic Constant Matrix: (Units=GPa)
#
#
# Indices 1 2 3 4 5 6 
#
# 1 172.2737 60.8385 30.2292 0.0000 5.1902 0.0000
# 2 60.8385 86.1351 2.2914 0.0000 9.1476 0.0000
# 3 30.2292 2.2914 72.6900 -0.0001 6.4511 0.0000
# 4 0.0000 0.0000 -0.0001 35.9098 0.0000 14.6819
# 5 5.1902 9.1476 6.4511 0.0000 44.1112 0.0000
# 6 0.0000 0.0000 0.0000 14.6819 0.0000 42.6762
#
#
#
# Elastic Compliance Matrix: (Units=1/GPa)
#
#
# Indices 1 2 3 4 5 6 
#
# 1 0.008496 -0.005989 -0.003410 0.000000 0.000741 0.000000
# 2 -0.005989 0.016094 0.002246 0.000000 -0.002961 0.000000
# 3 -0.003410 0.002246 0.015309 0.000000 -0.002303 0.000000
# 4 0.000000 0.000000 0.000000 0.032406 0.000000 -0.011149
# 5 0.000741 -0.002961 -0.002303 0.000000 0.023534 0.000000
# 6 0.000000 0.000000 0.000000 -0.011149 0.000000 0.027268
#
#
# Mechanical properties :
#
#
# Convention : Reuss Voigt Hill
#
# Bulk Modulus (GPa) = 39.07268 57.53521 48.30394
# Shear Modulus (GPa) = 34.26013 40.38875 37.32444
#
# Velocity S-wave (km/s) = 3.56018 3.86552 3.71599
# Velocity P-wave (km/s) = 5.59957 6.41940 6.02345
#
# Compressibility (1/GPa) = 0.02559333
#
# Stress axis : x y z
#
# Youngs Moduli (GPa) = 117.70780 62.13407 65.32194
#
# Poissons Ratio (x) = 0.37209 0.22275
# Poissons Ratio (y) = 0.70490 -0.14671
# Poissons Ratio (z) = 0.40139 -0.13955
#
# Static dielectric constant tensor:
#      x y z
#    x 2.170070 0.000000 0.041310 
#    y 0.000000 2.217590 0.000000 
#    z 0.041310 0.000000 2.217050 
# 
# From -- ./inp_files/296126.got.cif
#   From: 2010.05.17/outbox.cif.g08.bks.cpg/sg15_149_cif.got.tgz:296126.got - 2010.06.03 18:47:42.
