data_PCOD9298238
_publ_section_title
;
Structure prediction by ZEFSAII (Michael W. Deem and Ramdas Pophale) SiO2 
 PCOD9298238
Probable space group: C 2/C
;
_chemical_formula_sum "Si O2"
_cell_formula_units_Z 36
_cell_length_a 12.132203
_cell_length_b 7.147980
_cell_length_c 19.711439
_cell_angle_alpha 90.000000
_cell_angle_beta 84.261688
_cell_angle_gamma 90.000000
_cell_volume 1700.824796
_symmetry_space_group_name_H-M "C 2/C"
_symmetry_group_IT_number 15
_symmetry_cell_setting 'monoclinic'
loop_
_space_group_symop_operation_xyz
x,y,z
-x,y,1/2-z
-x,-y,-z
x,-y,1/2+z
1/2+x,1/2+y,z
1/2-x,1/2+y,1/2-z
1/2-x,1/2-y,-z
1/2+x,1/2-y,1/2+z
loop_
_atom_site_type_symbol
_atom_site_label
_atom_site_fract_x
_atom_site_fract_y
_atom_site_fract_z
Si Si1 0.500000 0.370145 0.250000
Si Si2 0.069026 0.505718 0.181731
Si Si3 0.557507 0.194551 0.932900
Si Si4 0.171190 0.025123 0.844280
Si Si5 0.643689 0.806759 0.962745
O O1 0.402509 0.478890 0.218968
O O2 0.548670 0.228666 0.190131
O O3 0.018832 0.409756 0.118690
O O4 0.199443 0.480121 0.179815
O O5 0.000000 0.427977 0.250000
O O6 0.629226 0.356496 0.894484
O O7 0.633666 0.030620 0.958522
O O8 0.469615 0.261216 0.994437
O O9 0.153246 0.214258 0.888498
O O10 0.750000 0.750000 0.000000
#
# Coordination Sequence:
#
# PCOD9298238 Si02
#       5
#     4   8   8   8   8
#     4  10  26  42  66 100 138 174 236 274 334 410
#     4  10  24  44  63 100 138 173 233 280 328 405
#     4  11  25  43  72  99 138 178 225 283 343 400
#     4  12  25  45  71  99 135 187 226 280 349 408
#     4  11  23  47  70 103 138 173 231 286 338 411
#
# _framework density 21.166201000000001
#
# number of rings (size 3 to 8) (size 9 to 14) (size 15 to 20)
#    0.667    0.444    4.444    0.667    4.667    2.667 
#    0.000    0.000    0.000    0.000    0.000    0.000 
#    0.000    0.000    0.000    0.000    0.000    0.000 
#
# Total GULP energy -100573.067090 kJ/mol
# GULP energy per Si atom -5587.392616 kJ/mol
# Density = 2.111803 g / cm^3
# Si number density = 21.166201 Si / 1000 Ang^3
#
#
#
# Elastic Constant Matrix: (Units=GPa)
#
#
# Indices 1 2 3 4 5 6 
#
# 1 160.9017 35.0604 36.0947 0.0000 -10.8272 0.0000
# 2 35.0604 49.5886 -9.5156 0.0000 -13.0165 0.0000
# 3 36.0947 -9.5156 35.1794 0.0000 -3.4811 0.0000
# 4 0.0000 0.0000 0.0000 34.6869 0.0000 2.9078
# 5 -10.8272 -13.0165 -3.4811 0.0000 43.0401 0.0000
# 6 0.0000 0.0000 0.0000 2.9078 0.0000 19.5254
#
#
#
# Elastic Compliance Matrix: (Units=1/GPa)
#
#
# Indices 1 2 3 4 5 6 
#
# 1 0.012471 -0.012471 -0.016363 0.000000 -0.001958 0.000000
# 2 -0.012471 0.036028 0.023497 0.000000 0.009659 0.000000
# 3 -0.016363 0.023497 0.052284 0.000000 0.007219 0.000000
# 4 0.000000 0.000000 0.000000 0.029194 0.000000 -0.004348
# 5 -0.001958 0.009659 0.007219 0.000000 0.026247 0.000000
# 6 0.000000 0.000000 0.000000 -0.004348 0.000000 0.051863
#
#
# Mechanical properties :
#
#
# Convention : Reuss Voigt Hill
#
# Bulk Modulus (GPa) = 11.09777 40.99429 26.04603
# Shear Modulus (GPa) = 20.09661 31.71916 25.90789
#
# Velocity S-wave (km/s) = 3.08469 3.87534 3.50240
# Velocity P-wave (km/s) = 4.23575 6.27967 5.35611
#
# Compressibility (1/GPa) = 0.09010816
#
# Stress axis : x y z
#
# Youngs Moduli (GPa) = 80.18322 27.75638 19.12618
#
# Poissons Ratio (x) = 0.34616 0.31296
# Poissons Ratio (y) = 1.00000 -0.44940
# Poissons Ratio (z) = 1.31204 -0.65219
#
# Static dielectric constant tensor:
#      x y z
#    x 1.725880 0.000000 0.012170 
#    y 0.000000 1.780110 0.000000 
#    z 0.012170 0.000000 1.772860 
# 
# From -- ./inp_files/267087.got.cif
#   From: 2010.05.17/outbox.cif.g08.bks.cpg/sg15_134_cif.got.tgz:267087.got - 2010.06.03 18:47:42.
