data_PCOD9298655
_publ_section_title
;
Structure prediction by ZEFSAII (Michael W. Deem and Ramdas Pophale) SiO2 
 PCOD9298655
Probable space group: C 2/C
;
_chemical_formula_sum "Si O2"
_cell_formula_units_Z 60
_cell_length_a 26.902838
_cell_length_b 12.196294
_cell_length_c 8.538402
_cell_angle_alpha 90.000000
_cell_angle_beta 114.206792
_cell_angle_gamma 90.000000
_cell_volume 2555.238677
_symmetry_space_group_name_H-M "C 2/C"
_symmetry_group_IT_number 15
_symmetry_cell_setting 'monoclinic'
loop_
_space_group_symop_operation_xyz
x,y,z
-x,y,1/2-z
-x,-y,-z
x,-y,1/2+z
1/2+x,1/2+y,z
1/2-x,1/2+y,1/2-z
1/2-x,1/2-y,-z
1/2+x,1/2-y,1/2+z
loop_
_atom_site_type_symbol
_atom_site_label
_atom_site_fract_x
_atom_site_fract_y
_atom_site_fract_z
Si Si1 0.615597 0.851336 0.284888
Si Si2 0.274064 0.872358 0.559800
Si Si3 0.014724 0.856122 0.943683
Si Si4 0.226454 0.417635 0.296829
Si Si5 0.100485 0.855245 0.571425
Si Si6 0.319014 0.734927 0.871750
Si Si7 0.377122 0.563970 0.745060
Si Si8 0.000000 0.358077 0.250000
O O1 0.669432 0.920236 0.317566
O O2 0.608584 0.771295 0.125769
O O3 0.635264 0.767476 0.445625
O O4 0.557889 0.906416 0.262137
O O5 0.250000 0.750000 0.500000
O O6 0.288176 0.914199 0.405367
O O7 0.315805 0.838596 0.751211
O O8 0.242462 0.973444 0.601960
O O9 0.068041 0.901393 0.091855
O O10 0.000000 0.098332 0.250000
O O11 0.017675 0.726071 0.911246
O O12 0.963795 0.874530 0.989899
O O13 0.261892 0.307460 0.370275
O O14 0.119122 0.893195 0.425770
O O15 0.128630 0.934802 0.735812
O O16 0.332347 0.630010 0.782293
#
# Coordination Sequence:
#
# PCOD9298655 Si02
#       8
#     8   8   8   8   8   8   8   4
#     4  11  21  41  63  94 127 173 226 277 345 398
#     4  10  24  45  68 104 140 175 224 279 339 411
#     4   9  17  35  52  78 119 166 219 279 337 398
#     4  11  24  42  69  96 133 174 221 275 345 407
#     4  11  23  33  54  84 125 171 226 274 334 410
#     4  11  23  40  66  95 134 174 222 281 340 408
#     4  12  21  34  51  85 124 175 220 277 342 405
#     4   8  18  36  62  86 126 168 226 286 332 404
#
# _framework density 23.481172000000001
#
# number of rings (size 3 to 8) (size 9 to 14) (size 15 to 20)
#    0.400    1.067    1.333    4.400    0.000    7.467 
#    0.000    0.000    0.000    3.200    0.000    0.000 
#    0.000    0.000    0.000    0.000    0.000    0.000 
#
# Total GULP energy -167286.425578 kJ/mol
# GULP energy per Si atom -5576.214186 kJ/mol
# Density = 2.342773 g / cm^3
# Si number density = 23.481172 Si / 1000 Ang^3
#
#
#
# Elastic Constant Matrix: (Units=GPa)
#
#
# Indices 1 2 3 4 5 6 
#
# 1 126.6689 28.6066 38.7877 0.0000 -5.3883 0.0000
# 2 28.6066 48.0605 17.7101 0.0000 -13.6453 0.0000
# 3 38.7877 17.7101 98.0853 0.0000 -18.6026 0.0000
# 4 0.0000 0.0000 0.0000 38.6021 0.0000 -9.5865
# 5 -5.3883 -13.6453 -18.6026 0.0000 36.8584 0.0000
# 6 0.0000 0.0000 0.0000 -9.5865 0.0000 16.6470
#
#
#
# Elastic Compliance Matrix: (Units=1/GPa)
#
#
# Indices 1 2 3 4 5 6 
#
# 1 0.010062 -0.005361 -0.003438 0.000000 -0.002249 0.000000
# 2 -0.005361 0.026844 -0.001096 0.000000 0.008601 0.000000
# 3 -0.003438 -0.001096 0.012806 0.000000 0.005555 0.000000
# 4 0.000000 0.000000 0.000000 0.030228 0.000000 0.017408
# 5 -0.002249 0.008601 0.005555 0.000000 0.032790 0.000000
# 6 0.000000 0.000000 0.000000 0.017408 0.000000 0.070095
#
#
# Mechanical properties :
#
#
# Convention : Reuss Voigt Hill
#
# Bulk Modulus (GPa) = 33.41834 49.22484 41.32159
# Shear Modulus (GPa) = 23.51957 30.93553 27.22755
#
# Velocity S-wave (km/s) = 3.16830 3.63362 3.40891
# Velocity P-wave (km/s) = 5.25804 6.21396 5.75588
#
# Compressibility (1/GPa) = 0.02992369
#
# Stress axis : x y z
#
# Youngs Moduli (GPa) = 99.38098 37.25254 78.08837
#
# Poissons Ratio (x) = 0.19971 0.26844
# Poissons Ratio (y) = 0.53278 0.08556
# Poissons Ratio (z) = 0.34163 0.04081
#
# Static dielectric constant tensor:
#      x y z
#    x 1.980710 0.000000 0.029070 
#    y 0.000000 1.948630 0.000000 
#    z 0.029070 0.000000 1.906970 
# 
# From -- ./inp_files/69416.got.cif
#   From: 2010.05.17/outbox.cif.g08.bks.cpg/sg15_35_cif.got.tgz:69416.got - 2010.06.03 18:47:42.
