data_PCOD9298884
_publ_section_title
;
Structure prediction by ZEFSAII (Michael W. Deem and Ramdas Pophale) SiO2 
 PCOD9298884
Probable space group: C 2/C
;
_chemical_formula_sum "Si O2"
_cell_formula_units_Z 60
_cell_length_a 6.355240
_cell_length_b 17.245483
_cell_length_c 24.487321
_cell_angle_alpha 90.000000
_cell_angle_beta 110.460608
_cell_angle_gamma 90.000000
_cell_volume 2514.477410
_symmetry_space_group_name_H-M "C 2/C"
_symmetry_group_IT_number 15
_symmetry_cell_setting 'monoclinic'
loop_
_space_group_symop_operation_xyz
x,y,z
-x,y,1/2-z
-x,-y,-z
x,-y,1/2+z
1/2+x,1/2+y,z
1/2-x,1/2+y,1/2-z
1/2-x,1/2-y,-z
1/2+x,1/2-y,1/2+z
loop_
_atom_site_type_symbol
_atom_site_label
_atom_site_fract_x
_atom_site_fract_y
_atom_site_fract_z
Si Si1 0.267046 0.889096 0.634033
Si Si2 0.833530 0.216165 0.088405
Si Si3 0.498711 0.848995 0.478376
Si Si4 0.988935 0.971813 0.689927
Si Si5 0.615015 0.248944 0.181063
Si Si6 0.729918 0.478446 0.051761
Si Si7 0.500000 0.676464 0.250000
Si Si8 0.446317 0.605003 0.611850
O O1 0.434352 0.819149 0.659930
O O2 0.023521 0.849916 0.601102
O O3 0.893822 0.887903 0.698951
O O4 0.222280 0.944873 0.682505
O O5 0.919044 0.286129 0.058574
O O6 0.782814 0.246614 0.143960
O O7 0.599760 0.183326 0.043360
O O8 0.611400 0.930775 0.473597
O O9 0.235034 0.859723 0.446015
O O10 0.326429 0.944606 0.588912
O O11 0.000000 0.012396 0.750000
O O12 0.868059 0.026771 0.635819
O O13 0.501471 0.332012 0.163228
O O14 0.787060 0.229229 0.245768
O O15 0.656269 0.421754 0.094655
O O16 0.500000 0.500000 0.000000
#
# Coordination Sequence:
#
# PCOD9298884 Si02
#       8
#     8   8   8   8   8   8   4   8
#     4  11  23  42  71  96 131 177 219 277 341 396
#     4  11  22  42  64 100 142 174 224 273 323 405
#     4  11  24  39  67  99 141 183 217 274 331 394
#     4   9  22  49  64  94 133 166 222 285 328 404
#     4  12  25  45  69 101 131 177 227 284 336 407
#     4  11  24  40  63 104 140 177 227 267 326 411
#     4  10  24  46  68  94 128 164 226 284 340 394
#     4  11  25  44  69 101 138 177 227 275 340 399
#
# _framework density 23.861816000000001
#
# number of rings (size 3 to 8) (size 9 to 14) (size 15 to 20)
#    0.400    0.800    5.333    0.000    3.733    1.600 
#    4.800    2.667    0.000    0.000    0.000    0.000 
#    0.000    0.000    0.000    0.000    0.000    0.000 
#
# Total GULP energy -167459.804515 kJ/mol
# GULP energy per Si atom -5581.993484 kJ/mol
# Density = 2.380751 g / cm^3
# Si number density = 23.861816 Si / 1000 Ang^3
#
#
#
# Elastic Constant Matrix: (Units=GPa)
#
#
# Indices 1 2 3 4 5 6 
#
# 1 27.7184 29.6238 9.3493 0.0000 13.3406 0.0000
# 2 29.6238 116.5205 26.5524 0.0000 14.0697 0.0000
# 3 9.3493 26.5524 55.8622 0.0000 9.2473 0.0000
# 4 0.0000 0.0000 0.0000 28.9442 0.0000 0.4201
# 5 13.3406 14.0697 9.2473 0.0000 37.7669 0.0000
# 6 0.0000 0.0000 0.0000 0.4201 0.0000 41.9563
#
#
#
# Elastic Compliance Matrix: (Units=1/GPa)
#
#
# Indices 1 2 3 4 5 6 
#
# 1 0.057062 -0.012408 -0.001126 0.000000 -0.015258 0.000000
# 2 -0.012408 0.012568 -0.004010 0.000000 0.000683 0.000000
# 3 -0.001126 -0.004010 0.020514 0.000000 -0.003131 0.000000
# 4 0.000000 0.000000 0.000000 0.034554 0.000000 -0.000346
# 5 -0.015258 0.000683 -0.003131 0.000000 0.032380 0.000000
# 6 0.000000 0.000000 0.000000 -0.000346 0.000000 0.023838
#
#
# Mechanical properties :
#
#
# Convention : Reuss Voigt Hill
#
# Bulk Modulus (GPa) = 18.16385 36.79469 27.47927
# Shear Modulus (GPa) = 21.33491 30.70517 26.02004
#
# Velocity S-wave (km/s) = 2.99340 3.59108 3.30577
# Velocity P-wave (km/s) = 4.42446 5.71383 5.10998
#
# Compressibility (1/GPa) = 0.05505440
#
# Stress axis : x y z
#
# Youngs Moduli (GPa) = 17.52487 79.56583 48.74672
#
# Poissons Ratio (x) = 0.98727 0.05491
# Poissons Ratio (y) = 0.21745 0.19549
# Poissons Ratio (z) = 0.01974 0.31908
#
# Static dielectric constant tensor:
#      x y z
#    x 1.908490 0.000000 -0.018720 
#    y 0.000000 1.898870 0.000000 
#    z -0.018720 0.000000 2.048620 
# 
# From -- ./inp_files/286428.got.cif
#   From: 2010.05.17/outbox.cif.g08.bks.cpg/sg15_144_cif.got.tgz:286428.got - 2010.06.03 18:47:42.
