data_PCOD9298055
_publ_section_title
;
Structure prediction by ZEFSAII (Michael W. Deem and Ramdas Pophale) SiO2 
 PCOD9298055
Probable space group: C 2/C
;
_chemical_formula_sum "Si O2"
_cell_formula_units_Z 44
_cell_length_a 7.457798
_cell_length_b 25.445812
_cell_length_c 11.828348
_cell_angle_alpha 90.000000
_cell_angle_beta 67.947188
_cell_angle_gamma 90.000000
_cell_volume 2080.438751
_symmetry_space_group_name_H-M "C 2/C"
_symmetry_group_IT_number 15
_symmetry_cell_setting 'monoclinic'
loop_
_space_group_symop_operation_xyz
x,y,z
-x,y,1/2-z
-x,-y,-z
x,-y,1/2+z
1/2+x,1/2+y,z
1/2-x,1/2+y,1/2-z
1/2-x,1/2-y,-z
1/2+x,1/2-y,1/2+z
loop_
_atom_site_type_symbol
_atom_site_label
_atom_site_fract_x
_atom_site_fract_y
_atom_site_fract_z
Si Si1 0.739326 0.919741 0.015015
Si Si2 0.311690 0.981564 0.845553
Si Si3 0.500000 0.439301 0.750000
Si Si4 0.037147 0.736476 0.105765
Si Si5 0.599510 0.120177 0.036364
Si Si6 0.466994 0.651360 0.623551
O O1 0.815731 0.887958 0.104321
O O2 0.761268 0.981423 0.036685
O O3 0.520574 0.905099 0.036983
O O4 0.872390 0.907990 0.873021
O O5 0.500000 0.009380 0.750000
O O6 0.151685 0.972363 0.788298
O O7 0.388078 0.926024 0.874700
O O8 0.996522 0.676284 0.083003
O O9 0.000000 0.736478 0.250000
O O10 0.919203 0.788665 0.097876
O O11 0.250000 0.750000 0.000000
O O12 0.822552 0.134667 0.969610
O O13 0.500000 0.649191 0.750000
#
# Coordination Sequence:
#
# PCOD9298055 Si02
#       6
#     8   8   4   8   8   8
#     4  12  27  39  67 100 129 176 218 268 332 391
#     4  12  26  42  64  96 132 171 220 268 329 391
#     4  12  26  44  64  94 130 178 220 260 324 398
#     4   9  20  40  67  94 129 176 219 272 333 391
#     4  11  23  43  66  96 132 168 223 273 325 387
#     4  10  24  43  66  97 134 174 217 271 334 388
#
# _framework density 21.149386
#
# number of rings (size 3 to 8) (size 9 to 14) (size 15 to 20)
#    0.000    1.091    3.636    1.636    3.818    0.727 
#    0.000    0.000    0.000    4.364    0.000    0.000 
#    0.000    0.000    0.000    0.000    0.000    0.000 
#
# Total GULP energy -122570.478142 kJ/mol
# GULP energy per Si atom -5571.385370 kJ/mol
# Density = 2.110125 g / cm^3
# Si number density = 21.149386 Si / 1000 Ang^3
#
#
#
# Elastic Constant Matrix: (Units=GPa)
#
#
# Indices 1 2 3 4 5 6 
#
# 1 114.7435 38.4271 6.1913 0.0000 32.3453 0.0000
# 2 38.4271 137.5928 38.6123 0.0000 21.8452 0.0000
# 3 6.1913 38.6123 68.8782 0.0000 9.1189 0.0000
# 4 0.0000 0.0000 0.0000 -12.3928 0.0000 -51.3448
# 5 32.3453 21.8452 9.1189 0.0000 29.1775 0.0000
# 6 0.0000 0.0000 0.0000 -51.3448 0.0000 -125.7992
#
#
#
# Elastic Compliance Matrix: (Units=1/GPa)
#
#
# Indices 1 2 3 4 5 6 
#
# 1 0.013122 -0.001994 0.001738 0.000000 -0.013597 0.000000
# 2 -0.001994 0.009743 -0.004808 0.000000 -0.003581 0.000000
# 3 0.001738 -0.004808 0.017563 0.000000 -0.003816 0.000000
# 4 0.000000 0.000000 0.000000 0.116774 0.000000 -0.047661
# 5 -0.013597 -0.003581 -0.003816 0.000000 0.053220 0.000000
# 6 0.000000 0.000000 0.000000 -0.047661 0.000000 0.011504
#
#
# Mechanical properties :
#
#
# Convention : Reuss Voigt Hill
#
# Bulk Modulus (GPa) = 33.00329 54.18620 43.59475
# Shear Modulus (GPa) = 20.64817 -5.93729 7.35544
#
# Velocity S-wave (km/s) = 3.12797 -1.67732 1.86692
# Velocity P-wave (km/s) = 5.35578 4.68243 5.03038
#
# Compressibility (1/GPa) = 0.03030001
#
# Stress axis : x y z
#
# Youngs Moduli (GPa) = 76.20834 102.64261 56.93857
#
# Poissons Ratio (x) = 0.20464 -0.09898
# Poissons Ratio (y) = 0.15194 0.27377
# Poissons Ratio (z) = -0.13248 0.49353
#
# Static dielectric constant tensor:
#      x y z
#    x 1.717490 0.000000 -0.051550 
#    y 0.000000 1.797110 0.000000 
#    z -0.051550 0.000000 1.793240 
# 
# From -- ./inp_files/79047.got.cif
#   From: 2010.05.17/outbox.cif.g08.bks.cpg/sg15_40_cif.got.tgz:79047.got - 2010.06.03 18:47:42.
