data_PCOD9298997
_publ_section_title
;
Structure prediction by ZEFSAII (Michael W. Deem and Ramdas Pophale) SiO2 
 PCOD9298997
Probable space group: C 2/C
;
_chemical_formula_sum "Si O2"
_cell_formula_units_Z 32
_cell_length_a 11.512297
_cell_length_b 7.596350
_cell_length_c 16.482727
_cell_angle_alpha 90.000000
_cell_angle_beta 110.734347
_cell_angle_gamma 90.000000
_cell_volume 1348.079051
_symmetry_space_group_name_H-M "C 2/C"
_symmetry_group_IT_number 15
_symmetry_cell_setting 'monoclinic'
loop_
_space_group_symop_operation_xyz
x,y,z
-x,y,1/2-z
-x,-y,-z
x,-y,1/2+z
1/2+x,1/2+y,z
1/2-x,1/2+y,1/2-z
1/2-x,1/2-y,-z
1/2+x,1/2-y,1/2+z
loop_
_atom_site_type_symbol
_atom_site_label
_atom_site_fract_x
_atom_site_fract_y
_atom_site_fract_z
Si Si1 0.380157 0.888400 0.444454
Si Si2 0.378923 0.979158 0.775897
Si Si3 0.368761 0.483352 0.037295
Si Si4 0.631204 0.607211 0.634536
O O1 0.375192 0.705314 0.491803
O O2 0.250816 0.982428 0.436241
O O3 0.500000 0.000000 0.500000
O O4 0.384581 0.877325 0.348838
O O5 0.500000 0.987519 0.750000
O O6 0.376013 0.791976 0.821061
O O7 0.253969 0.008281 0.694453
O O8 0.499416 0.490776 0.116025
O O9 0.359468 0.620047 0.961157
#
# Coordination Sequence:
#
# PCOD9298997 Si02
#       4
#     8   8   8   8
#     4  11  22  45  76 100 139 179 227 287 341 408
#     4  12  27  46  68 101 145 181 226 285 346 406
#     4  10  24  46  73 102 136 181 233 284 342 404
#     4  11  25  47  69 101 140 180 230 281 345 406
#
# _framework density 23.737482
#
# number of rings (size 3 to 8) (size 9 to 14) (size 15 to 20)
#    0.000    1.000    2.500    3.000    7.000    1.000 
#   13.500    1.250    0.000    0.000    0.000    0.000 
#    0.000    0.000    0.000    0.000    0.000    0.000 
#
# Total GULP energy -89617.885586 kJ/mol
# GULP energy per Si atom -5601.117849 kJ/mol
# Density = 2.368345 g / cm^3
# Si number density = 23.737482 Si / 1000 Ang^3
#
#
#
# Elastic Constant Matrix: (Units=GPa)
#
#
# Indices 1 2 3 4 5 6 
#
# 1 250.2013 68.9247 92.0335 0.0000 7.6851 0.0000
# 2 68.9247 95.6663 37.5325 0.0000 1.6488 0.0000
# 3 92.0335 37.5325 114.8228 0.0000 25.7663 0.0000
# 4 0.0000 0.0000 0.0000 32.5436 0.0000 -2.0098
# 5 7.6851 1.6488 25.7663 0.0000 58.7413 0.0000
# 6 0.0000 0.0000 0.0000 -2.0098 0.0000 24.8258
#
#
#
# Elastic Compliance Matrix: (Units=1/GPa)
#
#
# Indices 1 2 3 4 5 6 
#
# 1 0.006389 -0.002879 -0.004449 0.000000 0.001196 0.000000
# 2 -0.002879 0.013413 -0.002304 0.000000 0.001011 0.000000
# 3 -0.004449 -0.002304 0.014289 0.000000 -0.005621 0.000000
# 4 0.000000 0.000000 0.000000 0.030882 0.000000 0.002500
# 5 0.001196 0.001011 -0.005621 0.000000 0.019305 0.000000
# 6 0.000000 0.000000 0.000000 0.002500 0.000000 0.040483
#
#
# Mechanical properties :
#
#
# Convention : Reuss Voigt Hill
#
# Bulk Modulus (GPa) = 67.43343 95.29687 81.36515
# Shear Modulus (GPa) = 33.56410 40.70212 37.13311
#
# Velocity S-wave (km/s) = 3.76436 4.14536 3.95944
# Velocity P-wave (km/s) = 6.88212 7.94640 7.43333
#
# Compressibility (1/GPa) = 0.01482944
#
# Stress axis : x y z
#
# Youngs Moduli (GPa) = 156.50701 74.55184 69.98165
#
# Poissons Ratio (x) = 0.21461 0.31134
# Poissons Ratio (y) = 0.45053 0.16124
# Poissons Ratio (z) = 0.69627 0.17177
#
# Static dielectric constant tensor:
#      x y z
#    x 1.878500 0.000000 0.025870 
#    y 0.000000 1.976030 0.000000 
#    z 0.025870 0.000000 1.898100 
# 
# From -- ./inp_files/140808.got.cif
#   From: 2010.05.17/outbox.cif.g08.bks.cpg/sg15_71_cif.got.tgz:140808.got - 2010.06.03 18:47:42.
