data_PCOD9298899
_publ_section_title
;
Structure prediction by ZEFSAII (Michael W. Deem and Ramdas Pophale) SiO2 
 PCOD9298899
Probable space group: C 2/C
;
_chemical_formula_sum "Si O2"
_cell_formula_units_Z 52
_cell_length_a 10.237740
_cell_length_b 25.674746
_cell_length_c 13.338528
_cell_angle_alpha 90.000000
_cell_angle_beta 34.511919
_cell_angle_gamma 90.000000
_cell_volume 1986.449854
_symmetry_space_group_name_H-M "C 2/C"
_symmetry_group_IT_number 15
_symmetry_cell_setting 'monoclinic'
loop_
_space_group_symop_operation_xyz
x,y,z
-x,y,1/2-z
-x,-y,-z
x,-y,1/2+z
1/2+x,1/2+y,z
1/2-x,1/2+y,1/2-z
1/2-x,1/2-y,-z
1/2+x,1/2-y,1/2+z
loop_
_atom_site_type_symbol
_atom_site_label
_atom_site_fract_x
_atom_site_fract_y
_atom_site_fract_z
Si Si1 0.672953 0.040078 0.498454
Si Si2 0.131667 0.917078 0.804099
Si Si3 0.231660 0.197965 0.822925
Si Si4 0.670567 0.319857 0.057999
Si Si5 0.000000 0.614945 0.750000
Si Si6 0.748871 0.929863 0.552265
Si Si7 0.597169 0.189459 0.410325
O O1 0.697479 0.043017 0.363755
O O2 0.471942 0.074354 0.674930
O O3 0.886565 0.073377 0.408621
O O4 0.715403 0.983485 0.516182
O O5 0.111085 0.932282 0.933071
O O6 0.249378 0.861477 0.706329
O O7 0.293553 0.157278 0.870223
O O8 0.413661 0.184121 0.618455
O O9 0.964900 0.190730 0.958790
O O10 0.247939 0.259176 0.834427
O O11 0.500000 0.298078 0.250000
O O12 0.673781 0.382349 0.064070
O O13 0.927710 0.302206 0.921312
O O14 0.500000 0.913107 0.750000
#
# Coordination Sequence:
#
# PCOD9298899 Si02
#       7
#     8   8   8   8   4   8   8
#     4  11  26  46  69 102 143 186 229 288 355 417
#     4  11  25  47  70 101 142 184 233 290 349 420
#     4  11  26  42  71 101 137 188 230 287 348 413
#     4  10  24  46  69 102 140 177 235 292 348 410
#     4  12  24  46  66 102 144 182 238 282 340 428
#     4  12  24  44  73 105 134 186 230 293 351 416
#     4  11  24  46  69 102 137 183 233 291 345 409
#
# _framework density 26.177353
#
# number of rings (size 3 to 8) (size 9 to 14) (size 15 to 20)
#    0.000    0.923    3.846    1.846    6.462    2.462 
#    2.769    0.000    0.000    0.000    0.000    0.000 
#    0.000    0.000    0.000    0.000    0.000    0.000 
#
# Total GULP energy -145427.851647 kJ/mol
# GULP energy per Si atom -5593.378909 kJ/mol
# Density = 2.611777 g / cm^3
# Si number density = 26.177353 Si / 1000 Ang^3
#
#
#
# Elastic Constant Matrix: (Units=GPa)
#
#
# Indices 1 2 3 4 5 6 
#
# 1 75.8337 21.5473 3.4422 0.0000 -12.1989 0.0000
# 2 21.5473 196.5322 37.8994 0.0000 18.4597 0.0000
# 3 3.4422 37.8994 80.3982 0.0000 6.2680 0.0000
# 4 0.0000 0.0000 0.0000 31.9565 0.0000 6.6982
# 5 -12.1989 18.4597 6.2680 0.0000 30.7730 0.0000
# 6 0.0000 0.0000 0.0000 6.6982 0.0000 29.1875
#
#
#
# Elastic Compliance Matrix: (Units=1/GPa)
#
#
# Indices 1 2 3 4 5 6 
#
# 1 0.015038 -0.002317 -0.000127 0.000000 0.007377 0.000000
# 2 -0.002317 0.006214 -0.002508 0.000000 -0.004136 0.000000
# 3 -0.000127 -0.002508 0.013730 0.000000 -0.001343 0.000000
# 4 0.000000 0.000000 0.000000 0.032874 0.000000 -0.007544
# 5 0.007377 -0.004136 -0.001343 0.000000 0.038175 0.000000
# 6 0.000000 0.000000 0.000000 -0.007544 0.000000 0.035993
#
#
# Mechanical properties :
#
#
# Convention : Reuss Voigt Hill
#
# Bulk Modulus (GPa) = 39.87389 53.17133 46.52261
# Shear Modulus (GPa) = 31.19423 37.70840 34.45131
#
# Velocity S-wave (km/s) = 3.45577 3.79951 3.63171
# Velocity P-wave (km/s) = 5.58466 6.29320 5.94949
#
# Compressibility (1/GPa) = 0.02507907
#
# Stress axis : x y z
#
# Youngs Moduli (GPa) = 66.50004 160.91889 72.83142
#
# Poissons Ratio (x) = 0.37287 0.00922
# Poissons Ratio (y) = 0.15409 0.18265
# Poissons Ratio (z) = 0.00842 0.40355
#
# Static dielectric constant tensor:
#      x y z
#    x 2.194980 0.000000 0.017790 
#    y 0.000000 2.007050 0.000000 
#    z 0.017790 0.000000 2.273270 
# 
# From -- ./inp_files/148034.got.cif
#   From: 2010.05.17/outbox.cif.g08.bks.cpg/sg15_75_cif.got.tgz:148034.got - 2010.06.03 18:47:42.
