data_PCOD9298753
_publ_section_title
;
Structure prediction by ZEFSAII (Michael W. Deem and Ramdas Pophale) SiO2 
 PCOD9298753
Probable space group: C 2/C
;
_chemical_formula_sum "Si O2"
_cell_formula_units_Z 52
_cell_length_a 12.355720
_cell_length_b 14.832874
_cell_length_c 14.001819
_cell_angle_alpha 90.000000
_cell_angle_beta 57.584900
_cell_angle_gamma 90.000000
_cell_volume 2166.288634
_symmetry_space_group_name_H-M "C 2/C"
_symmetry_group_IT_number 15
_symmetry_cell_setting 'monoclinic'
loop_
_space_group_symop_operation_xyz
x,y,z
-x,y,1/2-z
-x,-y,-z
x,-y,1/2+z
1/2+x,1/2+y,z
1/2-x,1/2+y,1/2-z
1/2-x,1/2-y,-z
1/2+x,1/2-y,1/2+z
loop_
_atom_site_type_symbol
_atom_site_label
_atom_site_fract_x
_atom_site_fract_y
_atom_site_fract_z
Si Si1 0.370599 0.384036 0.567520
Si Si2 0.069827 0.563491 0.889824
Si Si3 0.376209 0.122067 0.201276
Si Si4 0.216592 0.807096 0.608473
Si Si5 0.377473 0.205970 0.485195
Si Si6 0.942132 0.982388 0.874985
Si Si7 0.500000 0.176569 0.750000
O O1 0.234340 0.352580 0.672832
O O2 0.444243 0.293571 0.501736
O O3 0.445085 0.439741 0.613446
O O4 0.365990 0.447502 0.476733
O O5 0.137913 0.486638 0.795159
O O6 0.985217 0.616816 0.852195
O O7 0.147574 0.634166 0.917846
O O8 0.000000 0.500000 0.000000
O O9 0.331141 0.163026 0.121532
O O10 0.477147 0.156784 0.365572
O O11 0.250000 0.750000 0.500000
O O12 0.145312 0.898615 0.613396
O O13 0.119619 0.742013 0.711200
O O14 0.250000 0.250000 0.500000
O O15 0.000000 0.022668 0.750000
#
# Coordination Sequence:
#
# PCOD9298753 Si02
#       7
#     8   8   8   8   8   8   4
#     4  11  25  46  73 110 151 200 263 314 407 463
#     4  10  24  45  72 110 151 201 258 317 393 464
#     4  11  24  46  74 110 151 199 268 324 385 484
#     4  12  23  40  76 109 149 199 260 320 387 461
#     4  11  26  48  72 104 157 206 258 318 401 479
#     4  11  23  46  74 108 155 202 253 330 392 473
#     4  12  24  46  76 106 152 200 256 322 388 454
#
# _framework density 24.004187999999999
#
# number of rings (size 3 to 8) (size 9 to 14) (size 15 to 20)
#    0.000    0.923    2.308    4.615    4.308    3.077 
#    8.308    0.000    0.000    0.000    0.000    0.000 
#    0.000    0.000    0.000    0.000    0.000    0.000 
#
# Total GULP energy -145381.927336 kJ/mol
# GULP energy per Si atom -5591.612590 kJ/mol
# Density = 2.394955 g / cm^3
# Si number density = 24.004188 Si / 1000 Ang^3
#
#
#
# Elastic Constant Matrix: (Units=GPa)
#
#
# Indices 1 2 3 4 5 6 
#
# 1 116.4029 31.9179 29.6496 0.0000 12.7946 0.0000
# 2 31.9179 132.1969 44.3046 0.0000 6.5661 0.0000
# 3 29.6496 44.3046 127.2168 0.0000 3.3076 0.0000
# 4 0.0000 0.0000 0.0000 38.4953 0.0000 0.0595
# 5 12.7946 6.5661 3.3076 0.0000 33.0636 0.0000
# 6 0.0000 0.0000 0.0000 0.0595 0.0000 22.7222
#
#
#
# Elastic Compliance Matrix: (Units=1/GPa)
#
#
# Indices 1 2 3 4 5 6 
#
# 1 0.009824 -0.001663 -0.001624 0.000000 -0.003309 0.000000
# 2 -0.001663 0.008911 -0.002694 0.000000 -0.000857 0.000000
# 3 -0.001624 -0.002694 0.009171 0.000000 0.000246 0.000000
# 4 0.000000 0.000000 0.000000 0.025977 0.000000 -0.000068
# 5 -0.003309 -0.000857 0.000246 0.000000 0.031671 0.000000
# 6 0.000000 0.000000 0.000000 -0.000068 0.000000 0.044010
#
#
# Mechanical properties :
#
#
# Convention : Reuss Voigt Hill
#
# Bulk Modulus (GPa) = 62.71912 65.28452 64.00182
# Shear Modulus (GPa) = 34.05026 36.85252 35.45139
#
# Velocity S-wave (km/s) = 3.77040 3.92248 3.84719
# Velocity P-wave (km/s) = 6.71861 6.91163 6.81580
#
# Compressibility (1/GPa) = 0.01594410
#
# Stress axis : x y z
#
# Youngs Moduli (GPa) = 101.78747 112.21689 109.04115
#
# Poissons Ratio (x) = 0.18665 0.17713
# Poissons Ratio (y) = 0.16930 0.29371
# Poissons Ratio (z) = 0.16535 0.30226
#
# Static dielectric constant tensor:
#      x y z
#    x 1.983390 0.000000 -0.072940 
#    y 0.000000 1.920580 0.000000 
#    z -0.072940 0.000000 2.175760 
# 
# From -- ./inp_files/96947.got.cif
#   From: 2010.05.17/outbox.cif.g08.bks.cpg/sg15_49_cif.got.tgz:96947.got - 2010.06.03 18:47:42.
