data_PCOD9298990
_publ_section_title
;
Structure prediction by ZEFSAII (Michael W. Deem and Ramdas Pophale) SiO2 
 PCOD9298990
Probable space group: C 2/C
;
_chemical_formula_sum "Si O2"
_cell_formula_units_Z 32
_cell_length_a 24.376949
_cell_length_b 9.340798
_cell_length_c 12.650795
_cell_angle_alpha 90.000000
_cell_angle_beta 155.927270
_cell_angle_gamma 90.000000
_cell_volume 1174.980178
_symmetry_space_group_name_H-M "C 2/C"
_symmetry_group_IT_number 15
_symmetry_cell_setting 'monoclinic'
loop_
_space_group_symop_operation_xyz
x,y,z
-x,y,1/2-z
-x,-y,-z
x,-y,1/2+z
1/2+x,1/2+y,z
1/2-x,1/2+y,1/2-z
1/2-x,1/2-y,-z
1/2+x,1/2-y,1/2+z
loop_
_atom_site_type_symbol
_atom_site_label
_atom_site_fract_x
_atom_site_fract_y
_atom_site_fract_z
Si Si1 0.920190 0.744056 0.507663
Si Si2 0.750000 0.250000 0.000000
Si Si3 0.948495 0.142335 0.458544
Si Si4 0.000000 0.698786 0.250000
Si Si5 0.738563 0.967413 0.286556
O O1 0.864691 0.902559 0.441673
O O2 0.803653 0.632797 0.272879
O O3 0.031161 0.748149 0.607648
O O4 0.000000 0.694723 0.750000
O O5 0.711009 0.345480 0.822577
O O6 0.754326 0.103585 0.929589
O O7 0.026287 0.196901 0.696460
O O8 0.000000 0.000000 0.500000
O O9 0.115213 0.602507 0.504036
#
# Coordination Sequence:
#
# PCOD9298990 Si02
#       5
#     8   4   8   4   8
#     4  12  27  48  78 112 150 206 249 310 382 447
#     4  10  24  46  72 108 150 196 244 314 368 452
#     4  11  27  46  77 109 155 193 251 311 381 451
#     4  10  26  48  72 114 148 194 254 308 376 458
#     4  11  26  47  76 108 155 195 258 309 371 455
#
# _framework density 27.234501999999999
#
# number of rings (size 3 to 8) (size 9 to 14) (size 15 to 20)
#    0.000    1.000    3.750    0.000   12.250    7.000 
#    0.000    0.000    0.000    0.000    0.000    0.000 
#    0.000    0.000    0.000    0.000    0.000    0.000 
#
# Total GULP energy -89096.651832 kJ/mol
# GULP energy per Si atom -5568.540740 kJ/mol
# Density = 2.717251 g / cm^3
# Si number density = 27.234502 Si / 1000 Ang^3
#
#
#
# Elastic Constant Matrix: (Units=GPa)
#
#
# Indices 1 2 3 4 5 6 
#
# 1 142.2222 -5.5348 13.3303 0.0000 -23.4784 0.0000
# 2 -5.5348 85.6370 8.1360 0.0000 -5.4011 0.0000
# 3 13.3303 8.1360 171.2510 0.0000 -44.9145 0.0000
# 4 0.0000 0.0000 0.0000 47.6144 0.0000 -5.2588
# 5 -23.4784 -5.4011 -44.9145 0.0000 61.6678 0.0000
# 6 0.0000 0.0000 0.0000 -5.2588 0.0000 24.1347
#
#
#
# Elastic Compliance Matrix: (Units=1/GPa)
#
#
# Indices 1 2 3 4 5 6 
#
# 1 0.007546 0.000663 0.000185 0.000000 0.003066 0.000000
# 2 0.000663 0.011818 -0.000340 0.000000 0.001040 0.000000
# 3 0.000185 -0.000340 0.007234 0.000000 0.005309 0.000000
# 4 0.000000 0.000000 0.000000 0.021520 0.000000 0.004689
# 5 0.003066 0.001040 0.005309 0.000000 0.021341 0.000000
# 6 0.000000 0.000000 0.000000 0.004689 0.000000 0.042456
#
#
# Mechanical properties :
#
#
# Convention : Reuss Voigt Hill
#
# Bulk Modulus (GPa) = 36.21364 47.88591 42.04978
# Shear Modulus (GPa) = 41.63119 52.22863 46.92991
#
# Velocity S-wave (km/s) = 3.91400 4.38395 4.15562
# Velocity P-wave (km/s) = 5.80962 6.57619 6.20476
#
# Compressibility (1/GPa) = 0.02761390
#
# Stress axis : x y z
#
# Youngs Moduli (GPa) = 132.52347 84.61672 138.24420
#
# Poissons Ratio (x) = -0.05614 -0.02560
# Poissons Ratio (y) = -0.08792 0.04706
# Poissons Ratio (z) = -0.02454 0.02880
#
# Static dielectric constant tensor:
#      x y z
#    x 2.102750 0.000000 -0.200620 
#    y 0.000000 2.254890 0.000000 
#    z -0.200620 0.000000 1.589420 
# 
# From -- ./inp_files/117817.got.cif
#   From: 2010.05.17/outbox.cif.g08.bks.cpg/sg15_59_cif.got.tgz:117817.got - 2010.06.03 18:47:42.
