data_PCOD9298050
_publ_section_title
;
Structure prediction by ZEFSAII (Michael W. Deem and Ramdas Pophale) SiO2 
 PCOD9298050
Probable space group: C 2/C
;
_chemical_formula_sum "Si O2"
_cell_formula_units_Z 64
_cell_length_a 10.796785
_cell_length_b 14.163958
_cell_length_c 19.336143
_cell_angle_alpha 90.000000
_cell_angle_beta 95.135248
_cell_angle_gamma 90.000000
_cell_volume 2945.114943
_symmetry_space_group_name_H-M "C 2/C"
_symmetry_group_IT_number 15
_symmetry_cell_setting 'monoclinic'
loop_
_space_group_symop_operation_xyz
x,y,z
-x,y,1/2-z
-x,-y,-z
x,-y,1/2+z
1/2+x,1/2+y,z
1/2-x,1/2+y,1/2-z
1/2-x,1/2-y,-z
1/2+x,1/2-y,1/2+z
loop_
_atom_site_type_symbol
_atom_site_label
_atom_site_fract_x
_atom_site_fract_y
_atom_site_fract_z
Si Si1 0.639978 0.932858 0.550579
Si Si2 0.498748 0.231746 0.826847
Si Si3 0.924230 0.551797 0.600272
Si Si4 0.026116 0.881950 0.176493
Si Si5 0.319647 0.684725 0.410935
Si Si6 0.356095 0.571155 0.169527
Si Si7 0.761411 0.018862 0.312767
Si Si8 0.548439 0.243583 0.449512
O O1 0.660984 0.960624 0.471873
O O2 0.763360 0.921727 0.600704
O O3 0.552030 0.839790 0.546190
O O4 0.557827 0.014503 0.582479
O O5 0.500000 0.191641 0.750000
O O6 0.571285 0.160641 0.879445
O O7 0.361983 0.242750 0.852934
O O8 0.561505 0.334505 0.825504
O O9 0.875682 0.495534 0.664263
O O10 0.997398 0.814811 0.111534
O O11 0.000000 0.836002 0.250000
O O12 0.940170 0.976694 0.170011
O O13 0.166838 0.919597 0.182746
O O14 0.325399 0.584951 0.373443
O O15 0.416404 0.702112 0.477934
O O16 0.180744 0.701204 0.431022
O O17 0.280226 0.562643 0.238020
#
# Coordination Sequence:
#
# PCOD9298050 Si02
#       8
#     8   8   8   8   8   8   8   8
#     4  11  26  45  61  97 139 168 215 276 320 383
#     4  12  24  44  69  97 130 175 219 273 323 390
#     4  11  27  44  66  94 133 176 216 263 328 391
#     4  10  24  43  66  96 131 170 219 267 326 387
#     4  11  23  44  69  93 132 173 223 259 331 385
#     4  11  25  43  67  96 135 166 215 280 326 378
#     4  11  23  46  65  95 131 173 217 271 321 390
#     4  11  25  42  68  99 130 176 216 271 321 394
#
# _framework density 21.730900999999999
#
# number of rings (size 3 to 8) (size 9 to 14) (size 15 to 20)
#    0.000    1.000    5.000    0.375    7.000    4.000 
#    0.000    0.000    0.000    0.000    0.000    0.000 
#    0.000    0.000    0.000    0.000    0.000    0.000 
#
# Total GULP energy -178876.236269 kJ/mol
# GULP energy per Si atom -5589.882383 kJ/mol
# Density = 2.168144 g / cm^3
# Si number density = 21.730901 Si / 1000 Ang^3
#
#
#
# Elastic Constant Matrix: (Units=GPa)
#
#
# Indices 1 2 3 4 5 6 
#
# 1 32.4716 -13.9952 4.0324 0.0000 1.8808 0.0000
# 2 -13.9952 59.6724 11.9092 0.0000 -5.5835 0.0000
# 3 4.0324 11.9092 64.8205 0.0000 -7.0176 0.0000
# 4 0.0000 0.0000 0.0000 -7.2367 0.0000 33.8348
# 5 1.8808 -5.5835 -7.0176 0.0000 37.7737 0.0000
# 6 0.0000 0.0000 0.0000 33.8348 0.0000 -11.0262
#
#
#
# Elastic Compliance Matrix: (Units=1/GPa)
#
#
# Indices 1 2 3 4 5 6 
#
# 1 0.035208 0.008938 -0.003959 0.000000 -0.001167 0.000000
# 2 0.008938 0.019817 -0.004009 0.000000 0.001740 0.000000
# 3 -0.003959 -0.004009 0.016703 0.000000 0.002708 0.000000
# 4 0.000000 0.000000 0.000000 0.010353 0.000000 0.031770
# 5 -0.001167 0.001740 0.002708 0.000000 0.027292 0.000000
# 6 0.000000 0.000000 0.000000 0.031770 0.000000 0.006795
#
#
# Mechanical properties :
#
#
# Convention : Reuss Voigt Hill
#
# Bulk Modulus (GPa) = 13.57409 17.87305 15.72357
# Shear Modulus (GPa) = 36.02743 14.23669 25.13206
#
# Velocity S-wave (km/s) = 4.07614 2.56234 3.40444
# Velocity P-wave (km/s) = 5.33040 4.12270 4.76497
#
# Compressibility (1/GPa) = 0.07366975
#
# Stress axis : x y z
#
# Youngs Moduli (GPa) = 28.40284 50.46101 59.86905
#
# Poissons Ratio (x) = -0.45103 0.23701
# Poissons Ratio (y) = -0.25387 0.24000
# Poissons Ratio (z) = 0.11244 0.20228
#
# Static dielectric constant tensor:
#      x y z
#    x 1.792380 0.000000 -0.024440 
#    y 0.000000 1.782240 0.000000 
#    z -0.024440 0.000000 1.800770 
# 
# From -- ./inp_files/198352.got.cif
#   From: 2010.05.17/outbox.cif.g08.bks.cpg/sg15_100_cif.got.tgz:198352.got - 2010.06.03 18:47:42.
