data_PCOD9298849
_publ_section_title
;
Structure prediction by ZEFSAII (Michael W. Deem and Ramdas Pophale) SiO2 
 PCOD9298849
Probable space group: C 2/C
;
_chemical_formula_sum "Si O2"
_cell_formula_units_Z 64
_cell_length_a 13.854696
_cell_length_b 24.420921
_cell_length_c 17.162355
_cell_angle_alpha 90.000000
_cell_angle_beta 31.099565
_cell_angle_gamma 90.000000
_cell_volume 2999.361441
_symmetry_space_group_name_H-M "C 2/C"
_symmetry_group_IT_number 15
_symmetry_cell_setting 'monoclinic'
loop_
_space_group_symop_operation_xyz
x,y,z
-x,y,1/2-z
-x,-y,-z
x,-y,1/2+z
1/2+x,1/2+y,z
1/2-x,1/2+y,1/2-z
1/2-x,1/2-y,-z
1/2+x,1/2-y,1/2+z
loop_
_atom_site_type_symbol
_atom_site_label
_atom_site_fract_x
_atom_site_fract_y
_atom_site_fract_z
Si Si1 0.525835 0.280543 0.985905
Si Si2 0.949708 0.133801 0.161675
Si Si3 0.337859 0.172761 0.678033
Si Si4 0.194412 0.386589 0.987902
Si Si5 0.721665 0.144578 0.084966
Si Si6 0.039026 0.495754 0.565086
Si Si7 0.838310 0.954896 0.609798
Si Si8 0.293710 0.392620 0.377025
O O1 0.326903 0.298258 0.159579
O O2 0.552870 0.310209 0.884215
O O3 0.557971 0.216968 0.948520
O O4 0.682859 0.307006 0.932688
O O5 0.811659 0.132010 0.330578
O O6 0.879917 0.086223 0.152419
O O7 0.162885 0.124259 0.040915
O O8 0.495566 0.144154 0.622067
O O9 0.244439 0.129228 0.683101
O O10 0.151848 0.450934 0.012212
O O11 0.500000 0.142679 0.250000
O O12 0.809519 0.087079 0.057260
O O13 0.765537 0.152421 0.963635
O O14 0.151017 0.440006 0.496377
O O15 0.000000 0.500000 0.500000
O O16 0.850767 0.488058 0.743569
O O17 0.000000 0.000000 0.500000
O O18 0.500000 0.414339 0.250000
#
# Coordination Sequence:
#
# PCOD9298849 Si02
#       8
#     8   8   8   8   8   8   8   8
#     4  11  27  47  72 100 135 175 226 290 340 402
#     4  10  24  46  66  98 133 177 229 280 335 400
#     4  12  26  47  72 102 133 179 226 285 345 402
#     4  11  25  44  71 100 135 183 229 278 341 402
#     4  11  25  45  66  99 138 182 223 278 338 403
#     4  12  24  40  68 100 141 182 220 279 335 403
#     4  11  25  40  63  97 140 182 226 276 332 399
#     4  12  26  44  69 103 142 177 229 272 338 415
#
# _framework density 21.337876000000001
#
# number of rings (size 3 to 8) (size 9 to 14) (size 15 to 20)
#    0.000    0.750    5.000    0.750   12.250    2.000 
#    0.000    0.000    0.000    0.000    0.000    0.000 
#    0.000    0.000    0.000    0.000    0.000    0.000 
#
# Total GULP energy -178982.996693 kJ/mol
# GULP energy per Si atom -5593.218647 kJ/mol
# Density = 2.128931 g / cm^3
# Si number density = 21.337876 Si / 1000 Ang^3
#
#
#
# Elastic Constant Matrix: (Units=GPa)
#
#
# Indices 1 2 3 4 5 6 
#
# 1 78.2703 4.3319 -1.0367 0.0335 -15.7236 -0.0091
# 2 4.3319 59.0803 -0.2799 0.0422 -13.0918 0.0058
# 3 -1.0367 -0.2799 82.2209 0.0675 -16.7005 -0.0132
# 4 0.0335 0.0422 0.0675 35.5015 -0.0129 -6.6235
# 5 -15.7236 -13.0918 -16.7005 -0.0129 32.8412 0.0015
# 6 -0.0091 0.0058 -0.0132 -6.6235 0.0015 8.9126
#
#
#
# Elastic Compliance Matrix: (Units=1/GPa)
#
#
# Indices 1 2 3 4 5 6 
#
# 1 0.014391 0.000754 0.001834 -0.000014 0.008123 0.000005
# 2 0.000754 0.018833 0.001864 -0.000029 0.008817 -0.000032
# 3 0.001834 0.001864 0.013963 -0.000027 0.008722 0.000000
# 4 -0.000014 -0.000029 -0.000027 0.032702 -0.000021 0.024303
# 5 0.008123 0.008817 0.008722 -0.000021 0.042289 -0.000007
# 6 0.000005 -0.000032 0.000000 0.024303 -0.000007 0.130262
#
#
# Mechanical properties :
#
#
# Convention : Reuss Voigt Hill
#
# Bulk Modulus (GPa) = 17.82806 25.06688 21.44747
# Shear Modulus (GPa) = 19.06699 29.88815 24.47757
#
# Velocity S-wave (km/s) = 2.99252 3.74666 3.39062
# Velocity P-wave (km/s) = 4.50705 5.52175 5.04000
#
# Compressibility (1/GPa) = 0.05609134
#
# Stress axis : x y z
#
# Youngs Moduli (GPa) = 69.48965 53.09707 71.61556
#
# Poissons Ratio (x) = -0.04001 -0.13134
# Poissons Ratio (y) = -0.05236 -0.13352
# Poissons Ratio (z) = -0.12744 -0.09900
#
# Static dielectric constant tensor:
#      x y z
#    x 1.704090 -0.000010 -0.015470 
#    y -0.000010 1.767480 0.000020 
#    z -0.015470 0.000020 1.773160 
# 
# From -- ./inp_files/207335.got.cif
#   From: 2010.05.17/outbox.cif.g08.bks.cpg/sg15_104_cif.got.tgz:207335.got - 2010.06.03 18:47:42.
