data_PCOD9298703
_publ_section_title
;
Structure prediction by ZEFSAII (Michael W. Deem and Ramdas Pophale) SiO2 
 PCOD9298703
Probable space group: C 2/C
;
_chemical_formula_sum "Si O2"
_cell_formula_units_Z 32
_cell_length_a 4.754384
_cell_length_b 17.381604
_cell_length_c 15.181923
_cell_angle_alpha 90.000000
_cell_angle_beta 89.650625
_cell_angle_gamma 90.000000
_cell_volume 1254.592877
_symmetry_space_group_name_H-M "C 2/C"
_symmetry_group_IT_number 15
_symmetry_cell_setting 'monoclinic'
loop_
_space_group_symop_operation_xyz
x,y,z
-x,y,1/2-z
-x,-y,-z
x,-y,1/2+z
1/2+x,1/2+y,z
1/2-x,1/2+y,1/2-z
1/2-x,1/2-y,-z
1/2+x,1/2-y,1/2+z
loop_
_atom_site_type_symbol
_atom_site_label
_atom_site_fract_x
_atom_site_fract_y
_atom_site_fract_z
Si Si1 0.299409 0.838049 0.482001
Si Si2 0.386347 0.033291 0.094052
Si Si3 0.302820 0.369091 0.376337
Si Si4 0.500000 0.866770 0.750000
Si Si5 0.000000 0.248063 0.250000
O O1 0.250000 0.750000 0.500000
O O2 0.194609 0.898422 0.554824
O O3 0.630968 0.849331 0.466277
O O4 0.131003 0.858761 0.393505
O O5 0.569988 0.077814 0.166824
O O6 0.254972 0.958705 0.141298
O O7 0.500000 0.000000 0.000000
O O8 0.171939 0.306207 0.312482
O O9 0.246017 0.811090 0.721206
#
# Coordination Sequence:
#
# PCOD9298703 Si02
#       5
#     8   8   8   4   4
#     4  11  22  39  65  95 130 174 222 273 334 402
#     4  10  24  45  70 103 139 183 232 288 352 416
#     4  11  23  40  64  93 131 174 219 276 337 402
#     4  12  27  46  69 100 138 180 234 292 349 422
#     4  12  25  44  67 100 138 182 234 288 347 414
#
# _framework density 25.506281000000001
#
# number of rings (size 3 to 8) (size 9 to 14) (size 15 to 20)
#    0.000    1.000    0.000    6.750    0.000   10.000 
#    0.000    2.500    0.000    0.000    0.000    0.000 
#    0.000    0.000    0.000    0.000    0.000    0.000 
#
# Total GULP energy -89278.702840 kJ/mol
# GULP energy per Si atom -5579.918928 kJ/mol
# Density = 2.544823 g / cm^3
# Si number density = 25.506281 Si / 1000 Ang^3
#
#
#
# Elastic Constant Matrix: (Units=GPa)
#
#
# Indices 1 2 3 4 5 6 
#
# 1 77.2572 24.4382 16.3275 0.0000 8.5815 0.0000
# 2 24.4382 231.0395 62.5725 0.0000 4.7632 0.0000
# 3 16.3275 62.5725 126.9230 0.0000 13.0779 0.0000
# 4 0.0000 0.0000 0.0000 49.0536 0.0000 0.3346
# 5 8.5815 4.7632 13.0779 0.0000 29.3560 0.0000
# 6 0.0000 0.0000 0.0000 0.3346 0.0000 22.7809
#
#
#
# Elastic Compliance Matrix: (Units=1/GPa)
#
#
# Indices 1 2 3 4 5 6 
#
# 1 0.013880 -0.001166 -0.000851 0.000000 -0.003489 0.000000
# 2 -0.001166 0.005096 -0.002423 0.000000 0.000594 0.000000
# 3 -0.000851 -0.002423 0.009555 0.000000 -0.003615 0.000000
# 4 0.000000 0.000000 0.000000 0.020388 0.000000 -0.000299
# 5 -0.003489 0.000594 -0.003615 0.000000 0.036599 0.000000
# 6 0.000000 0.000000 0.000000 -0.000299 0.000000 0.043901
#
#
# Mechanical properties :
#
#
# Convention : Reuss Voigt Hill
#
# Bulk Modulus (GPa) = 50.88959 71.32179 61.10569
# Shear Modulus (GPa) = 34.51864 42.36353 38.44109
#
# Velocity S-wave (km/s) = 3.68277 4.07984 3.88638
# Velocity P-wave (km/s) = 6.17080 7.08637 6.64437
#
# Compressibility (1/GPa) = 0.01965039
#
# Stress axis : x y z
#
# Youngs Moduli (GPa) = 72.04624 196.24631 104.65207
#
# Poissons Ratio (x) = 0.22875 0.08910
# Poissons Ratio (y) = 0.08398 0.25361
# Poissons Ratio (z) = 0.06134 0.47557
#
# Static dielectric constant tensor:
#      x y z
#    x 1.992140 0.000000 -0.086440 
#    y 0.000000 2.005120 0.000000 
#    z -0.086440 0.000000 2.105250 
# 
# From -- ./inp_files/128174.got.cif
#   From: 2010.05.17/outbox.cif.g08.bks.cpg/sg15_65_cif.got.tgz:128174.got - 2010.06.03 18:47:42.
