data_PCOD9298845
_publ_section_title
;
Structure prediction by ZEFSAII (Michael W. Deem and Ramdas Pophale) SiO2 
 PCOD9298845
Probable space group: C 2/C
;
_chemical_formula_sum "Si O2"
_cell_formula_units_Z 48
_cell_length_a 20.732619
_cell_length_b 11.099986
_cell_length_c 8.820300
_cell_angle_alpha 90.000000
_cell_angle_beta 74.488100
_cell_angle_gamma 90.000000
_cell_volume 1955.894593
_symmetry_space_group_name_H-M "C 2/C"
_symmetry_group_IT_number 15
_symmetry_cell_setting 'monoclinic'
loop_
_space_group_symop_operation_xyz
x,y,z
-x,y,1/2-z
-x,-y,-z
x,-y,1/2+z
1/2+x,1/2+y,z
1/2-x,1/2+y,1/2-z
1/2-x,1/2-y,-z
1/2+x,1/2-y,1/2+z
loop_
_atom_site_type_symbol
_atom_site_label
_atom_site_fract_x
_atom_site_fract_y
_atom_site_fract_z
Si Si1 0.500000 0.500000 0.000000
Si Si2 0.816763 0.408105 0.526697
Si Si3 0.886919 0.186173 0.618724
Si Si4 0.917657 0.389033 0.073772
Si Si5 0.774204 0.987271 0.656855
Si Si6 0.382546 0.662055 0.952462
Si Si7 0.000000 0.474657 0.750000
O O1 0.457050 0.373410 0.031298
O O2 0.559740 0.438596 0.070851
O O3 0.858742 0.287190 0.525488
O O4 0.862112 0.521247 0.544214
O O5 0.756491 0.411592 0.687004
O O6 0.782947 0.433949 0.387601
O O7 0.889464 0.233047 0.790266
O O8 0.833775 0.076869 0.664760
O O9 0.943133 0.438275 0.217370
O O10 0.892660 0.253325 0.084957
O O11 0.977119 0.399922 0.911046
O O12 0.809837 0.897190 0.516637
#
# Coordination Sequence:
#
# PCOD9298845 Si02
#       7
#     4   8   8   8   8   8   4
#     4  10  26  44  70 102 136 188 244 286 372 426
#     4  12  25  45  73 105 143 187 238 292 362 427
#     4  11  24  46  73 102 143 192 235 306 353 428
#     4  11  25  44  72 104 142 189 236 303 355 431
#     4  11  25  46  70 107 142 186 243 289 358 437
#     4  11  24  47  72 101 146 189 235 304 361 429
#     4  10  24  46  66 110 142 184 248 286 366 426
#
# _framework density 24.541198000000001
#
# number of rings (size 3 to 8) (size 9 to 14) (size 15 to 20)
#    0.000    1.000    1.667    4.000    9.333    1.333 
#    9.000    0.000    0.000    0.000    0.000    0.000 
#    0.000    0.000    0.000    0.000    0.000    0.000 
#
# Total GULP energy -133847.108152 kJ/mol
# GULP energy per Si atom -5576.962840 kJ/mol
# Density = 2.448534 g / cm^3
# Si number density = 24.541198 Si / 1000 Ang^3
#
#
#
# Elastic Constant Matrix: (Units=GPa)
#
#
# Indices 1 2 3 4 5 6 
#
# 1 81.7474 6.4368 -3.0114 0.0000 -3.0507 0.0000
# 2 6.4368 67.0296 10.6634 0.0000 -14.4214 0.0000
# 3 -3.0114 10.6634 67.5783 0.0000 -1.0636 0.0000
# 4 0.0000 0.0000 0.0000 18.6285 0.0000 1.9178
# 5 -3.0507 -14.4214 -1.0636 0.0000 32.1002 0.0000
# 6 0.0000 0.0000 0.0000 1.9178 0.0000 52.9435
#
#
#
# Elastic Compliance Matrix: (Units=1/GPa)
#
#
# Indices 1 2 3 4 5 6 
#
# 1 0.012377 -0.001161 0.000745 0.000000 0.000679 0.000000
# 2 -0.001161 0.017054 -0.002625 0.000000 0.007464 0.000000
# 3 0.000745 -0.002625 0.015236 0.000000 -0.000604 0.000000
# 4 0.000000 0.000000 0.000000 0.053882 0.000000 -0.001952
# 5 0.000679 0.007464 -0.000604 0.000000 0.034550 0.000000
# 6 0.000000 0.000000 0.000000 -0.001952 0.000000 0.018959
#
#
# Mechanical properties :
#
#
# Convention : Reuss Voigt Hill
#
# Bulk Modulus (GPa) = 25.91686 27.17033 26.54360
# Shear Modulus (GPa) = 29.23957 34.21887 31.72922
#
# Velocity S-wave (km/s) = 3.45548 3.73814 3.59959
# Velocity P-wave (km/s) = 5.14820 5.45224 5.30240
#
# Compressibility (1/GPa) = 0.03858492
#
# Stress axis : x y z
#
# Youngs Moduli (GPa) = 80.79479 58.63771 65.63572
#
# Poissons Ratio (x) = 0.06808 -0.04893
# Poissons Ratio (y) = 0.09380 0.17231
# Poissons Ratio (z) = -0.06023 0.15394
#
# Static dielectric constant tensor:
#      x y z
#    x 1.955100 0.000000 -0.060670 
#    y 0.000000 1.925020 0.000000 
#    z -0.060670 0.000000 1.977940 
# 
# From -- ./inp_files/60584.got.cif
#   From: 2010.05.17/outbox.cif.g08.bks.cpg/sg15_31_cif.got.tgz:60584.got - 2010.06.03 18:47:42.
