data_PCOD9298787
_publ_section_title
;
Structure prediction by ZEFSAII (Michael W. Deem and Ramdas Pophale) SiO2 
 PCOD9298787
Probable space group: C 2/C
;
_chemical_formula_sum "Si O2"
_cell_formula_units_Z 44
_cell_length_a 5.020162
_cell_length_b 22.659548
_cell_length_c 15.436334
_cell_angle_alpha 90.000000
_cell_angle_beta 106.953104
_cell_angle_gamma 90.000000
_cell_volume 1679.646831
_symmetry_space_group_name_H-M "C 2/C"
_symmetry_group_IT_number 15
_symmetry_cell_setting 'monoclinic'
loop_
_space_group_symop_operation_xyz
x,y,z
-x,y,1/2-z
-x,-y,-z
x,-y,1/2+z
1/2+x,1/2+y,z
1/2-x,1/2+y,1/2-z
1/2-x,1/2-y,-z
1/2+x,1/2-y,1/2+z
loop_
_atom_site_type_symbol
_atom_site_label
_atom_site_fract_x
_atom_site_fract_y
_atom_site_fract_z
Si Si1 0.309481 0.531160 0.605850
Si Si2 0.744915 0.368994 0.174342
Si Si3 0.142493 0.681926 0.381268
Si Si4 0.497946 0.790752 0.058228
Si Si5 0.500000 0.256663 0.250000
Si Si6 0.329405 0.047287 0.102109
O O1 0.479257 0.588974 0.650040
O O2 0.164337 0.550093 0.502162
O O3 0.552718 0.485641 0.604505
O O4 0.094936 0.494865 0.645480
O O5 0.867670 0.346901 0.093896
O O6 0.668026 0.308295 0.211580
O O7 0.000000 0.396955 0.250000
O O8 0.300375 0.745440 0.367740
O O9 0.872690 0.701862 0.304723
O O10 0.193804 0.614150 0.367114
O O11 0.152928 0.688394 0.485880
O O12 0.250000 0.750000 0.000000
#
# Coordination Sequence:
#
# PCOD9298787 Si02
#       6
#     8   8   8   8   4   8
#     4  10  25  45  73 107 144 195 253 310 376 440
#     4  12  26  44  72 105 156 194 250 316 381 460
#     4  11  25  42  71 104 144 187 249 303 380 450
#     4  11  23  41  70 105 139 192 239 304 378 446
#     4  12  26  46  66 108 144 194 242 314 388 446
#     4  10  24  45  74 108 142 194 252 313 366 457
#
# _framework density 26.195982000000001
#
# number of rings (size 3 to 8) (size 9 to 14) (size 15 to 20)
#    0.000    1.091    3.636    1.091   15.273    0.000 
#    1.636    0.000    0.000    0.000    0.000    0.000 
#    0.000    0.000    0.000    0.000    0.000    0.000 
#
# Total GULP energy -122704.952585 kJ/mol
# GULP energy per Si atom -5577.497845 kJ/mol
# Density = 2.613636 g / cm^3
# Si number density = 26.195982 Si / 1000 Ang^3
#
#
#
# Elastic Constant Matrix: (Units=GPa)
#
#
# Indices 1 2 3 4 5 6 
#
# 1 93.6580 50.9284 14.4117 0.0000 10.5018 0.0000
# 2 50.9284 233.8772 61.3281 0.0000 6.6458 0.0000
# 3 14.4117 61.3281 86.0446 0.0000 -0.0468 0.0000
# 4 0.0000 0.0000 0.0000 41.7992 0.0000 -3.1588
# 5 10.5018 6.6458 -0.0468 0.0000 39.0043 0.0000
# 6 0.0000 0.0000 0.0000 -3.1588 0.0000 31.4277
#
#
#
# Elastic Compliance Matrix: (Units=1/GPa)
#
#
# Indices 1 2 3 4 5 6 
#
# 1 0.012434 -0.002556 -0.000262 0.000000 -0.002913 0.000000
# 2 -0.002556 0.005816 -0.003717 0.000000 -0.000307 0.000000
# 3 -0.000262 -0.003717 0.014316 0.000000 0.000721 0.000000
# 4 0.000000 0.000000 0.000000 0.024107 0.000000 0.002423
# 5 -0.002913 -0.000307 0.000721 0.000000 0.026476 0.000000
# 6 0.000000 0.000000 0.000000 0.002423 0.000000 0.032063
#
#
# Mechanical properties :
#
#
# Convention : Reuss Voigt Hill
#
# Bulk Modulus (GPa) = 51.29735 74.10182 62.69958
# Shear Modulus (GPa) = 37.09746 41.57368 39.33557
#
# Velocity S-wave (km/s) = 3.76726 3.98807 3.87924
# Velocity P-wave (km/s) = 6.20868 7.03954 6.63712
#
# Compressibility (1/GPa) = 0.01949419
#
# Stress axis : x y z
#
# Youngs Moduli (GPa) = 80.42470 171.94458 69.85334
#
# Poissons Ratio (x) = 0.43949 0.01833
# Poissons Ratio (y) = 0.20557 0.25966
# Poissons Ratio (z) = 0.02110 0.63917
#
# Static dielectric constant tensor:
#      x y z
#    x 2.669170 0.000000 0.804960 
#    y 0.000000 2.006860 0.000000 
#    z 0.804960 0.000000 4.476990 
# 
# From -- ./inp_files/184974.got.cif
#   From: 2010.05.17/outbox.cif.g08.bks.cpg/sg15_93_cif.got.tgz:184974.got - 2010.06.03 18:47:42.
