data_PCOD9298052
_publ_section_title
;
Structure prediction by ZEFSAII (Michael W. Deem and Ramdas Pophale) SiO2 
 PCOD9298052
Probable space group: C 2/C
;
_chemical_formula_sum "Si O2"
_cell_formula_units_Z 52
_cell_length_a 10.022808
_cell_length_b 27.772552
_cell_length_c 15.758927
_cell_angle_alpha 90.000000
_cell_angle_beta 35.957308
_cell_angle_gamma 90.000000
_cell_volume 2575.756370
_symmetry_space_group_name_H-M "C 2/C"
_symmetry_group_IT_number 15
_symmetry_cell_setting 'monoclinic'
loop_
_space_group_symop_operation_xyz
x,y,z
-x,y,1/2-z
-x,-y,-z
x,-y,1/2+z
1/2+x,1/2+y,z
1/2-x,1/2+y,1/2-z
1/2-x,1/2-y,-z
1/2+x,1/2-y,1/2+z
loop_
_atom_site_type_symbol
_atom_site_label
_atom_site_fract_x
_atom_site_fract_y
_atom_site_fract_z
Si Si1 0.266151 0.547451 0.818174
Si Si2 0.903994 0.806515 0.576319
Si Si3 0.935383 0.878380 0.868296
Si Si4 0.045435 0.379203 0.326077
Si Si5 0.368789 0.944534 0.661892
Si Si6 0.500000 0.875731 0.750000
Si Si7 0.170047 0.270553 0.240833
O O1 0.500000 0.541826 0.750000
O O2 0.255251 0.592189 0.758795
O O3 0.199841 0.500605 0.796532
O O4 0.070763 0.555057 0.989384
O O5 0.710658 0.838737 0.632125
O O6 0.820088 0.768048 0.689201
O O7 0.039963 0.845359 0.562365
O O8 0.079585 0.780306 0.424538
O O9 0.872213 0.919049 0.733912
O O10 0.000000 0.849450 0.750000
O O11 0.678896 0.895778 0.007571
O O12 0.078863 0.322211 0.320729
O O13 0.000000 0.388721 0.250000
O O14 0.458363 0.911855 0.693233
O O15 0.000000 0.258233 0.250000
#
# Coordination Sequence:
#
# PCOD9298052 Si02
#       7
#     8   8   8   8   8   4   8
#     4  11  25  42  68 100 138 177 223 282 341 410
#     4  11  24  41  65  94 134 173 230 278 340 397
#     4  11  20  40  66  93 130 176 223 277 331 397
#     4  11  24  42  66 102 138 177 229 278 336 398
#     4  10  24  43  66  96 132 176 228 274 343 403
#     4  10  26  46  66  96 132 180 226 286 340 412
#     4  11  23  40  64  98 132 174 228 281 330 406
#
# _framework density 20.188244999999998
#
# number of rings (size 3 to 8) (size 9 to 14) (size 15 to 20)
#    0.000    1.231    4.615    1.385    7.538    0.615 
#    1.385    1.538    0.000    0.000    0.000    0.000 
#    0.000    0.000    0.000    0.000    0.000    0.000 
#
# Total GULP energy -144982.446471 kJ/mol
# GULP energy per Si atom -5576.247941 kJ/mol
# Density = 2.014230 g / cm^3
# Si number density = 20.188245 Si / 1000 Ang^3
#
#
#
# Elastic Constant Matrix: (Units=GPa)
#
#
# Indices 1 2 3 4 5 6 
#
# 1 105.6431 52.6358 31.4194 0.0001 -14.4450 0.0000
# 2 52.6358 111.3390 31.7217 0.0000 -4.7182 0.0000
# 3 31.4194 31.7217 113.1339 0.0001 -14.4979 0.0000
# 4 0.0001 0.0000 0.0001 -184.1278 -0.0001 113.5516
# 5 -14.4450 -4.7182 -14.4979 -0.0001 18.4248 0.0000
# 6 0.0000 0.0000 0.0000 113.5516 0.0000 -29.7699
#
#
#
# Elastic Compliance Matrix: (Units=1/GPa)
#
#
# Indices 1 2 3 4 5 6 
#
# 1 0.013896 -0.005891 -0.001117 0.000000 0.008507 0.000000
# 2 -0.005891 0.012261 -0.002215 0.000000 -0.003221 0.000000
# 3 -0.001117 -0.002215 0.010660 0.000000 0.006945 0.000000
# 4 0.000000 0.000000 0.000000 0.004016 0.000000 0.015319
# 5 0.008507 -0.003221 0.006945 0.000000 0.065584 0.000000
# 6 0.000000 0.000000 0.000000 0.015319 0.000000 0.024840
#
#
# Mechanical properties :
#
#
# Convention : Reuss Voigt Hill
#
# Bulk Modulus (GPa) = 54.43047 62.40775 58.41911
# Shear Modulus (GPa) = 32.08670 -24.80531 3.64070
#
# Velocity S-wave (km/s) = 3.99102 -3.50909 1.34435
# Velocity P-wave (km/s) = 6.94677 3.81599 5.60444
#
# Compressibility (1/GPa) = 0.01837206
#
# Stress axis : x y z
#
# Youngs Moduli (GPa) = 71.96141 81.56014 93.80515
#
# Poissons Ratio (x) = 0.48044 0.10482
# Poissons Ratio (y) = 0.42390 0.20775
# Poissons Ratio (z) = 0.08041 0.18063
#
# Static dielectric constant tensor:
#      x y z
#    x 1.755390 0.000000 -0.000550 
#    y 0.000000 1.718510 0.000000 
#    z -0.000550 0.000000 1.711880 
# 
# From -- ./inp_files/138449.got.cif
#   From: 2010.05.17/outbox.cif.g08.bks.cpg/sg15_70_cif.got.tgz:138449.got - 2010.06.03 18:47:42.
