data_PCOD9298187
_publ_section_title
;
Structure prediction by ZEFSAII (Michael W. Deem and Ramdas Pophale) SiO2 
 PCOD9298187
Probable space group: C 2/C
;
_chemical_formula_sum "Si O2"
_cell_formula_units_Z 28
_cell_length_a 17.285004
_cell_length_b 5.285494
_cell_length_c 14.697034
_cell_angle_alpha 90.000000
_cell_angle_beta 128.229706
_cell_angle_gamma 90.000000
_cell_volume 1054.753440
_symmetry_space_group_name_H-M "C 2/C"
_symmetry_group_IT_number 15
_symmetry_cell_setting 'monoclinic'
loop_
_space_group_symop_operation_xyz
x,y,z
-x,y,1/2-z
-x,-y,-z
x,-y,1/2+z
1/2+x,1/2+y,z
1/2-x,1/2+y,1/2-z
1/2-x,1/2-y,-z
1/2+x,1/2-y,1/2+z
loop_
_atom_site_type_symbol
_atom_site_label
_atom_site_fract_x
_atom_site_fract_y
_atom_site_fract_z
Si Si1 0.714048 0.841229 0.774760
Si Si2 0.465244 0.178375 0.876603
Si Si3 0.500000 0.544958 0.750000
Si Si4 0.120540 0.316001 0.989538
O O1 0.764919 0.101637 0.775244
O O2 0.600959 0.929263 0.693115
O O3 0.768362 0.755287 0.906359
O O4 0.442660 0.370643 0.780538
O O5 0.580769 0.105096 0.955867
O O6 0.434336 0.262016 0.954942
O O7 0.576336 0.691539 0.868589
#
# Coordination Sequence:
#
# PCOD9298187 Si02
#       4
#     8   8   4   8
#     4  10  24  43  73 103 133 186 236 281 346 409
#     4  10  24  44  69 101 138 182 229 287 347 411
#     4  12  24  40  68 106 134 188 224 288 342 422
#     4  10  24  44  71  97 139 183 230 284 348 408
#
# _framework density 26.546485000000001
#
# number of rings (size 3 to 8) (size 9 to 14) (size 15 to 20)
#    0.000    1.714    0.000    1.714   20.000    1.143 
#    0.000    5.714    0.000    0.000    0.000    0.000 
#    0.000    0.000    0.000    0.000    0.000    0.000 
#
# Total GULP energy -78304.349100 kJ/mol
# GULP energy per Si atom -5593.167793 kJ/mol
# Density = 2.648606 g / cm^3
# Si number density = 26.546485 Si / 1000 Ang^3
#
#
#
# Elastic Constant Matrix: (Units=GPa)
#
#
# Indices 1 2 3 4 5 6 
#
# 1 90.1413 40.2740 60.6292 0.0001 -0.7677 0.0000
# 2 40.2740 90.2445 44.8938 0.0004 -3.6392 0.0004
# 3 60.6292 44.8938 252.9542 0.0000 -14.1374 0.0001
# 4 0.0001 0.0004 0.0000 44.1283 0.0000 -10.9465
# 5 -0.7677 -3.6392 -14.1374 0.0000 60.3248 0.0000
# 6 0.0000 0.0004 0.0001 -10.9465 0.0000 44.7591
#
#
#
# Elastic Compliance Matrix: (Units=1/GPa)
#
#
# Indices 1 2 3 4 5 6 
#
# 1 0.015416 -0.005541 -0.002755 0.000000 -0.000784 0.000000
# 2 -0.005541 0.014149 -0.001154 0.000000 0.000512 0.000000
# 3 -0.002755 -0.001154 0.004877 0.000000 0.001038 0.000000
# 4 0.000000 0.000000 0.000000 0.024125 0.000000 0.005900
# 5 -0.000784 0.000512 0.001038 0.000000 0.016841 0.000000
# 6 0.000000 0.000000 0.000000 0.005900 0.000000 0.023785
#
#
# Mechanical properties :
#
#
# Convention : Reuss Voigt Hill
#
# Bulk Modulus (GPa) = 64.34937 80.54822 72.44880
# Shear Modulus (GPa) = 40.56051 49.01197 44.78624
#
# Velocity S-wave (km/s) = 3.91308 4.30149 4.11187
# Velocity P-wave (km/s) = 6.68649 7.42149 7.06356
#
# Compressibility (1/GPa) = 0.01554017
#
# Stress axis : x y z
#
# Youngs Moduli (GPa) = 64.86866 70.67832 205.06012
#
# Poissons Ratio (x) = 0.39160 0.56502
# Poissons Ratio (y) = 0.35941 0.23673
# Poissons Ratio (z) = 0.17874 0.08159
#
# Static dielectric constant tensor:
#      x y z
#    x 2.178120 0.000000 0.046110 
#    y 0.000000 2.106330 0.000000 
#    z 0.046110 0.000000 2.035120 
# 
# From -- ./inp_files/157978.got.cif
#   From: 2010.05.17/outbox.cif.g08.bks.cpg/sg15_79_cif.got.tgz:157978.got - 2010.06.03 18:47:42.
