data_PCOD9298923
_publ_section_title
;
Structure prediction by ZEFSAII (Michael W. Deem and Ramdas Pophale) SiO2 
 PCOD9298923
Probable space group: C 2/C
;
_chemical_formula_sum "Si O2"
_cell_formula_units_Z 56
_cell_length_a 28.403365
_cell_length_b 13.850617
_cell_length_c 12.095281
_cell_angle_alpha 90.000000
_cell_angle_beta 30.774138
_cell_angle_gamma 90.000000
_cell_volume 2434.625593
_symmetry_space_group_name_H-M "C 2/C"
_symmetry_group_IT_number 15
_symmetry_cell_setting 'monoclinic'
loop_
_space_group_symop_operation_xyz
x,y,z
-x,y,1/2-z
-x,-y,-z
x,-y,1/2+z
1/2+x,1/2+y,z
1/2-x,1/2+y,1/2-z
1/2-x,1/2-y,-z
1/2+x,1/2-y,1/2+z
loop_
_atom_site_type_symbol
_atom_site_label
_atom_site_fract_x
_atom_site_fract_y
_atom_site_fract_z
Si Si1 0.717922 0.855069 0.840924
Si Si2 0.733754 0.451264 0.384705
Si Si3 0.052959 0.588133 0.258730
Si Si4 0.899431 0.223141 0.903102
Si Si5 0.894289 0.812262 0.000775
Si Si6 0.090979 0.065462 0.808195
Si Si7 0.887969 0.394500 0.234754
O O1 0.730255 0.963891 0.770275
O O2 0.821358 0.815828 0.641275
O O3 0.659960 0.788466 0.873279
O O4 0.662654 0.838957 0.065584
O O5 0.664692 0.376689 0.466311
O O6 0.676988 0.499941 0.599710
O O7 0.820746 0.404303 0.267167
O O8 0.127718 0.669941 0.082479
O O9 0.090538 0.495997 0.247239
O O10 0.000000 0.560393 0.250000
O O11 0.982789 0.638057 0.488016
O O12 0.911714 0.144388 0.783389
O O13 0.000000 0.235744 0.750000
O O14 0.000000 0.795530 0.750000
O O15 0.896685 0.876991 0.104603
O O16 0.000000 0.000000 0.000000
#
# Coordination Sequence:
#
# PCOD9298923 Si02
#       7
#     8   8   8   8   8   8   8
#     4  11  28  44  73 110 144 195 252 307 368 452
#     4  11  26  45  73 104 146 191 244 312 370 445
#     4  10  24  46  70 106 144 189 233 308 370 445
#     4  10  26  44  70 100 145 185 242 301 372 446
#     4  12  28  46  73 109 148 192 251 312 366 447
#     4  11  25  43  71  97 141 191 237 297 376 436
#     4  11  25  44  77 103 146 189 248 300 380 439
#
# _framework density 23.001481999999999
#
# number of rings (size 3 to 8) (size 9 to 14) (size 15 to 20)
#    0.000    1.143    1.429    1.714   18.000    3.429 
#    0.000    0.000    0.000    0.000    0.000    0.000 
#    0.000    0.000    0.000    0.000    0.000    0.000 
#
# Total GULP energy -156631.652296 kJ/mol
# GULP energy per Si atom -5593.987582 kJ/mol
# Density = 2.294913 g / cm^3
# Si number density = 23.001482 Si / 1000 Ang^3
#
#
#
# Elastic Constant Matrix: (Units=GPa)
#
#
# Indices 1 2 3 4 5 6 
#
# 1 52.5637 16.8857 26.0840 0.0000 -7.4415 0.0000
# 2 16.8857 77.0880 5.0640 0.0000 -7.5351 0.0000
# 3 26.0840 5.0640 108.5892 0.0000 9.7968 0.0000
# 4 0.0000 0.0000 0.0000 33.1130 0.0000 -3.7012
# 5 -7.4415 -7.5351 9.7968 0.0000 31.4925 0.0000
# 6 0.0000 0.0000 0.0000 -3.7012 0.0000 31.2699
#
#
#
# Elastic Compliance Matrix: (Units=1/GPa)
#
#
# Indices 1 2 3 4 5 6 
#
# 1 0.024471 -0.004292 -0.006283 0.000000 0.006710 0.000000
# 2 -0.004292 0.014128 0.000163 0.000000 0.002315 0.000000
# 3 -0.006283 0.000163 0.011154 0.000000 -0.004916 0.000000
# 4 0.000000 0.000000 0.000000 0.030605 0.000000 0.003622
# 5 0.006710 0.002315 -0.004916 0.000000 0.035422 0.000000
# 6 0.000000 0.000000 0.000000 0.003622 0.000000 0.032408
#
#
# Mechanical properties :
#
#
# Convention : Reuss Voigt Hill
#
# Bulk Modulus (GPa) = 34.56683 37.14537 35.85610
# Shear Modulus (GPa) = 27.98679 31.85555 29.92117
#
# Velocity S-wave (km/s) = 3.49196 3.72551 3.61062
# Velocity P-wave (km/s) = 5.59635 5.88983 5.74496
#
# Compressibility (1/GPa) = 0.02892947
#
# Stress axis : x y z
#
# Youngs Moduli (GPa) = 40.86427 70.78218 89.65199
#
# Poissons Ratio (x) = 0.30377 0.56333
# Poissons Ratio (y) = 0.17537 -0.01463
# Poissons Ratio (z) = 0.25677 -0.01155
#
# Static dielectric constant tensor:
#      x y z
#    x 1.843040 0.000000 0.000190 
#    y 0.000000 1.883900 0.000000 
#    z 0.000190 0.000000 1.905680 
# 
# From -- ./inp_files/126976.got.cif
#   From: 2010.05.17/outbox.cif.g08.bks.cpg/sg15_64_cif.got.tgz:126976.got - 2010.06.03 18:47:42.
