data_PCOD9298507
_publ_section_title
;
Structure prediction by ZEFSAII (Michael W. Deem and Ramdas Pophale) SiO2 
 PCOD9298507
Probable space group: C 2/C
;
_chemical_formula_sum "Si O2"
_cell_formula_units_Z 28
_cell_length_a 14.460587
_cell_length_b 5.018321
_cell_length_c 16.541313
_cell_angle_alpha 90.000000
_cell_angle_beta 116.067166
_cell_angle_gamma 90.000000
_cell_volume 1078.265844
_symmetry_space_group_name_H-M "C 2/C"
_symmetry_group_IT_number 15
_symmetry_cell_setting 'monoclinic'
loop_
_space_group_symop_operation_xyz
x,y,z
-x,y,1/2-z
-x,-y,-z
x,-y,1/2+z
1/2+x,1/2+y,z
1/2-x,1/2+y,1/2-z
1/2-x,1/2-y,-z
1/2+x,1/2-y,1/2+z
loop_
_atom_site_type_symbol
_atom_site_label
_atom_site_fract_x
_atom_site_fract_y
_atom_site_fract_z
Si Si1 0.592030 0.188596 0.505347
Si Si2 0.750000 0.250000 0.000000
Si Si3 0.090809 0.021939 0.841121
Si Si4 0.751194 0.371449 0.693182
O O1 0.557123 0.366447 0.416152
O O2 0.653197 0.376376 0.593506
O O3 0.500000 0.000000 0.500000
O O4 0.682633 0.998362 0.509803
O O5 0.667716 0.290142 0.895073
O O6 0.150940 0.251352 0.815920
O O7 0.000000 0.926623 0.750000
O O8 0.770649 0.643226 0.748085
#
# Coordination Sequence:
#
# PCOD9298507 Si02
#       4
#     8   4   8   8
#     4  11  26  46  75 105 153 200 265 321 400 465
#     4  10  24  44  72 104 152 190 254 324 382 470
#     4  11  26  46  74 108 152 205 258 322 398 474
#     4  11  26  45  74 111 152 202 260 322 390 472
#
# _framework density 25.967621999999999
#
# number of rings (size 3 to 8) (size 9 to 14) (size 15 to 20)
#    0.000    1.143    0.000    5.143   20.000    2.286 
#    0.000    0.000    0.000    0.000    0.000    0.000 
#    0.000    0.000    0.000    0.000    0.000    0.000 
#
# Total GULP energy -78059.041644 kJ/mol
# GULP energy per Si atom -5575.645832 kJ/mol
# Density = 2.590852 g / cm^3
# Si number density = 25.967622 Si / 1000 Ang^3
#
#
#
# Elastic Constant Matrix: (Units=GPa)
#
#
# Indices 1 2 3 4 5 6 
#
# 1 59.6778 1.1711 41.6308 -0.0038 12.5917 -0.0005
# 2 1.1711 54.0851 31.6201 -0.0098 -0.9394 -0.0013
# 3 41.6308 31.6201 262.7011 -0.0007 39.0929 -0.0001
# 4 -0.0038 -0.0098 -0.0007 9522.4307 0.0014 1201.9718
# 5 12.5917 -0.9394 39.0929 0.0014 55.4934 0.0002
# 6 -0.0005 -0.0013 -0.0001 1201.9718 0.0002 178.9713
#
#
#
# Elastic Compliance Matrix: (Units=1/GPa)
#
#
# Indices 1 2 3 4 5 6 
#
# 1 0.019208 0.001205 -0.002841 0.000000 -0.002336 0.000000
# 2 0.001205 0.020222 -0.002944 0.000000 0.002143 0.000000
# 3 -0.002841 -0.002944 0.005052 0.000000 -0.002964 0.000000
# 4 0.000000 0.000000 0.000000 0.000690 0.000000 -0.004632
# 5 -0.002336 0.002143 -0.002964 0.000000 0.020675 0.000000
# 6 0.000000 0.000000 0.000000 -0.004632 0.000000 0.036695
#
#
# Mechanical properties :
#
#
# Convention : Reuss Voigt Hill
#
# Bulk Modulus (GPa) = 28.31169 58.36758 43.33963
# Shear Modulus (GPa) = 40.49393 1971.51520 1006.00456
#
# Velocity S-wave (km/s) = 3.95321 27.58385 19.70402
# Velocity P-wave (km/s) = 5.63591 32.20276 23.11689
#
# Compressibility (1/GPa) = 0.03532110
#
# Stress axis : x y z
#
# Youngs Moduli (GPa) = 52.06163 49.45226 197.92936
#
# Poissons Ratio (x) = -0.05957 0.56236
# Poissons Ratio (y) = -0.06271 0.58265
# Poissons Ratio (z) = 0.14792 0.14557
#
# Static dielectric constant tensor:
#      x y z
#    x 2.136920 0.000000 -0.079180 
#    y 0.000000 2.033830 0.000000 
#    z -0.079180 0.000000 1.994060 
# 
# From -- ./inp_files/157989.got.cif
#   From: 2010.05.17/outbox.cif.g08.bks.cpg/sg15_79_cif.got.tgz:157989.got - 2010.06.03 18:47:42.
