data_PCOD9298088
_publ_section_title
;
Structure prediction by ZEFSAII (Michael W. Deem and Ramdas Pophale) SiO2 
 PCOD9298088
Probable space group: C 2/C
;
_chemical_formula_sum "Si O2"
_cell_formula_units_Z 44
_cell_length_a 5.734458
_cell_length_b 27.202300
_cell_length_c 13.351943
_cell_angle_alpha 90.000000
_cell_angle_beta 74.343250
_cell_angle_gamma 90.000000
_cell_volume 2005.495701
_symmetry_space_group_name_H-M "C 2/C"
_symmetry_group_IT_number 15
_symmetry_cell_setting 'monoclinic'
loop_
_space_group_symop_operation_xyz
x,y,z
-x,y,1/2-z
-x,-y,-z
x,-y,1/2+z
1/2+x,1/2+y,z
1/2-x,1/2+y,1/2-z
1/2-x,1/2-y,-z
1/2+x,1/2-y,1/2+z
loop_
_atom_site_type_symbol
_atom_site_label
_atom_site_fract_x
_atom_site_fract_y
_atom_site_fract_z
Si Si1 0.477176 0.701571 0.871069
Si Si2 0.664377 0.431099 0.815083
Si Si3 0.013486 0.701963 0.455022
Si Si4 0.000000 0.347424 0.750000
Si Si5 0.827387 0.117639 0.522226
Si Si6 0.290415 0.989404 0.442617
O O1 0.500000 0.705857 0.750000
O O2 0.624020 0.745026 0.911835
O O3 0.555999 0.648433 0.901446
O O4 0.203918 0.708983 0.941682
O O5 0.500000 0.456284 0.750000
O O6 0.828679 0.471544 0.849956
O O7 0.792392 0.385891 0.744423
O O8 0.519242 0.404271 0.921222
O O9 0.924169 0.683466 0.355362
O O10 0.172182 0.658016 0.480572
O O11 0.693166 0.068960 0.577958
O O12 0.500000 0.000000 0.500000
O O13 0.000000 0.000000 0.500000
#
# Coordination Sequence:
#
# PCOD9298088 Si02
#       6
#     8   8   8   4   8   8
#     4  11  25  43  65 101 140 187 237 289 360 434
#     4  11  23  39  69 107 137 184 243 300 355 434
#     4  11  23  42  70  98 140 181 236 299 353 429
#     4  12  20  40  72 104 132 180 242 294 366 414
#     4  11  23  43  67  97 141 185 231 292 367 420
#     4  10  24  43  68 101 145 188 238 301 363 431
#
# _framework density 21.939710999999999
#
# number of rings (size 3 to 8) (size 9 to 14) (size 15 to 20)
#    0.000    1.091    4.545    1.636    5.091    1.455 
#    0.000    1.818    0.000    0.000    0.000    0.000 
#    0.000    0.000    0.000    0.000    0.000    0.000 
#
# Total GULP energy -122669.829309 kJ/mol
# GULP energy per Si atom -5575.901332 kJ/mol
# Density = 2.188978 g / cm^3
# Si number density = 21.939711 Si / 1000 Ang^3
#
#
#
# Elastic Constant Matrix: (Units=GPa)
#
#
# Indices 1 2 3 4 5 6 
#
# 1 69.3244 37.9057 43.6277 0.0000 16.4457 0.0000
# 2 37.9057 183.4993 61.1110 0.0000 14.2030 0.0000
# 3 43.6277 61.1110 162.5198 0.0000 5.9049 0.0000
# 4 0.0000 0.0000 0.0000 22.0349 0.0000 14.6673
# 5 16.4457 14.2030 5.9049 0.0000 36.2681 0.0000
# 6 0.0000 0.0000 0.0000 14.6673 0.0000 37.6781
#
#
#
# Elastic Compliance Matrix: (Units=1/GPa)
#
#
# Indices 1 2 3 4 5 6 
#
# 1 0.020106 -0.002127 -0.004322 0.000000 -0.007580 0.000000
# 2 -0.002127 0.006613 -0.001868 0.000000 -0.001321 0.000000
# 3 -0.004322 -0.001868 0.007965 0.000000 0.001394 0.000000
# 4 0.000000 0.000000 0.000000 0.061255 0.000000 -0.023845
# 5 -0.007580 -0.001321 0.001394 0.000000 0.031300 0.000000
# 6 0.000000 0.000000 0.000000 -0.023845 0.000000 0.035823
#
#
# Mechanical properties :
#
#
# Convention : Reuss Voigt Hill
#
# Bulk Modulus (GPa) = 55.40010 77.84804 66.62407
# Shear Modulus (GPa) = 26.92313 37.37615 32.14964
#
# Velocity S-wave (km/s) = 3.50686 4.13193 3.83216
# Velocity P-wave (km/s) = 6.45781 7.63698 7.07202
#
# Compressibility (1/GPa) = 0.01805051
#
# Stress axis : x y z
#
# Youngs Moduli (GPa) = 49.73522 151.21034 125.54946
#
# Poissons Ratio (x) = 0.32167 0.54265
# Poissons Ratio (y) = 0.10580 0.23449
# Poissons Ratio (z) = 0.21496 0.28241
#
# Static dielectric constant tensor:
#      x y z
#    x 2.345310 0.000000 -0.053520 
#    y 0.000000 1.851990 0.000000 
#    z -0.053520 0.000000 1.784440 
# 
# From -- ./inp_files/73879.got.cif
#   From: 2010.05.17/outbox.cif.g08.bks.cpg/sg15_37_cif.got.tgz:73879.got - 2010.06.03 18:47:42.
