data_PCOD9298740
_publ_section_title
;
Structure prediction by ZEFSAII (Michael W. Deem and Ramdas Pophale) SiO2 
 PCOD9298740
Probable space group: C 2/C
;
_chemical_formula_sum "Si O2"
_cell_formula_units_Z 48
_cell_length_a 11.248208
_cell_length_b 25.558561
_cell_length_c 8.299001
_cell_angle_alpha 90.000000
_cell_angle_beta 74.080439
_cell_angle_gamma 90.000000
_cell_volume 2294.359995
_symmetry_space_group_name_H-M "C 2/C"
_symmetry_group_IT_number 15
_symmetry_cell_setting 'monoclinic'
loop_
_space_group_symop_operation_xyz
x,y,z
-x,y,1/2-z
-x,-y,-z
x,-y,1/2+z
1/2+x,1/2+y,z
1/2-x,1/2+y,1/2-z
1/2-x,1/2-y,-z
1/2+x,1/2-y,1/2+z
loop_
_atom_site_type_symbol
_atom_site_label
_atom_site_fract_x
_atom_site_fract_y
_atom_site_fract_z
Si Si1 0.133924 0.955660 0.118825
Si Si2 0.536949 0.782294 0.418510
Si Si3 0.232111 0.144833 0.749873
Si Si4 0.000000 0.786333 0.250000
Si Si5 0.873301 0.617602 0.010148
Si Si6 0.736899 0.960558 0.737260
Si Si7 0.500000 0.033050 0.750000
O O1 0.215193 0.907437 0.152924
O O2 0.000000 0.953018 0.250000
O O3 0.204206 0.008942 0.135794
O O4 0.147242 0.953662 0.923813
O O5 0.500000 0.761021 0.250000
O O6 0.661047 0.815767 0.346409
O O7 0.544240 0.745769 0.573930
O O8 0.436252 0.826503 0.499163
O O9 0.107325 0.177089 0.779814
O O10 0.268696 0.124886 0.913351
O O11 0.968900 0.573386 0.907173
O O12 0.817781 0.594963 0.192921
O O13 0.620655 0.996556 0.725184
#
# Coordination Sequence:
#
# PCOD9298740 Si02
#       7
#     8   8   8   4   8   8   4
#     4  12  24  43  63  90 139 184 222 271 325 405
#     4  10  24  45  71  97 134 169 221 293 348 397
#     4  11  23  46  64  96 137 169 222 285 333 398
#     4  12  26  45  72  96 126 180 237 276 346 406
#     4  11  22  42  67 101 138 171 213 284 341 394
#     4  12  25  38  68 101 133 182 227 265 333 410
#     4  12  20  39  68 100 142 166 219 282 334 384
#
# _framework density 20.920867000000001
#
# number of rings (size 3 to 8) (size 9 to 14) (size 15 to 20)
#    0.000    0.667    6.667    1.500    4.667    2.667 
#    3.000    0.000    0.000    0.000    0.000    0.000 
#    0.000    0.000    0.000    0.000    0.000    0.000 
#
# Total GULP energy -133956.239964 kJ/mol
# GULP energy per Si atom -5581.509998 kJ/mol
# Density = 2.087325 g / cm^3
# Si number density = 20.920867 Si / 1000 Ang^3
#
#
#
# Elastic Constant Matrix: (Units=GPa)
#
#
# Indices 1 2 3 4 5 6 
#
# 1 74.1305 20.0411 22.3794 0.0000 -5.8561 0.0000
# 2 20.0411 51.1527 11.0291 0.0000 5.9001 0.0000
# 3 22.3794 11.0291 87.5683 0.0000 -21.0669 0.0000
# 4 0.0000 0.0000 0.0000 13.7406 0.0000 -5.9255
# 5 -5.8561 5.9001 -21.0669 0.0000 18.9848 0.0000
# 6 0.0000 0.0000 0.0000 -5.9255 0.0000 26.5829
#
#
#
# Elastic Compliance Matrix: (Units=1/GPa)
#
#
# Indices 1 2 3 4 5 6 
#
# 1 0.016259 -0.006398 -0.002271 0.000000 0.004484 0.000000
# 2 -0.006398 0.024986 -0.005259 0.000000 -0.015574 0.000000
# 3 -0.002271 -0.005259 0.017580 0.000000 0.020442 0.000000
# 4 0.000000 0.000000 0.000000 0.080517 0.000000 0.017948
# 5 0.004484 -0.015574 0.020442 0.000000 0.081581 0.000000
# 6 0.000000 0.000000 0.000000 0.017948 0.000000 0.041619
#
#
# Mechanical properties :
#
#
# Convention : Reuss Voigt Hill
#
# Bulk Modulus (GPa) = 32.28821 35.52784 33.90803
# Shear Modulus (GPa) = 16.62675 22.48845 19.55760
#
# Velocity S-wave (km/s) = 2.82218 3.28217 3.06083
# Velocity P-wave (km/s) = 5.10750 5.60200 5.36046
#
# Compressibility (1/GPa) = 0.03097105
#
# Stress axis : x y z
#
# Youngs Moduli (GPa) = 61.50409 40.02228 56.88202
#
# Poissons Ratio (x) = 0.25605 0.12916
# Poissons Ratio (y) = 0.39349 0.29913
# Poissons Ratio (z) = 0.13966 0.21047
#
# Static dielectric constant tensor:
#      x y z
#    x 1.780140 0.000000 0.033400 
#    y 0.000000 1.733660 0.000000 
#    z 0.033400 0.000000 1.814000 
# 
# From -- ./inp_files/32597.got.cif
#   From: 2010.05.17/outbox.cif.g08.bks.cpg/sg15_17_cif.got.tgz:32597.got - 2010.06.03 18:47:42.
