data_PCOD9298886
_publ_section_title
;
Structure prediction by ZEFSAII (Michael W. Deem and Ramdas Pophale) SiO2 
 PCOD9298886
Probable space group: C 2/C
;
_chemical_formula_sum "Si O2"
_cell_formula_units_Z 52
_cell_length_a 27.341111
_cell_length_b 11.711219
_cell_length_c 9.424404
_cell_angle_alpha 90.000000
_cell_angle_beta 60.609755
_cell_angle_gamma 90.000000
_cell_volume 2629.290441
_symmetry_space_group_name_H-M "C 2/C"
_symmetry_group_IT_number 15
_symmetry_cell_setting 'monoclinic'
loop_
_space_group_symop_operation_xyz
x,y,z
-x,y,1/2-z
-x,-y,-z
x,-y,1/2+z
1/2+x,1/2+y,z
1/2-x,1/2+y,1/2-z
1/2-x,1/2-y,-z
1/2+x,1/2-y,1/2+z
loop_
_atom_site_type_symbol
_atom_site_label
_atom_site_fract_x
_atom_site_fract_y
_atom_site_fract_z
Si Si1 0.265309 0.023181 0.076529
Si Si2 0.000000 0.486069 0.250000
Si Si3 0.425941 0.080373 0.604329
Si Si4 0.282408 0.747244 0.658486
Si Si5 0.191753 0.999945 0.934939
Si Si6 0.353925 0.130502 0.298299
Si Si7 0.151314 0.238195 0.423895
O O1 0.277313 0.157130 0.042782
O O2 0.249389 0.010480 0.262336
O O3 0.210954 0.978615 0.068492
O O4 0.317320 0.953754 0.948755
O O5 0.965123 0.563947 0.410223
O O6 0.960625 0.411766 0.201601
O O7 0.384236 0.186484 0.636474
O O8 0.395729 0.956477 0.662097
O O9 0.316783 0.635005 0.564299
O O10 0.317541 0.802166 0.736184
O O11 0.217959 0.732427 0.806261
O O12 0.152468 0.900879 0.928044
O O13 0.372402 0.222047 0.389432
#
# Coordination Sequence:
#
# PCOD9298886 Si02
#       7
#     8   4   8   8   8   8   8
#     4  11  20  35  53  82 128 175 216 245 287 352
#     4  10  24  46  68  96 118 146 222 304 342 362
#     4  11  23  42  70  95 122 156 215 279 343 366
#     4  11  22  35  57  87 142 180 212 241 286 392
#     4  11  22  35  51  82 125 182 209 247 284 364
#     4  12  20  38  60  91 129 175 205 252 319 378
#     4  11  21  36  59  88 131 171 208 250 309 389
#
# _framework density 19.777197999999999
#
# number of rings (size 3 to 8) (size 9 to 14) (size 15 to 20)
#    0.000    0.923    6.154    3.692    0.000    1.231 
#    0.000    0.000    0.000    0.000    0.000    6.462 
#    0.000    0.000    0.000    0.000    0.000    0.000 
#
# Total GULP energy -144879.972889 kJ/mol
# GULP energy per Si atom -5572.306650 kJ/mol
# Density = 1.973218 g / cm^3
# Si number density = 19.777198 Si / 1000 Ang^3
#
#
#
# Elastic Constant Matrix: (Units=GPa)
#
#
# Indices 1 2 3 4 5 6 
#
# 1 104.1273 34.2135 16.1256 0.0000 17.5983 0.0000
# 2 34.2135 120.0083 12.2669 0.0000 -3.3308 0.0000
# 3 16.1256 12.2669 61.4237 0.0000 4.3411 0.0000
# 4 0.0000 0.0000 0.0000 21.7280 0.0000 10.1116
# 5 17.5983 -3.3308 4.3411 0.0000 23.4207 0.0000
# 6 0.0000 0.0000 0.0000 10.1116 0.0000 29.8445
#
#
#
# Elastic Compliance Matrix: (Units=1/GPa)
#
#
# Indices 1 2 3 4 5 6 
#
# 1 0.012773 -0.003716 -0.001921 0.000000 -0.009771 0.000000
# 2 -0.003716 0.009643 -0.001261 0.000000 0.004398 0.000000
# 3 -0.001921 -0.001261 0.017172 0.000000 -0.001919 0.000000
# 4 0.000000 0.000000 0.000000 0.054639 0.000000 -0.018512
# 5 -0.009771 0.004398 -0.001919 0.000000 0.051020 0.000000
# 6 0.000000 0.000000 0.000000 -0.018512 0.000000 0.039779
#
#
# Mechanical properties :
#
#
# Convention : Reuss Voigt Hill
#
# Bulk Modulus (GPa) = 38.77090 45.64125 42.20607
# Shear Modulus (GPa) = 24.10565 29.86220 26.98393
#
# Velocity S-wave (km/s) = 3.49501 3.89000 3.69778
# Velocity P-wave (km/s) = 5.99443 6.58057 6.29433
#
# Compressibility (1/GPa) = 0.02579254
#
# Stress axis : x y z
#
# Youngs Moduli (GPa) = 78.28709 103.69948 58.23416
#
# Poissons Ratio (x) = 0.38540 0.11185
# Poissons Ratio (y) = 0.29095 0.07343
# Poissons Ratio (z) = 0.15036 0.13076
#
# Static dielectric constant tensor:
#      x y z
#    x 1.757400 0.000000 0.028740 
#    y 0.000000 1.822430 0.000000 
#    z 0.028740 0.000000 1.722980 
# 
# From -- ./inp_files/65360.got.cif
#   From: 2010.05.17/outbox.cif.g08.bks.cpg/sg15_33_cif.got.tgz:65360.got - 2010.06.03 18:47:42.
