data_PCOD9298044
_publ_section_title
;
Structure prediction by ZEFSAII (Michael W. Deem and Ramdas Pophale) SiO2 
 PCOD9298044
Probable space group: C 2/C
;
_chemical_formula_sum "Si O2"
_cell_formula_units_Z 56
_cell_length_a 17.223462
_cell_length_b 29.973530
_cell_length_c 9.555254
_cell_angle_alpha 90.000000
_cell_angle_beta 144.814057
_cell_angle_gamma 90.000000
_cell_volume 2842.482613
_symmetry_space_group_name_H-M "C 2/C"
_symmetry_group_IT_number 15
_symmetry_cell_setting 'monoclinic'
loop_
_space_group_symop_operation_xyz
x,y,z
-x,y,1/2-z
-x,-y,-z
x,-y,1/2+z
1/2+x,1/2+y,z
1/2-x,1/2+y,1/2-z
1/2-x,1/2-y,-z
1/2+x,1/2-y,1/2+z
loop_
_atom_site_type_symbol
_atom_site_label
_atom_site_fract_x
_atom_site_fract_y
_atom_site_fract_z
Si Si1 0.100162 0.981508 0.026211
Si Si2 0.399144 0.801304 0.711025
Si Si3 0.730639 0.430037 0.748592
Si Si4 0.000000 0.826280 0.750000
Si Si5 0.022817 0.631304 0.943241
Si Si6 0.225788 0.099377 0.563563
Si Si7 0.000000 0.126392 0.750000
Si Si8 0.092033 0.796345 0.177651
O O1 0.171265 0.933173 0.107705
O O2 0.216865 0.018185 0.193602
O O3 0.000000 0.984001 0.750000
O O4 0.000000 0.000000 0.000000
O O5 0.500000 0.822930 0.750000
O O6 0.253468 0.797984 0.426154
O O7 0.447645 0.751246 0.816643
O O8 0.405123 0.830793 0.858989
O O9 0.615987 0.404182 0.489830
O O10 0.873633 0.409544 0.918282
O O11 0.710460 0.422932 0.886205
O O12 0.871554 0.858131 0.582233
O O13 0.967812 0.798609 0.564771
O O14 0.000000 0.647405 0.750000
O O15 0.880667 0.615357 0.798641
O O16 0.045616 0.160295 0.695276
#
# Coordination Sequence:
#
# PCOD9298044 Si02
#       8
#     8   8   8   4   8   8   4   8
#     4  12  23  40  66  95 125 164 212 274 324 377
#     4  11  23  45  60  94 133 171 216 276 324 386
#     4  11  22  40  67  94 126 165 214 266 327 388
#     4  12  22  41  66  96 128 170 220 269 320 382
#     4  10  24  43  66  92 130 175 215 265 333 395
#     4  11  23  42  63  95 132 163 215 275 321 388
#     4  12  20  41  66  94 124 166 220 263 322 384
#     4  11  25  39  67  94 129 171 219 273 323 384
#
# _framework density 19.701087999999999
#
# number of rings (size 3 to 8) (size 9 to 14) (size 15 to 20)
#    0.000    0.857    6.429    0.857    1.000    0.571 
#    2.571    1.429    0.000    0.000    0.000    0.000 
#    0.000    0.000    0.000    0.000    0.000    0.000 
#
# Total GULP energy -156244.414217 kJ/mol
# GULP energy per Si atom -5580.157651 kJ/mol
# Density = 1.965625 g / cm^3
# Si number density = 19.701088 Si / 1000 Ang^3
#
#
#
# Elastic Constant Matrix: (Units=GPa)
#
#
# Indices 1 2 3 4 5 6 
#
# 1 87.4526 21.7734 31.7665 0.0000 6.0463 0.0000
# 2 21.7734 63.8282 28.8190 0.0000 -6.2889 0.0000
# 3 31.7665 28.8190 83.0927 0.0000 -1.3465 0.0000
# 4 0.0000 0.0000 0.0000 12.2760 0.0000 -2.4197
# 5 6.0463 -6.2889 -1.3465 0.0000 24.1779 0.0000
# 6 0.0000 0.0000 0.0000 -2.4197 0.0000 22.1072
#
#
#
# Elastic Compliance Matrix: (Units=1/GPa)
#
#
# Indices 1 2 3 4 5 6 
#
# 1 0.014160 -0.003332 -0.004333 0.000000 -0.004649 0.000000
# 2 -0.003332 0.019857 -0.005521 0.000000 0.005691 0.000000
# 3 -0.004333 -0.005521 0.015615 0.000000 0.000517 0.000000
# 4 0.000000 0.000000 0.000000 0.083256 0.000000 0.009113
# 5 -0.004649 0.005691 0.000517 0.000000 0.044032 0.000000
# 6 0.000000 0.000000 0.000000 0.009113 0.000000 0.046232
#
#
# Mechanical properties :
#
#
# Convention : Reuss Voigt Hill
#
# Bulk Modulus (GPa) = 42.99324 44.34346 43.66835
# Shear Modulus (GPa) = 19.43441 21.84651 20.64046
#
# Velocity S-wave (km/s) = 3.14421 3.33363 3.24030
# Velocity P-wave (km/s) = 5.92044 6.11346 6.01772
#
# Compressibility (1/GPa) = 0.02325947
#
# Stress axis : x y z
#
# Youngs Moduli (GPa) = 70.62308 50.35969 64.04296
#
# Poissons Ratio (x) = 0.16779 0.27750
# Poissons Ratio (y) = 0.23531 0.35358
# Poissons Ratio (z) = 0.30601 0.27804
#
# Static dielectric constant tensor:
#      x y z
#    x 1.747500 0.000000 -0.002870 
#    y 0.000000 1.750350 0.000000 
#    z -0.002870 0.000000 1.680440 
# 
# From -- ./inp_files/52694.got.cif
#   From: 2010.05.17/outbox.cif.g08.bks.cpg/sg15_27_cif.got.tgz:52694.got - 2010.06.03 18:47:42.
