data_PCOD9298803
_publ_section_title
;
Structure prediction by ZEFSAII (Michael W. Deem and Ramdas Pophale) SiO2 
 PCOD9298803
Probable space group: C 2/C
;
_chemical_formula_sum "Si O2"
_cell_formula_units_Z 52
_cell_length_a 10.514090
_cell_length_b 12.657594
_cell_length_c 21.352352
_cell_angle_alpha 90.000000
_cell_angle_beta 54.589703
_cell_angle_gamma 90.000000
_cell_volume 2316.001290
_symmetry_space_group_name_H-M "C 2/C"
_symmetry_group_IT_number 15
_symmetry_cell_setting 'monoclinic'
loop_
_space_group_symop_operation_xyz
x,y,z
-x,y,1/2-z
-x,-y,-z
x,-y,1/2+z
1/2+x,1/2+y,z
1/2-x,1/2+y,1/2-z
1/2-x,1/2-y,-z
1/2+x,1/2-y,1/2+z
loop_
_atom_site_type_symbol
_atom_site_label
_atom_site_fract_x
_atom_site_fract_y
_atom_site_fract_z
Si Si1 0.113602 0.619711 0.543342
Si Si2 0.276813 0.108159 0.664759
Si Si3 0.850602 0.811023 0.884087
Si Si4 0.672402 0.496288 0.921444
Si Si5 0.170369 0.271398 0.590320
Si Si6 0.179939 0.817880 0.324943
Si Si7 0.000000 0.946064 0.750000
O O1 0.092580 0.739925 0.574168
O O2 0.203847 0.623365 0.452580
O O3 0.226196 0.566556 0.560563
O O4 0.946828 0.567488 0.597704
O O5 0.225003 0.184008 0.623878
O O6 0.266022 0.168678 0.734131
O O7 0.152706 0.016130 0.706466
O O8 0.786330 0.743342 0.844506
O O9 0.987981 0.879308 0.816622
O O10 0.760604 0.382509 0.901535
O O11 0.660259 0.563961 0.860492
O O12 0.500000 0.500000 0.000000
O O13 0.250000 0.250000 0.500000
O O14 0.983813 0.246639 0.636075
#
# Coordination Sequence:
#
# PCOD9298803 Si02
#       7
#     8   8   8   8   8   8   4
#     4  10  25  47  72 108 142 187 259 295 382 471
#     4  12  27  47  68 112 149 191 255 313 378 468
#     4  10  24  45  76 103 142 197 236 316 371 451
#     4  11  26  45  78 108 146 200 248 320 388 456
#     4  12  25  46  76 106 150 198 247 316 377 460
#     4  11  24  49  69 108 152 191 255 307 385 464
#     4  12  26  42  70 104 146 188 236 310 380 430
#
# _framework density 22.452491999999999
#
# number of rings (size 3 to 8) (size 9 to 14) (size 15 to 20)
#    0.000    0.923    3.077    1.846   10.769    3.692 
#    2.769    0.000    0.000    0.000    0.000    0.000 
#    0.000    0.000    0.000    0.000    0.000    0.000 
#
# Total GULP energy -145304.569077 kJ/mol
# GULP energy per Si atom -5588.637272 kJ/mol
# Density = 2.240139 g / cm^3
# Si number density = 22.452492 Si / 1000 Ang^3
#
#
#
# Elastic Constant Matrix: (Units=GPa)
#
#
# Indices 1 2 3 4 5 6 
#
# 1 58.3711 45.2319 13.7890 0.0000 3.0691 0.0000
# 2 45.2319 96.0449 53.8186 0.0000 -15.6329 0.0000
# 3 13.7890 53.8186 145.6745 0.0000 6.4033 0.0000
# 4 0.0000 0.0000 0.0000 0.4478 0.0000 4.2344
# 5 3.0691 -15.6329 6.4033 0.0000 39.1123 0.0000
# 6 0.0000 0.0000 0.0000 4.2344 0.0000 40.5362
#
#
#
# Elastic Compliance Matrix: (Units=1/GPa)
#
#
# Indices 1 2 3 4 5 6 
#
# 1 0.031462 -0.019150 0.004575 0.000040 -0.010872 -0.000004
# 2 -0.019150 0.026401 -0.008532 -0.000033 0.013452 0.000003
# 3 0.004575 -0.008532 0.009820 0.000018 -0.005377 -0.000002
# 4 0.000040 -0.000033 0.000018184.383110 -0.000044-19.260756
# 5 -0.010872 0.013452 -0.005377 -0.000044 0.032677 0.000005
# 6 -0.000004 0.000003 -0.000002-19.260756 0.000005 2.036658
#
#
# Mechanical properties :
#
#
# Convention : Reuss Voigt Hill
#
# Bulk Modulus (GPa) = 46.58097 58.41882 52.49990
# Shear Modulus (GPa) = 0.02680 28.50266 14.26473
#
# Velocity S-wave (km/s) = 0.10937 3.56682 2.52331
# Velocity P-wave (km/s) = 4.56152 6.56036 5.65003
#
# Compressibility (1/GPa) = 0.02146800
#
# Stress axis : x y z
#
# Youngs Moduli (GPa) = 31.78449 37.87766 101.83139
#
# Poissons Ratio (x) = 0.72535 -0.46584
# Poissons Ratio (y) = 0.60866 0.86885
# Poissons Ratio (z) = -0.14540 0.32318
#
# Static dielectric constant tensor:
#      x y z
#    x 1.903510 0.000000 -0.041420 
#    y 0.000000 1.932450 0.000000 
#    z -0.041420 0.000000 1.870770 
# 
# From -- ./inp_files/269204.got.cif
#   From: 2010.05.17/outbox.cif.g08.bks.cpg/sg15_135_cif.got.tgz:269204.got - 2010.06.03 18:47:42.
