data_PCOD9298433
_publ_section_title
;
Structure prediction by ZEFSAII (Michael W. Deem and Ramdas Pophale) SiO2 
 PCOD9298433
Probable space group: C 2/C
;
_chemical_formula_sum "Si O2"
_cell_formula_units_Z 36
_cell_length_a 29.521676
_cell_length_b 5.204799
_cell_length_c 22.648753
_cell_angle_alpha 90.000000
_cell_angle_beta 153.033760
_cell_angle_gamma 90.000000
_cell_volume 1578.096082
_symmetry_space_group_name_H-M "C 2/C"
_symmetry_group_IT_number 15
_symmetry_cell_setting 'monoclinic'
loop_
_space_group_symop_operation_xyz
x,y,z
-x,y,1/2-z
-x,-y,-z
x,-y,1/2+z
1/2+x,1/2+y,z
1/2-x,1/2+y,1/2-z
1/2-x,1/2-y,-z
1/2+x,1/2-y,1/2+z
loop_
_atom_site_type_symbol
_atom_site_label
_atom_site_fract_x
_atom_site_fract_y
_atom_site_fract_z
Si Si1 0.446587 0.953710 0.063921
Si Si2 0.235359 0.014775 0.272329
Si Si3 0.500000 0.735237 0.250000
Si Si4 0.683275 0.499374 0.415603
Si Si5 0.945550 0.962177 0.352455
O O1 0.491166 0.909024 0.181299
O O2 0.479612 0.701772 0.065827
O O3 0.495192 0.199069 0.088804
O O4 0.327040 0.979658 0.925592
O O5 0.239873 0.282920 0.243102
O O6 0.128044 0.973677 0.177576
O O7 0.595076 0.547081 0.359910
O O8 0.750000 0.750000 0.500000
O O9 0.628368 0.489271 0.289326
O O10 0.750000 0.250000 0.500000
#
# Coordination Sequence:
#
# PCOD9298433 Si02
#       5
#     8   8   4   8   8
#     4  11  25  45  70 100 136 173 220 274 329 400
#     4  12  27  45  69  97 131 178 226 276 331 389
#     4  10  24  44  70 102 136 176 216 266 338 396
#     4  11  23  39  65  98 136 174 215 267 324 397
#     4  11  25  43  66  99 132 174 224 274 332 387
#
# _framework density 22.812298999999999
#
# number of rings (size 3 to 8) (size 9 to 14) (size 15 to 20)
#    0.000    0.889    0.000    6.667    0.000   18.667 
#    0.000    0.000    0.000    0.000    0.000    0.000 
#    0.000    0.000    0.000    0.000    0.000    0.000 
#
# Total GULP energy -100852.886413 kJ/mol
# GULP energy per Si atom -5602.938134 kJ/mol
# Density = 2.276038 g / cm^3
# Si number density = 22.812299 Si / 1000 Ang^3
#
#
#
# Elastic Constant Matrix: (Units=GPa)
#
#
# Indices 1 2 3 4 5 6 
#
# 1 864.1610 851.5298 -287.2059 -0.0551 -115.4748 0.0194
# 2 851.5298 1049.6642 -282.3866 -0.0604 -133.1126 0.0213
# 3 -287.2059 -282.3866 208.9648 0.0212 72.1747 -0.0075
# 4 -0.0551 -0.0604 0.0212 25.1173 0.0105 14.9780
# 5 -115.4748 -133.1126 72.1747 0.0105 78.1807 -0.0037
# 6 0.0194 0.0213 -0.0075 14.9780 -0.0037 32.2340
#
#
#
# Elastic Compliance Matrix: (Units=1/GPa)
#
#
# Indices 1 2 3 4 5 6 
#
# 1 0.006822 -0.004791 0.003286 0.000002 -0.001116 -0.000001
# 2 -0.004791 0.004918 -0.000569 0.000002 0.001821 -0.000001
# 3 0.003286 -0.000569 0.010558 -0.000001 -0.005862 0.000001
# 4 0.000002 0.000002 -0.000001 0.055073 -0.000002 -0.025590
# 5 -0.001116 0.001821 -0.005862 -0.000002 0.019654 0.000001
# 6 -0.000001 -0.000001 0.000001 -0.025590 0.000001 0.042914
#
#
# Mechanical properties :
#
#
# Convention : Reuss Voigt Hill
#
# Bulk Modulus (GPa) = 55.09892 298.51828 176.80860
# Shear Modulus (GPa) = 33.30300 149.82994 91.56647
#
# Velocity S-wave (km/s) = 3.82497 8.11308 6.34241
# Velocity P-wave (km/s) = 6.61157 14.79545 11.45902
#
# Compressibility (1/GPa) = 0.01814918
#
# Stress axis : x y z
#
# Youngs Moduli (GPa) = 146.58970 203.35271 94.71456
#
# Poissons Ratio (x) = 0.97436 -0.31128
# Poissons Ratio (y) = 0.70238 0.05390
# Poissons Ratio (z) = -0.48177 0.11573
#
# Static dielectric constant tensor:
#      x y z
#    x 1.864890 0.000000 -0.007160 
#    y 0.000000 1.785790 0.000000 
#    z -0.007160 0.000000 1.845680 
# 
# From -- ./inp_files/165126.got.cif
#   From: 2010.05.17/outbox.cif.g08.bks.cpg/sg15_83_cif.got.tgz:165126.got - 2010.06.03 18:47:42.
