data_PCOD9298060
_publ_section_title
;
Structure prediction by ZEFSAII (Michael W. Deem and Ramdas Pophale) SiO2 
 PCOD9298060
Probable space group: C 2/C
;
_chemical_formula_sum "Si O2"
_cell_formula_units_Z 36
_cell_length_a 10.960295
_cell_length_b 16.555335
_cell_length_c 9.194466
_cell_angle_alpha 90.000000
_cell_angle_beta 108.099063
_cell_angle_gamma 90.000000
_cell_volume 1585.799798
_symmetry_space_group_name_H-M "C 2/C"
_symmetry_group_IT_number 15
_symmetry_cell_setting 'monoclinic'
loop_
_space_group_symop_operation_xyz
x,y,z
-x,y,1/2-z
-x,-y,-z
x,-y,1/2+z
1/2+x,1/2+y,z
1/2-x,1/2+y,1/2-z
1/2-x,1/2-y,-z
1/2+x,1/2-y,1/2+z
loop_
_atom_site_type_symbol
_atom_site_label
_atom_site_fract_x
_atom_site_fract_y
_atom_site_fract_z
Si Si1 0.000000 0.129520 0.250000
Si Si2 0.615355 0.947361 0.183596
Si Si3 0.929806 0.320539 0.581142
Si Si4 0.132326 0.158792 0.032196
Si Si5 0.703549 0.522007 0.490183
O O1 0.096597 0.176521 0.184519
O O2 0.093827 0.077395 0.384378
O O3 0.500000 0.972245 0.250000
O O4 0.733127 0.939182 0.342185
O O5 0.682093 0.005236 0.085937
O O6 0.562188 0.872897 0.064667
O O7 0.957540 0.224813 0.577924
O O8 0.780270 0.324085 0.561706
O O9 0.000000 0.353324 0.750000
O O10 0.132946 0.063675 0.996829
#
# Coordination Sequence:
#
# PCOD9298060 Si02
#       5
#     4   8   8   8   8
#     4  12  24  40  72 104 134 182 230 280 334 412
#     4  11  25  42  70 102 137 181 227 282 337 404
#     4  10  25  47  70  97 139 183 226 278 345 402
#     4  10  24  43  67 100 136 176 226 284 335 398
#     4  11  24  44  68 103 140 178 228 282 340 396
#
# _framework density 22.701478000000002
#
# number of rings (size 3 to 8) (size 9 to 14) (size 15 to 20)
#    0.000    1.333    2.222    1.333    6.222    7.111 
#    0.000    2.222    0.000    0.000    0.000    0.000 
#    0.000    0.000    0.000    0.000    0.000    0.000 
#
# Total GULP energy -100227.884511 kJ/mol
# GULP energy per Si atom -5568.215806 kJ/mol
# Density = 2.264981 g / cm^3
# Si number density = 22.701478 Si / 1000 Ang^3
#
#
#
# Elastic Constant Matrix: (Units=GPa)
#
#
# Indices 1 2 3 4 5 6 
#
# 1 54.1170 0.0461 10.1589 0.0000 -34.0191 0.0000
# 2 0.0461 67.8843 46.2654 0.0000 11.3420 0.0000
# 3 10.1589 46.2654 180.4245 0.0000 15.6342 0.0000
# 4 0.0000 0.0000 0.0000 436.0524 0.0000 -782.0072
# 5 -34.0191 11.3420 15.6342 0.0000 52.5182 0.0000
# 6 0.0000 0.0000 0.0000 -782.0072 0.0000 1491.3651
#
#
#
# Elastic Compliance Matrix: (Units=1/GPa)
#
#
# Indices 1 2 3 4 5 6 
#
# 1 0.033748 -0.001500 -0.003529 0.000000 0.023235 0.000000
# 2 -0.001500 0.018259 -0.004282 0.000000 -0.003640 0.000000
# 3 -0.003529 -0.004282 0.007141 0.000000 -0.003487 0.000000
# 4 0.000000 0.000000 0.000000 0.038459 0.000000 0.020166
# 5 0.023235 -0.003640 -0.003487 0.000000 0.035916 0.000000
# 6 0.000000 0.000000 0.000000 0.020166 0.000000 0.011245
#
#
# Mechanical properties :
#
#
# Convention : Reuss Voigt Hill
#
# Bulk Modulus (GPa) = 24.67533 46.15182 35.41357
# Shear Modulus (GPa) = 28.26480 412.38420 220.32450
#
# Velocity S-wave (km/s) = 3.53238 13.49257 9.86223
# Velocity P-wave (km/s) = 5.24690 16.22057 12.05481
#
# Compressibility (1/GPa) = 0.04052631
#
# Stress axis : x y z
#
# Youngs Moduli (GPa) = 29.63111 54.76899 140.02907
#
# Poissons Ratio (x) = 0.08215 0.49416
# Poissons Ratio (y) = 0.04444 0.59961
# Poissons Ratio (z) = 0.10457 0.23452
#
# Static dielectric constant tensor:
#      x y z
#    x 1.874290 0.000000 0.009500 
#    y 0.000000 2.046690 0.000000 
#    z 0.009500 0.000000 1.794460 
# 
# From -- ./inp_files/28995.got.cif
#   From: 2010.05.17/outbox.cif.g08.bks.cpg/sg15_15_cif.got.tgz:28995.got - 2010.06.03 18:47:42.
