data_PCOD9298059
_publ_section_title
;
Structure prediction by ZEFSAII (Michael W. Deem and Ramdas Pophale) SiO2 
 PCOD9298059
Probable space group: C 2/C
;
_chemical_formula_sum "Si O2"
_cell_formula_units_Z 36
_cell_length_a 11.300292
_cell_length_b 10.089664
_cell_length_c 12.301113
_cell_angle_alpha 90.000000
_cell_angle_beta 71.758518
_cell_angle_gamma 90.000000
_cell_volume 1332.042560
_symmetry_space_group_name_H-M "C 2/C"
_symmetry_group_IT_number 15
_symmetry_cell_setting 'monoclinic'
loop_
_space_group_symop_operation_xyz
x,y,z
-x,y,1/2-z
-x,-y,-z
x,-y,1/2+z
1/2+x,1/2+y,z
1/2-x,1/2+y,1/2-z
1/2-x,1/2-y,-z
1/2+x,1/2-y,1/2+z
loop_
_atom_site_type_symbol
_atom_site_label
_atom_site_fract_x
_atom_site_fract_y
_atom_site_fract_z
Si Si1 0.000000 0.361024 0.250000
Si Si2 0.811583 0.964656 0.463812
Si Si3 0.116605 0.311249 0.633913
Si Si4 0.680112 0.078079 0.308121
Si Si5 0.106510 0.770221 0.508775
O O1 0.108018 0.458365 0.267866
O O2 0.033929 0.272630 0.136591
O O3 0.877443 0.823508 0.434237
O O4 0.670109 0.929382 0.543466
O O5 0.791299 0.021864 0.348543
O O6 0.884366 0.072425 0.513891
O O7 0.222520 0.322313 0.700303
O O8 0.000000 0.313068 0.750000
O O9 0.591475 0.164082 0.415871
O O10 0.250000 0.750000 0.500000
#
# Coordination Sequence:
#
# PCOD9298059 Si02
#       5
#     4   8   8   8   8
#     4  12  24  40  72 104 136 180 226 278 338 400
#     4  10  26  46  65 103 137 174 230 278 344 400
#     4  11  25  44  70  98 137 176 223 285 338 404
#     4  11  23  42  71  98 135 181 224 273 340 410
#     4  10  24  43  67 100 135 177 225 277 331 413
#
# _framework density 27.026161999999999
#
# number of rings (size 3 to 8) (size 9 to 14) (size 15 to 20)
#    0.000    1.333    1.111    3.333   14.000    0.000 
#    0.000    1.111    0.000    0.000    0.000    0.000 
#    0.000    0.000    0.000    0.000    0.000    0.000 
#
# Total GULP energy -100464.645036 kJ/mol
# GULP energy per Si atom -5581.369169 kJ/mol
# Density = 2.696465 g / cm^3
# Si number density = 27.026162 Si / 1000 Ang^3
#
#
#
# Elastic Constant Matrix: (Units=GPa)
#
#
# Indices 1 2 3 4 5 6 
#
# 1 48.1959 15.7421 -10.4221 0.0000 -9.6913 0.0000
# 2 15.7421 169.3729 39.0257 0.0000 -16.0933 0.0000
# 3 -10.4221 39.0257 125.4346 0.0000 -5.7608 0.0000
# 4 0.0000 0.0000 0.0000 33.5655 0.0000 -1.9811
# 5 -9.6913 -16.0933 -5.7608 0.0000 33.2948 0.0000
# 6 0.0000 0.0000 0.0000 -1.9811 0.0000 46.9338
#
#
#
# Elastic Compliance Matrix: (Units=1/GPa)
#
#
# Indices 1 2 3 4 5 6 
#
# 1 0.023369 -0.002256 0.002929 0.000000 0.006219 0.000000
# 2 -0.002256 0.006839 -0.002211 0.000000 0.002266 0.000000
# 3 0.002929 -0.002211 0.008965 0.000000 0.001335 0.000000
# 4 0.000000 0.000000 0.000000 0.029867 0.000000 0.001261
# 5 0.006219 0.002266 0.001335 0.000000 0.033171 0.000000
# 6 0.000000 0.000000 0.000000 0.001261 0.000000 0.021360
#
#
# Mechanical properties :
#
#
# Convention : Reuss Voigt Hill
#
# Bulk Modulus (GPa) = 27.70302 47.96610 37.83456
# Shear Modulus (GPa) = 36.05449 42.66933 39.36191
#
# Velocity S-wave (km/s) = 3.65644 3.97774 3.82047
# Velocity P-wave (km/s) = 5.30083 6.23563 5.78714
#
# Compressibility (1/GPa) = 0.03609715
#
# Stress axis : x y z
#
# Youngs Moduli (GPa) = 42.79095 146.22868 111.54635
#
# Poissons Ratio (x) = 0.32991 -0.32675
# Poissons Ratio (y) = 0.09654 0.24663
# Poissons Ratio (z) = -0.12535 0.32332
#
# Static dielectric constant tensor:
#      x y z
#    x 2.480010 0.000000 0.055440 
#    y 0.000000 2.442770 0.000000 
#    z 0.055440 0.000000 2.153160 
# 
# From -- ./inp_files/94453.got.cif
#   From: 2010.05.17/outbox.cif.g08.bks.cpg/sg15_48_cif.got.tgz:94453.got - 2010.06.03 18:47:42.
