data_PCOD9298588
_publ_section_title
;
Structure prediction by ZEFSAII (Michael W. Deem and Ramdas Pophale) SiO2 
 PCOD9298588
Probable space group: C 2/C
;
_chemical_formula_sum "Si O2"
_cell_formula_units_Z 36
_cell_length_a 7.211263
_cell_length_b 23.616751
_cell_length_c 7.924429
_cell_angle_alpha 90.000000
_cell_angle_beta 95.572151
_cell_angle_gamma 90.000000
_cell_volume 1343.205416
_symmetry_space_group_name_H-M "C 2/C"
_symmetry_group_IT_number 15
_symmetry_cell_setting 'monoclinic'
loop_
_space_group_symop_operation_xyz
x,y,z
-x,y,1/2-z
-x,-y,-z
x,-y,1/2+z
1/2+x,1/2+y,z
1/2-x,1/2+y,1/2-z
1/2-x,1/2-y,-z
1/2+x,1/2-y,1/2+z
loop_
_atom_site_type_symbol
_atom_site_label
_atom_site_fract_x
_atom_site_fract_y
_atom_site_fract_z
Si Si1 0.410756 0.707567 0.069455
Si Si2 0.762673 0.846861 0.089294
Si Si3 0.368187 0.128981 0.542496
Si Si4 0.131347 0.956294 0.612691
Si Si5 0.000000 0.477926 0.250000
O O1 0.500000 0.727827 0.250000
O O2 0.579420 0.696204 0.954834
O O3 0.250000 0.750000 0.000000
O O4 0.293647 0.649341 0.094148
O O5 0.822334 0.906410 0.012417
O O6 0.552547 0.836207 0.009034
O O7 0.272034 0.854824 0.214107
O O8 0.449974 0.066246 0.591201
O O9 0.000000 0.937754 0.750000
O O10 0.316395 0.983256 0.716993
O O11 0.000000 0.000000 0.500000
#
# Coordination Sequence:
#
# PCOD9298588 Si02
#       5
#     8   8   8   8   4
#     4  12  29  52  80 114 149 205 269 335 404 479
#     4  10  24  47  76 108 160 203 261 327 397 472
#     4  10  24  49  76 110 158 208 255 330 401 471
#     4  12  25  43  73 117 160 212 269 320 394 478
#     4  10  24  44  76 112 160 210 256 312 388 476
#
# _framework density 26.801559000000001
#
# number of rings (size 3 to 8) (size 9 to 14) (size 15 to 20)
#    0.000    1.333    0.000    5.333    4.667   15.111 
#    4.000    0.000    0.000    0.000    0.000    0.000 
#    0.000    0.000    0.000    0.000    0.000    0.000 
#
# Total GULP energy -100694.688099 kJ/mol
# GULP energy per Si atom -5594.149339 kJ/mol
# Density = 2.674056 g / cm^3
# Si number density = 26.801559 Si / 1000 Ang^3
#
#
#
# Elastic Constant Matrix: (Units=GPa)
#
#
# Indices 1 2 3 4 5 6 
#
# 1 276.8490 107.0261 85.7472 0.0000 6.4736 0.0000
# 2 107.0261 148.0840 60.5685 0.0000 9.7671 0.0000
# 3 85.7472 60.5685 97.6601 0.0000 21.1132 0.0000
# 4 0.0000 0.0000 0.0000 43.1136 0.0000 15.1620
# 5 6.4736 9.7671 21.1132 0.0000 64.5596 0.0000
# 6 0.0000 0.0000 0.0000 15.1620 0.0000 68.2448
#
#
#
# Elastic Compliance Matrix: (Units=1/GPa)
#
#
# Indices 1 2 3 4 5 6 
#
# 1 0.005763 -0.002778 -0.003555 0.000000 0.001005 0.000000
# 2 -0.002778 0.010402 -0.004016 0.000000 0.000018 0.000000
# 3 -0.003555 -0.004016 0.016834 0.000000 -0.004541 0.000000
# 4 0.000000 0.000000 0.000000 0.025160 0.000000 -0.005590
# 5 0.001005 0.000018 -0.004541 0.000000 0.016871 0.000000
# 6 0.000000 0.000000 0.000000 -0.005590 0.000000 0.015895
#
#
# Mechanical properties :
#
#
# Convention : Reuss Voigt Hill
#
# Bulk Modulus (GPa) = 81.29424 114.36405 97.82915
# Shear Modulus (GPa) = 43.20624 53.13368 48.16996
#
# Velocity S-wave (km/s) = 4.01943 4.45734 4.24404
# Velocity P-wave (km/s) = 7.20686 8.32189 7.78436
#
# Compressibility (1/GPa) = 0.01230100
#
# Stress axis : x y z
#
# Youngs Moduli (GPa) = 173.50652 96.13478 59.40519
#
# Poissons Ratio (x) = 0.26704 0.21118
# Poissons Ratio (y) = 0.48196 0.23859
# Poissons Ratio (z) = 0.61680 0.38611
#
# Static dielectric constant tensor:
#      x y z
#    x 2.082950 0.000000 0.021630 
#    y 0.000000 2.315650 0.000000 
#    z 0.021630 0.000000 2.193280 
# 
# From -- ./inp_files/72923.got.cif
#   From: 2010.05.17/outbox.cif.g08.bks.cpg/sg15_37_cif.got.tgz:72923.got - 2010.06.03 18:47:42.
