data_PCOD9298668
_publ_section_title
;
Structure prediction by ZEFSAII (Michael W. Deem and Ramdas Pophale) SiO2 
 PCOD9298668
Probable space group: C 2/C
;
_chemical_formula_sum "Si O2"
_cell_formula_units_Z 44
_cell_length_a 19.839999
_cell_length_b 10.207283
_cell_length_c 11.259789
_cell_angle_alpha 90.000000
_cell_angle_beta 124.106583
_cell_angle_gamma 90.000000
_cell_volume 1888.035900
_symmetry_space_group_name_H-M "C 2/C"
_symmetry_group_IT_number 15
_symmetry_cell_setting 'monoclinic'
loop_
_space_group_symop_operation_xyz
x,y,z
-x,y,1/2-z
-x,-y,-z
x,-y,1/2+z
1/2+x,1/2+y,z
1/2-x,1/2+y,1/2-z
1/2-x,1/2-y,-z
1/2+x,1/2-y,1/2+z
loop_
_atom_site_type_symbol
_atom_site_label
_atom_site_fract_x
_atom_site_fract_y
_atom_site_fract_z
Si Si1 0.728773 0.468570 0.693961
Si Si2 0.514761 0.152607 0.002644
Si Si3 0.000000 0.214308 0.250000
Si Si4 0.861468 0.005550 0.141876
Si Si5 0.834969 0.682852 0.895752
Si Si6 0.910364 0.710345 0.197182
O O1 0.688170 0.519727 0.530895
O O2 0.684663 0.497164 0.777383
O O3 0.808248 0.558775 0.792037
O O4 0.722252 0.309872 0.676717
O O5 0.531106 0.196094 0.886609
O O6 0.428416 0.219135 0.955013
O O7 0.588176 0.190763 0.161485
O O8 0.500000 0.000000 0.000000
O O9 0.926978 0.120029 0.215514
O O10 0.903979 0.864699 0.169878
O O11 0.842725 0.648830 0.044319
O O12 0.000000 0.658635 0.250000
#
# Coordination Sequence:
#
# PCOD9298668 Si02
#       6
#     8   8   4   8   8   8
#     4  11  25  44  67 103 143 192 234 282 352 428
#     4  11  25  43  69 104 137 179 230 291 356 412
#     4  12  24  42  74 108 132 172 240 306 346 402
#     4  11  23  42  72 103 137 179 236 295 353 412
#     4  10  24  45  68  97 142 185 229 284 350 422
#     4   9  20  40  68  95 132 177 222 283 352 409
#
# _framework density 23.304641
#
# number of rings (size 3 to 8) (size 9 to 14) (size 15 to 20)
#    0.000    1.455    2.727    1.091    3.818    9.455 
#    0.000    0.000    0.000    0.000    0.000    0.000 
#    0.000    0.000    0.000    0.000    0.000    0.000 
#
# Total GULP energy -122870.683858 kJ/mol
# GULP energy per Si atom -5585.031084 kJ/mol
# Density = 2.325160 g / cm^3
# Si number density = 23.304641 Si / 1000 Ang^3
#
#
#
# Elastic Constant Matrix: (Units=GPa)
#
#
# Indices 1 2 3 4 5 6 
#
# 1 55.1289 -10.6044 17.6403 0.0000 -5.0335 0.0000
# 2 -10.6044 100.5137 66.3898 0.0000 12.8089 0.0000
# 3 17.6403 66.3898 217.3039 0.0000 -12.3182 0.0000
# 4 0.0000 0.0000 0.0000 30.6048 0.0000 15.3881
# 5 -5.0335 12.8089 -12.3182 0.0000 35.9824 0.0000
# 6 0.0000 0.0000 0.0000 15.3881 0.0000 11.4602
#
#
#
# Elastic Compliance Matrix: (Units=1/GPa)
#
#
# Indices 1 2 3 4 5 6 
#
# 1 0.019805 0.003854 -0.002760 0.000000 0.000454 0.000000
# 2 0.003854 0.014553 -0.005122 0.000000 -0.006395 0.000000
# 3 -0.002760 -0.005122 0.006600 0.000000 0.003697 0.000000
# 4 0.000000 0.000000 0.000000 0.100580 0.000000 -0.135053
# 5 0.000454 -0.006395 0.003697 0.000000 0.031397 0.000000
# 6 0.000000 0.000000 0.000000 -0.135053 0.000000 0.268601
#
#
# Mechanical properties :
#
#
# Convention : Reuss Voigt Hill
#
# Bulk Modulus (GPa) = 30.39056 57.75532 44.07294
# Shear Modulus (GPa) = 10.85639 35.57753 23.21696
#
# Velocity S-wave (km/s) = 2.16069 3.91145 3.15975
# Velocity P-wave (km/s) = 4.39245 6.72576 5.68020
#
# Compressibility (1/GPa) = 0.03290496
#
# Stress axis : x y z
#
# Youngs Moduli (GPa) = 50.49186 68.71263 151.51100
#
# Poissons Ratio (x) = -0.26485 0.41811
# Poissons Ratio (y) = -0.19462 0.77599
# Poissons Ratio (z) = 0.13934 0.35192
#
# Static dielectric constant tensor:
#      x y z
#    x 2.010690 0.000000 -0.046800 
#    y 0.000000 1.803450 0.000000 
#    z -0.046800 0.000000 1.931540 
# 
# From -- ./inp_files/122116.got.cif
#   From: 2010.05.17/outbox.cif.g08.bks.cpg/sg15_62_cif.got.tgz:122116.got - 2010.06.03 18:47:42.
