data_PCOD9298089
_publ_section_title
;
Structure prediction by ZEFSAII (Michael W. Deem and Ramdas Pophale) SiO2 
 PCOD9298089
Probable space group: C 2/C
;
_chemical_formula_sum "Si O2"
_cell_formula_units_Z 48
_cell_length_a 13.536170
_cell_length_b 15.085878
_cell_length_c 15.930719
_cell_angle_alpha 90.000000
_cell_angle_beta 46.819050
_cell_angle_gamma 90.000000
_cell_volume 2372.171909
_symmetry_space_group_name_H-M "C 2/C"
_symmetry_group_IT_number 15
_symmetry_cell_setting 'monoclinic'
loop_
_space_group_symop_operation_xyz
x,y,z
-x,y,1/2-z
-x,-y,-z
x,-y,1/2+z
1/2+x,1/2+y,z
1/2-x,1/2+y,1/2-z
1/2-x,1/2-y,-z
1/2+x,1/2-y,1/2+z
loop_
_atom_site_type_symbol
_atom_site_label
_atom_site_fract_x
_atom_site_fract_y
_atom_site_fract_z
Si Si1 0.512519 0.799248 0.537894
Si Si2 0.501414 0.364445 0.153130
Si Si3 0.363214 0.500402 0.025365
Si Si4 0.777780 0.796414 0.072774
Si Si5 0.813609 0.367317 0.211286
Si Si6 0.601037 0.052126 0.269994
O O1 0.559062 0.717465 0.567404
O O2 0.400021 0.759008 0.541385
O O3 0.629441 0.832521 0.409053
O O4 0.445314 0.872498 0.638049
O O5 0.500000 0.340045 0.250000
O O6 0.595332 0.449179 0.082981
O O7 0.347942 0.381239 0.208908
O O8 0.500000 0.500000 0.000000
O O9 0.313375 0.400490 0.038593
O O10 0.250562 0.556109 0.141744
O O11 0.673494 0.804499 0.213206
O O12 0.750000 0.750000 0.000000
O O13 0.891833 0.457773 0.187031
O O14 0.500000 0.050097 0.250000
#
# Coordination Sequence:
#
# PCOD9298089 Si02
#       6
#     8   8   8   8   8   8
#     4  11  24  41  66  99 137 176 229 291 343 413
#     4  11  25  43  68  99 131 183 232 279 349 424
#     4  11  22  48  68  94 141 184 224 293 346 414
#     4  10  24  43  68 102 131 180 234 284 351 418
#     4  10  24  44  65  98 141 175 227 291 344 419
#     4  11  25  42  69  99 138 182 223 283 355 414
#
# _framework density 20.234622000000002
#
# number of rings (size 3 to 8) (size 9 to 14) (size 15 to 20)
#    0.000    1.333    5.000    1.000   11.667    2.000 
#    3.000    0.000    0.000    0.000    0.000    0.000 
#    0.000    0.000    0.000    0.000    0.000    0.000 
#
# Total GULP energy -133906.196736 kJ/mol
# GULP energy per Si atom -5579.424864 kJ/mol
# Density = 2.018857 g / cm^3
# Si number density = 20.234622 Si / 1000 Ang^3
#
#
#
# Elastic Constant Matrix: (Units=GPa)
#
#
# Indices 1 2 3 4 5 6 
#
# 1 57.4707 24.0345 55.7463 0.0000 22.1181 0.0000
# 2 24.0345 96.6365 74.1106 0.0000 8.5585 0.0000
# 3 55.7463 74.1106 151.2555 0.0000 6.6672 0.0000
# 4 0.0000 0.0000 0.0000 46.4606 0.0000 9.5020
# 5 22.1181 8.5585 6.6672 0.0000 40.0897 0.0000
# 6 0.0000 0.0000 0.0000 9.5020 0.0000 20.3368
#
#
#
# Elastic Compliance Matrix: (Units=1/GPa)
#
#
# Indices 1 2 3 4 5 6 
#
# 1 0.037553 0.003712 -0.014820 0.000000 -0.019046 0.000000
# 2 0.003712 0.017140 -0.009585 0.000000 -0.004113 0.000000
# 3 -0.014820 -0.009585 0.016439 0.000000 0.007488 0.000000
# 4 0.000000 0.000000 0.000000 0.023798 0.000000 -0.011119
# 5 -0.019046 -0.004113 0.007488 0.000000 0.035085 0.000000
# 6 0.000000 0.000000 0.000000 -0.011119 0.000000 0.054367
#
#
# Mechanical properties :
#
#
# Convention : Reuss Voigt Hill
#
# Bulk Modulus (GPa) = 33.61629 68.12727 50.87178
# Shear Modulus (GPa) = 21.21504 31.47552 26.34528
#
# Velocity S-wave (km/s) = 3.24149 3.94830 3.61222
# Velocity P-wave (km/s) = 5.53706 7.38425 6.52634
#
# Compressibility (1/GPa) = 0.02974748
#
# Stress axis : x y z
#
# Youngs Moduli (GPa) = 26.62907 58.34441 60.82934
#
# Poissons Ratio (x) = -0.21659 0.90148
# Poissons Ratio (y) = -0.09886 0.58304
# Poissons Ratio (z) = 0.39464 0.55922
#
# Static dielectric constant tensor:
#      x y z
#    x 1.736560 0.000000 -0.022680 
#    y 0.000000 1.726960 0.000000 
#    z -0.022680 0.000000 1.757380 
# 
# From -- ./inp_files/153800.got.cif
#   From: 2010.05.17/outbox.cif.g08.bks.cpg/sg15_77_cif.got.tgz:153800.got - 2010.06.03 18:47:42.
