data_PCOD9298773
_publ_section_title
;
Structure prediction by ZEFSAII (Michael W. Deem and Ramdas Pophale) SiO2 
 PCOD9298773
Probable space group: C 2/C
;
_chemical_formula_sum "Si O2"
_cell_formula_units_Z 32
_cell_length_a 7.182032
_cell_length_b 18.312012
_cell_length_c 13.631031
_cell_angle_alpha 90.000000
_cell_angle_beta 45.701039
_cell_angle_gamma 90.000000
_cell_volume 1283.058324
_symmetry_space_group_name_H-M "C 2/C"
_symmetry_group_IT_number 15
_symmetry_cell_setting 'monoclinic'
loop_
_space_group_symop_operation_xyz
x,y,z
-x,y,1/2-z
-x,-y,-z
x,-y,1/2+z
1/2+x,1/2+y,z
1/2-x,1/2+y,1/2-z
1/2-x,1/2-y,-z
1/2+x,1/2-y,1/2+z
loop_
_atom_site_type_symbol
_atom_site_label
_atom_site_fract_x
_atom_site_fract_y
_atom_site_fract_z
Si Si1 0.269910 0.643324 0.090878
Si Si2 0.729039 0.251618 0.391143
Si Si3 0.747051 0.930572 0.391195
Si Si4 0.717196 0.596981 0.074669
O O1 0.474424 0.606153 0.092079
O O2 0.000000 0.661260 0.250000
O O3 0.453620 0.708657 0.978410
O O4 0.224707 0.591630 0.013639
O O5 0.750000 0.250000 0.500000
O O6 0.743637 0.164826 0.364998
O O7 0.000000 0.282749 0.250000
O O8 0.499651 0.904920 0.419615
O O9 0.000000 0.896263 0.250000
O O10 0.773344 0.017984 0.379054
#
# Coordination Sequence:
#
# PCOD9298773 Si02
#       4
#     8   8   8   8
#     4  11  27  46  73 108 145 189 239 299 365 427
#     4  10  24  45  73  99 143 188 235 295 355 422
#     4  11  26  43  76 106 141 190 244 294 363 434
#     4  10  25  48  70 102 150 184 239 301 360 423
#
# _framework density 24.940408000000001
#
# number of rings (size 3 to 8) (size 9 to 14) (size 15 to 20)
#    0.000    1.500    0.000    1.500   21.000    2.000 
#    0.000    0.000    0.000    0.000    0.000    0.000 
#    0.000    0.000    0.000    0.000    0.000    0.000 
#
# Total GULP energy -89142.083600 kJ/mol
# GULP energy per Si atom -5571.380225 kJ/mol
# Density = 2.488364 g / cm^3
# Si number density = 24.940408 Si / 1000 Ang^3
#
#
#
# Elastic Constant Matrix: (Units=GPa)
#
#
# Indices 1 2 3 4 5 6 
#
# 1 119.6440 46.1892 70.0388 0.0000 -29.5309 0.0000
# 2 46.1892 136.6777 47.0668 0.0000 -10.6305 0.0000
# 3 70.0388 47.0668 248.7253 0.0000 -40.0599 0.0000
# 4 0.0000 0.0000 0.0000 7.1205 0.0000 -15.6575
# 5 -29.5309 -10.6305 -40.0599 0.0000 58.5550 0.0000
# 6 0.0000 0.0000 0.0000 -15.6575 0.0000 30.2192
#
#
#
# Elastic Compliance Matrix: (Units=1/GPa)
#
#
# Indices 1 2 3 4 5 6 
#
# 1 0.011686 -0.002919 -0.002107 0.000000 0.003923 0.000000
# 2 -0.002919 0.008566 -0.000883 0.000000 -0.000521 0.000000
# 3 -0.002107 -0.000883 0.005152 0.000000 0.002302 0.000000
# 4 0.000000 0.000000 0.000000 -1.007947 0.000000 -0.522247
# 5 0.003923 -0.000521 0.002302 0.000000 0.020536 0.000000
# 6 0.000000 0.000000 0.000000 -0.522247 0.000000 -0.237500
#
#
# Mechanical properties :
#
#
# Convention : Reuss Voigt Hill
#
# Bulk Modulus (GPa) = 73.59797 92.40409 83.00103
# Shear Modulus (GPa) = -4.22597 41.96242 18.86822
#
# Velocity S-wave (km/s) = -1.30311 4.10629 2.75350
# Velocity P-wave (km/s) = 5.22584 7.72091 6.59249
#
# Compressibility (1/GPa) = 0.01358733
#
# Stress axis : x y z
#
# Youngs Moduli (GPa) = 85.56993 116.73476 194.11753
#
# Poissons Ratio (x) = 0.34072 0.40894
# Poissons Ratio (y) = 0.24976 0.17142
# Poissons Ratio (z) = 0.18027 0.10308
#
# Static dielectric constant tensor:
#      x y z
#    x 1.962810 0.000000 -0.101870 
#    y 0.000000 2.137200 0.000000 
#    z -0.101870 0.000000 2.207850 
# 
# From -- ./inp_files/191867.got.cif
#   From: 2010.05.17/outbox.cif.g08.bks.cpg/sg15_96_cif.got.tgz:191867.got - 2010.06.03 18:47:42.
