data_PCOD9298067
_publ_section_title
;
Structure prediction by ZEFSAII (Michael W. Deem and Ramdas Pophale) SiO2 
 PCOD9298067
Probable space group: C 2/C
;
_chemical_formula_sum "Si O2"
_cell_formula_units_Z 40
_cell_length_a 5.021281
_cell_length_b 26.302431
_cell_length_c 13.613161
_cell_angle_alpha 90.000000
_cell_angle_beta 99.047357
_cell_angle_gamma 90.000000
_cell_volume 1775.547594
_symmetry_space_group_name_H-M "C 2/C"
_symmetry_group_IT_number 15
_symmetry_cell_setting 'monoclinic'
loop_
_space_group_symop_operation_xyz
x,y,z
-x,y,1/2-z
-x,-y,-z
x,-y,1/2+z
1/2+x,1/2+y,z
1/2-x,1/2+y,1/2-z
1/2-x,1/2-y,-z
1/2+x,1/2-y,1/2+z
loop_
_atom_site_type_symbol
_atom_site_label
_atom_site_fract_x
_atom_site_fract_y
_atom_site_fract_z
Si Si1 0.731429 0.136183 0.682167
Si Si2 0.184054 0.043934 0.957521
Si Si3 0.734866 0.851560 0.683835
Si Si4 0.001803 0.712867 0.506886
Si Si5 0.577952 0.953003 0.643278
O O1 0.500000 0.120346 0.750000
O O2 0.861127 0.091278 0.619633
O O3 0.583825 0.176983 0.603074
O O4 0.000000 0.158204 0.750000
O O5 0.353251 0.007086 0.897031
O O6 0.345267 0.067093 0.058170
O O7 0.000000 0.000000 0.000000
O O8 0.500000 0.856988 0.750000
O O9 0.596341 0.822207 0.587983
O O10 0.802504 0.909078 0.652516
O O11 0.000000 0.828585 0.750000
O O12 0.750000 0.750000 0.500000
O O13 0.250000 0.750000 0.500000
O O14 0.500000 0.961593 0.750000
#
# Coordination Sequence:
#
# PCOD9298067 Si02
#       5
#     8   8   8   8   8
#     4  12  29  50  76 111 158 206 257 317 395 467
#     4  11  26  42  73 105 153 198 250 303 373 457
#     4  11  25  44  73 104 141 184 240 303 369 437
#     4  12  27  49  77 108 147 189 255 321 384 461
#     4  10  24  43  67 104 144 189 247 297 371 442
#
# _framework density 22.528262999999999
#
# number of rings (size 3 to 8) (size 9 to 14) (size 15 to 20)
#    0.000    0.800    2.000    3.000   14.000    6.400 
#    0.000    0.000    0.000    0.000    0.000    0.000 
#    0.000    0.000    0.000    0.000    0.000    0.000 
#
# Total GULP energy -111448.931021 kJ/mol
# GULP energy per Si atom -5572.446551 kJ/mol
# Density = 2.247699 g / cm^3
# Si number density = 22.528263 Si / 1000 Ang^3
#
#
#
# Elastic Constant Matrix: (Units=GPa)
#
#
# Indices 1 2 3 4 5 6 
#
# 1 124.9763 37.0183 55.7597 0.0000 16.9900 0.0000
# 2 37.0183 106.5012 64.7252 0.0000 7.4539 0.0000
# 3 55.7597 64.7252 177.0258 0.0000 18.6598 0.0000
# 4 0.0000 0.0000 0.0000 -82.7805 0.0000 -10.4596
# 5 16.9900 7.4539 18.6598 0.0000 43.2074 0.0000
# 6 0.0000 0.0000 0.0000 -10.4596 0.0000 33.6017
#
#
#
# Elastic Compliance Matrix: (Units=1/GPa)
#
#
# Indices 1 2 3 4 5 6 
#
# 1 0.009887 -0.001965 -0.002118 0.000000 -0.002634 0.000000
# 2 -0.001965 0.012464 -0.003974 0.000000 0.000339 0.000000
# 3 -0.002118 -0.003974 0.007972 0.000000 -0.001924 0.000000
# 4 0.000000 0.000000 0.000000 -0.011623 0.000000 -0.003618
# 5 -0.002634 0.000339 -0.001924 0.000000 0.024953 0.000000
# 6 0.000000 0.000000 0.000000 -0.003618 0.000000 0.028634
#
#
# Mechanical properties :
#
#
# Convention : Reuss Voigt Hill
#
# Bulk Modulus (GPa) = 70.37952 80.38998 75.38475
# Shear Modulus (GPa) = 53.68492 15.53906 34.61199
#
# Velocity S-wave (km/s) = 4.88690 2.62917 3.92392
# Velocity P-wave (km/s) = 7.94674 6.70658 7.35286
#
# Compressibility (1/GPa) = 0.01420868
#
# Stress axis : x y z
#
# Youngs Moduli (GPa) = 101.14724 80.23135 125.44136
#
# Poissons Ratio (x) = 0.15764 0.26569
# Poissons Ratio (y) = 0.19874 0.49850
# Poissons Ratio (z) = 0.21423 0.31883
#
# Static dielectric constant tensor:
#      x y z
#    x 1.900540 0.000000 0.077180 
#    y 0.000000 1.964250 0.000000 
#    z 0.077180 0.000000 1.708760 
# 
# From -- ./inp_files/73325.got.cif
#   From: 2010.05.17/outbox.cif.g08.bks.cpg/sg15_37_cif.got.tgz:73325.got - 2010.06.03 18:47:42.
