data_PCOD9298312
_publ_section_title
;
Structure prediction by ZEFSAII (Michael W. Deem and Ramdas Pophale) SiO2 
 PCOD9298312
Probable space group: C 2/C
;
_chemical_formula_sum "Si O2"
_cell_formula_units_Z 48
_cell_length_a 8.968572
_cell_length_b 10.743016
_cell_length_c 24.096939
_cell_angle_alpha 90.000000
_cell_angle_beta 63.957091
_cell_angle_gamma 90.000000
_cell_volume 2085.992793
_symmetry_space_group_name_H-M "C 2/C"
_symmetry_group_IT_number 15
_symmetry_cell_setting 'monoclinic'
loop_
_space_group_symop_operation_xyz
x,y,z
-x,y,1/2-z
-x,-y,-z
x,-y,1/2+z
1/2+x,1/2+y,z
1/2-x,1/2+y,1/2-z
1/2-x,1/2-y,-z
1/2+x,1/2-y,1/2+z
loop_
_atom_site_type_symbol
_atom_site_label
_atom_site_fract_x
_atom_site_fract_y
_atom_site_fract_z
Si Si1 0.343508 0.625124 0.460917
Si Si2 0.638213 0.786775 0.396639
Si Si3 0.064670 0.378173 0.177358
Si Si4 0.025048 0.665712 0.183884
Si Si5 0.312953 0.825604 0.623027
Si Si6 0.342832 0.880673 0.992162
O O1 0.250000 0.750000 0.500000
O O2 0.534963 0.663875 0.431897
O O3 0.309334 0.608940 0.400315
O O4 0.269290 0.501807 0.501120
O O5 0.563333 0.836400 0.350624
O O6 0.832191 0.755102 0.363096
O O7 0.605033 0.883523 0.451546
O O8 0.090211 0.525071 0.173735
O O9 0.238937 0.312972 0.134365
O O10 0.000000 0.342173 0.250000
O O11 0.000000 0.709811 0.250000
O O12 0.848056 0.653610 0.181895
O O13 0.492399 0.859644 0.569949
O O14 0.250000 0.750000 0.000000
#
# Coordination Sequence:
#
# PCOD9298312 Si02
#       6
#     8   8   8   8   8   8
#     4  11  25  41  65  97 134 173 216 261 332 402
#     4  11  24  41  66  95 132 170 218 272 332 391
#     4  10  24  44  66  93 128 176 224 269 321 387
#     4  11  24  42  66  93 128 174 223 272 325 385
#     4  11  23  40  67  92 132 169 215 267 329 384
#     4  12  25  39  65 103 133 169 215 272 333 395
#
# _framework density 23.010624
#
# number of rings (size 3 to 8) (size 9 to 14) (size 15 to 20)
#    0.000    1.000    3.333    2.500    7.000    0.667 
#    0.000    0.000    0.000    7.000    0.000    0.000 
#    0.000    0.000    0.000    0.000    0.000    0.000 
#
# Total GULP energy -133885.104798 kJ/mol
# GULP energy per Si atom -5578.546033 kJ/mol
# Density = 2.295825 g / cm^3
# Si number density = 23.010624 Si / 1000 Ang^3
#
#
#
# Elastic Constant Matrix: (Units=GPa)
#
#
# Indices 1 2 3 4 5 6 
#
# 1 43.7311 2.5685 12.6624 0.0000 20.8881 0.0000
# 2 2.5685 63.7952 0.4346 0.0000 -0.7586 0.0000
# 3 12.6624 0.4346 92.3128 0.0000 33.3927 0.0000
# 4 0.0000 0.0000 0.0000 25.9758 0.0000 -7.5634
# 5 20.8881 -0.7586 33.3927 0.0000 36.0801 0.0000
# 6 0.0000 0.0000 0.0000 -7.5634 0.0000 32.5059
#
#
#
# Elastic Compliance Matrix: (Units=1/GPa)
#
#
# Indices 1 2 3 4 5 6 
#
# 1 0.032510 -0.001597 0.003561 0.000000 -0.022150 0.000000
# 2 -0.001597 0.015763 -0.000465 0.000000 0.001686 0.000000
# 3 0.003561 -0.000465 0.016680 0.000000 -0.017509 0.000000
# 4 0.000000 0.000000 0.000000 0.041295 0.000000 0.009609
# 5 -0.022150 0.001686 -0.017509 0.000000 0.056780 0.000000
# 6 0.000000 0.000000 0.000000 0.009609 0.000000 0.032999
#
#
# Mechanical properties :
#
#
# Convention : Reuss Voigt Hill
#
# Bulk Modulus (GPa) = 14.71664 25.68556 20.20110
# Shear Modulus (GPa) = 23.18262 31.19061 27.18662
#
# Velocity S-wave (km/s) = 3.17752 3.68569 3.44100
# Velocity P-wave (km/s) = 4.45776 5.41287 4.95836
#
# Compressibility (1/GPa) = 0.06795029
#
# Stress axis : x y z
#
# Youngs Moduli (GPa) = 30.76002 63.44106 59.95185
#
# Poissons Ratio (x) = 0.10129 -0.21347
# Poissons Ratio (y) = 0.04911 0.02789
# Poissons Ratio (z) = -0.10953 0.02951
#
# Static dielectric constant tensor:
#      x y z
#    x 1.904580 0.000000 0.087350 
#    y 0.000000 1.875800 0.000000 
#    z 0.087350 0.000000 2.007380 
# 
# From -- ./inp_files/263468.got.cif
#   From: 2010.05.17/outbox.cif.g08.bks.cpg/sg15_132_cif.got.tgz:263468.got - 2010.06.03 18:47:42.
