data_PCOD9298709
_publ_section_title
;
Structure prediction by ZEFSAII (Michael W. Deem and Ramdas Pophale) SiO2 
 PCOD9298709
Probable space group: C 2/C
;
_chemical_formula_sum "Si O2"
_cell_formula_units_Z 32
_cell_length_a 17.594797
_cell_length_b 7.426676
_cell_length_c 22.873422
_cell_angle_alpha 90.000000
_cell_angle_beta 25.869224
_cell_angle_gamma 90.000000
_cell_volume 1304.107951
_symmetry_space_group_name_H-M "C 2/C"
_symmetry_group_IT_number 15
_symmetry_cell_setting 'monoclinic'
loop_
_space_group_symop_operation_xyz
x,y,z
-x,y,1/2-z
-x,-y,-z
x,-y,1/2+z
1/2+x,1/2+y,z
1/2-x,1/2+y,1/2-z
1/2-x,1/2-y,-z
1/2+x,1/2-y,1/2+z
loop_
_atom_site_type_symbol
_atom_site_label
_atom_site_fract_x
_atom_site_fract_y
_atom_site_fract_z
Si Si1 0.964994 0.471028 0.840000
Si Si2 0.084447 0.910984 0.084128
Si Si3 0.832715 0.238500 0.225950
Si Si4 0.446999 0.702383 0.020130
O O1 0.992227 0.256909 0.827633
O O2 0.000000 0.533310 0.750000
O O3 0.086018 0.586871 0.798635
O O4 0.757510 0.490793 0.994081
O O5 0.138689 0.819576 0.984129
O O6 0.951421 0.070289 0.162739
O O7 0.634075 0.204245 0.381652
O O8 0.846954 0.269028 0.146425
O O9 0.500000 0.500000 0.000000
#
# Coordination Sequence:
#
# PCOD9298709 Si02
#       4
#     8   8   8   8
#     4  11  24  42  68  98 144 179 233 295 351 421
#     4  10  25  42  64 104 137 183 238 286 353 424
#     4  11  24  45  74  96 143 186 231 295 356 416
#     4  10  24  45  70 106 139 180 245 288 345 430
#
# _framework density 24.537846999999999
#
# number of rings (size 3 to 8) (size 9 to 14) (size 15 to 20)
#    0.000    1.500    0.000    3.750   10.500    6.000 
#    0.000    0.000    0.000    0.000    0.000    0.000 
#    0.000    0.000    0.000    0.000    0.000    0.000 
#
# Total GULP energy -89605.531855 kJ/mol
# GULP energy per Si atom -5600.345741 kJ/mol
# Density = 2.448200 g / cm^3
# Si number density = 24.537847 Si / 1000 Ang^3
#
#
#
# Elastic Constant Matrix: (Units=GPa)
#
#
# Indices 1 2 3 4 5 6 
#
# 1 85.1532 1.2875 10.7287 -0.0003 4.3434 0.0001
# 2 1.2875 86.9989 11.3325 -0.0006 -5.2065 0.0000
# 3 10.7287 11.3325 90.3978 -0.0016 -14.0075 0.0002
# 4 -0.0003 -0.0006 -0.0016 33.5283 0.0002 -10.3754
# 5 4.3434 -5.2065 -14.0075 0.0002 51.9106 0.0001
# 6 0.0001 0.0000 0.0002 -10.3754 0.0001 49.3515
#
#
#
# Elastic Compliance Matrix: (Units=1/GPa)
#
#
# Indices 1 2 3 4 5 6 
#
# 1 0.012026 -0.000051 -0.001646 0.000000 -0.001456 0.000000
# 2 -0.000051 0.011718 -0.001336 0.000000 0.000819 0.000000
# 3 -0.001646 -0.001336 0.011924 0.000001 0.003221 0.000000
# 4 0.000000 0.000000 0.000001 0.031901 0.000000 0.006707
# 5 -0.001456 0.000819 0.003221 0.000000 0.020337 0.000000
# 6 0.000000 0.000000 0.000000 0.006707 0.000000 0.021673
#
#
# Mechanical properties :
#
#
# Convention : Reuss Voigt Hill
#
# Bulk Modulus (GPa) = 33.78140 34.36079 34.07109
# Shear Modulus (GPa) = 39.83649 42.90483 41.37066
#
# Velocity S-wave (km/s) = 4.03360 4.18606 4.11054
# Velocity P-wave (km/s) = 5.95737 6.11537 6.03689
#
# Compressibility (1/GPa) = 0.02960209
#
# Stress axis : x y z
#
# Youngs Moduli (GPa) = 83.15319 85.33729 83.86242
#
# Poissons Ratio (x) = 0.00432 0.13808
# Poissons Ratio (y) = 0.00421 0.11205
# Poissons Ratio (z) = 0.13691 0.11402
#
# Static dielectric constant tensor:
#      x y z
#    x 1.953080 0.000000 0.001130 
#    y 0.000000 1.921820 0.000000 
#    z 0.001130 0.000000 2.023910 
# 
# From -- ./inp_files/102258.got.cif
#   From: 2010.05.17/outbox.cif.g08.bks.cpg/sg15_52_cif.got.tgz:102258.got - 2010.06.03 18:47:42.
