data_PCOD9298131
_publ_section_title
;
Structure prediction by ZEFSAII (Michael W. Deem and Ramdas Pophale) SiO2 
 PCOD9298131
Probable space group: C 2/C
;
_chemical_formula_sum "Si O2"
_cell_formula_units_Z 40
_cell_length_a 11.652937
_cell_length_b 8.972586
_cell_length_c 16.716690
_cell_angle_alpha 90.000000
_cell_angle_beta 110.271927
_cell_angle_gamma 90.000000
_cell_volume 1639.582911
_symmetry_space_group_name_H-M "C 2/C"
_symmetry_group_IT_number 15
_symmetry_cell_setting 'monoclinic'
loop_
_space_group_symop_operation_xyz
x,y,z
-x,y,1/2-z
-x,-y,-z
x,-y,1/2+z
1/2+x,1/2+y,z
1/2-x,1/2+y,1/2-z
1/2-x,1/2-y,-z
1/2+x,1/2-y,1/2+z
loop_
_atom_site_type_symbol
_atom_site_label
_atom_site_fract_x
_atom_site_fract_y
_atom_site_fract_z
Si Si1 0.833687 0.958086 0.660296
Si Si2 0.275674 0.730195 0.760214
Si Si3 0.775773 0.460297 0.650532
Si Si4 0.014963 0.109225 0.077841
Si Si5 0.612061 0.077825 0.982820
O O1 0.835891 0.823019 0.724936
O O2 0.959139 0.971410 0.642261
O O3 0.727438 0.922450 0.570156
O O4 0.794750 0.108842 0.695077
O O5 0.290028 0.613155 0.837236
O O6 0.346028 0.875993 0.740330
O O7 0.658701 0.352670 0.611008
O O8 0.850311 0.492321 0.589293
O O9 0.934832 0.257581 0.049535
O O10 0.000000 0.000000 0.000000
O O11 0.500000 0.000000 0.000000
#
# Coordination Sequence:
#
# PCOD9298131 Si02
#       5
#     8   8   8   8   8
#     4  11  23  47  67 103 138 179 237 283 354 414
#     4  10  24  43  69  98 143 180 222 296 346 422
#     4  11  24  48  68 103 139 184 238 285 358 415
#     4  12  24  42  77  99 135 183 236 293 344 421
#     4  12  26  45  71 101 137 182 236 292 345 422
#
# _framework density 24.396447999999999
#
# number of rings (size 3 to 8) (size 9 to 14) (size 15 to 20)
#    0.000    0.800    4.000    3.000    2.800    4.800 
#    7.200    2.000    0.000    0.000    0.000    0.000 
#    0.000    0.000    0.000    0.000    0.000    0.000 
#
# Total GULP energy -111471.318335 kJ/mol
# GULP energy per Si atom -5573.565917 kJ/mol
# Density = 2.434092 g / cm^3
# Si number density = 24.396448 Si / 1000 Ang^3
#
#
#
# Elastic Constant Matrix: (Units=GPa)
#
#
# Indices 1 2 3 4 5 6 
#
# 1 151.9926 52.8464 59.2399 0.0000 -42.9840 0.0000
# 2 52.8464 105.0396 43.1211 0.0000 -29.9157 0.0000
# 3 59.2399 43.1211 114.0919 0.0000 -59.0700 0.0000
# 4 0.0000 0.0000 0.0000 45.5604 0.0000 -8.7461
# 5 -42.9840 -29.9157 -59.0700 0.0000 55.6917 0.0000
# 6 0.0000 0.0000 0.0000 -8.7461 0.0000 33.0994
#
#
#
# Elastic Compliance Matrix: (Units=1/GPa)
#
#
# Indices 1 2 3 4 5 6 
#
# 1 0.009352 -0.002892 -0.001841 0.000000 0.003712 0.000000
# 2 -0.002892 0.012462 -0.001992 0.000000 0.002349 0.000000
# 3 -0.001841 -0.001992 0.020370 0.000000 0.019115 0.000000
# 4 0.000000 0.000000 0.000000 0.023122 0.000000 0.006110
# 5 0.003712 0.002349 0.019115 0.000000 0.042357 0.000000
# 6 0.000000 0.000000 0.000000 0.006110 0.000000 0.031826
#
#
# Mechanical properties :
#
#
# Convention : Reuss Voigt Hill
#
# Bulk Modulus (GPa) = 34.80242 75.72658 55.26450
# Shear Modulus (GPa) = 30.76573 41.26475 36.01524
#
# Velocity S-wave (km/s) = 3.55501 4.11715 3.84637
# Velocity P-wave (km/s) = 5.58096 7.32862 6.51367
#
# Compressibility (1/GPa) = 0.02873364
#
# Stress axis : x y z
#
# Youngs Moduli (GPa) = 106.92741 80.24298 49.09118
#
# Poissons Ratio (x) = 0.23208 0.09038
# Poissons Ratio (y) = 0.30926 0.09780
# Poissons Ratio (z) = 0.19685 0.15986
#
# Static dielectric constant tensor:
#      x y z
#    x 2.031490 0.000000 0.205390 
#    y 0.000000 2.009250 0.000000 
#    z 0.205390 0.000000 2.219020 
# 
# From -- ./inp_files/195050.got.cif
#   From: 2010.05.17/outbox.cif.g08.bks.cpg/sg15_98_cif.got.tgz:195050.got - 2010.06.03 18:47:42.
