data_PCOD9298617
_publ_section_title
;
Structure prediction by ZEFSAII (Michael W. Deem and Ramdas Pophale) SiO2 
 PCOD9298617
Probable space group: C 2/C
;
_chemical_formula_sum "Si O2"
_cell_formula_units_Z 36
_cell_length_a 9.701883
_cell_length_b 20.099069
_cell_length_c 12.178445
_cell_angle_alpha 90.000000
_cell_angle_beta 140.539452
_cell_angle_gamma 90.000000
_cell_volume 1509.285217
_symmetry_space_group_name_H-M "C 2/C"
_symmetry_group_IT_number 15
_symmetry_cell_setting 'monoclinic'
loop_
_space_group_symop_operation_xyz
x,y,z
-x,y,1/2-z
-x,-y,-z
x,-y,1/2+z
1/2+x,1/2+y,z
1/2-x,1/2+y,1/2-z
1/2-x,1/2-y,-z
1/2+x,1/2-y,1/2+z
loop_
_atom_site_type_symbol
_atom_site_label
_atom_site_fract_x
_atom_site_fract_y
_atom_site_fract_z
Si Si1 0.992410 0.672791 0.471672
Si Si2 0.216947 0.653693 0.930835
Si Si3 0.777618 0.927945 0.068269
Si Si4 0.345496 0.682597 0.423045
Si Si5 0.000000 0.522895 0.750000
O O1 0.817974 0.666361 0.462093
O O2 0.860958 0.666806 0.278439
O O3 0.155248 0.611631 0.589087
O O4 0.139449 0.738382 0.547387
O O5 0.192421 0.577843 0.871503
O O6 0.000000 0.688876 0.750000
O O7 0.438719 0.676518 0.017299
O O8 0.000000 0.960035 0.250000
O O9 0.844515 0.870268 0.021549
O O10 0.594397 0.974967 0.902396
#
# Coordination Sequence:
#
# PCOD9298617 Si02
#       5
#     8   8   8   8   4
#     4  12  24  44  72 105 139 177 228 289 352 410
#     4  10  24  45  66 100 137 180 233 274 342 408
#     4  12  25  47  71 104 139 185 228 286 344 409
#     4  12  24  44  72 105 139 177 228 289 352 410
#     4  10  26  50  66 100 144 182 240 276 338 410
#
# _framework density 23.852350999999999
#
# number of rings (size 3 to 8) (size 9 to 14) (size 15 to 20)
#    0.667    0.000    2.222    6.000    0.000    3.556 
#    0.000    0.000    0.000    0.000    0.000    0.000 
#    0.000    0.000    0.000    0.000    0.000    0.000 
#
# Total GULP energy -100392.183371 kJ/mol
# GULP energy per Si atom -5577.343521 kJ/mol
# Density = 2.379806 g / cm^3
# Si number density = 23.852351 Si / 1000 Ang^3
#
#
#
# Elastic Constant Matrix: (Units=GPa)
#
#
# Indices 1 2 3 4 5 6 
#
# 1 95.8690 9.5039 -6.8320 -0.0001 -3.2884 -0.0001
# 2 9.5039 98.3587 25.9705 0.0000 -2.2205 0.0000
# 3 -6.8320 25.9705 88.6744 -0.0002 -4.1177 -0.0003
# 4 -0.0001 0.0000 -0.0002 152.6566 -0.0001 173.2576
# 5 -3.2884 -2.2205 -4.1177 -0.0001 36.0521 -0.0002
# 6 -0.0001 0.0000 -0.0003 173.2576 -0.0002 259.0255
#
#
#
# Elastic Compliance Matrix: (Units=1/GPa)
#
#
# Indices 1 2 3 4 5 6 
#
# 1 0.010690 -0.001344 0.001265 0.000000 0.001037 0.000000
# 2 -0.001344 0.011191 -0.003373 0.000000 0.000182 0.000000
# 3 0.001265 -0.003373 0.012424 0.000000 0.001327 0.000000
# 4 0.000000 0.000000 0.000000 0.027198 0.000000 -0.018192
# 5 0.001037 0.000182 0.001327 0.000000 0.027995 0.000000
# 6 0.000000 0.000000 0.000000 -0.018192 0.000000 0.016029
#
#
# Mechanical properties :
#
#
# Convention : Reuss Voigt Hill
#
# Bulk Modulus (GPa) = 36.49219 37.79853 37.14536
# Shear Modulus (GPa) = 41.13079 106.49749 73.81414
#
# Velocity S-wave (km/s) = 4.15708 6.68921 5.56897
# Velocity P-wave (km/s) = 6.19469 8.69149 7.54706
#
# Compressibility (1/GPa) = 0.02740312
#
# Stress axis : x y z
#
# Youngs Moduli (GPa) = 93.54692 89.35493 80.48877
#
# Poissons Ratio (x) = 0.12005 -0.10184
# Poissons Ratio (y) = 0.12569 0.27147
# Poissons Ratio (z) = -0.11836 0.30137
#
# Static dielectric constant tensor:
#      x y z
#    x 1.974600 0.000000 -0.012510 
#    y 0.000000 1.976650 0.000000 
#    z -0.012510 0.000000 1.923930 
# 
# From -- ./inp_files/147959.got.cif
#   From: 2010.05.17/outbox.cif.g08.bks.cpg/sg15_74_cif.got.tgz:147959.got - 2010.06.03 18:47:42.
