data_PCOD9298123
_publ_section_title
;
Structure prediction by ZEFSAII (Michael W. Deem and Ramdas Pophale) SiO2 
 PCOD9298123
Probable space group: C 2/C
;
_chemical_formula_sum "Si O2"
_cell_formula_units_Z 52
_cell_length_a 24.854819
_cell_length_b 5.096736
_cell_length_c 19.444167
_cell_angle_alpha 90.000000
_cell_angle_beta 51.400849
_cell_angle_gamma 90.000000
_cell_volume 1925.030355
_symmetry_space_group_name_H-M "C 2/C"
_symmetry_group_IT_number 15
_symmetry_cell_setting 'monoclinic'
loop_
_space_group_symop_operation_xyz
x,y,z
-x,y,1/2-z
-x,-y,-z
x,-y,1/2+z
1/2+x,1/2+y,z
1/2-x,1/2+y,1/2-z
1/2-x,1/2-y,-z
1/2+x,1/2-y,1/2+z
loop_
_atom_site_type_symbol
_atom_site_label
_atom_site_fract_x
_atom_site_fract_y
_atom_site_fract_z
Si Si1 0.693891 0.957139 0.573463
Si Si2 0.250476 0.509025 0.794469
Si Si3 0.581999 0.706829 0.589784
Si Si4 0.533190 0.082775 0.401474
Si Si5 0.000000 0.157937 0.250000
Si Si6 0.309701 0.661093 0.553103
Si Si7 0.600876 0.608601 0.286751
O O1 0.750000 0.750000 0.500000
O O2 0.622680 0.808586 0.624025
O O3 0.684559 0.185236 0.524044
O O4 0.731870 0.049019 0.611195
O O5 0.237748 0.798126 0.776120
O O6 0.189954 0.375982 0.887746
O O7 0.321659 0.499592 0.780624
O O8 0.533159 0.927934 0.597176
O O9 0.533026 0.491998 0.660028
O O10 0.633761 0.567345 0.495089
O O11 0.563143 0.372747 0.360806
O O12 0.500000 0.000000 0.500000
O O13 0.591231 0.870194 0.339280
O O14 0.070345 0.220611 0.237966
#
# Coordination Sequence:
#
# PCOD9298123 Si02
#       7
#     8   8   8   8   4   8   8
#     4   9  21  39  70 104 137 184 239 308 362 440
#     4  12  30  49  75 107 153 203 245 308 369 446
#     4  10  24  43  72 104 144 191 238 309 372 449
#     4  11  26  48  76 104 146 199 250 307 368 447
#     4  10  26  48  72 110 142 186 244 306 384 426
#     4  10  24  43  69 108 142 191 245 300 372 437
#     4  11  27  49  74 113 146 195 251 317 372 448
#
# _framework density 27.012560000000001
#
# number of rings (size 3 to 8) (size 9 to 14) (size 15 to 20)
#    0.000    1.538    0.000    1.385   17.231    6.154 
#    0.000    0.000    0.000    0.000    0.000    0.000 
#    0.000    0.000    0.000    0.000    0.000    0.000 
#
# Total GULP energy -145181.870798 kJ/mol
# GULP energy per Si atom -5583.918108 kJ/mol
# Density = 2.695108 g / cm^3
# Si number density = 27.012560 Si / 1000 Ang^3
#
#
#
# Elastic Constant Matrix: (Units=GPa)
#
#
# Indices 1 2 3 4 5 6 
#
# 1 82.2888 15.3748 -1.4973 -0.6280 -3.6921 -0.5020
# 2 15.3748 127.3637 22.6807 0.9257 6.7901 1.1577
# 3 -1.4973 22.6807 70.3438 0.2111 7.5535 0.3295
# 4 -0.6280 0.9257 0.2111 90.9426 0.0462 42.9229
# 5 -3.6921 6.7901 7.5535 0.0462 37.1964 -0.0126
# 6 -0.5020 1.1577 0.3295 42.9229 -0.0126 75.5159
#
#
#
# Elastic Compliance Matrix: (Units=1/GPa)
#
#
# Indices 1 2 3 4 5 6 
#
# 1 0.012549 -0.001710 0.000665 0.000070 0.001423 0.000067
# 2 -0.001710 0.008600 -0.002680 -0.000041 -0.001195 -0.000108
# 3 0.000665 -0.002680 0.015370 0.000011 -0.002566 -0.000028
# 4 0.000070 -0.000041 0.000011 0.015028 -0.000009 -0.008541
# 5 0.001423 -0.001195 -0.002566 -0.000009 0.027765 0.000049
# 6 0.000067 -0.000108 -0.000028 -0.008541 0.000049 0.018099
#
#
# Mechanical properties :
#
#
# Convention : Reuss Voigt Hill
#
# Bulk Modulus (GPa) = 34.40187 39.23474 36.81831
# Shear Modulus (GPa) = 43.64878 56.96020 50.30449
#
# Velocity S-wave (km/s) = 4.02415 4.59699 4.32008
# Velocity P-wave (km/s) = 5.86130 6.53702 6.20836
#
# Compressibility (1/GPa) = 0.02906819
#
# Stress axis : x y z
#
# Youngs Moduli (GPa) = 79.68922 116.27484 65.06227
#
# Poissons Ratio (x) = 0.19886 -0.04328
# Poissons Ratio (y) = 0.13629 0.17439
# Poissons Ratio (z) = -0.05301 0.31166
#
# Static dielectric constant tensor:
#      x y z
#    x 2.386010 -0.000570 -0.064040 
#    y -0.000570 2.159760 -0.000110 
#    z -0.064040 -0.000110 2.148350 
# 
# From -- ./inp_files/256718.got.cif
#   From: 2010.05.17/outbox.cif.g08.bks.cpg/sg15_129_cif.got.tgz:256718.got - 2010.06.03 18:47:42.
