data_PCOD9298314
_publ_section_title
;
Structure prediction by ZEFSAII (Michael W. Deem and Ramdas Pophale) SiO2 
 PCOD9298314
Probable space group: C 2/C
;
_chemical_formula_sum "Si O2"
_cell_formula_units_Z 48
_cell_length_a 9.445861
_cell_length_b 11.681235
_cell_length_c 17.956539
_cell_angle_alpha 90.000000
_cell_angle_beta 91.479395
_cell_angle_gamma 90.000000
_cell_volume 1980.651918
_symmetry_space_group_name_H-M "C 2/C"
_symmetry_group_IT_number 15
_symmetry_cell_setting 'monoclinic'
loop_
_space_group_symop_operation_xyz
x,y,z
-x,y,1/2-z
-x,-y,-z
x,-y,1/2+z
1/2+x,1/2+y,z
1/2-x,1/2+y,1/2-z
1/2-x,1/2-y,-z
1/2+x,1/2-y,1/2+z
loop_
_atom_site_type_symbol
_atom_site_label
_atom_site_fract_x
_atom_site_fract_y
_atom_site_fract_z
Si Si1 0.193339 0.798568 0.242316
Si Si2 0.652468 0.638772 0.914162
Si Si3 0.420886 0.511791 0.358392
Si Si4 0.500000 0.907022 0.750000
Si Si5 0.381632 0.013052 0.602800
Si Si6 0.040438 0.665409 0.511646
Si Si7 0.000000 0.786798 0.750000
O O1 0.164863 0.809698 0.330543
O O2 0.127213 0.907403 0.198166
O O3 0.117236 0.680169 0.218574
O O4 0.359658 0.784835 0.231181
O O5 0.564120 0.523837 0.901200
O O6 0.812207 0.636591 0.944921
O O7 0.561869 0.714533 0.971009
O O8 0.282606 0.520213 0.407670
O O9 0.450139 0.627615 0.314813
O O10 0.428613 0.984224 0.686605
O O11 0.418064 0.136722 0.568979
O O12 0.472553 0.923786 0.555886
#
# Coordination Sequence:
#
# PCOD9298314 Si02
#       7
#     8   8   8   4   8   8   4
#     4  12  24  42  69 104 139 182 232 295 349 413
#     4  11  22  44  67  93 142 181 224 291 349 414
#     4  12  24  44  68 106 140 180 238 295 344 414
#     4  12  21  43  68  92 136 174 229 289 344 408
#     4  11  25  42  67 100 130 183 237 280 353 419
#     4  10  24  44  66  94 135 185 228 283 355 421
#     4  12  25  41  68 108 144 178 235 297 354 406
#
# _framework density 24.234445000000001
#
# number of rings (size 3 to 8) (size 9 to 14) (size 15 to 20)
#    0.000    0.667    6.667    0.000    7.000    1.333 
#    0.000    0.000    0.000    0.000    0.000    0.000 
#    0.000    0.000    0.000    0.000    0.000    0.000 
#
# Total GULP energy -134329.645198 kJ/mol
# GULP energy per Si atom -5597.068550 kJ/mol
# Density = 2.417929 g / cm^3
# Si number density = 24.234445 Si / 1000 Ang^3
#
#
#
# Elastic Constant Matrix: (Units=GPa)
#
#
# Indices 1 2 3 4 5 6 
#
# 1 82.6570 10.9867 -3.0399 0.0000 -20.5515 0.0000
# 2 10.9867 77.8701 20.2573 0.0000 1.7903 0.0000
# 3 -3.0399 20.2573 60.4779 0.0000 -0.9731 0.0000
# 4 0.0000 0.0000 0.0000 21.4475 0.0000 -4.1210
# 5 -20.5515 1.7903 -0.9731 0.0000 34.5503 0.0000
# 6 0.0000 0.0000 0.0000 -4.1210 0.0000 39.9563
#
#
#
# Elastic Compliance Matrix: (Units=1/GPa)
#
#
# Indices 1 2 3 4 5 6 
#
# 1 0.014763 -0.002760 0.001811 0.000000 0.008976 0.000000
# 2 -0.002760 0.014610 -0.005073 0.000000 -0.002542 0.000000
# 3 0.001811 -0.005073 0.018355 0.000000 0.001857 0.000000
# 4 0.000000 0.000000 0.000000 0.047568 0.000000 0.004906
# 5 0.008976 -0.002542 0.001857 0.000000 0.034466 0.000000
# 6 0.000000 0.000000 0.000000 0.004906 0.000000 0.025533
#
#
# Mechanical properties :
#
#
# Convention : Reuss Voigt Hill
#
# Bulk Modulus (GPa) = 28.02451 30.82370 29.42411
# Shear Modulus (GPa) = 27.89626 32.04420 29.97023
#
# Velocity S-wave (km/s) = 3.39647 3.64023 3.52046
# Velocity P-wave (km/s) = 5.19330 5.51498 5.35655
#
# Compressibility (1/GPa) = 0.03568304
#
# Stress axis : x y z
#
# Youngs Moduli (GPa) = 67.73501 68.44829 54.48061
#
# Poissons Ratio (x) = 0.18895 -0.09867
# Poissons Ratio (y) = 0.18698 0.27639
# Poissons Ratio (z) = -0.12268 0.34725
#
# Static dielectric constant tensor:
#      x y z
#    x 1.938040 0.000000 -0.050250 
#    y 0.000000 1.938710 0.000000 
#    z -0.050250 0.000000 1.981040 
# 
# From -- ./inp_files/189288.got.cif
#   From: 2010.05.17/outbox.cif.g08.bks.cpg/sg15_95_cif.got.tgz:189288.got - 2010.06.03 18:47:42.
