data_PCOD9298500
_publ_section_title
;
Structure prediction by ZEFSAII (Michael W. Deem and Ramdas Pophale) SiO2 
 PCOD9298500
Probable space group: C 2/C
;
_chemical_formula_sum "Si O2"
_cell_formula_units_Z 36
_cell_length_a 8.950341
_cell_length_b 21.110185
_cell_length_c 17.420760
_cell_angle_alpha 90.000000
_cell_angle_beta 151.833040
_cell_angle_gamma 90.000000
_cell_volume 1553.745197
_symmetry_space_group_name_H-M "C 2/C"
_symmetry_group_IT_number 15
_symmetry_cell_setting 'monoclinic'
loop_
_space_group_symop_operation_xyz
x,y,z
-x,y,1/2-z
-x,-y,-z
x,-y,1/2+z
1/2+x,1/2+y,z
1/2-x,1/2+y,1/2-z
1/2-x,1/2-y,-z
1/2+x,1/2-y,1/2+z
loop_
_atom_site_type_symbol
_atom_site_label
_atom_site_fract_x
_atom_site_fract_y
_atom_site_fract_z
Si Si1 0.257624 0.771449 0.232006
Si Si2 0.000000 0.853123 0.250000
Si Si3 0.697653 0.542138 0.163264
Si Si4 0.956028 0.178992 0.020494
Si Si5 0.347797 0.041421 0.998614
O O1 0.115869 0.808975 0.236671
O O2 0.586266 0.809413 0.367814
O O3 0.360056 0.705926 0.320746
O O4 0.031473 0.780264 0.054419
O O5 0.230211 0.899227 0.398760
O O6 0.551496 0.604923 0.056450
O O7 0.427890 0.494130 0.074977
O O8 0.000000 0.515813 0.250000
O O9 0.877685 0.562851 0.320789
O O10 0.500000 0.000000 0.000000
#
# Coordination Sequence:
#
# PCOD9298500 Si02
#       5
#     8   4   8   8   8
#     4  10  24  44  72 103 144 188 240 300 359 435
#     4  12  24  42  72 102 142 186 244 304 348 438
#     4  12  26  45  72 104 148 192 246 300 363 435
#     4  10  24  47  70 105 144 191 239 294 369 426
#     4  12  25  47  69 106 142 195 246 297 365 425
#
# _framework density 23.169820999999999
#
# number of rings (size 3 to 8) (size 9 to 14) (size 15 to 20)
#    0.000    0.889    2.222    3.333    4.667    0.889 
#    4.000    0.000    0.000    0.000    0.000    0.000 
#    0.000    0.000    0.000    0.000    0.000    0.000 
#
# Total GULP energy -100240.618252 kJ/mol
# GULP energy per Si atom -5568.923236 kJ/mol
# Density = 2.311709 g / cm^3
# Si number density = 23.169821 Si / 1000 Ang^3
#
#
#
# Elastic Constant Matrix: (Units=GPa)
#
#
# Indices 1 2 3 4 5 6 
#
# 1 160.5480 60.6274 27.5676 0.0052 -3.1075 0.0054
# 2 60.6274 118.4159 44.0197 0.0000 3.7613 0.0060
# 3 27.5676 44.0197 111.2594 0.0198 -42.1120 0.0201
# 4 0.0052 0.0000 0.0198 48.1229 0.0013 1.9476
# 5 -3.1075 3.7613 -42.1120 0.0013 51.6570 0.0025
# 6 0.0054 0.0060 0.0201 1.9476 0.0025 39.3895
#
#
#
# Elastic Compliance Matrix: (Units=1/GPa)
#
#
# Indices 1 2 3 4 5 6 
#
# 1 0.007752 -0.003951 -0.000104 -0.000001 0.000669 0.000000
# 2 -0.003951 0.013210 -0.006799 0.000003 -0.006743 0.000002
# 3 -0.000104 -0.006799 0.017195 -0.000007 0.014506 -0.000008
# 4 -0.000001 0.000003 -0.000007 0.020822 -0.000007 -0.001030
# 5 0.000669 -0.006743 0.014506 -0.000007 0.031716 -0.000008
# 6 0.000000 0.000002 -0.000008 -0.001030 -0.000008 0.025438
#
#
# Mechanical properties :
#
#
# Convention : Reuss Voigt Hill
#
# Bulk Modulus (GPa) = 60.80383 72.73919 66.77151
# Shear Modulus (GPa) = 34.88620 45.03445 39.96032
#
# Velocity S-wave (km/s) = 3.88451 4.41349 4.15742
# Velocity P-wave (km/s) = 6.81314 7.57852 7.20600
#
# Compressibility (1/GPa) = 0.01644633
#
# Stress axis : x y z
#
# Youngs Moduli (GPa) = 129.00548 75.70261 58.15766
#
# Poissons Ratio (x) = 0.29912 0.00605
# Poissons Ratio (y) = 0.50974 0.39544
# Poissons Ratio (z) = 0.01342 0.51473
#
# Static dielectric constant tensor:
#      x y z
#    x 2.036350 -0.000050 0.057090 
#    y -0.000050 1.825250 0.000010 
#    z 0.057090 0.000010 1.827350 
# 
# From -- ./inp_files/192434.got.cif
#   From: 2010.05.17/outbox.cif.g08.bks.cpg/sg15_97_cif.got.tgz:192434.got - 2010.06.03 18:47:42.
