data_PCOD9298776
_publ_section_title
;
Structure prediction by ZEFSAII (Michael W. Deem and Ramdas Pophale) SiO2 
 PCOD9298776
Probable space group: C 2/C
;
_chemical_formula_sum "Si O2"
_cell_formula_units_Z 48
_cell_length_a 13.802281
_cell_length_b 12.807293
_cell_length_c 17.463687
_cell_angle_alpha 90.000000
_cell_angle_beta 141.358227
_cell_angle_gamma 90.000000
_cell_volume 1927.708116
_symmetry_space_group_name_H-M "C 2/C"
_symmetry_group_IT_number 15
_symmetry_cell_setting 'monoclinic'
loop_
_space_group_symop_operation_xyz
x,y,z
-x,y,1/2-z
-x,-y,-z
x,-y,1/2+z
1/2+x,1/2+y,z
1/2-x,1/2+y,1/2-z
1/2-x,1/2-y,-z
1/2+x,1/2-y,1/2+z
loop_
_atom_site_type_symbol
_atom_site_label
_atom_site_fract_x
_atom_site_fract_y
_atom_site_fract_z
Si Si1 0.500000 0.111885 0.250000
Si Si2 0.595576 0.785938 0.447237
Si Si3 0.175553 0.450569 0.615248
Si Si4 0.000000 0.961699 0.250000
Si Si5 0.577361 0.718631 0.912672
Si Si6 0.159248 0.553149 0.767533
Si Si7 0.021129 0.123018 0.498691
O O1 0.510473 0.185193 0.182116
O O2 0.361296 0.029682 0.176062
O O3 0.750000 0.750000 0.500000
O O4 0.642440 0.839012 0.556999
O O5 0.491988 0.875014 0.342014
O O6 0.498117 0.679700 0.403348
O O7 0.331323 0.486517 0.664230
O O8 0.204871 0.484389 0.721088
O O9 0.000000 0.500000 0.500000
O O10 0.972783 0.885806 0.161107
O O11 0.567370 0.693635 0.994931
O O12 0.750000 0.750000 0.000000
O O13 0.296366 0.630365 0.871059
O O14 0.000000 0.000000 0.500000
#
# Coordination Sequence:
#
# PCOD9298776 Si02
#       7
#     4   8   8   4   8   8   8
#     4  11  24  44  75  98 142 197 240 312 371 444
#     4  11  27  44  74 103 145 194 244 301 374 446
#     4  10  24  45  74 103 148 191 246 302 371 440
#     4  11  24  44  75 112 144 201 246 310 377 448
#     4  11  26  42  71 107 147 184 253 301 376 437
#     4  11  24  47  70 105 145 190 247 303 376 437
#     4  12  27  46  70 107 146 192 245 306 371 449
#
# _framework density 24.900034999999999
#
# number of rings (size 3 to 8) (size 9 to 14) (size 15 to 20)
#    0.000    1.000    1.667    3.000   11.667    4.000 
#    0.000    0.000    0.000    0.000    0.000    0.000 
#    0.000    0.000    0.000    0.000    0.000    0.000 
#
# Total GULP energy -133880.778113 kJ/mol
# GULP energy per Si atom -5578.365755 kJ/mol
# Density = 2.484336 g / cm^3
# Si number density = 24.900035 Si / 1000 Ang^3
#
#
#
# Elastic Constant Matrix: (Units=GPa)
#
#
# Indices 1 2 3 4 5 6 
#
# 1 137.9176 73.2704 7.0655 0.0000 23.9760 0.0000
# 2 73.2704 168.2018 34.0212 0.0000 17.3672 0.0000
# 3 7.0655 34.0212 56.0541 0.0001 22.9969 0.0001
# 4 0.0000 0.0000 0.0001 25.1428 0.0001 15.7431
# 5 23.9760 17.3672 22.9969 0.0001 41.8536 0.0000
# 6 0.0000 0.0000 0.0001 15.7431 0.0000 50.9938
#
#
#
# Elastic Compliance Matrix: (Units=1/GPa)
#
#
# Indices 1 2 3 4 5 6 
#
# 1 0.010748 -0.004875 0.004261 0.000000 -0.006475 0.000000
# 2 -0.004875 0.009005 -0.005763 0.000000 0.002223 0.000000
# 3 0.004261 -0.005763 0.026880 0.000000 -0.014819 0.000000
# 4 0.000000 0.000000 0.000000 0.049304 0.000000 -0.015221
# 5 -0.006475 0.002223 -0.014819 0.000000 0.034822 0.000000
# 6 0.000000 0.000000 0.000000 -0.015221 0.000000 0.024309
#
#
# Mechanical properties :
#
#
# Convention : Reuss Voigt Hill
#
# Bulk Modulus (GPa) = 29.51704 65.65419 47.58562
# Shear Modulus (GPa) = 27.91484 40.11914 34.01699
#
# Velocity S-wave (km/s) = 3.35188 4.01834 3.70015
# Velocity P-wave (km/s) = 5.18267 6.92487 6.11612
#
# Compressibility (1/GPa) = 0.03387873
#
# Stress axis : x y z
#
# Youngs Moduli (GPa) = 93.03965 111.04886 37.20210
#
# Poissons Ratio (x) = 0.54138 -0.15851
# Poissons Ratio (y) = 0.45359 0.21439
# Poissons Ratio (z) = -0.39641 0.63995
#
# Static dielectric constant tensor:
#      x y z
#    x 2.287260 0.000000 -0.131820 
#    y 0.000000 1.540720 0.000000 
#    z -0.131820 0.000000 2.184720 
# 
# From -- ./inp_files/244004.got.cif
#   From: 2010.05.17/outbox.cif.g08.bks.cpg/sg15_123_cif.got.tgz:244004.got - 2010.06.03 18:47:42.
