data_PCOD9298485
_publ_section_title
;
Structure prediction by ZEFSAII (Michael W. Deem and Ramdas Pophale) SiO2 
 PCOD9298485
Probable space group: C 2/C
;
_chemical_formula_sum "Si O2"
_cell_formula_units_Z 60
_cell_length_a 19.651134
_cell_length_b 8.835115
_cell_length_c 15.064392
_cell_angle_alpha 90.000000
_cell_angle_beta 68.795631
_cell_angle_gamma 90.000000
_cell_volume 2438.402287
_symmetry_space_group_name_H-M "C 2/C"
_symmetry_group_IT_number 15
_symmetry_cell_setting 'monoclinic'
loop_
_space_group_symop_operation_xyz
x,y,z
-x,y,1/2-z
-x,-y,-z
x,-y,1/2+z
1/2+x,1/2+y,z
1/2-x,1/2+y,1/2-z
1/2-x,1/2-y,-z
1/2+x,1/2-y,1/2+z
loop_
_atom_site_type_symbol
_atom_site_label
_atom_site_fract_x
_atom_site_fract_y
_atom_site_fract_z
Si Si1 0.792025 0.469129 0.174774
Si Si2 0.480153 0.302374 0.376618
Si Si3 0.385788 0.751848 0.584387
Si Si4 0.746791 0.939148 0.121576
Si Si5 0.000000 0.514893 0.250000
Si Si6 0.885868 0.686857 0.895458
Si Si7 0.166658 0.792676 0.964276
Si Si8 0.854499 0.968357 0.354926
O O1 0.841106 0.619384 0.157396
O O2 0.792630 0.390097 0.269757
O O3 0.826503 0.371387 0.079843
O O4 0.705686 0.484626 0.193001
O O5 0.557968 0.342154 0.382479
O O6 0.420888 0.318773 0.484885
O O7 0.433247 0.383899 0.319784
O O8 0.494765 0.131538 0.335312
O O9 0.321885 0.647949 0.576181
O O10 0.420899 0.817188 0.477271
O O11 0.692164 0.899018 0.068620
O O12 0.775101 0.109514 0.119153
O O13 0.066476 0.403182 0.198687
O O14 0.873423 0.860893 0.874215
O O15 0.185566 0.858322 0.053560
#
# Coordination Sequence:
#
# PCOD9298485 Si02
#       8
#     8   8   8   8   4   8   8   8
#     4  12  24  41  76 109 143 191 243 307 362 435
#     4  10  27  47  71 108 144 196 237 300 374 439
#     4  12  24  47  74 102 150 188 244 296 366 447
#     4  12  25  43  72 112 143 184 249 301 358 431
#     4  12  28  48  74 104 144 178 252 304 368 438
#     4  12  26  48  73 104 144 194 241 308 365 436
#     4  10  24  44  71 105 150 187 242 291 370 436
#     4  10  24  48  69 105 141 196 238 294 376 436
#
# _framework density 24.606273999999999
#
# number of rings (size 3 to 8) (size 9 to 14) (size 15 to 20)
#    0.800    0.000    2.667    4.000    3.733    5.867 
#    0.000    0.000    0.000    0.000    0.000    0.000 
#    0.000    0.000    0.000    0.000    0.000    0.000 
#
# Total GULP energy -167156.611289 kJ/mol
# GULP energy per Si atom -5571.887043 kJ/mol
# Density = 2.455027 g / cm^3
# Si number density = 24.606274 Si / 1000 Ang^3
#
#
#
# Elastic Constant Matrix: (Units=GPa)
#
#
# Indices 1 2 3 4 5 6 
#
# 1 147.5063 10.5278 31.2524 0.0000 -0.1240 0.0000
# 2 10.5278 78.1114 16.2321 0.0000 -7.0157 0.0000
# 3 31.2524 16.2321 62.3063 0.0000 7.6438 0.0000
# 4 0.0000 0.0000 0.0000 24.8767 0.0000 0.9896
# 5 -0.1240 -7.0157 7.6438 0.0000 27.0463 0.0000
# 6 0.0000 0.0000 0.0000 0.9896 0.0000 11.7976
#
#
#
# Elastic Compliance Matrix: (Units=1/GPa)
#
#
# Indices 1 2 3 4 5 6 
#
# 1 0.007621 -0.000110 -0.003931 0.000000 0.001117 0.000000
# 2 -0.000110 0.014131 -0.004222 0.000000 0.004858 0.000000
# 3 -0.003931 -0.004222 0.019950 0.000000 -0.006751 0.000000
# 4 0.000000 0.000000 0.000000 0.040333 0.000000 -0.003383
# 5 0.001117 0.004858 -0.006751 0.000000 0.040147 0.000000
# 6 0.000000 0.000000 0.000000 -0.003383 0.000000 0.085047
#
#
# Mechanical properties :
#
#
# Convention : Reuss Voigt Hill
#
# Bulk Modulus (GPa) = 39.72174 44.88319 42.30246
# Shear Modulus (GPa) = 21.53809 28.07156 24.80482
#
# Velocity S-wave (km/s) = 2.96177 3.38128 3.17845
# Velocity P-wave (km/s) = 5.27959 5.79001 5.54068
#
# Compressibility (1/GPa) = 0.02517513
#
# Stress axis : x y z
#
# Youngs Moduli (GPa) = 131.21558 70.76736 50.12576
#
# Poissons Ratio (x) = 0.00778 0.19705
# Poissons Ratio (y) = 0.01442 0.21164
# Poissons Ratio (z) = 0.51582 0.29880
#
# Static dielectric constant tensor:
#      x y z
#    x 1.961950 0.000000 -0.022370 
#    y 0.000000 2.030420 0.000000 
#    z -0.022370 0.000000 2.050140 
# 
# From -- ./inp_files/213879.got.cif
#   From: 2010.05.17/outbox.cif.g08.bks.cpg/sg15_107_cif.got.tgz:213879.got - 2010.06.03 18:47:42.
