data_PCOD9298652
_publ_section_title
;
Structure prediction by ZEFSAII (Michael W. Deem and Ramdas Pophale) SiO2 
 PCOD9298652
Probable space group: C 2/C
;
_chemical_formula_sum "Si O2"
_cell_formula_units_Z 36
_cell_length_a 29.465826
_cell_length_b 4.905868
_cell_length_c 9.816998
_cell_angle_alpha 90.000000
_cell_angle_beta 64.061632
_cell_angle_gamma 90.000000
_cell_volume 1276.147598
_symmetry_space_group_name_H-M "C 2/C"
_symmetry_group_IT_number 15
_symmetry_cell_setting 'monoclinic'
loop_
_space_group_symop_operation_xyz
x,y,z
-x,y,1/2-z
-x,-y,-z
x,-y,1/2+z
1/2+x,1/2+y,z
1/2-x,1/2+y,1/2-z
1/2-x,1/2-y,-z
1/2+x,1/2-y,1/2+z
loop_
_atom_site_type_symbol
_atom_site_label
_atom_site_fract_x
_atom_site_fract_y
_atom_site_fract_z
Si Si1 0.249714 0.936517 0.841988
Si Si2 0.919136 0.673651 0.978910
Si Si3 0.167073 0.297730 0.093424
Si Si4 0.000000 0.500000 0.000000
Si Si5 0.428949 0.470365 0.710269
O O1 0.254150 0.128626 0.702573
O O2 0.298655 0.993928 0.868966
O O3 0.202434 0.064100 0.983680
O O4 0.930468 0.747075 0.124687
O O5 0.866047 0.578627 0.987572
O O6 0.963723 0.464281 0.909839
O O7 0.926759 0.939938 0.875847
O O8 0.126226 0.162033 0.249060
O O9 0.027589 0.772597 0.895100
#
# Coordination Sequence:
#
# PCOD9298652 Si02
#       5
#     8   8   8   4   8
#     4  11  24  47  74 108 155 194 257 318 389 466
#     4  10  24  45  68 102 144 192 246 312 380 450
#     4   9  24  43  68 108 136 199 250 306 403 442
#     4  12  24  40  66 104 140 192 244 300 380 450
#     4  10  24  45  68 102 144 192 246 312 380 450
#
# _framework density 28.209904000000002
#
# number of rings (size 3 to 8) (size 9 to 14) (size 15 to 20)
#    1.333    0.444    0.000    2.667    3.111    7.111 
#    8.000    0.000    0.000    0.000    0.000    0.000 
#    0.000    0.000    0.000    0.000    0.000    0.000 
#
# Total GULP energy -100263.892734 kJ/mol
# GULP energy per Si atom -5570.216263 kJ/mol
# Density = 2.814570 g / cm^3
# Si number density = 28.209904 Si / 1000 Ang^3
#
#
#
# Elastic Constant Matrix: (Units=GPa)
#
#
# Indices 1 2 3 4 5 6 
#
# 1 188.6500 22.4143 32.2032 0.0000 6.2116 0.0000
# 2 22.4143 80.6653 15.0905 0.0000 8.3542 0.0000
# 3 32.2032 15.0905 80.1059 0.0000 -5.5958 0.0000
# 4 0.0000 0.0000 0.0000 21.5295 0.0000 22.0175
# 5 6.2116 8.3542 -5.5958 0.0000 56.3717 0.0000
# 6 0.0000 0.0000 0.0000 22.0175 0.0000 25.3185
#
#
#
# Elastic Compliance Matrix: (Units=1/GPa)
#
#
# Indices 1 2 3 4 5 6 
#
# 1 0.005831 -0.001141 -0.002177 0.000000 -0.000689 0.000000
# 2 -0.001141 0.013340 -0.002199 0.000000 -0.002069 0.000000
# 3 -0.002177 -0.002199 0.013909 0.000000 0.001946 0.000000
# 4 0.000000 0.000000 0.000000 0.419695 0.000000 -0.364974
# 5 -0.000689 -0.002069 0.001946 0.000000 0.018315 0.000000
# 6 0.000000 0.000000 0.000000 -0.364974 0.000000 0.356885
#
#
# Mechanical properties :
#
#
# Convention : Reuss Voigt Hill
#
# Bulk Modulus (GPa) = 45.36212 54.31523 49.83868
# Shear Modulus (GPa) = 5.90767 39.29149 22.59958
#
# Velocity S-wave (km/s) = 1.44870 3.73611 2.83348
# Velocity P-wave (km/s) = 4.34896 6.15687 5.33013
#
# Compressibility (1/GPa) = 0.02204483
#
# Stress axis : x y z
#
# Youngs Moduli (GPa) = 171.50322 74.96406 71.89671
#
# Poissons Ratio (x) = 0.08557 0.15653
# Poissons Ratio (y) = 0.19577 0.15807
# Poissons Ratio (z) = 0.37339 0.16482
#
# Static dielectric constant tensor:
#      x y z
#    x 1.865500 0.000000 0.300510 
#    y 0.000000 1.822550 0.000000 
#    z 0.300510 0.000000 2.067870 
# 
# From -- ./inp_files/124702.got.cif
#   From: 2010.05.17/outbox.cif.g08.bks.cpg/sg15_63_cif.got.tgz:124702.got - 2010.06.03 18:47:42.
