data_PCOD9298337
_publ_section_title
;
Structure prediction by ZEFSAII (Michael W. Deem and Ramdas Pophale) SiO2 
 PCOD9298337
Probable space group: C 2/C
;
_chemical_formula_sum "Si O2"
_cell_formula_units_Z 56
_cell_length_a 13.987351
_cell_length_b 20.693620
_cell_length_c 9.148802
_cell_angle_alpha 90.000000
_cell_angle_beta 82.672919
_cell_angle_gamma 90.000000
_cell_volume 2626.487170
_symmetry_space_group_name_H-M "C 2/C"
_symmetry_group_IT_number 15
_symmetry_cell_setting 'monoclinic'
loop_
_space_group_symop_operation_xyz
x,y,z
-x,y,1/2-z
-x,-y,-z
x,-y,1/2+z
1/2+x,1/2+y,z
1/2-x,1/2+y,1/2-z
1/2-x,1/2-y,-z
1/2+x,1/2-y,1/2+z
loop_
_atom_site_type_symbol
_atom_site_label
_atom_site_fract_x
_atom_site_fract_y
_atom_site_fract_z
Si Si1 0.504900 0.930142 0.425564
Si Si2 0.352221 0.637220 0.976016
Si Si3 0.144889 0.862703 0.673165
Si Si4 0.635305 0.165195 0.360105
Si Si5 0.011139 0.221440 0.992908
Si Si6 0.143242 0.330644 0.506286
Si Si7 0.424180 0.494049 0.386378
O O1 0.500000 0.932745 0.250000
O O2 0.426949 0.885182 0.528975
O O3 0.605809 0.895861 0.440616
O O4 0.500000 0.000000 0.500000
O O5 0.451785 0.669918 0.909615
O O6 0.349043 0.563191 0.927511
O O7 0.360979 0.638933 0.150362
O O8 0.256399 0.675864 0.952051
O O9 0.253795 0.842112 0.615857
O O10 0.068231 0.816164 0.608963
O O11 0.123441 0.936620 0.632862
O O12 0.590941 0.235247 0.399446
O O13 0.628757 0.158887 0.184428
O O14 0.924801 0.273453 0.042407
O O15 0.500000 0.474629 0.250000
O O16 0.500000 0.500000 0.500000
#
# Coordination Sequence:
#
# PCOD9298337 Si02
#       7
#     8   8   8   8   8   8   8
#     4  11  23  43  66  94 132 176 220 275 331 392
#     4  11  24  43  69  97 136 177 219 277 333 392
#     4  11  23  43  69  97 135 178 219 276 332 395
#     4  10  24  44  67  98 132 173 225 275 330 393
#     4  11  20  40  66  95 134 175 216 266 330 390
#     4  10  24  45  67  97 133 173 223 277 332 390
#     4  12  23  44  68  99 133 175 221 272 334 396
#
# _framework density 21.321254
#
# number of rings (size 3 to 8) (size 9 to 14) (size 15 to 20)
#    0.000    1.143    2.857    3.857    2.000    5.714 
#    2.571    0.000    0.000    0.000    0.000    0.000 
#    0.000    0.000    0.000    0.000    0.000    0.000 
#
# Total GULP energy -156295.566294 kJ/mol
# GULP energy per Si atom -5581.984510 kJ/mol
# Density = 2.127273 g / cm^3
# Si number density = 21.321254 Si / 1000 Ang^3
#
#
#
# Elastic Constant Matrix: (Units=GPa)
#
#
# Indices 1 2 3 4 5 6 
#
# 1 166.8727 63.6820 38.4165 0.0000 6.7831 0.0000
# 2 63.6820 145.3796 47.3846 0.0000 14.2898 0.0000
# 3 38.4165 47.3846 96.4948 0.0000 -7.0770 0.0000
# 4 0.0000 0.0000 0.0000 25.2832 0.0000 -1.9088
# 5 6.7831 14.2898 -7.0770 0.0000 24.3969 0.0000
# 6 0.0000 0.0000 0.0000 -1.9088 0.0000 27.2454
#
#
#
# Elastic Compliance Matrix: (Units=1/GPa)
#
#
# Indices 1 2 3 4 5 6 
#
# 1 0.007425 -0.002569 -0.001773 0.000000 -0.001074 0.000000
# 2 -0.002569 0.010072 -0.004397 0.000000 -0.006461 0.000000
# 3 -0.001773 -0.004397 0.013746 0.000000 0.007056 0.000000
# 4 0.000000 0.000000 0.000000 0.039762 0.000000 0.002786
# 5 -0.001074 -0.006461 0.007056 0.000000 0.047118 0.000000
# 6 0.000000 0.000000 0.000000 0.002786 0.000000 0.036899
#
#
# Mechanical properties :
#
#
# Convention : Reuss Voigt Hill
#
# Bulk Modulus (GPa) = 72.65130 78.63481 75.64306
# Shear Modulus (GPa) = 28.23446 32.66936 30.45191
#
# Velocity S-wave (km/s) = 3.64296 3.91864 3.78331
# Velocity P-wave (km/s) = 7.20024 7.57861 7.39184
#
# Compressibility (1/GPa) = 0.01376438
#
# Stress axis : x y z
#
# Youngs Moduli (GPa) = 134.68386 99.28515 72.74867
#
# Poissons Ratio (x) = 0.25504 0.12901
# Poissons Ratio (y) = 0.34597 0.31988
# Poissons Ratio (z) = 0.23884 0.43657
#
# Static dielectric constant tensor:
#      x y z
#    x 1.777350 0.000000 -0.039350 
#    y 0.000000 1.798700 0.000000 
#    z -0.039350 0.000000 1.777680 
# 
# From -- ./inp_files/41260.got.cif
#   From: 2010.05.17/outbox.cif.g08.bks.cpg/sg15_21_cif.got.tgz:41260.got - 2010.06.03 18:47:42.
