data_PCOD9298468
_publ_section_title
;
Structure prediction by ZEFSAII (Michael W. Deem and Ramdas Pophale) SiO2 
 PCOD9298468
Probable space group: C 2/C
;
_chemical_formula_sum "Si O2"
_cell_formula_units_Z 36
_cell_length_a 12.562145
_cell_length_b 10.598460
_cell_length_c 20.186147
_cell_angle_alpha 90.000000
_cell_angle_beta 148.380202
_cell_angle_gamma 90.000000
_cell_volume 1409.040379
_symmetry_space_group_name_H-M "C 2/C"
_symmetry_group_IT_number 15
_symmetry_cell_setting 'monoclinic'
loop_
_space_group_symop_operation_xyz
x,y,z
-x,y,1/2-z
-x,-y,-z
x,-y,1/2+z
1/2+x,1/2+y,z
1/2-x,1/2+y,1/2-z
1/2-x,1/2-y,-z
1/2+x,1/2-y,1/2+z
loop_
_atom_site_type_symbol
_atom_site_label
_atom_site_fract_x
_atom_site_fract_y
_atom_site_fract_z
Si Si1 0.055648 0.932741 0.134604
Si Si2 0.398312 0.954969 0.633724
Si Si3 0.749644 0.292016 0.715943
Si Si4 0.357596 0.842038 0.002301
Si Si5 0.000000 0.978354 0.750000
O O1 0.191159 0.808883 0.195217
O O2 0.156862 0.068957 0.177960
O O3 0.017115 0.938980 0.193353
O O4 0.840031 0.929600 0.983372
O O5 0.500000 0.024994 0.750000
O O6 0.415190 0.035730 0.576158
O O7 0.532710 0.830319 0.697695
O O8 0.561580 0.219535 0.582078
O O9 0.250000 0.750000 0.000000
O O10 0.194844 0.889039 0.863343
#
# Coordination Sequence:
#
# PCOD9298468 Si02
#       5
#     8   8   8   8   4
#     4  11  26  47  69 102 139 179 229 285 339 412
#     4  11  26  46  67 101 143 178 228 288 341 405
#     4  12  24  46  71 103 136 184 231 278 349 403
#     4  11  23  45  71 102 136 180 229 282 337 411
#     4  10  24  44  70  98 140 178 222 288 336 402
#
# _framework density 25.549303999999999
#
# number of rings (size 3 to 8) (size 9 to 14) (size 15 to 20)
#    0.000    0.889    6.667    0.667    3.111    3.556 
#    0.000    0.000    0.000    0.000    0.000    0.000 
#    0.000    0.000    0.000    0.000    0.000    0.000 
#
# Total GULP energy -100594.542956 kJ/mol
# GULP energy per Si atom -5588.585720 kJ/mol
# Density = 2.549115 g / cm^3
# Si number density = 25.549304 Si / 1000 Ang^3
#
#
#
# Elastic Constant Matrix: (Units=GPa)
#
#
# Indices 1 2 3 4 5 6 
#
# 1 29.3116 45.0177 37.5452 -0.0001 -9.9190 0.0000
# 2 45.0177 163.3602 85.6627 0.0003 26.7967 0.0001
# 3 37.5452 85.6627 241.3303 0.0008 21.3475 0.0001
# 4 -0.0001 0.0003 0.0008 23.9645 0.0001 10.3848
# 5 -9.9190 26.7967 21.3475 0.0001 41.8796 0.0000
# 6 0.0000 0.0001 0.0001 10.3848 0.0000 35.4292
#
#
#
# Elastic Compliance Matrix: (Units=1/GPa)
#
#
# Indices 1 2 3 4 5 6 
#
# 1 0.135460 -0.041666 -0.012023 0.000001 0.064871 0.000000
# 2 -0.041666 0.020899 0.001173 0.000000 -0.023838 0.000000
# 3 -0.012023 0.001173 0.006196 0.000000 -0.006756 0.000000
# 4 0.000001 0.000000 0.000000 0.047800 0.000001 -0.014011
# 5 0.064871 -0.023838 -0.006756 0.000001 0.057939 0.000000
# 6 0.000000 0.000000 0.000000 -0.014011 0.000000 0.032332
#
#
# Mechanical properties :
#
#
# Convention : Reuss Voigt Hill
#
# Bulk Modulus (GPa) = 17.38456 85.60592 51.49524
# Shear Modulus (GPa) = 11.76937 37.97311 24.87124
#
# Velocity S-wave (km/s) = 2.14861 3.85940 3.12342
# Velocity P-wave (km/s) = 3.60201 7.31019 5.76252
#
# Compressibility (1/GPa) = 0.05752229
#
# Stress axis : x y z
#
# Youngs Moduli (GPa) = 7.38224 47.84980 161.40507
#
# Poissons Ratio (x) = 1.99369 1.94059
# Poissons Ratio (y) = 0.30759 -0.18927
# Poissons Ratio (z) = 0.08876 -0.05611
#
# Static dielectric constant tensor:
#      x y z
#    x 2.145850 0.000000 0.027860 
#    y 0.000000 2.030380 0.000000 
#    z 0.027860 0.000000 2.006320 
# 
# From -- ./inp_files/94449.got.cif
#   From: 2010.05.17/outbox.cif.g08.bks.cpg/sg15_48_cif.got.tgz:94449.got - 2010.06.03 18:47:42.
