data_PCOD9298378
_publ_section_title
;
Structure prediction by ZEFSAII (Michael W. Deem and Ramdas Pophale) SiO2 
 PCOD9298378
Probable space group: C 2/C
;
_chemical_formula_sum "Si O2"
_cell_formula_units_Z 48
_cell_length_a 17.675430
_cell_length_b 5.090368
_cell_length_c 27.160950
_cell_angle_alpha 90.000000
_cell_angle_beta 129.575732
_cell_angle_gamma 90.000000
_cell_volume 1883.633220
_symmetry_space_group_name_H-M "C 2/C"
_symmetry_group_IT_number 15
_symmetry_cell_setting 'monoclinic'
loop_
_space_group_symop_operation_xyz
x,y,z
-x,y,1/2-z
-x,-y,-z
x,-y,1/2+z
1/2+x,1/2+y,z
1/2-x,1/2+y,1/2-z
1/2-x,1/2-y,-z
1/2+x,1/2-y,1/2+z
loop_
_atom_site_type_symbol
_atom_site_label
_atom_site_fract_x
_atom_site_fract_y
_atom_site_fract_z
Si Si1 0.175422 0.580050 0.040201
Si Si2 0.010491 0.076848 0.447107
Si Si3 0.804559 0.495800 0.252683
Si Si4 0.378128 0.399403 0.094961
Si Si5 0.805450 0.084875 0.383546
Si Si6 0.023313 0.589380 0.818014
O O1 0.265571 0.491880 0.043792
O O2 0.171653 0.350664 0.078437
O O3 0.201094 0.844212 0.081431
O O4 0.071993 0.653529 0.972599
O O5 0.075096 0.893095 0.439594
O O6 0.898191 0.061724 0.384807
O O7 0.000000 0.000000 0.500000
O O8 0.747703 0.218255 0.235748
O O9 0.787263 0.594431 0.189760
O O10 0.921332 0.463961 0.305121
O O11 0.399414 0.132785 0.132791
O O12 0.434186 0.629828 0.147918
O O13 0.000000 0.586536 0.750000
#
# Coordination Sequence:
#
# PCOD9298378 Si02
#       6
#     8   8   8   8   8   8
#     4  11  23  42  66  93 127 171 216 265 323 388
#     4  10  24  44  68  98 132 172 219 272 326 386
#     4  12  24  41  65  95 128 169 216 268 324 386
#     4  12  25  44  68  98 134 174 217 268 326 390
#     4  11  23  42  64  93 128 169 216 269 324 384
#     4  12  26  45  68  99 134 173 218 270 326 388
#
# _framework density 25.482669000000001
#
# number of rings (size 3 to 8) (size 9 to 14) (size 15 to 20)
#    0.000    0.667    0.000    8.500    0.000    6.667 
#    0.000    5.833    0.000    0.000    0.000    0.000 
#    0.000    0.000    0.000    0.000    0.000    0.000 
#
# Total GULP energy -134487.512749 kJ/mol
# GULP energy per Si atom -5603.646365 kJ/mol
# Density = 2.542467 g / cm^3
# Si number density = 25.482669 Si / 1000 Ang^3
#
#
#
# Elastic Constant Matrix: (Units=GPa)
#
#
# Indices 1 2 3 4 5 6 
#
# 1 166.2359 22.0842 14.4447 -0.0002 9.8672 -0.0002
# 2 22.0842 155.6609 24.0907 0.0009 -3.4422 -0.0013
# 3 14.4447 24.0907 73.1547 0.0005 -10.4062 -0.0001
# 4 -0.0002 0.0009 0.0005 43.6491 -0.0001 -5.5192
# 5 9.8672 -3.4422 -10.4062 -0.0001 50.9797 0.0006
# 6 -0.0002 -0.0013 -0.0001 -5.5192 0.0006 29.1767
#
#
#
# Elastic Compliance Matrix: (Units=1/GPa)
#
#
# Indices 1 2 3 4 5 6 
#
# 1 0.006310 -0.000740 -0.001218 0.000000 -0.001520 0.000000
# 2 -0.000740 0.006856 -0.002086 0.000000 0.000180 0.000000
# 3 -0.001218 -0.002086 0.015048 0.000000 0.003167 0.000000
# 4 0.000000 0.000000 0.000000 0.023471 0.000000 0.004440
# 5 -0.001520 0.000180 0.003167 0.000000 0.020568 0.000000
# 6 0.000000 0.000000 0.000000 0.004440 0.000000 0.035114
#
#
# Mechanical properties :
#
#
# Convention : Reuss Voigt Hill
#
# Bulk Modulus (GPa) = 49.69075 57.36563 53.52819
# Shear Modulus (GPa) = 40.92839 47.05657 43.99248
#
# Velocity S-wave (km/s) = 4.01200 4.30188 4.15947
# Velocity P-wave (km/s) = 6.40341 6.87280 6.64225
#
# Compressibility (1/GPa) = 0.02012447
#
# Stress axis : x y z
#
# Youngs Moduli (GPa) = 158.47906 145.85630 66.45576
#
# Poissons Ratio (x) = 0.10797 0.08097
# Poissons Ratio (y) = 0.11732 0.13862
# Poissons Ratio (z) = 0.19309 0.30425
#
# Static dielectric constant tensor:
#      x y z
#    x 2.100730 0.000000 0.044050 
#    y 0.000000 1.946470 0.000000 
#    z 0.044050 0.000000 2.038660 
# 
# From -- ./inp_files/297545.got.cif
#   From: 2010.05.17/outbox.cif.g08.bks.cpg/sg15_149_cif.got.tgz:297545.got - 2010.06.03 18:47:42.
