data_PCOD9298998
_publ_section_title
;
Structure prediction by ZEFSAII (Michael W. Deem and Ramdas Pophale) SiO2 
 PCOD9298998
Probable space group: C 2/C
;
_chemical_formula_sum "Si O2"
_cell_formula_units_Z 40
_cell_length_a 15.399463
_cell_length_b 13.151318
_cell_length_c 13.839143
_cell_angle_alpha 90.000000
_cell_angle_beta 142.828497
_cell_angle_gamma 90.000000
_cell_volume 1693.428399
_symmetry_space_group_name_H-M "C 2/C"
_symmetry_group_IT_number 15
_symmetry_cell_setting 'monoclinic'
loop_
_space_group_symop_operation_xyz
x,y,z
-x,y,1/2-z
-x,-y,-z
x,-y,1/2+z
1/2+x,1/2+y,z
1/2-x,1/2+y,1/2-z
1/2-x,1/2-y,-z
1/2+x,1/2-y,1/2+z
loop_
_atom_site_type_symbol
_atom_site_label
_atom_site_fract_x
_atom_site_fract_y
_atom_site_fract_z
Si Si1 0.044393 0.000273 0.684996
Si Si2 0.413699 0.861134 0.874175
Si Si3 0.235451 0.328589 0.185667
Si Si4 0.229139 0.349990 0.547916
Si Si5 0.727301 0.950758 0.352023
O O1 0.160609 0.078764 0.749347
O O2 0.000000 0.040784 0.750000
O O3 0.122686 0.891968 0.772763
O O4 0.894489 0.986263 0.497115
O O5 0.312534 0.777037 0.735408
O O6 0.380892 0.851702 0.960266
O O7 0.368470 0.969103 0.790891
O O8 0.579306 0.837607 0.001882
O O9 0.216622 0.345386 0.284058
O O10 0.250000 0.250000 0.500000
O O11 0.189086 0.433515 0.429901
#
# Coordination Sequence:
#
# PCOD9298998 Si02
#       5
#     8   8   8   8   8
#     4  10  24  46  73 103 143 193 236 292 355 423
#     4  12  27  45  72 109 143 188 238 294 355 428
#     4  12  25  45  73 100 147 188 235 292 360 418
#     4  11  24  44  74 112 142 182 239 290 356 422
#     4  11  24  45  72 103 148 186 231 294 353 423
#
# _framework density 23.620721
#
# number of rings (size 3 to 8) (size 9 to 14) (size 15 to 20)
#    0.000    0.800    4.000    2.400    2.800    2.400 
#    3.600    9.000    0.000    0.000    0.000    0.000 
#    0.000    0.000    0.000    0.000    0.000    0.000 
#
# Total GULP energy -111897.301139 kJ/mol
# GULP energy per Si atom -5594.865057 kJ/mol
# Density = 2.356696 g / cm^3
# Si number density = 23.620721 Si / 1000 Ang^3
#
#
#
# Elastic Constant Matrix: (Units=GPa)
#
#
# Indices 1 2 3 4 5 6 
#
# 1 82.5133 29.5401 45.3479 0.0000 12.0856 0.0000
# 2 29.5401 98.1774 22.1505 0.0000 1.5459 0.0000
# 3 45.3479 22.1505 93.5777 0.0000 24.7587 0.0000
# 4 0.0000 0.0000 0.0000 41.2235 0.0000 -6.8873
# 5 12.0856 1.5459 24.7587 0.0000 31.4551 0.0000
# 6 0.0000 0.0000 0.0000 -6.8873 0.0000 26.3432
#
#
#
# Elastic Compliance Matrix: (Units=1/GPa)
#
#
# Indices 1 2 3 4 5 6 
#
# 1 0.017638 -0.003601 -0.007514 0.000000 -0.000686 0.000000
# 2 -0.003601 0.011583 -0.001531 0.000000 0.002019 0.000000
# 3 -0.007514 -0.001531 0.017564 0.000000 -0.010863 0.000000
# 4 0.000000 0.000000 0.000000 0.025366 0.000000 0.006632
# 5 -0.000686 0.002019 -0.010863 0.000000 0.040506 0.000000
# 6 0.000000 0.000000 0.000000 0.006632 0.000000 0.039694
#
#
# Mechanical properties :
#
#
# Convention : Reuss Voigt Hill
#
# Bulk Modulus (GPa) = 46.52559 52.03838 49.28199
# Shear Modulus (GPa) = 27.05528 31.61968 29.33748
#
# Velocity S-wave (km/s) = 3.38805 3.66271 3.52806
# Velocity P-wave (km/s) = 5.91987 6.32186 6.12417
#
# Compressibility (1/GPa) = 0.02149355
#
# Stress axis : x y z
#
# Youngs Moduli (GPa) = 56.69469 86.33524 56.93518
#
# Poissons Ratio (x) = 0.31090 0.42779
# Poissons Ratio (y) = 0.20416 0.08716
# Poissons Ratio (z) = 0.42599 0.13217
#
# Static dielectric constant tensor:
#      x y z
#    x 1.953340 0.000000 -0.029220 
#    y 0.000000 1.908970 0.000000 
#    z -0.029220 0.000000 1.902470 
# 
# From -- ./inp_files/162659.got.cif
#   From: 2010.05.17/outbox.cif.g08.bks.cpg/sg15_82_cif.got.tgz:162659.got - 2010.06.03 18:47:42.
