data_PCOD9298254
_publ_section_title
;
Structure prediction by ZEFSAII (Michael W. Deem and Ramdas Pophale) SiO2 
 PCOD9298254
Probable space group: C 2/C
;
_chemical_formula_sum "Si O2"
_cell_formula_units_Z 44
_cell_length_a 28.999511
_cell_length_b 11.114581
_cell_length_c 8.285709
_cell_angle_alpha 90.000000
_cell_angle_beta 48.414619
_cell_angle_gamma 90.000000
_cell_volume 1997.543082
_symmetry_space_group_name_H-M "C 2/C"
_symmetry_group_IT_number 15
_symmetry_cell_setting 'monoclinic'
loop_
_space_group_symop_operation_xyz
x,y,z
-x,y,1/2-z
-x,-y,-z
x,-y,1/2+z
1/2+x,1/2+y,z
1/2-x,1/2+y,1/2-z
1/2-x,1/2-y,-z
1/2+x,1/2-y,1/2+z
loop_
_atom_site_type_symbol
_atom_site_label
_atom_site_fract_x
_atom_site_fract_y
_atom_site_fract_z
Si Si1 0.935074 0.841263 0.119040
Si Si2 0.000000 0.040593 0.750000
Si Si3 0.204239 0.853943 0.160253
Si Si4 0.737830 0.075236 0.664446
Si Si5 0.852411 0.571811 0.884662
Si Si6 0.060917 0.403823 0.037946
O O1 0.863126 0.828724 0.250138
O O2 0.953979 0.876731 0.254722
O O3 0.962266 0.713314 0.003253
O O4 0.960931 0.951041 0.952875
O O5 0.213440 0.860604 0.331902
O O6 0.250000 0.750000 0.000000
O O7 0.226257 0.976197 0.023065
O O8 0.692223 0.138503 0.640476
O O9 0.691696 0.009935 0.899133
O O10 0.897608 0.486956 0.673626
O O11 0.895837 0.637532 0.912656
O O12 0.000000 0.467549 0.250000
#
# Coordination Sequence:
#
# PCOD9298254 Si02
#       6
#     8   4   8   8   8   8
#     4  11  22  43  62  88 120 164 214 258 298 360
#     4  10  24  44  64  84 120 170 218 260 298 348
#     4  11  21  38  63  90 122 158 200 252 313 362
#     4   9  19  37  57  90 116 155 192 241 309 360
#     4   9  19  37  59  84 127 149 188 247 299 377
#     4  11  21  39  58  90 118 162 200 242 303 360
#
# _framework density 22.027059000000001
#
# number of rings (size 3 to 8) (size 9 to 14) (size 15 to 20)
#    0.000    1.818    0.909    4.909    0.000    0.000 
#   11.455   10.000    0.000    0.000    0.000    0.000 
#    0.000    0.000    0.000    0.000    0.000    0.000 
#
# Total GULP energy -122827.105092 kJ/mol
# GULP energy per Si atom -5583.050231 kJ/mol
# Density = 2.197692 g / cm^3
# Si number density = 22.027059 Si / 1000 Ang^3
#
#
#
# Elastic Constant Matrix: (Units=GPa)
#
#
# Indices 1 2 3 4 5 6 
#
# 1 149.6765 26.2742 22.2379 0.0000 10.9969 0.0000
# 2 26.2742 44.5078 -1.3203 0.0000 11.7782 0.0000
# 3 22.2379 -1.3203 69.2173 0.0000 -4.8283 0.0000
# 4 0.0000 0.0000 0.0000 33.2805 0.0000 4.4158
# 5 10.9969 11.7782 -4.8283 0.0000 43.9762 0.0000
# 6 0.0000 0.0000 0.0000 4.4158 0.0000 8.3597
#
#
#
# Elastic Compliance Matrix: (Units=1/GPa)
#
#
# Indices 1 2 3 4 5 6 
#
# 1 0.007952 -0.004488 -0.002716 0.000000 -0.001085 0.000000
# 2 -0.004488 0.026715 0.001542 0.000000 -0.005863 0.000000
# 3 -0.002716 0.001542 0.015486 0.000000 0.001966 0.000000
# 4 0.000000 0.000000 0.000000 0.032312 0.000000 -0.017068
# 5 -0.001085 -0.005863 0.001966 0.000000 0.024797 0.000000
# 6 0.000000 0.000000 0.000000 -0.017068 0.000000 0.128637
#
#
# Mechanical properties :
#
#
# Convention : Reuss Voigt Hill
#
# Bulk Modulus (GPa) = 25.75321 39.75391 32.75356
# Shear Modulus (GPa) = 19.21851 31.53728 25.37790
#
# Velocity S-wave (km/s) = 2.95701 3.78795 3.39798
# Velocity P-wave (km/s) = 4.83483 6.10069 5.50427
#
# Compressibility (1/GPa) = 0.03883011
#
# Stress axis : x y z
#
# Youngs Moduli (GPa) = 125.75278 37.43262 64.57257
#
# Poissons Ratio (x) = 0.16799 0.17538
# Poissons Ratio (y) = 0.56436 -0.09960
# Poissons Ratio (z) = 0.34156 -0.05774
#
# Static dielectric constant tensor:
#      x y z
#    x 1.831410 0.000000 -0.041270 
#    y 0.000000 1.763080 0.000000 
#    z -0.041270 0.000000 1.754070 
# 
# From -- ./inp_files/54472.got.cif
#   From: 2010.05.17/outbox.cif.g08.bks.cpg/sg15_28_cif.got.tgz:54472.got - 2010.06.03 18:47:42.
