data_PCOD9298757
_publ_section_title
;
Structure prediction by ZEFSAII (Michael W. Deem and Ramdas Pophale) SiO2 
 PCOD9298757
Probable space group: C 2/C
;
_chemical_formula_sum "Si O2"
_cell_formula_units_Z 44
_cell_length_a 17.436877
_cell_length_b 11.233144
_cell_length_c 8.763466
_cell_angle_alpha 90.000000
_cell_angle_beta 81.327957
_cell_angle_gamma 90.000000
_cell_volume 1696.884560
_symmetry_space_group_name_H-M "C 2/C"
_symmetry_group_IT_number 15
_symmetry_cell_setting 'monoclinic'
loop_
_space_group_symop_operation_xyz
x,y,z
-x,y,1/2-z
-x,-y,-z
x,-y,1/2+z
1/2+x,1/2+y,z
1/2-x,1/2+y,1/2-z
1/2-x,1/2-y,-z
1/2+x,1/2-y,1/2+z
loop_
_atom_site_type_symbol
_atom_site_label
_atom_site_fract_x
_atom_site_fract_y
_atom_site_fract_z
Si Si1 0.906192 0.059904 0.384793
Si Si2 0.192209 0.652685 0.937125
Si Si3 0.890568 0.414319 0.548778
Si Si4 0.000000 0.445856 0.250000
Si Si5 0.428186 0.654045 0.058205
Si Si6 0.795725 0.192080 0.623682
O O1 0.885029 0.102388 0.222906
O O2 0.844206 0.090007 0.530166
O O3 0.984111 0.126270 0.418025
O O4 0.918133 0.919404 0.404161
O O5 0.170974 0.516673 0.986311
O O6 0.108570 0.717621 0.952969
O O7 0.236661 0.644583 0.764251
O O8 0.250000 0.750000 0.000000
O O9 0.947858 0.474442 0.653546
O O10 0.852162 0.302529 0.646981
O O11 0.940244 0.378958 0.382568
O O12 0.750000 0.250000 0.500000
#
# Coordination Sequence:
#
# PCOD9298757 Si02
#       6
#     8   8   8   4   8   8
#     4  10  24  45  72  99 133 181 234 278 340 407
#     4  12  28  43  68 102 145 182 227 291 344 418
#     4  11  26  46  68 108 133 185 237 283 362 398
#     4  10  24  46  76  94 142 174 230 310 324 434
#     4  10  24  46  70 100 134 182 231 283 334 407
#     4  12  26  43  72  98 138 188 224 288 349 421
#
# _framework density 25.929872
#
# number of rings (size 3 to 8) (size 9 to 14) (size 15 to 20)
#    0.000    1.091    1.818    2.182   12.727    0.000 
#    0.000    0.000    0.000    0.000    0.000    0.000 
#    0.000    0.000    0.000    0.000    0.000    0.000 
#
# Total GULP energy -123053.525144 kJ/mol
# GULP energy per Si atom -5593.342052 kJ/mol
# Density = 2.587085 g / cm^3
# Si number density = 25.929872 Si / 1000 Ang^3
#
#
#
# Elastic Constant Matrix: (Units=GPa)
#
#
# Indices 1 2 3 4 5 6 
#
# 1 71.9550 32.6439 8.5335 0.0000 -20.3649 0.0000
# 2 32.6439 81.8372 27.3389 0.0000 -6.4192 0.0000
# 3 8.5335 27.3389 80.7149 0.0000 -24.3187 0.0000
# 4 0.0000 0.0000 0.0000 26.1090 0.0000 4.9944
# 5 -20.3649 -6.4192 -24.3187 0.0000 49.8205 0.0000
# 6 0.0000 0.0000 0.0000 4.9944 0.0000 23.3938
#
#
#
# Elastic Compliance Matrix: (Units=1/GPa)
#
#
# Indices 1 2 3 4 5 6 
#
# 1 0.019701 -0.008292 0.003318 0.000000 0.008604 0.000000
# 2 -0.008292 0.017283 -0.006246 0.000000 -0.004212 0.000000
# 3 0.003318 -0.006246 0.016790 0.000000 0.008747 0.000000
# 4 0.000000 0.000000 0.000000 0.039932 0.000000 -0.008525
# 5 0.008604 -0.004212 0.008747 0.000000 0.027316 0.000000
# 6 0.000000 0.000000 0.000000 -0.008525 0.000000 0.044566
#
#
# Mechanical properties :
#
#
# Convention : Reuss Voigt Hill
#
# Bulk Modulus (GPa) = 31.91461 41.28219 36.59840
# Shear Modulus (GPa) = 25.19229 30.93071 28.06150
#
# Velocity S-wave (km/s) = 3.12036 3.45753 3.29326
# Velocity P-wave (km/s) = 5.03160 5.64753 5.34844
#
# Compressibility (1/GPa) = 0.03133361
#
# Stress axis : x y z
#
# Youngs Moduli (GPa) = 50.75825 57.85918 59.56095
#
# Poissons Ratio (x) = 0.47978 -0.19763
# Poissons Ratio (y) = 0.42090 0.37203
# Poissons Ratio (z) = -0.16843 0.36140
#
# Static dielectric constant tensor:
#      x y z
#    x 4.749620 0.000000 -1.164500 
#    y 0.000000 2.181010 0.000000 
#    z -1.164500 0.000000 2.522850 
# 
# From -- ./inp_files/54359.got.cif
#   From: 2010.05.17/outbox.cif.g08.bks.cpg/sg15_28_cif.got.tgz:54359.got - 2010.06.03 18:47:42.
