data_PCOD9298554
_publ_section_title
;
Structure prediction by ZEFSAII (Michael W. Deem and Ramdas Pophale) SiO2 
 PCOD9298554
Probable space group: C 2/C
;
_chemical_formula_sum "Si O2"
_cell_formula_units_Z 44
_cell_length_a 5.223747
_cell_length_b 17.230402
_cell_length_c 20.488735
_cell_angle_alpha 90.000000
_cell_angle_beta 103.094219
_cell_angle_gamma 90.000000
_cell_volume 1796.185250
_symmetry_space_group_name_H-M "C 2/C"
_symmetry_group_IT_number 15
_symmetry_cell_setting 'monoclinic'
loop_
_space_group_symop_operation_xyz
x,y,z
-x,y,1/2-z
-x,-y,-z
x,-y,1/2+z
1/2+x,1/2+y,z
1/2-x,1/2+y,1/2-z
1/2-x,1/2-y,-z
1/2+x,1/2-y,1/2+z
loop_
_atom_site_type_symbol
_atom_site_label
_atom_site_fract_x
_atom_site_fract_y
_atom_site_fract_z
Si Si1 0.003480 0.559263 0.610031
Si Si2 0.328787 0.584863 0.373328
Si Si3 0.500000 0.608662 0.250000
Si Si4 0.291795 0.838669 0.978419
Si Si5 0.044513 0.706033 0.152515
Si Si6 0.436969 0.611699 0.822215
O O1 0.886121 0.471892 0.606257
O O2 0.911044 0.610036 0.543066
O O3 0.849559 0.592093 0.664816
O O4 0.316818 0.569229 0.628010
O O5 0.407894 0.554488 0.305462
O O6 0.549584 0.609247 0.437452
O O7 0.224986 0.667934 0.341304
O O8 0.273274 0.661223 0.204134
O O9 0.452473 0.820143 0.922466
O O10 0.250000 0.750000 0.000000
O O11 0.042617 0.796594 0.161155
O O12 0.500000 0.603655 0.750000
#
# Coordination Sequence:
#
# PCOD9298554 Si02
#       6
#     8   8   4   8   8   8
#     4  12  29  47  74 111 153 196 246 315 380 452
#     4  11  26  45  73 109 147 200 247 315 376 458
#     4  10  24  44  74 106 146 194 258 312 384 450
#     4  11  24  47  75 106 148 198 257 308 376 447
#     4  11  25  44  77 101 148 195 257 309 377 451
#     4  12  28  47  74 108 149 196 252 311 377 449
#
# _framework density 24.496357
#
# number of rings (size 3 to 8) (size 9 to 14) (size 15 to 20)
#    0.000    0.727    1.818    3.818   14.000    3.636 
#    0.000    0.000    0.000    0.000    0.000    0.000 
#    0.000    0.000    0.000    0.000    0.000    0.000 
#
# Total GULP energy -122895.211740 kJ/mol
# GULP energy per Si atom -5586.145988 kJ/mol
# Density = 2.444060 g / cm^3
# Si number density = 24.496357 Si / 1000 Ang^3
#
#
#
# Elastic Constant Matrix: (Units=GPa)
#
#
# Indices 1 2 3 4 5 6 
#
# 1 42.6534 -9.7296 20.2535 0.0000 9.7381 0.0000
# 2 -9.7296 122.3629 24.0970 0.0000 -3.1605 0.0000
# 3 20.2535 24.0970 116.8455 0.0000 -25.4806 0.0000
# 4 0.0000 0.0000 0.0000 34.3474 0.0000 -7.6112
# 5 9.7381 -3.1605 -25.4806 0.0000 21.4684 0.0000
# 6 0.0000 0.0000 0.0000 -7.6112 0.0000 28.4548
#
#
#
# Elastic Compliance Matrix: (Units=1/GPa)
#
#
# Indices 1 2 3 4 5 6 
#
# 1 0.040937 0.005512 -0.016332 0.000000 -0.037143 0.000000
# 2 0.005512 0.009281 -0.004205 0.000000 -0.006125 0.000000
# 3 -0.016332 -0.004205 0.018534 0.000000 0.028787 0.000000
# 4 0.000000 0.000000 0.000000 0.030949 0.000000 0.008278
# 5 -0.037143 -0.006125 0.028787 0.000000 0.096694 0.000000
# 6 0.000000 0.000000 0.000000 0.008278 0.000000 0.037358
#
#
# Mechanical properties :
#
#
# Convention : Reuss Voigt Hill
#
# Bulk Modulus (GPa) = 25.83878 39.01150 32.42514
# Shear Modulus (GPa) = 18.06985 33.33684 25.70334
#
# Velocity S-wave (km/s) = 2.71893 3.69303 3.24276
# Velocity P-wave (km/s) = 4.51970 5.84334 5.22361
#
# Compressibility (1/GPa) = 0.03870151
#
# Stress axis : x y z
#
# Youngs Moduli (GPa) = 24.42753 107.75153 53.95418
#
# Poissons Ratio (x) = -0.59394 0.88120
# Poissons Ratio (y) = -0.13465 0.22688
# Poissons Ratio (z) = 0.39896 0.45310
#
# Static dielectric constant tensor:
#      x y z
#    x 2.073220 0.000000 -0.147660 
#    y 0.000000 2.047500 0.000000 
#    z -0.147660 0.000000 2.154060 
# 
# From -- ./inp_files/227009.got.cif
#   From: 2010.05.17/outbox.cif.g08.bks.cpg/sg15_114_cif.got.tgz:227009.got - 2010.06.03 18:47:42.
