data_PCOD9298514
_publ_section_title
;
Structure prediction by ZEFSAII (Michael W. Deem and Ramdas Pophale) SiO2 
 PCOD9298514
Probable space group: C 2/C
;
_chemical_formula_sum "Si O2"
_cell_formula_units_Z 44
_cell_length_a 7.974841
_cell_length_b 27.937417
_cell_length_c 11.516545
_cell_angle_alpha 90.000000
_cell_angle_beta 131.214680
_cell_angle_gamma 90.000000
_cell_volume 1930.147273
_symmetry_space_group_name_H-M "C 2/C"
_symmetry_group_IT_number 15
_symmetry_cell_setting 'monoclinic'
loop_
_space_group_symop_operation_xyz
x,y,z
-x,y,1/2-z
-x,-y,-z
x,-y,1/2+z
1/2+x,1/2+y,z
1/2-x,1/2+y,1/2-z
1/2-x,1/2-y,-z
1/2+x,1/2-y,1/2+z
loop_
_atom_site_type_symbol
_atom_site_label
_atom_site_fract_x
_atom_site_fract_y
_atom_site_fract_z
Si Si1 0.052377 0.713007 0.926516
Si Si2 0.630290 0.016118 0.180130
Si Si3 0.500000 0.872864 0.250000
Si Si4 0.748682 0.887711 0.815890
Si Si5 0.083421 0.927075 0.161934
Si Si6 0.674552 0.785623 0.729593
O O1 0.104517 0.663402 0.889805
O O2 0.831330 0.739862 0.783087
O O3 0.250000 0.750000 0.000000
O O4 0.028156 0.703918 0.050709
O O5 0.500000 0.013698 0.250000
O O6 0.846057 0.982516 0.295098
O O7 0.709749 0.071089 0.202357
O O8 0.500000 0.000000 0.000000
O O9 0.314071 0.903141 0.228902
O O10 0.500000 0.878946 0.750000
O O11 0.820606 0.833868 0.816371
O O12 0.902233 0.912006 0.983936
O O13 0.000000 0.910821 0.250000
O O14 0.500000 0.774982 0.750000
#
# Coordination Sequence:
#
# PCOD9298514 Si02
#       6
#     8   8   4   8   8   8
#     4  12  24  47  66 101 145 186 238 304 361 435
#     4  11  24  47  75 109 155 194 249 313 373 449
#     4  12  28  44  76 110 146 190 250 298 374 436
#     4  10  24  44  72 108 144 192 251 299 370 440
#     4  12  26  47  77 107 151 196 247 307 371 442
#     4  11  25  43  72 102 141 188 245 297 365 430
#
# _framework density 22.796188999999998
#
# number of rings (size 3 to 8) (size 9 to 14) (size 15 to 20)
#    0.000    0.727    2.727    4.364    7.636    0.727 
#    0.000    3.636    0.000    0.000    0.000    0.000 
#    0.000    0.000    0.000    0.000    0.000    0.000 
#
# Total GULP energy -122856.870010 kJ/mol
# GULP energy per Si atom -5584.403182 kJ/mol
# Density = 2.274430 g / cm^3
# Si number density = 22.796189 Si / 1000 Ang^3
#
#
#
# Elastic Constant Matrix: (Units=GPa)
#
#
# Indices 1 2 3 4 5 6 
#
# 1 107.3389 17.4792 10.1473 0.0000 -9.5560 0.0000
# 2 17.4792 76.0829 -15.5820 0.0000 6.7077 0.0000
# 3 10.1473 -15.5820 90.8418 0.0000 -12.6760 0.0000
# 4 0.0000 0.0000 0.0000 39.4027 0.0000 -18.0336
# 5 -9.5560 6.7077 -12.6760 0.0000 40.0928 0.0000
# 6 0.0000 0.0000 0.0000 -18.0336 0.0000 -8.8107
#
#
#
# Elastic Compliance Matrix: (Units=1/GPa)
#
#
# Indices 1 2 3 4 5 6 
#
# 1 0.010113 -0.002801 -0.001264 0.000000 0.002479 0.000000
# 2 -0.002801 0.014498 0.002477 0.000000 -0.002310 0.000000
# 3 -0.001264 0.002477 0.012004 0.000000 0.003080 0.000000
# 4 0.000000 0.000000 0.000000 0.013104 0.000000 -0.026821
# 5 0.002479 -0.002310 0.003080 0.000000 0.026893 0.000000
# 6 0.000000 0.000000 0.000000 -0.026821 0.000000 -0.058602
#
#
# Mechanical properties :
#
#
# Convention : Reuss Voigt Hill
#
# Bulk Modulus (GPa) = 29.90455 33.15031 31.52743
# Shear Modulus (GPa) = 154.65030 31.61821 93.13426
#
# Velocity S-wave (km/s) = 8.24547 3.72828 6.39874
# Velocity P-wave (km/s) = 10.18808 5.75387 8.27357
#
# Compressibility (1/GPa) = 0.03343972
#
# Stress axis : x y z
#
# Youngs Moduli (GPa) = 98.88686 68.97506 83.30562
#
# Poissons Ratio (x) = 0.19318 0.10530
# Poissons Ratio (y) = 0.27695 -0.20638
# Poissons Ratio (z) = 0.12500 -0.17088
#
# Static dielectric constant tensor:
#      x y z
#    x 1.845470 0.000000 -0.022300 
#    y 0.000000 1.867290 0.000000 
#    z -0.022300 0.000000 1.866870 
# 
# From -- ./inp_files/81570.got.cif
#   From: 2010.05.17/outbox.cif.g08.bks.cpg/sg15_41_cif.got.tgz:81570.got - 2010.06.03 18:47:42.
