data_PCOD9298015
_publ_section_title
;
Structure prediction by ZEFSAII (Michael W. Deem and Ramdas Pophale) SiO2 
 PCOD9298015
Probable space group: C 2/C
;
_chemical_formula_sum "Si O2"
_cell_formula_units_Z 56
_cell_length_a 19.047999
_cell_length_b 17.529560
_cell_length_c 14.085767
_cell_angle_alpha 90.000000
_cell_angle_beta 145.549504
_cell_angle_gamma 90.000000
_cell_volume 2660.617404
_symmetry_space_group_name_H-M "C 2/C"
_symmetry_group_IT_number 15
_symmetry_cell_setting 'monoclinic'
loop_
_space_group_symop_operation_xyz
x,y,z
-x,y,1/2-z
-x,-y,-z
x,-y,1/2+z
1/2+x,1/2+y,z
1/2-x,1/2+y,1/2-z
1/2-x,1/2-y,-z
1/2+x,1/2-y,1/2+z
loop_
_atom_site_type_symbol
_atom_site_label
_atom_site_fract_x
_atom_site_fract_y
_atom_site_fract_z
Si Si1 0.500000 0.761670 0.750000
Si Si2 0.925009 0.933449 0.868461
Si Si3 0.516931 0.850361 0.051591
Si Si4 0.500000 0.399024 0.750000
Si Si5 0.575026 0.697808 0.631204
Si Si6 0.164040 0.620464 0.528951
Si Si7 0.238048 0.668848 0.938635
Si Si8 0.339525 0.054291 0.481322
O O1 0.526706 0.714307 0.684401
O O2 0.384537 0.817769 0.600405
O O3 0.947053 0.942971 0.780698
O O4 0.779102 0.938346 0.720174
O O5 0.978043 0.854711 0.966829
O O6 0.000000 0.000000 0.000000
O O7 0.565558 0.880368 0.005306
O O8 0.641796 0.824949 0.245643
O O9 0.426594 0.778763 0.926686
O O10 0.453089 0.913364 0.046835
O O11 0.380171 0.354467 0.575607
O O12 0.704173 0.651793 0.785281
O O13 0.161584 0.533969 0.488993
O O14 0.250000 0.750000 0.000000
O O15 0.182824 0.609205 0.953722
#
# Coordination Sequence:
#
# PCOD9298015 Si02
#       8
#     4   8   8   4   8   8   8   8
#     4  10  26  43  71 100 130 182 230 282 344 407
#     4  11  23  44  68  99 139 183 229 281 340 413
#     4  11  25  41  71  99 133 180 225 281 348 407
#     4  10  24  43  65 100 138 178 226 280 346 393
#     4  11  24  46  70  98 136 178 233 283 341 414
#     4  11  24  47  67  97 138 173 229 284 344 411
#     4  11  25  41  68  99 137 179 225 279 343 412
#     4  11  25  43  66 101 138 177 226 284 345 407
#
# _framework density 21.047746
#
# number of rings (size 3 to 8) (size 9 to 14) (size 15 to 20)
#    0.000    1.143    1.429    3.857   12.000    0.571 
#    0.000    0.000    0.000    0.000    0.000    0.000 
#    0.000    0.000    0.000    0.000    0.000    0.000 
#
# Total GULP energy -156419.383435 kJ/mol
# GULP energy per Si atom -5586.406551 kJ/mol
# Density = 2.099984 g / cm^3
# Si number density = 21.047746 Si / 1000 Ang^3
#
#
#
# Elastic Constant Matrix: (Units=GPa)
#
#
# Indices 1 2 3 4 5 6 
#
# 1 70.6739 29.5500 10.8662 0.0000 -3.2585 0.0000
# 2 29.5500 104.2969 4.3084 0.0000 -3.6322 0.0000
# 3 10.8662 4.3084 86.4179 0.0000 2.7565 0.0000
# 4 0.0000 0.0000 0.0000 38.4240 0.0000 -0.5795
# 5 -3.2585 -3.6322 2.7565 0.0000 35.4273 0.0000
# 6 0.0000 0.0000 0.0000 -0.5795 0.0000 21.9176
#
#
#
# Elastic Compliance Matrix: (Units=1/GPa)
#
#
# Indices 1 2 3 4 5 6 
#
# 1 0.016383 -0.004523 -0.001872 0.000000 0.001189 0.000000
# 2 -0.004523 0.010894 0.000003 0.000000 0.000701 0.000000
# 3 -0.001872 0.000003 0.011842 0.000000 -0.001093 0.000000
# 4 0.000000 0.000000 0.000000 0.026036 0.000000 0.000688
# 5 0.001189 0.000701 -0.001093 0.000000 0.028493 0.000000
# 6 0.000000 0.000000 0.000000 0.000688 0.000000 0.045644
#
#
# Mechanical properties :
#
#
# Convention : Reuss Voigt Hill
#
# Bulk Modulus (GPa) = 37.97310 38.98199 38.47755
# Shear Modulus (GPa) = 31.08407 33.59806 32.34107
#
# Velocity S-wave (km/s) = 3.84713 3.99968 3.92415
# Velocity P-wave (km/s) = 6.14935 6.31592 6.23319
#
# Compressibility (1/GPa) = 0.02633443
#
# Stress axis : x y z
#
# Youngs Moduli (GPa) = 61.03749 91.79550 84.44646
#
# Poissons Ratio (x) = 0.41520 0.15812
# Poissons Ratio (y) = 0.27608 -0.00028
# Poissons Ratio (z) = 0.11429 -0.00030
#
# Static dielectric constant tensor:
#      x y z
#    x -0.525120 0.000000 -2.042200 
#    y 0.000000 1.761230 0.000000 
#    z -2.042200 0.000000 -0.072610 
# 
# From -- ./inp_files/169194.got.cif
#   From: 2010.05.17/outbox.cif.g08.bks.cpg/sg15_85_cif.got.tgz:169194.got - 2010.06.03 18:47:42.
