data_PCOD9298780
_publ_section_title
;
Structure prediction by ZEFSAII (Michael W. Deem and Ramdas Pophale) SiO2 
 PCOD9298780
Probable space group: C 2/C
;
_chemical_formula_sum "Si O2"
_cell_formula_units_Z 32
_cell_length_a 13.838633
_cell_length_b 5.428306
_cell_length_c 17.292086
_cell_angle_alpha 90.000000
_cell_angle_beta 81.169997
_cell_angle_gamma 90.000000
_cell_volume 1283.591863
_symmetry_space_group_name_H-M "C 2/C"
_symmetry_group_IT_number 15
_symmetry_cell_setting 'monoclinic'
loop_
_space_group_symop_operation_xyz
x,y,z
-x,y,1/2-z
-x,-y,-z
x,-y,1/2+z
1/2+x,1/2+y,z
1/2-x,1/2+y,1/2-z
1/2-x,1/2-y,-z
1/2+x,1/2-y,1/2+z
loop_
_atom_site_type_symbol
_atom_site_label
_atom_site_fract_x
_atom_site_fract_y
_atom_site_fract_z
Si Si1 0.961635 0.797793 0.565371
Si Si2 0.165063 0.543393 0.525747
Si Si3 0.662369 0.150210 0.189478
Si Si4 0.372195 0.355817 0.738622
O O1 0.876162 0.622930 0.539923
O O2 0.061798 0.653674 0.566319
O O3 0.923016 0.900973 0.650421
O O4 0.000000 0.000000 0.500000
O O5 0.250000 0.750000 0.500000
O O6 0.194361 0.384495 0.596790
O O7 0.605934 0.908507 0.226447
O O8 0.757432 0.158674 0.232308
O O9 0.611235 0.412187 0.207837
#
# Coordination Sequence:
#
# PCOD9298780 Si02
#       4
#     8   8   8   8
#     4  11  27  47  74 112 151 201 264 325 387 485
#     4  11  27  47  79 111 152 207 260 325 400 478
#     4  10  24  45  74 109 145 200 246 316 389 459
#     4  10  24  45  74 105 151 192 253 314 384 468
#
# _framework density 24.930043000000001
#
# number of rings (size 3 to 8) (size 9 to 14) (size 15 to 20)
#    0.000    1.500    0.000    1.500   21.000    3.000 
#    0.000    0.000    0.000    0.000    0.000    0.000 
#    0.000    0.000    0.000    0.000    0.000    0.000 
#
# Total GULP energy -89443.890657 kJ/mol
# GULP energy per Si atom -5590.243166 kJ/mol
# Density = 2.487330 g / cm^3
# Si number density = 24.930043 Si / 1000 Ang^3
#
#
#
# Elastic Constant Matrix: (Units=GPa)
#
#
# Indices 1 2 3 4 5 6 
#
# 1 112.8902 84.2192 23.1608 0.0000 2.8011 0.0000
# 2 84.2192 129.8152 48.3619 0.0000 -19.8503 0.0000
# 3 23.1608 48.3619 94.8471 0.0000 -15.4666 0.0000
# 4 0.0000 0.0000 0.0000 54.0622 0.0000 -3.1165
# 5 2.8011 -19.8503 -15.4666 0.0000 36.3605 0.0000
# 6 0.0000 0.0000 0.0000 -3.1165 0.0000 29.7479
#
#
#
# Elastic Compliance Matrix: (Units=1/GPa)
#
#
# Indices 1 2 3 4 5 6 
#
# 1 0.019757 -0.014630 0.001166 0.000000 -0.009013 0.000000
# 2 -0.014630 0.020742 -0.005344 0.000000 0.010178 0.000000
# 3 0.001166 -0.005344 0.013424 0.000000 0.002703 0.000000
# 4 0.000000 0.000000 0.000000 0.018610 0.000000 0.001950
# 5 -0.009013 0.010178 0.002703 0.000000 0.034903 0.000000
# 6 0.000000 0.000000 0.000000 0.001950 0.000000 0.033820
#
#
# Mechanical properties :
#
#
# Convention : Reuss Voigt Hill
#
# Bulk Modulus (GPa) = 61.32653 72.11516 66.72084
# Shear Modulus (GPa) = 27.12840 36.15482 31.64161
#
# Velocity S-wave (km/s) = 3.30234 3.81235 3.56647
# Velocity P-wave (km/s) = 6.26047 6.95474 6.61672
#
# Compressibility (1/GPa) = 0.01630616
#
# Stress axis : x y z
#
# Youngs Moduli (GPa) = 50.61436 48.21154 74.49176
#
# Poissons Ratio (x) = 0.70534 -0.08682
# Poissons Ratio (y) = 0.74050 0.39808
# Poissons Ratio (z) = -0.05899 0.25764
#
# Static dielectric constant tensor:
#      x y z
#    x 2.346990 0.000000 0.108320 
#    y 0.000000 1.969110 0.000000 
#    z 0.108320 0.000000 1.920480 
# 
# From -- ./inp_files/241388.got.cif
#   From: 2010.05.17/outbox.cif.g08.bks.cpg/sg15_121_cif.got.tgz:241388.got - 2010.06.03 18:47:42.
