data_PCOD9298340
_publ_section_title
;
Structure prediction by ZEFSAII (Michael W. Deem and Ramdas Pophale) SiO2 
 PCOD9298340
Probable space group: C 2/C
;
_chemical_formula_sum "Si O2"
_cell_formula_units_Z 60
_cell_length_a 26.864163
_cell_length_b 23.459949
_cell_length_c 15.137216
_cell_angle_alpha 90.000000
_cell_angle_beta 162.080226
_cell_angle_gamma 90.000000
_cell_volume 2935.301601
_symmetry_space_group_name_H-M "C 2/C"
_symmetry_group_IT_number 15
_symmetry_cell_setting 'monoclinic'
loop_
_space_group_symop_operation_xyz
x,y,z
-x,y,1/2-z
-x,-y,-z
x,-y,1/2+z
1/2+x,1/2+y,z
1/2-x,1/2+y,1/2-z
1/2-x,1/2-y,-z
1/2+x,1/2-y,1/2+z
loop_
_atom_site_type_symbol
_atom_site_label
_atom_site_fract_x
_atom_site_fract_y
_atom_site_fract_z
Si Si1 0.073596 0.264247 0.052730
Si Si2 0.329519 0.479282 0.753591
Si Si3 0.500000 0.289614 0.250000
Si Si4 0.339375 0.643246 0.031402
Si Si5 0.551913 0.640175 0.086954
Si Si6 0.816403 0.970869 0.423188
Si Si7 0.240822 0.340429 0.949958
Si Si8 0.347411 0.033495 0.206802
O O1 0.209321 0.306993 0.314388
O O2 0.104144 0.204014 0.152001
O O3 0.083371 0.249558 0.965090
O O4 0.893050 0.290652 0.763870
O O5 0.355012 0.411159 0.805878
O O6 0.291712 0.506939 0.783824
O O7 0.201185 0.503512 0.466861
O O8 0.500000 0.500000 0.000000
O O9 0.635143 0.325020 0.421576
O O10 0.500000 0.662079 0.250000
O O11 0.406863 0.627230 0.242069
O O12 0.242449 0.590192 0.822960
O O13 0.363765 0.643871 0.738743
O O14 0.784937 0.018479 0.442742
O O15 0.000000 0.954786 0.750000
O O16 0.142141 0.398896 0.774192
O O17 0.500000 0.000000 0.500000
#
# Coordination Sequence:
#
# PCOD9298340 Si02
#       8
#     8   8   4   8   8   8   8   8
#     4  11  26  43  68 101 140 176 227 289 343 400
#     4  12  22  42  72  98 132 178 225 281 339 414
#     4  10  24  44  68 100 126 182 232 272 334 418
#     4  11  24  41  69  98 136 179 229 280 342 412
#     4  11  22  44  67  97 132 181 225 279 342 409
#     4  11  22  40  69  99 126 175 229 268 336 415
#     4  11  25  42  73  96 137 178 229 281 343 411
#     4  12  26  43  67 101 141 174 220 290 346 399
#
# _framework density 20.440829000000001
#
# number of rings (size 3 to 8) (size 9 to 14) (size 15 to 20)
#    0.000    0.800    4.000    3.600    8.400    0.533 
#    0.000    0.000    0.000    0.000    0.000    0.000 
#    0.000    0.000    0.000    0.000    0.000    0.000 
#
# Total GULP energy -167303.368172 kJ/mol
# GULP energy per Si atom -5576.778939 kJ/mol
# Density = 2.039431 g / cm^3
# Si number density = 20.440829 Si / 1000 Ang^3
#
#
#
# Elastic Constant Matrix: (Units=GPa)
#
#
# Indices 1 2 3 4 5 6 
#
# 1 105.6153 45.0343 40.4264 0.0000 -28.5781 0.0000
# 2 45.0343 154.8056 34.9772 0.0000 -4.5783 0.0000
# 3 40.4264 34.9772 76.4795 0.0000 -11.7835 0.0000
# 4 0.0000 0.0000 0.0000 34.0342 0.0000 5.0142
# 5 -28.5781 -4.5783 -11.7835 0.0000 32.4647 0.0000
# 6 0.0000 0.0000 0.0000 5.0142 0.0000 20.9428
#
#
#
# Elastic Compliance Matrix: (Units=1/GPa)
#
#
# Indices 1 2 3 4 5 6 
#
# 1 0.015964 -0.003121 -0.005204 0.000000 0.011723 0.000000
# 2 -0.003121 0.007816 -0.002307 0.000000 -0.002483 0.000000
# 3 -0.005204 -0.002307 0.017081 0.000000 0.001293 0.000000
# 4 0.000000 0.000000 0.000000 0.030457 0.000000 -0.007292
# 5 0.011723 -0.002483 0.001293 0.000000 0.041242 0.000000
# 6 0.000000 0.000000 0.000000 -0.007292 0.000000 0.049495
#
#
# Mechanical properties :
#
#
# Convention : Reuss Voigt Hill
#
# Bulk Modulus (GPa) = 51.03536 64.19737 57.61637
# Shear Modulus (GPa) = 26.33659 31.91916 29.12788
#
# Velocity S-wave (km/s) = 3.59337 3.95592 3.77899
# Velocity P-wave (km/s) = 6.49907 7.23466 6.87671
#
# Compressibility (1/GPa) = 0.01959426
#
# Stress axis : x y z
#
# Youngs Moduli (GPa) = 62.64287 127.94990 58.54556
#
# Poissons Ratio (x) = 0.39937 0.30470
# Poissons Ratio (y) = 0.19553 0.13507
# Poissons Ratio (z) = 0.32602 0.29518
#
# Static dielectric constant tensor:
#      x y z
#    x 1.718780 0.000000 0.004550 
#    y 0.000000 1.798080 0.000000 
#    z 0.004550 0.000000 1.734400 
# 
# From -- ./inp_files/179119.got.cif
#   From: 2010.05.17/outbox.cif.g08.bks.cpg/sg15_90_cif.got.tgz:179119.got - 2010.06.03 18:47:42.
