data_PCOD9298316
_publ_section_title
;
Structure prediction by ZEFSAII (Michael W. Deem and Ramdas Pophale) SiO2 
 PCOD9298316
Probable space group: C 2/C
;
_chemical_formula_sum "Si O2"
_cell_formula_units_Z 56
_cell_length_a 10.992433
_cell_length_b 9.573162
_cell_length_c 27.076494
_cell_angle_alpha 90.000000
_cell_angle_beta 119.167379
_cell_angle_gamma 90.000000
_cell_volume 2488.027866
_symmetry_space_group_name_H-M "C 2/C"
_symmetry_group_IT_number 15
_symmetry_cell_setting 'monoclinic'
loop_
_space_group_symop_operation_xyz
x,y,z
-x,y,1/2-z
-x,-y,-z
x,-y,1/2+z
1/2+x,1/2+y,z
1/2-x,1/2+y,1/2-z
1/2-x,1/2-y,-z
1/2+x,1/2-y,1/2+z
loop_
_atom_site_type_symbol
_atom_site_label
_atom_site_fract_x
_atom_site_fract_y
_atom_site_fract_z
Si Si1 0.000000 0.781258 0.250000
Si Si2 0.322354 0.507100 0.776609
Si Si3 0.389570 0.250434 0.475199
Si Si4 0.290123 0.131342 0.650480
Si Si5 0.097474 0.277697 0.936268
Si Si6 0.521824 0.079215 0.174242
Si Si7 0.500000 0.313832 0.750000
Si Si8 0.712596 0.498760 0.985095
O O1 0.942196 0.680986 0.196496
O O2 0.120963 0.865396 0.246087
O O3 0.305625 0.540042 0.831191
O O4 0.172060 0.459859 0.725616
O O5 0.442219 0.397664 0.785794
O O6 0.291818 0.299530 0.410474
O O7 0.536661 0.221837 0.479465
O O8 0.391945 0.384367 0.512101
O O9 0.326898 0.108321 0.485494
O O10 0.366743 0.231358 0.704630
O O11 0.422459 0.053159 0.652700
O O12 0.145159 0.117726 0.936205
O O13 0.979659 0.335423 0.876477
O O14 0.215925 0.397224 0.960675
#
# Coordination Sequence:
#
# PCOD9298316 Si02
#       8
#     4   8   8   8   8   8   4   8
#     4  11  23  40  62  90 125 161 212 258 314 380
#     4  11  23  40  62  90 123 169 206 260 316 381
#     4  11  23  43  68  94 129 169 211 269 322 382
#     4  12  23  40  64  92 129 167 211 260 319 381
#     4  11  23  43  68  94 129 169 211 269 322 382
#     4  12  23  40  64  92 129 167 211 260 319 381
#     4  11  23  40  62  90 125 161 212 258 314 380
#     4  10  24  44  66  96 126 164 220 266 322 384
#
# _framework density 22.507788000000001
#
# number of rings (size 3 to 8) (size 9 to 14) (size 15 to 20)
#    0.000    0.857    4.286    3.429    0.000    4.571 
#    0.000    0.000    0.000    0.000    0.000    0.000 
#    0.000    0.000    0.000    0.000    0.000    0.000 
#
# Total GULP energy -156174.720189 kJ/mol
# GULP energy per Si atom -5577.668578 kJ/mol
# Density = 2.245656 g / cm^3
# Si number density = 22.507788 Si / 1000 Ang^3
#
#
#
# Elastic Constant Matrix: (Units=GPa)
#
#
# Indices 1 2 3 4 5 6 
#
# 1 62.4927 19.4423 -4.2753 0.0000 -11.7138 0.0000
# 2 19.4423 116.7135 18.1716 0.0000 -5.0838 0.0000
# 3 -4.2753 18.1716 50.9632 0.0000 5.4434 0.0000
# 4 0.0000 0.0000 0.0000 24.8902 0.0000 -8.7175
# 5 -11.7138 -5.0838 5.4434 0.0000 24.4579 0.0000
# 6 0.0000 0.0000 0.0000 -8.7175 0.0000 18.3882
#
#
#
# Elastic Compliance Matrix: (Units=1/GPa)
#
#
# Indices 1 2 3 4 5 6 
#
# 1 0.018537 -0.003026 0.001795 0.000000 0.007850 0.000000
# 2 -0.003026 0.009739 -0.003880 0.000000 0.001439 0.000000
# 3 0.001795 -0.003880 0.021665 0.000000 -0.004768 0.000000
# 4 0.000000 0.000000 0.000000 0.048176 0.000000 0.022839
# 5 0.007850 0.001439 -0.004768 0.000000 0.046006 0.000000
# 6 0.000000 0.000000 0.000000 0.022839 0.000000 0.065210
#
#
# Mechanical properties :
#
#
# Convention : Reuss Voigt Hill
#
# Bulk Modulus (GPa) = 25.17538 32.98297 29.07917
# Shear Modulus (GPa) = 21.47815 26.66931 24.07373
#
# Velocity S-wave (km/s) = 3.09245 3.44596 3.27398
# Velocity P-wave (km/s) = 4.89494 5.52437 5.21916
#
# Compressibility (1/GPa) = 0.03972135
#
# Stress axis : x y z
#
# Youngs Moduli (GPa) = 53.94504 102.68246 46.15649
#
# Poissons Ratio (x) = 0.31068 -0.08287
# Poissons Ratio (y) = 0.16322 0.17909
# Poissons Ratio (z) = -0.09686 0.39841
#
# Static dielectric constant tensor:
#      x y z
#    x 1.859890 0.000000 -0.024350 
#    y 0.000000 1.918190 0.000000 
#    z -0.024350 0.000000 1.868640 
# 
# From -- ./inp_files/291660.got.cif
#   From: 2010.05.17/outbox.cif.g08.bks.cpg/sg15_146_cif.got.tgz:291660.got - 2010.06.03 18:47:42.
