data_PCOD9298134
_publ_section_title
;
Structure prediction by ZEFSAII (Michael W. Deem and Ramdas Pophale) SiO2 
 PCOD9298134
Probable space group: C 2/C
;
_chemical_formula_sum "Si O2"
_cell_formula_units_Z 48
_cell_length_a 9.816261
_cell_length_b 16.584980
_cell_length_c 14.350798
_cell_angle_alpha 90.000000
_cell_angle_beta 83.185661
_cell_angle_gamma 90.000000
_cell_volume 2319.841374
_symmetry_space_group_name_H-M "C 2/C"
_symmetry_group_IT_number 15
_symmetry_cell_setting 'monoclinic'
loop_
_space_group_symop_operation_xyz
x,y,z
-x,y,1/2-z
-x,-y,-z
x,-y,1/2+z
1/2+x,1/2+y,z
1/2-x,1/2+y,1/2-z
1/2-x,1/2-y,-z
1/2+x,1/2-y,1/2+z
loop_
_atom_site_type_symbol
_atom_site_label
_atom_site_fract_x
_atom_site_fract_y
_atom_site_fract_z
Si Si1 0.273771 0.886709 0.407132
Si Si2 0.663997 0.258726 0.728052
Si Si3 0.513208 0.560746 0.638247
Si Si4 0.550132 0.956835 0.402168
Si Si5 0.275475 0.579407 0.377917
Si Si6 0.243287 0.811199 0.086126
O O1 0.277550 0.801018 0.355838
O O2 0.411465 0.931958 0.362135
O O3 0.272722 0.882953 0.519432
O O4 0.138068 0.934737 0.390351
O O5 0.500000 0.246102 0.750000
O O6 0.689925 0.350024 0.695473
O O7 0.261763 0.236197 0.681622
O O8 0.500000 0.569514 0.750000
O O9 0.593895 0.477895 0.613105
O O10 0.605565 0.635099 0.594564
O O11 0.633553 0.876448 0.422245
O O12 0.500000 0.000000 0.500000
O O13 0.658034 0.019013 0.349562
O O14 0.250000 0.750000 0.000000
#
# Coordination Sequence:
#
# PCOD9298134 Si02
#       6
#     8   8   8   8   8   8
#     4  11  22  43  73  94 133 178 221 277 335 394
#     4  12  24  43  69 101 135 176 225 282 329 399
#     4  11  23  44  67  98 139 174 228 276 332 402
#     4   9  21  46  66  97 128 172 222 268 328 399
#     4  10  24  43  70 100 132 172 227 271 341 403
#     4  11  25  45  67  96 138 179 223 275 335 396
#
# _framework density 20.69107
#
# number of rings (size 3 to 8) (size 9 to 14) (size 15 to 20)
#    0.000    1.333    3.333    1.500    2.333    2.667 
#    9.000    0.000    0.000    0.000    0.000    0.000 
#    0.000    0.000    0.000    0.000    0.000    0.000 
#
# Total GULP energy -134165.604475 kJ/mol
# GULP energy per Si atom -5590.233520 kJ/mol
# Density = 2.064398 g / cm^3
# Si number density = 20.691070 Si / 1000 Ang^3
#
#
#
# Elastic Constant Matrix: (Units=GPa)
#
#
# Indices 1 2 3 4 5 6 
#
# 1 145.7626 60.4180 18.8173 0.0000 3.9034 0.0000
# 2 60.4180 158.0365 60.8215 0.0000 -5.9032 0.0000
# 3 18.8173 60.8215 86.2217 0.0000 -3.1846 0.0000
# 4 0.0000 0.0000 0.0000 37.0079 0.0000 -14.6589
# 5 3.9034 -5.9032 -3.1846 0.0000 28.7688 0.0000
# 6 0.0000 0.0000 0.0000 -14.6589 0.0000 8.0677
#
#
#
# Elastic Compliance Matrix: (Units=1/GPa)
#
#
# Indices 1 2 3 4 5 6 
#
# 1 0.008261 -0.003439 0.000558 0.000000 -0.001765 0.000000
# 2 -0.003439 0.010152 -0.006343 0.000000 0.001848 0.000000
# 3 0.000558 -0.006343 0.015965 0.000000 0.000390 0.000000
# 4 0.000000 0.000000 0.000000 0.096405 0.000000 0.175167
# 5 -0.001765 0.001848 0.000390 0.000000 0.035422 0.000000
# 6 0.000000 0.000000 0.000000 0.175167 0.000000 0.442228
#
#
# Mechanical properties :
#
#
# Convention : Reuss Voigt Hill
#
# Bulk Modulus (GPa) = 62.77260 74.45937 68.61598
# Shear Modulus (GPa) = 7.90899 31.43314 19.67106
#
# Velocity S-wave (km/s) = 1.95722 3.90187 3.08669
# Velocity P-wave (km/s) = 5.95915 7.50759 6.77773
#
# Compressibility (1/GPa) = 0.01593052
#
# Stress axis : x y z
#
# Youngs Moduli (GPa) = 121.04919 98.49860 62.63691
#
# Poissons Ratio (x) = 0.33872 -0.03493
# Poissons Ratio (y) = 0.41626 0.39730
# Poissons Ratio (z) = -0.06750 0.62476
#
# Static dielectric constant tensor:
#      x y z
#    x 1.726850 0.000000 0.002980 
#    y 0.000000 1.703930 0.000000 
#    z 0.002980 0.000000 1.724930 
# 
# From -- ./inp_files/134828.got.cif
#   From: 2010.05.17/outbox.cif.g08.bks.cpg/sg15_68_cif.got.tgz:134828.got - 2010.06.03 18:47:42.
