data_PCOD9298954
_publ_section_title
;
Structure prediction by ZEFSAII (Michael W. Deem and Ramdas Pophale) SiO2 
 PCOD9298954
Probable space group: C 2/C
;
_chemical_formula_sum "Si O2"
_cell_formula_units_Z 32
_cell_length_a 11.701648
_cell_length_b 26.037541
_cell_length_c 5.032826
_cell_angle_alpha 90.000000
_cell_angle_beta 103.345644
_cell_angle_gamma 90.000000
_cell_volume 1492.002854
_symmetry_space_group_name_H-M "C 2/C"
_symmetry_group_IT_number 15
_symmetry_cell_setting 'monoclinic'
loop_
_space_group_symop_operation_xyz
x,y,z
-x,y,1/2-z
-x,-y,-z
x,-y,1/2+z
1/2+x,1/2+y,z
1/2-x,1/2+y,1/2-z
1/2-x,1/2-y,-z
1/2+x,1/2-y,1/2+z
loop_
_atom_site_type_symbol
_atom_site_label
_atom_site_fract_x
_atom_site_fract_y
_atom_site_fract_z
Si Si1 0.000000 0.181537 0.750000
Si Si2 0.685803 0.618860 0.493784
Si Si3 0.693909 0.279511 0.714593
Si Si4 0.500000 0.536926 0.250000
Si Si5 0.137663 0.535183 0.771208
O O1 0.099935 0.147052 0.660148
O O2 0.939257 0.213949 0.478785
O O3 0.724576 0.661859 0.305094
O O4 0.609894 0.574992 0.311163
O O5 0.792706 0.588195 0.677767
O O6 0.750000 0.250000 0.500000
O O7 0.750000 0.250000 0.000000
O O8 0.500000 0.500000 0.500000
O O9 0.166642 0.506094 0.515377
O O10 0.000000 0.545315 0.750000
#
# Coordination Sequence:
#
# PCOD9298954 Si02
#       5
#     4   8   8   4   8
#     4  12  25  50  76 110 160 188 250 335 392 458
#     4  12  25  45  75 110 153 194 251 320 384 464
#     4  12  27  48  73 104 148 201 250 311 389 451
#     4  12  25  38  68 114 152 192 236 301 392 470
#     4  10  24  46  71 101 148 199 249 305 370 454
#
# _framework density 21.447679999999998
#
# number of rings (size 3 to 8) (size 9 to 14) (size 15 to 20)
#    0.000    0.500    5.000    2.250    3.500    0.000 
#    4.500    0.000    0.000    0.000    0.000    0.000 
#    0.000    0.000    0.000    0.000    0.000    0.000 
#
# Total GULP energy -89294.646206 kJ/mol
# GULP energy per Si atom -5580.915388 kJ/mol
# Density = 2.139886 g / cm^3
# Si number density = 21.447680 Si / 1000 Ang^3
#
#
#
# Elastic Constant Matrix: (Units=GPa)
#
#
# Indices 1 2 3 4 5 6 
#
# 1 79.9899 65.2733 46.3104 0.0000 4.2843 0.0000
# 2 65.2733 160.6181 76.4648 0.0000 9.6500 0.0000
# 3 46.3104 76.4648 172.8932 0.0000 13.4148 0.0000
# 4 0.0000 0.0000 0.0000 229.6681 0.0000 -152.1039
# 5 4.2843 9.6500 13.4148 0.0000 28.9507 0.0000
# 6 0.0000 0.0000 0.0000 -152.1039 0.0000 186.2057
#
#
#
# Elastic Compliance Matrix: (Units=1/GPa)
#
#
# Indices 1 2 3 4 5 6 
#
# 1 0.019324 -0.006839 -0.002185 0.000000 0.000432 0.000000
# 2 -0.006839 0.010338 -0.002646 0.000000 -0.001207 0.000000
# 3 -0.002185 -0.002646 0.007724 0.000000 -0.002373 0.000000
# 4 0.000000 0.000000 0.000000 0.009486 0.000000 0.007749
# 5 0.000432 -0.001207 -0.002373 0.000000 0.035980 0.000000
# 6 0.000000 0.000000 0.000000 0.007749 0.000000 0.011700
#
#
# Mechanical properties :
#
#
# Convention : Reuss Voigt Hill
#
# Bulk Modulus (GPa) = 71.20061 87.73314 79.46687
# Shear Modulus (GPa) = 40.79195 103.99507 72.39351
#
# Velocity S-wave (km/s) = 4.36584 6.97087 5.81608
# Velocity P-wave (km/s) = 7.66052 10.28519 9.06832
#
# Compressibility (1/GPa) = 0.01404482
#
# Stress axis : x y z
#
# Youngs Moduli (GPa) = 51.74892 96.73422 129.47013
#
# Poissons Ratio (x) = 0.66155 0.28289
# Poissons Ratio (y) = 0.35390 0.34264
# Poissons Ratio (z) = 0.11307 0.25600
#
# Static dielectric constant tensor:
#      x y z
#    x 1.992540 0.000000 0.086100 
#    y 0.000000 1.733990 0.000000 
#    z 0.086100 0.000000 1.845200 
# 
# From -- ./inp_files/4181.got.cif
#   From: 2010.05.17/outbox.cif.g08.bks.cpg/sg15_3_cif.got.tgz:4181.got - 2010.06.03 18:47:42.
