data_PCOD9298101
_publ_section_title
;
Structure prediction by ZEFSAII (Michael W. Deem and Ramdas Pophale) SiO2 
 PCOD9298101
Probable space group: C 2/C
;
_chemical_formula_sum "Si O2"
_cell_formula_units_Z 40
_cell_length_a 11.953892
_cell_length_b 21.374615
_cell_length_c 11.586975
_cell_angle_alpha 90.000000
_cell_angle_beta 41.926137
_cell_angle_gamma 90.000000
_cell_volume 1978.180819
_symmetry_space_group_name_H-M "C 2/C"
_symmetry_group_IT_number 15
_symmetry_cell_setting 'monoclinic'
loop_
_space_group_symop_operation_xyz
x,y,z
-x,y,1/2-z
-x,-y,-z
x,-y,1/2+z
1/2+x,1/2+y,z
1/2-x,1/2+y,1/2-z
1/2-x,1/2-y,-z
1/2+x,1/2-y,1/2+z
loop_
_atom_site_type_symbol
_atom_site_label
_atom_site_fract_x
_atom_site_fract_y
_atom_site_fract_z
Si Si1 0.021465 0.924860 0.479175
Si Si2 0.500000 0.234369 0.250000
Si Si3 0.865277 0.407329 0.082385
Si Si4 0.213527 0.839919 0.981763
Si Si5 0.500000 0.583616 0.250000
Si Si6 0.880953 0.542512 0.953299
O O1 0.208335 0.912496 0.290375
O O2 0.984724 0.891403 0.630273
O O3 0.887140 0.897301 0.492494
O O4 0.000000 0.000000 0.500000
O O5 0.635094 0.189453 0.206037
O O6 0.411299 0.282263 0.404175
O O7 0.036261 0.405489 0.025136
O O8 0.801087 0.358766 0.035572
O O9 0.891209 0.472844 0.996231
O O10 0.318149 0.551220 0.406737
O O11 0.000000 0.544210 0.750000
#
# Coordination Sequence:
#
# PCOD9298101 Si02
#       6
#     8   4   8   8   4   8
#     4  12  23  39  65  97 142 176 217 276 346 414
#     4  10  24  43  68  96 130 175 236 282 336 382
#     4  11  23  38  61  93 134 170 221 277 332 400
#     4  11  24  43  66 102 127 176 227 291 334 393
#     4  12  24  39  58  90 134 179 216 256 336 418
#     4  11  24  38  57  95 136 181 215 257 341 426
#
# _framework density 20.220597000000001
#
# number of rings (size 3 to 8) (size 9 to 14) (size 15 to 20)
#    0.000    0.800    6.000    1.200    4.200    0.000 
#    0.000    0.000    0.000    1.200   10.400    0.000 
#    0.000    0.000    0.000    0.000    0.000    0.000 
#
# Total GULP energy -111340.697009 kJ/mol
# GULP energy per Si atom -5567.034850 kJ/mol
# Density = 2.017457 g / cm^3
# Si number density = 20.220597 Si / 1000 Ang^3
#
#
#
# Elastic Constant Matrix: (Units=GPa)
#
#
# Indices 1 2 3 4 5 6 
#
# 1 76.3157 21.5904 60.4813 -0.0001 -17.0344 0.0001
# 2 21.5904 65.6660 23.3750 0.0000 -16.3472 0.0000
# 3 60.4813 23.3750 121.9049 0.0000 -13.2898 0.0000
# 4 -0.0001 0.0000 0.0000 25.3610 0.0000 -12.8210
# 5 -17.0344 -16.3472 -13.2898 0.0000 43.7197 0.0000
# 6 0.0001 0.0000 0.0000 -12.8210 0.0000 19.3652
#
#
#
# Elastic Compliance Matrix: (Units=1/GPa)
#
#
# Indices 1 2 3 4 5 6 
#
# 1 0.023275 -0.002704 -0.010498 0.000000 0.004866 0.000000
# 2 -0.002704 0.017957 -0.001535 0.000000 0.005194 0.000000
# 3 -0.010498 -0.001535 0.013650 0.000000 -0.000515 0.000000
# 4 0.000000 0.000000 0.000000 0.059267 0.000000 0.039239
# 5 0.004866 0.005194 -0.000515 0.000000 0.026554 0.000000
# 6 0.000000 0.000000 0.000000 0.039239 0.000000 0.077618
#
#
# Mechanical properties :
#
#
# Convention : Reuss Voigt Hill
#
# Bulk Modulus (GPa) = 39.36050 52.75333 46.05692
# Shear Modulus (GPa) = 19.51097 28.25183 23.88140
#
# Velocity S-wave (km/s) = 3.10966 3.74194 3.44036
# Velocity P-wave (km/s) = 5.69220 6.69441 6.21354
#
# Compressibility (1/GPa) = 0.02540618
#
# Stress axis : x y z
#
# Youngs Moduli (GPa) = 42.96488 55.68783 73.26003
#
# Poissons Ratio (x) = 0.15058 0.76912
# Poissons Ratio (y) = 0.11618 0.11249
# Poissons Ratio (z) = 0.45107 0.08551
#
# Static dielectric constant tensor:
#      x y z
#    x 1.812110 0.000000 0.018300 
#    y 0.000000 1.685620 0.000000 
#    z 0.018300 0.000000 1.813210 
# 
# From -- ./inp_files/89345.got.cif
#   From: 2010.05.17/outbox.cif.g08.bks.cpg/sg15_45_cif.got.tgz:89345.got - 2010.06.03 18:47:42.
