data_PCOD9298273
_publ_section_title
;
Structure prediction by ZEFSAII (Michael W. Deem and Ramdas Pophale) SiO2 
 PCOD9298273
Probable space group: C 2/C
;
_chemical_formula_sum "Si O2"
_cell_formula_units_Z 44
_cell_length_a 26.026517
_cell_length_b 5.085152
_cell_length_c 12.986185
_cell_angle_alpha 90.000000
_cell_angle_beta 80.973774
_cell_angle_gamma 90.000000
_cell_volume 1697.422569
_symmetry_space_group_name_H-M "C 2/C"
_symmetry_group_IT_number 15
_symmetry_cell_setting 'monoclinic'
loop_
_space_group_symop_operation_xyz
x,y,z
-x,y,1/2-z
-x,-y,-z
x,-y,1/2+z
1/2+x,1/2+y,z
1/2-x,1/2+y,1/2-z
1/2-x,1/2-y,-z
1/2+x,1/2-y,1/2+z
loop_
_atom_site_type_symbol
_atom_site_label
_atom_site_fract_x
_atom_site_fract_y
_atom_site_fract_z
Si Si1 0.849057 0.284443 0.000405
Si Si2 0.500000 0.715881 0.750000
Si Si3 0.718523 0.145103 0.787055
Si Si4 0.636358 0.496717 0.205516
Si Si5 0.429294 0.587662 0.596601
Si Si6 0.931972 0.644312 0.895610
O O1 0.801264 0.332505 0.090084
O O2 0.896865 0.138859 0.047146
O O3 0.875280 0.547281 0.951914
O O4 0.835723 0.132641 0.900156
O O5 0.476317 0.551567 0.661685
O O6 0.461100 0.922238 0.821506
O O7 0.764620 0.352883 0.748727
O O8 0.670940 0.268413 0.738129
O O9 0.616227 0.318219 0.308045
O O10 0.583922 0.617454 0.172750
O O11 0.453486 0.767399 0.499458
#
# Coordination Sequence:
#
# PCOD9298273 Si02
#       6
#     8   4   8   8   8   8
#     4  10  24  45  72  97 144 192 231 299 373 432
#     4  12  24  42  72 106 142 184 248 296 346 434
#     4  11  28  45  74 111 143 185 250 309 364 451
#     4  10  24  46  71  96 146 191 231 301 377 426
#     4  10  24  44  65 104 139 186 235 294 356 422
#     4  11  25  45  70 103 140 194 240 290 363 436
#
# _framework density 25.921655000000001
#
# number of rings (size 3 to 8) (size 9 to 14) (size 15 to 20)
#    0.000    1.455    1.818    0.545   15.273    2.909 
#    0.000    0.000    0.000    0.000    0.000    0.000 
#    0.000    0.000    0.000    0.000    0.000    0.000 
#
# Total GULP energy -122908.701309 kJ/mol
# GULP energy per Si atom -5586.759150 kJ/mol
# Density = 2.586266 g / cm^3
# Si number density = 25.921655 Si / 1000 Ang^3
#
#
#
# Elastic Constant Matrix: (Units=GPa)
#
#
# Indices 1 2 3 4 5 6 
#
# 1 71.1213 -3.2400 42.8277 0.0000 -3.7224 0.0000
# 2 -3.2400 57.9245 50.6258 0.0000 -9.0148 0.0000
# 3 42.8277 50.6258 206.5769 0.0000 -21.6014 0.0000
# 4 0.0000 0.0000 0.0000 38.4821 0.0000 -13.4066
# 5 -3.7224 -9.0148 -21.6014 0.0000 55.8448 0.0000
# 6 0.0000 0.0000 0.0000 -13.4066 0.0000 34.5854
#
#
#
# Elastic Compliance Matrix: (Units=1/GPa)
#
#
# Indices 1 2 3 4 5 6 
#
# 1 0.017213 0.005204 -0.004832 0.000000 0.000118 0.000000
# 2 0.005204 0.023668 -0.006715 0.000000 0.001570 0.000000
# 3 -0.004832 -0.006715 0.007651 0.000000 0.001553 0.000000
# 4 0.000000 0.000000 0.000000 0.030043 0.000000 0.011646
# 5 0.000118 0.001570 0.001553 0.000000 0.018769 0.000000
# 6 0.000000 0.000000 0.000000 0.011646 0.000000 0.033428
#
#
# Mechanical properties :
#
#
# Convention : Reuss Voigt Hill
#
# Bulk Modulus (GPa) = 27.89643 57.33885 42.61764
# Shear Modulus (GPa) = 32.17352 42.14307 37.15830
#
# Velocity S-wave (km/s) = 3.52687 4.03648 3.79025
# Velocity P-wave (km/s) = 5.23166 6.62513 5.96919
#
# Compressibility (1/GPa) = 0.03584689
#
# Stress axis : x y z
#
# Youngs Moduli (GPa) = 58.09467 42.25058 130.70831
#
# Poissons Ratio (x) = -0.21988 0.63154
# Poissons Ratio (y) = -0.30233 0.87772
# Poissons Ratio (z) = 0.28069 0.28372
#
# Static dielectric constant tensor:
#      x y z
#    x 2.199280 0.000000 0.043510 
#    y 0.000000 2.065440 0.000000 
#    z 0.043510 0.000000 2.041050 
# 
# From -- ./inp_files/125011.got.cif
#   From: 2010.05.17/outbox.cif.g08.bks.cpg/sg15_63_cif.got.tgz:125011.got - 2010.06.03 18:47:42.
