data_PCOD9298565
_publ_section_title
;
Structure prediction by ZEFSAII (Michael W. Deem and Ramdas Pophale) SiO2 
 PCOD9298565
Probable space group: C 2/C
;
_chemical_formula_sum "Si O2"
_cell_formula_units_Z 28
_cell_length_a 7.592583
_cell_length_b 6.994009
_cell_length_c 18.293867
_cell_angle_alpha 90.000000
_cell_angle_beta 94.340651
_cell_angle_gamma 90.000000
_cell_volume 968.665360
_symmetry_space_group_name_H-M "C 2/C"
_symmetry_group_IT_number 15
_symmetry_cell_setting 'monoclinic'
loop_
_space_group_symop_operation_xyz
x,y,z
-x,y,1/2-z
-x,-y,-z
x,-y,1/2+z
1/2+x,1/2+y,z
1/2-x,1/2+y,1/2-z
1/2-x,1/2-y,-z
1/2+x,1/2-y,1/2+z
loop_
_atom_site_type_symbol
_atom_site_label
_atom_site_fract_x
_atom_site_fract_y
_atom_site_fract_z
Si Si1 0.000000 0.569426 0.750000
Si Si2 0.685453 0.796173 0.395004
Si Si3 0.996267 0.806111 0.172054
Si Si4 0.691788 0.119650 0.565419
O O1 0.116719 0.693655 0.808198
O O2 0.070403 0.405843 0.695304
O O3 0.878919 0.888281 0.387433
O O4 0.519498 0.880979 0.432848
O O5 0.727684 0.592881 0.432474
O O6 0.000000 0.909885 0.250000
O O7 0.797369 0.787742 0.137820
O O8 0.750000 0.250000 0.500000
#
# Coordination Sequence:
#
# PCOD9298565 Si02
#       4
#     4   8   8   8
#     4  10  24  44  74 114 136 200 260 326 388 464
#     4  12  25  47  73 108 151 198 259 321 389 462
#     4  10  25  45  73 105 145 190 258 324 393 457
#     4  12  28  46  72 110 155 206 258 317 391 470
#
# _framework density 28.905754000000002
#
# number of rings (size 3 to 8) (size 9 to 14) (size 15 to 20)
#    0.857    0.000    2.857    2.571    6.000    2.286 
#    0.000    0.000    0.000    0.000    0.000    0.000 
#    0.000    0.000    0.000    0.000    0.000    0.000 
#
# Total GULP energy -78272.090663 kJ/mol
# GULP energy per Si atom -5590.863619 kJ/mol
# Density = 2.883996 g / cm^3
# Si number density = 28.905754 Si / 1000 Ang^3
#
#
#
# Elastic Constant Matrix: (Units=GPa)
#
#
# Indices 1 2 3 4 5 6 
#
# 1 198.3385 72.9802 46.9252 0.0000 -22.0052 0.0000
# 2 72.9802 131.3883 31.8615 0.0000 -3.5368 0.0000
# 3 46.9252 31.8615 126.2113 0.0000 7.0233 0.0000
# 4 0.0000 0.0000 0.0000 39.2250 0.0000 11.0100
# 5 -22.0052 -3.5368 7.0233 0.0000 63.7866 0.0000
# 6 0.0000 0.0000 0.0000 11.0100 0.0000 57.1000
#
#
#
# Elastic Compliance Matrix: (Units=1/GPa)
#
#
# Indices 1 2 3 4 5 6 
#
# 1 0.006996 -0.003363 -0.001888 0.000000 0.002435 0.000000
# 2 -0.003363 0.009753 -0.001185 0.000000 -0.000489 0.000000
# 3 -0.001888 -0.001185 0.009019 0.000000 -0.001710 0.000000
# 4 0.000000 0.000000 0.000000 0.026953 0.000000 -0.005197
# 5 0.002435 -0.000489 -0.001710 0.000000 0.016678 0.000000
# 6 0.000000 0.000000 0.000000 -0.005197 0.000000 0.018515
#
#
# Mechanical properties :
#
#
# Convention : Reuss Voigt Hill
#
# Bulk Modulus (GPa) = 77.53024 84.38577 80.95800
# Shear Modulus (GPa) = 47.58103 52.30039 49.94071
#
# Velocity S-wave (km/s) = 4.06159 4.25825 4.16108
# Velocity P-wave (km/s) = 6.99108 7.30984 7.15224
#
# Compressibility (1/GPa) = 0.01289819
#
# Stress axis : x y z
#
# Youngs Moduli (GPa) = 142.93998 102.53333 110.87353
#
# Poissons Ratio (x) = 0.34478 0.20930
# Poissons Ratio (y) = 0.48065 0.13135
# Poissons Ratio (z) = 0.26983 0.12147
#
# Static dielectric constant tensor:
#      x y z
#    x 2.259020 0.000000 -0.096230 
#    y 0.000000 2.302940 0.000000 
#    z -0.096230 0.000000 2.420370 
# 
# From -- ./inp_files/187150.got.cif
#   From: 2010.05.17/outbox.cif.g08.bks.cpg/sg15_94_cif.got.tgz:187150.got - 2010.06.03 18:47:42.
