data_PCOD9298873
_publ_section_title
;
Structure prediction by ZEFSAII (Michael W. Deem and Ramdas Pophale) SiO2 
 PCOD9298873
Probable space group: C 2/C
;
_chemical_formula_sum "Si O2"
_cell_formula_units_Z 40
_cell_length_a 25.633683
_cell_length_b 4.980199
_cell_length_c 14.601276
_cell_angle_alpha 90.000000
_cell_angle_beta 126.284500
_cell_angle_gamma 90.000000
_cell_volume 1502.557816
_symmetry_space_group_name_H-M "C 2/C"
_symmetry_group_IT_number 15
_symmetry_cell_setting 'monoclinic'
loop_
_space_group_symop_operation_xyz
x,y,z
-x,y,1/2-z
-x,-y,-z
x,-y,1/2+z
1/2+x,1/2+y,z
1/2-x,1/2+y,1/2-z
1/2-x,1/2-y,-z
1/2+x,1/2-y,1/2+z
loop_
_atom_site_type_symbol
_atom_site_label
_atom_site_fract_x
_atom_site_fract_y
_atom_site_fract_z
Si Si1 0.902993 0.150450 0.038742
Si Si2 0.589462 0.109851 0.193717
Si Si3 0.000000 0.000000 0.500000
Si Si4 0.657874 0.588126 0.326559
Si Si5 0.000000 0.487207 0.750000
Si Si6 0.270688 0.753457 0.827225
O O1 0.846195 0.301611 0.924037
O O2 0.862353 0.070679 0.088600
O O3 0.961046 0.329461 0.138788
O O4 0.941818 0.934345 0.018165
O O5 0.541864 0.231180 0.069555
O O6 0.650775 0.301222 0.270450
O O7 0.607382 0.796359 0.222436
O O8 0.551270 0.178639 0.247693
O O9 0.728005 0.698871 0.373941
O O10 0.259585 0.455772 0.778238
#
# Coordination Sequence:
#
# PCOD9298873 Si02
#       6
#     8   8   4   8   4   8
#     4  11  25  44  74 105 149 195 242 304 369 445
#     4  11  24  42  70 102 146 189 240 301 364 439
#     4  12  22  40  68 108 142 188 242 298 364 430
#     4  11  24  47  69 102 144 193 245 300 369 442
#     4  10  24  46  68 106 148 198 246 300 372 448
#     4  12  27  48  74 106 143 189 248 308 367 434
#
# _framework density 26.621274
#
# number of rings (size 3 to 8) (size 9 to 14) (size 15 to 20)
#    0.000    0.800    0.000    7.800    0.000   10.400 
#    0.000    7.000    0.000    0.000    0.000    0.000 
#    0.000    0.000    0.000    0.000    0.000    0.000 
#
# Total GULP energy -111404.909969 kJ/mol
# GULP energy per Si atom -5570.245498 kJ/mol
# Density = 2.656068 g / cm^3
# Si number density = 26.621274 Si / 1000 Ang^3
#
#
#
# Elastic Constant Matrix: (Units=GPa)
#
#
# Indices 1 2 3 4 5 6 
#
# 1 217.8310 2.3791 29.2796 0.0000 7.9159 0.0000
# 2 2.3791 55.5298 8.1411 0.0000 -3.6951 0.0000
# 3 29.2796 8.1411 95.5702 0.0000 11.6457 0.0000
# 4 0.0000 0.0000 0.0000 19.3067 0.0000 -0.8302
# 5 7.9159 -3.6951 11.6457 0.0000 49.3204 0.0000
# 6 0.0000 0.0000 0.0000 -0.8302 0.0000 34.0782
#
#
#
# Elastic Compliance Matrix: (Units=1/GPa)
#
#
# Indices 1 2 3 4 5 6 
#
# 1 0.004797 -0.000027 -0.001414 0.000000 -0.000438 0.000000
# 2 -0.000027 0.018390 -0.001778 0.000000 0.001802 0.000000
# 3 -0.001414 -0.001778 0.011364 0.000000 -0.002589 0.000000
# 4 0.000000 0.000000 0.000000 0.051850 0.000000 0.001263
# 5 -0.000438 0.001802 -0.002589 0.000000 0.021092 0.000000
# 6 0.000000 0.000000 0.000000 0.001263 0.000000 0.029375
#
#
# Mechanical properties :
#
#
# Convention : Reuss Voigt Hill
#
# Bulk Modulus (GPa) = 35.57121 49.83675 42.70398
# Shear Modulus (GPa) = 32.74888 42.48312 37.61600
#
# Velocity S-wave (km/s) = 3.51119 3.99912 3.76307
# Velocity P-wave (km/s) = 5.46159 6.33129 5.91245
#
# Compressibility (1/GPa) = 0.02811262
#
# Stress axis : x y z
#
# Youngs Moduli (GPa) = 208.46419 54.37725 87.99971
#
# Poissons Ratio (x) = 0.00149 0.12443
# Poissons Ratio (y) = 0.00571 0.15644
# Poissons Ratio (z) = 0.29475 0.09667
#
# Static dielectric constant tensor:
#      x y z
#    x 2.141760 0.000000 -0.067570 
#    y 0.000000 2.302140 0.000000 
#    z -0.067570 0.000000 2.196740 
# 
# From -- ./inp_files/179882.got.cif
#   From: 2010.05.17/outbox.cif.g08.bks.cpg/sg15_90_cif.got.tgz:179882.got - 2010.06.03 18:47:42.
