data_PCOD9298011
_publ_section_title
;
Structure prediction by ZEFSAII (Michael W. Deem and Ramdas Pophale) SiO2 
 PCOD9298011
Probable space group: C 2/C
;
_chemical_formula_sum "Si O2"
_cell_formula_units_Z 52
_cell_length_a 6.469369
_cell_length_b 23.621687
_cell_length_c 17.217835
_cell_angle_alpha 90.000000
_cell_angle_beta 112.030196
_cell_angle_gamma 90.000000
_cell_volume 2439.072398
_symmetry_space_group_name_H-M "C 2/C"
_symmetry_group_IT_number 15
_symmetry_cell_setting 'monoclinic'
loop_
_space_group_symop_operation_xyz
x,y,z
-x,y,1/2-z
-x,-y,-z
x,-y,1/2+z
1/2+x,1/2+y,z
1/2-x,1/2+y,1/2-z
1/2-x,1/2-y,-z
1/2+x,1/2-y,1/2+z
loop_
_atom_site_type_symbol
_atom_site_label
_atom_site_fract_x
_atom_site_fract_y
_atom_site_fract_z
Si Si1 0.881340 0.204741 0.071734
Si Si2 0.552747 0.006384 0.099775
Si Si3 0.506666 0.134132 0.408580
Si Si4 0.661505 0.760674 0.838612
Si Si5 0.413258 0.662347 0.552285
Si Si6 0.000000 0.015422 0.750000
Si Si7 0.301120 0.915310 0.173398
O O1 0.725826 0.162227 0.096823
O O2 0.077811 0.236300 0.146360
O O3 0.750000 0.250000 0.000000
O O4 0.012972 0.170275 0.025402
O O5 0.480711 0.069451 0.114985
O O6 0.415881 0.956969 0.125885
O O7 0.815063 0.008236 0.162079
O O8 0.500000 0.000000 0.000000
O O9 0.579986 0.176997 0.351232
O O10 0.667758 0.136426 0.507593
O O11 0.500000 0.737748 0.750000
O O12 0.623419 0.720883 0.907838
O O13 0.613232 0.626798 0.616131
O O14 0.833141 0.048030 0.783122
O O15 0.500000 0.886066 0.250000
#
# Coordination Sequence:
#
# PCOD9298011 Si02
#       7
#     8   8   8   8   8   4   8
#     4  11  20  41  63  85 125 166 211 254 322 388
#     4  11  24  43  68  98 129 174 230 277 341 410
#     4  11  23  42  66  90 127 171 216 268 326 399
#     4  11  25  39  59  97 129 165 213 268 331 393
#     4  11  22  40  65  91 127 166 214 270 322 395
#     4  10  24  44  64  92 134 170 218 278 332 398
#     4  10  24  43  64  98 133 171 221 281 344 399
#
# _framework density 21.319580999999999
#
# number of rings (size 3 to 8) (size 9 to 14) (size 15 to 20)
#    0.000    1.231    3.077    2.769    1.077   11.077 
#    0.000    0.000    0.000    0.000    0.000    0.000 
#    0.000    0.000    0.000    0.000    0.000    0.000 
#
# Total GULP energy -144839.503167 kJ/mol
# GULP energy per Si atom -5570.750122 kJ/mol
# Density = 2.127106 g / cm^3
# Si number density = 21.319581 Si / 1000 Ang^3
#
#
#
# Elastic Constant Matrix: (Units=GPa)
#
#
# Indices 1 2 3 4 5 6 
#
# 1 84.9926 8.1832 32.9787 0.0000 20.4659 0.0000
# 2 8.1832 54.5610 2.9451 0.0000 15.6165 0.0000
# 3 32.9787 2.9451 110.5227 0.0000 31.7008 0.0000
# 4 0.0000 0.0000 0.0000 22.0869 0.0000 13.0068
# 5 20.4659 15.6165 31.7008 0.0000 39.9156 0.0000
# 6 0.0000 0.0000 0.0000 13.0068 0.0000 18.4779
#
#
#
# Elastic Compliance Matrix: (Units=1/GPa)
#
#
# Indices 1 2 3 4 5 6 
#
# 1 0.014058 -0.000602 -0.002822 0.000000 -0.004732 0.000000
# 2 -0.000602 0.021121 0.002458 0.000000 -0.009907 0.000000
# 3 -0.002822 0.002458 0.012542 0.000000 -0.009476 0.000000
# 4 0.000000 0.000000 0.000000 0.077332 0.000000 -0.054435
# 5 -0.004732 -0.009907 -0.009476 0.000000 0.038881 0.000000
# 6 0.000000 0.000000 0.000000 -0.054435 0.000000 0.092437
#
#
# Mechanical properties :
#
#
# Convention : Reuss Voigt Hill
#
# Bulk Modulus (GPa) = 21.83801 37.58781 29.71291
# Shear Modulus (GPa) = 18.27718 29.82735 24.05227
#
# Velocity S-wave (km/s) = 2.93114 3.74446 3.36248
# Velocity P-wave (km/s) = 4.66056 6.03022 5.38908
#
# Compressibility (1/GPa) = 0.04579172
#
# Stress axis : x y z
#
# Youngs Moduli (GPa) = 71.13470 47.34543 79.72988
#
# Poissons Ratio (x) = 0.02849 0.22496
# Poissons Ratio (y) = 0.04281 -0.19601
# Poissons Ratio (z) = 0.20071 -0.11640
#
# Static dielectric constant tensor:
#      x y z
#    x 1.887720 0.000000 0.120680 
#    y 0.000000 1.816460 0.000000 
#    z 0.120680 0.000000 1.889940 
# 
# From -- ./inp_files/186307.got.cif
#   From: 2010.05.17/outbox.cif.g08.bks.cpg/sg15_94_cif.got.tgz:186307.got - 2010.06.03 18:47:42.
