data_PCOD9298706
_publ_section_title
;
Structure prediction by ZEFSAII (Michael W. Deem and Ramdas Pophale) SiO2 
 PCOD9298706
Probable space group: C 2/C
;
_chemical_formula_sum "Si O2"
_cell_formula_units_Z 56
_cell_length_a 19.945773
_cell_length_b 17.603297
_cell_length_c 19.871760
_cell_angle_alpha 90.000000
_cell_angle_beta 159.625070
_cell_angle_gamma 90.000000
_cell_volume 2429.195504
_symmetry_space_group_name_H-M "C 2/C"
_symmetry_group_IT_number 15
_symmetry_cell_setting 'monoclinic'
loop_
_space_group_symop_operation_xyz
x,y,z
-x,y,1/2-z
-x,-y,-z
x,-y,1/2+z
1/2+x,1/2+y,z
1/2-x,1/2+y,1/2-z
1/2-x,1/2-y,-z
1/2+x,1/2-y,1/2+z
loop_
_atom_site_type_symbol
_atom_site_label
_atom_site_fract_x
_atom_site_fract_y
_atom_site_fract_z
Si Si1 0.152184 0.681208 0.252038
Si Si2 0.794026 0.848384 0.653227
Si Si3 0.219413 0.648581 0.662278
Si Si4 0.545518 0.559242 0.918648
Si Si5 0.500000 0.775592 0.750000
Si Si6 0.094034 0.323514 0.267377
Si Si7 0.906318 0.900200 0.477222
Si Si8 0.000000 0.031077 0.250000
O O1 0.220277 0.764575 0.294652
O O2 0.329083 0.627982 0.436540
O O3 0.033256 0.689008 0.209388
O O4 0.007605 0.645234 0.061986
O O5 0.861296 0.765909 0.690385
O O6 0.565825 0.843546 0.438075
O O7 0.865833 0.914471 0.669799
O O8 0.887091 0.863076 0.813347
O O9 0.329096 0.591509 0.714524
O O10 0.301446 0.625535 0.811880
O O11 0.600990 0.525213 0.898435
O O12 0.571287 0.489509 0.993665
O O13 0.250000 0.750000 0.500000
O O14 0.283094 0.368614 0.424842
O O15 0.000000 0.343875 0.250000
#
# Coordination Sequence:
#
# PCOD9298706 Si02
#       8
#     8   8   8   8   4   8   8   4
#     4  12  27  45  79 107 144 192 262 318 388 471
#     4  11  22  41  69 103 145 189 233 295 357 452
#     4  12  26  48  73 105 140 194 251 315 374 466
#     4  11  26  49  70 107 147 190 244 316 389 462
#     4  12  24  47  80 119 154 198 260 346 406 453
#     4  12  22  38  69 103 145 190 243 295 356 446
#     4  11  28  45  71 107 149 195 241 305 384 456
#     4  10  24  45  70 103 148 188 240 304 390 451
#
# _framework density 23.052897999999999
#
# number of rings (size 3 to 8) (size 9 to 14) (size 15 to 20)
#    0.000    0.571    5.000    2.571    4.000    4.571 
#    1.286    0.000    0.000    0.000    0.000    0.000 
#    0.000    0.000    0.000    0.000    0.000    0.000 
#
# Total GULP energy -156276.334354 kJ/mol
# GULP energy per Si atom -5581.297655 kJ/mol
# Density = 2.300043 g / cm^3
# Si number density = 23.052898 Si / 1000 Ang^3
#
#
#
# Elastic Constant Matrix: (Units=GPa)
#
#
# Indices 1 2 3 4 5 6 
#
# 1 64.7145 23.1243 26.1491 0.0072 -12.3081 0.0034
# 2 23.1243 120.6532 21.3269 0.0260 1.8582 0.0257
# 3 26.1491 21.3269 107.4059 0.0290 -9.0302 0.0325
# 4 0.0072 0.0260 0.0290 34.2580 0.0166 -18.7306
# 5 -12.3081 1.8582 -9.0302 0.0166 42.1995 0.0143
# 6 0.0034 0.0257 0.0325 -18.7306 0.0143 0.0474
#
#
#
# Elastic Compliance Matrix: (Units=1/GPa)
#
#
# Indices 1 2 3 4 5 6 
#
# 1 0.018929 -0.003069 -0.003588 -0.000003 0.004888 -0.000004
# 2 -0.003069 0.009111 -0.001192 0.000009 -0.001551 0.000024
# 3 -0.003588 -0.001192 0.010527 0.000017 0.001259 0.000046
# 4 -0.000003 0.000009 0.000017 -0.000136 0.000021 -0.053636
# 5 0.004888 -0.001551 0.001259 0.000021 0.025460 0.000062
# 6 -0.000004 0.000024 0.000046 -0.053636 0.000062 -0.098100
#
#
# Mechanical properties :
#
#
# Convention : Reuss Voigt Hill
#
# Bulk Modulus (GPa) = 43.73006 48.21936 45.97471
# Shear Modulus (GPa) = -459.22980 30.11254 -214.55863
#
# Velocity S-wave (km/s) = -14.12938 3.61811 -9.65786
# Velocity P-wave (km/s) = 15.72181 6.19811 10.21662
#
# Compressibility (1/GPa) = 0.02286757
#
# Stress axis : x y z
#
# Youngs Moduli (GPa) = 52.83017 109.75672 94.99768
#
# Poissons Ratio (x) = 0.33683 0.34085
# Poissons Ratio (y) = 0.16213 0.11328
# Poissons Ratio (z) = 0.18956 0.13088
#
# Static dielectric constant tensor:
#      x y z
#    x 1.910260 -0.000010 0.034740 
#    y -0.000010 1.843690 -0.000020 
#    z 0.034740 -0.000020 2.215840 
# 
# From -- ./inp_files/253402.got.cif
#   From: 2010.05.17/outbox.cif.g08.bks.cpg/sg15_127_cif.got.tgz:253402.got - 2010.06.03 18:47:42.
