data_PCOD9298286
_publ_section_title
;
Structure prediction by ZEFSAII (Michael W. Deem and Ramdas Pophale) SiO2 
 PCOD9298286
Probable space group: C 2/C
;
_chemical_formula_sum "Si O2"
_cell_formula_units_Z 28
_cell_length_a 10.553701
_cell_length_b 7.235140
_cell_length_c 21.936924
_cell_angle_alpha 90.000000
_cell_angle_beta 143.425734
_cell_angle_gamma 90.000000
_cell_volume 998.101652
_symmetry_space_group_name_H-M "C 2/C"
_symmetry_group_IT_number 15
_symmetry_cell_setting 'monoclinic'
loop_
_space_group_symop_operation_xyz
x,y,z
-x,y,1/2-z
-x,-y,-z
x,-y,1/2+z
1/2+x,1/2+y,z
1/2-x,1/2+y,1/2-z
1/2-x,1/2-y,-z
1/2+x,1/2-y,1/2+z
loop_
_atom_site_type_symbol
_atom_site_label
_atom_site_fract_x
_atom_site_fract_y
_atom_site_fract_z
Si Si1 0.500000 0.607240 0.250000
Si Si2 0.065532 0.255397 0.710823
Si Si3 0.962235 0.237832 0.929545
Si Si4 0.014112 0.196394 0.429057
O O1 0.499702 0.457776 0.304874
O O2 0.288686 0.724306 0.163468
O O3 0.975273 0.327633 0.611799
O O4 0.321443 0.251423 0.810100
O O5 0.000000 0.348960 0.750000
O O6 0.003390 0.021612 0.936998
O O7 0.046548 0.290723 0.028793
O O8 0.250000 0.250000 0.500000
#
# Coordination Sequence:
#
# PCOD9298286 Si02
#       4
#     4   8   8   8
#     4  10  24  44  68 100 132 180 226 272 334 396
#     4  10  24  44  66 100 136 177 225 276 333 402
#     4  11  22  44  70  95 140 176 220 284 326 401
#     4  11  25  44  68 105 133 176 229 273 341 399
#
# _framework density 28.053253999999999
#
# number of rings (size 3 to 8) (size 9 to 14) (size 15 to 20)
#    0.857    0.571    0.000    5.143    2.000    2.286 
#   10.286    0.000    0.000    0.000    0.000    0.000 
#    0.000    0.000    0.000    0.000    0.000    0.000 
#
# Total GULP energy -78407.161946 kJ/mol
# GULP energy per Si atom -5600.511568 kJ/mol
# Density = 2.798940 g / cm^3
# Si number density = 28.053254 Si / 1000 Ang^3
#
#
#
# Elastic Constant Matrix: (Units=GPa)
#
#
# Indices 1 2 3 4 5 6 
#
# 1 168.7066 18.0726 62.7596 0.0000 -36.2803 0.0000
# 2 18.0726 95.1762 29.6810 0.0000 42.5986 0.0000
# 3 62.7596 29.6810 153.4909 0.0000 0.7630 0.0000
# 4 0.0000 0.0000 0.0000 39.3166 0.0000 21.7796
# 5 -36.2803 42.5986 0.7630 0.0000 87.0859 0.0000
# 6 0.0000 0.0000 0.0000 21.7796 0.0000 36.7185
#
#
#
# Elastic Compliance Matrix: (Units=1/GPa)
#
#
# Indices 1 2 3 4 5 6 
#
# 1 0.008372 -0.002895 -0.002888 0.000000 0.004929 0.000000
# 2 -0.002895 0.015548 -0.001779 0.000000 -0.008796 0.000000
# 3 -0.002888 -0.001779 0.008042 0.000000 -0.000403 0.000000
# 4 0.000000 0.000000 0.000000 0.037882 0.000000 -0.022470
# 5 0.004929 -0.008796 -0.000403 0.000000 0.017843 0.000000
# 6 0.000000 0.000000 0.000000 -0.022470 0.000000 0.040562
#
#
# Mechanical properties :
#
#
# Convention : Reuss Voigt Hill
#
# Bulk Modulus (GPa) = 59.39033 70.93335 65.16184
# Shear Modulus (GPa) = 33.56029 53.08156 43.32093
#
# Velocity S-wave (km/s) = 3.46252 4.35463 3.93394
# Velocity P-wave (km/s) = 6.09934 7.11504 6.62668
#
# Compressibility (1/GPa) = 0.01683776
#
# Stress axis : x y z
#
# Youngs Moduli (GPa) = 119.44674 64.31521 124.35019
#
# Poissons Ratio (x) = 0.18622 0.35909
# Poissons Ratio (y) = 0.34585 0.22122
# Poissons Ratio (z) = 0.34493 0.11442
#
# Static dielectric constant tensor:
#      x y z
#    x 2.377770 0.000000 -0.073940 
#    y 0.000000 2.087670 0.000000 
#    z -0.073940 0.000000 2.110560 
# 
# From -- ./inp_files/291401.got.cif
#   From: 2010.05.17/outbox.cif.g08.bks.cpg/sg15_146_cif.got.tgz:291401.got - 2010.06.03 18:47:42.
