data_PCOD9298616
_publ_section_title
;
Structure prediction by ZEFSAII (Michael W. Deem and Ramdas Pophale) SiO2 
 PCOD9298616
Probable space group: C 2/C
;
_chemical_formula_sum "Si O2"
_cell_formula_units_Z 40
_cell_length_a 16.820994
_cell_length_b 11.337962
_cell_length_c 17.624687
_cell_angle_alpha 90.000000
_cell_angle_beta 149.322382
_cell_angle_gamma 90.000000
_cell_volume 1714.961866
_symmetry_space_group_name_H-M "C 2/C"
_symmetry_group_IT_number 15
_symmetry_cell_setting 'monoclinic'
loop_
_space_group_symop_operation_xyz
x,y,z
-x,y,1/2-z
-x,-y,-z
x,-y,1/2+z
1/2+x,1/2+y,z
1/2-x,1/2+y,1/2-z
1/2-x,1/2-y,-z
1/2+x,1/2-y,1/2+z
loop_
_atom_site_type_symbol
_atom_site_label
_atom_site_fract_x
_atom_site_fract_y
_atom_site_fract_z
Si Si1 0.903171 0.513332 0.515897
Si Si2 0.547397 0.433731 0.448899
Si Si3 0.418907 0.214476 0.110747
Si Si4 0.269387 0.988242 0.743316
Si Si5 0.340238 0.373955 0.573563
O O1 0.921420 0.372480 0.541382
O O2 0.834277 0.552265 0.378418
O O3 0.781772 0.545512 0.480926
O O4 0.082129 0.556173 0.669915
O O5 0.508417 0.339075 0.352685
O O6 0.695262 0.396202 0.622575
O O7 0.388255 0.442422 0.365519
O O8 0.606209 0.555630 0.458152
O O9 0.500000 0.156402 0.250000
O O10 0.250000 0.250000 0.000000
O O11 0.500000 0.358258 0.750000
O O12 0.250000 0.250000 0.500000
#
# Coordination Sequence:
#
# PCOD9298616 Si02
#       5
#     8   8   8   8   8
#     4  11  24  47  67 105 139 178 239 282 357 407
#     4  11  23  48  68 102 141 184 237 280 356 406
#     4  12  23  40  77 103 135 175 229 300 342 411
#     4  10  24  45  65  98 146 182 220 291 339 424
#     4  12  27  48  74  97 137 189 239 287 340 423
#
# _framework density 23.324134000000001
#
# number of rings (size 3 to 8) (size 9 to 14) (size 15 to 20)
#    0.000    0.800    4.000    3.000    2.800    0.000 
#   21.600    0.000    0.000    0.000    0.000    0.000 
#    0.000    0.000    0.000    0.000    0.000    0.000 
#
# Total GULP energy -111578.175662 kJ/mol
# GULP energy per Si atom -5578.908783 kJ/mol
# Density = 2.327105 g / cm^3
# Si number density = 23.324134 Si / 1000 Ang^3
#
#
#
# Elastic Constant Matrix: (Units=GPa)
#
#
# Indices 1 2 3 4 5 6 
#
# 1 133.9516 21.5993 49.1488 -0.0001 23.9852 0.0000
# 2 21.5993 73.4474 15.9276 -0.0001 -3.2326 0.0000
# 3 49.1488 15.9276 161.1108 -0.0001 21.0270 -0.0001
# 4 -0.0001 -0.0001 -0.0001 19.8910 -0.0001 1.2919
# 5 23.9852 -3.2326 21.0270 -0.0001 49.8045 0.0000
# 6 0.0000 0.0000 -0.0001 1.2919 0.0000 16.8202
#
#
#
# Elastic Compliance Matrix: (Units=1/GPa)
#
#
# Indices 1 2 3 4 5 6 
#
# 1 0.009304 -0.002444 -0.002107 0.000000 -0.003750 0.000000
# 2 -0.002444 0.014673 -0.001040 0.000000 0.002569 0.000000
# 3 -0.002107 -0.001040 0.007227 0.000000 -0.002104 0.000000
# 4 0.000000 0.000000 0.000000 0.050526 0.000000 -0.003881
# 5 -0.003750 0.002569 -0.002104 0.000000 0.022939 0.000000
# 6 0.000000 0.000000 0.000000 -0.003881 0.000000 0.059750
#
#
# Mechanical properties :
#
#
# Convention : Reuss Voigt Hill
#
# Bulk Modulus (GPa) = 49.94859 60.20680 55.07770
# Shear Modulus (GPa) = 27.43087 36.09208 31.76148
#
# Velocity S-wave (km/s) = 3.43311 3.93799 3.69418
# Velocity P-wave (km/s) = 6.09725 6.82247 6.47003
#
# Compressibility (1/GPa) = 0.02002058
#
# Stress axis : x y z
#
# Youngs Moduli (GPa) = 107.47925 68.15434 138.36639
#
# Poissons Ratio (x) = 0.16658 0.29158
# Poissons Ratio (y) = 0.26270 0.14392
# Poissons Ratio (z) = 0.22649 0.07089
#
# Static dielectric constant tensor:
#      x y z
#    x 1.956020 0.000000 -0.066540 
#    y 0.000000 1.981780 0.000000 
#    z -0.066540 0.000000 1.945140 
# 
# From -- ./inp_files/210827.got.cif
#   From: 2010.05.17/outbox.cif.g08.bks.cpg/sg15_106_cif.got.tgz:210827.got - 2010.06.03 18:47:42.
