data_PCOD9298851
_publ_section_title
;
Structure prediction by ZEFSAII (Michael W. Deem and Ramdas Pophale) SiO2 
 PCOD9298851
Probable space group: C 2/C
;
_chemical_formula_sum "Si O2"
_cell_formula_units_Z 32
_cell_length_a 8.954328
_cell_length_b 15.793005
_cell_length_c 13.282627
_cell_angle_alpha 90.000000
_cell_angle_beta 46.039594
_cell_angle_gamma 90.000000
_cell_volume 1352.089556
_symmetry_space_group_name_H-M "C 2/C"
_symmetry_group_IT_number 15
_symmetry_cell_setting 'monoclinic'
loop_
_space_group_symop_operation_xyz
x,y,z
-x,y,1/2-z
-x,-y,-z
x,-y,1/2+z
1/2+x,1/2+y,z
1/2-x,1/2+y,1/2-z
1/2-x,1/2-y,-z
1/2+x,1/2-y,1/2+z
loop_
_atom_site_type_symbol
_atom_site_label
_atom_site_fract_x
_atom_site_fract_y
_atom_site_fract_z
Si Si1 0.100835 0.668284 0.089646
Si Si2 0.735219 0.091510 0.634623
Si Si3 0.266554 0.719471 0.376736
Si Si4 0.584658 0.513570 0.599368
O O1 0.000000 0.670533 0.250000
O O2 0.916386 0.668547 0.092438
O O3 0.250000 0.750000 0.000000
O O4 0.247777 0.586741 0.003978
O O5 0.500000 0.065215 0.750000
O O6 0.750748 0.186661 0.667486
O O7 0.878758 0.031841 0.632337
O O8 0.813884 0.074090 0.484580
O O9 0.500000 0.688954 0.250000
O O10 0.250000 0.750000 0.500000
O O11 0.500000 0.515212 0.750000
#
# Coordination Sequence:
#
# PCOD9298851 Si02
#       4
#     8   8   8   8
#     4  12  24  43  72 105 139 184 233 287 349 420
#     4  10  24  46  67 100 142 177 236 288 341 414
#     4  11  25  43  68 102 142 180 226 289 351 412
#     4  11  25  45  73 101 137 186 234 286 347 416
#
# _framework density 23.667071
#
# number of rings (size 3 to 8) (size 9 to 14) (size 15 to 20)
#    0.000    1.000    2.500    3.000    7.000    2.000 
#    4.500    0.000    0.000    0.000    0.000    0.000 
#    0.000    0.000    0.000    0.000    0.000    0.000 
#
# Total GULP energy -89487.029783 kJ/mol
# GULP energy per Si atom -5592.939361 kJ/mol
# Density = 2.361320 g / cm^3
# Si number density = 23.667071 Si / 1000 Ang^3
#
#
#
# Elastic Constant Matrix: (Units=GPa)
#
#
# Indices 1 2 3 4 5 6 
#
# 1 157.6367 0.9376 63.9041 0.0000 -19.9872 0.0000
# 2 0.9376 98.3177 33.0320 0.0000 -15.9562 0.0000
# 3 63.9041 33.0320 182.1960 0.0000 5.7360 -0.0001
# 4 0.0000 0.0000 0.0000 -1.6470 0.0000 32.5847
# 5 -19.9872 -15.9562 5.7360 0.0000 56.7364 0.0000
# 6 0.0000 0.0000 -0.0001 32.5847 0.0000 -10.1368
#
#
#
# Elastic Compliance Matrix: (Units=1/GPa)
#
#
# Indices 1 2 3 4 5 6 
#
# 1 0.008114 0.001606 -0.003251 0.000000 0.003638 0.000000
# 2 0.001606 0.011783 -0.002830 0.000000 0.004165 0.000000
# 3 -0.003251 -0.002830 0.007226 0.000000 -0.002672 0.000000
# 4 0.000000 0.000000 0.000000 0.009700 0.000000 0.031179
# 5 0.003638 0.004165 -0.002672 0.000000 0.020349 0.000000
# 6 0.000000 0.000000 0.000000 0.031179 0.000000 0.001576
#
#
# Mechanical properties :
#
#
# Convention : Reuss Voigt Hill
#
# Bulk Modulus (GPa) = 55.03612 70.43310 62.73461
# Shear Modulus (GPa) = 67.79073 31.67563 49.73318
#
# Velocity S-wave (km/s) = 5.35777 3.66236 4.58904
# Velocity P-wave (km/s) = 7.84723 6.90713 7.39214
#
# Compressibility (1/GPa) = 0.01816989
#
# Stress axis : x y z
#
# Youngs Moduli (GPa) = 123.25033 84.86965 138.38361
#
# Poissons Ratio (x) = -0.13626 0.44994
# Poissons Ratio (y) = -0.19788 0.39169
# Poissons Ratio (z) = 0.40074 0.24022
#
# Static dielectric constant tensor:
#      x y z
#    x 1.976870 0.000000 0.174490 
#    y 0.000000 1.941820 0.000000 
#    z 0.174490 0.000000 2.003410 
# 
# From -- ./inp_files/135731.got.cif
#   From: 2010.05.17/outbox.cif.g08.bks.cpg/sg15_68_cif.got.tgz:135731.got - 2010.06.03 18:47:42.
