data_PCOD9298883
_publ_section_title
;
Structure prediction by ZEFSAII (Michael W. Deem and Ramdas Pophale) SiO2 
 PCOD9298883
Probable space group: C 2/C
;
_chemical_formula_sum "Si O2"
_cell_formula_units_Z 28
_cell_length_a 8.741971
_cell_length_b 20.817053
_cell_length_c 9.239028
_cell_angle_alpha 90.000000
_cell_angle_beta 46.387195
_cell_angle_gamma 90.000000
_cell_volume 1217.318125
_symmetry_space_group_name_H-M "C 2/C"
_symmetry_group_IT_number 15
_symmetry_cell_setting 'monoclinic'
loop_
_space_group_symop_operation_xyz
x,y,z
-x,y,1/2-z
-x,-y,-z
x,-y,1/2+z
1/2+x,1/2+y,z
1/2-x,1/2+y,1/2-z
1/2-x,1/2-y,-z
1/2+x,1/2-y,1/2+z
loop_
_atom_site_type_symbol
_atom_site_label
_atom_site_fract_x
_atom_site_fract_y
_atom_site_fract_z
Si Si1 0.500000 0.513700 0.250000
Si Si2 0.938423 0.299226 0.133014
Si Si3 0.885475 0.912951 0.095136
Si Si4 0.284837 0.826468 0.800094
O O1 0.369420 0.467654 0.227417
O O2 0.364254 0.556301 0.449916
O O3 0.774139 0.355957 0.267644
O O4 0.835651 0.241645 0.107864
O O5 0.000000 0.273067 0.250000
O O6 0.136987 0.326488 0.916631
O O7 0.120369 0.881986 0.945967
O O8 0.500000 0.831105 0.750000
#
# Coordination Sequence:
#
# PCOD9298883 Si02
#       4
#     4   8   8   8
#     4  10  24  46  68  90 132 196 206 274 318 394
#     4  12  25  41  69 105 135 170 217 277 342 393
#     4  11  24  46  68  94 140 169 230 264 332 389
#     4  12  25  41  69 105 135 170 217 277 342 393
#
# _framework density 23.001383000000001
#
# number of rings (size 3 to 8) (size 9 to 14) (size 15 to 20)
#    0.000    0.571    2.857    5.143    4.000    0.000 
#    0.000   28.571    0.000    0.000    0.000    0.000 
#    0.000    0.000    0.000    0.000    0.000    0.000 
#
# Total GULP energy -78396.592750 kJ/mol
# GULP energy per Si atom -5599.756625 kJ/mol
# Density = 2.294903 g / cm^3
# Si number density = 23.001383 Si / 1000 Ang^3
#
#
#
# Elastic Constant Matrix: (Units=GPa)
#
#
# Indices 1 2 3 4 5 6 
#
# 1 51.8783 37.0507 1.0918 0.0000 7.3014 0.0000
# 2 37.0507 123.0592 27.5823 0.0000 -1.7747 0.0000
# 3 1.0918 27.5823 70.1222 0.0000 8.0956 0.0000
# 4 0.0000 0.0000 0.0000 15.9052 0.0000 -8.3623
# 5 7.3014 -1.7747 8.0956 0.0000 42.2386 0.0000
# 6 0.0000 0.0000 0.0000 -8.3623 0.0000 75.1869
#
#
#
# Elastic Compliance Matrix: (Units=1/GPa)
#
#
# Indices 1 2 3 4 5 6 
#
# 1 0.026297 -0.008831 0.003714 0.000000 -0.005629 0.000000
# 2 -0.008831 0.011925 -0.004896 0.000000 0.002966 0.000000
# 3 0.003714 -0.004896 0.016594 0.000000 -0.004028 0.000000
# 4 0.000000 0.000000 0.000000 0.066777 0.000000 0.007427
# 5 -0.005629 0.002966 -0.004028 0.000000 0.025545 0.000000
# 6 0.000000 0.000000 0.000000 0.007427 0.000000 0.014126
#
#
# Mechanical properties :
#
#
# Convention : Reuss Voigt Hill
#
# Bulk Modulus (GPa) = 28.74354 41.83438 35.28896
# Shear Modulus (GPa) = 25.92201 38.62179 32.27190
#
# Velocity S-wave (km/s) = 3.36069 4.10214 3.74978
# Velocity P-wave (km/s) = 5.25191 6.37683 5.84151
#
# Compressibility (1/GPa) = 0.03479043
#
# Stress axis : x y z
#
# Youngs Moduli (GPa) = 38.02720 83.85649 60.26378
#
# Poissons Ratio (x) = 0.74055 -0.22382
# Poissons Ratio (y) = 0.33582 0.29503
# Poissons Ratio (z) = -0.14124 0.41053
#
# Static dielectric constant tensor:
#      x y z
#    x 1.857440 0.000000 0.038010 
#    y 0.000000 1.841140 0.000000 
#    z 0.038010 0.000000 1.846290 
# 
# From -- ./inp_files/21973.got.cif
#   From: 2010.05.17/outbox.cif.g08.bks.cpg/sg15_11_cif.got.tgz:21973.got - 2010.06.03 18:47:42.
