data_PCOD9298002
_publ_section_title
;
Structure prediction by ZEFSAII (Michael W. Deem and Ramdas Pophale) SiO2 
 PCOD9298002
Probable space group: C 2/C
;
_chemical_formula_sum "Si O2"
_cell_formula_units_Z 48
_cell_length_a 19.334251
_cell_length_b 20.174049
_cell_length_c 7.829212
_cell_angle_alpha 90.000000
_cell_angle_beta 44.952394
_cell_angle_gamma 90.000000
_cell_volume 2157.557267
_symmetry_space_group_name_H-M "C 2/C"
_symmetry_group_IT_number 15
_symmetry_cell_setting 'monoclinic'
loop_
_space_group_symop_operation_xyz
x,y,z
-x,y,1/2-z
-x,-y,-z
x,-y,1/2+z
1/2+x,1/2+y,z
1/2-x,1/2+y,1/2-z
1/2-x,1/2-y,-z
1/2+x,1/2-y,1/2+z
loop_
_atom_site_type_symbol
_atom_site_label
_atom_site_fract_x
_atom_site_fract_y
_atom_site_fract_z
Si Si1 0.934270 0.854774 0.210513
Si Si2 0.000000 0.125110 0.250000
Si Si3 0.500000 0.021388 0.750000
Si Si4 0.756015 0.304410 0.769535
Si Si5 0.530451 0.208723 0.497631
Si Si6 0.719935 0.334250 0.432609
Si Si7 0.103570 0.410069 0.350894
O O1 0.827539 0.840351 0.475587
O O2 0.000000 0.878700 0.250000
O O3 0.968254 0.780664 0.091826
O O4 0.956544 0.900892 0.007321
O O5 0.896334 0.158117 0.372592
O O6 0.419232 0.067811 0.802781
O O7 0.557669 0.971001 0.530023
O O8 0.858982 0.317395 0.681332
O O9 0.749750 0.322848 0.579074
O O10 0.750701 0.224382 0.750036
O O11 0.500000 0.215412 0.750000
O O12 0.458146 0.158359 0.528190
O O13 0.787198 0.397240 0.276629
#
# Coordination Sequence:
#
# PCOD9298002 Si02
#       7
#     8   4   4   8   8   8   8
#     4  12  23  36  53  85 131 182 211 245 285 372
#     4  12  24  39  56  84 134 166 215 248 296 370
#     4  10  24  43  64  92 116 158 213 294 322 370
#     4  11  22  34  57  89 132 174 213 242 304 382
#     4  12  21  37  58  90 129 169 203 257 310 387
#     4  11  22  38  59  90 123 173 207 261 309 389
#     4  11  23  41  65  89 124 160 217 267 335 369
#
# _framework density 22.247384
#
# number of rings (size 3 to 8) (size 9 to 14) (size 15 to 20)
#    0.000    0.667    6.667    1.500    3.500    0.000 
#    0.000    0.000    0.000    1.000    0.000    0.000 
#    0.000    0.000    0.000    0.000    0.000    0.000 
#
# Total GULP energy -133763.078066 kJ/mol
# GULP energy per Si atom -5573.461586 kJ/mol
# Density = 2.219675 g / cm^3
# Si number density = 22.247384 Si / 1000 Ang^3
#
#
#
# Elastic Constant Matrix: (Units=GPa)
#
#
# Indices 1 2 3 4 5 6 
#
# 1 92.9285 -4.0248 31.1330 0.0000 -20.8028 0.0000
# 2 -4.0248 28.3728 -4.7426 0.0000 -12.7496 0.0000
# 3 31.1330 -4.7426 119.2048 0.0000 -11.9788 0.0000
# 4 0.0000 0.0000 0.0000 27.4010 0.0000 -14.9831
# 5 -20.8028 -12.7496 -11.9788 0.0000 50.9020 0.0000
# 6 0.0000 0.0000 0.0000 -14.9831 0.0000 22.2275
#
#
#
# Elastic Compliance Matrix: (Units=1/GPa)
#
#
# Indices 1 2 3 4 5 6 
#
# 1 0.013117 0.003983 -0.002692 0.000000 0.005725 0.000000
# 2 0.003983 0.041754 0.001880 0.000000 0.012529 0.000000
# 3 -0.002692 0.001880 0.009324 0.000000 0.001565 0.000000
# 4 0.000000 0.000000 0.000000 0.057799 0.000000 0.038961
# 5 0.005725 0.012529 0.001565 0.000000 0.025492 0.000000
# 6 0.000000 0.000000 0.000000 0.038961 0.000000 0.071252
#
#
# Mechanical properties :
#
#
# Convention : Reuss Voigt Hill
#
# Bulk Modulus (GPa) = 14.17690 31.69303 22.93497
# Shear Modulus (GPa) = 21.19466 34.64881 27.92173
#
# Velocity S-wave (km/s) = 3.08990 3.95071 3.54652
# Velocity P-wave (km/s) = 4.37221 5.92347 5.20595
#
# Compressibility (1/GPa) = 0.07053726
#
# Stress axis : x y z
#
# Youngs Moduli (GPa) = 76.23748 23.94973 107.24953
#
# Poissons Ratio (x) = -0.09540 0.28872
# Poissons Ratio (y) = -0.30367 -0.20162
# Poissons Ratio (z) = 0.20523 -0.04502
#
# Static dielectric constant tensor:
#      x y z
#    x 1.891570 0.000000 0.062100 
#    y 0.000000 1.821290 0.000000 
#    z 0.062100 0.000000 1.889180 
# 
# From -- ./inp_files/57761.got.cif
#   From: 2010.05.17/outbox.cif.g08.bks.cpg/sg15_29_cif.got.tgz:57761.got - 2010.06.03 18:47:42.
