data_PCOD9298007
_publ_section_title
;
Structure prediction by ZEFSAII (Michael W. Deem and Ramdas Pophale) SiO2 
 PCOD9298007
Probable space group: C 2/C
;
_chemical_formula_sum "Si O2"
_cell_formula_units_Z 52
_cell_length_a 7.583498
_cell_length_b 16.934899
_cell_length_c 24.129352
_cell_angle_alpha 90.000000
_cell_angle_beta 51.202308
_cell_angle_gamma 90.000000
_cell_volume 2415.114608
_symmetry_space_group_name_H-M "C 2/C"
_symmetry_group_IT_number 15
_symmetry_cell_setting 'monoclinic'
loop_
_space_group_symop_operation_xyz
x,y,z
-x,y,1/2-z
-x,-y,-z
x,-y,1/2+z
1/2+x,1/2+y,z
1/2-x,1/2+y,1/2-z
1/2-x,1/2-y,-z
1/2+x,1/2-y,1/2+z
loop_
_atom_site_type_symbol
_atom_site_label
_atom_site_fract_x
_atom_site_fract_y
_atom_site_fract_z
Si Si1 0.645450 0.379534 0.370822
Si Si2 0.108980 0.169682 0.034613
Si Si3 0.859683 0.535719 0.922383
Si Si4 0.227175 0.362158 0.518362
Si Si5 0.500000 0.597244 0.250000
Si Si6 0.759156 0.793523 0.878253
Si Si7 0.291390 0.557194 0.760643
O O1 0.685024 0.451409 0.405898
O O2 0.379657 0.362360 0.432639
O O3 0.774724 0.300373 0.365654
O O4 0.733850 0.402807 0.293494
O O5 0.074313 0.172742 0.107184
O O6 0.250000 0.250000 0.000000
O O7 0.275675 0.098789 0.983928
O O8 0.892642 0.164047 0.036765
O O9 0.853424 0.450040 0.950008
O O10 0.091797 0.554003 0.844595
O O11 0.002587 0.310955 0.556186
O O12 0.680520 0.654632 0.186778
O O13 0.625807 0.533556 0.264716
O O14 0.000000 0.099093 0.750000
#
# Coordination Sequence:
#
# PCOD9298007 Si02
#       7
#     8   8   8   8   4   8   8
#     4  11  24  41  71  92 136 174 218 277 333 394
#     4  11  24  41  69 102 134 169 221 278 332 398
#     4  11  23  43  66  95 136 177 223 270 333 399
#     4  11  24  44  68 105 130 175 226 271 339 392
#     4  10  26  44  62 100 134 178 222 274 332 398
#     4  12  25  45  69  98 140 171 219 283 335 390
#     4  10  24  43  64  96 129 178 229 263 328 405
#
# _framework density 21.531068999999999
#
# number of rings (size 3 to 8) (size 9 to 14) (size 15 to 20)
#    0.462    0.615    4.615    2.769    8.615    0.615 
#    0.000    0.769    0.000    0.000    0.000    0.000 
#    0.000    0.000    0.000    0.000    0.000    0.000 
#
# Total GULP energy -145046.661504 kJ/mol
# GULP energy per Si atom -5578.717750 kJ/mol
# Density = 2.148206 g / cm^3
# Si number density = 21.531069 Si / 1000 Ang^3
#
#
#
# Elastic Constant Matrix: (Units=GPa)
#
#
# Indices 1 2 3 4 5 6 
#
# 1 45.2262 13.8920 25.8175 -0.0001 0.0396 0.0006
# 2 13.8920 106.8893 29.6877 0.0010 19.4315 -0.0009
# 3 25.8175 29.6877 87.5724 0.0022 0.7616 -0.0015
# 4 -0.0001 0.0010 0.0022 37.3689 -0.0014 8.4152
# 5 0.0396 19.4315 0.7616 -0.0014 38.6074 0.0009
# 6 0.0006 -0.0009 -0.0015 8.4152 0.0009 20.4759
#
#
#
# Elastic Compliance Matrix: (Units=1/GPa)
#
#
# Indices 1 2 3 4 5 6 
#
# 1 0.026809 -0.001607 -0.007367 0.000001 0.000926 -0.000002
# 2 -0.001607 0.011551 -0.003392 0.000000 -0.005745 0.000001
# 3 -0.007367 -0.003392 0.014729 -0.000001 0.001424 0.000002
# 4 0.000001 0.000000 -0.000001 0.029489 0.000002 -0.012119
# 5 0.000926 -0.005745 0.001424 0.000002 0.028764 -0.000002
# 6 -0.000002 0.000001 0.000002 -0.012119 -0.000002 0.053819
#
#
# Mechanical properties :
#
#
# Convention : Reuss Voigt Hill
#
# Bulk Modulus (GPa) = 35.26472 42.05359 38.65916
# Shear Modulus (GPa) = 25.08209 30.64316 27.86262
#
# Velocity S-wave (km/s) = 3.41680 3.77663 3.60122
# Velocity P-wave (km/s) = 5.65510 6.21219 5.94018
#
# Compressibility (1/GPa) = 0.02835695
#
# Stress axis : x y z
#
# Youngs Moduli (GPa) = 37.30044 86.57372 67.89480
#
# Poissons Ratio (x) = 0.13908 0.50019
# Poissons Ratio (y) = 0.05992 0.23032
# Poissons Ratio (z) = 0.27480 0.29368
#
# Static dielectric constant tensor:
#      x y z
#    x 1.855680 0.000000 0.012500 
#    y 0.000000 1.756580 0.000000 
#    z 0.012500 0.000000 1.873720 
# 
# From -- ./inp_files/288608.got.cif
#   From: 2010.05.17/outbox.cif.g08.bks.cpg/sg15_145_cif.got.tgz:288608.got - 2010.06.03 18:47:42.
