data_PCOD9298361
_publ_section_title
;
Structure prediction by ZEFSAII (Michael W. Deem and Ramdas Pophale) SiO2 
 PCOD9298361
Probable space group: C 2/C
;
_chemical_formula_sum "Si O2"
_cell_formula_units_Z 36
_cell_length_a 15.700257
_cell_length_b 9.225305
_cell_length_c 18.843432
_cell_angle_alpha 90.000000
_cell_angle_beta 33.018569
_cell_angle_gamma 90.000000
_cell_volume 1487.212148
_symmetry_space_group_name_H-M "C 2/C"
_symmetry_group_IT_number 15
_symmetry_cell_setting 'monoclinic'
loop_
_space_group_symop_operation_xyz
x,y,z
-x,y,1/2-z
-x,-y,-z
x,-y,1/2+z
1/2+x,1/2+y,z
1/2-x,1/2+y,1/2-z
1/2-x,1/2-y,-z
1/2+x,1/2-y,1/2+z
loop_
_atom_site_type_symbol
_atom_site_label
_atom_site_fract_x
_atom_site_fract_y
_atom_site_fract_z
Si Si1 0.789071 0.542652 0.624998
Si Si2 0.035484 0.567293 0.333190
Si Si3 0.000000 0.188885 0.750000
Si Si4 0.184767 0.810761 0.794679
Si Si5 0.435617 0.746490 0.369417
O O1 0.943743 0.567104 0.471670
O O2 0.645445 0.595711 0.676335
O O3 0.790717 0.649148 0.692613
O O4 0.766935 0.377764 0.666897
O O5 0.001048 0.410365 0.326603
O O6 0.961666 0.698714 0.340014
O O7 0.220576 0.601222 0.211038
O O8 0.007524 0.826969 0.890653
O O9 0.500000 0.686428 0.250000
O O10 0.250000 0.750000 0.500000
#
# Coordination Sequence:
#
# PCOD9298361 Si02
#       5
#     8   8   4   8   8
#     4  11  24  44  73  99 146 190 242 304 365 438
#     4  11  23  48  70  99 150 189 243 299 371 434
#     4  10  24  44  68 108 136 190 244 296 368 442
#     4  11  25  45  69 105 138 191 243 295 367 431
#     4  12  27  46  75 109 150 194 248 307 369 439
#
# _framework density 24.206365000000002
#
# number of rings (size 3 to 8) (size 9 to 14) (size 15 to 20)
#    0.000    0.889    3.333    2.667    7.778    0.000 
#    0.000    5.556    0.000    0.000    0.000    0.000 
#    0.000    0.000    0.000    0.000    0.000    0.000 
#
# Total GULP energy -100374.066938 kJ/mol
# GULP energy per Si atom -5576.337052 kJ/mol
# Density = 2.415127 g / cm^3
# Si number density = 24.206365 Si / 1000 Ang^3
#
#
#
# Elastic Constant Matrix: (Units=GPa)
#
#
# Indices 1 2 3 4 5 6 
#
# 1 187.8467 36.8461 60.1297 0.0000 -34.9065 0.0000
# 2 36.8461 98.1376 27.4848 0.0000 11.9002 0.0000
# 3 60.1297 27.4848 84.1347 0.0002 -10.9778 0.0000
# 4 0.0000 0.0000 0.0002 8.5442 0.0000 -11.4422
# 5 -34.9065 11.9002 -10.9778 0.0000 53.0661 0.0000
# 6 0.0000 0.0000 0.0000 -11.4422 0.0000 47.6411
#
#
#
# Elastic Compliance Matrix: (Units=1/GPa)
#
#
# Indices 1 2 3 4 5 6 
#
# 1 0.008123 -0.002434 -0.004360 0.000000 0.004987 0.000000
# 2 -0.002434 0.012561 -0.003022 0.000000 -0.005043 0.000000
# 3 -0.004360 -0.003022 0.016139 -0.000001 0.001149 0.000000
# 4 0.000000 0.000000 -0.000001 0.172531 0.000000 0.041438
# 5 0.004987 -0.005043 0.001149 0.000000 0.023493 0.000000
# 6 0.000000 0.000000 0.000000 0.041438 0.000000 0.030943
#
#
# Mechanical properties :
#
#
# Convention : Reuss Voigt Hill
#
# Bulk Modulus (GPa) = 58.16647 68.78226 63.47437
# Shear Modulus (GPa) = 17.29192 38.22749 27.75970
#
# Velocity S-wave (km/s) = 2.67564 3.97827 3.39011
# Velocity P-wave (km/s) = 5.79888 7.04122 6.45003
#
# Compressibility (1/GPa) = 0.01719203
#
# Stress axis : x y z
#
# Youngs Moduli (GPa) = 123.10518 79.60879 61.96277
#
# Poissons Ratio (x) = 0.19374 0.27014
# Poissons Ratio (y) = 0.29959 0.18727
# Poissons Ratio (z) = 0.53671 0.24060
#
# Static dielectric constant tensor:
#      x y z
#    x 2.103640 0.000000 -0.011260 
#    y 0.000000 1.956190 0.000000 
#    z -0.011260 0.000000 1.876330 
# 
# From -- ./inp_files/242754.got.cif
#   From: 2010.05.17/outbox.cif.g08.bks.cpg/sg15_122_cif.got.tgz:242754.got - 2010.06.03 18:47:42.
