data_PCOD9298232
_publ_section_title
;
Structure prediction by ZEFSAII (Michael W. Deem and Ramdas Pophale) SiO2 
 PCOD9298232
Probable space group: C 2/C
;
_chemical_formula_sum "Si O2"
_cell_formula_units_Z 56
_cell_length_a 14.689653
_cell_length_b 9.289090
_cell_length_c 24.291380
_cell_angle_alpha 90.000000
_cell_angle_beta 122.805211
_cell_angle_gamma 90.000000
_cell_volume 2786.015761
_symmetry_space_group_name_H-M "C 2/C"
_symmetry_group_IT_number 15
_symmetry_cell_setting 'monoclinic'
loop_
_space_group_symop_operation_xyz
x,y,z
-x,y,1/2-z
-x,-y,-z
x,-y,1/2+z
1/2+x,1/2+y,z
1/2-x,1/2+y,1/2-z
1/2-x,1/2-y,-z
1/2+x,1/2-y,1/2+z
loop_
_atom_site_type_symbol
_atom_site_label
_atom_site_fract_x
_atom_site_fract_y
_atom_site_fract_z
Si Si1 0.500000 0.608252 0.750000
Si Si2 0.553106 0.136525 0.349820
Si Si3 0.592193 0.897612 0.595544
Si Si4 0.835700 0.137894 0.180826
Si Si5 0.789067 0.136472 0.466606
Si Si6 0.971651 0.716701 0.953499
Si Si7 0.500000 0.891249 0.250000
Si Si8 0.346540 0.646366 0.052584
O O1 0.471166 0.716808 0.690997
O O2 0.600209 0.499139 0.773568
O O3 0.500585 0.146698 0.392445
O O4 0.680478 0.106495 0.396481
O O5 0.501580 0.999785 0.301960
O O6 0.710420 0.858717 0.655657
O O7 0.564132 0.823364 0.528500
O O8 0.583159 0.068134 0.582872
O O9 0.898053 0.283908 0.216468
O O10 0.839167 0.123264 0.115440
O O11 0.750000 0.250000 0.500000
O O12 0.881886 0.191668 0.456066
O O13 0.830512 0.999761 0.513682
O O14 0.036292 0.789659 0.925021
O O15 0.250000 0.750000 0.000000
#
# Coordination Sequence:
#
# PCOD9298232 Si02
#       8
#     4   8   8   8   8   8   4   8
#     4  10  24  44  62  86 124 172 222 256 314 368
#     4  11  23  42  65  91 125 170 212 266 312 382
#     4  11  22  38  66  94 129 165 208 265 319 382
#     4  11  23  42  65  91 125 170 212 266 312 382
#     4  12  23  40  66  96 132 167 208 268 330 385
#     4  11  23  38  60 104 133 161 205 257 337 389
#     4  10  24  44  62  86 124 172 222 256 314 368
#     4  12  23  40  66  96 132 167 208 268 330 385
#
# _framework density 20.100389
#
# number of rings (size 3 to 8) (size 9 to 14) (size 15 to 20)
#    0.000    0.857    2.857    5.571    0.000    1.143 
#    0.000    5.714    0.000    0.000    0.000    0.000 
#    0.000    0.000    0.000    0.000    0.000    0.000 
#
# Total GULP energy -156595.058266 kJ/mol
# GULP energy per Si atom -5592.680652 kJ/mol
# Density = 2.005464 g / cm^3
# Si number density = 20.100389 Si / 1000 Ang^3
#
#
#
# Elastic Constant Matrix: (Units=GPa)
#
#
# Indices 1 2 3 4 5 6 
#
# 1 98.4424 16.5972 -1.1488 0.0000 21.3596 0.0000
# 2 16.5972 72.8407 6.8246 0.0000 4.8142 0.0000
# 3 -1.1488 6.8246 49.1133 0.0000 14.5718 0.0000
# 4 0.0000 0.0000 0.0000 29.3133 0.0000 -6.5496
# 5 21.3596 4.8142 14.5718 0.0000 36.2042 0.0000
# 6 0.0000 0.0000 0.0000 -6.5496 0.0000 12.6565
#
#
#
# Elastic Compliance Matrix: (Units=1/GPa)
#
#
# Indices 1 2 3 4 5 6 
#
# 1 0.012413 -0.002574 0.003088 0.000000 -0.008224 0.000000
# 2 -0.002574 0.014491 -0.002217 0.000000 0.000484 0.000000
# 3 0.003088 -0.002217 0.024069 0.000000 -0.011214 0.000000
# 4 0.000000 0.000000 0.000000 0.038574 0.000000 0.019962
# 5 -0.008224 0.000484 -0.011214 0.000000 0.036922 0.000000
# 6 0.000000 0.000000 0.000000 0.019962 0.000000 0.089341
#
#
# Mechanical properties :
#
#
# Convention : Reuss Voigt Hill
#
# Bulk Modulus (GPa) = 21.02383 29.43803 25.23093
# Shear Modulus (GPa) = 21.27013 28.84303 25.05658
#
# Velocity S-wave (km/s) = 3.25652 3.79218 3.53451
# Velocity P-wave (km/s) = 4.96206 5.81820 5.40710
#
# Compressibility (1/GPa) = 0.04756506
#
# Stress axis : x y z
#
# Youngs Moduli (GPa) = 80.56329 69.00895 41.54770
#
# Poissons Ratio (x) = 0.17764 -0.12830
# Poissons Ratio (y) = 0.20738 0.09213
# Poissons Ratio (z) = -0.24878 0.15303
#
# Static dielectric constant tensor:
#      x y z
#    x 1.582500 0.000000 -0.027030 
#    y 0.000000 1.731110 0.000000 
#    z -0.027030 0.000000 1.710720 
# 
# From -- ./inp_files/273094.got.cif
#   From: 2010.05.17/outbox.cif.g08.bks.cpg/sg15_137_cif.got.tgz:273094.got - 2010.06.03 18:47:42.
