data_PCOD9298176
_publ_section_title
;
Structure prediction by ZEFSAII (Michael W. Deem and Ramdas Pophale) SiO2 
 PCOD9298176
Probable space group: C 2/C
;
_chemical_formula_sum "Si O2"
_cell_formula_units_Z 44
_cell_length_a 16.639158
_cell_length_b 13.250720
_cell_length_c 8.433880
_cell_angle_alpha 90.000000
_cell_angle_beta 108.794443
_cell_angle_gamma 90.000000
_cell_volume 1760.360751
_symmetry_space_group_name_H-M "C 2/C"
_symmetry_group_IT_number 15
_symmetry_cell_setting 'monoclinic'
loop_
_space_group_symop_operation_xyz
x,y,z
-x,y,1/2-z
-x,-y,-z
x,-y,1/2+z
1/2+x,1/2+y,z
1/2-x,1/2+y,1/2-z
1/2-x,1/2-y,-z
1/2+x,1/2-y,1/2+z
loop_
_atom_site_type_symbol
_atom_site_label
_atom_site_fract_x
_atom_site_fract_y
_atom_site_fract_z
Si Si1 0.504331 0.266038 0.573280
Si Si2 0.319158 0.461354 0.209426
Si Si3 0.314965 0.735361 0.896542
Si Si4 0.063781 0.561744 0.650073
Si Si5 0.000000 0.100319 0.750000
Si Si6 0.716408 0.908224 0.838770
O O1 0.500000 0.310897 0.750000
O O2 0.407618 0.224865 0.502570
O O3 0.575186 0.176920 0.595965
O O4 0.509302 0.335833 0.419716
O O5 0.315934 0.381798 0.351741
O O6 0.413729 0.461491 0.206227
O O7 0.291196 0.566578 0.262458
O O8 0.251703 0.427294 0.034750
O O9 0.303559 0.794765 0.722819
O O10 0.250000 0.750000 0.000000
O O11 0.141723 0.489951 0.751177
O O12 0.000000 0.583772 0.750000
O O13 0.000000 0.500000 0.500000
#
# Coordination Sequence:
#
# PCOD9298176 Si02
#       6
#     8   8   8   8   4   8
#     4  10  24  43  72 103 143 194 239 305 368 439
#     4  11  27  45  74 103 142 193 248 306 363 444
#     4  11  25  46  70 104 147 191 245 299 370 437
#     4  11  23  38  63 101 142 187 228 294 374 439
#     4  10  26  52  70 108 140 200 258 296 368 428
#     4  12  25  45  70 107 146 188 243 305 367 443
#
# _framework density 24.994876999999999
#
# number of rings (size 3 to 8) (size 9 to 14) (size 15 to 20)
#    0.000    1.091    1.818    2.727   11.455    3.636 
#    0.000    0.000    0.000    0.000    0.000    0.000 
#    0.000    0.000    0.000    0.000    0.000    0.000 
#
# Total GULP energy -122931.530186 kJ/mol
# GULP energy per Si atom -5587.796827 kJ/mol
# Density = 2.493799 g / cm^3
# Si number density = 24.994877 Si / 1000 Ang^3
#
#
#
# Elastic Constant Matrix: (Units=GPa)
#
#
# Indices 1 2 3 4 5 6 
#
# 1 112.6712 6.3362 3.4292 0.0000 6.2438 0.0000
# 2 6.3362 58.0092 10.6148 0.0000 9.3199 0.0000
# 3 3.4292 10.6148 121.3825 0.0000 5.4541 0.0000
# 4 0.0000 0.0000 0.0000 3.4330 0.0000 2.5394
# 5 6.2438 9.3199 5.4541 0.0000 34.4483 0.0000
# 6 0.0000 0.0000 0.0000 2.5394 0.0000 23.5764
#
#
#
# Elastic Compliance Matrix: (Units=1/GPa)
#
#
# Indices 1 2 3 4 5 6 
#
# 1 0.008999 -0.000733 -0.000127 0.000000 -0.001413 0.000000
# 2 -0.000733 0.018310 -0.001374 0.000000 -0.004603 0.000000
# 3 -0.000127 -0.001374 0.008404 0.000000 -0.000936 0.000000
# 4 0.000000 0.000000 0.000000 0.316506 0.000000 -0.034090
# 5 -0.001413 -0.004603 -0.000936 0.000000 0.030679 0.000000
# 6 0.000000 0.000000 0.000000 -0.034090 0.000000 0.046087
#
#
# Mechanical properties :
#
#
# Convention : Reuss Voigt Hill
#
# Bulk Modulus (GPa) = 32.00364 36.98035 34.49200
# Shear Modulus (GPa) = 11.26467 30.40373 20.83420
#
# Velocity S-wave (km/s) = 2.12522 3.49147 2.89024
# Velocity P-wave (km/s) = 4.34212 5.57505 4.99676
#
# Compressibility (1/GPa) = 0.03124644
#
# Stress axis : x y z
#
# Youngs Moduli (GPa) = 111.12674 54.61613 118.98846
#
# Poissons Ratio (x) = 0.04002 0.01507
# Poissons Ratio (y) = 0.08143 0.16344
# Poissons Ratio (z) = 0.01408 0.07502
#
# Static dielectric constant tensor:
#      x y z
#    x 1.975430 0.000000 -0.000440 
#    y 0.000000 1.831530 0.000000 
#    z -0.000440 0.000000 1.949420 
# 
# From -- ./inp_files/47216.got.cif
#   From: 2010.05.17/outbox.cif.g08.bks.cpg/sg15_24_cif.got.tgz:47216.got - 2010.06.03 18:47:42.
