data_PCOD9298339
_publ_section_title
;
Structure prediction by ZEFSAII (Michael W. Deem and Ramdas Pophale) SiO2 
 PCOD9298339
Probable space group: C 2/C
;
_chemical_formula_sum "Si O2"
_cell_formula_units_Z 48
_cell_length_a 5.036984
_cell_length_b 16.256181
_cell_length_c 23.198631
_cell_angle_alpha 90.000000
_cell_angle_beta 83.922471
_cell_angle_gamma 90.000000
_cell_volume 1888.876815
_symmetry_space_group_name_H-M "C 2/C"
_symmetry_group_IT_number 15
_symmetry_cell_setting 'monoclinic'
loop_
_space_group_symop_operation_xyz
x,y,z
-x,y,1/2-z
-x,-y,-z
x,-y,1/2+z
1/2+x,1/2+y,z
1/2-x,1/2+y,1/2-z
1/2-x,1/2-y,-z
1/2+x,1/2-y,1/2+z
loop_
_atom_site_type_symbol
_atom_site_label
_atom_site_fract_x
_atom_site_fract_y
_atom_site_fract_z
Si Si1 0.958223 0.556881 0.406685
Si Si2 0.513971 0.714457 0.922876
Si Si3 0.545536 0.698371 0.391396
Si Si4 0.776252 0.509667 0.211236
Si Si5 0.820152 0.178196 0.808244
Si Si6 0.773854 0.931492 0.017088
O O1 0.173371 0.554181 0.350701
O O2 0.077305 0.575222 0.467474
O O3 0.703476 0.612237 0.394161
O O4 0.868255 0.463077 0.421585
O O5 0.214150 0.747409 0.933844
O O6 0.500509 0.667710 0.861585
O O7 0.594855 0.654363 0.971213
O O8 0.734545 0.785386 0.908520
O O9 0.625430 0.746937 0.330751
O O10 0.500000 0.524253 0.250000
O O11 0.803123 0.411102 0.201162
O O12 0.000000 0.538658 0.250000
O O13 0.000000 0.201321 0.750000
O O14 0.000000 0.000000 0.000000
#
# Coordination Sequence:
#
# PCOD9298339 Si02
#       6
#     8   8   8   8   8   8
#     4  11  27  46  69 110 145 191 244 300 379 424
#     4  10  24  44  67  99 139 186 240 288 363 432
#     4  10  25  43  68  99 145 185 231 302 354 442
#     4  11  26  43  75 106 140 190 245 309 363 450
#     4   9  22  39  70  98 133 184 238 294 356 430
#     4  11  26  44  76 102 148 197 244 311 355 452
#
# _framework density 25.411926000000001
#
# number of rings (size 3 to 8) (size 9 to 14) (size 15 to 20)
#    1.000    0.667    0.000    2.000   18.667    2.000 
#    0.000    0.000    0.000    0.000    0.000    0.000 
#    0.000    0.000    0.000    0.000    0.000    0.000 
#
# Total GULP energy -134209.263789 kJ/mol
# GULP energy per Si atom -5592.052658 kJ/mol
# Density = 2.535409 g / cm^3
# Si number density = 25.411926 Si / 1000 Ang^3
#
#
#
# Elastic Constant Matrix: (Units=GPa)
#
#
# Indices 1 2 3 4 5 6 
#
# 1 100.1049 4.7004 26.2844 0.0000 8.2265 0.0000
# 2 4.7004 72.2959 31.1519 0.0000 -4.7825 0.0000
# 3 26.2844 31.1519 115.6966 0.0000 -4.1364 0.0000
# 4 0.0000 0.0000 0.0000 52.4950 0.0000 -3.8322
# 5 8.2265 -4.7825 -4.1364 0.0000 35.0359 0.0000
# 6 0.0000 0.0000 0.0000 -3.8322 0.0000 35.0972
#
#
#
# Elastic Compliance Matrix: (Units=1/GPa)
#
#
# Indices 1 2 3 4 5 6 
#
# 1 0.010906 0.000243 -0.002644 0.000000 -0.002840 0.000000
# 2 0.000243 0.015748 -0.004238 0.000000 0.001592 0.000000
# 3 -0.002644 -0.004238 0.010431 0.000000 0.001274 0.000000
# 4 0.000000 0.000000 0.000000 0.019203 0.000000 0.002097
# 5 -0.002840 0.001592 0.001274 0.000000 0.029577 0.000000
# 6 0.000000 0.000000 0.000000 0.002097 0.000000 0.028721
#
#
# Mechanical properties :
#
#
# Convention : Reuss Voigt Hill
#
# Bulk Modulus (GPa) = 42.00974 45.81899 43.91437
# Shear Modulus (GPa) = 36.81880 39.58968 38.20424
#
# Velocity S-wave (km/s) = 3.81054 3.95133 3.88157
# Velocity P-wave (km/s) = 5.99397 6.23594 6.11615
#
# Compressibility (1/GPa) = 0.02380400
#
# Stress axis : x y z
#
# Youngs Moduli (GPa) = 91.69388 63.50057 95.86970
#
# Poissons Ratio (x) = -0.01540 0.25352
# Poissons Ratio (y) = -0.02224 0.40633
# Poissons Ratio (z) = 0.24248 0.26914
#
# Static dielectric constant tensor:
#      x y z
#    x 2.006750 0.000000 -0.006110 
#    y 0.000000 2.081950 0.000000 
#    z -0.006110 0.000000 1.966110 
# 
# From -- ./inp_files/285686.got.cif
#   From: 2010.05.17/outbox.cif.g08.bks.cpg/sg15_143_cif.got.tgz:285686.got - 2010.06.03 18:47:42.
