data_PCOD9298398
_publ_section_title
;
Structure prediction by ZEFSAII (Michael W. Deem and Ramdas Pophale) SiO2 
 PCOD9298398
Probable space group: C 2/C
;
_chemical_formula_sum "Si O2"
_cell_formula_units_Z 40
_cell_length_a 18.257288
_cell_length_b 4.857359
_cell_length_c 17.355906
_cell_angle_alpha 90.000000
_cell_angle_beta 98.659619
_cell_angle_gamma 90.000000
_cell_volume 1521.613922
_symmetry_space_group_name_H-M "C 2/C"
_symmetry_group_IT_number 15
_symmetry_cell_setting 'monoclinic'
loop_
_space_group_symop_operation_xyz
x,y,z
-x,y,1/2-z
-x,-y,-z
x,-y,1/2+z
1/2+x,1/2+y,z
1/2-x,1/2+y,1/2-z
1/2-x,1/2-y,-z
1/2+x,1/2-y,1/2+z
loop_
_atom_site_type_symbol
_atom_site_label
_atom_site_fract_x
_atom_site_fract_y
_atom_site_fract_z
Si Si1 0.919619 0.067745 0.245599
Si Si2 0.555468 0.991956 0.115583
Si Si3 0.215837 0.876482 0.203711
Si Si4 0.944895 0.986850 0.581014
Si Si5 0.317602 0.297732 0.951896
O O1 0.869435 0.865487 0.286715
O O2 0.900282 0.094200 0.152959
O O3 0.000000 0.943059 0.250000
O O4 0.928983 0.342047 0.298301
O O5 0.634207 0.950501 0.081813
O O6 0.503871 0.262877 0.101892
O O7 0.497146 0.769180 0.070715
O O8 0.254620 0.593473 0.227851
O O9 0.218107 0.019094 0.121932
O O10 0.881954 0.050034 0.509557
O O11 0.250000 0.250000 0.000000
#
# Coordination Sequence:
#
# PCOD9298398 Si02
#       5
#     8   8   8   8   8
#     4   9  22  40  67  98 131 175 223 272 333 402
#     4  10  24  44  69 101 140 181 226 282 344 409
#     4  11  26  47  68  98 140 181 225 283 347 412
#     4  11  23  44  70 101 136 180 229 284 341 406
#     4  11  25  45  73 104 138 183 232 285 344 405
#
# _framework density 26.287875
#
# number of rings (size 3 to 8) (size 9 to 14) (size 15 to 20)
#    0.000    1.600    0.000    2.400    0.000   24.800 
#    0.000    8.000    0.000    0.000    0.000    0.000 
#    0.000    0.000    0.000    0.000    0.000    0.000 
#
# Total GULP energy -111822.590663 kJ/mol
# GULP energy per Si atom -5591.129533 kJ/mol
# Density = 2.622804 g / cm^3
# Si number density = 26.287875 Si / 1000 Ang^3
#
#
#
# Elastic Constant Matrix: (Units=GPa)
#
#
# Indices 1 2 3 4 5 6 
#
# 1 100.8332 56.6765 50.1097 0.0000 -26.7872 0.0000
# 2 56.6765 132.1395 8.6606 0.0000 8.7589 0.0000
# 3 50.1097 8.6606 148.3509 0.0000 -7.7285 0.0000
# 4 0.0000 0.0000 0.0000 10.9040 0.0000 -0.2053
# 5 -26.7872 8.7589 -7.7285 0.0000 69.7354 0.0000
# 6 0.0000 0.0000 0.0000 -0.2053 0.0000 35.5662
#
#
#
# Elastic Compliance Matrix: (Units=1/GPa)
#
#
# Indices 1 2 3 4 5 6 
#
# 1 0.019765 -0.008633 -0.005753 0.000000 0.008039 0.000000
# 2 -0.008633 0.011439 0.002012 0.000000 -0.004530 0.000000
# 3 -0.005753 0.002012 0.008487 0.000000 -0.001522 0.000000
# 4 0.000000 0.000000 0.000000 0.091719 0.000000 0.000529
# 5 0.008039 -0.004530 -0.001522 0.000000 0.017828 0.000000
# 6 0.000000 0.000000 0.000000 0.000529 0.000000 0.028120
#
#
# Mechanical properties :
#
#
# Convention : Reuss Voigt Hill
#
# Bulk Modulus (GPa) = 66.92203 68.02414 67.47308
# Shear Modulus (GPa) = 24.14444 40.96624 32.55534
#
# Velocity S-wave (km/s) = 3.03390 3.95190 3.52293
# Velocity P-wave (km/s) = 6.14698 6.83785 6.50160
#
# Compressibility (1/GPa) = 0.01494276
#
# Stress axis : x y z
#
# Youngs Moduli (GPa) = 50.59554 87.42025 117.82268
#
# Poissons Ratio (x) = 0.75471 0.67786
# Poissons Ratio (y) = 0.43680 -0.23709
# Poissons Ratio (z) = 0.29109 -0.17591
#
# Static dielectric constant tensor:
#      x y z
#    x 2.135190 0.000000 0.107630 
#    y 0.000000 2.080340 0.000000 
#    z 0.107630 0.000000 2.387310 
# 
# From -- ./inp_files/212676.got.cif
#   From: 2010.05.17/outbox.cif.g08.bks.cpg/sg15_107_cif.got.tgz:212676.got - 2010.06.03 18:47:42.
