data_PCOD9298411
_publ_section_title
;
Structure prediction by ZEFSAII (Michael W. Deem and Ramdas Pophale) SiO2 
 PCOD9298411
Probable space group: C 2/C
;
_chemical_formula_sum "Si O2"
_cell_formula_units_Z 40
_cell_length_a 12.918756
_cell_length_b 19.184336
_cell_length_c 13.070601
_cell_angle_alpha 90.000000
_cell_angle_beta 33.214314
_cell_angle_gamma 90.000000
_cell_volume 1774.447090
_symmetry_space_group_name_H-M "C 2/C"
_symmetry_group_IT_number 15
_symmetry_cell_setting 'monoclinic'
loop_
_space_group_symop_operation_xyz
x,y,z
-x,y,1/2-z
-x,-y,-z
x,-y,1/2+z
1/2+x,1/2+y,z
1/2-x,1/2+y,1/2-z
1/2-x,1/2-y,-z
1/2+x,1/2-y,1/2+z
loop_
_atom_site_type_symbol
_atom_site_label
_atom_site_fract_x
_atom_site_fract_y
_atom_site_fract_z
Si Si1 0.214391 0.073871 0.338074
Si Si2 0.954216 0.663711 0.407297
Si Si3 0.283046 0.178741 0.909396
Si Si4 0.917007 0.964011 0.916111
Si Si5 0.604258 0.682250 0.831040
O O1 0.408416 0.110169 0.148548
O O2 0.096605 0.045629 0.340647
O O3 0.071172 0.130705 0.505642
O O4 0.235537 0.010184 0.398823
O O5 0.021988 0.742006 0.374658
O O6 0.000000 0.650901 0.250000
O O7 0.743101 0.658687 0.625053
O O8 0.500000 0.161734 0.750000
O O9 0.224347 0.187268 0.838205
O O10 0.250000 0.250000 0.000000
O O11 0.163620 0.111883 0.043863
O O12 0.000000 0.001914 0.750000
#
# Coordination Sequence:
#
# PCOD9298411 Si02
#       5
#     8   8   8   8   8
#     4  10  25  46  63  99 137 175 227 269 340 406
#     4  12  25  39  68  97 132 175 229 276 333 388
#     4  11  24  41  70 103 132 168 223 279 347 401
#     4  10  24  44  69  92 136 181 211 278 342 403
#     4  11  24  42  67 100 135 175 219 289 329 398
#
# _framework density 22.542233
#
# number of rings (size 3 to 8) (size 9 to 14) (size 15 to 20)
#    0.000    1.200    2.000    2.400   11.200    0.800 
#    0.000    3.000    0.000    0.000    0.000    0.000 
#    0.000    0.000    0.000    0.000    0.000    0.000 
#
# Total GULP energy -111888.464852 kJ/mol
# GULP energy per Si atom -5594.423243 kJ/mol
# Density = 2.249093 g / cm^3
# Si number density = 22.542233 Si / 1000 Ang^3
#
#
#
# Elastic Constant Matrix: (Units=GPa)
#
#
# Indices 1 2 3 4 5 6 
#
# 1 42.4517 10.5538 3.7551 -0.0087 1.1808 0.0014
# 2 10.5538 86.9188 2.4339 -0.0044 1.5770 0.0052
# 3 3.7551 2.4339 66.2718 -0.0178 2.5332 0.0089
# 4 -0.0087 -0.0044 -0.0178 -7.1995 0.0118 -3.1656
# 5 1.1808 1.5770 2.5332 0.0118 24.9661 -0.0046
# 6 0.0014 0.0052 0.0089 -3.1656 -0.0046 27.6518
#
#
#
# Elastic Compliance Matrix: (Units=1/GPa)
#
#
# Indices 1 2 3 4 5 6 
#
# 1 0.024414 -0.002914 -0.001244 -0.000025 -0.000844 -0.000003
# 2 -0.002914 0.011876 -0.000249 -0.000003 -0.000587 -0.000002
# 3 -0.001244 -0.000249 0.015225 -0.000034 -0.001470 -0.000009
# 4 -0.000025 -0.000003 -0.000034 -0.132242 0.000065 -0.015139
# 5 -0.000844 -0.000587 -0.001470 0.000065 0.040280 0.000015
# 6 -0.000003 -0.000002 -0.000009 -0.015139 0.000015 0.034431
#
#
# Mechanical properties :
#
#
# Convention : Reuss Voigt Hill
#
# Bulk Modulus (GPa) = 23.41811 25.45867 24.43839
# Shear Modulus (GPa) = 293.55300 21.01032 157.28166
#
# Velocity S-wave (km/s) = 11.42393 3.05625 8.36203
# Velocity P-wave (km/s) = 13.58011 4.87570 10.20274
#
# Compressibility (1/GPa) = 0.04270199
#
# Stress axis : x y z
#
# Youngs Moduli (GPa) = 40.95976 84.20020 65.68066
#
# Poissons Ratio (x) = 0.24538 0.08171
# Poissons Ratio (y) = 0.11937 0.01633
# Poissons Ratio (z) = 0.05096 0.02093
#
# Static dielectric constant tensor:
#      x y z
#    x 1.873270 0.000000 0.052690 
#    y 0.000000 1.823280 0.000000 
#    z 0.052690 0.000000 1.823190 
# 
# From -- ./inp_files/30303.got.cif
#   From: 2010.05.17/outbox.cif.g08.bks.cpg/sg15_16_cif.got.tgz:30303.got - 2010.06.03 18:47:42.
