data_PCOD9298308
_publ_section_title
;
Structure prediction by ZEFSAII (Michael W. Deem and Ramdas Pophale) SiO2 
 PCOD9298308
Probable space group: C 2/C
;
_chemical_formula_sum "Si O2"
_cell_formula_units_Z 60
_cell_length_a 14.301930
_cell_length_b 9.379086
_cell_length_c 22.831877
_cell_angle_alpha 90.000000
_cell_angle_beta 117.471287
_cell_angle_gamma 90.000000
_cell_volume 2717.308414
_symmetry_space_group_name_H-M "C 2/C"
_symmetry_group_IT_number 15
_symmetry_cell_setting 'monoclinic'
loop_
_space_group_symop_operation_xyz
x,y,z
-x,y,1/2-z
-x,-y,-z
x,-y,1/2+z
1/2+x,1/2+y,z
1/2-x,1/2+y,1/2-z
1/2-x,1/2-y,-z
1/2+x,1/2-y,1/2+z
loop_
_atom_site_type_symbol
_atom_site_label
_atom_site_fract_x
_atom_site_fract_y
_atom_site_fract_z
Si Si1 0.338123 0.302838 0.111383
Si Si2 0.741739 0.447724 0.830223
Si Si3 0.351404 0.469204 0.315535
Si Si4 0.927734 0.962786 0.558090
Si Si5 0.714053 0.525006 0.077706
Si Si6 0.500000 0.946457 0.250000
Si Si7 0.637560 0.785336 0.384046
Si Si8 0.427106 0.840757 0.818619
O O1 0.303422 0.404981 0.155327
O O2 0.350953 0.416789 0.063481
O O3 0.450368 0.215277 0.144787
O O4 0.247667 0.186461 0.078795
O O5 0.684589 0.438694 0.750247
O O6 0.705782 0.323299 0.863819
O O7 0.866996 0.428909 0.852984
O O8 0.464255 0.507979 0.376026
O O9 0.280112 0.488741 0.351872
O O10 0.361046 0.305548 0.297903
O O11 0.897625 0.981125 0.481641
O O12 0.901785 0.805295 0.572697
O O13 0.797281 0.418265 0.073360
O O14 0.550346 0.849094 0.314940
O O15 0.576760 0.054806 0.237799
#
# Coordination Sequence:
#
# PCOD9298308 Si02
#       8
#     8   8   8   8   8   4   8   8
#     4  10  24  44  69  96 134 180 219 280 345 403
#     4  11  24  42  66 100 138 166 221 282 352 413
#     4  11  24  40  66  94 133 173 218 279 341 403
#     4  10  24  44  66  91 130 179 228 269 329 410
#     4  12  22  43  66  93 131 176 225 273 332 400
#     4  12  22  38  66  94 134 162 216 274 350 404
#     4  11  23  40  65  98 125 171 217 281 340 397
#     4  11  23  40  63 101 132 171 216 277 344 414
#
# _framework density 22.080673000000001
#
# number of rings (size 3 to 8) (size 9 to 14) (size 15 to 20)
#    0.000    1.067    2.667    3.600    1.867    4.800 
#    0.000    0.000    0.000    4.000    0.000    0.000 
#    0.000    0.000    0.000    0.000    0.000    0.000 
#
# Total GULP energy -167251.229149 kJ/mol
# GULP energy per Si atom -5575.040972 kJ/mol
# Density = 2.203042 g / cm^3
# Si number density = 22.080673 Si / 1000 Ang^3
#
#
#
# Elastic Constant Matrix: (Units=GPa)
#
#
# Indices 1 2 3 4 5 6 
#
# 1 57.4682 15.4950 -4.4604 0.0000 4.5366 0.0000
# 2 15.4950 92.1940 8.4147 0.0000 6.6115 0.0000
# 3 -4.4604 8.4147 60.2290 0.0000 10.5848 0.0000
# 4 0.0000 0.0000 0.0000 48.3717 0.0000 -10.4268
# 5 4.5366 6.6115 10.5848 0.0000 21.6296 0.0000
# 6 0.0000 0.0000 0.0000 -10.4268 0.0000 14.9119
#
#
#
# Elastic Compliance Matrix: (Units=1/GPa)
#
#
# Indices 1 2 3 4 5 6 
#
# 1 0.018767 -0.003084 0.002568 0.000000 -0.004250 0.000000
# 2 -0.003084 0.011657 -0.001471 0.000000 -0.002197 0.000000
# 3 0.002568 -0.001471 0.018616 0.000000 -0.009199 0.000000
# 4 0.000000 0.000000 0.000000 0.024342 0.000000 0.017021
# 5 -0.004250 -0.002197 -0.009199 0.000000 0.052297 0.000000
# 6 0.000000 0.000000 0.000000 0.017021 0.000000 0.078962
#
#
# Mechanical properties :
#
#
# Convention : Reuss Voigt Hill
#
# Bulk Modulus (GPa) = 22.19000 27.64332 24.91666
# Shear Modulus (GPa) = 22.35764 29.67877 26.01820
#
# Velocity S-wave (km/s) = 3.18550 3.67018 3.43640
# Velocity P-wave (km/s) = 4.85811 5.52329 5.20134
#
# Compressibility (1/GPa) = 0.04506534
#
# Stress axis : x y z
#
# Youngs Moduli (GPa) = 53.28451 85.78715 53.71844
#
# Poissons Ratio (x) = 0.26455 -0.13793
# Poissons Ratio (y) = 0.16432 0.07902
# Poissons Ratio (z) = -0.13681 0.12619
#
# Static dielectric constant tensor:
#      x y z
#    x 1.918610 0.000000 0.028650 
#    y 0.000000 1.783630 0.000000 
#    z 0.028650 0.000000 1.827090 
# 
# From -- ./inp_files/273201.got.cif
#   From: 2010.05.17/outbox.cif.g08.bks.cpg/sg15_137_cif.got.tgz:273201.got - 2010.06.03 18:47:42.
