data_PCOD9298615
_publ_section_title
;
Structure prediction by ZEFSAII (Michael W. Deem and Ramdas Pophale) SiO2 
 PCOD9298615
Probable space group: C 2/C
;
_chemical_formula_sum "Si O2"
_cell_formula_units_Z 64
_cell_length_a 14.023927
_cell_length_b 16.773760
_cell_length_c 23.070957
_cell_angle_alpha 90.000000
_cell_angle_beta 29.975266
_cell_angle_gamma 90.000000
_cell_volume 2711.507398
_symmetry_space_group_name_H-M "C 2/C"
_symmetry_group_IT_number 15
_symmetry_cell_setting 'monoclinic'
loop_
_space_group_symop_operation_xyz
x,y,z
-x,y,1/2-z
-x,-y,-z
x,-y,1/2+z
1/2+x,1/2+y,z
1/2-x,1/2+y,1/2-z
1/2-x,1/2-y,-z
1/2+x,1/2-y,1/2+z
loop_
_atom_site_type_symbol
_atom_site_label
_atom_site_fract_x
_atom_site_fract_y
_atom_site_fract_z
Si Si1 0.319395 0.069026 0.408263
Si Si2 0.496153 0.524129 0.383657
Si Si3 0.287872 0.828698 0.245845
Si Si4 0.421547 0.291509 0.511637
Si Si5 0.926402 0.797947 0.934649
Si Si6 0.385370 0.122150 0.563745
Si Si7 0.287256 0.543892 0.342544
Si Si8 0.176763 0.488933 0.210904
O O1 0.251273 0.147464 0.410279
O O2 0.165441 0.042655 0.536366
O O3 0.539081 0.058485 0.309714
O O4 0.317938 0.998257 0.360824
O O5 0.403127 0.610326 0.431218
O O6 0.668367 0.525673 0.247560
O O7 0.608229 0.506266 0.383104
O O8 0.079822 0.813711 0.380970
O O9 0.396854 0.744817 0.190325
O O10 0.307635 0.856134 0.168753
O O11 0.373402 0.901549 0.238636
O O12 0.520748 0.296180 0.523875
O O13 0.355192 0.200266 0.541123
O O14 0.750000 0.750000 0.000000
O O15 0.613377 0.103574 0.445811
O O16 0.283725 0.041601 0.596601
O O17 0.500000 0.568446 0.250000
#
# Coordination Sequence:
#
# PCOD9298615 Si02
#       8
#     8   8   8   8   8   8   8   8
#     4  11  23  39  69 104 132 184 228 286 361 424
#     4  12  22  43  68  97 141 177 236 291 347 424
#     4  11  22  43  64  96 136 178 223 289 351 402
#     4  11  22  43  66  97 143 173 228 294 351 422
#     4  11  25  38  63  98 133 179 220 287 351 414
#     4  10  24  45  65  97 142 177 234 293 343 415
#     4  11  25  42  70  97 130 192 239 286 344 422
#     4  11  22  39  67 100 134 180 226 286 349 424
#
# _framework density 23.603107999999999
#
# number of rings (size 3 to 8) (size 9 to 14) (size 15 to 20)
#    0.000    1.000    3.750    2.625    5.250    1.500 
#    2.250    0.000    0.000    3.000    0.000    0.000 
#    0.000    0.000    0.000    0.000    0.000    0.000 
#
# Total GULP energy -178642.513915 kJ/mol
# GULP energy per Si atom -5582.578560 kJ/mol
# Density = 2.354939 g / cm^3
# Si number density = 23.603108 Si / 1000 Ang^3
#
#
#
# Elastic Constant Matrix: (Units=GPa)
#
#
# Indices 1 2 3 4 5 6 
#
# 1 54.6580 2.7944 26.1308 -0.0006 5.7232 -0.0010
# 2 2.7944 139.2463 31.2091 0.0055 7.0716 -0.0008
# 3 26.1308 31.2091 127.9446 0.0108 0.4222 0.0020
# 4 -0.0006 0.0055 0.0108 33.5718 0.0012 2.2858
# 5 5.7232 7.0716 0.4222 0.0012 20.8092 -0.0024
# 6 -0.0010 -0.0008 0.0020 2.2858 -0.0024 15.6198
#
#
#
# Elastic Compliance Matrix: (Units=1/GPa)
#
#
# Indices 1 2 3 4 5 6 
#
# 1 0.021025 0.000889 -0.004491 0.000002 -0.005994 0.000001
# 2 0.000889 0.007772 -0.002068 -0.000001 -0.002844 0.000000
# 3 -0.004491 -0.002068 0.009232 -0.000003 0.001751 -0.000001
# 4 0.000002 -0.000001 -0.000003 0.030087 -0.000003 -0.004403
# 5 -0.005994 -0.002844 0.001751 -0.000003 0.050635 0.000008
# 6 0.000001 0.000000 -0.000001 -0.004403 0.000008 0.064666
#
#
# Mechanical properties :
#
#
# Convention : Reuss Voigt Hill
#
# Bulk Modulus (GPa) = 37.46967 49.12417 43.29692
# Shear Modulus (GPa) = 24.55179 31.44782 27.99981
#
# Velocity S-wave (km/s) = 3.22870 3.65411 3.44797
# Velocity P-wave (km/s) = 5.45973 6.21781 5.85106
#
# Compressibility (1/GPa) = 0.02668825
#
# Stress axis : x y z
#
# Youngs Moduli (GPa) = 47.56287 128.67437 108.32182
#
# Poissons Ratio (x) = -0.11439 0.48648
# Poissons Ratio (y) = -0.04228 0.22400
# Poissons Ratio (z) = 0.21361 0.26608
#
# Static dielectric constant tensor:
#      x y z
#    x 1.999520 0.000000 0.004300 
#    y 0.000000 1.903150 0.000000 
#    z 0.004300 0.000000 1.947750 
# 
# From -- ./inp_files/274815.got.cif
#   From: 2010.05.17/outbox.cif.g08.bks.cpg/sg15_138_cif.got.tgz:274815.got - 2010.06.03 18:47:42.
