data_PCOD9298618
_publ_section_title
;
Structure prediction by ZEFSAII (Michael W. Deem and Ramdas Pophale) SiO2 
 PCOD9298618
Probable space group: C 2/C
;
_chemical_formula_sum "Si O2"
_cell_formula_units_Z 56
_cell_length_a 15.858972
_cell_length_b 11.568136
_cell_length_c 29.515571
_cell_angle_alpha 90.000000
_cell_angle_beta 28.358468
_cell_angle_gamma 90.000000
_cell_volume 2571.999211
_symmetry_space_group_name_H-M "C 2/C"
_symmetry_group_IT_number 15
_symmetry_cell_setting 'monoclinic'
loop_
_space_group_symop_operation_xyz
x,y,z
-x,y,1/2-z
-x,-y,-z
x,-y,1/2+z
1/2+x,1/2+y,z
1/2-x,1/2+y,1/2-z
1/2-x,1/2-y,-z
1/2+x,1/2-y,1/2+z
loop_
_atom_site_type_symbol
_atom_site_label
_atom_site_fract_x
_atom_site_fract_y
_atom_site_fract_z
Si Si1 0.156298 0.986228 0.490055
Si Si2 0.972357 0.373118 0.179102
Si Si3 0.737569 0.554835 0.347929
Si Si4 0.771167 0.074771 0.953354
Si Si5 0.305712 0.693438 0.849937
Si Si6 0.541452 0.610788 0.283292
Si Si7 0.612643 0.036396 0.874558
O O1 0.317346 0.899435 0.425182
O O2 0.952215 0.944818 0.588122
O O3 0.195113 0.016081 0.419455
O O4 0.182910 0.085660 0.515338
O O5 0.875442 0.468038 0.257846
O O6 0.957004 0.243354 0.202788
O O7 0.882009 0.386174 0.172990
O O8 0.805390 0.684634 0.324186
O O9 0.788844 0.184822 0.912039
O O10 0.900264 0.971591 0.875104
O O11 0.574065 0.027257 0.038804
O O12 0.500000 0.640873 0.750000
O O13 0.154988 0.614931 0.898056
O O14 0.500000 0.611105 0.250000
O O15 0.733176 0.556997 0.201095
#
# Coordination Sequence:
#
# PCOD9298618 Si02
#       7
#     8   8   8   8   8   8   8
#     4  10  24  45  66 101 133 182 233 269 348 402
#     4  11  26  44  71 100 139 179 236 279 337 412
#     4  11  25  45  70  97 140 179 224 284 345 407
#     4  11  24  43  66  99 140 170 234 281 332 412
#     4  12  24  43  68  98 141 177 219 282 348 403
#     4  12  24  45  71  98 138 182 230 286 339 411
#     4  11  25  42  68 106 128 185 222 282 348 392
#
# _framework density 21.772946999999998
#
# number of rings (size 3 to 8) (size 9 to 14) (size 15 to 20)
#    0.000    0.857    2.857    3.429    6.000    4.000 
#    0.000    0.000    0.000    0.000    0.000    0.000 
#    0.000    0.000    0.000    0.000    0.000    0.000 
#
# Total GULP energy -156425.950205 kJ/mol
# GULP energy per Si atom -5586.641079 kJ/mol
# Density = 2.172339 g / cm^3
# Si number density = 21.772947 Si / 1000 Ang^3
#
#
#
# Elastic Constant Matrix: (Units=GPa)
#
#
# Indices 1 2 3 4 5 6 
#
# 1 140.6284 34.9800 38.4296 -0.0001 -17.8701 -0.0001
# 2 34.9800 110.9476 30.7204 0.0000 0.9192 -0.0001
# 3 38.4296 30.7204 117.9086 0.0005 -30.5684 0.0000
# 4 -0.0001 0.0000 0.0005 11.5726 -0.0001 6.5692
# 5 -17.8701 0.9192 -30.5684 -0.0001 42.8617 -0.0001
# 6 -0.0001 -0.0001 0.0000 6.5692 -0.0001 25.4454
#
#
#
# Elastic Compliance Matrix: (Units=1/GPa)
#
#
# Indices 1 2 3 4 5 6 
#
# 1 0.008397 -0.002250 -0.001510 0.000000 0.002473 0.000000
# 2 -0.002250 0.010535 -0.002838 0.000000 -0.003188 0.000000
# 3 -0.001510 -0.002838 0.011735 -0.000001 0.007801 0.000000
# 4 0.000000 0.000000 -0.000001 0.101249 0.000000 -0.026139
# 5 0.002473 -0.003188 0.007801 0.000000 0.029994 0.000000
# 6 0.000000 0.000000 0.000000 -0.026139 0.000000 0.046048
#
#
# Mechanical properties :
#
#
# Convention : Reuss Voigt Hill
#
# Bulk Modulus (GPa) = 57.23470 64.19384 60.71427
# Shear Modulus (GPa) = 22.02865 33.66624 27.84744
#
# Velocity S-wave (km/s) = 3.18424 3.93649 3.58018
# Velocity P-wave (km/s) = 6.31374 7.08580 6.71089
#
# Compressibility (1/GPa) = 0.01747192
#
# Stress axis : x y z
#
# Youngs Moduli (GPa) = 119.08499 94.92276 85.21538
#
# Poissons Ratio (x) = 0.21358 0.12865
# Poissons Ratio (y) = 0.26795 0.24184
# Poissons Ratio (z) = 0.17978 0.26939
#
# Static dielectric constant tensor:
#      x y z
#    x 1.725520 0.000000 -0.037300 
#    y 0.000000 1.805160 0.000000 
#    z -0.037300 0.000000 1.674470 
# 
# From -- ./inp_files/313720.got.cif
#   From: 2010.05.17/outbox.cif.g08.bks.cpg/sg15_157_cif.got.tgz:313720.got - 2010.06.03 18:47:42.
