data_PCOD9298684
_publ_section_title
;
Structure prediction by ZEFSAII (Michael W. Deem and Ramdas Pophale) SiO2 
 PCOD9298684
Probable space group: C 2/C
;
_chemical_formula_sum "Si O2"
_cell_formula_units_Z 44
_cell_length_a 15.747545
_cell_length_b 22.355631
_cell_length_c 9.759051
_cell_angle_alpha 90.000000
_cell_angle_beta 36.448681
_cell_angle_gamma 90.000000
_cell_volume 2041.121189
_symmetry_space_group_name_H-M "C 2/C"
_symmetry_group_IT_number 15
_symmetry_cell_setting 'monoclinic'
loop_
_space_group_symop_operation_xyz
x,y,z
-x,y,1/2-z
-x,-y,-z
x,-y,1/2+z
1/2+x,1/2+y,z
1/2-x,1/2+y,1/2-z
1/2-x,1/2-y,-z
1/2+x,1/2-y,1/2+z
loop_
_atom_site_type_symbol
_atom_site_label
_atom_site_fract_x
_atom_site_fract_y
_atom_site_fract_z
Si Si1 0.302737 0.879200 0.030710
Si Si2 0.503098 0.334560 0.043513
Si Si3 0.000000 0.119461 0.250000
Si Si4 0.000000 0.271038 0.750000
Si Si5 0.215825 0.404373 0.745847
Si Si6 0.725926 0.960763 0.178469
Si Si7 0.000000 0.430785 0.250000
O O1 0.130940 0.876571 0.246226
O O2 0.333484 0.923453 0.115321
O O3 0.369984 0.813859 0.963123
O O4 0.352413 0.895869 0.814634
O O5 0.471018 0.271956 0.158485
O O6 0.511748 0.339208 0.868617
O O7 0.650549 0.360779 0.909248
O O8 0.861382 0.076459 0.445288
O O9 0.265326 0.473638 0.681930
O O10 0.103503 0.394864 0.013532
O O11 0.606090 0.965442 0.215585
#
# Coordination Sequence:
#
# PCOD9298684 Si02
#       7
#     8   8   4   4   8   8   4
#     4  11  25  44  73 109 139 191 238 295 358 424
#     4  11  24  44  72 104 142 186 245 299 352 421
#     4  10  24  45  69 108 141 185 236 300 368 422
#     4  12  24  48  72 102 141 189 250 298 344 424
#     4  12  24  43  72 107 144 189 237 293 363 429
#     4  11  25  43  73 105 152 183 239 291 367 436
#     4  12  24  43  63 104 152 190 222 294 352 434
#
# _framework density 21.55678
#
# number of rings (size 3 to 8) (size 9 to 14) (size 15 to 20)
#    0.000    0.727    3.636    3.273    2.545    2.909 
#    0.000    7.273    0.000    0.000    0.000    0.000 
#    0.000    0.000    0.000    0.000    0.000    0.000 
#
# Total GULP energy -122954.424714 kJ/mol
# GULP energy per Si atom -5588.837487 kJ/mol
# Density = 2.150772 g / cm^3
# Si number density = 21.556780 Si / 1000 Ang^3
#
#
#
# Elastic Constant Matrix: (Units=GPa)
#
#
# Indices 1 2 3 4 5 6 
#
# 1 95.6487 18.7684 27.5404 0.0000 24.0182 0.0001
# 2 18.7684 73.5576 -2.9501 0.0000 17.0779 0.0000
# 3 27.5404 -2.9501 86.8863 -0.0001 21.1241 0.0001
# 4 0.0000 0.0000 -0.0001 18.6003 0.0000 6.8603
# 5 24.0182 17.0779 21.1241 0.0000 53.1002 -0.0001
# 6 0.0001 0.0000 0.0001 6.8603 -0.0001 16.4043
#
#
#
# Elastic Compliance Matrix: (Units=1/GPa)
#
#
# Indices 1 2 3 4 5 6 
#
# 1 0.012816 -0.002545 -0.003253 0.000000 -0.003684 0.000000
# 2 -0.002545 0.015463 0.002503 0.000000 -0.004818 0.000000
# 3 -0.003253 0.002503 0.013798 0.000000 -0.004823 0.000000
# 4 0.000000 0.000000 0.000000 0.063568 0.000000 -0.026584
# 5 -0.003684 -0.004818 -0.004823 0.000000 0.023967 0.000000
# 6 0.000000 0.000000 0.000000 -0.026584 0.000000 0.072077
#
#
# Mechanical properties :
#
#
# Convention : Reuss Voigt Hill
#
# Bulk Modulus (GPa) = 28.17935 38.09000 33.13467
# Shear Modulus (GPa) = 22.71615 31.80321 27.25968
#
# Velocity S-wave (km/s) = 3.24972 3.84516 3.55991
# Velocity P-wave (km/s) = 5.21358 6.11732 5.68345
#
# Compressibility (1/GPa) = 0.03548698
#
# Stress axis : x y z
#
# Youngs Moduli (GPa) = 78.02647 64.66998 72.47490
#
# Poissons Ratio (x) = 0.16459 0.23576
# Poissons Ratio (y) = 0.19859 -0.18141
# Poissons Ratio (z) = 0.25382 -0.16187
#
# Static dielectric constant tensor:
#      x y z
#    x 1.797430 0.000000 -0.000510 
#    y 0.000000 1.759020 0.000000 
#    z -0.000510 0.000000 1.800930 
# 
# From -- ./inp_files/43368.got.cif
#   From: 2010.05.17/outbox.cif.g08.bks.cpg/sg15_22_cif.got.tgz:43368.got - 2010.06.03 18:47:42.
