data_PCOD9298895
_publ_section_title
;
Structure prediction by ZEFSAII (Michael W. Deem and Ramdas Pophale) SiO2 
 PCOD9298895
Probable space group: C 2/C
;
_chemical_formula_sum "Si O2"
_cell_formula_units_Z 36
_cell_length_a 10.069007
_cell_length_b 27.682931
_cell_length_c 5.364308
_cell_angle_alpha 90.000000
_cell_angle_beta 91.740998
_cell_angle_gamma 90.000000
_cell_volume 1494.554966
_symmetry_space_group_name_H-M "C 2/C"
_symmetry_group_IT_number 15
_symmetry_cell_setting 'monoclinic'
loop_
_space_group_symop_operation_xyz
x,y,z
-x,y,1/2-z
-x,-y,-z
x,-y,1/2+z
1/2+x,1/2+y,z
1/2-x,1/2+y,1/2-z
1/2-x,1/2-y,-z
1/2+x,1/2-y,1/2+z
loop_
_atom_site_type_symbol
_atom_site_label
_atom_site_fract_x
_atom_site_fract_y
_atom_site_fract_z
Si Si1 0.256202 0.692976 0.976071
Si Si2 0.000000 0.070708 0.250000
Si Si3 0.282947 0.972131 0.872402
Si Si4 0.500000 0.858923 0.250000
Si Si5 0.641559 0.872291 0.817829
Si Si6 0.500000 0.635617 0.750000
O O1 0.377350 0.669449 0.829825
O O2 0.117786 0.676901 0.845079
O O3 0.250000 0.750000 0.000000
O O4 0.251817 0.666131 0.247248
O O5 0.125312 0.038173 0.332735
O O6 0.969786 0.102329 0.501252
O O7 0.340192 0.918296 0.853528
O O8 0.320091 0.002487 0.630265
O O9 0.399278 0.890689 0.414175
O O10 0.500000 0.847496 0.750000
#
# Coordination Sequence:
#
# PCOD9298895 Si02
#       6
#     8   4   8   4   8   4
#     4  11  26  46  72 110 144 193 246 301 368 439
#     4  12  24  48  70 106 148 190 242 302 372 432
#     4  12  26  43  71 104 143 189 244 301 365 434
#     4  10  24  47  74  94 154 188 240 305 374 426
#     4  10  24  46  69 100 140 189 239 302 364 432
#     4  12  26  45  82 106 150 194 244 301 366 440
#
# _framework density 24.087437999999999
#
# number of rings (size 3 to 8) (size 9 to 14) (size 15 to 20)
#    0.000    0.889    2.222    3.333   10.889    2.667 
#    0.000    0.000    0.000    0.000    0.000    0.000 
#    0.000    0.000    0.000    0.000    0.000    0.000 
#
# Total GULP energy -100287.816041 kJ/mol
# GULP energy per Si atom -5571.545336 kJ/mol
# Density = 2.403261 g / cm^3
# Si number density = 24.087438 Si / 1000 Ang^3
#
#
#
# Elastic Constant Matrix: (Units=GPa)
#
#
# Indices 1 2 3 4 5 6 
#
# 1 72.1868 -8.5524 18.9771 0.0000 -22.4018 0.0000
# 2 -8.5524 109.1217 60.3399 0.0000 -29.7058 0.0000
# 3 18.9771 60.3399 147.5110 0.0000 -35.9953 0.0000
# 4 0.0000 0.0000 0.0000 30.6450 0.0000 10.3502
# 5 -22.4018 -29.7058 -35.9953 0.0000 48.8209 0.0000
# 6 0.0000 0.0000 0.0000 10.3502 0.0000 29.6940
#
#
#
# Elastic Compliance Matrix: (Units=1/GPa)
#
#
# Indices 1 2 3 4 5 6 
#
# 1 0.018127 0.005280 -0.002046 0.000000 0.010022 0.000000
# 2 0.005280 0.014223 -0.004627 0.000000 0.007666 0.000000
# 3 -0.002046 -0.004627 0.009778 0.000000 0.003455 0.000000
# 4 0.000000 0.000000 0.000000 0.036986 0.000000 -0.012892
# 5 0.010022 0.007666 0.003455 0.000000 0.032293 0.000000
# 6 0.000000 0.000000 0.000000 -0.012892 0.000000 0.038171
#
#
# Mechanical properties :
#
#
# Convention : Reuss Voigt Hill
#
# Bulk Modulus (GPa) = 25.41788 52.26095 38.83942
# Shear Modulus (GPa) = 30.21557 39.03564 34.62560
#
# Velocity S-wave (km/s) = 3.54561 4.03001 3.79555
# Velocity P-wave (km/s) = 5.22848 6.58772 5.94706
#
# Compressibility (1/GPa) = 0.03934239
#
# Stress axis : x y z
#
# Youngs Moduli (GPa) = 55.16759 70.30753 102.26919
#
# Poissons Ratio (x) = -0.37125 0.20929
# Poissons Ratio (y) = -0.29131 0.47317
# Poissons Ratio (z) = 0.11290 0.32529
#
# Static dielectric constant tensor:
#      x y z
#    x 1.956240 0.000000 0.095770 
#    y 0.000000 1.880700 0.000000 
#    z 0.095770 0.000000 2.912870 
# 
# From -- ./inp_files/4305.got.cif
#   From: 2010.05.17/outbox.cif.g08.bks.cpg/sg15_3_cif.got.tgz:4305.got - 2010.06.03 18:47:42.
