data_PCOD9298606
_publ_section_title
;
Structure prediction by ZEFSAII (Michael W. Deem and Ramdas Pophale) SiO2 
 PCOD9298606
Probable space group: C 2/C
;
_chemical_formula_sum "Si O2"
_cell_formula_units_Z 36
_cell_length_a 8.546774
_cell_length_b 21.685959
_cell_length_c 15.182509
_cell_angle_alpha 90.000000
_cell_angle_beta 35.788116
_cell_angle_gamma 90.000000
_cell_volume 1645.598634
_symmetry_space_group_name_H-M "C 2/C"
_symmetry_group_IT_number 15
_symmetry_cell_setting 'monoclinic'
loop_
_space_group_symop_operation_xyz
x,y,z
-x,y,1/2-z
-x,-y,-z
x,-y,1/2+z
1/2+x,1/2+y,z
1/2-x,1/2+y,1/2-z
1/2-x,1/2-y,-z
1/2+x,1/2-y,1/2+z
loop_
_atom_site_type_symbol
_atom_site_label
_atom_site_fract_x
_atom_site_fract_y
_atom_site_fract_z
Si Si1 0.250784 0.679377 0.195799
Si Si2 0.816691 0.228594 0.625018
Si Si3 0.000000 0.022589 0.750000
Si Si4 0.368403 0.402956 0.896716
Si Si5 0.844379 0.395717 0.228919
O O1 0.132993 0.714402 0.334355
O O2 0.401197 0.614177 0.140146
O O3 0.000000 0.669809 0.250000
O O4 0.478549 0.723733 0.049341
O O5 0.500000 0.230958 0.750000
O O6 0.840009 0.162091 0.662309
O O7 0.825074 0.059496 0.757978
O O8 0.829510 0.973999 0.887536
O O9 0.500000 0.373724 0.750000
O O10 0.095172 0.375023 0.054646
O O11 0.000000 0.417312 0.250000
#
# Coordination Sequence:
#
# PCOD9298606 Si02
#       5
#     8   8   4   8   8
#     4  12  25  42  67 104 135 179 231 281 346 415
#     4  11  24  43  69  97 139 182 220 288 348 407
#     4  10  26  42  76  94 138 186 232 284 340 414
#     4  10  24  45  63  99 136 180 225 286 346 397
#     4  11  23  46  69 101 138 180 234 281 350 402
#
# _framework density 21.876536000000002
#
# number of rings (size 3 to 8) (size 9 to 14) (size 15 to 20)
#    0.667    0.444    4.444    2.667    4.667    3.556 
#    0.000    0.000    0.000    0.000    0.000    0.000 
#    0.000    0.000    0.000    0.000    0.000    0.000 
#
# Total GULP energy -100214.317504 kJ/mol
# GULP energy per Si atom -5567.462084 kJ/mol
# Density = 2.182674 g / cm^3
# Si number density = 21.876536 Si / 1000 Ang^3
#
#
#
# Elastic Constant Matrix: (Units=GPa)
#
#
# Indices 1 2 3 4 5 6 
#
# 1 108.7938 52.1433 0.9557 0.0034 0.0111 -0.0047
# 2 52.1433 81.7668 -22.7245 0.0015 9.4806 -0.0016
# 3 0.9557 -22.7245 79.5090 -0.0047 10.4635 0.0044
# 4 0.0034 0.0015 -0.0047 215.8072 0.0027 -233.1246
# 5 0.0111 9.4806 10.4635 0.0027 24.0363 -0.0024
# 6 -0.0047 -0.0016 0.0044 -233.1246 -0.0024 276.1754
#
#
#
# Elastic Compliance Matrix: (Units=1/GPa)
#
#
# Indices 1 2 3 4 5 6 
#
# 1 0.014594 -0.011196 -0.004196 0.000000 0.006236 0.000000
# 2 -0.011196 0.023207 0.008456 0.000000 -0.012829 0.000000
# 3 -0.004196 0.008456 0.016424 0.000001 -0.010483 0.000001
# 4 0.000000 0.000000 0.000001 0.052569 -0.000002 0.044375
# 5 0.006236 -0.012829 -0.010483 -0.000002 0.051225 -0.000001
# 6 0.000000 0.000000 0.000001 0.044375 -0.000001 0.041078
#
#
# Mechanical properties :
#
#
# Convention : Reuss Voigt Hill
#
# Bulk Modulus (GPa) = 24.78131 36.75763 30.76947
# Shear Modulus (GPa) = 22.08288 119.18345 70.63316
#
# Velocity S-wave (km/s) = 3.18060 7.38907 5.68835
# Velocity P-wave (km/s) = 4.98405 9.46766 7.56562
#
# Compressibility (1/GPa) = 0.04035299
#
# Stress axis : x y z
#
# Youngs Moduli (GPa) = 68.52170 43.09026 60.88673
#
# Poissons Ratio (x) = 0.48243 0.25548
# Poissons Ratio (y) = 0.76716 -0.51484
# Poissons Ratio (z) = 0.28751 -0.36436
#
# Static dielectric constant tensor:
#      x y z
#    x 1.868300 0.000000 0.050140 
#    y 0.000000 1.813960 0.000000 
#    z 0.050140 0.000000 1.824980 
# 
# From -- ./inp_files/136735.got.cif
#   From: 2010.05.17/outbox.cif.g08.bks.cpg/sg15_69_cif.got.tgz:136735.got - 2010.06.03 18:47:42.
