data_PCOD9298024
_publ_section_title
;
Structure prediction by ZEFSAII (Michael W. Deem and Ramdas Pophale) SiO2 
 PCOD9298024
Probable space group: C 2/C
;
_chemical_formula_sum "Si O2"
_cell_formula_units_Z 44
_cell_length_a 7.220854
_cell_length_b 12.279704
_cell_length_c 26.029001
_cell_angle_alpha 90.000000
_cell_angle_beta 78.951662
_cell_angle_gamma 90.000000
_cell_volume 2265.213589
_symmetry_space_group_name_H-M "C 2/C"
_symmetry_group_IT_number 15
_symmetry_cell_setting 'monoclinic'
loop_
_space_group_symop_operation_xyz
x,y,z
-x,y,1/2-z
-x,-y,-z
x,-y,1/2+z
1/2+x,1/2+y,z
1/2-x,1/2+y,1/2-z
1/2-x,1/2-y,-z
1/2+x,1/2-y,1/2+z
loop_
_atom_site_type_symbol
_atom_site_label
_atom_site_fract_x
_atom_site_fract_y
_atom_site_fract_z
Si Si1 0.871863 0.534599 0.707708
Si Si2 0.568668 0.741937 0.346562
Si Si3 0.500000 0.401591 0.750000
Si Si4 0.802262 0.639693 0.937799
Si Si5 0.964738 0.288458 0.981102
Si Si6 0.368932 0.088139 0.386053
O O1 0.837924 0.645139 0.677720
O O2 0.682965 0.477371 0.736511
O O3 0.988190 0.451475 0.665569
O O4 0.000000 0.562272 0.750000
O O5 0.510102 0.672975 0.300018
O O6 0.391930 0.779452 0.390500
O O7 0.713361 0.669487 0.371558
O O8 0.606609 0.686580 0.969220
O O9 0.778923 0.522035 0.913842
O O10 0.955022 0.640925 0.975826
O O11 0.972921 0.353837 0.927611
O O12 0.750000 0.250000 0.000000
#
# Coordination Sequence:
#
# PCOD9298024 Si02
#       6
#     8   8   4   8   8   8
#     4  11  24  42  62  91 125 164 214 260 313 378
#     4  11  23  43  64  93 128 166 212 264 312 378
#     4  12  24  40  66  90 122 172 210 258 326 368
#     4  10  24  43  65  94 132 165 208 264 313 378
#     4  11  22  43  67  96 128 167 211 260 316 379
#     4  11  23  43  66  92 129 168 209 261 321 371
#
# _framework density 19.424216999999999
#
# number of rings (size 3 to 8) (size 9 to 14) (size 15 to 20)
#    0.000    1.091    4.545    1.636    0.000    3.636 
#    3.273    0.000    0.000    0.000    0.000    0.000 
#    0.000    0.000    0.000    0.000    0.000    0.000 
#
# Total GULP energy -122982.154756 kJ/mol
# GULP energy per Si atom -5590.097943 kJ/mol
# Density = 1.938001 g / cm^3
# Si number density = 19.424217 Si / 1000 Ang^3
#
#
#
# Elastic Constant Matrix: (Units=GPa)
#
#
# Indices 1 2 3 4 5 6 
#
# 1 81.1706 45.4236 30.0065 0.0000 12.6902 0.0000
# 2 45.4236 92.1419 35.1612 0.0000 14.7318 0.0000
# 3 30.0065 35.1612 114.4729 0.0000 12.0437 0.0000
# 4 0.0000 0.0000 0.0000 28.0481 0.0000 20.2247
# 5 12.6902 14.7318 12.0437 0.0000 12.8428 0.0000
# 6 0.0000 0.0000 0.0000 20.2247 0.0000 7.3714
#
#
#
# Elastic Compliance Matrix: (Units=1/GPa)
#
#
# Indices 1 2 3 4 5 6 
#
# 1 0.018159 -0.006953 -0.001748 0.000000 -0.008328 0.000000
# 2 -0.006953 0.016781 -0.002252 0.000000 -0.010267 0.000000
# 3 -0.001748 -0.002252 0.010465 0.000000 -0.005503 0.000000
# 4 0.000000 0.000000 0.000000 -0.036441 0.000000 0.099981
# 5 -0.008328 -0.010267 -0.005503 0.000000 0.103032 0.000000
# 6 0.000000 0.000000 0.000000 0.099981 0.000000 -0.138656
#
#
# Mechanical properties :
#
#
# Convention : Reuss Voigt Hill
#
# Bulk Modulus (GPa) = 42.55520 56.55200 49.55360
# Shear Modulus (GPa) = 1623.77429 21.46541 822.61985
#
# Velocity S-wave (km/s) = 28.94423 3.32789 20.60149
# Velocity P-wave (km/s) = 33.74878 6.62901 24.31999
#
# Compressibility (1/GPa) = 0.02349889
#
# Stress axis : x y z
#
# Youngs Moduli (GPa) = 55.06876 59.58946 95.56111
#
# Poissons Ratio (x) = 0.41435 0.16704
# Poissons Ratio (y) = 0.38292 0.21517
# Poissons Ratio (z) = 0.09626 0.13417
#
# Static dielectric constant tensor:
#      x y z
#    x 1.642610 0.000000 -0.008420 
#    y 0.000000 1.659050 0.000000 
#    z -0.008420 0.000000 1.681560 
# 
# From -- ./inp_files/287408.got.cif
#   From: 2010.05.17/outbox.cif.g08.bks.cpg/sg15_144_cif.got.tgz:287408.got - 2010.06.03 18:47:42.
