data_PCOD9298073
_publ_section_title
;
Structure prediction by ZEFSAII (Michael W. Deem and Ramdas Pophale) SiO2 
 PCOD9298073
Probable space group: C 2/C
;
_chemical_formula_sum "Si O2"
_cell_formula_units_Z 40
_cell_length_a 30.710615
_cell_length_b 4.792443
_cell_length_c 17.959832
_cell_angle_alpha 90.000000
_cell_angle_beta 141.720379
_cell_angle_gamma 90.000000
_cell_volume 1637.528828
_symmetry_space_group_name_H-M "C 2/C"
_symmetry_group_IT_number 15
_symmetry_cell_setting 'monoclinic'
loop_
_space_group_symop_operation_xyz
x,y,z
-x,y,1/2-z
-x,-y,-z
x,-y,1/2+z
1/2+x,1/2+y,z
1/2-x,1/2+y,1/2-z
1/2-x,1/2-y,-z
1/2+x,1/2-y,1/2+z
loop_
_atom_site_type_symbol
_atom_site_label
_atom_site_fract_x
_atom_site_fract_y
_atom_site_fract_z
Si Si1 0.434998 0.141891 0.836494
Si Si2 0.128690 0.843904 0.328047
Si Si3 0.722079 0.619812 0.827928
Si Si4 0.906437 0.730691 0.435124
Si Si5 0.317886 0.407305 0.449797
O O1 0.387029 0.359253 0.729928
O O2 0.432591 0.870498 0.778596
O O3 0.410325 0.035410 0.884564
O O4 0.510899 0.285959 0.946817
O O5 0.195456 0.741343 0.369332
O O6 0.144627 0.917026 0.434166
O O7 0.650882 0.583449 0.685194
O O8 0.765476 0.341880 0.902319
O O9 0.769184 0.850440 0.848244
O O10 0.874439 0.750184 0.474265
#
# Coordination Sequence:
#
# PCOD9298073 Si02
#       5
#     8   8   8   8   8
#     4  10  24  44  68  93 132 181 225 273 334 406
#     4  11  23  43  67  96 133 179 222 271 341 406
#     4  11  23  40  65  97 134 173 217 274 340 406
#     4  10  24  43  67  97 131 175 227 278 332 398
#     4  12  24  40  66  99 135 172 220 281 336 401
#
# _framework density 24.427050999999999
#
# number of rings (size 3 to 8) (size 9 to 14) (size 15 to 20)
#    0.000    1.200    0.000    6.000    0.000   14.400 
#    0.000    2.000    0.000    0.000    0.000    0.000 
#    0.000    0.000    0.000    0.000    0.000    0.000 
#
# Total GULP energy -111564.506630 kJ/mol
# GULP energy per Si atom -5578.225331 kJ/mol
# Density = 2.437145 g / cm^3
# Si number density = 24.427051 Si / 1000 Ang^3
#
#
#
# Elastic Constant Matrix: (Units=GPa)
#
#
# Indices 1 2 3 4 5 6 
#
# 1 99.8678 21.8509 61.1536 -0.0002 0.5598 -0.0063
# 2 21.8509 99.9201 33.3346 0.0036 13.9172 -0.0054
# 3 61.1536 33.3346 105.3097 -0.0011 1.9552 0.0038
# 4 -0.0002 0.0036 -0.0011 24.5180 0.0001 -1.6140
# 5 0.5598 13.9172 1.9552 0.0001 18.1151 -0.0021
# 6 -0.0063 -0.0054 0.0038 -1.6140 -0.0021 19.0113
#
#
#
# Elastic Compliance Matrix: (Units=1/GPa)
#
#
# Indices 1 2 3 4 5 6 
#
# 1 0.015569 -0.000571 -0.008877 0.000000 0.000915 0.000007
# 2 -0.000571 0.012586 -0.003480 -0.000002 -0.009276 0.000003
# 3 -0.008877 -0.003480 0.015729 0.000001 0.001250 -0.000007
# 4 0.000000 -0.000002 0.000001 0.041016 0.000001 0.003482
# 5 0.000915 -0.009276 0.001250 0.000001 0.062166 0.000004
# 6 0.000007 0.000003 -0.000007 0.003482 0.000004 0.052896
#
#
# Mechanical properties :
#
#
# Convention : Reuss Voigt Hill
#
# Bulk Modulus (GPa) = 55.47039 59.75286 57.61162
# Shear Modulus (GPa) = 21.56779 24.91277 23.24028
#
# Velocity S-wave (km/s) = 2.97467 3.19703 3.08785
# Velocity P-wave (km/s) = 5.87844 6.17599 6.02905
#
# Compressibility (1/GPa) = 0.01802764
#
# Stress axis : x y z
#
# Youngs Moduli (GPa) = 64.23051 79.45423 63.57551
#
# Poissons Ratio (x) = 0.04533 0.56438
# Poissons Ratio (y) = 0.03665 0.22127
# Poissons Ratio (z) = 0.57019 0.27653
#
# Static dielectric constant tensor:
#      x y z
#    x 2.066420 0.000000 -0.038700 
#    y 0.000000 1.930330 0.000000 
#    z -0.038700 0.000000 1.984930 
# 
# From -- ./inp_files/223732.got.cif
#   From: 2010.05.17/outbox.cif.g08.bks.cpg/sg15_112_cif.got.tgz:223732.got - 2010.06.03 18:47:42.
