data_PCOD9298730
_publ_section_title
;
Structure prediction by ZEFSAII (Michael W. Deem and Ramdas Pophale) SiO2 
 PCOD9298730
Probable space group: C 2/C
;
_chemical_formula_sum "Si O2"
_cell_formula_units_Z 36
_cell_length_a 22.424813
_cell_length_b 5.070762
_cell_length_c 12.974858
_cell_angle_alpha 90.000000
_cell_angle_beta 94.780753
_cell_angle_gamma 90.000000
_cell_volume 1470.249660
_symmetry_space_group_name_H-M "C 2/C"
_symmetry_group_IT_number 15
_symmetry_cell_setting 'monoclinic'
loop_
_space_group_symop_operation_xyz
x,y,z
-x,y,1/2-z
-x,-y,-z
x,-y,1/2+z
1/2+x,1/2+y,z
1/2-x,1/2+y,1/2-z
1/2-x,1/2-y,-z
1/2+x,1/2-y,1/2+z
loop_
_atom_site_type_symbol
_atom_site_label
_atom_site_fract_x
_atom_site_fract_y
_atom_site_fract_z
Si Si1 0.292396 0.489856 0.987297
Si Si2 0.710345 0.732135 0.229738
Si Si3 0.000000 0.068439 0.750000
Si Si4 0.463099 0.243186 0.456046
Si Si5 0.387354 0.315710 0.625233
O O1 0.313941 0.426855 0.873711
O O2 0.250000 0.250000 0.000000
O O3 0.345848 0.450863 0.076694
O O4 0.250000 0.750000 0.000000
O O5 0.753924 0.504896 0.283657
O O6 0.656415 0.813418 0.298306
O O7 0.034097 0.235783 0.666738
O O8 0.051502 0.895561 0.811251
O O9 0.500000 0.500000 0.500000
O O10 0.402645 0.202671 0.513610
O O11 0.500000 0.000000 0.500000
#
# Coordination Sequence:
#
# PCOD9298730 Si02
#       5
#     8   8   4   8   8
#     4  12  24  44  69 105 147 193 248 309 370 444
#     4  12  24  44  71 106 145 196 244 301 376 445
#     4  10  24  48  74 108 146 200 248 306 392 446
#     4  10  24  45  71 104 144 191 245 306 368 444
#     4  11  24  46  75 106 154 187 257 303 376 450
#
# _framework density 24.485634999999998
#
# number of rings (size 3 to 8) (size 9 to 14) (size 15 to 20)
#    0.000    0.889    4.444    1.333    0.000   10.667 
#    0.000   11.111    0.000    0.000    0.000    0.000 
#    0.000    0.000    0.000    0.000    0.000    0.000 
#
# Total GULP energy -100314.723609 kJ/mol
# GULP energy per Si atom -5573.040200 kJ/mol
# Density = 2.442990 g / cm^3
# Si number density = 24.485635 Si / 1000 Ang^3
#
#
#
# Elastic Constant Matrix: (Units=GPa)
#
#
# Indices 1 2 3 4 5 6 
#
# 1 116.0719 9.3241 39.8456 0.0000 -23.5719 0.0000
# 2 9.3241 117.8331 -1.5702 0.0000 -8.6840 0.0000
# 3 39.8456 -1.5702 146.9662 0.0000 -37.4236 0.0000
# 4 0.0000 0.0000 0.0000 19.4527 0.0000 0.8327
# 5 -23.5719 -8.6840 -37.4236 0.0000 82.0278 0.0000
# 6 0.0000 0.0000 0.0000 0.8327 0.0000 29.8600
#
#
#
# Elastic Compliance Matrix: (Units=1/GPa)
#
#
# Indices 1 2 3 4 5 6 
#
# 1 0.009782 -0.000676 -0.002220 0.000000 0.001727 0.000000
# 2 -0.000676 0.008617 0.000519 0.000000 0.000954 0.000000
# 3 -0.002220 0.000519 0.008218 0.000000 0.003166 0.000000
# 4 0.000000 0.000000 0.000000 0.051468 0.000000 -0.001435
# 5 0.001727 0.000954 0.003166 0.000000 0.014233 0.000000
# 6 0.000000 0.000000 0.000000 -0.001435 0.000000 0.033530
#
#
# Mechanical properties :
#
#
# Convention : Reuss Voigt Hill
#
# Bulk Modulus (GPa) = 45.74063 52.89668 49.31865
# Shear Modulus (GPa) = 36.26057 48.48623 42.37340
#
# Velocity S-wave (km/s) = 3.85241 4.45476 4.16449
# Velocity P-wave (km/s) = 6.20558 6.93613 6.58100
#
# Compressibility (1/GPa) = 0.02186240
#
# Stress axis : x y z
#
# Youngs Moduli (GPa) = 102.22490 116.04485 121.68557
#
# Poissons Ratio (x) = 0.07849 0.27011
# Poissons Ratio (y) = 0.06914 -0.06309
# Poissons Ratio (z) = 0.22691 -0.06017
#
# Static dielectric constant tensor:
#      x y z
#    x 1.870540 0.000000 -0.090470 
#    y 0.000000 1.797040 0.000000 
#    z -0.090470 0.000000 2.179440 
# 
# From -- ./inp_files/165079.got.cif
#   From: 2010.05.17/outbox.cif.g08.bks.cpg/sg15_83_cif.got.tgz:165079.got - 2010.06.03 18:47:42.
