data_PCOD9298910
_publ_section_title
;
Structure prediction by ZEFSAII (Michael W. Deem and Ramdas Pophale) SiO2 
 PCOD9298910
Probable space group: C 2/C
;
_chemical_formula_sum "Si O2"
_cell_formula_units_Z 56
_cell_length_a 31.005445
_cell_length_b 11.420312
_cell_length_c 8.914078
_cell_angle_alpha 90.000000
_cell_angle_beta 61.791725
_cell_angle_gamma 90.000000
_cell_volume 2781.532900
_symmetry_space_group_name_H-M "C 2/C"
_symmetry_group_IT_number 15
_symmetry_cell_setting 'monoclinic'
loop_
_space_group_symop_operation_xyz
x,y,z
-x,y,1/2-z
-x,-y,-z
x,-y,1/2+z
1/2+x,1/2+y,z
1/2-x,1/2+y,1/2-z
1/2-x,1/2-y,-z
1/2+x,1/2-y,1/2+z
loop_
_atom_site_type_symbol
_atom_site_label
_atom_site_fract_x
_atom_site_fract_y
_atom_site_fract_z
Si Si1 0.528035 0.903864 0.548740
Si Si2 0.139772 0.110879 0.434594
Si Si3 0.580733 0.536541 0.811878
Si Si4 0.139327 0.624929 0.831423
Si Si5 0.255106 0.628053 0.083904
Si Si6 0.505397 0.323075 0.904866
Si Si7 0.800996 0.464178 0.546196
O O1 0.500000 0.903222 0.750000
O O2 0.585810 0.928067 0.450008
O O3 0.522199 0.775271 0.489899
O O4 0.500000 0.000000 0.500000
O O5 0.098962 0.096941 0.630689
O O6 0.137603 0.236334 0.358455
O O7 0.191433 0.105037 0.435077
O O8 0.125939 0.011657 0.336025
O O9 0.545198 0.426985 0.833812
O O10 0.546383 0.623882 0.960475
O O11 0.160696 0.594055 0.632329
O O12 0.174178 0.568332 0.899955
O O13 0.239427 0.524505 0.995141
O O14 0.220257 0.621104 0.289587
O O15 0.250000 0.750000 0.000000
O O16 0.500000 0.269187 0.750000
#
# Coordination Sequence:
#
# PCOD9298910 Si02
#       7
#     8   8   8   8   8   8   8
#     4  12  25  43  68  98 136 177 227 276 329 399
#     4  12  23  44  66 100 134 171 229 270 337 405
#     4  11  24  41  66  96 133 176 218 274 324 399
#     4  11  23  44  69  97 133 179 223 277 335 402
#     4  11  23  46  70 100 130 176 221 282 339 402
#     4  11  23  42  64  93 136 175 221 267 333 385
#     4  10  24  46  69  95 137 173 223 278 345 402
#
# _framework density 20.132783
#
# number of rings (size 3 to 8) (size 9 to 14) (size 15 to 20)
#    0.000    0.857    4.286    3.000    0.000    0.571 
#    7.714    0.000    0.000    0.000    0.000    0.000 
#    0.000    0.000    0.000    0.000    0.000    0.000 
#
# Total GULP energy -156473.100543 kJ/mol
# GULP energy per Si atom -5588.325019 kJ/mol
# Density = 2.008696 g / cm^3
# Si number density = 20.132783 Si / 1000 Ang^3
#
#
#
# Elastic Constant Matrix: (Units=GPa)
#
#
# Indices 1 2 3 4 5 6 
#
# 1 75.1315 4.4581 11.2341 0.0000 -2.5828 0.0000
# 2 4.4581 57.9105 36.0942 0.0000 -3.3590 0.0000
# 3 11.2341 36.0942 159.4227 0.0000 4.3953 0.0000
# 4 0.0000 0.0000 0.0000 35.9436 0.0000 2.6074
# 5 -2.5828 -3.3590 4.3953 0.0000 30.5935 0.0000
# 6 0.0000 0.0000 0.0000 2.6074 0.0000 22.4636
#
#
#
# Elastic Compliance Matrix: (Units=1/GPa)
#
#
# Indices 1 2 3 4 5 6 
#
# 1 0.013510 -0.000413 -0.000892 0.000000 0.001223 0.000000
# 2 -0.000413 0.020372 -0.004663 0.000000 0.002872 0.000000
# 3 -0.000892 -0.004663 0.007437 0.000000 -0.001656 0.000000
# 4 0.000000 0.000000 0.000000 0.028058 0.000000 -0.003257
# 5 0.001223 0.002872 -0.001656 0.000000 0.033343 0.000000
# 6 0.000000 0.000000 0.000000 -0.003257 0.000000 0.044895
#
#
# Mechanical properties :
#
#
# Convention : Reuss Voigt Hill
#
# Bulk Modulus (GPa) = 34.03243 44.00417 39.01830
# Shear Modulus (GPa) = 29.52562 33.84534 31.68548
#
# Velocity S-wave (km/s) = 3.83370 4.10458 3.97145
# Velocity P-wave (km/s) = 6.04459 6.66092 6.36022
#
# Compressibility (1/GPa) = 0.02938374
#
# Stress axis : x y z
#
# Youngs Moduli (GPa) = 74.01946 49.08598 134.46691
#
# Poissons Ratio (x) = 0.02027 0.11998
# Poissons Ratio (y) = 0.03057 0.62695
# Poissons Ratio (z) = 0.06604 0.22886
#
# Static dielectric constant tensor:
#      x y z
#    x 1.715310 0.000000 0.006250 
#    y 0.000000 1.679920 0.000000 
#    z 0.006250 0.000000 1.673850 
# 
# From -- ./inp_files/65411.got.cif
#   From: 2010.05.17/outbox.cif.g08.bks.cpg/sg15_33_cif.got.tgz:65411.got - 2010.06.03 18:47:42.
