data_PCOD9298200
_publ_section_title
;
Structure prediction by ZEFSAII (Michael W. Deem and Ramdas Pophale) SiO2 
 PCOD9298200
Probable space group: C 2/C
;
_chemical_formula_sum "Si O2"
_cell_formula_units_Z 48
_cell_length_a 19.949419
_cell_length_b 20.488254
_cell_length_c 9.124563
_cell_angle_alpha 90.000000
_cell_angle_beta 37.357488
_cell_angle_gamma 90.000000
_cell_volume 2262.991890
_symmetry_space_group_name_H-M "C 2/C"
_symmetry_group_IT_number 15
_symmetry_cell_setting 'monoclinic'
loop_
_space_group_symop_operation_xyz
x,y,z
-x,y,1/2-z
-x,-y,-z
x,-y,1/2+z
1/2+x,1/2+y,z
1/2-x,1/2+y,1/2-z
1/2-x,1/2-y,-z
1/2+x,1/2-y,1/2+z
loop_
_atom_site_type_symbol
_atom_site_label
_atom_site_fract_x
_atom_site_fract_y
_atom_site_fract_z
Si Si1 0.232234 0.958899 0.424151
Si Si2 0.305223 0.105233 0.283445
Si Si3 0.876615 0.116264 0.131706
Si Si4 0.126718 0.363202 0.520794
Si Si5 0.125539 0.742573 0.774944
Si Si6 0.500000 0.516367 0.750000
Si Si7 0.000000 0.657749 0.750000
O O1 0.210821 0.918052 0.608041
O O2 0.289665 0.028704 0.347635
O O3 0.300682 0.915703 0.192613
O O4 0.109497 0.974580 0.579083
O O5 0.193634 0.127197 0.394548
O O6 0.327806 0.143397 0.394246
O O7 0.407602 0.116325 0.995932
O O8 0.917588 0.184396 0.123461
O O9 0.973635 0.065113 0.930367
O O10 0.126868 0.297780 0.423508
O O11 0.000000 0.386050 0.750000
O O12 0.250000 0.750000 0.500000
O O13 0.057712 0.702702 0.772268
#
# Coordination Sequence:
#
# PCOD9298200 Si02
#       7
#     8   8   8   8   8   4   4
#     4  11  24  47  70 105 140 184 232 289 354 415
#     4  11  24  42  69 101 139 178 233 285 346 413
#     4  11  24  46  70 101 141 183 229 294 344 418
#     4  12  26  44  71 105 141 183 234 287 346 423
#     4  12  25  49  68  99 143 186 237 283 348 421
#     4  10  24  43  74 103 140 180 236 286 350 422
#     4  12  24  45  70 101 138 194 226 292 356 404
#
# _framework density 21.210857000000001
#
# number of rings (size 3 to 8) (size 9 to 14) (size 15 to 20)
#    0.000    0.667    5.000    2.500    2.333    3.333 
#    6.000    0.000    0.000    0.000    0.000    0.000 
#    0.000    0.000    0.000    0.000    0.000    0.000 
#
# Total GULP energy -134297.097351 kJ/mol
# GULP energy per Si atom -5595.712390 kJ/mol
# Density = 2.116258 g / cm^3
# Si number density = 21.210857 Si / 1000 Ang^3
#
#
#
# Elastic Constant Matrix: (Units=GPa)
#
#
# Indices 1 2 3 4 5 6 
#
# 1 87.4812 43.7328 39.6636 0.0000 7.0656 0.0000
# 2 43.7328 111.7978 45.6237 0.0000 5.4155 0.0000
# 3 39.6636 45.6237 138.6477 0.0000 -1.4067 0.0000
# 4 0.0000 0.0000 0.0000 27.0017 0.0000 -3.5550
# 5 7.0656 5.4155 -1.4067 0.0000 42.0061 0.0000
# 6 0.0000 0.0000 0.0000 -3.5550 0.0000 19.6236
#
#
#
# Elastic Compliance Matrix: (Units=1/GPa)
#
#
# Indices 1 2 3 4 5 6 
#
# 1 0.015231 -0.004704 -0.002830 0.000000 -0.002050 0.000000
# 2 -0.004704 0.011873 -0.002570 0.000000 -0.000826 0.000000
# 3 -0.002830 -0.002570 0.008879 0.000000 0.001105 0.000000
# 4 0.000000 0.000000 0.000000 0.037940 0.000000 0.006873
# 5 -0.002050 -0.000826 0.001105 0.000000 0.024294 0.000000
# 6 0.000000 0.000000 0.000000 0.006873 0.000000 0.052204
#
#
# Mechanical properties :
#
#
# Convention : Reuss Voigt Hill
#
# Bulk Modulus (GPa) = 63.38742 66.21854 64.80298
# Shear Modulus (GPa) = 28.42710 31.65339 30.04024
#
# Velocity S-wave (km/s) = 3.66487 3.86725 3.76742
# Velocity P-wave (km/s) = 6.91792 7.15736 7.03866
#
# Compressibility (1/GPa) = 0.01577600
#
# Stress axis : x y z
#
# Youngs Moduli (GPa) = 65.65401 84.22124 112.62490
#
# Poissons Ratio (x) = 0.39616 0.31876
# Poissons Ratio (y) = 0.30883 0.28943
# Poissons Ratio (z) = 0.18582 0.21643
#
# Static dielectric constant tensor:
#      x y z
#    x 1.777820 0.000000 0.022980 
#    y 0.000000 1.758440 0.000000 
#    z 0.022980 0.000000 1.765430 
# 
# From -- ./inp_files/57754.got.cif
#   From: 2010.05.17/outbox.cif.g08.bks.cpg/sg15_29_cif.got.tgz:57754.got - 2010.06.03 18:47:42.
