data_PCOD9298877
_publ_section_title
;
Structure prediction by ZEFSAII (Michael W. Deem and Ramdas Pophale) SiO2 
 PCOD9298877
Probable space group: C 2/C
;
_chemical_formula_sum "Si O2"
_cell_formula_units_Z 28
_cell_length_a 25.855507
_cell_length_b 7.856197
_cell_length_c 14.945389
_cell_angle_alpha 90.000000
_cell_angle_beta 20.501113
_cell_angle_gamma 90.000000
_cell_volume 1063.213557
_symmetry_space_group_name_H-M "C 2/C"
_symmetry_group_IT_number 15
_symmetry_cell_setting 'monoclinic'
loop_
_space_group_symop_operation_xyz
x,y,z
-x,y,1/2-z
-x,-y,-z
x,-y,1/2+z
1/2+x,1/2+y,z
1/2-x,1/2+y,1/2-z
1/2-x,1/2-y,-z
1/2+x,1/2-y,1/2+z
loop_
_atom_site_type_symbol
_atom_site_label
_atom_site_fract_x
_atom_site_fract_y
_atom_site_fract_z
Si Si1 0.722191 0.782777 0.281538
Si Si2 0.051098 0.498974 0.315017
Si Si3 0.000000 0.211418 0.250000
Si Si4 0.671031 0.462183 0.238002
O O1 0.559152 0.860067 0.547000
O O2 0.719157 0.609259 0.230400
O O3 0.784264 0.792099 0.281281
O O4 0.848896 0.884118 0.018318
O O5 0.000000 0.500000 0.500000
O O6 0.025456 0.329800 0.296376
O O7 0.224190 0.531026 0.017764
O O8 0.500000 0.500000 0.500000
#
# Coordination Sequence:
#
# PCOD9298877 Si02
#       4
#     8   8   4   8
#     4  11  23  48  73 101 158 188 247 311 370 443
#     4  11  24  47  73 105 150 194 245 314 369 446
#     4  10  24  46  68 108 150 190 244 310 380 434
#     4  11  27  48  75 114 147 198 256 303 382 447
#
# _framework density 26.335253999999999
#
# number of rings (size 3 to 8) (size 9 to 14) (size 15 to 20)
#    0.000    1.143    5.714    0.000    8.000    3.429 
#   10.286    0.000    0.000    0.000    0.000    0.000 
#    0.000    0.000    0.000    0.000    0.000    0.000 
#
# Total GULP energy -78206.677781 kJ/mol
# GULP energy per Si atom -5586.191270 kJ/mol
# Density = 2.627531 g / cm^3
# Si number density = 26.335254 Si / 1000 Ang^3
#
#
#
# Elastic Constant Matrix: (Units=GPa)
#
#
# Indices 1 2 3 4 5 6 
#
# 1 162.0337 30.2706 94.4458 0.0000 23.0651 0.0000
# 2 30.2706 43.2213 37.3571 0.0000 5.2977 0.0000
# 3 94.4458 37.3571 289.5783 0.0000 17.7461 0.0000
# 4 0.0000 0.0000 0.0000 35.7004 0.0000 9.1049
# 5 23.0651 5.2977 17.7461 0.0000 54.7039 0.0000
# 6 0.0000 0.0000 0.0000 9.1049 0.0000 36.7836
#
#
#
# Elastic Compliance Matrix: (Units=1/GPa)
#
#
# Indices 1 2 3 4 5 6 
#
# 1 0.008475 -0.003794 -0.002120 0.000000 -0.002518 0.000000
# 2 -0.003794 0.027854 -0.002335 0.000000 -0.000340 0.000000
# 3 -0.002120 -0.002335 0.004466 0.000000 -0.000329 0.000000
# 4 0.000000 0.000000 0.000000 0.029898 0.000000 -0.007401
# 5 -0.002518 -0.000340 -0.000329 0.000000 0.019481 0.000000
# 6 0.000000 0.000000 0.000000 -0.007401 0.000000 0.029018
#
#
# Mechanical properties :
#
#
# Convention : Reuss Voigt Hill
#
# Bulk Modulus (GPa) = 41.15901 90.99780 66.07841
# Shear Modulus (GPa) = 34.77299 47.62157 41.19728
#
# Velocity S-wave (km/s) = 3.63767 4.25700 3.95946
# Velocity P-wave (km/s) = 5.77116 7.66755 6.78593
#
# Compressibility (1/GPa) = 0.02429602
#
# Stress axis : x y z
#
# Youngs Moduli (GPa) = 117.99942 35.90159 223.90506
#
# Poissons Ratio (x) = 0.13622 0.47473
# Poissons Ratio (y) = 0.44771 0.52282
# Poissons Ratio (z) = 0.25018 0.08383
#
# Static dielectric constant tensor:
#      x y z
#    x 2.090870 0.000000 -0.040580 
#    y 0.000000 2.166840 0.000000 
#    z -0.040580 0.000000 2.112550 
# 
# From -- ./inp_files/140861.got.cif
#   From: 2010.05.17/outbox.cif.g08.bks.cpg/sg15_71_cif.got.tgz:140861.got - 2010.06.03 18:47:42.
