data_PCOD9298666
_publ_section_title
;
Structure prediction by ZEFSAII (Michael W. Deem and Ramdas Pophale) SiO2 
 PCOD9298666
Probable space group: C 2/C
;
_chemical_formula_sum "Si O2"
_cell_formula_units_Z 44
_cell_length_a 11.131349
_cell_length_b 15.977214
_cell_length_c 14.247976
_cell_angle_alpha 90.000000
_cell_angle_beta 129.966002
_cell_angle_gamma 90.000000
_cell_volume 1942.102284
_symmetry_space_group_name_H-M "C 2/C"
_symmetry_group_IT_number 15
_symmetry_cell_setting 'monoclinic'
loop_
_space_group_symop_operation_xyz
x,y,z
-x,y,1/2-z
-x,-y,-z
x,-y,1/2+z
1/2+x,1/2+y,z
1/2-x,1/2+y,1/2-z
1/2-x,1/2-y,-z
1/2+x,1/2-y,1/2+z
loop_
_atom_site_type_symbol
_atom_site_label
_atom_site_fract_x
_atom_site_fract_y
_atom_site_fract_z
Si Si1 0.554753 0.266717 0.485378
Si Si2 0.013669 0.304421 0.361525
Si Si3 0.500000 0.512835 0.250000
Si Si4 0.356853 0.124970 0.105721
Si Si5 0.715928 0.558579 0.519685
Si Si6 0.822551 0.890476 0.291603
O O1 0.471054 0.257547 0.543440
O O2 0.592156 0.176266 0.460888
O O3 0.712849 0.320401 0.574459
O O4 0.444103 0.313797 0.355741
O O5 0.852196 0.354961 0.298895
O O6 0.000000 0.266924 0.250000
O O7 0.154963 0.370029 0.430807
O O8 0.582974 0.563050 0.374405
O O9 0.371044 0.453479 0.234769
O O10 0.500000 0.120314 0.250000
O O11 0.296504 0.032494 0.053094
O O12 0.655613 0.566148 0.595967
#
# Coordination Sequence:
#
# PCOD9298666 Si02
#       6
#     8   8   4   8   8   8
#     4  11  24  41  66 103 134 172 221 269 336 390
#     4  10  24  45  68  96 137 175 216 275 331 392
#     4  12  24  42  72  94 136 174 218 280 326 384
#     4  11  23  40  68 100 133 174 222 273 323 394
#     4  11  25  46  67  98 132 177 223 268 331 393
#     4  11  24  45  68  99 136 171 218 277 328 391
#
# _framework density 22.655859
#
# number of rings (size 3 to 8) (size 9 to 14) (size 15 to 20)
#    0.000    1.091    1.818    4.364    3.818    7.273 
#    4.909    0.000    0.000    0.000    0.000    0.000 
#    0.000    0.000    0.000    0.000    0.000    0.000 
#
# Total GULP energy -123248.706431 kJ/mol
# GULP energy per Si atom -5602.213929 kJ/mol
# Density = 2.260429 g / cm^3
# Si number density = 22.655859 Si / 1000 Ang^3
#
#
#
# Elastic Constant Matrix: (Units=GPa)
#
#
# Indices 1 2 3 4 5 6 
#
# 1 74.5911 14.8152 11.9015 0.0000 -12.1780 0.0000
# 2 14.8152 64.4630 18.5975 0.0000 -12.6124 0.0000
# 3 11.9015 18.5975 93.9289 0.0000 -5.0938 0.0000
# 4 0.0000 0.0000 0.0000 31.1204 0.0000 -5.5218
# 5 -12.1780 -12.6124 -5.0938 0.0000 40.2210 0.0000
# 6 0.0000 0.0000 0.0000 -5.5218 0.0000 21.9271
#
#
#
# Elastic Compliance Matrix: (Units=1/GPa)
#
#
# Indices 1 2 3 4 5 6 
#
# 1 0.014640 -0.002323 -0.001202 0.000000 0.003552 0.000000
# 2 -0.002323 0.017787 -0.002984 0.000000 0.004497 0.000000
# 3 -0.001202 -0.002984 0.011397 0.000000 0.000144 0.000000
# 4 0.000000 0.000000 0.000000 0.033636 0.000000 0.008470
# 5 0.003552 0.004497 0.000144 0.000000 0.027366 0.000000
# 6 0.000000 0.000000 0.000000 0.008470 0.000000 0.047739
#
#
# Mechanical properties :
#
#
# Convention : Reuss Voigt Hill
#
# Bulk Modulus (GPa) = 32.46080 35.95683 34.20882
# Shear Modulus (GPa) = 28.43311 31.16495 29.79903
#
# Velocity S-wave (km/s) = 3.54644 3.71290 3.63063
# Velocity P-wave (km/s) = 5.57930 5.85544 5.71904
#
# Compressibility (1/GPa) = 0.03080638
#
# Stress axis : x y z
#
# Youngs Moduli (GPa) = 68.30832 56.22041 87.74046
#
# Poissons Ratio (x) = 0.13058 0.10550
# Poissons Ratio (y) = 0.15866 0.26178
# Poissons Ratio (z) = 0.08214 0.16774
#
# Static dielectric constant tensor:
#      x y z
#    x 1.824870 0.000000 -0.000510 
#    y 0.000000 1.830800 0.000000 
#    z -0.000510 0.000000 1.820130 
# 
# From -- ./inp_files/145836.got.cif
#   From: 2010.05.17/outbox.cif.g08.bks.cpg/sg15_73_cif.got.tgz:145836.got - 2010.06.03 18:47:42.
