data_PCOD9298619
_publ_section_title
;
Structure prediction by ZEFSAII (Michael W. Deem and Ramdas Pophale) SiO2 
 PCOD9298619
Probable space group: C 2/C
;
_chemical_formula_sum "Si O2"
_cell_formula_units_Z 48
_cell_length_a 10.018323
_cell_length_b 11.435786
_cell_length_c 16.271540
_cell_angle_alpha 90.000000
_cell_angle_beta 89.342989
_cell_angle_gamma 90.000000
_cell_volume 1864.065436
_symmetry_space_group_name_H-M "C 2/C"
_symmetry_group_IT_number 15
_symmetry_cell_setting 'monoclinic'
loop_
_space_group_symop_operation_xyz
x,y,z
-x,y,1/2-z
-x,-y,-z
x,-y,1/2+z
1/2+x,1/2+y,z
1/2-x,1/2+y,1/2-z
1/2-x,1/2-y,-z
1/2+x,1/2-y,1/2+z
loop_
_atom_site_type_symbol
_atom_site_label
_atom_site_fract_x
_atom_site_fract_y
_atom_site_fract_z
Si Si1 0.301827 0.045422 0.553623
Si Si2 0.159034 0.772172 0.144285
Si Si3 0.933670 0.531797 0.373946
Si Si4 0.795977 0.905757 0.196521
Si Si5 0.190528 0.202719 0.084519
Si Si6 0.567753 0.632254 0.338955
O O1 0.200146 0.152265 0.564789
O O2 0.347272 0.027987 0.459368
O O3 0.437960 0.045927 0.606216
O O4 0.233196 0.930674 0.589584
O O5 0.046742 0.671610 0.139010
O O6 0.146745 0.865514 0.217135
O O7 0.292862 0.699158 0.162586
O O8 0.844261 0.477758 0.302053
O O9 0.754788 0.788592 0.150150
O O10 0.896494 0.994929 0.150121
O O11 0.031669 0.192726 0.096154
O O12 0.250000 0.250000 0.000000
O O13 0.500000 0.642764 0.250000
#
# Coordination Sequence:
#
# PCOD9298619 Si02
#       6
#     8   8   8   8   8   8
#     4  11  24  42  70  96 141 186 237 292 357 443
#     4  11  24  43  74  98 139 182 239 306 363 428
#     4  10  24  45  66 102 135 185 237 291 363 434
#     4  11  24  46  69 103 137 183 245 293 368 436
#     4  12  25  44  67 103 144 191 237 294 369 434
#     4  11  24  44  71 100 142 187 235 303 365 429
#
# _framework density 25.750169
#
# number of rings (size 3 to 8) (size 9 to 14) (size 15 to 20)
#    0.000    1.000    3.333    2.500    4.667    3.333 
#    0.000    0.000    0.000    0.000    0.000    0.000 
#    0.000    0.000    0.000    0.000    0.000    0.000 
#
# Total GULP energy -134373.774799 kJ/mol
# GULP energy per Si atom -5598.907283 kJ/mol
# Density = 2.569156 g / cm^3
# Si number density = 25.750169 Si / 1000 Ang^3
#
#
#
# Elastic Constant Matrix: (Units=GPa)
#
#
# Indices 1 2 3 4 5 6 
#
# 1 93.2837 22.9443 13.6716 0.0000 -3.9011 0.0000
# 2 22.9443 156.8314 17.9862 0.0000 -8.7766 0.0000
# 3 13.6716 17.9862 68.0692 0.0000 -12.5079 0.0000
# 4 0.0000 0.0000 0.0000 42.8830 0.0000 9.7482
# 5 -3.9011 -8.7766 -12.5079 0.0000 22.7971 0.0000
# 6 0.0000 0.0000 0.0000 9.7482 0.0000 27.7078
#
#
#
# Elastic Compliance Matrix: (Units=1/GPa)
#
#
# Indices 1 2 3 4 5 6 
#
# 1 0.011356 -0.001430 -0.001832 0.000000 0.000388 0.000000
# 2 -0.001430 0.006819 -0.001198 0.000000 0.001723 0.000000
# 3 -0.001832 -0.001198 0.016941 0.000000 0.008520 0.000000
# 4 0.000000 0.000000 0.000000 0.025346 0.000000 -0.008917
# 5 0.000388 0.001723 0.008520 0.000000 0.049270 0.000000
# 6 0.000000 0.000000 0.000000 -0.008917 0.000000 0.039228
#
#
# Mechanical properties :
#
#
# Convention : Reuss Voigt Hill
#
# Bulk Modulus (GPa) = 38.17162 47.48763 42.82962
# Shear Modulus (GPa) = 30.00971 36.24971 33.12971
#
# Velocity S-wave (km/s) = 3.41753 3.75607 3.59079
# Velocity P-wave (km/s) = 5.51622 6.10675 5.81898
#
# Compressibility (1/GPa) = 0.02619747
#
# Stress axis : x y z
#
# Youngs Moduli (GPa) = 88.05670 146.64317 59.02823
#
# Poissons Ratio (x) = 0.20965 0.10813
# Poissons Ratio (y) = 0.12589 0.07072
# Poissons Ratio (z) = 0.16131 0.17569
#
# Static dielectric constant tensor:
#      x y z
#    x 2.071100 0.000000 -0.026270 
#    y 0.000000 2.028020 0.000000 
#    z -0.026270 0.000000 2.039810 
# 
# From -- ./inp_files/195982.got.cif
#   From: 2010.05.17/outbox.cif.g08.bks.cpg/sg15_98_cif.got.tgz:195982.got - 2010.06.03 18:47:42.
