data_PCOD9298823
_publ_section_title
;
Structure prediction by ZEFSAII (Michael W. Deem and Ramdas Pophale) SiO2 
 PCOD9298823
Probable space group: C 2/C
;
_chemical_formula_sum "Si O2"
_cell_formula_units_Z 36
_cell_length_a 20.349932
_cell_length_b 11.503574
_cell_length_c 12.717267
_cell_angle_alpha 90.000000
_cell_angle_beta 146.727445
_cell_angle_gamma 90.000000
_cell_volume 1633.289150
_symmetry_space_group_name_H-M "C 2/C"
_symmetry_group_IT_number 15
_symmetry_cell_setting 'monoclinic'
loop_
_space_group_symop_operation_xyz
x,y,z
-x,y,1/2-z
-x,-y,-z
x,-y,1/2+z
1/2+x,1/2+y,z
1/2-x,1/2+y,1/2-z
1/2-x,1/2-y,-z
1/2+x,1/2-y,1/2+z
loop_
_atom_site_type_symbol
_atom_site_label
_atom_site_fract_x
_atom_site_fract_y
_atom_site_fract_z
Si Si1 0.965504 0.953118 0.067078
Si Si2 0.763453 0.304758 0.696473
Si Si3 0.627346 0.128600 0.939189
Si Si4 0.500000 0.339639 0.750000
Si Si5 0.732638 0.411751 0.439713
O O1 0.091613 0.904395 0.278166
O O2 0.934071 0.072065 0.084955
O O3 0.861495 0.859823 0.931738
O O4 0.000000 0.000000 0.000000
O O5 0.851033 0.330579 0.911400
O O6 0.798278 0.369343 0.633579
O O7 0.747872 0.173014 0.634023
O O8 0.729102 0.041742 0.037967
O O9 0.500000 0.063854 0.750000
O O10 0.599264 0.249106 0.839711
#
# Coordination Sequence:
#
# PCOD9298823 Si02
#       5
#     8   8   8   4   8
#     4  12  22  44  72  98 131 178 229 278 345 407
#     4  11  24  44  71  99 137 178 234 283 340 412
#     4  10  25  44  64 100 140 179 226 278 340 407
#     4  10  24  46  62 100 136 170 230 274 332 420
#     4  11  24  43  72 102 133 183 226 290 341 398
#
# _framework density 22.041414
#
# number of rings (size 3 to 8) (size 9 to 14) (size 15 to 20)
#    0.667    0.444    4.444    1.333    0.000    5.333 
#    4.000    0.000    0.000    0.000    0.000    0.000 
#    0.000    0.000    0.000    0.000    0.000    0.000 
#
# Total GULP energy -100296.508369 kJ/mol
# GULP energy per Si atom -5572.028243 kJ/mol
# Density = 2.199125 g / cm^3
# Si number density = 22.041414 Si / 1000 Ang^3
#
#
#
# Elastic Constant Matrix: (Units=GPa)
#
#
# Indices 1 2 3 4 5 6 
#
# 1 52.4339 33.6672 26.2368 0.0000 3.6997 0.0000
# 2 33.6672 125.6857 24.5355 0.0000 20.5903 0.0000
# 3 26.2368 24.5355 122.0207 0.0000 -2.0929 0.0000
# 4 0.0000 0.0000 0.0000 21.7778 0.0000 7.6716
# 5 3.6997 20.5903 -2.0929 0.0000 38.3711 0.0000
# 6 0.0000 0.0000 0.0000 7.6716 0.0000 43.1086
#
#
#
# Elastic Compliance Matrix: (Units=1/GPa)
#
#
# Indices 1 2 3 4 5 6 
#
# 1 0.024938 -0.005962 -0.004154 0.000000 0.000568 0.000000
# 2 -0.005962 0.010580 -0.000934 0.000000 -0.005153 0.000000
# 3 -0.004154 -0.000934 0.009300 0.000000 0.001409 0.000000
# 4 0.000000 0.000000 0.000000 0.048989 0.000000 -0.008718
# 5 0.000568 -0.005153 0.001409 0.000000 0.028849 0.000000
# 6 0.000000 0.000000 0.000000 -0.008718 0.000000 0.024749
#
#
# Mechanical properties :
#
#
# Convention : Reuss Voigt Hill
#
# Bulk Modulus (GPa) = 44.01574 52.11326 48.06450
# Shear Modulus (GPa) = 28.23614 35.03155 31.63384
#
# Velocity S-wave (km/s) = 3.58306 3.99099 3.79251
# Velocity P-wave (km/s) = 6.09349 6.70314 6.40557
#
# Compressibility (1/GPa) = 0.02271914
#
# Stress axis : x y z
#
# Youngs Moduli (GPa) = 40.09894 94.51759 107.52302
#
# Poissons Ratio (x) = 0.56356 0.44660
# Poissons Ratio (y) = 0.23909 0.10040
# Poissons Ratio (z) = 0.16655 0.08825
#
# Static dielectric constant tensor:
#      x y z
#    x 1.903950 0.000000 -0.030560 
#    y 0.000000 1.805390 0.000000 
#    z -0.030560 0.000000 1.961350 
# 
# From -- ./inp_files/173048.got.cif
#   From: 2010.05.17/outbox.cif.g08.bks.cpg/sg15_87_cif.got.tgz:173048.got - 2010.06.03 18:47:42.
