data_PCOD9298488
_publ_section_title
;
Structure prediction by ZEFSAII (Michael W. Deem and Ramdas Pophale) SiO2 
 PCOD9298488
Probable space group: C 2/C
;
_chemical_formula_sum "Si O2"
_cell_formula_units_Z 44
_cell_length_a 12.199289
_cell_length_b 18.466412
_cell_length_c 10.019098
_cell_angle_alpha 90.000000
_cell_angle_beta 109.695775
_cell_angle_gamma 90.000000
_cell_volume 2125.024138
_symmetry_space_group_name_H-M "C 2/C"
_symmetry_group_IT_number 15
_symmetry_cell_setting 'monoclinic'
loop_
_space_group_symop_operation_xyz
x,y,z
-x,y,1/2-z
-x,-y,-z
x,-y,1/2+z
1/2+x,1/2+y,z
1/2-x,1/2+y,1/2-z
1/2-x,1/2-y,-z
1/2+x,1/2-y,1/2+z
loop_
_atom_site_type_symbol
_atom_site_label
_atom_site_fract_x
_atom_site_fract_y
_atom_site_fract_z
Si Si1 0.500000 0.500000 0.500000
Si Si2 0.757686 0.807968 0.621544
Si Si3 0.000000 0.890890 0.250000
Si Si4 0.636121 0.071990 0.654630
Si Si5 0.142540 0.550233 0.955689
Si Si6 0.275354 0.290150 0.147534
Si Si7 0.000000 0.885839 0.750000
O O1 0.485308 0.439389 0.375240
O O2 0.496462 0.435601 0.616432
O O3 0.750000 0.750000 0.500000
O O4 0.690544 0.879619 0.548639
O O5 0.707821 0.769430 0.731479
O O6 0.887523 0.834451 0.704338
O O7 0.112472 0.840759 0.315133
O O8 0.497364 0.058797 0.602163
O O9 0.671005 0.154654 0.644377
O O10 0.680393 0.020548 0.553605
O O11 0.683780 0.047832 0.819143
O O12 0.250000 0.250000 0.000000
#
# Coordination Sequence:
#
# PCOD9298488 Si02
#       7
#     4   8   4   8   8   8   4
#     4  10  24  46  72  98 138 170 222 302 320 424
#     4  12  26  43  71  97 136 183 220 280 339 410
#     4  11  26  46  68 104 133 178 232 278 355 388
#     4  10  24  45  69  99 132 175 229 273 328 398
#     4  10  24  44  71  98 131 177 226 274 329 398
#     4  12  28  43  67  99 141 179 222 284 336 409
#     4  11  26  42  72 104 133 178 228 274 355 392
#
# _framework density 20.705648
#
# number of rings (size 3 to 8) (size 9 to 14) (size 15 to 20)
#    0.000    1.091    1.818    2.182   12.727    0.000 
#    0.000    0.000    0.000    0.000    0.000    0.000 
#    0.000    0.000    0.000    0.000    0.000    0.000 
#
# Total GULP energy -122576.177806 kJ/mol
# GULP energy per Si atom -5571.644446 kJ/mol
# Density = 2.065852 g / cm^3
# Si number density = 20.705648 Si / 1000 Ang^3
#
#
#
# Elastic Constant Matrix: (Units=GPa)
#
#
# Indices 1 2 3 4 5 6 
#
# 1 36.2707 22.7199 28.3456 0.0000 1.1671 0.0000
# 2 22.7199 88.8925 57.9052 0.0000 7.0064 0.0000
# 3 28.3456 57.9052 195.2529 0.0000 -26.1783 0.0000
# 4 0.0000 0.0000 0.0000 51.0579 0.0000 2.8692
# 5 1.1671 7.0064 -26.1783 0.0000 20.4198 0.0000
# 6 0.0000 0.0000 0.0000 2.8692 0.0000 -113.4200
#
#
#
# Elastic Compliance Matrix: (Units=1/GPa)
#
#
# Indices 1 2 3 4 5 6 
#
# 1 0.034477 -0.005847 -0.003944 0.000000 -0.005021 0.000000
# 2 -0.005847 0.017993 -0.006364 0.000000 -0.013998 0.000000
# 3 -0.003944 -0.006364 0.009545 0.000000 0.014646 0.000000
# 4 0.000000 0.000000 0.000000 0.019558 0.000000 0.000495
# 5 -0.005021 -0.013998 0.014646 0.000000 0.072838 0.000000
# 6 0.000000 0.000000 0.000000 0.000495 0.000000 -0.008804
#
#
# Mechanical properties :
#
#
# Convention : Reuss Voigt Hill
#
# Bulk Modulus (GPa) = 33.66483 59.81752 46.74118
# Shear Modulus (GPa) = 26.62141 5.70791 16.16466
#
# Velocity S-wave (km/s) = 3.58957 1.66213 2.79711
# Velocity P-wave (km/s) = 5.78568 5.71277 5.74934
#
# Compressibility (1/GPa) = 0.02970459
#
# Stress axis : x y z
#
# Youngs Moduli (GPa) = 29.00485 55.57782 104.76479
#
# Poissons Ratio (x) = 0.32495 0.41324
# Poissons Ratio (y) = 0.16958 0.66673
# Poissons Ratio (z) = 0.11441 0.35370
#
# Static dielectric constant tensor:
#      x y z
#    x 1.744100 0.000000 -0.017520 
#    y 0.000000 1.702550 0.000000 
#    z -0.017520 0.000000 1.697540 
# 
# From -- ./inp_files/39378.got.cif
#   From: 2010.05.17/outbox.cif.g08.bks.cpg/sg15_20_cif.got.tgz:39378.got - 2010.06.03 18:47:42.
