data_PCOD9298878
_publ_section_title
;
Structure prediction by ZEFSAII (Michael W. Deem and Ramdas Pophale) SiO2 
 PCOD9298878
Probable space group: C 2/C
;
_chemical_formula_sum "Si O2"
_cell_formula_units_Z 44
_cell_length_a 4.939900
_cell_length_b 17.014293
_cell_length_c 25.823563
_cell_angle_alpha 90.000000
_cell_angle_beta 126.492251
_cell_angle_gamma 90.000000
_cell_volume 1744.899458
_symmetry_space_group_name_H-M "C 2/C"
_symmetry_group_IT_number 15
_symmetry_cell_setting 'monoclinic'
loop_
_space_group_symop_operation_xyz
x,y,z
-x,y,1/2-z
-x,-y,-z
x,-y,1/2+z
1/2+x,1/2+y,z
1/2-x,1/2+y,1/2-z
1/2-x,1/2-y,-z
1/2+x,1/2-y,1/2+z
loop_
_atom_site_type_symbol
_atom_site_label
_atom_site_fract_x
_atom_site_fract_y
_atom_site_fract_z
Si Si1 0.901036 0.010995 0.295583
Si Si2 0.542467 0.647656 0.371325
Si Si3 0.610066 0.655416 0.660267
Si Si4 0.123862 0.695242 0.918125
Si Si5 0.500000 0.254189 0.250000
Si Si6 0.310546 0.556344 0.016252
O O1 0.500000 0.030093 0.250000
O O2 0.955838 0.936214 0.338122
O O3 0.000000 0.985406 0.250000
O O4 0.133234 0.085421 0.337069
O O5 0.761555 0.716394 0.423559
O O6 0.255908 0.697847 0.309922
O O7 0.478171 0.587635 0.410713
O O8 0.847784 0.660907 0.637183
O O9 0.671299 0.693361 0.724312
O O10 0.262530 0.699463 0.606885
O O11 0.264370 0.634222 0.975279
O O12 0.500000 0.500000 0.000000
O O13 0.000000 0.500000 0.000000
#
# Coordination Sequence:
#
# PCOD9298878 Si02
#       6
#     8   8   8   8   4   8
#     4  12  25  41  64 100 141 188 233 277 352 427
#     4  11  26  45  75 104 153 183 246 300 367 432
#     4  11  24  45  71 103 144 187 236 295 355 444
#     4  11  25  45  75 103 140 186 242 299 367 410
#     4  10  24  46  68 112 144 194 230 304 374 436
#     4  12  27  51  77 105 143 194 253 304 365 434
#
# _framework density 25.216352000000001
#
# number of rings (size 3 to 8) (size 9 to 14) (size 15 to 20)
#    0.000    0.727    1.818    4.909    5.091    4.364 
#    0.000    6.364    0.000    0.000    0.000    0.000 
#    0.000    0.000    0.000    0.000    0.000    0.000 
#
# Total GULP energy -122654.101850 kJ/mol
# GULP energy per Si atom -5575.186448 kJ/mol
# Density = 2.515896 g / cm^3
# Si number density = 25.216352 Si / 1000 Ang^3
#
#
#
# Elastic Constant Matrix: (Units=GPa)
#
#
# Indices 1 2 3 4 5 6 
#
# 1 101.3380 9.8006 14.4738 0.0001 -29.2056 -0.0002
# 2 9.8006 168.7362 36.5106 0.0000 -18.0030 0.0000
# 3 14.4738 36.5106 122.6543 0.0000 -19.5543 0.0001
# 4 0.0001 0.0000 0.0000 76.6466 0.0000 -32.8652
# 5 -29.2056 -18.0030 -19.5543 0.0000 23.1714 0.0000
# 6 -0.0002 0.0000 0.0001 -32.8652 0.0000 70.5147
#
#
#
# Elastic Compliance Matrix: (Units=1/GPa)
#
#
# Indices 1 2 3 4 5 6 
#
# 1 0.015931 0.001149 0.001296 0.000000 0.022066 0.000000
# 2 0.001149 0.006729 -0.001241 0.000000 0.005628 0.000000
# 3 0.001296 -0.001241 0.009794 0.000000 0.008934 0.000000
# 4 0.000000 0.000000 0.000000 0.016305 0.000000 0.007600
# 5 0.022066 0.005628 0.008934 0.000000 0.082881 0.000000
# 6 0.000000 0.000000 0.000000 0.007600 0.000000 0.017723
#
#
# Mechanical properties :
#
#
# Convention : Reuss Voigt Hill
#
# Bulk Modulus (GPa) = 28.68573 57.14427 42.91500
# Shear Modulus (GPa) = 31.53034 56.19610 43.86322
#
# Velocity S-wave (km/s) = 3.53993 4.72588 4.17523
# Velocity P-wave (km/s) = 5.30176 7.24496 6.34815
#
# Compressibility (1/GPa) = 0.03486054
#
# Stress axis : x y z
#
# Youngs Moduli (GPa) = 62.76999 148.61601 102.10453
#
# Poissons Ratio (x) = -0.17069 -0.13233
# Poissons Ratio (y) = -0.07209 0.12673
# Poissons Ratio (z) = -0.08135 0.18447
#
# Static dielectric constant tensor:
#      x y z
#    x 2.134990 0.000000 -0.001220 
#    y 0.000000 2.017950 0.000000 
#    z -0.001220 0.000000 2.201710 
# 
# From -- ./inp_files/227062.got.cif
#   From: 2010.05.17/outbox.cif.g08.bks.cpg/sg15_114_cif.got.tgz:227062.got - 2010.06.03 18:47:42.
