data_PCOD9298109
_publ_section_title
;
Structure prediction by ZEFSAII (Michael W. Deem and Ramdas Pophale) SiO2 
 PCOD9298109
Probable space group: C 2/C
;
_chemical_formula_sum "Si O2"
_cell_formula_units_Z 40
_cell_length_a 7.234580
_cell_length_b 11.911708
_cell_length_c 19.204995
_cell_angle_alpha 90.000000
_cell_angle_beta 105.156166
_cell_angle_gamma 90.000000
_cell_volume 1597.446906
_symmetry_space_group_name_H-M "C 2/C"
_symmetry_group_IT_number 15
_symmetry_cell_setting 'monoclinic'
loop_
_space_group_symop_operation_xyz
x,y,z
-x,y,1/2-z
-x,-y,-z
x,-y,1/2+z
1/2+x,1/2+y,z
1/2-x,1/2+y,1/2-z
1/2-x,1/2-y,-z
1/2+x,1/2-y,1/2+z
loop_
_atom_site_type_symbol
_atom_site_label
_atom_site_fract_x
_atom_site_fract_y
_atom_site_fract_z
Si Si1 0.568344 0.852517 0.124458
Si Si2 0.223632 0.979906 0.129271
Si Si3 0.339184 0.872966 0.514408
Si Si4 0.727984 0.171207 0.266849
Si Si5 0.792361 0.735194 0.389769
O O1 0.715068 0.780841 0.182980
O O2 0.397954 0.764439 0.084850
O O3 0.445340 0.938356 0.158203
O O4 0.646219 0.911645 0.063645
O O5 0.226939 0.047912 0.056904
O O6 0.177736 0.063630 0.186780
O O7 0.117953 0.860524 0.114020
O O8 0.250000 0.750000 0.500000
O O9 0.550871 0.847003 0.564797
O O10 0.500000 0.159981 0.250000
O O11 0.778365 0.190814 0.191819
#
# Coordination Sequence:
#
# PCOD9298109 Si02
#       5
#     8   8   8   8   8
#     4  10  24  43  68  98 132 174 219 267 331 391
#     4  10  25  42  70  93 138 170 221 268 334 382
#     4  12  21  45  70  98 135 172 219 276 321 393
#     4  12  22  44  68  95 134 173 220 275 318 391
#     4  10  25  40  70  96 131 176 220 265 332 391
#
# _framework density 25.039954999999999
#
# number of rings (size 3 to 8) (size 9 to 14) (size 15 to 20)
#    1.200    0.000    4.000    1.800    2.800    0.800 
#    0.000    4.000    0.000    0.000    0.000    0.000 
#    0.000    0.000    0.000    0.000    0.000    0.000 
#
# Total GULP energy -111845.533696 kJ/mol
# GULP energy per Si atom -5592.276685 kJ/mol
# Density = 2.498296 g / cm^3
# Si number density = 25.039955 Si / 1000 Ang^3
#
#
#
# Elastic Constant Matrix: (Units=GPa)
#
#
# Indices 1 2 3 4 5 6 
#
# 1 44.5841 19.5672 13.7146 0.0000 -0.3627 0.0000
# 2 19.5672 105.4017 13.2239 0.0000 -5.3925 0.0000
# 3 13.7146 13.2239 88.5572 0.0000 -8.4701 0.0000
# 4 0.0000 0.0000 0.0000 12.3917 0.0000 -12.6707
# 5 -0.3627 -5.3925 -8.4701 0.0000 35.3858 0.0000
# 6 0.0000 0.0000 0.0000 -12.6707 0.0000 35.8194
#
#
#
# Elastic Compliance Matrix: (Units=1/GPa)
#
#
# Indices 1 2 3 4 5 6 
#
# 1 0.025372 -0.004346 -0.003396 0.000000 -0.001215 0.000000
# 2 -0.004346 0.010459 -0.000758 0.000000 0.001368 0.000000
# 3 -0.003396 -0.000758 0.012196 0.000000 0.002769 0.000000
# 4 0.000000 0.000000 0.000000 0.126429 0.000000 0.044723
# 5 -0.001215 0.001368 0.002769 0.000000 0.029119 0.000000
# 6 0.000000 0.000000 0.000000 0.044723 0.000000 0.043738
#
#
# Mechanical properties :
#
#
# Convention : Reuss Voigt Hill
#
# Bulk Modulus (GPa) = 32.23079 36.83937 34.53508
# Shear Modulus (GPa) = 18.20456 29.52186 23.86321
#
# Velocity S-wave (km/s) = 2.69926 3.43737 3.09043
# Velocity P-wave (km/s) = 4.75545 5.52251 5.15328
#
# Compressibility (1/GPa) = 0.03102623
#
# Stress axis : x y z
#
# Youngs Moduli (GPa) = 39.41370 95.60742 81.99301
#
# Poissons Ratio (x) = 0.41553 0.27849
# Poissons Ratio (y) = 0.17130 0.06215
# Poissons Ratio (z) = 0.13387 0.07247
#
# Static dielectric constant tensor:
#      x y z
#    x 2.025600 0.000000 -0.000330 
#    y 0.000000 1.990860 0.000000 
#    z -0.000330 0.000000 1.951510 
# 
# From -- ./inp_files/230501.got.cif
#   From: 2010.05.17/outbox.cif.g08.bks.cpg/sg15_116_cif.got.tgz:230501.got - 2010.06.03 18:47:42.
