data_PCOD9298707
_publ_section_title
;
Structure prediction by ZEFSAII (Michael W. Deem and Ramdas Pophale) SiO2 
 PCOD9298707
Probable space group: C 2/C
;
_chemical_formula_sum "Si O2"
_cell_formula_units_Z 32
_cell_length_a 11.257068
_cell_length_b 15.544447
_cell_length_c 8.840188
_cell_angle_alpha 90.000000
_cell_angle_beta 107.996186
_cell_angle_gamma 90.000000
_cell_volume 1471.220558
_symmetry_space_group_name_H-M "C 2/C"
_symmetry_group_IT_number 15
_symmetry_cell_setting 'monoclinic'
loop_
_space_group_symop_operation_xyz
x,y,z
-x,y,1/2-z
-x,-y,-z
x,-y,1/2+z
1/2+x,1/2+y,z
1/2-x,1/2+y,1/2-z
1/2-x,1/2-y,-z
1/2+x,1/2-y,1/2+z
loop_
_atom_site_type_symbol
_atom_site_label
_atom_site_fract_x
_atom_site_fract_y
_atom_site_fract_z
Si Si1 0.804967 0.119778 0.959434
Si Si2 0.318556 0.162024 0.064529
Si Si3 0.410741 0.193922 0.438768
Si Si4 0.642901 0.464950 0.325224
O O1 0.888386 0.203453 0.951027
O O2 0.797251 0.058744 0.811221
O O3 0.669579 0.151958 0.959390
O O4 0.858770 0.062677 0.117538
O O5 0.352571 0.165126 0.254744
O O6 0.446505 0.164460 0.017888
O O7 0.250000 0.250000 0.000000
O O8 0.224778 0.087613 0.977868
O O9 0.500000 0.435519 0.250000
#
# Coordination Sequence:
#
# PCOD9298707 Si02
#       4
#     8   8   8   8
#     4  11  24  44  67 104 141 179 236 285 350 419
#     4  11  22  44  73  97 141 181 230 291 343 426
#     4  10  24  45  70 105 136 185 234 282 357 413
#     4  12  25  44  70 105 142 183 232 291 353 408
#
# _framework density 21.750648999999999
#
# number of rings (size 3 to 8) (size 9 to 14) (size 15 to 20)
#    0.000    1.000    2.500    3.750    0.000    4.000 
#    0.000    0.000    0.000    0.000    0.000    0.000 
#    0.000    0.000    0.000    0.000    0.000    0.000 
#
# Total GULP energy -89440.104524 kJ/mol
# GULP energy per Si atom -5590.006533 kJ/mol
# Density = 2.170114 g / cm^3
# Si number density = 21.750649 Si / 1000 Ang^3
#
#
#
# Elastic Constant Matrix: (Units=GPa)
#
#
# Indices 1 2 3 4 5 6 
#
# 1 114.4336 66.5305 54.1851 0.0000 15.7222 0.0000
# 2 66.5305 104.3875 61.7401 0.0000 -5.7633 0.0000
# 3 54.1851 61.7401 80.5285 0.0000 -4.5853 0.0000
# 4 0.0000 0.0000 0.0000 51.9138 0.0000 -6.6071
# 5 15.7222 -5.7633 -4.5853 0.0000 41.0541 0.0000
# 6 0.0000 0.0000 0.0000 -6.6071 0.0000 16.8891
#
#
#
# Elastic Compliance Matrix: (Units=1/GPa)
#
#
# Indices 1 2 3 4 5 6 
#
# 1 0.017420 -0.007963 -0.006098 0.000000 -0.008470 0.000000
# 2 -0.007963 0.021206 -0.010625 0.000000 0.004840 0.000000
# 3 -0.006098 -0.010625 0.024873 0.000000 0.003622 0.000000
# 4 0.000000 0.000000 0.000000 0.020272 0.000000 0.007931
# 5 -0.008470 0.004840 0.003622 0.000000 0.028686 0.000000
# 6 0.000000 0.000000 0.000000 0.007931 0.000000 0.062312
#
#
# Mechanical properties :
#
#
# Convention : Reuss Voigt Hill
#
# Bulk Modulus (GPa) = 70.78650 73.80677 72.29663
# Shear Modulus (GPa) = 21.84833 29.76432 25.80633
#
# Velocity S-wave (km/s) = 3.17281 3.70325 3.44824
# Velocity P-wave (km/s) = 6.78509 7.23133 7.01176
#
# Compressibility (1/GPa) = 0.01412699
#
# Stress axis : x y z
#
# Youngs Moduli (GPa) = 57.40667 47.15610 40.20369
#
# Poissons Ratio (x) = 0.37551 0.24517
# Poissons Ratio (y) = 0.45713 0.42716
# Poissons Ratio (z) = 0.35008 0.50102
#
# Static dielectric constant tensor:
#      x y z
#    x 1.848310 0.000000 0.015730 
#    y 0.000000 1.835810 0.000000 
#    z 0.015730 0.000000 1.832290 
# 
# From -- ./inp_files/27846.got.cif
#   From: 2010.05.17/outbox.cif.g08.bks.cpg/sg15_14_cif.got.tgz:27846.got - 2010.06.03 18:47:42.
