data_PCOD9298936
_publ_section_title
;
Structure prediction by ZEFSAII (Michael W. Deem and Ramdas Pophale) SiO2 
 PCOD9298936
Probable space group: C 2/C
;
_chemical_formula_sum "Si O2"
_cell_formula_units_Z 40
_cell_length_a 19.015436
_cell_length_b 11.914423
_cell_length_c 8.479067
_cell_angle_alpha 90.000000
_cell_angle_beta 115.375448
_cell_angle_gamma 90.000000
_cell_volume 1735.660045
_symmetry_space_group_name_H-M "C 2/C"
_symmetry_group_IT_number 15
_symmetry_cell_setting 'monoclinic'
loop_
_space_group_symop_operation_xyz
x,y,z
-x,y,1/2-z
-x,-y,-z
x,-y,1/2+z
1/2+x,1/2+y,z
1/2-x,1/2+y,1/2-z
1/2-x,1/2-y,-z
1/2+x,1/2-y,1/2+z
loop_
_atom_site_type_symbol
_atom_site_label
_atom_site_fract_x
_atom_site_fract_y
_atom_site_fract_z
Si Si1 0.000000 0.091712 0.750000
Si Si2 0.745517 0.507807 0.177379
Si Si3 0.854651 0.595622 0.039373
Si Si4 0.457062 0.752840 0.443799
Si Si5 0.000000 0.561543 0.750000
Si Si6 0.365380 0.587829 0.159021
O O1 0.006364 0.164768 0.594820
O O2 0.074941 0.010994 0.829055
O O3 0.786080 0.597720 0.101567
O O4 0.813508 0.458683 0.348984
O O5 0.680621 0.558871 0.226565
O O6 0.701907 0.410783 0.036260
O O7 0.923748 0.515880 0.167998
O O8 0.894697 0.707276 0.014663
O O9 0.497602 0.861104 0.405422
O O10 0.415522 0.695236 0.254009
#
# Coordination Sequence:
#
# PCOD9298936 Si02
#       6
#     4   8   8   8   4   8
#     4  12  26  46  72 102 142 178 238 286 330 412
#     4  10  24  46  70  96 148 176 222 298 342 394
#     4  11  24  48  67 103 139 181 229 291 335 410
#     4  12  26  42  76 102 130 192 232 276 352 402
#     4  12  26  46  72 102 142 178 238 286 330 412
#     4  11  24  48  67 103 139 181 229 291 335 410
#
# _framework density 23.045988999999999
#
# number of rings (size 3 to 8) (size 9 to 14) (size 15 to 20)
#    0.000    0.800    4.000    2.400    5.600    1.600 
#    0.000    0.000    0.000    0.000    0.000    0.000 
#    0.000    0.000    0.000    0.000    0.000    0.000 
#
# Total GULP energy -111852.790260 kJ/mol
# GULP energy per Si atom -5592.639513 kJ/mol
# Density = 2.299354 g / cm^3
# Si number density = 23.045989 Si / 1000 Ang^3
#
#
#
# Elastic Constant Matrix: (Units=GPa)
#
#
# Indices 1 2 3 4 5 6 
#
# 1 88.0349 9.3982 38.6730 0.0000 4.4299 0.0000
# 2 9.3982 53.6604 19.0550 0.0000 9.8125 0.0000
# 3 38.6730 19.0550 100.9593 0.0000 7.4245 0.0000
# 4 0.0000 0.0000 0.0000 36.4179 0.0000 -14.6634
# 5 4.4299 9.8125 7.4245 0.0000 32.9647 0.0000
# 6 0.0000 0.0000 0.0000 -14.6634 0.0000 17.1152
#
#
#
# Elastic Compliance Matrix: (Units=1/GPa)
#
#
# Indices 1 2 3 4 5 6 
#
# 1 0.013683 -0.000482 -0.005110 0.000000 -0.000544 0.000000
# 2 -0.000482 0.020902 -0.003363 0.000000 -0.005400 0.000000
# 3 -0.005110 -0.003363 0.012582 0.000000 -0.001146 0.000000
# 4 0.000000 0.000000 0.000000 0.041920 0.000000 0.035915
# 5 -0.000544 -0.005400 -0.001146 0.000000 0.032274 0.000000
# 6 0.000000 0.000000 0.000000 0.035915 0.000000 0.089197
#
#
# Mechanical properties :
#
#
# Convention : Reuss Voigt Hill
#
# Bulk Modulus (GPa) = 34.18239 41.87855 38.03047
# Shear Modulus (GPa) = 20.98896 29.00145 24.99521
#
# Velocity S-wave (km/s) = 3.02113 3.55127 3.29687
# Velocity P-wave (km/s) = 5.19943 5.91832 5.57048
#
# Compressibility (1/GPa) = 0.02925483
#
# Stress axis : x y z
#
# Youngs Moduli (GPa) = 73.08396 47.84272 79.48168
#
# Poissons Ratio (x) = 0.02307 0.40617
# Poissons Ratio (y) = 0.03525 0.26731
# Poissons Ratio (z) = 0.37348 0.16090
#
# Static dielectric constant tensor:
#      x y z
#    x 1.871400 0.000000 -0.011580 
#    y 0.000000 1.892740 0.000000 
#    z -0.011580 0.000000 1.877240 
# 
# From -- ./inp_files/47300.got.cif
#   From: 2010.05.17/outbox.cif.g08.bks.cpg/sg15_24_cif.got.tgz:47300.got - 2010.06.03 18:47:42.
