data_PCOD9298213
_publ_section_title
;
Structure prediction by ZEFSAII (Michael W. Deem and Ramdas Pophale) SiO2 
 PCOD9298213
Probable space group: C 2/C
;
_chemical_formula_sum "Si O2"
_cell_formula_units_Z 40
_cell_length_a 9.874445
_cell_length_b 20.844877
_cell_length_c 11.395327
_cell_angle_alpha 90.000000
_cell_angle_beta 138.398265
_cell_angle_gamma 90.000000
_cell_volume 1557.304188
_symmetry_space_group_name_H-M "C 2/C"
_symmetry_group_IT_number 15
_symmetry_cell_setting 'monoclinic'
loop_
_space_group_symop_operation_xyz
x,y,z
-x,y,1/2-z
-x,-y,-z
x,-y,1/2+z
1/2+x,1/2+y,z
1/2-x,1/2+y,1/2-z
1/2-x,1/2-y,-z
1/2+x,1/2-y,1/2+z
loop_
_atom_site_type_symbol
_atom_site_label
_atom_site_fract_x
_atom_site_fract_y
_atom_site_fract_z
Si Si1 0.034655 0.347526 0.645243
Si Si2 0.618013 0.758752 0.121087
Si Si3 0.827271 0.968105 0.303056
Si Si4 0.787950 0.151442 0.897312
Si Si5 0.855541 0.557277 0.492653
O O1 0.855810 0.304116 0.475560
O O2 0.000000 0.375979 0.750000
O O3 0.202286 0.291902 0.760626
O O4 0.104766 0.399994 0.597661
O O5 0.428585 0.711557 0.016663
O O6 0.604695 0.812581 0.213024
O O7 0.883563 0.893487 0.356361
O O8 0.790488 0.000661 0.151740
O O9 0.581757 0.966196 0.180340
O O10 0.000000 0.000000 0.500000
O O11 0.249822 0.103122 0.519918
#
# Coordination Sequence:
#
# PCOD9298213 Si02
#       5
#     8   8   8   8   8
#     4  11  23  42  66 105 151 203 261 313 387 469
#     4  10  24  43  76 111 154 204 247 332 398 461
#     4  11  25  47  69 102 152 200 251 309 380 464
#     4  11  24  50  76 119 155 194 268 323 401 469
#     4  11  26  46  75 109 149 200 257 331 382 449
#
# _framework density 25.685411999999999
#
# number of rings (size 3 to 8) (size 9 to 14) (size 15 to 20)
#    0.000    1.200    2.000    2.400    0.000   11.200 
#    3.600    2.000    0.000    0.000    0.000    0.000 
#    0.000    0.000    0.000    0.000    0.000    0.000 
#
# Total GULP energy -111506.016424 kJ/mol
# GULP energy per Si atom -5575.300821 kJ/mol
# Density = 2.562695 g / cm^3
# Si number density = 25.685412 Si / 1000 Ang^3
#
#
#
# Elastic Constant Matrix: (Units=GPa)
#
#
# Indices 1 2 3 4 5 6 
#
# 1 70.3805 32.9342 34.6766 0.0000 -33.4570 0.0000
# 2 32.9342 140.2310 43.5932 0.0000 -30.0037 0.0000
# 3 34.6766 43.5932 116.9521 0.0000 -20.8287 0.0000
# 4 0.0000 0.0000 0.0000 118.2043 0.0000 -13.5405
# 5 -33.4570 -30.0037 -20.8287 0.0000 31.0842 0.0000
# 6 0.0000 0.0000 0.0000 -13.5405 0.0000 52.8677
#
#
#
# Elastic Compliance Matrix: (Units=1/GPa)
#
#
# Indices 1 2 3 4 5 6 
#
# 1 0.030426 0.000619 -0.003762 0.000000 0.030825 0.000000
# 2 0.000619 0.009454 -0.002230 0.000000 0.008298 0.000000
# 3 -0.003762 -0.002230 0.010665 0.000000 0.000945 0.000000
# 4 0.000000 0.000000 0.000000 0.008716 0.000000 0.002232
# 5 0.030825 0.008298 0.000945 0.000000 0.073992 0.000000
# 6 0.000000 0.000000 0.000000 0.002232 0.000000 0.019487
#
#
# Mechanical properties :
#
#
# Convention : Reuss Voigt Hill
#
# Bulk Modulus (GPa) = 25.12578 61.10796 43.11687
# Shear Modulus (GPa) = 28.28820 54.85520 41.57170
#
# Velocity S-wave (km/s) = 3.32223 4.62633 4.02742
# Velocity P-wave (km/s) = 4.95173 7.23739 6.20079
#
# Compressibility (1/GPa) = 0.03979977
#
# Stress axis : x y z
#
# Youngs Moduli (GPa) = 32.86675 105.77237 93.76067
#
# Poissons Ratio (x) = -0.06549 0.35276
# Poissons Ratio (y) = -0.02035 0.20906
# Poissons Ratio (z) = 0.12366 0.23585
#
# Static dielectric constant tensor:
#      x y z
#    x 2.085710 0.000000 -0.005870 
#    y 0.000000 2.006690 0.000000 
#    z -0.005870 0.000000 2.355620 
# 
# From -- ./inp_files/155911.got.cif
#   From: 2010.05.17/outbox.cif.g08.bks.cpg/sg15_78_cif.got.tgz:155911.got - 2010.06.03 18:47:42.
