data_PCOD9298683
_publ_section_title
;
Structure prediction by ZEFSAII (Michael W. Deem and Ramdas Pophale) SiO2 
 PCOD9298683
Probable space group: C 2/C
;
_chemical_formula_sum "Si O2"
_cell_formula_units_Z 44
_cell_length_a 22.841895
_cell_length_b 5.057471
_cell_length_c 16.300778
_cell_angle_alpha 90.000000
_cell_angle_beta 58.568849
_cell_angle_gamma 90.000000
_cell_volume 1606.789631
_symmetry_space_group_name_H-M "C 2/C"
_symmetry_group_IT_number 15
_symmetry_cell_setting 'monoclinic'
loop_
_space_group_symop_operation_xyz
x,y,z
-x,y,1/2-z
-x,-y,-z
x,-y,1/2+z
1/2+x,1/2+y,z
1/2-x,1/2+y,1/2-z
1/2-x,1/2-y,-z
1/2+x,1/2-y,1/2+z
loop_
_atom_site_type_symbol
_atom_site_label
_atom_site_fract_x
_atom_site_fract_y
_atom_site_fract_z
Si Si1 0.060309 0.476593 0.574629
Si Si2 0.684446 0.421064 0.023535
Si Si3 0.757751 0.482017 0.803764
Si Si4 0.059625 0.190016 0.924743
Si Si5 0.500000 0.633478 0.250000
Si Si6 0.631551 0.591557 0.726732
O O1 0.115395 0.252210 0.557529
O O2 0.089746 0.640193 0.476471
O O3 0.043277 0.678919 0.658954
O O4 0.985385 0.387091 0.598136
O O5 0.671103 0.556244 0.123201
O O6 0.750000 0.250000 0.000000
O O7 0.709058 0.534893 0.918178
O O8 0.762342 0.731427 0.739813
O O9 0.830342 0.373593 0.789328
O O10 0.116357 0.027785 0.833348
O O11 0.000000 0.000000 0.000000
O O12 0.446147 0.444002 0.246163
#
# Coordination Sequence:
#
# PCOD9298683 Si02
#       6
#     8   8   8   8   4   8
#     4  11  24  40  71  98 142 184 249 297 380 445
#     4  10  24  45  69 107 143 198 241 312 378 459
#     4  11  27  49  78 106 148 204 258 315 383 460
#     4  11  23  42  66 102 135 189 239 308 366 440
#     4  12  24  42  72 112 144 198 234 328 376 454
#     4  11  24  43  71 104 149 183 250 304 380 452
#
# _framework density 27.383797999999999
#
# number of rings (size 3 to 8) (size 9 to 14) (size 15 to 20)
#    0.000    1.091    1.818    3.273    2.545    5.818 
#    0.000    6.364    0.000    0.000    0.000    0.000 
#    0.000    0.000    0.000    0.000    0.000    0.000 
#
# Total GULP energy -122872.475285 kJ/mol
# GULP energy per Si atom -5585.112513 kJ/mol
# Density = 2.732147 g / cm^3
# Si number density = 27.383798 Si / 1000 Ang^3
#
#
#
# Elastic Constant Matrix: (Units=GPa)
#
#
# Indices 1 2 3 4 5 6 
#
# 1 109.6788 56.9817 22.8264 -0.0087 -5.2529 -0.0148
# 2 56.9817 116.7936 49.2569 0.0011 2.7692 -0.0062
# 3 22.8264 49.2569 229.7260 -0.0119 21.6799 -0.0169
# 4 -0.0087 0.0011 -0.0119 7.3169 -0.0015 -42.2553
# 5 -5.2529 2.7692 21.6799 -0.0015 49.2053 -0.0018
# 6 -0.0148 -0.0062 -0.0169 -42.2553 -0.0018 30.0406
#
#
#
# Elastic Compliance Matrix: (Units=1/GPa)
#
#
# Indices 1 2 3 4 5 6 
#
# 1 0.012349 -0.006025 -0.000096 -0.000006 0.001700 -0.000004
# 2 -0.006025 0.012359 -0.002009 0.000003 -0.000454 0.000003
# 3 -0.000096 -0.002009 0.004991 -0.000003 -0.002096 -0.000002
# 4 -0.000006 0.000003 -0.000003 -0.019187 -0.000001 -0.026988
# 5 0.001700 -0.000454 -0.002096 -0.000001 0.021454 -0.000001
# 6 -0.000004 0.000003 -0.000002 -0.026988 -0.000001 -0.004673
#
#
# Mechanical properties :
#
#
# Convention : Reuss Voigt Hill
#
# Bulk Modulus (GPa) = 74.39747 79.36982 76.88365
# Shear Modulus (GPa) = 104.09822 39.12143 71.60982
#
# Velocity S-wave (km/s) = 6.17228 3.78383 5.11930
# Velocity P-wave (km/s) = 8.83309 6.93808 7.94231
#
# Compressibility (1/GPa) = 0.01344132
#
# Stress axis : x y z
#
# Youngs Moduli (GPa) = 80.97880 80.91014 200.36027
#
# Poissons Ratio (x) = 0.48747 0.01915
# Poissons Ratio (y) = 0.48788 0.40244
# Poissons Ratio (z) = 0.00774 0.16251
#
# Static dielectric constant tensor:
#      x y z
#    x 0.477690 -0.000380 0.697090 
#    y -0.000380 1.952700 0.000120 
#    z 0.697090 0.000120 1.998040 
# 
# From -- ./inp_files/221118.got.cif
#   From: 2010.05.17/outbox.cif.g08.bks.cpg/sg15_111_cif.got.tgz:221118.got - 2010.06.03 18:47:42.
