data_PCOD9298555
_publ_section_title
;
Structure prediction by ZEFSAII (Michael W. Deem and Ramdas Pophale) SiO2 
 PCOD9298555
Probable space group: C 2/C
;
_chemical_formula_sum "Si O2"
_cell_formula_units_Z 56
_cell_length_a 28.479056
_cell_length_b 11.558655
_cell_length_c 16.213406
_cell_angle_alpha 90.000000
_cell_angle_beta 153.510778
_cell_angle_gamma 90.000000
_cell_volume 2380.513732
_symmetry_space_group_name_H-M "C 2/C"
_symmetry_group_IT_number 15
_symmetry_cell_setting 'monoclinic'
loop_
_space_group_symop_operation_xyz
x,y,z
-x,y,1/2-z
-x,-y,-z
x,-y,1/2+z
1/2+x,1/2+y,z
1/2-x,1/2+y,1/2-z
1/2-x,1/2-y,-z
1/2+x,1/2-y,1/2+z
loop_
_atom_site_type_symbol
_atom_site_label
_atom_site_fract_x
_atom_site_fract_y
_atom_site_fract_z
Si Si1 0.500000 0.958668 0.750000
Si Si2 0.154227 0.716476 0.905963
Si Si3 0.703917 0.911698 0.634119
Si Si4 0.031566 0.070772 0.164347
Si Si5 0.500000 0.604364 0.750000
Si Si6 0.578949 0.021314 0.203947
Si Si7 0.844170 0.087588 0.757488
Si Si8 0.739934 0.332064 0.595483
O O1 0.408854 0.034788 0.565125
O O2 0.459006 0.904797 0.773490
O O3 0.073771 0.821601 0.781374
O O4 0.103961 0.602858 0.784824
O O5 0.250000 0.750000 0.000000
O O6 0.206246 0.695147 0.075877
O O7 0.723815 0.866990 0.755526
O O8 0.781078 0.011748 0.724273
O O9 0.974501 0.978978 0.132978
O O10 0.125441 0.999253 0.268338
O O11 0.955860 0.118528 0.974196
O O12 0.388343 0.662814 0.600681
O O13 0.687201 0.079579 0.342682
O O14 0.500000 0.000000 0.000000
O O15 0.781456 0.203681 0.639584
#
# Coordination Sequence:
#
# PCOD9298555 Si02
#       8
#     4   8   8   8   4   8   8   8
#     4  10  24  44  74 106 156 194 262 328 382 468
#     4  11  23  42  79 105 146 197 263 325 372 461
#     4  11  24  47  70 116 145 202 263 321 388 459
#     4  11  25  48  74 113 145 202 262 317 386 464
#     4  12  28  48  76 112 152 210 260 312 404 482
#     4  11  23  46  73 118 154 202 261 330 405 461
#     4  11  26  49  73 104 161 199 252 323 388 470
#     4  12  27  49  76 113 163 208 256 328 401 483
#
# _framework density 23.524332000000001
#
# number of rings (size 3 to 8) (size 9 to 14) (size 15 to 20)
#    0.000    0.857    4.286    1.714    6.000    2.857 
#    2.571    0.000    0.000    0.000    0.000    0.000 
#    0.000    0.000    0.000    0.000    0.000    0.000 
#
# Total GULP energy -156327.036098 kJ/mol
# GULP energy per Si atom -5583.108432 kJ/mol
# Density = 2.347079 g / cm^3
# Si number density = 23.524332 Si / 1000 Ang^3
#
#
#
# Elastic Constant Matrix: (Units=GPa)
#
#
# Indices 1 2 3 4 5 6 
#
# 1 148.7920 40.2317 51.3727 0.0000 6.5072 0.0000
# 2 40.2317 106.5974 41.6682 0.0000 19.0927 0.0000
# 3 51.3727 41.6682 143.7982 0.0000 8.2634 0.0000
# 4 0.0000 0.0000 0.0000 5.9284 0.0000 2.6185
# 5 6.5072 19.0927 8.2634 0.0000 42.7203 0.0000
# 6 0.0000 0.0000 0.0000 2.6185 0.0000 23.7515
#
#
#
# Elastic Compliance Matrix: (Units=1/GPa)
#
#
# Indices 1 2 3 4 5 6 
#
# 1 0.008089 -0.002203 -0.002263 0.000000 0.000190 0.000000
# 2 -0.002203 0.011973 -0.002421 0.000000 -0.004547 0.000000
# 3 -0.002263 -0.002421 0.008476 0.000000 -0.000213 0.000000
# 4 0.000000 0.000000 0.000000 0.177314 0.000000 -0.019548
# 5 0.000190 -0.004547 -0.000213 0.000000 0.025453 0.000000
# 6 0.000000 0.000000 0.000000 -0.019548 0.000000 0.044258
#
#
# Mechanical properties :
#
#
# Convention : Reuss Voigt Hill
#
# Bulk Modulus (GPa) = 67.72333 73.97032 70.84683
# Shear Modulus (GPa) = 16.99190 32.20771 24.59980
#
# Velocity S-wave (km/s) = 2.69050 3.70418 3.23726
# Velocity P-wave (km/s) = 6.20507 7.05741 6.64492
#
# Compressibility (1/GPa) = 0.01476596
#
# Stress axis : x y z
#
# Youngs Moduli (GPa) = 123.62098 83.51894 117.97522
#
# Poissons Ratio (x) = 0.18396 0.26693
# Poissons Ratio (y) = 0.27229 0.28565
# Poissons Ratio (z) = 0.27970 0.20222
#
# Static dielectric constant tensor:
#      x y z
#    x 1.951760 0.000000 0.018950 
#    y 0.000000 1.913380 0.000000 
#    z 0.018950 0.000000 1.907560 
# 
# From -- ./inp_files/178457.got.cif
#   From: 2010.05.17/outbox.cif.g08.bks.cpg/sg15_90_cif.got.tgz:178457.got - 2010.06.03 18:47:42.
