data_PCOD9298370
_publ_section_title
;
Structure prediction by ZEFSAII (Michael W. Deem and Ramdas Pophale) SiO2 
 PCOD9298370
Probable space group: C 2/C
;
_chemical_formula_sum "Si O2"
_cell_formula_units_Z 44
_cell_length_a 7.757786
_cell_length_b 24.276811
_cell_length_c 15.698505
_cell_angle_alpha 90.000000
_cell_angle_beta 135.338073
_cell_angle_gamma 90.000000
_cell_volume 2078.236659
_symmetry_space_group_name_H-M "C 2/C"
_symmetry_group_IT_number 15
_symmetry_cell_setting 'monoclinic'
loop_
_space_group_symop_operation_xyz
x,y,z
-x,y,1/2-z
-x,-y,-z
x,-y,1/2+z
1/2+x,1/2+y,z
1/2-x,1/2+y,1/2-z
1/2-x,1/2-y,-z
1/2+x,1/2-y,1/2+z
loop_
_atom_site_type_symbol
_atom_site_label
_atom_site_fract_x
_atom_site_fract_y
_atom_site_fract_z
Si Si1 0.000000 0.502631 0.750000
Si Si2 0.881537 0.912456 0.932562
Si Si3 0.008856 0.227579 0.623940
Si Si4 0.062530 0.593777 0.912489
Si Si5 0.500000 0.816236 0.250000
Si Si6 0.856201 0.104580 0.617426
Si Si7 0.500000 0.180909 0.250000
O O1 0.234112 0.463114 0.841255
O O2 0.992995 0.540765 0.831105
O O3 0.710571 0.858616 0.860988
O O4 0.915292 0.920623 0.046196
O O5 0.144470 0.904594 0.982391
O O6 0.243985 0.215400 0.647794
O O7 0.750000 0.250000 0.500000
O O8 0.931607 0.168622 0.635770
O O9 0.104368 0.276093 0.718490
O O10 0.971862 0.645008 0.822814
O O11 0.926271 0.596824 0.954633
O O12 0.000000 0.081440 0.750000
#
# Coordination Sequence:
#
# PCOD9298370 Si02
#       7
#     4   8   8   8   4   8   4
#     4  10  24  44  68  94 132 168 216 276 340 396
#     4  11  24  44  64  95 133 171 214 277 329 387
#     4  12  22  39  64  98 133 176 219 269 322 392
#     4  11  21  41  67  92 124 172 217 267 329 396
#     4  11  20  39  64  94 126 175 218 263 330 386
#     4  12  22  39  67  94 129 166 219 266 321 386
#     4  11  22  41  62  92 140 173 212 273 320 382
#
# _framework density 21.171794999999999
#
# number of rings (size 3 to 8) (size 9 to 14) (size 15 to 20)
#    0.000    0.727    6.364    1.636    0.000    2.182 
#    0.000    8.182    0.000    0.000    0.000    0.000 
#    0.000    0.000    0.000    0.000    0.000    0.000 
#
# Total GULP energy -122870.485598 kJ/mol
# GULP energy per Si atom -5585.022073 kJ/mol
# Density = 2.112361 g / cm^3
# Si number density = 21.171795 Si / 1000 Ang^3
#
#
#
# Elastic Constant Matrix: (Units=GPa)
#
#
# Indices 1 2 3 4 5 6 
#
# 1 117.6067 23.1479 21.2556 0.0000 40.5871 0.0000
# 2 23.1479 87.4292 16.0424 0.0000 13.9044 0.0000
# 3 21.2556 16.0424 81.9531 0.0000 28.1473 0.0000
# 4 0.0000 0.0000 0.0000 20.0849 0.0000 5.9631
# 5 40.5871 13.9044 28.1473 0.0000 33.3975 0.0000
# 6 0.0000 0.0000 0.0000 5.9631 0.0000 11.6956
#
#
#
# Elastic Compliance Matrix: (Units=1/GPa)
#
#
# Indices 1 2 3 4 5 6 
#
# 1 0.015441 -0.001369 0.003536 0.000000 -0.021175 0.000000
# 2 -0.001369 0.012419 -0.001227 0.000000 -0.002472 0.000000
# 3 0.003536 -0.001227 0.018051 0.000000 -0.018999 0.000000
# 4 0.000000 0.000000 0.000000 0.058670 0.000000 -0.029913
# 5 -0.021175 -0.002472 -0.018999 0.000000 0.072718 0.000000
# 6 0.000000 0.000000 0.000000 -0.029913 0.000000 0.100753
#
#
# Mechanical properties :
#
#
# Convention : Reuss Voigt Hill
#
# Bulk Modulus (GPa) = 20.92483 45.32007 33.12245
# Shear Modulus (GPa) = 17.11732 28.13848 22.62790
#
# Velocity S-wave (km/s) = 2.84649 3.64958 3.27276
# Velocity P-wave (km/s) = 4.55062 6.26191 5.47356
#
# Compressibility (1/GPa) = 0.04779012
#
# Stress axis : x y z
#
# Youngs Moduli (GPa) = 64.76207 80.52408 55.39978
#
# Poissons Ratio (x) = 0.11027 -0.19589
# Poissons Ratio (y) = 0.08869 0.06796
# Poissons Ratio (z) = -0.22900 0.09878
#
# Static dielectric constant tensor:
#      x y z
#    x 1.778360 0.000000 0.005490 
#    y 0.000000 1.761610 0.000000 
#    z 0.005490 0.000000 1.818430 
# 
# From -- ./inp_files/79068.got.cif
#   From: 2010.05.17/outbox.cif.g08.bks.cpg/sg15_40_cif.got.tgz:79068.got - 2010.06.03 18:47:42.
