data_PCOD9298999
_publ_section_title
;
Structure prediction by ZEFSAII (Michael W. Deem and Ramdas Pophale) SiO2 
 PCOD9298999
Probable space group: C 2/C
;
_chemical_formula_sum "Si O2"
_cell_formula_units_Z 52
_cell_length_a 17.775804
_cell_length_b 8.536339
_cell_length_c 24.913675
_cell_angle_alpha 90.000000
_cell_angle_beta 33.978459
_cell_angle_gamma 90.000000
_cell_volume 2112.799012
_symmetry_space_group_name_H-M "C 2/C"
_symmetry_group_IT_number 15
_symmetry_cell_setting 'monoclinic'
loop_
_space_group_symop_operation_xyz
x,y,z
-x,y,1/2-z
-x,-y,-z
x,-y,1/2+z
1/2+x,1/2+y,z
1/2-x,1/2+y,1/2-z
1/2-x,1/2-y,-z
1/2+x,1/2-y,1/2+z
loop_
_atom_site_type_symbol
_atom_site_label
_atom_site_fract_x
_atom_site_fract_y
_atom_site_fract_z
Si Si1 0.000000 0.370214 0.250000
Si Si2 0.543110 0.352029 0.442019
Si Si3 0.122345 0.558848 0.266922
Si Si4 0.393982 0.703071 0.935427
Si Si5 0.150698 0.556221 0.427499
Si Si6 0.892432 0.934766 0.858278
Si Si7 0.241317 0.357178 0.279091
O O1 0.893631 0.476014 0.280655
O O2 0.927721 0.250096 0.334283
O O3 0.500000 0.500000 0.500000
O O4 0.412715 0.282908 0.488528
O O5 0.629084 0.238775 0.428472
O O6 0.637666 0.376138 0.334474
O O7 0.120367 0.422801 0.313617
O O8 0.245893 0.679562 0.206724
O O9 0.996881 0.674158 0.348224
O O10 0.415174 0.527862 0.899524
O O11 0.250000 0.750000 0.000000
O O12 0.239074 0.540627 0.428590
O O13 0.243085 0.474609 0.327615
O O14 0.000000 0.500000 0.500000
O O15 0.000000 0.999962 0.750000
#
# Coordination Sequence:
#
# PCOD9298999 Si02
#       7
#     4   8   8   8   8   8   8
#     4  10  26  44  70 112 146 196 268 302 394 450
#     4  11  26  47  71 108 145 198 255 312 381 454
#     4  11  25  43  76 106 142 204 250 314 382 459
#     4  11  24  46  73 107 150 192 248 312 388 457
#     4  12  25  45  72 115 148 199 254 318 385 464
#     4  10  24  46  73 103 158 196 254 312 388 458
#     4  11  24  46  73 104 152 191 260 307 384 452
#
# _framework density 24.611902000000001
#
# number of rings (size 3 to 8) (size 9 to 14) (size 15 to 20)
#    0.462    0.615    3.077    3.692    5.385    2.462 
#    0.000    1.538    0.000    0.000    0.000    0.000 
#    0.000    0.000    0.000    0.000    0.000    0.000 
#
# Total GULP energy -145123.778732 kJ/mol
# GULP energy per Si atom -5581.683797 kJ/mol
# Density = 2.455588 g / cm^3
# Si number density = 24.611902 Si / 1000 Ang^3
#
#
#
# Elastic Constant Matrix: (Units=GPa)
#
#
# Indices 1 2 3 4 5 6 
#
# 1 129.2231 54.5502 -4.2107 0.0001 -19.0416 -0.0002
# 2 54.5502 142.2970 22.6884 0.0004 -7.5116 -0.0006
# 3 -4.2107 22.6884 41.5273 0.0000 -13.4873 0.0001
# 4 0.0001 0.0004 0.0000 29.6502 0.0000 3.8329
# 5 -19.0416 -7.5116 -13.4873 0.0000 34.3461 0.0001
# 6 -0.0002 -0.0006 0.0001 3.8329 0.0001 63.9578
#
#
#
# Elastic Compliance Matrix: (Units=1/GPa)
#
#
# Indices 1 2 3 4 5 6 
#
# 1 0.011099 -0.004849 0.006222 0.000000 0.007536 0.000000
# 2 -0.004849 0.009817 -0.006912 0.000000 -0.003256 0.000000
# 3 0.006222 -0.006912 0.033374 0.000000 0.015043 0.000000
# 4 0.000000 0.000000 0.000000 0.033990 0.000000 -0.002037
# 5 0.007536 -0.003256 0.015043 0.000000 0.038489 0.000000
# 6 0.000000 0.000000 0.000000 -0.002037 0.000000 0.015757
#
#
# Mechanical properties :
#
#
# Convention : Reuss Voigt Hill
#
# Bulk Modulus (GPa) = 23.14237 51.01148 37.07693
# Shear Modulus (GPa) = 29.76056 41.59212 35.67634
#
# Velocity S-wave (km/s) = 3.48112 4.11532 3.81143
# Velocity P-wave (km/s) = 5.05776 6.58426 5.87084
#
# Compressibility (1/GPa) = 0.04321079
#
# Stress axis : x y z
#
# Youngs Moduli (GPa) = 90.10020 101.86682 29.96355
#
# Poissons Ratio (x) = 0.49396 -0.18644
# Poissons Ratio (y) = 0.43690 0.20712
# Poissons Ratio (z) = -0.56062 0.70415
#
# Static dielectric constant tensor:
#      x y z
#    x 2.006620 0.000000 -0.130920 
#    y 0.000000 2.019500 0.000000 
#    z -0.130920 0.000000 2.124270 
# 
# From -- ./inp_files/298320.got.cif
#   From: 2010.05.17/outbox.cif.g08.bks.cpg/sg15_150_cif.got.tgz:298320.got - 2010.06.03 18:47:42.
