data_PCOD9298140
_publ_section_title
;
Structure prediction by ZEFSAII (Michael W. Deem and Ramdas Pophale) SiO2 
 PCOD9298140
Probable space group: C 2/C
;
_chemical_formula_sum "Si O2"
_cell_formula_units_Z 44
_cell_length_a 16.018447
_cell_length_b 10.975820
_cell_length_c 10.423646
_cell_angle_alpha 90.000000
_cell_angle_beta 96.404427
_cell_angle_gamma 90.000000
_cell_volume 1821.202535
_symmetry_space_group_name_H-M "C 2/C"
_symmetry_group_IT_number 15
_symmetry_cell_setting 'monoclinic'
loop_
_space_group_symop_operation_xyz
x,y,z
-x,y,1/2-z
-x,-y,-z
x,-y,1/2+z
1/2+x,1/2+y,z
1/2-x,1/2+y,1/2-z
1/2-x,1/2-y,-z
1/2+x,1/2-y,1/2+z
loop_
_atom_site_type_symbol
_atom_site_label
_atom_site_fract_x
_atom_site_fract_y
_atom_site_fract_z
Si Si1 0.500000 0.149965 0.250000
Si Si2 0.261121 0.370262 0.583523
Si Si3 0.402562 0.479131 0.446439
Si Si4 0.896635 0.762183 0.010292
Si Si5 0.794142 0.181606 0.738917
Si Si6 0.363168 0.970029 0.347233
O O1 0.471578 0.234122 0.125687
O O2 0.425190 0.059344 0.282624
O O3 0.250000 0.250000 0.500000
O O4 0.347937 0.434084 0.560885
O O5 0.239531 0.310912 0.715934
O O6 0.182724 0.458092 0.545154
O O7 0.500000 0.500000 0.500000
O O8 0.385402 0.620772 0.417355
O O9 0.369508 0.385386 0.331716
O O10 0.822842 0.788189 0.100558
O O11 0.904323 0.646685 0.919316
O O12 0.717826 0.086171 0.738325
#
# Coordination Sequence:
#
# PCOD9298140 Si02
#       6
#     4   8   8   8   8   8
#     4  12  28  48  72 110 156 194 244 310 366 436
#     4  10  24  43  70 102 146 187 247 296 369 431
#     4  11  26  46  72 108 143 191 248 308 367 439
#     4  12  26  46  76 105 147 195 246 304 368 437
#     4  11  25  47  77 103 149 196 244 303 371 438
#     4  12  27  45  74 109 145 196 249 299 370 441
#
# _framework density 24.159860999999999
#
# number of rings (size 3 to 8) (size 9 to 14) (size 15 to 20)
#    0.000    0.727    3.636    2.182   10.182    1.455 
#    0.000    0.000    0.000    0.000    0.000    0.000 
#    0.000    0.000    0.000    0.000    0.000    0.000 
#
# Total GULP energy -122563.281412 kJ/mol
# GULP energy per Si atom -5571.058246 kJ/mol
# Density = 2.410487 g / cm^3
# Si number density = 24.159861 Si / 1000 Ang^3
#
#
#
# Elastic Constant Matrix: (Units=GPa)
#
#
# Indices 1 2 3 4 5 6 
#
# 1 151.6681 31.8510 26.1711 0.0000 17.1953 0.0000
# 2 31.8510 111.2956 5.9241 0.0000 20.8266 0.0000
# 3 26.1711 5.9241 42.6294 0.0000 28.1115 0.0000
# 4 0.0000 0.0000 0.0000 38.7043 0.0000 1.9772
# 5 17.1953 20.8266 28.1115 0.0000 34.8756 0.0000
# 6 0.0000 0.0000 0.0000 1.9772 0.0000 50.4129
#
#
#
# Elastic Compliance Matrix: (Units=1/GPa)
#
#
# Indices 1 2 3 4 5 6 
#
# 1 0.007874 -0.002396 -0.006157 0.000000 0.002511 0.000000
# 2 -0.002396 0.011487 0.007726 0.000000 -0.011906 0.000000
# 3 -0.006157 0.007726 0.058073 0.000000 -0.048387 0.000000
# 4 0.000000 0.000000 0.000000 0.025889 0.000000 -0.001015
# 5 0.002511 -0.011906 -0.048387 0.000000 0.073548 0.000000
# 6 0.000000 0.000000 0.000000 -0.001015 0.000000 0.019876
#
#
# Mechanical properties :
#
#
# Convention : Reuss Voigt Hill
#
# Bulk Modulus (GPa) = 13.19610 48.16506 30.68058
# Shear Modulus (GPa) = 22.35518 40.90834 31.63176
#
# Velocity S-wave (km/s) = 3.04518 4.11936 3.62231
# Velocity P-wave (km/s) = 4.22351 6.52723 5.49740
#
# Compressibility (1/GPa) = 0.07577999
#
# Stress axis : x y z
#
# Youngs Moduli (GPa) = 126.99704 87.05173 17.21970
#
# Poissons Ratio (x) = 0.20855 0.10603
# Poissons Ratio (y) = 0.30424 -0.13303
# Poissons Ratio (z) = 0.78196 -0.67253
#
# Static dielectric constant tensor:
#      x y z
#    x 2.141230 0.000000 -0.121830 
#    y 0.000000 2.059240 0.000000 
#    z -0.121830 0.000000 2.304910 
# 
# From -- ./inp_files/95065.got.cif
#   From: 2010.05.17/outbox.cif.g08.bks.cpg/sg15_48_cif.got.tgz:95065.got - 2010.06.03 18:47:42.
