data_PCOD9298169
_publ_section_title
;
Structure prediction by ZEFSAII (Michael W. Deem and Ramdas Pophale) SiO2 
 PCOD9298169
Probable space group: C 2/C
;
_chemical_formula_sum "Si O2"
_cell_formula_units_Z 40
_cell_length_a 16.794129
_cell_length_b 12.560957
_cell_length_c 9.112736
_cell_angle_alpha 90.000000
_cell_angle_beta 106.056671
_cell_angle_gamma 90.000000
_cell_volume 1847.341708
_symmetry_space_group_name_H-M "C 2/C"
_symmetry_group_IT_number 15
_symmetry_cell_setting 'monoclinic'
loop_
_space_group_symop_operation_xyz
x,y,z
-x,y,1/2-z
-x,-y,-z
x,-y,1/2+z
1/2+x,1/2+y,z
1/2-x,1/2+y,1/2-z
1/2-x,1/2-y,-z
1/2+x,1/2-y,1/2+z
loop_
_atom_site_type_symbol
_atom_site_label
_atom_site_fract_x
_atom_site_fract_y
_atom_site_fract_z
Si Si1 0.941490 0.042951 0.598388
Si Si2 0.155118 0.616253 0.941768
Si Si3 0.587031 0.048982 0.601700
Si Si4 0.827320 0.231332 0.430963
Si Si5 0.333743 0.341716 0.603476
O O1 0.877764 0.130583 0.513482
O O2 0.000000 0.093090 0.750000
O O3 0.893922 0.941305 0.641261
O O4 0.000000 0.000000 0.500000
O O5 0.102640 0.565792 0.782466
O O6 0.124060 0.737143 0.946035
O O7 0.149411 0.541272 0.078279
O O8 0.253601 0.627397 0.966588
O O9 0.615299 0.162336 0.547748
O O10 0.500000 0.000000 0.500000
O O11 0.750000 0.250000 0.500000
O O12 0.806678 0.199420 0.251431
#
# Coordination Sequence:
#
# PCOD9298169 Si02
#       5
#     8   8   8   8   8
#     4  12  26  44  74 105 145 189 241 302 368 433
#     4  10  24  43  71  98 141 185 235 290 366 429
#     4  11  25  43  70 104 143 182 233 303 359 429
#     4  11  26  48  73 105 144 191 248 297 362 444
#     4  10  24  46  71 101 141 195 242 297 360 442
#
# _framework density 21.652733999999999
#
# number of rings (size 3 to 8) (size 9 to 14) (size 15 to 20)
#    0.000    1.200    2.000    1.800    8.400    6.400 
#    0.000    0.000    0.000    0.000    0.000    0.000 
#    0.000    0.000    0.000    0.000    0.000    0.000 
#
# Total GULP energy -111679.387552 kJ/mol
# GULP energy per Si atom -5583.969378 kJ/mol
# Density = 2.160345 g / cm^3
# Si number density = 21.652734 Si / 1000 Ang^3
#
#
#
# Elastic Constant Matrix: (Units=GPa)
#
#
# Indices 1 2 3 4 5 6 
#
# 1 100.2924 53.9005 55.2659 0.0000 -1.4050 0.0000
# 2 53.9005 131.9763 29.0217 0.0000 -0.7455 0.0000
# 3 55.2659 29.0217 85.2011 0.0000 15.0310 0.0000
# 4 0.0000 0.0000 0.0000 38.0735 0.0000 12.4826
# 5 -1.4050 -0.7455 15.0310 0.0000 37.0176 0.0000
# 6 0.0000 0.0000 0.0000 12.4826 0.0000 42.1429
#
#
#
# Elastic Compliance Matrix: (Units=1/GPa)
#
#
# Indices 1 2 3 4 5 6 
#
# 1 0.019329 -0.005295 -0.011682 0.000000 0.005370 0.000000
# 2 -0.005295 0.009709 0.000138 0.000000 -0.000062 0.000000
# 3 -0.011682 0.000138 0.020837 0.000000 -0.008902 0.000000
# 4 0.000000 0.000000 0.000000 0.029090 0.000000 -0.008616
# 5 0.005370 -0.000062 -0.008902 0.000000 0.030831 0.000000
# 6 0.000000 0.000000 0.000000 -0.008616 0.000000 0.026281
#
#
# Mechanical properties :
#
#
# Convention : Reuss Voigt Hill
#
# Bulk Modulus (GPa) = 61.73244 65.98290 63.85767
# Shear Modulus (GPa) = 28.54644 35.39891 31.97268
#
# Velocity S-wave (km/s) = 3.63488 4.04771 3.84684
# Velocity P-wave (km/s) = 6.79622 7.23773 7.02045
#
# Compressibility (1/GPa) = 0.01619894
#
# Stress axis : x y z
#
# Youngs Moduli (GPa) = 51.73608 102.99857 47.99051
#
# Poissons Ratio (x) = 0.54538 0.56060
# Poissons Ratio (y) = 0.27394 -0.00664
# Poissons Ratio (z) = 0.60436 -0.01425
#
# Static dielectric constant tensor:
#      x y z
#    x 1.893520 0.000000 0.097910 
#    y 0.000000 1.706940 0.000000 
#    z 0.097910 0.000000 1.956520 
# 
# From -- ./inp_files/46238.got.cif
#   From: 2010.05.17/outbox.cif.g08.bks.cpg/sg15_24_cif.got.tgz:46238.got - 2010.06.03 18:47:42.
