data_PCOD9298781
_publ_section_title
;
Structure prediction by ZEFSAII (Michael W. Deem and Ramdas Pophale) SiO2 
 PCOD9298781
Probable space group: C 2/C
;
_chemical_formula_sum "Si O2"
_cell_formula_units_Z 48
_cell_length_a 18.201248
_cell_length_b 7.046401
_cell_length_c 20.978357
_cell_angle_alpha 90.000000
_cell_angle_beta 141.951519
_cell_angle_gamma 90.000000
_cell_volume 1658.257288
_symmetry_space_group_name_H-M "C 2/C"
_symmetry_group_IT_number 15
_symmetry_cell_setting 'monoclinic'
loop_
_space_group_symop_operation_xyz
x,y,z
-x,y,1/2-z
-x,-y,-z
x,-y,1/2+z
1/2+x,1/2+y,z
1/2-x,1/2+y,1/2-z
1/2-x,1/2-y,-z
1/2+x,1/2-y,1/2+z
loop_
_atom_site_type_symbol
_atom_site_label
_atom_site_fract_x
_atom_site_fract_y
_atom_site_fract_z
Si Si1 0.217972 0.880172 0.606132
Si Si2 0.002894 0.902029 0.899058
Si Si3 0.753026 0.030194 0.177905
Si Si4 0.143067 0.208562 0.380335
Si Si5 0.906012 0.355900 0.637409
Si Si6 0.072658 0.467844 0.653275
O O1 0.101706 0.006140 0.512968
O O2 0.204425 0.679263 0.630598
O O3 0.276594 0.819139 0.578037
O O4 0.323307 0.979692 0.720713
O O5 0.868628 0.980166 0.802912
O O6 0.982842 0.676091 0.896795
O O7 0.055863 0.920724 0.862846
O O8 0.801882 0.127916 0.146961
O O9 0.642120 0.117266 0.140504
O O10 0.250000 0.250000 0.500000
O O11 0.089284 0.417710 0.345623
O O12 0.000000 0.263546 0.750000
O O13 0.965576 0.341772 0.608785
#
# Coordination Sequence:
#
# PCOD9298781 Si02
#       6
#     8   8   8   8   8   8
#     4  11  24  47  77 112 151 197 265 314 377 459
#     4  11  25  48  78 104 153 210 252 313 387 466
#     4  12  26  44  70 116 155 191 253 331 385 444
#     4  11  22  44  74 103 142 202 259 302 374 470
#     4   9  19  42  71  96 137 194 248 300 363 453
#     4  10  24  45  74 105 152 202 250 316 386 459
#
# _framework density 28.94605
#
# number of rings (size 3 to 8) (size 9 to 14) (size 15 to 20)
#    0.000    1.333    1.667    4.500    0.000    7.333 
#    9.000    3.333    0.000    0.000    0.000    0.000 
#    0.000    0.000    0.000    0.000    0.000    0.000 
#
# Total GULP energy -134377.345131 kJ/mol
# GULP energy per Si atom -5599.056047 kJ/mol
# Density = 2.888017 g / cm^3
# Si number density = 28.946050 Si / 1000 Ang^3
#
#
#
# Elastic Constant Matrix: (Units=GPa)
#
#
# Indices 1 2 3 4 5 6 
#
# 1 218.9717 30.3287 50.7933 0.0001 52.6927 -0.0010
# 2 30.3287 96.1779 34.5935 0.0001 -2.8830 -0.0002
# 3 50.7933 34.5935 161.9930 0.0000 14.8330 -0.0003
# 4 0.0001 0.0001 0.0000 9.1472 0.0000 220.9647
# 5 52.6927 -2.8830 14.8330 0.0000 24.6959 0.0003
# 6 -0.0010 -0.0002 -0.0003 220.9647 0.0003-1204.1996
#
#
#
# Elastic Compliance Matrix: (Units=1/GPa)
#
#
# Indices 1 2 3 4 5 6 
#
# 1 0.010816 -0.003960 -0.000413 0.000000 -0.023292 0.000000
# 2 -0.003960 0.012915 -0.002569 0.000000 0.011501 0.000000
# 3 -0.000413 -0.002569 0.007194 0.000000 -0.003740 0.000000
# 4 0.000000 0.000000 0.000000 0.020124 0.000000 0.003693
# 5 -0.023292 0.011501 -0.003740 0.000000 0.093779 0.000000
# 6 0.000000 0.000000 0.000000 0.003693 0.000000 -0.000153
#
#
# Mechanical properties :
#
#
# Convention : Reuss Voigt Hill
#
# Bulk Modulus (GPa) = 58.68669 78.73038 68.70853
# Shear Modulus (GPa) = 30.44327 -209.97616 -89.76645
#
# Velocity S-wave (km/s) = 3.24655 -8.52631 -5.57485
# Velocity P-wave (km/s) = 5.86276 8.34701 4.20123
#
# Compressibility (1/GPa) = 0.01703964
#
# Stress axis : x y z
#
# Youngs Moduli (GPa) = 92.45482 77.42837 139.01099
#
# Poissons Ratio (x) = 0.30665 0.05740
# Poissons Ratio (y) = 0.36616 0.35717
# Poissons Ratio (z) = 0.03817 0.19894
#
# Static dielectric constant tensor:
#      x y z
#    x 2.251490 0.000000 -0.077150 
#    y 0.000000 1.843460 0.000000 
#    z -0.077150 0.000000 2.241210 
# 
# From -- ./inp_files/276394.got.cif
#   From: 2010.05.17/outbox.cif.g08.bks.cpg/sg15_139_cif.got.tgz:276394.got - 2010.06.03 18:47:42.
