data_PCOD9298659
_publ_section_title
;
Structure prediction by ZEFSAII (Michael W. Deem and Ramdas Pophale) SiO2 
 PCOD9298659
Probable space group: C 2/C
;
_chemical_formula_sum "Si O2"
_cell_formula_units_Z 48
_cell_length_a 10.337005
_cell_length_b 9.305873
_cell_length_c 22.692869
_cell_angle_alpha 90.000000
_cell_angle_beta 67.495595
_cell_angle_gamma 90.000000
_cell_volume 2016.706824
_symmetry_space_group_name_H-M "C 2/C"
_symmetry_group_IT_number 15
_symmetry_cell_setting 'monoclinic'
loop_
_space_group_symop_operation_xyz
x,y,z
-x,y,1/2-z
-x,-y,-z
x,-y,1/2+z
1/2+x,1/2+y,z
1/2-x,1/2+y,1/2-z
1/2-x,1/2-y,-z
1/2+x,1/2-y,1/2+z
loop_
_atom_site_type_symbol
_atom_site_label
_atom_site_fract_x
_atom_site_fract_y
_atom_site_fract_z
Si Si1 0.661692 0.410974 0.026484
Si Si2 0.393788 0.815099 0.682387
Si Si3 0.483298 0.681666 0.063803
Si Si4 0.348888 0.525906 0.749465
Si Si5 0.964656 0.505874 0.438167
Si Si6 0.697638 0.244340 0.143916
O O1 0.597623 0.562940 0.055635
O O2 0.689514 0.325325 0.081764
O O3 0.554546 0.332889 0.999755
O O4 0.804358 0.442136 0.965920
O O5 0.370445 0.642492 0.692585
O O6 0.551184 0.834350 0.680723
O O7 0.265190 0.899670 0.734586
O O8 0.425674 0.890888 0.614116
O O9 0.525338 0.837990 0.080190
O O10 0.335773 0.649109 0.120442
O O11 0.500000 0.476819 0.750000
O O12 0.290676 0.631709 0.810207
O O13 0.000000 0.500000 0.500000
#
# Coordination Sequence:
#
# PCOD9298659 Si02
#       6
#     8   8   8   8   8   8
#     4  11  23  38  63 102 138 175 215 266 336 409
#     4  11  23  43  70  93 128 177 224 282 332 399
#     4  11  22  37  64 100 137 177 214 267 335 404
#     4  10  24  45  68  90 125 173 231 280 334 389
#     4  12  21  39  70  99 140 176 216 273 342 404
#     4  11  21  42  68  90 132 174 220 275 330 394
#
# _framework density 23.801179000000001
#
# number of rings (size 3 to 8) (size 9 to 14) (size 15 to 20)
#    0.000    1.000    5.000    2.000    0.000    2.667 
#    0.000    4.167    7.333    0.000    0.000    0.000 
#    0.000    0.000    0.000    0.000    0.000    0.000 
#
# Total GULP energy -134006.749480 kJ/mol
# GULP energy per Si atom -5583.614562 kJ/mol
# Density = 2.374701 g / cm^3
# Si number density = 23.801179 Si / 1000 Ang^3
#
#
#
# Elastic Constant Matrix: (Units=GPa)
#
#
# Indices 1 2 3 4 5 6 
#
# 1 78.9237 64.0945 31.3828 0.0000 -31.0400 0.0000
# 2 64.0945 120.8951 46.1661 0.0000 -20.9620 0.0000
# 3 31.3828 46.1661 117.5072 0.0000 -26.1608 0.0000
# 4 0.0000 0.0000 0.0000 36.4191 0.0000 -19.0792
# 5 -31.0400 -20.9620 -26.1608 0.0000 39.2860 0.0000
# 6 0.0000 0.0000 0.0000 -19.0792 0.0000 48.0513
#
#
#
# Elastic Compliance Matrix: (Units=1/GPa)
#
#
# Indices 1 2 3 4 5 6 
#
# 1 0.029683 -0.013172 0.001061 0.000000 0.017131 0.000000
# 2 -0.013172 0.015911 -0.003710 0.000000 -0.004388 0.000000
# 3 0.001061 -0.003710 0.011072 0.000000 0.006232 0.000000
# 4 0.000000 0.000000 0.000000 0.034670 0.000000 0.013766
# 5 0.017131 -0.004388 0.006232 0.000000 0.040798 0.000000
# 6 0.000000 0.000000 0.000000 0.013766 0.000000 0.026277
#
#
# Mechanical properties :
#
#
# Convention : Reuss Voigt Hill
#
# Bulk Modulus (GPa) = 39.96117 66.73476 53.34797
# Shear Modulus (GPa) = 25.20252 36.46345 30.83298
#
# Velocity S-wave (km/s) = 3.25757 3.91833 3.60313
# Velocity P-wave (km/s) = 5.56552 6.96924 6.30656
#
# Compressibility (1/GPa) = 0.02502429
#
# Stress axis : x y z
#
# Youngs Moduli (GPa) = 33.68946 62.85031 90.32080
#
# Poissons Ratio (x) = 0.82785 -0.09587
# Poissons Ratio (y) = 0.44375 0.33510
# Poissons Ratio (z) = -0.03576 0.23318
#
# Static dielectric constant tensor:
#      x y z
#    x 1.970130 0.000000 0.038860 
#    y 0.000000 1.981010 0.000000 
#    z 0.038860 0.000000 2.000050 
# 
# From -- ./inp_files/291061.got.cif
#   From: 2010.05.17/outbox.cif.g08.bks.cpg/sg15_146_cif.got.tgz:291061.got - 2010.06.03 18:47:42.
