data_PCOD9298215
_publ_section_title
;
Structure prediction by ZEFSAII (Michael W. Deem and Ramdas Pophale) SiO2 
 PCOD9298215
Probable space group: C 2/C
;
_chemical_formula_sum "Si O2"
_cell_formula_units_Z 28
_cell_length_a 14.055097
_cell_length_b 5.431624
_cell_length_c 16.277089
_cell_angle_alpha 90.000000
_cell_angle_beta 123.063975
_cell_angle_gamma 90.000000
_cell_volume 1041.397160
_symmetry_space_group_name_H-M "C 2/C"
_symmetry_group_IT_number 15
_symmetry_cell_setting 'monoclinic'
loop_
_space_group_symop_operation_xyz
x,y,z
-x,y,1/2-z
-x,-y,-z
x,-y,1/2+z
1/2+x,1/2+y,z
1/2-x,1/2+y,1/2-z
1/2-x,1/2-y,-z
1/2+x,1/2-y,1/2+z
loop_
_atom_site_type_symbol
_atom_site_label
_atom_site_fract_x
_atom_site_fract_y
_atom_site_fract_z
Si Si1 0.627298 0.036773 0.713625
Si Si2 0.500000 0.425062 0.750000
Si Si3 0.527173 0.749074 0.962387
Si Si4 0.230262 0.790063 0.376688
O O1 0.555547 0.795348 0.653480
O O2 0.692889 0.980247 0.828781
O O3 0.539934 0.250127 0.693813
O O4 0.712083 0.102335 0.680538
O O5 0.384792 0.558973 0.665541
O O6 0.500000 0.500000 0.000000
O O7 0.662142 0.773234 0.012548
O O8 0.500000 0.000000 0.000000
#
# Coordination Sequence:
#
# PCOD9298215 Si02
#       4
#     8   4   8   8
#     4  11  23  45  73 103 150 190 249 304 370 437
#     4  12  26  42  72 112 140 206 238 302 374 438
#     4  10  24  43  77 109 141 197 246 300 371 431
#     4  11  23  45  73 103 150 190 249 304 370 437
#
# _framework density 26.886956000000001
#
# number of rings (size 3 to 8) (size 9 to 14) (size 15 to 20)
#    0.000    1.143    2.857    2.571    8.000    1.143 
#    0.000    5.714    0.000    0.000    0.000    0.000 
#    0.000    0.000    0.000    0.000    0.000    0.000 
#
# Total GULP energy -78379.488113 kJ/mol
# GULP energy per Si atom -5598.534865 kJ/mol
# Density = 2.682576 g / cm^3
# Si number density = 26.886956 Si / 1000 Ang^3
#
#
#
# Elastic Constant Matrix: (Units=GPa)
#
#
# Indices 1 2 3 4 5 6 
#
# 1 195.0654 66.9867 27.0597 0.0000 70.1435 0.0000
# 2 66.9867 132.5968 33.8137 0.0000 19.7381 0.0000
# 3 27.0597 33.8137 167.8563 0.0000 38.8400 0.0000
# 4 0.0000 0.0000 0.0000 42.2359 0.0000 -3.0575
# 5 70.1435 19.7381 38.8400 0.0000 43.1370 0.0000
# 6 0.0000 0.0000 0.0000 -3.0575 0.0000 63.5629
#
#
#
# Elastic Compliance Matrix: (Units=1/GPa)
#
#
# Indices 1 2 3 4 5 6 
#
# 1 0.017083 -0.005513 0.005306 0.000000 -0.030033 0.000000
# 2 -0.005513 0.010001 -0.002705 0.000000 0.006823 0.000000
# 3 0.005306 -0.002705 0.009293 0.000000 -0.015757 0.000000
# 4 0.000000 0.000000 0.000000 0.023759 0.000000 0.001143
# 5 -0.030033 0.006823 -0.015757 0.000000 0.083083 0.000000
# 6 0.000000 0.000000 0.000000 0.001143 0.000000 0.015787
#
#
# Mechanical properties :
#
#
# Convention : Reuss Voigt Hill
#
# Bulk Modulus (GPa) = 32.72902 83.47098 58.10000
# Shear Modulus (GPa) = 28.56907 54.29771 41.43339
#
# Velocity S-wave (km/s) = 3.26323 4.49874 3.92984
# Velocity P-wave (km/s) = 5.13785 7.62217 6.49981
#
# Compressibility (1/GPa) = 0.03055392
#
# Stress axis : x y z
#
# Youngs Moduli (GPa) = 58.53733 99.99371 107.60717
#
# Poissons Ratio (x) = 0.55123 -0.57095
# Poissons Ratio (y) = 0.32269 0.29104
# Poissons Ratio (z) = -0.31059 0.27045
#
# Static dielectric constant tensor:
#      x y z
#    x 2.142830 0.000000 -0.100570 
#    y 0.000000 2.207580 0.000000 
#    z -0.100570 0.000000 2.222540 
# 
# From -- ./inp_files/128007.got.cif
#   From: 2010.05.17/outbox.cif.g08.bks.cpg/sg15_65_cif.got.tgz:128007.got - 2010.06.03 18:47:42.
