data_PCOD9298497
_publ_section_title
;
Structure prediction by ZEFSAII (Michael W. Deem and Ramdas Pophale) SiO2 
 PCOD9298497
Probable space group: C 2/C
;
_chemical_formula_sum "Si O2"
_cell_formula_units_Z 44
_cell_length_a 11.119721
_cell_length_b 11.818649
_cell_length_c 14.257786
_cell_angle_alpha 90.000000
_cell_angle_beta 96.716339
_cell_angle_gamma 90.000000
_cell_volume 1860.900393
_symmetry_space_group_name_H-M "C 2/C"
_symmetry_group_IT_number 15
_symmetry_cell_setting 'monoclinic'
loop_
_space_group_symop_operation_xyz
x,y,z
-x,y,1/2-z
-x,-y,-z
x,-y,1/2+z
1/2+x,1/2+y,z
1/2-x,1/2+y,1/2-z
1/2-x,1/2-y,-z
1/2+x,1/2-y,1/2+z
loop_
_atom_site_type_symbol
_atom_site_label
_atom_site_fract_x
_atom_site_fract_y
_atom_site_fract_z
Si Si1 0.098953 0.568148 0.566217
Si Si2 0.500000 0.005187 0.250000
Si Si3 0.953248 0.828443 0.958885
Si Si4 0.770627 0.342810 0.686864
Si Si5 0.682899 0.410437 0.869360
Si Si6 0.413987 0.633730 0.664498
O O1 0.062490 0.565111 0.672881
O O2 0.083615 0.696962 0.531473
O O3 0.218936 0.488808 0.567234
O O4 0.000000 0.500000 0.500000
O O5 0.609724 0.078626 0.305823
O O6 0.844985 0.880354 0.885437
O O7 0.082389 0.846170 0.920232
O O8 0.962781 0.878536 0.064035
O O9 0.742087 0.333015 0.795267
O O10 0.802457 0.218723 0.651710
O O11 0.620263 0.510153 0.803999
O O12 0.500000 0.686478 0.750000
#
# Coordination Sequence:
#
# PCOD9298497 Si02
#       6
#     8   4   8   8   8   8
#     4  11  26  46  70 108 145 194 249 307 375 448
#     4  10  24  44  72 102 150 188 238 310 372 442
#     4  12  26  47  77 102 148 195 248 307 377 450
#     4  11  23  45  73 102 143 191 239 302 371 445
#     4  11  27  46  73 111 142 193 252 307 373 453
#     4  12  25  47  70 106 146 190 242 310 373 442
#
# _framework density 23.644468
#
# number of rings (size 3 to 8) (size 9 to 14) (size 15 to 20)
#    0.000    0.727    2.727    3.818    7.636    0.727 
#    3.273    0.000    0.000    0.000    0.000    0.000 
#    0.000    0.000    0.000    0.000    0.000    0.000 
#
# Total GULP energy -122930.822713 kJ/mol
# GULP energy per Si atom -5587.764669 kJ/mol
# Density = 2.359065 g / cm^3
# Si number density = 23.644468 Si / 1000 Ang^3
#
#
#
# Elastic Constant Matrix: (Units=GPa)
#
#
# Indices 1 2 3 4 5 6 
#
# 1 135.5168 8.5292 39.4031 0.0000 8.7078 0.0000
# 2 8.5292 57.4670 14.1419 0.0000 0.1832 0.0000
# 3 39.4031 14.1419 83.5004 0.0000 -6.2685 0.0000
# 4 0.0000 0.0000 0.0000 32.1966 0.0000 -3.9504
# 5 8.7078 0.1832 -6.2685 0.0000 53.7622 0.0000
# 6 0.0000 0.0000 0.0000 -3.9504 0.0000 36.1435
#
#
#
# Elastic Compliance Matrix: (Units=1/GPa)
#
#
# Indices 1 2 3 4 5 6 
#
# 1 0.008747 -0.000252 -0.004228 0.000000 -0.001909 0.000000
# 2 -0.000252 0.018175 -0.002987 0.000000 -0.000369 0.000000
# 3 -0.004228 -0.002987 0.014658 0.000000 0.002404 0.000000
# 4 0.000000 0.000000 0.000000 0.031481 0.000000 0.003441
# 5 -0.001909 -0.000369 0.002404 0.000000 0.019191 0.000000
# 6 0.000000 0.000000 0.000000 0.003441 0.000000 0.028044
#
#
# Mechanical properties :
#
#
# Convention : Reuss Voigt Hill
#
# Bulk Modulus (GPa) = 37.52988 44.51474 41.02231
# Shear Modulus (GPa) = 34.69525 38.71447 36.70486
#
# Velocity S-wave (km/s) = 3.83479 4.05082 3.94428
# Velocity P-wave (km/s) = 5.95940 6.38329 6.17499
#
# Compressibility (1/GPa) = 0.02664544
#
# Stress axis : x y z
#
# Youngs Moduli (GPa) = 114.32362 55.02090 68.22344
#
# Poissons Ratio (x) = 0.01384 0.28847
# Poissons Ratio (y) = 0.02876 0.20380
# Poissons Ratio (z) = 0.48340 0.16436
#
# Static dielectric constant tensor:
#      x y z
#    x 2.016910 0.000000 0.047570 
#    y 0.000000 1.879970 0.000000 
#    z 0.047570 0.000000 1.856620 
# 
# From -- ./inp_files/142296.got.cif
#   From: 2010.05.17/outbox.cif.g08.bks.cpg/sg15_72_cif.got.tgz:142296.got - 2010.06.03 18:47:42.
