data_PCOD9298424
_publ_section_title
;
Structure prediction by ZEFSAII (Michael W. Deem and Ramdas Pophale) SiO2 
 PCOD9298424
Probable space group: C 2/C
;
_chemical_formula_sum "Si O2"
_cell_formula_units_Z 40
_cell_length_a 11.280824
_cell_length_b 18.258292
_cell_length_c 18.178699
_cell_angle_alpha 90.000000
_cell_angle_beta 31.330119
_cell_angle_gamma 90.000000
_cell_volume 1946.886177
_symmetry_space_group_name_H-M "C 2/C"
_symmetry_group_IT_number 15
_symmetry_cell_setting 'monoclinic'
loop_
_space_group_symop_operation_xyz
x,y,z
-x,y,1/2-z
-x,-y,-z
x,-y,1/2+z
1/2+x,1/2+y,z
1/2-x,1/2+y,1/2-z
1/2-x,1/2-y,-z
1/2+x,1/2-y,1/2+z
loop_
_atom_site_type_symbol
_atom_site_label
_atom_site_fract_x
_atom_site_fract_y
_atom_site_fract_z
Si Si1 0.230363 0.715702 0.905347
Si Si2 0.965822 0.302153 0.393684
Si Si3 0.606393 0.429430 0.116908
Si Si4 0.790195 0.443242 0.416166
Si Si5 0.596535 0.656733 0.898074
O O1 0.500000 0.728479 0.750000
O O2 0.087552 0.710860 0.906143
O O3 0.223917 0.636971 0.949536
O O4 0.113066 0.787726 0.001085
O O5 0.171354 0.296087 0.225326
O O6 0.750000 0.250000 0.500000
O O7 0.876473 0.383664 0.428551
O O8 0.500000 0.458055 0.250000
O O9 0.408958 0.392171 0.172444
O O10 0.708391 0.488435 0.007050
O O11 0.607633 0.398837 0.461422
O O12 0.000000 0.461847 0.250000
#
# Coordination Sequence:
#
# PCOD9298424 Si02
#       5
#     8   8   8   8   8
#     4  11  23  42  72 102 139 180 236 294 353 418
#     4  11  22  44  69 100 138 182 233 294 351 418
#     4  11  23  44  67 102 143 182 233 292 357 417
#     4  10  24  44  69  99 143 188 233 289 358 426
#     4  11  22  45  69 102 142 183 234 297 354 423
#
# _framework density 20.545629000000002
#
# number of rings (size 3 to 8) (size 9 to 14) (size 15 to 20)
#    0.000    1.200    6.000    1.200    0.000    1.600 
#    3.600    0.000    0.000    0.000    0.000    0.000 
#    0.000    0.000    0.000    0.000    0.000    0.000 
#
# Total GULP energy -111484.413386 kJ/mol
# GULP energy per Si atom -5574.220669 kJ/mol
# Density = 2.049887 g / cm^3
# Si number density = 20.545629 Si / 1000 Ang^3
#
#
#
# Elastic Constant Matrix: (Units=GPa)
#
#
# Indices 1 2 3 4 5 6 
#
# 1 134.9776 43.1011 41.7024 -0.0135 -7.4858 -0.0138
# 2 43.1011 118.0694 92.0045 -0.0362 5.1149 -0.0197
# 3 41.7024 92.0045 105.6137 0.0195 -4.2929 -0.0996
# 4 -0.0135 -0.0362 0.0195 22.8752 -0.0287 21.4749
# 5 -7.4858 5.1149 -4.2929 -0.0287 37.6847 0.0287
# 6 -0.0138 -0.0197 -0.0996 21.4749 0.0287 33.0514
#
#
#
# Elastic Compliance Matrix: (Units=1/GPa)
#
#
# Indices 1 2 3 4 5 6 
#
# 1 0.008638 -0.001962 -0.001628 0.000024 0.001797 -0.000020
# 2 -0.001962 0.028356 -0.024212 0.000265 -0.006996 -0.000223
# 3 -0.001628 -0.024212 0.031470 -0.000327 0.006547 0.000286
# 4 0.000024 0.000265 -0.000327 0.112088 0.000073 -0.072829
# 5 0.001797 -0.006996 0.006547 0.000073 0.028588 -0.000056
# 6 -0.000020 -0.000223 0.000286 -0.072829 -0.000056 0.077577
#
#
# Mechanical properties :
#
#
# Convention : Reuss Voigt Hill
#
# Bulk Modulus (GPa) = 77.76763 79.14184 78.45474
# Shear Modulus (GPa) = 14.42553 30.84574 22.63564
#
# Velocity S-wave (km/s) = 2.65263 3.87890 3.32283
# Velocity P-wave (km/s) = 6.87861 7.65930 7.27943
#
# Compressibility (1/GPa) = 0.01285882
#
# Stress axis : x y z
#
# Youngs Moduli (GPa) = 115.76804 35.26611 31.77646
#
# Poissons Ratio (x) = 0.06920 0.05175
# Poissons Ratio (y) = 0.22716 0.76937
# Poissons Ratio (z) = 0.18852 0.85386
#
# Static dielectric constant tensor:
#      x y z
#    x 1.781970 -0.000040 0.015990 
#    y -0.000040 1.770970 -0.000020 
#    z 0.015990 -0.000020 1.796500 
# 
# From -- ./inp_files/239715.got.cif
#   From: 2010.05.17/outbox.cif.g08.bks.cpg/sg15_120_cif.got.tgz:239715.got - 2010.06.03 18:47:42.
