data_PCOD9298457
_publ_section_title
;
Structure prediction by ZEFSAII (Michael W. Deem and Ramdas Pophale) SiO2 
 PCOD9298457
Probable space group: C 2/C
;
_chemical_formula_sum "Si O2"
_cell_formula_units_Z 48
_cell_length_a 27.930254
_cell_length_b 8.444402
_cell_length_c 16.517840
_cell_angle_alpha 90.000000
_cell_angle_beta 144.559460
_cell_angle_gamma 90.000000
_cell_volume 2259.011937
_symmetry_space_group_name_H-M "C 2/C"
_symmetry_group_IT_number 15
_symmetry_cell_setting 'monoclinic'
loop_
_space_group_symop_operation_xyz
x,y,z
-x,y,1/2-z
-x,-y,-z
x,-y,1/2+z
1/2+x,1/2+y,z
1/2-x,1/2+y,1/2-z
1/2-x,1/2-y,-z
1/2+x,1/2-y,1/2+z
loop_
_atom_site_type_symbol
_atom_site_label
_atom_site_fract_x
_atom_site_fract_y
_atom_site_fract_z
Si Si1 0.880808 0.589258 0.320992
Si Si2 0.691170 0.668939 0.658744
Si Si3 0.916348 0.042431 0.585664
Si Si4 0.239812 0.933459 0.510167
Si Si5 0.550373 0.230573 0.514417
Si Si6 0.802295 0.113509 0.211102
O O1 0.822305 0.691906 0.296724
O O2 0.917511 0.446611 0.424319
O O3 0.952735 0.709301 0.390956
O O4 0.826518 0.524646 0.172338
O O5 0.606771 0.609146 0.501115
O O6 0.751912 0.733873 0.673451
O O7 0.718526 0.521998 0.751540
O O8 0.837631 0.060295 0.535578
O O9 0.926703 0.193280 0.540301
O O10 0.000000 0.021661 0.750000
O O11 0.250000 0.750000 0.500000
O O12 0.221612 0.045956 0.408758
O O13 0.600847 0.341602 0.646782
#
# Coordination Sequence:
#
# PCOD9298457 Si02
#       6
#     8   8   8   8   8   8
#     4  11  23  44  69 102 134 178 225 275 345 409
#     4  11  24  42  70  94 134 177 224 273 344 408
#     4  11  26  44  67  99 136 176 224 278 338 404
#     4  12  25  41  70 101 133 174 229 283 338 402
#     4  10  24  44  70  94 137 180 224 278 341 409
#     4  11  24  43  73  96 135 180 228 284 339 411
#
# _framework density 21.248227
#
# number of rings (size 3 to 8) (size 9 to 14) (size 15 to 20)
#    0.000    1.000    1.667    5.000    4.667    4.000 
#    3.000    0.000    0.000    0.000    0.000    0.000 
#    0.000    0.000    0.000    0.000    0.000    0.000 
#
# Total GULP energy -134134.765625 kJ/mol
# GULP energy per Si atom -5588.948568 kJ/mol
# Density = 2.119987 g / cm^3
# Si number density = 21.248227 Si / 1000 Ang^3
#
#
#
# Elastic Constant Matrix: (Units=GPa)
#
#
# Indices 1 2 3 4 5 6 
#
# 1 110.0720 27.3912 59.9589 0.0000 0.4771 0.0000
# 2 27.3912 39.6456 25.9719 0.0000 -18.4025 0.0000
# 3 59.9589 25.9719 160.8333 0.0000 -5.0742 0.0000
# 4 0.0000 0.0000 0.0000 36.6360 0.0000 -8.1914
# 5 0.4771 -18.4025 -5.0742 0.0000 27.7820 0.0000
# 6 0.0000 0.0000 0.0000 -8.1914 0.0000 28.1596
#
#
#
# Elastic Compliance Matrix: (Units=1/GPa)
#
#
# Indices 1 2 3 4 5 6 
#
# 1 0.013832 -0.010957 -0.003645 0.000000 -0.008161 0.000000
# 2 -0.010957 0.049902 -0.002942 0.000000 0.032706 0.000000
# 3 -0.003645 -0.002942 0.008038 0.000000 -0.000418 0.000000
# 4 0.000000 0.000000 0.000000 0.029194 0.000000 0.008492
# 5 -0.008161 0.032706 -0.000418 0.000000 0.057722 0.000000
# 6 0.000000 0.000000 0.000000 0.008492 0.000000 0.037982
#
#
# Mechanical properties :
#
#
# Convention : Reuss Voigt Hill
#
# Bulk Modulus (GPa) = 27.25899 59.68834 43.47367
# Shear Modulus (GPa) = 20.49284 31.66411 26.07848
#
# Velocity S-wave (km/s) = 3.10893 3.86450 3.50712
# Velocity P-wave (km/s) = 5.07385 6.93285 6.07488
#
# Compressibility (1/GPa) = 0.03668514
#
# Stress axis : x y z
#
# Youngs Moduli (GPa) = 72.29354 20.03925 124.40527
#
# Poissons Ratio (x) = 0.21958 0.45343
# Poissons Ratio (y) = 0.79215 0.36595
# Poissons Ratio (z) = 0.26350 0.05895
#
# Static dielectric constant tensor:
#      x y z
#    x 1.767150 0.000000 0.013760 
#    y 0.000000 1.785600 0.000000 
#    z 0.013760 0.000000 1.800190 
# 
# From -- ./inp_files/176990.got.cif
#   From: 2010.05.17/outbox.cif.g08.bks.cpg/sg15_89_cif.got.tgz:176990.got - 2010.06.03 18:47:42.
