data_PCOD9298549
_publ_section_title
;
Structure prediction by ZEFSAII (Michael W. Deem and Ramdas Pophale) SiO2 
 PCOD9298549
Probable space group: C 2/C
;
_chemical_formula_sum "Si O2"
_cell_formula_units_Z 32
_cell_length_a 5.338360
_cell_length_b 18.608982
_cell_length_c 14.936865
_cell_angle_alpha 90.000000
_cell_angle_beta 97.833830
_cell_angle_gamma 90.000000
_cell_volume 1470.001780
_symmetry_space_group_name_H-M "C 2/C"
_symmetry_group_IT_number 15
_symmetry_cell_setting 'monoclinic'
loop_
_space_group_symop_operation_xyz
x,y,z
-x,y,1/2-z
-x,-y,-z
x,-y,1/2+z
1/2+x,1/2+y,z
1/2-x,1/2+y,1/2-z
1/2-x,1/2-y,-z
1/2+x,1/2-y,1/2+z
loop_
_atom_site_type_symbol
_atom_site_label
_atom_site_fract_x
_atom_site_fract_y
_atom_site_fract_z
Si Si1 0.732360 0.321912 0.699716
Si Si2 0.518391 0.779791 0.047455
Si Si3 0.818916 0.563671 0.519237
Si Si4 0.579392 0.534952 0.151065
O O1 0.500000 0.345824 0.750000
O O2 0.598219 0.256388 0.643378
O O3 0.787451 0.400270 0.658030
O O4 0.000000 0.297124 0.750000
O O5 0.477399 0.864662 0.045350
O O6 0.250000 0.750000 0.000000
O O7 0.750000 0.750000 0.000000
O O8 0.632822 0.570171 0.424819
O O9 0.671402 0.535190 0.600391
O O10 0.000000 0.500000 0.500000
O O11 0.500000 0.515301 0.250000
#
# Coordination Sequence:
#
# PCOD9298549 Si02
#       4
#     8   8   8   8
#     4  11  24  45  72 103 137 189 246 296 366 445
#     4  12  25  46  74 103 145 189 237 306 371 440
#     4  11  25  45  71 110 144 194 251 306 375 455
#     4  10  24  44  74 103 145 197 247 306 376 451
#
# _framework density 21.768681000000001
#
# number of rings (size 3 to 8) (size 9 to 14) (size 15 to 20)
#    0.000    1.000    2.500    3.000   14.000    0.000 
#    4.500    0.000    0.000    0.000    0.000    0.000 
#    0.000    0.000    0.000    0.000    0.000    0.000 
#
# Total GULP energy -89171.235508 kJ/mol
# GULP energy per Si atom -5573.202219 kJ/mol
# Density = 2.171913 g / cm^3
# Si number density = 21.768681 Si / 1000 Ang^3
#
#
#
# Elastic Constant Matrix: (Units=GPa)
#
#
# Indices 1 2 3 4 5 6 
#
# 1 121.6846 45.9217 53.0294 0.0000 19.5962 0.0000
# 2 45.9217 167.4419 56.4072 0.0000 5.6666 0.0000
# 3 53.0294 56.4072 133.5762 0.0000 6.6760 0.0000
# 4 0.0000 0.0000 0.0000 40.2283 0.0000 11.1058
# 5 19.5962 5.6666 6.6760 0.0000 53.3294 0.0000
# 6 0.0000 0.0000 0.0000 11.1058 0.0000 43.2399
#
#
#
# Elastic Compliance Matrix: (Units=1/GPa)
#
#
# Indices 1 2 3 4 5 6 
#
# 1 0.010911 -0.001720 -0.003436 0.000000 -0.003397 0.000000
# 2 -0.001720 0.007241 -0.002383 0.000000 0.000161 0.000000
# 3 -0.003436 -0.002383 0.009842 0.000000 0.000284 0.000000
# 4 0.000000 0.000000 0.000000 0.026755 0.000000 -0.006872
# 5 -0.003397 0.000161 0.000284 0.000000 0.019947 0.000000
# 6 0.000000 0.000000 0.000000 -0.006872 0.000000 0.024892
#
#
# Mechanical properties :
#
#
# Convention : Reuss Voigt Hill
#
# Bulk Modulus (GPa) = 77.41462 81.49106 79.45284
# Shear Modulus (GPa) = 42.02654 45.18249 43.60451
#
# Velocity S-wave (km/s) = 4.39862 4.56079 4.48044
# Velocity P-wave (km/s) = 7.83816 8.07779 7.95888
#
# Compressibility (1/GPa) = 0.01291746
#
# Stress axis : x y z
#
# Youngs Moduli (GPa) = 91.64778 138.09623 101.60073
#
# Poissons Ratio (x) = 0.23755 0.34906
# Poissons Ratio (y) = 0.15765 0.24212
# Poissons Ratio (z) = 0.31487 0.32909
#
# Static dielectric constant tensor:
#      x y z
#    x 0.751590 0.000000 0.793110 
#    y 0.000000 2.555040 0.000000 
#    z 0.793110 0.000000 1.511640 
# 
# From -- ./inp_files/128143.got.cif
#   From: 2010.05.17/outbox.cif.g08.bks.cpg/sg15_65_cif.got.tgz:128143.got - 2010.06.03 18:47:42.
