data_PCOD9298711
_publ_section_title
;
Structure prediction by ZEFSAII (Michael W. Deem and Ramdas Pophale) SiO2 
 PCOD9298711
Probable space group: C 2/C
;
_chemical_formula_sum "Si O2"
_cell_formula_units_Z 32
_cell_length_a 10.983322
_cell_length_b 21.028205
_cell_length_c 7.772929
_cell_angle_alpha 90.000000
_cell_angle_beta 49.449176
_cell_angle_gamma 90.000000
_cell_volume 1364.070489
_symmetry_space_group_name_H-M "C 2/C"
_symmetry_group_IT_number 15
_symmetry_cell_setting 'monoclinic'
loop_
_space_group_symop_operation_xyz
x,y,z
-x,y,1/2-z
-x,-y,-z
x,-y,1/2+z
1/2+x,1/2+y,z
1/2-x,1/2+y,1/2-z
1/2-x,1/2-y,-z
1/2+x,1/2-y,1/2+z
loop_
_atom_site_type_symbol
_atom_site_label
_atom_site_fract_x
_atom_site_fract_y
_atom_site_fract_z
Si Si1 0.637298 0.554279 0.873024
Si Si2 0.753008 0.681290 0.272051
Si Si3 0.500000 0.339638 0.750000
Si Si4 0.318810 0.053251 0.358460
Si Si5 0.000000 0.241243 0.750000
O O1 0.698809 0.567703 0.626024
O O2 0.783521 0.518087 0.831404
O O3 0.500000 0.500000 0.000000
O O4 0.574400 0.614758 0.033992
O O5 0.648205 0.697122 0.200463
O O6 0.784873 0.605803 0.244317
O O7 0.635734 0.699461 0.536971
O O8 0.916127 0.716741 0.176826
O O9 0.500000 0.060720 0.250000
#
# Coordination Sequence:
#
# PCOD9298711 Si02
#       5
#     8   8   4   8   4
#     4  12  22  39  65 100 133 177 215 258 322 406
#     4  11  23  43  67  96 124 176 219 274 330 381
#     4  12  24  39  70 100 132 169 220 266 326 396
#     4  12  23  40  65  96 136 175 215 268 326 392
#     4  10  24  45  70  88 128 171 228 280 326 380
#
# _framework density 23.459198000000001
#
# number of rings (size 3 to 8) (size 9 to 14) (size 15 to 20)
#    0.000    0.500    6.250    2.250    0.000    1.000 
#    0.000    0.000    0.000    0.000    0.000    0.000 
#    0.000    0.000    0.000    0.000    0.000    0.000 
#
# Total GULP energy -89516.860518 kJ/mol
# GULP energy per Si atom -5594.803782 kJ/mol
# Density = 2.340580 g / cm^3
# Si number density = 23.459198 Si / 1000 Ang^3
#
#
#
# Elastic Constant Matrix: (Units=GPa)
#
#
# Indices 1 2 3 4 5 6 
#
# 1 163.7679 29.6374 -5.1935 0.0000 -9.6904 0.0000
# 2 29.6374 62.8740 4.6444 0.0000 -3.2015 0.0000
# 3 -5.1935 4.6444 43.6605 0.0000 -4.5004 0.0000
# 4 0.0000 0.0000 0.0000 15.7788 0.0000 1.5953
# 5 -9.6904 -3.2015 -4.5004 0.0000 37.4840 0.0000
# 6 0.0000 0.0000 0.0000 1.5953 0.0000 26.0397
#
#
#
# Elastic Compliance Matrix: (Units=1/GPa)
#
#
# Indices 1 2 3 4 5 6 
#
# 1 0.006831 -0.003234 0.001327 0.000000 0.001649 0.000000
# 2 -0.003234 0.017614 -0.002217 0.000000 0.000402 0.000000
# 3 0.001327 -0.002217 0.023606 0.000000 0.002988 0.000000
# 4 0.000000 0.000000 0.000000 0.063771 0.000000 -0.003907
# 5 0.001649 0.000402 0.002988 0.000000 0.027497 0.000000
# 6 0.000000 0.000000 0.000000 -0.003907 0.000000 0.038642
#
#
# Mechanical properties :
#
#
# Convention : Reuss Voigt Hill
#
# Bulk Modulus (GPa) = 25.12469 36.49767 30.81118
# Shear Modulus (GPa) = 25.06552 31.94144 28.50348
#
# Velocity S-wave (km/s) = 3.27230 3.69395 3.48950
# Velocity P-wave (km/s) = 5.00104 5.81252 5.42199
#
# Compressibility (1/GPa) = 0.03980148
#
# Stress axis : x y z
#
# Youngs Moduli (GPa) = 146.38882 56.77457 42.36285
#
# Poissons Ratio (x) = 0.18361 -0.05620
# Poissons Ratio (y) = 0.47343 0.09391
# Poissons Ratio (z) = -0.19420 0.12586
#
# Static dielectric constant tensor:
#      x y z
#    x 1.981590 0.000000 0.001950 
#    y 0.000000 1.879640 0.000000 
#    z 0.001950 0.000000 1.847460 
# 
# From -- ./inp_files/23043.got.cif
#   From: 2010.05.17/outbox.cif.g08.bks.cpg/sg15_12_cif.got.tgz:23043.got - 2010.06.03 18:47:42.
