data_PCOD9298527
_publ_section_title
;
Structure prediction by ZEFSAII (Michael W. Deem and Ramdas Pophale) SiO2 
 PCOD9298527
Probable space group: C 2/C
;
_chemical_formula_sum "Si O2"
_cell_formula_units_Z 60
_cell_length_a 17.644297
_cell_length_b 18.575415
_cell_length_c 8.866496
_cell_angle_alpha 90.000000
_cell_angle_beta 82.930549
_cell_angle_gamma 90.000000
_cell_volume 2883.903046
_symmetry_space_group_name_H-M "C 2/C"
_symmetry_group_IT_number 15
_symmetry_cell_setting 'monoclinic'
loop_
_space_group_symop_operation_xyz
x,y,z
-x,y,1/2-z
-x,-y,-z
x,-y,1/2+z
1/2+x,1/2+y,z
1/2-x,1/2+y,1/2-z
1/2-x,1/2-y,-z
1/2+x,1/2-y,1/2+z
loop_
_atom_site_type_symbol
_atom_site_label
_atom_site_fract_x
_atom_site_fract_y
_atom_site_fract_z
Si Si1 0.512260 0.242940 0.925627
Si Si2 0.492266 0.613375 0.573031
Si Si3 0.844958 0.951193 0.981888
Si Si4 0.500000 0.987353 0.750000
Si Si5 0.848296 0.085959 0.138745
Si Si6 0.810544 0.245800 0.118366
Si Si7 0.574803 0.903133 0.998590
Si Si8 0.772591 0.672551 0.925733
O O1 0.500000 0.258583 0.750000
O O2 0.601166 0.243750 0.947665
O O3 0.480293 0.164896 0.966361
O O4 0.469793 0.305524 0.028177
O O5 0.500000 0.609035 0.750000
O O6 0.427954 0.558756 0.534715
O O7 0.571172 0.600846 0.463966
O O8 0.856245 0.948017 0.800995
O O9 0.796035 0.883684 0.049671
O O10 0.808567 0.026327 0.043913
O O11 0.445138 0.939593 0.656446
O O12 0.448037 0.037976 0.869624
O O13 0.807824 0.162573 0.173065
O O14 0.794911 0.304683 0.250635
O O15 0.750000 0.250000 0.000000
O O16 0.657897 0.868435 0.007108
O O17 0.750000 0.750000 0.000000
#
# Coordination Sequence:
#
# PCOD9298527 Si02
#       8
#     8   8   8   4   8   8   8   8
#     4  11  21  43  72  96 135 183 228 285 346 413
#     4  11  24  41  69 101 133 173 231 279 338 417
#     4  12  25  43  68  97 139 177 225 280 353 407
#     4  10  24  44  72  98 138 182 240 296 346 428
#     4  11  25  46  66  98 133 182 221 281 343 422
#     4  11  25  44  69 101 140 179 232 287 354 414
#     4  11  23  46  68 104 135 184 238 288 360 413
#     4  12  25  45  71  99 141 182 230 292 350 424
#
# _framework density 20.805136999999998
#
# number of rings (size 3 to 8) (size 9 to 14) (size 15 to 20)
#    0.000    0.800    3.333    4.000    6.533    2.133 
#    4.800    0.000    0.000    0.000    0.000    0.000 
#    0.000    0.000    0.000    0.000    0.000    0.000 
#
# Total GULP energy -167681.093188 kJ/mol
# GULP energy per Si atom -5589.369773 kJ/mol
# Density = 2.075778 g / cm^3
# Si number density = 20.805137 Si / 1000 Ang^3
#
#
#
# Elastic Constant Matrix: (Units=GPa)
#
#
# Indices 1 2 3 4 5 6 
#
# 1 90.6708 31.6221 24.1172 0.0000 13.5766 0.0000
# 2 31.6221 106.3111 52.3407 0.0000 5.4650 0.0000
# 3 24.1172 52.3407 117.5046 0.0000 14.2123 0.0000
# 4 0.0000 0.0000 0.0000 42.5201 0.0000 -2.9301
# 5 13.5766 5.4650 14.2123 0.0000 29.9107 0.0000
# 6 0.0000 0.0000 0.0000 -2.9301 0.0000 29.4351
#
#
#
# Elastic Compliance Matrix: (Units=1/GPa)
#
#
# Indices 1 2 3 4 5 6 
#
# 1 0.013111 -0.003351 -0.000586 0.000000 -0.005060 0.000000
# 2 -0.003351 0.012909 -0.005264 0.000000 0.001663 0.000000
# 3 -0.000586 -0.005264 0.011487 0.000000 -0.004230 0.000000
# 4 0.000000 0.000000 0.000000 0.023681 0.000000 0.002357
# 5 -0.005060 0.001663 -0.004230 0.000000 0.037436 0.000000
# 6 0.000000 0.000000 0.000000 0.002357 0.000000 0.034208
#
#
# Mechanical properties :
#
#
# Convention : Reuss Voigt Hill
#
# Bulk Modulus (GPa) = 52.34144 58.96073 55.65108
# Shear Modulus (GPa) = 31.72550 34.13363 32.92957
#
# Velocity S-wave (km/s) = 3.90922 4.05487 3.98271
# Velocity P-wave (km/s) = 6.75193 7.09392 6.92503
#
# Compressibility (1/GPa) = 0.01910532
#
# Stress axis : x y z
#
# Youngs Moduli (GPa) = 76.27003 77.46483 87.05602
#
# Poissons Ratio (x) = 0.25960 0.05103
# Poissons Ratio (y) = 0.25560 0.45822
# Poissons Ratio (z) = 0.04471 0.40774
#
# Static dielectric constant tensor:
#      x y z
#    x 1.740730 0.000000 -0.014700 
#    y 0.000000 1.781600 0.000000 
#    z -0.014700 0.000000 1.700420 
# 
# From -- ./inp_files/49077.got.cif
#   From: 2010.05.17/outbox.cif.g08.bks.cpg/sg15_25_cif.got.tgz:49077.got - 2010.06.03 18:47:42.
