data_PCOD9298392
_publ_section_title
;
Structure prediction by ZEFSAII (Michael W. Deem and Ramdas Pophale) SiO2 
 PCOD9298392
Probable space group: C 2/C
;
_chemical_formula_sum "Si O2"
_cell_formula_units_Z 32
_cell_length_a 15.655609
_cell_length_b 4.875489
_cell_length_c 17.127869
_cell_angle_alpha 90.000000
_cell_angle_beta 103.912745
_cell_angle_gamma 90.000000
_cell_volume 1268.995157
_symmetry_space_group_name_H-M "C 2/C"
_symmetry_group_IT_number 15
_symmetry_cell_setting 'monoclinic'
loop_
_space_group_symop_operation_xyz
x,y,z
-x,y,1/2-z
-x,-y,-z
x,-y,1/2+z
1/2+x,1/2+y,z
1/2-x,1/2+y,1/2-z
1/2-x,1/2-y,-z
1/2+x,1/2-y,1/2+z
loop_
_atom_site_type_symbol
_atom_site_label
_atom_site_fract_x
_atom_site_fract_y
_atom_site_fract_z
Si Si1 0.340394 0.905631 0.035494
Si Si2 0.600482 0.611796 0.862875
Si Si3 0.310004 0.482993 0.774970
Si Si4 0.559118 0.672676 0.573839
O O1 0.392556 0.696705 0.103609
O O2 0.330899 0.193807 0.076220
O O3 0.250000 0.750000 0.000000
O O4 0.395563 0.911788 0.966932
O O5 0.625623 0.591010 0.778904
O O6 0.508772 0.741257 0.871902
O O7 0.274514 0.182827 0.746833
O O8 0.361551 0.509235 0.867410
O O9 0.500000 0.500000 0.500000
#
# Coordination Sequence:
#
# PCOD9298392 Si02
#       4
#     8   8   8   8
#     4  11  22  40  65  96 130 170 216 269 327 390
#     4  11  23  41  64  94 130 172 217 269 326 389
#     4  12  26  45  68  98 134 177 224 275 332 396
#     4  10  24  44  69 100 135 175 222 275 333 397
#
# _framework density 25.216805000000001
#
# number of rings (size 3 to 8) (size 9 to 14) (size 15 to 20)
#    0.000    1.000    0.000    6.750    0.000   10.000 
#    0.000    7.500    0.000    0.000    0.000    0.000 
#    0.000    0.000    0.000    0.000    0.000    0.000 
#
# Total GULP energy -89564.989877 kJ/mol
# GULP energy per Si atom -5597.811867 kJ/mol
# Density = 2.515941 g / cm^3
# Si number density = 25.216805 Si / 1000 Ang^3
#
#
#
# Elastic Constant Matrix: (Units=GPa)
#
#
# Indices 1 2 3 4 5 6 
#
# 1 85.6776 -8.7261 30.7982 0.0000 -31.6695 0.0000
# 2 -8.7261 104.8981 18.2442 0.0000 1.1806 0.0000
# 3 30.7982 18.2442 120.9224 0.0000 1.5950 0.0000
# 4 0.0000 0.0000 0.0000 25.0401 0.0000 -1.9988
# 5 -31.6695 1.1806 1.5950 0.0000 59.0759 0.0000
# 6 0.0000 0.0000 0.0000 -1.9988 0.0000 28.2911
#
#
#
# Elastic Compliance Matrix: (Units=1/GPa)
#
#
# Indices 1 2 3 4 5 6 
#
# 1 0.017009 0.002142 -0.004777 0.000000 0.009204 0.000000
# 2 0.002142 0.010061 -0.002077 0.000000 0.001003 0.000000
# 3 -0.004777 -0.002077 0.009836 0.000000 -0.002785 0.000000
# 4 0.000000 0.000000 0.000000 0.040162 0.000000 0.002838
# 5 0.009204 0.001003 -0.002785 0.000000 0.021917 0.000000
# 6 0.000000 0.000000 0.000000 0.002838 0.000000 0.035547
#
#
# Mechanical properties :
#
#
# Convention : Reuss Voigt Hill
#
# Bulk Modulus (GPa) = 36.38484 43.57009 39.97746
# Shear Modulus (GPa) = 32.65466 40.56023 36.60745
#
# Velocity S-wave (km/s) = 3.60245 4.01491 3.81426
# Velocity P-wave (km/s) = 5.63593 6.22964 5.94021
#
# Compressibility (1/GPa) = 0.02748397
#
# Stress axis : x y z
#
# Youngs Moduli (GPa) = 58.79167 99.39208 101.66273
#
# Poissons Ratio (x) = -0.21291 0.48562
# Poissons Ratio (y) = -0.12594 0.21113
# Poissons Ratio (z) = 0.28083 0.20642
#
# Static dielectric constant tensor:
#      x y z
#    x 2.078810 0.000000 0.013430 
#    y 0.000000 1.956160 0.000000 
#    z 0.013430 0.000000 2.006400 
# 
# From -- ./inp_files/201812.got.cif
#   From: 2010.05.17/outbox.cif.g08.bks.cpg/sg15_101_cif.got.tgz:201812.got - 2010.06.03 18:47:42.
