data_PCOD9298402
_publ_section_title
;
Structure prediction by ZEFSAII (Michael W. Deem and Ramdas Pophale) SiO2 
 PCOD9298402
Probable space group: C 2/C
;
_chemical_formula_sum "Si O2"
_cell_formula_units_Z 36
_cell_length_a 13.929144
_cell_length_b 13.810522
_cell_length_c 22.343704
_cell_angle_alpha 90.000000
_cell_angle_beta 21.728918
_cell_angle_gamma 90.000000
_cell_volume 1591.272190
_symmetry_space_group_name_H-M "C 2/C"
_symmetry_group_IT_number 15
_symmetry_cell_setting 'monoclinic'
loop_
_space_group_symop_operation_xyz
x,y,z
-x,y,1/2-z
-x,-y,-z
x,-y,1/2+z
1/2+x,1/2+y,z
1/2-x,1/2+y,1/2-z
1/2-x,1/2-y,-z
1/2+x,1/2-y,1/2+z
loop_
_atom_site_type_symbol
_atom_site_label
_atom_site_fract_x
_atom_site_fract_y
_atom_site_fract_z
Si Si1 0.000000 0.941021 0.250000
Si Si2 0.827204 0.590894 0.988947
Si Si3 0.222908 0.549681 0.666784
Si Si4 0.485239 0.747154 0.690930
Si Si5 0.550261 0.694549 0.041820
O O1 0.916715 0.865390 0.245975
O O2 0.213508 0.011705 0.099005
O O3 0.636563 0.619721 0.043692
O O4 0.090490 0.550784 0.807425
O O5 0.870805 0.695801 0.991669
O O6 0.500000 0.500000 0.500000
O O7 0.292535 0.659483 0.607435
O O8 0.000000 0.514328 0.750000
O O9 0.500000 0.788904 0.750000
O O10 0.750000 0.750000 0.500000
O O11 0.256282 0.802670 0.790448
#
# Coordination Sequence:
#
# PCOD9298402 Si02
#       5
#     4   8   8   8   8
#     4  10  26  46  70 110 146 190 252 308 374 446
#     4  10  24  44  73 105 142 187 249 305 377 438
#     4  10  24  44  69 103 138 193 240 300 367 444
#     4  10  26  47  71 106 146 194 243 306 384 443
#     4  10  24  44  72 100 143 189 243 301 372 443
#
# _framework density 22.623407
#
# number of rings (size 3 to 8) (size 9 to 14) (size 15 to 20)
#    0.667    1.333    0.000    0.000   14.000    5.333 
#    0.000    0.000    0.000    0.000    0.000    0.000 
#    0.000    0.000    0.000    0.000    0.000    0.000 
#
# Total GULP energy -100509.701186 kJ/mol
# GULP energy per Si atom -5583.872288 kJ/mol
# Density = 2.257192 g / cm^3
# Si number density = 22.623407 Si / 1000 Ang^3
#
#
#
# Elastic Constant Matrix: (Units=GPa)
#
#
# Indices 1 2 3 4 5 6 
#
# 1 62.6781 31.7666 67.3417 0.0690 -2.8496 -0.0326
# 2 31.7666 112.2144 70.6559 0.0528 11.5946 -0.0386
# 3 67.3417 70.6559 216.0442 -0.4495 16.5032 0.1732
# 4 0.0690 0.0528 -0.4495 80.6821 0.0517 0.5768
# 5 -2.8496 11.5946 16.5032 0.0517 49.3923 -0.0219
# 6 -0.0326 -0.0386 0.1732 0.5768 -0.0219 25.4772
#
#
#
# Elastic Compliance Matrix: (Units=1/GPa)
#
#
# Indices 1 2 3 4 5 6 
#
# 1 0.025611 -0.003124 -0.007317 -0.000064 0.004656 0.000083
# 2 -0.003124 0.011705 -0.002700 -0.000019 -0.002026 0.000031
# 3 -0.007317 -0.002700 0.007980 0.000055 -0.002455 -0.000071
# 4 -0.000064 -0.000019 0.000055 0.012397 -0.000031 -0.000281
# 5 0.004656 -0.002026 -0.002455 -0.000031 0.021811 0.000039
# 6 0.000083 0.000031 -0.000071 -0.000281 0.000039 0.039258
#
#
# Mechanical properties :
#
#
# Convention : Reuss Voigt Hill
#
# Bulk Modulus (GPa) = 52.59080 81.16278 66.87679
# Shear Modulus (GPa) = 33.02908 45.85516 39.44212
#
# Velocity S-wave (km/s) = 3.82508 4.50698 4.17996
# Velocity P-wave (km/s) = 6.54255 7.93960 7.27469
#
# Compressibility (1/GPa) = 0.01901473
#
# Stress axis : x y z
#
# Youngs Moduli (GPa) = 39.04509 85.43341 125.31149
#
# Poissons Ratio (x) = 0.26689 0.91695
# Poissons Ratio (y) = 0.12197 0.33829
# Poissons Ratio (z) = 0.28571 0.23064
#
# Static dielectric constant tensor:
#      x y z
#    x 1.924450 -0.000010 -0.010540 
#    y -0.000010 1.864770 0.000040 
#    z -0.010540 0.000040 1.791740 
# 
# From -- ./inp_files/274250.got.cif
#   From: 2010.05.17/outbox.cif.g08.bks.cpg/sg15_138_cif.got.tgz:274250.got - 2010.06.03 18:47:42.
