data_PCOD9298689
_publ_section_title
;
Structure prediction by ZEFSAII (Michael W. Deem and Ramdas Pophale) SiO2 
 PCOD9298689
Probable space group: C 2/C
;
_chemical_formula_sum "Si O2"
_cell_formula_units_Z 48
_cell_length_a 19.923742
_cell_length_b 26.510495
_cell_length_c 8.526865
_cell_angle_alpha 90.000000
_cell_angle_beta 148.589734
_cell_angle_gamma 90.000000
_cell_volume 2347.206726
_symmetry_space_group_name_H-M "C 2/C"
_symmetry_group_IT_number 15
_symmetry_cell_setting 'monoclinic'
loop_
_space_group_symop_operation_xyz
x,y,z
-x,y,1/2-z
-x,-y,-z
x,-y,1/2+z
1/2+x,1/2+y,z
1/2-x,1/2+y,1/2-z
1/2-x,1/2-y,-z
1/2+x,1/2-y,1/2+z
loop_
_atom_site_type_symbol
_atom_site_label
_atom_site_fract_x
_atom_site_fract_y
_atom_site_fract_z
Si Si1 0.147827 0.528434 0.597707
Si Si2 0.500000 0.151947 0.750000
Si Si3 0.500000 0.284033 0.250000
Si Si4 0.805459 0.121377 0.784827
Si Si5 0.430824 0.368411 0.872812
Si Si6 0.792777 0.430164 0.945548
Si Si7 0.640087 0.208854 0.307048
O O1 0.237534 0.567728 0.680670
O O2 0.197101 0.471798 0.668804
O O3 0.155863 0.543572 0.794499
O O4 0.000000 0.532079 0.250000
O O5 0.612148 0.116182 0.903013
O O6 0.431265 0.186845 0.485404
O O7 0.575822 0.322738 0.515996
O O8 0.547991 0.243718 0.221424
O O9 0.701059 0.161385 0.518185
O O10 0.859619 0.139224 0.063028
O O11 0.922324 0.120541 0.890743
O O12 0.351453 0.412280 0.801946
O O13 0.750000 0.250000 0.500000
#
# Coordination Sequence:
#
# PCOD9298689 Si02
#       7
#     8   4   4   8   8   8   8
#     4  11  23  41  70 103 133 180 226 279 345 409
#     4  12  28  46  67 108 137 178 238 280 350 410
#     4  12  26  42  69 102 129 178 234 280 348 394
#     4  10  24  45  69  97 145 181 231 278 344 413
#     4  10  24  46  67 100 140 183 226 287 338 414
#     4  11  25  43  70  99 139 177 225 290 342 409
#     4  12  27  44  71 100 135 189 224 294 341 405
#
# _framework density 20.449839000000001
#
# number of rings (size 3 to 8) (size 9 to 14) (size 15 to 20)
#    0.000    1.000    2.500    2.500   10.500    1.333 
#    0.000    1.667    0.000    0.000    0.000    0.000 
#    0.000    0.000    0.000    0.000    0.000    0.000 
#
# Total GULP energy -133954.539109 kJ/mol
# GULP energy per Si atom -5581.439130 kJ/mol
# Density = 2.040329 g / cm^3
# Si number density = 20.449839 Si / 1000 Ang^3
#
#
#
# Elastic Constant Matrix: (Units=GPa)
#
#
# Indices 1 2 3 4 5 6 
#
# 1 69.6199 67.8827 33.7725 0.0000 -30.7761 0.0000
# 2 67.8827 123.7387 67.3364 0.0000 -10.7044 0.0000
# 3 33.7725 67.3364 84.4655 0.0000 -12.3700 0.0000
# 4 0.0000 0.0000 0.0000 29.0677 0.0000 -11.1482
# 5 -30.7761 -10.7044 -12.3700 0.0000 7.2827 0.0000
# 6 0.0000 0.0000 0.0000 -11.1482 0.0000 61.6462
#
#
#
# Elastic Compliance Matrix: (Units=1/GPa)
#
#
# Indices 1 2 3 4 5 6 
#
# 1 -0.011711 0.006193 -0.008212 0.000000 -0.054337 0.000000
# 2 0.006193 0.011025 -0.006735 0.000000 0.030938 0.000000
# 3 -0.008212 -0.006735 0.018582 0.000000 -0.013041 0.000000
# 4 0.000000 0.000000 0.000000 0.036966 0.000000 0.006685
# 5 -0.054337 0.030938 -0.013041 0.000000 -0.068990 0.000000
# 6 0.000000 0.000000 0.000000 0.006685 0.000000 0.017431
#
#
# Mechanical properties :
#
#
# Convention : Reuss Voigt Hill
#
# Bulk Modulus (GPa) = 2577.46891 68.42301 1322.94596
# Shear Modulus (GPa) = 238.76867 26.85482 132.81174
#
# Velocity S-wave (km/s) = 10.81719 3.62775 8.06760
# Velocity P-wave (km/s) = 37.67144 7.14696 27.11288
#
# Compressibility (1/GPa) = 0.00038798
#
# Stress axis : x y z
#
# Youngs Moduli (GPa) = -85.38803 90.69939 53.81569
#
# Poissons Ratio (x) = -0.56171 0.44195
# Poissons Ratio (y) = 0.52882 0.36245
# Poissons Ratio (z) = -0.70123 0.61085
#
# Static dielectric constant tensor:
#      x y z
#    x 1.685390 0.000000 0.020690 
#    y 0.000000 1.752140 0.000000 
#    z 0.020690 0.000000 1.698260 
# 
# From -- ./inp_files/59173.got.cif
#   From: 2010.05.17/outbox.cif.g08.bks.cpg/sg15_30_cif.got.tgz:59173.got - 2010.06.03 18:47:42.
