data_PCOD9298040
_publ_section_title
;
Structure prediction by ZEFSAII (Michael W. Deem and Ramdas Pophale) SiO2 
 PCOD9298040
Probable space group: C 2/C
;
_chemical_formula_sum "Si O2"
_cell_formula_units_Z 48
_cell_length_a 9.583632
_cell_length_b 25.480631
_cell_length_c 12.733427
_cell_angle_alpha 90.000000
_cell_angle_beta 135.126440
_cell_angle_gamma 90.000000
_cell_volume 2193.865992
_symmetry_space_group_name_H-M "C 2/C"
_symmetry_group_IT_number 15
_symmetry_cell_setting 'monoclinic'
loop_
_space_group_symop_operation_xyz
x,y,z
-x,y,1/2-z
-x,-y,-z
x,-y,1/2+z
1/2+x,1/2+y,z
1/2-x,1/2+y,1/2-z
1/2-x,1/2-y,-z
1/2+x,1/2-y,1/2+z
loop_
_atom_site_type_symbol
_atom_site_label
_atom_site_fract_x
_atom_site_fract_y
_atom_site_fract_z
Si Si1 0.500000 0.581039 0.250000
Si Si2 0.500000 0.089379 0.750000
Si Si3 0.607004 0.361226 0.595009
Si Si4 0.759599 0.491219 0.004364
Si Si5 0.000000 0.572163 0.250000
Si Si6 0.000000 0.060463 0.750000
Si Si7 0.219162 0.255752 0.860334
Si Si8 0.766081 0.858197 0.237144
O O1 0.473304 0.614689 0.340186
O O2 0.299840 0.545771 0.126309
O O3 0.316823 0.051338 0.622899
O O4 0.433429 0.125451 0.810583
O O5 0.652526 0.299408 0.628360
O O6 0.445325 0.362684 0.416047
O O7 0.807070 0.393184 0.673063
O O8 0.561977 0.526781 0.886168
O O9 0.933318 0.533370 0.118192
O O10 0.817228 0.097860 0.678616
O O11 0.233230 0.199288 0.812794
O O12 0.000000 0.277633 0.750000
O O13 0.250000 0.250000 0.000000
#
# Coordination Sequence:
#
# PCOD9298040 Si02
#       8
#     4   4   8   8   4   4   8   8
#     4  11  26  45  70 100 154 185 224 293 350 414
#     4  11  26  45  70 100 150 189 224 281 354 428
#     4  12  25  47  70 108 140 181 232 297 351 411
#     4  10  24  43  66 109 139 190 239 280 341 414
#     4  11  24  41  78 102 136 193 244 281 338 414
#     4  11  22  41  78 100 138 189 236 293 338 400
#     4  12  25  46  78 107 132 175 235 297 350 417
#     4  12  25  48  71 104 144 181 231 294 357 406
#
# _framework density 21.879187000000002
#
# number of rings (size 3 to 8) (size 9 to 14) (size 15 to 20)
#    0.000    0.667    6.667    0.000    0.000   11.333 
#    0.000    1.667    0.000    0.000    0.000    0.000 
#    0.000    0.000    0.000    0.000    0.000    0.000 
#
# Total GULP energy -133656.748763 kJ/mol
# GULP energy per Si atom -5569.031198 kJ/mol
# Density = 2.182939 g / cm^3
# Si number density = 21.879187 Si / 1000 Ang^3
#
#
#
# Elastic Constant Matrix: (Units=GPa)
#
#
# Indices 1 2 3 4 5 6 
#
# 1 97.0593 51.7224 16.5386 0.0000 -7.8103 0.0000
# 2 51.7224 152.3066 63.5230 0.0000 -9.3647 0.0000
# 3 16.5386 63.5230 138.5747 0.0000 -10.9231 0.0000
# 4 0.0000 0.0000 0.0000 40.3032 0.0000 95.1938
# 5 -7.8103 -9.3647 -10.9231 0.0000 22.8945 0.0000
# 6 0.0000 0.0000 0.0000 95.1938 0.0000 -139.2706
#
#
#
# Elastic Compliance Matrix: (Units=1/GPa)
#
#
# Indices 1 2 3 4 5 6 
#
# 1 0.012796 -0.004483 0.000756 0.000000 0.002892 0.000000
# 2 -0.004483 0.009745 -0.003885 0.000000 0.000604 0.000000
# 3 0.000756 -0.003885 0.009146 0.000000 0.003032 0.000000
# 4 0.000000 0.000000 0.000000 0.009490 0.000000 0.006487
# 5 0.002892 0.000604 0.003032 0.000000 0.046359 0.000000
# 6 0.000000 0.000000 0.000000 0.006487 0.000000 -0.002746
#
#
# Mechanical properties :
#
#
# Convention : Reuss Voigt Hill
#
# Bulk Modulus (GPa) = 60.74016 72.38986 66.56501
# Shear Modulus (GPa) = 47.39284 1.86252 24.62768
#
# Velocity S-wave (km/s) = 4.65920 0.92365 3.35867
# Velocity P-wave (km/s) = 7.53433 5.85624 6.74765
#
# Compressibility (1/GPa) = 0.01646357
#
# Stress axis : x y z
#
# Youngs Moduli (GPa) = 78.15092 102.61326 109.33838
#
# Poissons Ratio (x) = 0.45999 -0.08263
# Poissons Ratio (y) = 0.35033 0.42475
# Poissons Ratio (z) = -0.05906 0.39862
#
# Static dielectric constant tensor:
#      x y z
#    x 1.783230 0.000000 0.013500 
#    y 0.000000 1.782050 0.000000 
#    z 0.013500 0.000000 1.816870 
# 
# From -- ./inp_files/32205.got.cif
#   From: 2010.05.17/outbox.cif.g08.bks.cpg/sg15_17_cif.got.tgz:32205.got - 2010.06.03 18:47:42.
