data_PCOD9298924
_publ_section_title
;
Structure prediction by ZEFSAII (Michael W. Deem and Ramdas Pophale) SiO2 
 PCOD9298924
Probable space group: C 2/C
;
_chemical_formula_sum "Si O2"
_cell_formula_units_Z 64
_cell_length_a 14.049755
_cell_length_b 15.142304
_cell_length_c 15.347645
_cell_angle_alpha 90.000000
_cell_angle_beta 54.536992
_cell_angle_gamma 90.000000
_cell_volume 2659.428737
_symmetry_space_group_name_H-M "C 2/C"
_symmetry_group_IT_number 15
_symmetry_cell_setting 'monoclinic'
loop_
_space_group_symop_operation_xyz
x,y,z
-x,y,1/2-z
-x,-y,-z
x,-y,1/2+z
1/2+x,1/2+y,z
1/2-x,1/2+y,1/2-z
1/2-x,1/2-y,-z
1/2+x,1/2-y,1/2+z
loop_
_atom_site_type_symbol
_atom_site_label
_atom_site_fract_x
_atom_site_fract_y
_atom_site_fract_z
Si Si1 0.213185 0.378571 0.800529
Si Si2 0.454911 0.368493 0.083054
Si Si3 0.834979 0.954649 0.437801
Si Si4 0.634658 0.240847 0.665494
Si Si5 0.320724 0.374332 0.998371
Si Si6 0.538545 0.173573 0.015961
Si Si7 0.244075 0.589964 0.807464
Si Si8 0.873177 0.392355 0.843128
O O1 0.303957 0.308593 0.797244
O O2 0.241121 0.485032 0.782712
O O3 0.178061 0.350502 0.719147
O O4 0.089889 0.370151 0.917229
O O5 0.540874 0.423774 0.096171
O O6 0.416963 0.411405 0.012815
O O7 0.517246 0.277773 0.023945
O O8 0.333023 0.358140 0.198476
O O9 0.803129 0.900811 0.370507
O O10 0.736586 0.947902 0.564630
O O11 0.819391 0.056417 0.421485
O O12 0.500000 0.224204 0.750000
O O13 0.638950 0.285410 0.567724
O O14 0.705791 0.150651 0.612602
O O15 0.593473 0.159352 0.084683
O O16 0.617656 0.132268 0.896725
O O17 0.000000 0.433175 0.750000
#
# Coordination Sequence:
#
# PCOD9298924 Si02
#       8
#     8   8   8   8   8   8   8   8
#     4  11  21  45  72 103 140 189 239 292 359 425
#     4  12  26  43  71 108 144 191 238 292 362 432
#     4  11  24  42  68  99 147 184 235 299 345 423
#     4  11  26  44  75 103 141 188 237 300 355 422
#     4  11  25  48  64 106 141 184 242 294 353 422
#     4  10  24  46  70 106 148 183 235 303 356 427
#     4  11  25  43  72 104 140 193 236 291 361 424
#     4   9  22  40  69 101 137 185 230 288 352 423
#
# _framework density 24.065318000000001
#
# number of rings (size 3 to 8) (size 9 to 14) (size 15 to 20)
#    0.000    1.250    2.500    1.875    3.500    8.500 
#    0.000    0.000    0.000    0.000    0.000    0.000 
#    0.000    0.000    0.000    0.000    0.000    0.000 
#
# Total GULP energy -178413.993459 kJ/mol
# GULP energy per Si atom -5575.437296 kJ/mol
# Density = 2.401054 g / cm^3
# Si number density = 24.065318 Si / 1000 Ang^3
#
#
#
# Elastic Constant Matrix: (Units=GPa)
#
#
# Indices 1 2 3 4 5 6 
#
# 1 102.9449 9.1113 11.6527 0.0000 -8.2714 0.0000
# 2 9.1113 57.7530 -0.9249 0.0000 -10.9964 0.0000
# 3 11.6527 -0.9249 42.7797 0.0000 -1.5295 0.0000
# 4 0.0000 0.0000 0.0000 1.9656 0.0000 0.7487
# 5 -8.2714 -10.9964 -1.5295 0.0000 26.9291 0.0000
# 6 0.0000 0.0000 0.0000 0.7487 0.0000 29.2539
#
#
#
# Elastic Compliance Matrix: (Units=1/GPa)
#
#
# Indices 1 2 3 4 5 6 
#
# 1 0.010334 -0.001192 -0.002750 0.000000 0.002531 0.000000
# 2 -0.001192 0.018932 0.000999 0.000000 0.007421 0.000000
# 3 -0.002750 0.000999 0.024180 0.000000 0.000937 0.000000
# 4 0.000000 0.000000 0.000000 0.513767 0.000000 -0.013149
# 5 0.002531 0.007421 0.000937 0.000000 0.040996 0.000000
# 6 0.000000 0.000000 0.000000 -0.013149 0.000000 0.034520
#
#
# Mechanical properties :
#
#
# Convention : Reuss Voigt Hill
#
# Bulk Modulus (GPa) = 21.02613 27.01732 24.02172
# Shear Modulus (GPa) = 7.52482 23.87230 15.69856
#
# Velocity S-wave (km/s) = 1.77020 3.15299 2.55685
# Velocity P-wave (km/s) = 3.59642 4.95037 4.32668
#
# Compressibility (1/GPa) = 0.04755987
#
# Stress axis : x y z
#
# Youngs Moduli (GPa) = 96.76655 52.81975 41.35689
#
# Poissons Ratio (x) = 0.06299 0.11374
# Poissons Ratio (y) = 0.11539 -0.04134
# Poissons Ratio (z) = 0.26613 -0.05279
#
# Static dielectric constant tensor:
#      x y z
#    x 1.926470 0.000000 -0.022140 
#    y 0.000000 2.000040 0.000000 
#    z -0.022140 0.000000 1.984160 
# 
# From -- ./inp_files/205707.got.cif
#   From: 2010.05.17/outbox.cif.g08.bks.cpg/sg15_103_cif.got.tgz:205707.got - 2010.06.03 18:47:42.
