data_PCOD9298934
_publ_section_title
;
Structure prediction by ZEFSAII (Michael W. Deem and Ramdas Pophale) SiO2 
 PCOD9298934
Probable space group: C 2/C
;
_chemical_formula_sum "Si O2"
_cell_formula_units_Z 40
_cell_length_a 10.984096
_cell_length_b 18.013188
_cell_length_c 8.483873
_cell_angle_alpha 90.000000
_cell_angle_beta 85.254584
_cell_angle_gamma 90.000000
_cell_volume 1672.853061
_symmetry_space_group_name_H-M "C 2/C"
_symmetry_group_IT_number 15
_symmetry_cell_setting 'monoclinic'
loop_
_space_group_symop_operation_xyz
x,y,z
-x,y,1/2-z
-x,-y,-z
x,-y,1/2+z
1/2+x,1/2+y,z
1/2-x,1/2+y,1/2-z
1/2-x,1/2-y,-z
1/2+x,1/2-y,1/2+z
loop_
_atom_site_type_symbol
_atom_site_label
_atom_site_fract_x
_atom_site_fract_y
_atom_site_fract_z
Si Si1 0.130628 0.859744 0.699418
Si Si2 0.379065 0.350364 0.164106
Si Si3 0.375242 0.792293 0.162228
Si Si4 0.740601 0.498684 0.811773
Si Si5 0.604312 0.058191 0.945570
O O1 0.125310 0.828709 0.521408
O O2 0.144404 0.796512 0.832184
O O3 0.225378 0.925523 0.707627
O O4 0.000000 0.895651 0.750000
O O5 0.500000 0.328898 0.250000
O O6 0.255759 0.318124 0.254841
O O7 0.364648 0.440124 0.169430
O O8 0.500000 0.798044 0.250000
O O9 0.408508 0.853552 0.025515
O O10 0.859279 0.543648 0.738942
O O11 0.772869 0.464988 0.976468
O O12 0.500000 0.000000 0.000000
#
# Coordination Sequence:
#
# PCOD9298934 Si02
#       5
#     8   8   8   8   8
#     4  11  25  43  67  99 140 185 229 289 354 413
#     4  11  24  45  72 101 139 182 236 288 346 417
#     4  10  24  46  70  95 144 180 228 288 349 413
#     4  11  23  40  69  99 137 181 233 288 348 413
#     4  11  22  42  69 100 136 187 236 285 343 421
#
# _framework density 23.911245000000001
#
# number of rings (size 3 to 8) (size 9 to 14) (size 15 to 20)
#    0.000    1.200    2.000    4.200    5.600    2.400 
#    3.600    0.000    0.000    0.000    0.000    0.000 
#    0.000    0.000    0.000    0.000    0.000    0.000 
#
# Total GULP energy -111360.739918 kJ/mol
# GULP energy per Si atom -5568.036996 kJ/mol
# Density = 2.385682 g / cm^3
# Si number density = 23.911245 Si / 1000 Ang^3
#
#
#
# Elastic Constant Matrix: (Units=GPa)
#
#
# Indices 1 2 3 4 5 6 
#
# 1 94.7046 26.0283 -4.8974 0.0000 0.6903 0.0000
# 2 26.0283 135.2240 7.0476 0.0000 5.8334 0.0000
# 3 -4.8974 7.0476 39.1730 0.0000 1.3898 0.0000
# 4 0.0000 0.0000 0.0000 28.1566 0.0000 -2.6351
# 5 0.6903 5.8334 1.3898 0.0000 27.9366 0.0000
# 6 0.0000 0.0000 0.0000 -2.6351 0.0000 15.3899
#
#
#
# Elastic Compliance Matrix: (Units=1/GPa)
#
#
# Indices 1 2 3 4 5 6 
#
# 1 0.011276 -0.002270 0.001814 0.000000 0.000105 0.000000
# 2 -0.002270 0.007985 -0.001666 0.000000 -0.001528 0.000000
# 3 0.001814 -0.001666 0.026090 0.000000 -0.000995 0.000000
# 4 0.000000 0.000000 0.000000 0.036094 0.000000 0.006180
# 5 0.000105 -0.001528 -0.000995 0.000000 0.036161 0.000000
# 6 0.000000 0.000000 0.000000 0.006180 0.000000 0.066036
#
#
# Mechanical properties :
#
#
# Convention : Reuss Voigt Hill
#
# Bulk Modulus (GPa) = 24.32629 36.16209 30.24419
# Shear Modulus (GPa) = 24.80321 30.35816 27.58068
#
# Velocity S-wave (km/s) = 3.22421 3.56704 3.39995
# Velocity P-wave (km/s) = 4.90473 5.66756 5.29989
#
# Compressibility (1/GPa) = 0.04110779
#
# Stress axis : x y z
#
# Youngs Moduli (GPa) = 88.68436 125.23895 38.32938
#
# Poissons Ratio (x) = 0.28423 -0.06954
# Poissons Ratio (y) = 0.20127 0.06386
# Poissons Ratio (z) = -0.16090 0.20865
#
# Static dielectric constant tensor:
#      x y z
#    x 1.877000 0.000000 0.031370 
#    y 0.000000 1.964570 0.000000 
#    z 0.031370 0.000000 2.022750 
# 
# From -- ./inp_files/29070.got.cif
#   From: 2010.05.17/outbox.cif.g08.bks.cpg/sg15_15_cif.got.tgz:29070.got - 2010.06.03 18:47:42.
