data_PCOD9298136
_publ_section_title
;
Structure prediction by ZEFSAII (Michael W. Deem and Ramdas Pophale) SiO2 
 PCOD9298136
Probable space group: C 2/C
;
_chemical_formula_sum "Si O2"
_cell_formula_units_Z 56
_cell_length_a 14.671460
_cell_length_b 18.394876
_cell_length_c 20.397875
_cell_angle_alpha 90.000000
_cell_angle_beta 152.633494
_cell_angle_gamma 90.000000
_cell_volume 2530.529478
_symmetry_space_group_name_H-M "C 2/C"
_symmetry_group_IT_number 15
_symmetry_cell_setting 'monoclinic'
loop_
_space_group_symop_operation_xyz
x,y,z
-x,y,1/2-z
-x,-y,-z
x,-y,1/2+z
1/2+x,1/2+y,z
1/2-x,1/2+y,1/2-z
1/2-x,1/2-y,-z
1/2+x,1/2-y,1/2+z
loop_
_atom_site_type_symbol
_atom_site_label
_atom_site_fract_x
_atom_site_fract_y
_atom_site_fract_z
Si Si1 0.773888 0.209953 0.083737
Si Si2 0.483499 0.409567 0.093457
Si Si3 0.100897 0.586387 0.434639
Si Si4 0.183745 0.936081 0.706056
Si Si5 0.235988 0.946164 0.890098
Si Si6 0.693489 0.687492 0.834179
Si Si7 0.024430 0.806333 0.535730
O O1 0.695830 0.127564 0.031357
O O2 0.000000 0.204818 0.250000
O O3 0.750000 0.250000 0.000000
O O4 0.657919 0.254955 0.064281
O O5 0.257079 0.411773 0.974841
O O6 0.564274 0.488633 0.123751
O O7 0.615611 0.377731 0.237832
O O8 0.502219 0.353161 0.046559
O O9 0.158898 0.514961 0.512654
O O10 0.152472 0.655122 0.514189
O O11 0.867322 0.576807 0.273697
O O12 0.268277 0.936660 0.833570
O O13 0.050170 0.865233 0.609919
O O14 0.000000 0.956611 0.750000
O O15 0.500000 0.713803 0.750000
O O16 0.790429 0.752250 0.855433
#
# Coordination Sequence:
#
# PCOD9298136 Si02
#       7
#     8   8   8   8   8   8   8
#     4  11  27  45  70 106 143 187 238 293 357 421
#     4  11  26  46  67 102 137 176 233 283 350 422
#     4  11  23  43  72  99 128 180 233 292 336 415
#     4  12  25  43  70 100 135 184 233 280 353 420
#     4  11  20  42  71  97 135 179 239 294 335 422
#     4  10  24  43  70 101 134 177 231 284 346 410
#     4  12  28  44  69 100 146 178 222 290 358 415
#
# _framework density 22.129756
#
# number of rings (size 3 to 8) (size 9 to 14) (size 15 to 20)
#    0.000    0.857    2.857    3.857   10.000    1.143 
#    0.000    0.000    0.000    0.000    0.000    0.000 
#    0.000    0.000    0.000    0.000    0.000    0.000 
#
# Total GULP energy -156742.996693 kJ/mol
# GULP energy per Si atom -5597.964168 kJ/mol
# Density = 2.207939 g / cm^3
# Si number density = 22.129756 Si / 1000 Ang^3
#
#
#
# Elastic Constant Matrix: (Units=GPa)
#
#
# Indices 1 2 3 4 5 6 
#
# 1 89.8110 20.5283 6.8378 0.0046 10.0464 -0.0118
# 2 20.5283 103.2861 1.4567 0.0247 12.7770 -0.0039
# 3 6.8378 1.4567 17.4560 0.0255 12.6215 0.0085
# 4 0.0046 0.0247 0.0255 36.2520 0.0055 -14.7790
# 5 10.0464 12.7770 12.6215 0.0055 36.8779 -0.0042
# 6 -0.0118 -0.0039 0.0085 -14.7790 -0.0042 63.7325
#
#
#
# Elastic Compliance Matrix: (Units=1/GPa)
#
#
# Indices 1 2 3 4 5 6 
#
# 1 0.012053 -0.002185 -0.003604 0.000004 -0.001293 0.000003
# 2 -0.002185 0.010578 0.002914 -0.000009 -0.004067 -0.000003
# 3 -0.003604 0.002914 0.077705 -0.000063 -0.026622 -0.000027
# 4 0.000004 -0.000009 -0.000063 0.030465 0.000020 0.007065
# 5 -0.001293 -0.004067 -0.026622 0.000020 0.037989 0.000010
# 6 0.000003 -0.000003 -0.000027 0.007065 0.000010 0.017329
#
#
# Mechanical properties :
#
#
# Convention : Reuss Voigt Hill
#
# Bulk Modulus (GPa) = 10.57244 29.79985 20.18615
# Shear Modulus (GPa) = 22.38163 39.48782 30.93473
#
# Velocity S-wave (km/s) = 3.18367 4.22877 3.74288
# Velocity P-wave (km/s) = 4.27811 6.11053 5.27450
#
# Compressibility (1/GPa) = 0.09458556
#
# Stress axis : x y z
#
# Youngs Moduli (GPa) = 82.96749 94.53502 12.86922
#
# Poissons Ratio (x) = 0.20654 0.04638
# Poissons Ratio (y) = 0.18126 -0.03750
# Poissons Ratio (z) = 0.29902 -0.27545
#
# Static dielectric constant tensor:
#      x y z
#    x 1.813590 0.000000 0.029550 
#    y 0.000000 1.772540 0.000000 
#    z 0.029550 0.000000 1.822460 
# 
# From -- ./inp_files/169183.got.cif
#   From: 2010.05.17/outbox.cif.g08.bks.cpg/sg15_85_cif.got.tgz:169183.got - 2010.06.03 18:47:42.
