data_PCOD9298926
_publ_section_title
;
Structure prediction by ZEFSAII (Michael W. Deem and Ramdas Pophale) SiO2 
 PCOD9298926
Probable space group: C 2/C
;
_chemical_formula_sum "Si O2"
_cell_formula_units_Z 52
_cell_length_a 25.478135
_cell_length_b 4.938004
_cell_length_c 17.058502
_cell_angle_alpha 90.000000
_cell_angle_beta 71.117778
_cell_angle_gamma 90.000000
_cell_volume 2030.656183
_symmetry_space_group_name_H-M "C 2/C"
_symmetry_group_IT_number 15
_symmetry_cell_setting 'monoclinic'
loop_
_space_group_symop_operation_xyz
x,y,z
-x,y,1/2-z
-x,-y,-z
x,-y,1/2+z
1/2+x,1/2+y,z
1/2-x,1/2+y,1/2-z
1/2-x,1/2-y,-z
1/2+x,1/2-y,1/2+z
loop_
_atom_site_type_symbol
_atom_site_label
_atom_site_fract_x
_atom_site_fract_y
_atom_site_fract_z
Si Si1 0.828123 0.278744 0.079591
Si Si2 0.000000 0.715469 0.250000
Si Si3 0.147607 0.773409 0.526756
Si Si4 0.219863 0.399991 0.588279
Si Si5 0.482142 0.113043 0.921423
Si Si6 0.909614 0.836979 0.673878
Si Si7 0.385459 0.197755 0.270387
O O1 0.823265 0.585125 0.052997
O O2 0.769639 0.133926 0.126587
O O3 0.874354 0.292341 0.122058
O O4 0.852365 0.083145 0.999405
O O5 0.995963 0.565182 0.336591
O O6 0.940232 0.852727 0.276658
O O7 0.189930 0.681450 0.576254
O O8 0.082987 0.681285 0.557233
O O9 0.250000 0.250000 0.500000
O O10 0.166944 0.258155 0.651468
O O11 0.526403 0.353955 0.883979
O O12 0.500000 0.000000 0.000000
O O13 0.898927 0.616657 0.748750
O O14 0.881004 0.128245 0.694857
#
# Coordination Sequence:
#
# PCOD9298926 Si02
#       7
#     8   4   8   8   8   8   8
#     4  11  24  42  69 101 141 181 247 297 361 442
#     4  10  24  46  70 108 146 192 236 308 362 444
#     4  11  23  43  70 103 138 187 240 303 357 438
#     4  10  24  47  71 103 138 195 250 304 368 444
#     4  11  23  46  76 107 150 193 248 302 374 445
#     4  11  26  43  68 110 141 195 237 304 379 439
#     4  11  25  46  70 101 150 186 246 301 377 439
#
# _framework density 25.607489000000001
#
# number of rings (size 3 to 8) (size 9 to 14) (size 15 to 20)
#    0.000    1.231    3.077    1.385    2.154   11.692 
#    0.000    0.000    0.000    0.000    0.000    0.000 
#    0.000    0.000    0.000    0.000    0.000    0.000 
#
# Total GULP energy -144772.503589 kJ/mol
# GULP energy per Si atom -5568.173215 kJ/mol
# Density = 2.554920 g / cm^3
# Si number density = 25.607489 Si / 1000 Ang^3
#
#
#
# Elastic Constant Matrix: (Units=GPa)
#
#
# Indices 1 2 3 4 5 6 
#
# 1 132.2573 13.9583 46.4446 0.0000 -50.4820 0.0000
# 2 13.9583 105.4168 40.1630 0.0000 -9.7087 0.0000
# 3 46.4446 40.1630 97.8360 0.0000 -34.4461 0.0000
# 4 0.0000 0.0000 0.0000 23.7445 0.0000 -1.2542
# 5 -50.4820 -9.7087 -34.4461 0.0000 55.7131 0.0000
# 6 0.0000 0.0000 0.0000 -1.2542 0.0000 26.6104
#
#
#
# Elastic Compliance Matrix: (Units=1/GPa)
#
#
# Indices 1 2 3 4 5 6 
#
# 1 0.011983 0.000222 -0.002484 0.000000 0.009361 0.000000
# 2 0.000222 0.011306 -0.005090 0.000000 -0.000976 0.000000
# 3 -0.002484 -0.005090 0.015831 0.000000 0.006651 0.000000
# 4 0.000000 0.000000 0.000000 0.042220 0.000000 0.001990
# 5 0.009361 -0.000976 0.006651 0.000000 0.030373 0.000000
# 6 0.000000 0.000000 0.000000 0.001990 0.000000 0.037673
#
#
# Mechanical properties :
#
#
# Convention : Reuss Voigt Hill
#
# Bulk Modulus (GPa) = 40.95694 59.62689 50.29192
# Shear Modulus (GPa) = 29.03101 36.87654 32.95378
#
# Velocity S-wave (km/s) = 3.37069 3.79894 3.59120
# Velocity P-wave (km/s) = 5.58369 6.52519 6.07271
#
# Compressibility (1/GPa) = 0.02441589
#
# Stress axis : x y z
#
# Youngs Moduli (GPa) = 83.45324 88.44659 63.16537
#
# Poissons Ratio (x) = -0.01961 0.15689
# Poissons Ratio (y) = -0.01851 0.32153
# Poissons Ratio (z) = 0.20728 0.45022
#
# Static dielectric constant tensor:
#      x y z
#    x 2.707570 0.000000 0.636920 
#    y 0.000000 2.158480 0.000000 
#    z 0.636920 0.000000 2.628200 
# 
# From -- ./inp_files/221147.got.cif
#   From: 2010.05.17/outbox.cif.g08.bks.cpg/sg15_111_cif.got.tgz:221147.got - 2010.06.03 18:47:42.
