data_PCOD9298640
_publ_section_title
;
Structure prediction by ZEFSAII (Michael W. Deem and Ramdas Pophale) SiO2 
 PCOD9298640
Probable space group: C 2/C
;
_chemical_formula_sum "Si O2"
_cell_formula_units_Z 48
_cell_length_a 27.834793
_cell_length_b 12.715663
_cell_length_c 8.231596
_cell_angle_alpha 90.000000
_cell_angle_beta 136.964134
_cell_angle_gamma 90.000000
_cell_volume 1988.317496
_symmetry_space_group_name_H-M "C 2/C"
_symmetry_group_IT_number 15
_symmetry_cell_setting 'monoclinic'
loop_
_space_group_symop_operation_xyz
x,y,z
-x,y,1/2-z
-x,-y,-z
x,-y,1/2+z
1/2+x,1/2+y,z
1/2-x,1/2+y,1/2-z
1/2-x,1/2-y,-z
1/2+x,1/2-y,1/2+z
loop_
_atom_site_type_symbol
_atom_site_label
_atom_site_fract_x
_atom_site_fract_y
_atom_site_fract_z
Si Si1 0.929055 0.759905 0.476279
Si Si2 0.422954 0.853061 0.613647
Si Si3 0.289756 0.156143 0.194250
Si Si4 0.129082 0.940972 0.981270
Si Si5 0.077157 0.862295 0.519368
Si Si6 0.782782 0.524815 0.867437
O O1 0.934454 0.713231 0.309497
O O2 0.869097 0.691009 0.410963
O O3 0.897839 0.876593 0.426895
O O4 0.000000 0.751091 0.750000
O O5 0.500000 0.897674 0.750000
O O6 0.402543 0.760222 0.438305
O O7 0.357305 0.930811 0.482082
O O8 0.270319 0.099203 0.311797
O O9 0.250000 0.250000 0.000000
O O10 0.285067 0.057457 0.060988
O O11 0.081524 0.904719 0.713288
O O12 0.122217 0.061191 0.016749
O O13 0.209952 0.918814 0.132678
O O14 0.000000 0.870987 0.250000
#
# Coordination Sequence:
#
# PCOD9298640 Si02
#       6
#     8   8   8   8   8   8
#     4  11  23  42  71  99 141 187 233 294 351 418
#     4  10  24  45  67  98 141 185 240 291 350 418
#     4  11  25  49  70 104 147 184 236 294 352 420
#     4  12  23  38  66 101 137 182 240 286 362 419
#     4  11  23  38  61  94 140 184 233 293 346 423
#     4  11  26  44  72 101 139 186 233 294 353 420
#
# _framework density 24.141013000000001
#
# number of rings (size 3 to 8) (size 9 to 14) (size 15 to 20)
#    0.000    1.000    1.667    5.000    4.667    4.000 
#    0.000    3.333    0.000    0.000    0.000    0.000 
#    0.000    0.000    0.000    0.000    0.000    0.000 
#
# Total GULP energy -134007.818468 kJ/mol
# GULP energy per Si atom -5583.659103 kJ/mol
# Density = 2.408607 g / cm^3
# Si number density = 24.141013 Si / 1000 Ang^3
#
#
#
# Elastic Constant Matrix: (Units=GPa)
#
#
# Indices 1 2 3 4 5 6 
#
# 1 93.9926 22.1739 50.5428 0.0000 28.4660 0.0000
# 2 22.1739 58.4037 43.3447 0.0000 6.2366 0.0000
# 3 50.5428 43.3447 93.0767 0.0000 31.8341 0.0000
# 4 0.0000 0.0000 0.0000 28.2161 0.0000 -6.8286
# 5 28.4660 6.2366 31.8341 0.0000 42.0246 0.0000
# 6 0.0000 0.0000 0.0000 -6.8286 0.0000 33.2882
#
#
#
# Elastic Compliance Matrix: (Units=1/GPa)
#
#
# Indices 1 2 3 4 5 6 
#
# 1 0.016013 -0.000768 -0.006299 0.000000 -0.005961 0.000000
# 2 -0.000768 0.027931 -0.015319 0.000000 0.007980 0.000000
# 3 -0.006299 -0.015319 0.025727 0.000000 -0.012948 0.000000
# 4 0.000000 0.000000 0.000000 0.037292 0.000000 0.007650
# 5 -0.005961 0.007980 -0.012948 0.000000 0.036458 0.000000
# 6 0.000000 0.000000 0.000000 0.007650 0.000000 0.031610
#
#
# Mechanical properties :
#
#
# Convention : Reuss Voigt Hill
#
# Bulk Modulus (GPa) = 40.16369 53.06621 46.61495
# Shear Modulus (GPa) = 21.92002 29.33322 25.62662
#
# Velocity S-wave (km/s) = 3.01657 3.48958 3.26166
# Velocity P-wave (km/s) = 5.36714 6.18593 5.79102
#
# Compressibility (1/GPa) = 0.02489811
#
# Stress axis : x y z
#
# Youngs Moduli (GPa) = 62.45028 35.80246 38.87017
#
# Poissons Ratio (x) = 0.02751 0.24483
# Poissons Ratio (y) = 0.04799 0.59546
# Poissons Ratio (z) = 0.39335 0.54846
#
# Static dielectric constant tensor:
#      x y z
#    x 2.047490 0.000000 -0.028440 
#    y 0.000000 1.995950 0.000000 
#    z -0.028440 0.000000 1.936650 
# 
# From -- ./inp_files/70009.got.cif
#   From: 2010.05.17/outbox.cif.g08.bks.cpg/sg15_36_cif.got.tgz:70009.got - 2010.06.03 18:47:42.
