data_PCOD9298870
_publ_section_title
;
Structure prediction by ZEFSAII (Michael W. Deem and Ramdas Pophale) SiO2 
 PCOD9298870
Probable space group: C 2/C
;
_chemical_formula_sum "Si O2"
_cell_formula_units_Z 44
_cell_length_a 13.381529
_cell_length_b 4.962428
_cell_length_c 27.441354
_cell_angle_alpha 90.000000
_cell_angle_beta 109.872057
_cell_angle_gamma 90.000000
_cell_volume 1713.732609
_symmetry_space_group_name_H-M "C 2/C"
_symmetry_group_IT_number 15
_symmetry_cell_setting 'monoclinic'
loop_
_space_group_symop_operation_xyz
x,y,z
-x,y,1/2-z
-x,-y,-z
x,-y,1/2+z
1/2+x,1/2+y,z
1/2-x,1/2+y,1/2-z
1/2-x,1/2-y,-z
1/2+x,1/2-y,1/2+z
loop_
_atom_site_type_symbol
_atom_site_label
_atom_site_fract_x
_atom_site_fract_y
_atom_site_fract_z
Si Si1 0.670690 0.444457 0.459523
Si Si2 0.500000 0.961019 0.750000
Si Si3 0.268732 0.019951 0.686699
Si Si4 0.680825 0.550809 0.857295
Si Si5 0.537167 0.059873 0.951112
Si Si6 0.038909 0.174883 0.162527
O O1 0.750000 0.250000 0.500000
O O2 0.716623 0.547482 0.416025
O O3 0.626224 0.712618 0.475770
O O4 0.574278 0.229514 0.437188
O O5 0.490435 0.118331 0.799573
O O6 0.374191 0.876275 0.727054
O O7 0.271426 0.847565 0.637650
O O8 0.156000 0.943284 0.690389
O O9 0.282206 0.334855 0.677255
O O10 0.553106 0.541387 0.840519
O O11 0.474082 0.195741 0.893952
O O12 0.500000 0.000000 0.000000
#
# Coordination Sequence:
#
# PCOD9298870 Si02
#       6
#     8   4   8   8   8   8
#     4  11  23  44  71 102 147 193 243 305 369 425
#     4  10  24  46  74 110 142 182 254 308 364 454
#     4  11  25  44  75 102 142 191 236 303 377 434
#     4  10  24  46  68 104 145 185 244 296 357 447
#     4  11  25  46  70 108 149 194 250 303 365 455
#     4  10  25  48  74 104 149 192 243 305 374 434
#
# _framework density 25.674951
#
# number of rings (size 3 to 8) (size 9 to 14) (size 15 to 20)
#    0.000    1.455    0.000    4.364    2.545   13.091 
#    0.000    0.000    0.000    0.000    0.000    0.000 
#    0.000    0.000    0.000    0.000    0.000    0.000 
#
# Total GULP energy -122545.316941 kJ/mol
# GULP energy per Si atom -5570.241679 kJ/mol
# Density = 2.561651 g / cm^3
# Si number density = 25.674951 Si / 1000 Ang^3
#
#
#
# Elastic Constant Matrix: (Units=GPa)
#
#
# Indices 1 2 3 4 5 6 
#
# 1 95.1952 16.4824 52.1341 0.0000 6.8608 0.0000
# 2 16.4824 127.9237 19.7079 -0.0001 -18.1734 0.0000
# 3 52.1341 19.7079 73.7218 0.0000 -11.4224 0.0000
# 4 0.0000 -0.0001 0.0000 5.7849 0.0000 0.5276
# 5 6.8608 -18.1734 -11.4224 0.0000 27.6132 0.0000
# 6 0.0000 0.0000 0.0000 0.5276 0.0000 42.3481
#
#
#
# Elastic Compliance Matrix: (Units=1/GPa)
#
#
# Indices 1 2 3 4 5 6 
#
# 1 0.020587 -0.002041 -0.016042 0.000000 -0.013095 0.000000
# 2 -0.002041 0.008989 0.000038 0.000000 0.006439 0.000000
# 3 -0.016042 0.000038 0.027268 0.000000 0.015291 0.000000
# 4 0.000000 0.000000 0.000000 0.173062 0.000000 -0.002156
# 5 -0.013095 0.006439 0.015291 0.000000 0.050031 0.000000
# 6 0.000000 0.000000 0.000000 -0.002156 0.000000 0.023641
#
#
# Mechanical properties :
#
#
# Convention : Reuss Voigt Hill
#
# Bulk Modulus (GPa) = 48.18339 52.60994 50.39667
# Shear Modulus (GPa) = 14.42642 29.05032 21.73837
#
# Velocity S-wave (km/s) = 2.37299 3.36738 2.91293
# Velocity P-wave (km/s) = 5.12987 5.97111 5.56641
#
# Compressibility (1/GPa) = 0.02075404
#
# Stress axis : x y z
#
# Youngs Moduli (GPa) = 48.57318 111.24637 36.67305
#
# Poissons Ratio (x) = 0.22710 0.58831
# Poissons Ratio (y) = 0.09916 -0.00140
# Poissons Ratio (z) = 0.77922 -0.00426
#
# Static dielectric constant tensor:
#      x y z
#    x 2.313650 0.000000 0.023980 
#    y 0.000000 2.070490 0.000000 
#    z 0.023980 0.000000 2.452160 
# 
# From -- ./inp_files/294304.got.cif
#   From: 2010.05.17/outbox.cif.g08.bks.cpg/sg15_148_cif.got.tgz:294304.got - 2010.06.03 18:47:42.
