data_PCOD9298166
_publ_section_title
;
Structure prediction by ZEFSAII (Michael W. Deem and Ramdas Pophale) SiO2 
 PCOD9298166
Probable space group: C 2/C
;
_chemical_formula_sum "Si O2"
_cell_formula_units_Z 64
_cell_length_a 10.654976
_cell_length_b 27.483855
_cell_length_c 15.381538
_cell_angle_alpha 90.000000
_cell_angle_beta 40.733852
_cell_angle_gamma 90.000000
_cell_volume 2939.281383
_symmetry_space_group_name_H-M "C 2/C"
_symmetry_group_IT_number 15
_symmetry_cell_setting 'monoclinic'
loop_
_space_group_symop_operation_xyz
x,y,z
-x,y,1/2-z
-x,-y,-z
x,-y,1/2+z
1/2+x,1/2+y,z
1/2-x,1/2+y,1/2-z
1/2-x,1/2-y,-z
1/2+x,1/2-y,1/2+z
loop_
_atom_site_type_symbol
_atom_site_label
_atom_site_fract_x
_atom_site_fract_y
_atom_site_fract_z
Si Si1 0.739760 0.160109 0.828395
Si Si2 0.175208 0.790523 0.721305
Si Si3 0.164464 0.148943 0.532938
Si Si4 0.416720 0.261620 0.539888
Si Si5 0.203687 0.906118 0.689670
Si Si6 0.299573 0.563035 0.109947
Si Si7 0.746424 0.543811 0.866280
Si Si8 0.026435 0.587338 0.600972
O O1 0.737572 0.137863 0.926199
O O2 0.718533 0.216186 0.864793
O O3 0.562698 0.140789 0.864978
O O4 0.936249 0.147000 0.676046
O O5 0.372026 0.759066 0.600736
O O6 0.086431 0.788744 0.865348
O O7 0.221987 0.847280 0.679849
O O8 0.000000 0.774997 0.750000
O O9 0.175959 0.202241 0.482582
O O10 0.247055 0.109946 0.422352
O O11 0.221318 0.925821 0.777448
O O12 0.367127 0.927087 0.541843
O O13 0.000000 0.917366 0.750000
O O14 0.210293 0.511539 0.129836
O O15 0.524298 0.553632 0.975660
O O16 0.828776 0.580772 0.894922
O O17 0.848368 0.554092 0.721704
#
# Coordination Sequence:
#
# PCOD9298166 Si02
#       8
#     8   8   8   8   8   8   8   8
#     4  11  24  43  68 101 134 182 236 274 340 409
#     4  11  24  39  63 102 142 180 224 278 340 411
#     4  11  24  44  69  95 139 184 225 287 337 405
#     4  12  22  44  64 101 138 182 231 277 336 407
#     4  11  22  40  68  99 140 177 219 279 345 403
#     4  11  22  46  66  99 132 177 222 273 353 403
#     4  10  24  43  71  96 132 173 224 277 344 410
#     4  11  22  46  66 102 131 175 227 283 333 404
#
# _framework density 21.77403
#
# number of rings (size 3 to 8) (size 9 to 14) (size 15 to 20)
#    0.000    1.000    6.250    0.750    0.000    0.500 
#   11.250    1.250    0.000    0.000    0.000    0.000 
#    0.000    0.000    0.000    0.000    0.000    0.000 
#
# Total GULP energy -178600.078301 kJ/mol
# GULP energy per Si atom -5581.252447 kJ/mol
# Density = 2.172447 g / cm^3
# Si number density = 21.774030 Si / 1000 Ang^3
#
#
#
# Elastic Constant Matrix: (Units=GPa)
#
#
# Indices 1 2 3 4 5 6 
#
# 1 45.2915 17.4707 18.6645 0.0000 10.7930 0.0000
# 2 17.4707 76.5216 16.5440 0.0000 14.7774 0.0000
# 3 18.6645 16.5440 145.1343 0.0000 17.2971 0.0000
# 4 0.0000 0.0000 0.0000 -207.4625 0.0000 11.4839
# 5 10.7930 14.7774 17.2971 0.0000 32.7213 0.0000
# 6 0.0000 0.0000 0.0000 11.4839 0.0000 -14.2316
#
#
#
# Elastic Compliance Matrix: (Units=1/GPa)
#
#
# Indices 1 2 3 4 5 6 
#
# 1 0.025975 -0.004410 -0.002192 0.000000 -0.005417 0.000000
# 2 -0.004410 0.015181 -0.000555 0.000000 -0.005108 0.000000
# 3 -0.002192 -0.000555 0.007598 0.000000 -0.003043 0.000000
# 4 0.000000 0.000000 0.000000 -0.005046 0.000000 -0.004071
# 5 -0.005417 -0.005108 -0.003043 0.000000 0.036263 0.000000
# 6 0.000000 0.000000 0.000000 -0.004071 0.000000 -0.073552
#
#
# Mechanical properties :
#
#
# Convention : Reuss Voigt Hill
#
# Bulk Modulus (GPa) = 29.03570 41.36730 35.20150
# Shear Modulus (GPa) = 155.21120 -23.51000 65.85060
#
# Velocity S-wave (km/s) = 8.45207 -3.28948 5.50530
# Velocity P-wave (km/s) = 10.42180 2.14758 7.52416
#
# Compressibility (1/GPa) = 0.03444036
#
# Stress axis : x y z
#
# Youngs Moduli (GPa) = 38.49913 65.86968 131.61459
#
# Poissons Ratio (x) = 0.29050 0.28850
# Poissons Ratio (y) = 0.16979 0.07299
# Poissons Ratio (z) = 0.08439 0.03653
#
# Static dielectric constant tensor:
#      x y z
#    x 1.818930 0.000000 -0.014080 
#    y 0.000000 1.829350 0.000000 
#    z -0.014080 0.000000 1.803810 
# 
# From -- ./inp_files/149171.got.cif
#   From: 2010.05.17/outbox.cif.g08.bks.cpg/sg15_75_cif.got.tgz:149171.got - 2010.06.03 18:47:42.
