data_PCOD9298275
_publ_section_title
;
Structure prediction by ZEFSAII (Michael W. Deem and Ramdas Pophale) SiO2 
 PCOD9298275
Probable space group: C 2/C
;
_chemical_formula_sum "Si O2"
_cell_formula_units_Z 32
_cell_length_a 9.795925
_cell_length_b 11.018063
_cell_length_c 15.992710
_cell_angle_alpha 90.000000
_cell_angle_beta 42.641529
_cell_angle_gamma 90.000000
_cell_volume 1169.294582
_symmetry_space_group_name_H-M "C 2/C"
_symmetry_group_IT_number 15
_symmetry_cell_setting 'monoclinic'
loop_
_space_group_symop_operation_xyz
x,y,z
-x,y,1/2-z
-x,-y,-z
x,-y,1/2+z
1/2+x,1/2+y,z
1/2-x,1/2+y,1/2-z
1/2-x,1/2-y,-z
1/2+x,1/2-y,1/2+z
loop_
_atom_site_type_symbol
_atom_site_label
_atom_site_fract_x
_atom_site_fract_y
_atom_site_fract_z
Si Si1 0.500000 0.038842 0.250000
Si Si2 0.768227 0.825946 0.078421
Si Si3 0.364439 0.206167 0.531545
Si Si4 0.250254 0.636903 0.281303
Si Si5 0.500000 0.549246 0.750000
O O1 0.651074 0.952330 0.129230
O O2 0.636375 0.122802 0.246297
O O3 0.689022 0.764128 0.202953
O O4 0.750000 0.750000 0.000000
O O5 0.008195 0.818269 0.987468
O O6 0.250000 0.250000 0.500000
O O7 0.554721 0.116327 0.429525
O O8 0.194787 0.131784 0.654781
O O9 0.433999 0.544043 0.207016
#
# Coordination Sequence:
#
# PCOD9298275 Si02
#       5
#     4   8   8   8   4
#     4  12  23  49  76 106 154 198 235 309 374 424
#     4  10  24  46  76 106 145 191 249 301 362 439
#     4  10  24  44  65 107 141 185 241 302 359 439
#     4  10  26  45  71 110 140 190 253 291 365 446
#     4  12  21  45  72  92 146 186 233 311 358 418
#
# _framework density 27.36693
#
# number of rings (size 3 to 8) (size 9 to 14) (size 15 to 20)
#    1.500    0.000    0.000    4.500    3.500    1.000 
#    9.000    2.500    0.000    0.000    0.000    0.000 
#    0.000    0.000    0.000    0.000    0.000    0.000 
#
# Total GULP energy -89276.164378 kJ/mol
# GULP energy per Si atom -5579.760274 kJ/mol
# Density = 2.730464 g / cm^3
# Si number density = 27.366930 Si / 1000 Ang^3
#
#
#
# Elastic Constant Matrix: (Units=GPa)
#
#
# Indices 1 2 3 4 5 6 
#
# 1 222.3903 44.9897 18.1241 0.0000 2.4928 0.0000
# 2 44.9897 94.8405 36.8618 0.0000 -0.2436 0.0000
# 3 18.1241 36.8618 77.4838 0.0000 -27.8222 0.0000
# 4 0.0000 0.0000 0.0000 46.3981 0.0000 -13.4169
# 5 2.4928 -0.2436 -27.8222 0.0000 63.3787 0.0000
# 6 0.0000 0.0000 0.0000 -13.4169 0.0000 44.6145
#
#
#
# Elastic Compliance Matrix: (Units=1/GPa)
#
#
# Indices 1 2 3 4 5 6 
#
# 1 0.004978 -0.002295 -0.000174 0.000000 -0.000281 0.000000
# 2 -0.002295 0.014545 -0.007515 0.000000 -0.003153 0.000000
# 3 -0.000174 -0.007515 0.019604 0.000000 0.008584 0.000000
# 4 0.000000 0.000000 0.000000 0.023605 0.000000 0.007099
# 5 -0.000281 -0.003153 0.008584 0.000000 0.019545 0.000000
# 6 0.000000 0.000000 0.000000 0.007099 0.000000 0.024549
#
#
# Mechanical properties :
#
#
# Convention : Reuss Voigt Hill
#
# Bulk Modulus (GPa) = 52.19047 66.07398 59.13222
# Shear Modulus (GPa) = 37.54301 50.52752 44.03527
#
# Velocity S-wave (km/s) = 3.70785 4.30152 4.01567
# Velocity P-wave (km/s) = 6.11906 6.99049 6.56924
#
# Compressibility (1/GPa) = 0.01916059
#
# Stress axis : x y z
#
# Youngs Moduli (GPa) = 200.87909 68.75042 51.01036
#
# Poissons Ratio (x) = 0.15776 0.00885
# Poissons Ratio (y) = 0.46096 0.38335
# Poissons Ratio (z) = 0.03487 0.51666
#
# Static dielectric constant tensor:
#      x y z
#    x 2.182980 0.000000 0.216480 
#    y 0.000000 2.237190 0.000000 
#    z 0.216480 0.000000 2.591050 
# 
# From -- ./inp_files/187551.got.cif
#   From: 2010.05.17/outbox.cif.g08.bks.cpg/sg15_94_cif.got.tgz:187551.got - 2010.06.03 18:47:42.
