data_PCOD9298537
_publ_section_title
;
Structure prediction by ZEFSAII (Michael W. Deem and Ramdas Pophale) SiO2 
 PCOD9298537
Probable space group: C 2/C
;
_chemical_formula_sum "Si O2"
_cell_formula_units_Z 32
_cell_length_a 24.259140
_cell_length_b 4.893824
_cell_length_c 9.330573
_cell_angle_alpha 90.000000
_cell_angle_beta 76.426612
_cell_angle_gamma 90.000000
_cell_volume 1076.786625
_symmetry_space_group_name_H-M "C 2/C"
_symmetry_group_IT_number 15
_symmetry_cell_setting 'monoclinic'
loop_
_space_group_symop_operation_xyz
x,y,z
-x,y,1/2-z
-x,-y,-z
x,-y,1/2+z
1/2+x,1/2+y,z
1/2-x,1/2+y,1/2-z
1/2-x,1/2-y,-z
1/2+x,1/2-y,1/2+z
loop_
_atom_site_type_symbol
_atom_site_label
_atom_site_fract_x
_atom_site_fract_y
_atom_site_fract_z
Si Si1 0.064331 0.437829 0.907214
Si Si2 0.751638 0.562113 0.839631
Si Si3 0.346805 0.241478 0.447300
Si Si4 0.061382 0.117349 0.170838
O O1 0.064740 0.595290 0.752974
O O2 0.115630 0.593628 0.956657
O O3 0.068158 0.150988 0.995244
O O4 0.000000 0.500000 0.000000
O O5 0.748640 0.878623 0.804212
O O6 0.808586 0.471798 0.883812
O O7 0.696891 0.453226 0.955349
O O8 0.388946 0.409547 0.317253
O O9 0.000000 0.996180 0.250000
#
# Coordination Sequence:
#
# PCOD9298537 Si02
#       4
#     8   8   8   8
#     4  10  24  44  73 110 153 199 253 320 389 478
#     4  11  28  49  76 112 154 204 273 331 392 460
#     4  11  26  44  77 106 153 207 260 325 400 472
#     4  10  24  45  72 113 154 203 255 318 395 479
#
# _framework density 29.718053000000001
#
# number of rings (size 3 to 8) (size 9 to 14) (size 15 to 20)
#    0.000    1.500    0.000    1.500   10.500   11.000 
#    0.000    0.000    0.000    0.000    0.000    0.000 
#    0.000    0.000    0.000    0.000    0.000    0.000 
#
# Total GULP energy -89742.024859 kJ/mol
# GULP energy per Si atom -5608.876554 kJ/mol
# Density = 2.965041 g / cm^3
# Si number density = 29.718053 Si / 1000 Ang^3
#
#
#
# Elastic Constant Matrix: (Units=GPa)
#
#
# Indices 1 2 3 4 5 6 
#
# 1 199.5413 13.9004 49.9160 0.0000 -15.7050 0.0000
# 2 13.9004 98.1108 10.3069 0.0000 -15.1132 0.0000
# 3 49.9160 10.3069 145.9758 0.0000 -8.2029 0.0000
# 4 0.0000 0.0000 0.0000 51.4853 0.0000 -3.7726
# 5 -15.7050 -15.1132 -8.2029 0.0000 58.0115 0.0000
# 6 0.0000 0.0000 0.0000 -3.7726 0.0000 28.9296
#
#
#
# Elastic Compliance Matrix: (Units=1/GPa)
#
#
# Indices 1 2 3 4 5 6 
#
# 1 0.005585 -0.000424 -0.001816 0.000000 0.001145 0.000000
# 2 -0.000424 0.010703 -0.000464 0.000000 0.002608 0.000000
# 3 -0.001816 -0.000464 0.007529 0.000000 0.000452 0.000000
# 4 0.000000 0.000000 0.000000 0.019610 0.000000 0.002557
# 5 0.001145 0.002608 0.000452 0.000000 0.018291 0.000000
# 6 0.000000 0.000000 0.000000 0.002557 0.000000 0.034900
#
#
# Mechanical properties :
#
#
# Convention : Reuss Voigt Hill
#
# Bulk Modulus (GPa) = 54.31814 65.76382 60.04098
# Shear Modulus (GPa) = 46.22596 52.31893 49.27244
#
# Velocity S-wave (km/s) = 3.94824 4.20040 4.07627
# Velocity P-wave (km/s) = 6.25318 6.76030 6.51168
#
# Compressibility (1/GPa) = 0.01841006
#
# Stress axis : x y z
#
# Youngs Moduli (GPa) = 179.04041 93.43048 132.81145
#
# Poissons Ratio (x) = 0.03964 0.24113
# Poissons Ratio (y) = 0.07596 0.06164
# Poissons Ratio (z) = 0.32507 0.04336
#
# Static dielectric constant tensor:
#      x y z
#    x 2.333950 0.000000 0.400560 
#    y 0.000000 2.300960 0.000000 
#    z 0.400560 0.000000 3.764130 
# 
# From -- ./inp_files/115381.got.cif
#   From: 2010.05.17/outbox.cif.g08.bks.cpg/sg15_58_cif.got.tgz:115381.got - 2010.06.03 18:47:42.
