data_PCOD9298840
_publ_section_title
;
Structure prediction by ZEFSAII (Michael W. Deem and Ramdas Pophale) SiO2 
 PCOD9298840
Probable space group: C 2/C
;
_chemical_formula_sum "Si O2"
_cell_formula_units_Z 44
_cell_length_a 7.790716
_cell_length_b 17.627844
_cell_length_c 21.866718
_cell_angle_alpha 90.000000
_cell_angle_beta 135.728815
_cell_angle_gamma 90.000000
_cell_volume 2096.283335
_symmetry_space_group_name_H-M "C 2/C"
_symmetry_group_IT_number 15
_symmetry_cell_setting 'monoclinic'
loop_
_space_group_symop_operation_xyz
x,y,z
-x,y,1/2-z
-x,-y,-z
x,-y,1/2+z
1/2+x,1/2+y,z
1/2-x,1/2+y,1/2-z
1/2-x,1/2-y,-z
1/2+x,1/2-y,1/2+z
loop_
_atom_site_type_symbol
_atom_site_label
_atom_site_fract_x
_atom_site_fract_y
_atom_site_fract_z
Si Si1 0.500000 0.495874 0.750000
Si Si2 0.377131 0.607725 0.882138
Si Si3 0.818917 0.837525 0.505490
Si Si4 0.000000 0.524475 0.250000
Si Si5 0.856345 0.435033 0.425654
Si Si6 0.000000 0.734900 0.750000
Si Si7 0.874053 0.128385 0.304531
O O1 0.268667 0.547819 0.673308
O O2 0.463717 0.436826 0.685256
O O3 0.385708 0.631628 0.955286
O O4 0.212053 0.531708 0.828898
O O5 0.633593 0.594496 0.912242
O O6 0.228692 0.678929 0.816752
O O7 0.750000 0.750000 0.500000
O O8 0.572202 0.877372 0.465773
O O9 0.046894 0.860459 0.606277
O O10 0.884320 0.584556 0.268250
O O11 0.000000 0.500000 0.500000
O O12 0.925517 0.792692 0.784813
#
# Coordination Sequence:
#
# PCOD9298840 Si02
#       7
#     4   8   8   4   8   4   8
#     4  11  22  45  69 102 139 182 234 293 350 413
#     4  11  25  47  71 103 143 186 236 297 356 426
#     4  12  26  46  67 106 147 182 237 293 357 430
#     4  11  22  43  71 107 126 184 244 291 348 417
#     4  12  26  46  74 104 140 188 238 297 358 419
#     4  10  24  46  66 101 145 188 236 282 368 438
#     4  11  23  43  71 100 143 184 233 299 352 423
#
# _framework density 20.989529999999998
#
# number of rings (size 3 to 8) (size 9 to 14) (size 15 to 20)
#    0.000    0.727    5.455    1.091    2.545    6.545 
#    0.000    0.000    0.000    0.000    0.000    0.000 
#    0.000    0.000    0.000    0.000    0.000    0.000 
#
# Total GULP energy -122523.364522 kJ/mol
# GULP energy per Si atom -5569.243842 kJ/mol
# Density = 2.094176 g / cm^3
# Si number density = 20.989530 Si / 1000 Ang^3
#
#
#
# Elastic Constant Matrix: (Units=GPa)
#
#
# Indices 1 2 3 4 5 6 
#
# 1 110.9184 49.8134 44.6257 0.0001 7.4923 0.0001
# 2 49.8134 140.1673 56.4584 0.0001 13.9506 0.0000
# 3 44.6257 56.4584 113.4213 0.0002 -4.6864 0.0002
# 4 0.0001 0.0001 0.0002 1.1555 0.0001 2.9207
# 5 7.4923 13.9506 -4.6864 0.0001 27.9861 0.0001
# 6 0.0001 0.0000 0.0002 2.9207 0.0001 39.1047
#
#
#
# Elastic Compliance Matrix: (Units=1/GPa)
#
#
# Indices 1 2 3 4 5 6 
#
# 1 0.011703 -0.002526 -0.003448 0.000000 -0.002451 0.000000
# 2 -0.002526 0.010299 -0.004347 0.000001 -0.005186 0.000000
# 3 -0.003448 -0.004347 0.012552 -0.000002 0.005192 0.000000
# 4 0.000000 0.000001 -0.000002 1.066783 -0.000004 -0.079676
# 5 -0.002451 -0.005186 0.005192 -0.000004 0.039843 0.000000
# 6 0.000000 0.000000 0.000000 -0.079676 0.000000 0.031523
#
#
# Mechanical properties :
#
#
# Convention : Reuss Voigt Hill
#
# Bulk Modulus (GPa) = 71.88595 74.03354 72.95974
# Shear Modulus (GPa) = 4.17368 27.88992 16.03180
#
# Velocity S-wave (km/s) = 1.41166 3.64916 2.76669
# Velocity P-wave (km/s) = 6.08111 7.28721 6.71131
#
# Compressibility (1/GPa) = 0.01391092
#
# Stress axis : x y z
#
# Youngs Moduli (GPa) = 85.44744 97.09547 79.66966
#
# Poissons Ratio (x) = 0.24528 0.27474
# Poissons Ratio (y) = 0.21585 0.34633
# Poissons Ratio (z) = 0.29466 0.42208
#
# Static dielectric constant tensor:
#      x y z
#    x 1.938560 0.000000 0.048020 
#    y 0.000000 1.753420 0.000000 
#    z 0.048020 0.000000 0.985760 
# 
# From -- ./inp_files/265655.got.cif
#   From: 2010.05.17/outbox.cif.g08.bks.cpg/sg15_133_cif.got.tgz:265655.got - 2010.06.03 18:47:42.
