data_PCOD9298256
_publ_section_title
;
Structure prediction by ZEFSAII (Michael W. Deem and Ramdas Pophale) SiO2 
 PCOD9298256
Probable space group: C 2/C
;
_chemical_formula_sum "Si O2"
_cell_formula_units_Z 48
_cell_length_a 9.192733
_cell_length_b 18.592709
_cell_length_c 28.777342
_cell_angle_alpha 90.000000
_cell_angle_beta 30.926693
_cell_angle_gamma 90.000000
_cell_volume 2527.849544
_symmetry_space_group_name_H-M "C 2/C"
_symmetry_group_IT_number 15
_symmetry_cell_setting 'monoclinic'
loop_
_space_group_symop_operation_xyz
x,y,z
-x,y,1/2-z
-x,-y,-z
x,-y,1/2+z
1/2+x,1/2+y,z
1/2-x,1/2+y,1/2-z
1/2-x,1/2-y,-z
1/2+x,1/2-y,1/2+z
loop_
_atom_site_type_symbol
_atom_site_label
_atom_site_fract_x
_atom_site_fract_y
_atom_site_fract_z
Si Si1 0.194524 0.922601 0.309847
Si Si2 0.180233 0.910718 0.818485
Si Si3 0.317475 0.288122 0.753273
Si Si4 0.807909 0.207277 0.936873
Si Si5 0.704234 0.164373 0.808799
Si Si6 0.673004 0.171277 0.503259
O O1 0.500000 0.917196 0.250000
O O2 0.223858 0.895651 0.248893
O O3 0.991221 0.865802 0.391403
O O4 0.105594 0.005385 0.334837
O O5 0.500000 0.904618 0.750000
O O6 0.173458 0.865998 0.772393
O O7 0.950426 0.873182 0.914565
O O8 0.500000 0.283851 0.750000
O O9 0.424402 0.230538 0.685545
O O10 0.003052 0.260121 0.852060
O O11 0.528907 0.182822 0.985870
O O12 0.750000 0.250000 0.000000
O O13 0.507257 0.138596 0.904642
O O14 0.000000 0.190270 0.750000
O O15 0.750000 0.250000 0.500000
#
# Coordination Sequence:
#
# PCOD9298256 Si02
#       6
#     8   8   8   8   8   8
#     4  10  24  44  64  87 135 172 204 263 320 374
#     4  11  24  45  61  91 130 169 216 262 317 376
#     4  11  21  39  64  91 130 166 210 266 317 373
#     4  11  23  40  63  97 125 162 213 263 314 376
#     4  11  20  41  64  94 125 167 211 261 316 374
#     4  12  23  37  70  95 121 167 212 264 315 377
#
# _framework density 18.988472000000002
#
# number of rings (size 3 to 8) (size 9 to 14) (size 15 to 20)
#    0.000    1.000    5.000    4.500    2.333    1.333 
#    3.000    1.667    0.000    0.000    0.000    0.000 
#    0.000    0.000    0.000    0.000    0.000    0.000 
#
# Total GULP energy -134051.659351 kJ/mol
# GULP energy per Si atom -5585.485806 kJ/mol
# Density = 1.894525 g / cm^3
# Si number density = 18.988472 Si / 1000 Ang^3
#
#
#
# Elastic Constant Matrix: (Units=GPa)
#
#
# Indices 1 2 3 4 5 6 
#
# 1 113.3898 53.8273 39.9954 0.0560 10.1564 0.0113
# 2 53.8273 165.1359 65.1258 -0.0206 5.8670 0.0018
# 3 39.9954 65.1258 123.3161 0.2009 16.1510 -0.0137
# 4 0.0560 -0.0206 0.2009 28.4980 -0.0866 -1.0083
# 5 10.1564 5.8670 16.1510 -0.0866 32.5582 -0.0352
# 6 0.0113 0.0018 -0.0137 -1.0083 -0.0352 25.3611
#
#
#
# Elastic Compliance Matrix: (Units=1/GPa)
#
#
# Indices 1 2 3 4 5 6 
#
# 1 0.010964 -0.002784 -0.001822 -0.000017 -0.002015 -0.000009
# 2 -0.002784 0.008369 -0.003672 0.000041 0.001182 0.000002
# 3 -0.001822 -0.003672 0.011207 -0.000091 -0.004329 -0.000003
# 4 -0.000017 0.000041 -0.000091 0.035141 0.000138 0.001397
# 5 -0.002015 0.001182 -0.004329 0.000138 0.033278 0.000050
# 6 -0.000009 0.000002 -0.000003 0.001397 0.000050 0.039486
#
#
# Mechanical properties :
#
#
# Convention : Reuss Voigt Hill
#
# Bulk Modulus (GPa) = 71.50806 79.97096 75.73951
# Shear Modulus (GPa) = 31.31651 33.47636 32.39644
#
# Velocity S-wave (km/s) = 4.06549 4.20334 4.13499
# Velocity P-wave (km/s) = 7.73162 8.10953 7.92283
#
# Compressibility (1/GPa) = 0.01398444
#
# Stress axis : x y z
#
# Youngs Moduli (GPa) = 91.21068 119.48724 89.23354
#
# Poissons Ratio (x) = 0.33260 0.16257
# Poissons Ratio (y) = 0.25389 0.32766
# Poissons Ratio (z) = 0.16618 0.43875
#
# Static dielectric constant tensor:
#      x y z
#    x 1.664780 0.000020 -0.001630 
#    y 0.000020 1.644130 -0.000090 
#    z -0.001630 -0.000090 1.707350 
# 
# From -- ./inp_files/308693.got.cif
#   From: 2010.05.17/outbox.cif.g08.bks.cpg/sg15_155_cif.got.tgz:308693.got - 2010.06.03 18:47:42.
