data_PCOD9298635
_publ_section_title
;
Structure prediction by ZEFSAII (Michael W. Deem and Ramdas Pophale) SiO2 
 PCOD9298635
Probable space group: C 2/C
;
_chemical_formula_sum "Si O2"
_cell_formula_units_Z 60
_cell_length_a 20.876117
_cell_length_b 23.121525
_cell_length_c 9.302844
_cell_angle_alpha 90.000000
_cell_angle_beta 139.292752
_cell_angle_gamma 90.000000
_cell_volume 2928.592439
_symmetry_space_group_name_H-M "C 2/C"
_symmetry_group_IT_number 15
_symmetry_cell_setting 'monoclinic'
loop_
_space_group_symop_operation_xyz
x,y,z
-x,y,1/2-z
-x,-y,-z
x,-y,1/2+z
1/2+x,1/2+y,z
1/2-x,1/2+y,1/2-z
1/2-x,1/2-y,-z
1/2+x,1/2-y,1/2+z
loop_
_atom_site_type_symbol
_atom_site_label
_atom_site_fract_x
_atom_site_fract_y
_atom_site_fract_z
Si Si1 0.109052 0.249666 0.464083
Si Si2 0.868377 0.543100 0.281878
Si Si3 0.000000 0.497712 0.750000
Si Si4 0.914557 0.150221 0.849948
Si Si5 0.644591 0.663896 0.284482
Si Si6 0.098013 0.019504 0.586548
Si Si7 0.250355 0.841445 0.662750
Si Si8 0.800324 0.045100 0.016770
O O1 0.099317 0.190999 0.537637
O O2 0.147105 0.224987 0.374327
O O3 0.170046 0.291092 0.673553
O O4 0.000000 0.274216 0.250000
O O5 0.945568 0.538169 0.542234
O O6 0.803020 0.600470 0.193660
O O7 0.801859 0.485358 0.191217
O O8 0.924453 0.538774 0.223227
O O9 0.884794 0.084752 0.833771
O O10 0.843294 0.170574 0.600078
O O11 0.033236 0.151455 0.039323
O O12 0.709265 0.655963 0.253942
O O13 0.684557 0.613279 0.456895
O O14 0.115894 0.019800 0.447371
O O15 0.000000 0.000000 0.500000
O O16 0.178577 0.976839 0.787435
#
# Coordination Sequence:
#
# PCOD9298635 Si02
#       8
#     8   8   4   8   8   8   8   8
#     4  10  24  45  67  88 129 178 230 274 317 374
#     4  11  24  41  67  93 128 169 220 280 328 392
#     4  10  24  46  62  88 130 170 218 280 346 368
#     4  11  23  41  63  95 138 173 205 270 327 393
#     4  11  23  41  67  97 135 174 212 264 334 398
#     4  12  23  34  61  95 137 170 202 242 321 399
#     4  12  24  41  68  98 129 171 230 268 324 386
#     4  12  23  39  61 100 131 168 209 260 326 405
#
# _framework density 20.487659000000001
#
# number of rings (size 3 to 8) (size 9 to 14) (size 15 to 20)
#    0.000    0.800    4.000    4.000    0.933    1.067 
#    0.000    0.000   11.733    0.000    0.000    0.000 
#    0.000    0.000    0.000    0.000    0.000    0.000 
#
# Total GULP energy -167176.344803 kJ/mol
# GULP energy per Si atom -5572.544827 kJ/mol
# Density = 2.044103 g / cm^3
# Si number density = 20.487659 Si / 1000 Ang^3
#
#
#
# Elastic Constant Matrix: (Units=GPa)
#
#
# Indices 1 2 3 4 5 6 
#
# 1 124.4756 12.3622 7.4481 0.0000 -4.9992 0.0000
# 2 12.3622 57.1730 23.2319 0.0000 16.3620 0.0000
# 3 7.4481 23.2319 56.6476 0.0000 1.4462 0.0000
# 4 0.0000 0.0000 0.0000 17.2825 0.0000 -26.8138
# 5 -4.9992 16.3620 1.4462 0.0000 32.0395 0.0000
# 6 0.0000 0.0000 0.0000 -26.8138 0.0000 -18.2565
#
#
#
# Elastic Compliance Matrix: (Units=1/GPa)
#
#
# Indices 1 2 3 4 5 6 
#
# 1 0.008395 -0.002498 -0.000146 0.000000 0.002592 0.000000
# 2 -0.002498 0.025821 -0.009926 0.000000 -0.013128 0.000000
# 3 -0.000146 -0.009926 0.021639 0.000000 0.004070 0.000000
# 4 0.000000 0.000000 0.000000 0.017648 0.000000 -0.025920
# 5 0.002592 -0.013128 0.004070 0.000000 0.038137 0.000000
# 6 0.000000 0.000000 0.000000 -0.025920 0.000000 -0.016706
#
#
# Mechanical properties :
#
#
# Convention : Reuss Voigt Hill
#
# Bulk Modulus (GPa) = 32.55612 36.04229 34.29920
# Shear Modulus (GPa) = 38.36983 19.23003 28.79993
#
# Velocity S-wave (km/s) = 4.33231 3.06701 3.75336
# Velocity P-wave (km/s) = 6.39924 5.49294 5.96334
#
# Compressibility (1/GPa) = 0.03071619
#
# Stress axis : x y z
#
# Youngs Moduli (GPa) = 119.12455 38.72759 46.21270
#
# Poissons Ratio (x) = 0.09673 0.00673
# Poissons Ratio (y) = 0.29755 0.45871
# Poissons Ratio (z) = 0.01734 0.38441
#
# Static dielectric constant tensor:
#      x y z
#    x 1.772730 0.000000 0.046050 
#    y 0.000000 1.751800 0.000000 
#    z 0.046050 0.000000 1.767490 
# 
# From -- ./inp_files/58776.got.cif
#   From: 2010.05.17/outbox.cif.g08.bks.cpg/sg15_30_cif.got.tgz:58776.got - 2010.06.03 18:47:42.
