data_PCOD9298087
_publ_section_title
;
Structure prediction by ZEFSAII (Michael W. Deem and Ramdas Pophale) SiO2 
 PCOD9298087
Probable space group: C 2/C
;
_chemical_formula_sum "Si O2"
_cell_formula_units_Z 56
_cell_length_a 11.201703
_cell_length_b 9.526898
_cell_length_c 25.753368
_cell_angle_alpha 90.000000
_cell_angle_beta 118.689864
_cell_angle_gamma 90.000000
_cell_volume 2410.924583
_symmetry_space_group_name_H-M "C 2/C"
_symmetry_group_IT_number 15
_symmetry_cell_setting 'monoclinic'
loop_
_space_group_symop_operation_xyz
x,y,z
-x,y,1/2-z
-x,-y,-z
x,-y,1/2+z
1/2+x,1/2+y,z
1/2-x,1/2+y,1/2-z
1/2-x,1/2-y,-z
1/2+x,1/2-y,1/2+z
loop_
_atom_site_type_symbol
_atom_site_label
_atom_site_fract_x
_atom_site_fract_y
_atom_site_fract_z
Si Si1 0.128408 0.749725 0.740352
Si Si2 0.000000 0.730176 0.250000
Si Si3 0.841308 0.953849 0.285130
Si Si4 0.481413 0.152122 0.605205
Si Si5 0.975754 0.059120 0.414151
Si Si6 0.664011 0.099497 0.374800
Si Si7 0.500000 0.000000 0.000000
Si Si8 0.909769 0.234167 0.543420
O O1 0.219139 0.630654 0.785499
O O2 0.085052 0.690912 0.674130
O O3 0.000000 0.775019 0.750000
O O4 0.200909 0.900826 0.750680
O O5 0.903111 0.838310 0.260177
O O6 0.908057 0.633391 0.194306
O O7 0.947831 0.002448 0.350236
O O8 0.432324 0.303113 0.573260
O O9 0.534268 0.067764 0.566135
O O10 0.369969 0.051930 0.608108
O O11 0.827463 0.108269 0.403824
O O12 0.040534 0.924186 0.454782
O O13 0.589560 0.211586 0.397143
O O14 0.513592 0.844145 0.976651
O O15 0.750000 0.250000 0.500000
#
# Coordination Sequence:
#
# PCOD9298087 Si02
#       8
#     8   4   8   8   8   8   4   8
#     4  11  24  42  66 104 140 184 233 289 355 429
#     4  12  22  44  70 100 150 184 236 290 364 436
#     4  11  24  41  67 100 144 186 226 289 359 425
#     4  10  24  43  68 101 138 181 235 288 348 417
#     4  11  24  47  68 107 139 183 238 296 356 420
#     4  11  25  43  69  99 139 188 230 292 356 426
#     4  10  24  46  68 104 134 184 234 284 350 414
#     4  11  25  46  74 101 139 186 238 297 354 416
#
# _framework density 23.227603999999999
#
# number of rings (size 3 to 8) (size 9 to 14) (size 15 to 20)
#    0.000    1.143    2.143    3.429    5.000    3.429 
#    0.000    2.857    0.000    0.000    0.000    0.000 
#    0.000    0.000    0.000    0.000    0.000    0.000 
#
# Total GULP energy -155943.328539 kJ/mol
# GULP energy per Si atom -5569.404591 kJ/mol
# Density = 2.317474 g / cm^3
# Si number density = 23.227604 Si / 1000 Ang^3
#
#
#
# Elastic Constant Matrix: (Units=GPa)
#
#
# Indices 1 2 3 4 5 6 
#
# 1 52.0409 42.6819 10.0601 0.0000 -18.6338 0.0000
# 2 42.6819 199.8419 32.8881 0.0000 -6.5865 0.0000
# 3 10.0601 32.8881 90.6157 0.0000 -18.3713 0.0000
# 4 0.0000 0.0000 0.0000 41.0264 0.0000 0.6491
# 5 -18.6338 -6.5865 -18.3713 0.0000 25.6047 0.0000
# 6 0.0000 0.0000 0.0000 0.6491 0.0000 37.7247
#
#
#
# Elastic Compliance Matrix: (Units=1/GPa)
#
#
# Indices 1 2 3 4 5 6 
#
# 1 0.033106 -0.006887 0.003920 0.000000 0.025134 0.000000
# 2 -0.006887 0.006755 -0.002751 0.000000 -0.005249 0.000000
# 3 0.003920 -0.002751 0.014082 0.000000 0.012249 0.000000
# 4 0.000000 0.000000 0.000000 0.024381 0.000000 -0.000419
# 5 0.025134 -0.005249 0.012249 0.000000 0.064785 0.000000
# 6 0.000000 0.000000 0.000000 -0.000419 0.000000 0.026515
#
#
# Mechanical properties :
#
#
# Convention : Reuss Voigt Hill
#
# Bulk Modulus (GPa) = 23.52619 57.08429 40.30524
# Shear Modulus (GPa) = 25.61085 37.99572 31.80329
#
# Velocity S-wave (km/s) = 3.32415 4.04889 3.70429
# Velocity P-wave (km/s) = 4.98837 6.81817 5.97375
#
# Compressibility (1/GPa) = 0.04250581
#
# Stress axis : x y z
#
# Youngs Moduli (GPa) = 30.20597 148.04480 71.01149
#
# Poissons Ratio (x) = 1.01965 -0.27836
# Poissons Ratio (y) = 0.20804 0.19535
# Poissons Ratio (z) = -0.11840 0.40727
#
# Static dielectric constant tensor:
#      x y z
#    x 1.978720 0.000000 0.014700 
#    y 0.000000 1.857650 0.000000 
#    z 0.014700 0.000000 1.991480 
# 
# From -- ./inp_files/291669.got.cif
#   From: 2010.05.17/outbox.cif.g08.bks.cpg/sg15_146_cif.got.tgz:291669.got - 2010.06.03 18:47:42.
