data_PCOD9298827
_publ_section_title
;
Structure prediction by ZEFSAII (Michael W. Deem and Ramdas Pophale) SiO2 
 PCOD9298827
Probable space group: C 2/C
;
_chemical_formula_sum "Si O2"
_cell_formula_units_Z 44
_cell_length_a 10.947042
_cell_length_b 8.654660
_cell_length_c 21.141913
_cell_angle_alpha 90.000000
_cell_angle_beta 54.989854
_cell_angle_gamma 90.000000
_cell_volume 1640.596333
_symmetry_space_group_name_H-M "C 2/C"
_symmetry_group_IT_number 15
_symmetry_cell_setting 'monoclinic'
loop_
_space_group_symop_operation_xyz
x,y,z
-x,y,1/2-z
-x,-y,-z
x,-y,1/2+z
1/2+x,1/2+y,z
1/2-x,1/2+y,1/2-z
1/2-x,1/2-y,-z
1/2+x,1/2-y,1/2+z
loop_
_atom_site_type_symbol
_atom_site_label
_atom_site_fract_x
_atom_site_fract_y
_atom_site_fract_z
Si Si1 0.000000 0.247052 0.750000
Si Si2 0.071451 0.940069 0.886004
Si Si3 0.423621 0.966072 0.889490
Si Si4 0.968489 0.251000 0.983946
Si Si5 0.763080 0.988824 0.786464
Si Si6 0.794377 0.789489 0.895725
O O1 0.951052 0.349445 0.823704
O O2 0.132738 0.132044 0.729158
O O3 0.201244 0.945498 0.795993
O O4 0.921437 0.877489 0.896802
O O5 0.028976 0.111006 0.922263
O O6 0.109176 0.832359 0.934578
O O7 0.382544 0.869205 0.964409
O O8 0.592023 0.028991 0.850027
O O9 0.322160 0.108857 0.899863
O O10 0.122855 0.325176 0.964287
O O11 0.806150 0.846765 0.819841
#
# Coordination Sequence:
#
# PCOD9298827 Si02
#       6
#     4   8   8   8   8   8
#     4  12  24  40  64  94 128 162 214 262 316 376
#     4  11  22  42  68  89 133 174 204 257 322 375
#     4  11  27  39  68  99 124 162 220 266 308 377
#     4  10  24  46  63  93 132 170 211 256 312 386
#     4  11  24  42  65  95 129 166 211 265 316 369
#     4  11  24  43  68  94 127 169 214 263 317 368
#
# _framework density 26.819516
#
# number of rings (size 3 to 8) (size 9 to 14) (size 15 to 20)
#    0.000    1.091    3.636    0.545    7.636    0.727 
#    0.000    5.455    0.000    0.000    0.000    0.000 
#    0.000    0.000    0.000    0.000    0.000    0.000 
#
# Total GULP energy -123660.998601 kJ/mol
# GULP energy per Si atom -5620.954482 kJ/mol
# Density = 2.675847 g / cm^3
# Si number density = 26.819516 Si / 1000 Ang^3
#
#
#
# Elastic Constant Matrix: (Units=GPa)
#
#
# Indices 1 2 3 4 5 6 
#
# 1 105.6892 51.0489 15.2441 0.0000 2.1172 0.0000
# 2 51.0489 159.9367 64.3972 0.0000 24.0499 0.0000
# 3 15.2441 64.3972 119.3085 0.0000 23.7981 0.0000
# 4 0.0000 0.0000 0.0000 50.7869 0.0000 9.4825
# 5 2.1172 24.0499 23.7981 0.0000 41.0312 0.0000
# 6 0.0000 0.0000 0.0000 9.4825 0.0000 55.4435
#
#
#
# Elastic Compliance Matrix: (Units=1/GPa)
#
#
# Indices 1 2 3 4 5 6 
#
# 1 0.011306 -0.004004 0.000413 0.000000 0.001524 0.000000
# 2 -0.004004 0.009634 -0.004074 0.000000 -0.003077 0.000000
# 3 0.000413 -0.004074 0.011372 0.000000 -0.004229 0.000000
# 4 0.000000 0.000000 0.000000 0.020340 0.000000 -0.003479
# 5 0.001524 -0.003077 -0.004229 0.000000 0.028549 0.000000
# 6 0.000000 0.000000 0.000000 -0.003479 0.000000 0.018631
#
#
# Mechanical properties :
#
#
# Convention : Reuss Voigt Hill
#
# Bulk Modulus (GPa) = 58.89534 71.81274 65.35404
# Shear Modulus (GPa) = 41.38313 46.40193 43.89253
#
# Velocity S-wave (km/s) = 3.93239 4.16403 4.04987
# Velocity P-wave (km/s) = 6.52885 7.06776 6.80364
#
# Compressibility (1/GPa) = 0.01697927
#
# Stress axis : x y z
#
# Youngs Moduli (GPa) = 88.45209 103.80290 87.93826
#
# Poissons Ratio (x) = 0.41561 -0.03628
# Poissons Ratio (y) = 0.35415 0.35830
# Poissons Ratio (z) = -0.03649 0.42294
#
# Static dielectric constant tensor:
#      x y z
#    x 2.098770 0.000000 0.033010 
#    y 0.000000 2.052860 0.000000 
#    z 0.033010 0.000000 2.046110 
# 
# From -- ./inp_files/236061.got.cif
#   From: 2010.05.17/outbox.cif.g08.bks.cpg/sg15_119_cif.got.tgz:236061.got - 2010.06.03 18:47:42.
