data_PCOD9298806
_publ_section_title
;
Structure prediction by ZEFSAII (Michael W. Deem and Ramdas Pophale) SiO2 
 PCOD9298806
Probable space group: C 2/C
;
_chemical_formula_sum "Si O2"
_cell_formula_units_Z 56
_cell_length_a 13.744556
_cell_length_b 12.689948
_cell_length_c 14.613941
_cell_angle_alpha 90.000000
_cell_angle_beta 120.818940
_cell_angle_gamma 90.000000
_cell_volume 2188.997081
_symmetry_space_group_name_H-M "C 2/C"
_symmetry_group_IT_number 15
_symmetry_cell_setting 'monoclinic'
loop_
_space_group_symop_operation_xyz
x,y,z
-x,y,1/2-z
-x,-y,-z
x,-y,1/2+z
1/2+x,1/2+y,z
1/2-x,1/2+y,1/2-z
1/2-x,1/2-y,-z
1/2+x,1/2-y,1/2+z
loop_
_atom_site_type_symbol
_atom_site_label
_atom_site_fract_x
_atom_site_fract_y
_atom_site_fract_z
Si Si1 0.898632 0.750068 0.627402
Si Si2 0.682279 0.481708 0.929384
Si Si3 0.834444 0.919362 0.896106
Si Si4 0.004190 0.756837 0.033201
Si Si5 0.636756 0.580957 0.727495
Si Si6 0.945865 0.464976 0.567406
Si Si7 0.855785 0.441100 0.229976
O O1 0.934930 0.736861 0.537314
O O2 0.837975 0.648423 0.644090
O O3 0.000000 0.762630 0.750000
O O4 0.830492 0.859363 0.600829
O O5 0.624413 0.561330 0.828840
O O6 0.631330 0.503490 0.004500
O O7 0.813424 0.514039 0.997082
O O8 0.700947 0.945093 0.822138
O O9 0.886252 0.965606 0.828496
O O10 0.884521 0.808495 0.945547
O O11 0.073297 0.835195 0.133463
O O12 0.976946 0.657131 0.083045
O O13 0.771410 0.596195 0.770555
O O14 0.019603 0.534033 0.673628
O O15 0.000000 0.500000 0.500000
#
# Coordination Sequence:
#
# PCOD9298806 Si02
#       7
#     8   8   8   8   8   8   8
#     4  12  27  46  84 119 147 208 274 322 394 473
#     4  12  27  47  80 111 163 209 259 326 399 475
#     4  10  25  48  77 113 160 198 260 330 392 472
#     4  12  27  50  82 114 157 208 264 328 401 477
#     4  10  24  45  76 114 157 198 263 328 390 465
#     4  12  27  48  74 113 161 202 255 329 399 464
#     4  10  26  46  72 116 163 191 262 335 387 459
#
# _framework density 25.58249
#
# number of rings (size 3 to 8) (size 9 to 14) (size 15 to 20)
#    0.857    0.000    2.857    2.143    8.000    2.857 
#    0.000    1.429    0.000    0.000    0.000    0.000 
#    0.000    0.000    0.000    0.000    0.000    0.000 
#
# Total GULP energy -156422.895725 kJ/mol
# GULP energy per Si atom -5586.531990 kJ/mol
# Density = 2.552426 g / cm^3
# Si number density = 25.582490 Si / 1000 Ang^3
#
#
#
# Elastic Constant Matrix: (Units=GPa)
#
#
# Indices 1 2 3 4 5 6 
#
# 1 74.7065 29.8539 32.5357 0.0000 25.0572 0.0000
# 2 29.8539 122.1867 32.4031 0.0000 6.6699 0.0000
# 3 32.5357 32.4031 143.4013 0.0000 1.3971 0.0000
# 4 0.0000 0.0000 0.0000 38.3691 0.0000 -1.1499
# 5 25.0572 6.6699 1.3971 0.0000 46.5215 0.0000
# 6 0.0000 0.0000 0.0000 -1.1499 0.0000 41.6212
#
#
#
# Elastic Compliance Matrix: (Units=1/GPa)
#
#
# Indices 1 2 3 4 5 6 
#
# 1 0.019625 -0.003292 -0.003611 0.000000 -0.009990 0.000000
# 2 -0.003292 0.009324 -0.001365 0.000000 0.000477 0.000000
# 3 -0.003611 -0.001365 0.008083 0.000000 0.001898 0.000000
# 4 0.000000 0.000000 0.000000 0.026084 0.000000 0.000721
# 5 -0.009990 0.000477 0.001898 0.000000 0.026751 0.000000
# 6 0.000000 0.000000 0.000000 0.000721 0.000000 0.024046
#
#
# Mechanical properties :
#
#
# Convention : Reuss Voigt Hill
#
# Bulk Modulus (GPa) = 48.79060 58.87555 53.83308
# Shear Modulus (GPa) = 36.42181 41.66917 39.04549
#
# Velocity S-wave (km/s) = 3.77729 4.04024 3.91097
# Velocity P-wave (km/s) = 6.17553 6.69542 6.44072
#
# Compressibility (1/GPa) = 0.02049575
#
# Stress axis : x y z
#
# Youngs Moduli (GPa) = 50.95642 107.24596 123.72123
#
# Poissons Ratio (x) = 0.35304 0.44680
# Poissons Ratio (y) = 0.16774 0.16884
# Poissons Ratio (z) = 0.18402 0.14636
#
# Static dielectric constant tensor:
#      x y z
#    x 2.108800 0.000000 -0.075350 
#    y 0.000000 2.366880 0.000000 
#    z -0.075350 0.000000 2.168560 
# 
# From -- ./inp_files/153504.got.cif
#   From: 2010.05.17/outbox.cif.g08.bks.cpg/sg15_77_cif.got.tgz:153504.got - 2010.06.03 18:47:42.
