data_PCOD9298323
_publ_section_title
;
Structure prediction by ZEFSAII (Michael W. Deem and Ramdas Pophale) SiO2 
 PCOD9298323
Probable space group: C 2/C
;
_chemical_formula_sum "Si O2"
_cell_formula_units_Z 48
_cell_length_a 11.734200
_cell_length_b 19.076180
_cell_length_c 12.398209
_cell_angle_alpha 90.000000
_cell_angle_beta 134.402810
_cell_angle_gamma 90.000000
_cell_volume 1982.753014
_symmetry_space_group_name_H-M "C 2/C"
_symmetry_group_IT_number 15
_symmetry_cell_setting 'monoclinic'
loop_
_space_group_symop_operation_xyz
x,y,z
-x,y,1/2-z
-x,-y,-z
x,-y,1/2+z
1/2+x,1/2+y,z
1/2-x,1/2+y,1/2-z
1/2-x,1/2-y,-z
1/2+x,1/2-y,1/2+z
loop_
_atom_site_type_symbol
_atom_site_label
_atom_site_fract_x
_atom_site_fract_y
_atom_site_fract_z
Si Si1 0.108567 0.191815 0.632689
Si Si2 0.356117 0.104222 0.896508
Si Si3 0.325092 0.965445 0.159427
Si Si4 0.815063 0.350766 0.818314
Si Si5 0.326645 0.596573 0.500321
Si Si6 0.700234 0.668364 0.467291
O O1 0.287599 0.173240 0.790517
O O2 0.099762 0.274680 0.638392
O O3 0.081538 0.169961 0.490524
O O4 0.987709 0.141419 0.615673
O O5 0.309472 0.046403 0.776910
O O6 0.542542 0.101910 0.041550
O O7 0.272461 0.104099 0.956234
O O8 0.500000 0.997020 0.250000
O O9 0.178234 0.012966 0.022420
O O10 0.319507 0.891531 0.092064
O O11 0.757732 0.374344 0.663653
O O12 0.686340 0.347851 0.831073
O O13 0.750000 0.750000 0.500000
#
# Coordination Sequence:
#
# PCOD9298323 Si02
#       6
#     8   8   8   8   8   8
#     4  10  24  44  66  98 142 180 224 286 348 412
#     4  11  24  42  67  95 132 180 223 280 342 417
#     4  11  23  43  72  95 137 180 240 292 340 415
#     4  11  22  42  71 102 132 179 237 282 334 415
#     4  12  27  40  65 106 138 183 225 282 363 416
#     4   9  21  42  70  98 128 180 238 288 339 399
#
# _framework density 24.208763999999999
#
# number of rings (size 3 to 8) (size 9 to 14) (size 15 to 20)
#    0.000    1.333    1.667    3.000    2.333    8.667 
#    0.000    0.000    0.000    0.000    0.000    0.000 
#    0.000    0.000    0.000    0.000    0.000    0.000 
#
# Total GULP energy -133869.255394 kJ/mol
# GULP energy per Si atom -5577.885641 kJ/mol
# Density = 2.415366 g / cm^3
# Si number density = 24.208764 Si / 1000 Ang^3
#
#
#
# Elastic Constant Matrix: (Units=GPa)
#
#
# Indices 1 2 3 4 5 6 
#
# 1 119.8753 17.9338 25.9543 0.0000 -57.1407 0.0000
# 2 17.9338 85.8458 23.5680 0.0000 -7.1183 0.0000
# 3 25.9543 23.5680 140.4262 0.0000 -38.7385 0.0000
# 4 0.0000 0.0000 0.0000 26.0954 0.0000 -9.0986
# 5 -57.1407 -7.1183 -38.7385 0.0000 46.2160 0.0000
# 6 0.0000 0.0000 0.0000 -9.0986 0.0000 13.4704
#
#
#
# Elastic Compliance Matrix: (Units=1/GPa)
#
#
# Indices 1 2 3 4 5 6 
#
# 1 0.023367 -0.003627 0.005341 0.000000 0.032809 0.000000
# 2 -0.003627 0.012776 -0.002820 0.000000 -0.004881 0.000000
# 3 0.005341 -0.002820 0.010808 0.000000 0.015228 0.000000
# 4 0.000000 0.000000 0.000000 0.050126 0.000000 0.033857
# 5 0.032809 -0.004881 0.015228 0.000000 0.074214 0.000000
# 6 0.000000 0.000000 0.000000 0.033857 0.000000 0.097105
#
#
# Mechanical properties :
#
#
# Convention : Reuss Voigt Hill
#
# Bulk Modulus (GPa) = 22.35245 53.45105 37.90175
# Shear Modulus (GPa) = 17.51168 35.73579 26.62373
#
# Velocity S-wave (km/s) = 2.69246 3.84624 3.31985
# Velocity P-wave (km/s) = 4.34960 6.46930 5.51230
#
# Compressibility (1/GPa) = 0.04473782
#
# Stress axis : x y z
#
# Youngs Moduli (GPa) = 42.79506 78.27111 92.52095
#
# Poissons Ratio (x) = 0.28391 -0.49412
# Poissons Ratio (y) = 0.15523 0.26093
# Poissons Ratio (z) = -0.22855 0.22075
#
# Static dielectric constant tensor:
#      x y z
#    x 1.953480 0.000000 0.039210 
#    y 0.000000 1.976270 0.000000 
#    z 0.039210 0.000000 1.987800 
# 
# From -- ./inp_files/89796.got.cif
#   From: 2010.05.17/outbox.cif.g08.bks.cpg/sg15_45_cif.got.tgz:89796.got - 2010.06.03 18:47:42.
