data_PCOD9298996
_publ_section_title
;
Structure prediction by ZEFSAII (Michael W. Deem and Ramdas Pophale) SiO2 
 PCOD9298996
Probable space group: C 2/C
;
_chemical_formula_sum "Si O2"
_cell_formula_units_Z 36
_cell_length_a 8.000819
_cell_length_b 30.265897
_cell_length_c 8.507273
_cell_angle_alpha 90.000000
_cell_angle_beta 58.353126
_cell_angle_gamma 90.000000
_cell_volume 1753.718827
_symmetry_space_group_name_H-M "C 2/C"
_symmetry_group_IT_number 15
_symmetry_cell_setting 'monoclinic'
loop_
_space_group_symop_operation_xyz
x,y,z
-x,y,1/2-z
-x,-y,-z
x,-y,1/2+z
1/2+x,1/2+y,z
1/2-x,1/2+y,1/2-z
1/2-x,1/2-y,-z
1/2+x,1/2-y,1/2+z
loop_
_atom_site_type_symbol
_atom_site_label
_atom_site_fract_x
_atom_site_fract_y
_atom_site_fract_z
Si Si1 0.000000 0.519764 0.250000
Si Si2 0.557357 0.704297 0.904210
Si Si3 0.192895 0.630309 0.566358
Si Si4 0.719172 0.539700 0.109254
Si Si5 0.666155 0.198079 0.299587
O O1 0.143327 0.544808 0.302849
O O2 0.848918 0.490657 0.428977
O O3 0.500000 0.702796 0.750000
O O4 0.702437 0.664623 0.869816
O O5 0.640366 0.753508 0.888696
O O6 0.373023 0.697712 0.109002
O O7 0.311150 0.587293 0.456547
O O8 0.149090 0.659795 0.435066
O O9 0.000000 0.613931 0.750000
O O10 0.500000 0.521235 0.250000
O O11 0.500000 0.193331 0.250000
#
# Coordination Sequence:
#
# PCOD9298996 Si02
#       5
#     4   8   8   8   8
#     4  10  24  46  72  98 136 168 216 268 338 396
#     4  11  22  40  59  91 124 174 214 267 324 383
#     4  12  24  41  61  93 129 166 219 270 320 385
#     4  11  23  45  70 102 131 174 215 268 334 399
#     4  11  22  38  62  87 127 170 217 267 324 381
#
# _framework density 20.527805000000001
#
# number of rings (size 3 to 8) (size 9 to 14) (size 15 to 20)
#    0.000    0.889    1.111    8.667    1.556    0.000 
#    4.000    1.111    0.000    0.000    0.000    0.000 
#    0.000    0.000    0.000    0.000    0.000    0.000 
#
# Total GULP energy -100619.665676 kJ/mol
# GULP energy per Si atom -5589.981426 kJ/mol
# Density = 2.048108 g / cm^3
# Si number density = 20.527805 Si / 1000 Ang^3
#
#
#
# Elastic Constant Matrix: (Units=GPa)
#
#
# Indices 1 2 3 4 5 6 
#
# 1 41.6579 -14.8230 11.5340 0.0000 -2.0622 0.0000
# 2 -14.8230 42.4352 -0.4927 0.0000 1.8832 0.0000
# 3 11.5340 -0.4927 117.4975 0.0000 -18.1341 0.0000
# 4 0.0000 0.0000 0.0000 13.0414 0.0000 -16.6651
# 5 -2.0622 1.8832 -18.1341 0.0000 45.5258 0.0000
# 6 0.0000 0.0000 0.0000 -16.6651 0.0000 -17.9298
#
#
#
# Elastic Compliance Matrix: (Units=1/GPa)
#
#
# Indices 1 2 3 4 5 6 
#
# 1 0.028266 0.009852 -0.002769 0.000000 -0.000230 0.000000
# 2 0.009852 0.027043 -0.001020 0.000000 -0.001079 0.000000
# 3 -0.002769 -0.001020 0.009340 0.000000 0.003637 0.000000
# 4 0.000000 0.000000 0.000000 0.035050 0.000000 -0.032577
# 5 -0.000230 -0.001079 0.003637 0.000000 0.023448 0.000000
# 6 0.000000 0.000000 0.000000 -0.032577 0.000000 -0.025494
#
#
# Mechanical properties :
#
#
# Convention : Reuss Voigt Hill
#
# Bulk Modulus (GPa) = 13.02541 21.55857 17.29199
# Shear Modulus (GPa) = 44.99704 21.81896 33.40800
#
# Velocity S-wave (km/s) = 4.68696 3.26375 4.03854
# Velocity P-wave (km/s) = 5.97069 4.97269 5.49440
#
# Compressibility (1/GPa) = 0.07677304
#
# Stress axis : x y z
#
# Youngs Moduli (GPa) = 35.37853 36.97868 107.07023
#
# Poissons Ratio (x) = -0.36430 0.29646
# Poissons Ratio (y) = -0.34853 0.10923
# Poissons Ratio (z) = 0.09796 0.03772
#
# Static dielectric constant tensor:
#      x y z
#    x 1.748820 0.000000 -0.002620 
#    y 0.000000 1.712980 0.000000 
#    z -0.002620 0.000000 1.708640 
# 
# From -- ./inp_files/24314.got.cif
#   From: 2010.05.17/outbox.cif.g08.bks.cpg/sg15_13_cif.got.tgz:24314.got - 2010.06.03 18:47:42.
