data_PCOD9298156
_publ_section_title
;
Structure prediction by ZEFSAII (Michael W. Deem and Ramdas Pophale) SiO2 
 PCOD9298156
Probable space group: C 2/C
;
_chemical_formula_sum "Si O2"
_cell_formula_units_Z 32
_cell_length_a 13.717062
_cell_length_b 4.936119
_cell_length_c 18.904177
_cell_angle_alpha 90.000000
_cell_angle_beta 102.817215
_cell_angle_gamma 90.000000
_cell_volume 1248.090187
_symmetry_space_group_name_H-M "C 2/C"
_symmetry_group_IT_number 15
_symmetry_cell_setting 'monoclinic'
loop_
_space_group_symop_operation_xyz
x,y,z
-x,y,1/2-z
-x,-y,-z
x,-y,1/2+z
1/2+x,1/2+y,z
1/2-x,1/2+y,1/2-z
1/2-x,1/2-y,-z
1/2+x,1/2-y,1/2+z
loop_
_atom_site_type_symbol
_atom_site_label
_atom_site_fract_x
_atom_site_fract_y
_atom_site_fract_z
Si Si1 0.361693 0.813025 0.041596
Si Si2 0.033858 0.254803 0.585777
Si Si3 0.933336 0.931436 0.682960
Si Si4 0.678763 0.839551 0.732298
O O1 0.355150 0.714151 0.121493
O O2 0.427345 0.090111 0.059863
O O3 0.250000 0.750000 0.000000
O O4 0.420779 0.693304 0.982951
O O5 0.115275 0.398499 0.650539
O O6 0.009246 0.003109 0.631554
O O7 0.000000 0.770407 0.750000
O O8 0.889331 0.188721 0.718574
O O9 0.765291 0.612537 0.735785
#
# Coordination Sequence:
#
# PCOD9298156 Si02
#       4
#     8   8   8   8
#     4  11  24  45  72 104 151 197 253 310 387 453
#     4  10  25  44  70 108 147 199 252 314 378 460
#     4  10  24  43  71 101 145 196 245 322 371 453
#     4  11  26  46  76 112 149 198 256 314 385 454
#
# _framework density 25.639175999999999
#
# number of rings (size 3 to 8) (size 9 to 14) (size 15 to 20)
#    0.000    1.500    0.000    2.250   14.000    2.000 
#    0.000    0.000    0.000    0.000    0.000    0.000 
#    0.000    0.000    0.000    0.000    0.000    0.000 
#
# Total GULP energy -89178.691749 kJ/mol
# GULP energy per Si atom -5573.668234 kJ/mol
# Density = 2.558082 g / cm^3
# Si number density = 25.639176 Si / 1000 Ang^3
#
#
#
# Elastic Constant Matrix: (Units=GPa)
#
#
# Indices 1 2 3 4 5 6 
#
# 1 129.1001 37.8886 88.5334 0.0000 13.5824 0.0000
# 2 37.8886 72.3914 56.6728 0.0000 10.2015 0.0000
# 3 88.5334 56.6728 253.4394 0.0000 0.0151 0.0000
# 4 0.0000 0.0000 0.0000 28.7733 0.0000 -5.5414
# 5 13.5824 10.2015 0.0151 0.0000 70.8606 0.0000
# 6 0.0000 0.0000 0.0000 -5.5414 0.0000 39.2239
#
#
#
# Elastic Compliance Matrix: (Units=1/GPa)
#
#
# Indices 1 2 3 4 5 6 
#
# 1 0.010977 -0.003041 -0.003154 0.000000 -0.001666 0.000000
# 2 -0.003041 0.018010 -0.002965 0.000000 -0.002009 0.000000
# 3 -0.003154 -0.002965 0.005711 0.000000 0.001030 0.000000
# 4 0.000000 0.000000 0.000000 0.035727 0.000000 0.005047
# 5 -0.001666 -0.002009 0.001030 0.000000 0.014721 0.000000
# 6 0.000000 0.000000 0.000000 0.005047 0.000000 0.026208
#
#
# Mechanical properties :
#
#
# Convention : Reuss Voigt Hill
#
# Bulk Modulus (GPa) = 61.06249 91.23559 76.14904
# Shear Modulus (GPa) = 37.00116 45.89395 41.44756
#
# Velocity S-wave (km/s) = 3.80300 4.23542 4.02502
# Velocity P-wave (km/s) = 6.56898 7.71881 7.16700
#
# Compressibility (1/GPa) = 0.01637667
#
# Stress axis : x y z
#
# Youngs Moduli (GPa) = 91.10104 55.52609 175.11427
#
# Poissons Ratio (x) = 0.16885 0.55238
# Poissons Ratio (y) = 0.27703 0.51918
# Poissons Ratio (z) = 0.28737 0.16462
#
# Static dielectric constant tensor:
#      x y z
#    x 2.104380 0.000000 0.080100 
#    y 0.000000 2.300610 0.000000 
#    z 0.080100 0.000000 2.006650 
# 
# From -- ./inp_files/201814.got.cif
#   From: 2010.05.17/outbox.cif.g08.bks.cpg/sg15_101_cif.got.tgz:201814.got - 2010.06.03 18:47:42.
