data_PCOD9298817
_publ_section_title
;
Structure prediction by ZEFSAII (Michael W. Deem and Ramdas Pophale) SiO2 
 PCOD9298817
Probable space group: C 2/C
;
_chemical_formula_sum "Si O2"
_cell_formula_units_Z 44
_cell_length_a 23.846392
_cell_length_b 5.084522
_cell_length_c 16.996096
_cell_angle_alpha 90.000000
_cell_angle_beta 68.531604
_cell_angle_gamma 90.000000
_cell_volume 1917.759637
_symmetry_space_group_name_H-M "C 2/C"
_symmetry_group_IT_number 15
_symmetry_cell_setting 'monoclinic'
loop_
_space_group_symop_operation_xyz
x,y,z
-x,y,1/2-z
-x,-y,-z
x,-y,1/2+z
1/2+x,1/2+y,z
1/2-x,1/2+y,1/2-z
1/2-x,1/2-y,-z
1/2+x,1/2-y,1/2+z
loop_
_atom_site_type_symbol
_atom_site_label
_atom_site_fract_x
_atom_site_fract_y
_atom_site_fract_z
Si Si1 0.229277 0.952643 0.078856
Si Si2 0.616648 0.182041 0.173589
Si Si3 0.433744 0.862145 0.165135
Si Si4 0.436503 0.612819 0.561069
Si Si5 0.846850 0.647691 0.986987
Si Si6 0.500000 0.553379 0.250000
O O1 0.180976 0.814254 0.158987
O O2 0.190077 0.178924 0.057031
O O3 0.250000 0.750000 0.000000
O O4 0.294134 0.053102 0.073849
O O5 0.559287 0.373570 0.211819
O O6 0.606376 0.949528 0.240596
O O7 0.622099 0.078136 0.081286
O O8 0.408326 0.623843 0.126603
O O9 0.492231 0.738447 0.178055
O O10 0.445378 0.121969 0.107805
O O11 0.500000 0.500000 0.500000
O O12 0.394900 0.688264 0.509900
#
# Coordination Sequence:
#
# PCOD9298817 Si02
#       6
#     8   8   8   8   8   4
#     4   9  21  44  77 104 135 199 255 307 357 455
#     4  11  24  44  79 106 146 196 257 309 371 458
#     4  12  28  47  71 109 153 196 247 305 382 449
#     4  12  30  47  72 113 157 197 239 318 387 450
#     4  10  24  45  78 105 150 193 259 303 376 449
#     4  12  26  44  76 108 148 192 246 304 372 462
#
# _framework density 22.943439000000001
#
# number of rings (size 3 to 8) (size 9 to 14) (size 15 to 20)
#    0.000    1.091    1.818    2.182   12.727    0.000 
#    0.000    0.000   16.000    0.000    0.000    0.000 
#    0.000    0.000    0.000    0.000    0.000    0.000 
#
# Total GULP energy -123065.836625 kJ/mol
# GULP energy per Si atom -5593.901665 kJ/mol
# Density = 2.289122 g / cm^3
# Si number density = 22.943439 Si / 1000 Ang^3
#
#
#
# Elastic Constant Matrix: (Units=GPa)
#
#
# Indices 1 2 3 4 5 6 
#
# 1 117.3956 47.1513 62.0446 0.0000 -25.8148 0.0000
# 2 47.1513 139.5750 53.8776 0.0008 -10.2130 0.0003
# 3 62.0446 53.8776 99.0480 0.0000 -18.8684 0.0000
# 4 0.0000 0.0008 0.0000 45.2132 0.0000 1.4710
# 5 -25.8148 -10.2130 -18.8684 0.0000 37.0959 -0.0001
# 6 0.0000 0.0003 0.0000 1.4710 -0.0001 44.3260
#
#
#
# Elastic Compliance Matrix: (Units=1/GPa)
#
#
# Indices 1 2 3 4 5 6 
#
# 1 0.014075 -0.001713 -0.006764 0.000000 0.005882 0.000000
# 2 -0.001713 0.009277 -0.004112 0.000000 -0.000730 0.000000
# 3 -0.006764 -0.004112 0.017116 0.000000 0.002867 0.000000
# 4 0.000000 0.000000 0.000000 0.022141 0.000000 -0.000735
# 5 0.005882 -0.000730 0.002867 0.000000 0.032308 0.000000
# 6 0.000000 0.000000 0.000000 -0.000735 0.000000 0.022585
#
#
# Mechanical properties :
#
#
# Convention : Reuss Voigt Hill
#
# Bulk Modulus (GPa) = 65.40608 75.79616 70.60112
# Shear Modulus (GPa) = 33.83470 38.19003 36.01236
#
# Velocity S-wave (km/s) = 3.84435 4.08429 3.96613
# Velocity P-wave (km/s) = 6.94801 7.43974 7.19807
#
# Compressibility (1/GPa) = 0.01528910
#
# Stress axis : x y z
#
# Youngs Moduli (GPa) = 71.04961 107.78911 58.42452
#
# Poissons Ratio (x) = 0.18468 0.39518
# Poissons Ratio (y) = 0.12173 0.24026
# Poissons Ratio (z) = 0.48058 0.44325
#
# Static dielectric constant tensor:
#      x y z
#    x 1.858330 0.000000 -0.011840 
#    y 0.000000 1.952490 0.000000 
#    z -0.011840 0.000000 1.901880 
# 
# From -- ./inp_files/212853.got.cif
#   From: 2010.05.17/outbox.cif.g08.bks.cpg/sg15_107_cif.got.tgz:212853.got - 2010.06.03 18:47:42.
