data_PCOD9298478
_publ_section_title
;
Structure prediction by ZEFSAII (Michael W. Deem and Ramdas Pophale) SiO2 
 PCOD9298478
Probable space group: C 2/C
;
_chemical_formula_sum "Si O2"
_cell_formula_units_Z 44
_cell_length_a 8.514003
_cell_length_b 32.143633
_cell_length_c 9.189444
_cell_angle_alpha 90.000000
_cell_angle_beta 129.476741
_cell_angle_gamma 90.000000
_cell_volume 1941.195703
_symmetry_space_group_name_H-M "C 2/C"
_symmetry_group_IT_number 15
_symmetry_cell_setting 'monoclinic'
loop_
_space_group_symop_operation_xyz
x,y,z
-x,y,1/2-z
-x,-y,-z
x,-y,1/2+z
1/2+x,1/2+y,z
1/2-x,1/2+y,1/2-z
1/2-x,1/2-y,-z
1/2+x,1/2-y,1/2+z
loop_
_atom_site_type_symbol
_atom_site_label
_atom_site_fract_x
_atom_site_fract_y
_atom_site_fract_z
Si Si1 0.581495 0.338692 0.653518
Si Si2 0.174899 0.357217 0.234245
Si Si3 0.672360 0.938053 0.045998
Si Si4 0.778839 0.798775 0.043940
Si Si5 0.283815 0.573564 0.293547
Si Si6 0.000000 0.990526 0.750000
O O1 0.500000 0.315768 0.750000
O O2 0.383178 0.348445 0.441208
O O3 0.727096 0.317059 0.622740
O O4 0.681975 0.382213 0.761672
O O5 0.191227 0.403981 0.181997
O O6 0.145235 0.325170 0.081108
O O7 0.000000 0.353276 0.250000
O O8 0.805368 0.979495 0.136473
O O9 0.432466 0.945375 0.882273
O O10 0.761595 0.917807 0.950964
O O11 0.000000 0.803277 0.250000
O O12 0.750000 0.750000 0.000000
O O13 0.462777 0.541333 0.361504
#
# Coordination Sequence:
#
# PCOD9298478 Si02
#       6
#     8   8   8   8   8   4
#     4  11  22  43  69  98 138 178 222 280 342 406
#     4  11  24  43  69  98 135 183 227 274 342 408
#     4  11  24  42  64  95 133 181 224 285 338 402
#     4  10  24  44  71 102 137 175 220 279 340 404
#     4  11  23  41  66  95 130 180 231 276 345 403
#     4  12  24  42  64  96 138 174 234 290 336 400
#
# _framework density 22.666443000000001
#
# number of rings (size 3 to 8) (size 9 to 14) (size 15 to 20)
#    0.000    1.091    2.727    3.273    1.273    3.636 
#    3.273    3.636    0.000    0.000    0.000    0.000 
#    0.000    0.000    0.000    0.000    0.000    0.000 
#
# Total GULP energy -122933.471491 kJ/mol
# GULP energy per Si atom -5587.885068 kJ/mol
# Density = 2.261485 g / cm^3
# Si number density = 22.666443 Si / 1000 Ang^3
#
#
#
# Elastic Constant Matrix: (Units=GPa)
#
#
# Indices 1 2 3 4 5 6 
#
# 1 153.2582 74.2450 39.2629 0.0000 -33.9461 0.0000
# 2 74.2450 117.6276 20.8236 0.0000 -20.5053 0.0000
# 3 39.2629 20.8236 68.7033 0.0000 -19.0928 0.0000
# 4 0.0000 0.0000 0.0000 22.1969 0.0000 11.3871
# 5 -33.9461 -20.5053 -19.0928 0.0000 43.2549 0.0000
# 6 0.0000 0.0000 0.0000 11.3871 0.0000 4.8055
#
#
#
# Elastic Compliance Matrix: (Units=1/GPa)
#
#
# Indices 1 2 3 4 5 6 
#
# 1 0.011133 -0.005630 -0.003385 0.000000 0.004574 0.000000
# 2 -0.005630 0.012317 -0.000138 0.000000 0.001359 0.000000
# 3 -0.003385 -0.000138 0.017981 0.000000 0.005215 0.000000
# 4 0.000000 0.000000 0.000000 -0.208937 0.000000 0.495098
# 5 0.004574 0.001359 0.005215 0.000000 0.029655 0.000000
# 6 0.000000 0.000000 0.000000 0.495098 0.000000 -0.965091
#
#
# Mechanical properties :
#
#
# Convention : Reuss Voigt Hill
#
# Bulk Modulus (GPa) = 43.24378 67.58357 55.41367
# Shear Modulus (GPa) = -4.64283 27.73530 11.54624
#
# Velocity S-wave (km/s) = -1.43275 3.50183 2.25943
# Velocity P-wave (km/s) = 4.04756 6.79939 5.59529
#
# Compressibility (1/GPa) = 0.02312471
#
# Stress axis : x y z
#
# Youngs Moduli (GPa) = 89.82570 81.19178 55.61542
#
# Poissons Ratio (x) = 0.45713 0.18823
# Poissons Ratio (y) = 0.50575 0.00766
# Poissons Ratio (z) = 0.30402 0.01118
#
# Static dielectric constant tensor:
#      x y z
#    x 1.888030 0.000000 -0.006140 
#    y 0.000000 1.835360 0.000000 
#    z -0.006140 0.000000 1.874330 
# 
# From -- ./inp_files/26273.got.cif
#   From: 2010.05.17/outbox.cif.g08.bks.cpg/sg15_14_cif.got.tgz:26273.got - 2010.06.03 18:47:42.
