data_PCOD9298716
_publ_section_title
;
Structure prediction by ZEFSAII (Michael W. Deem and Ramdas Pophale) SiO2 
 PCOD9298716
Probable space group: C 2/C
;
_chemical_formula_sum "Si O2"
_cell_formula_units_Z 64
_cell_length_a 11.372663
_cell_length_b 10.643199
_cell_length_c 23.368767
_cell_angle_alpha 90.000000
_cell_angle_beta 100.180768
_cell_angle_gamma 90.000000
_cell_volume 2784.054788
_symmetry_space_group_name_H-M "C 2/C"
_symmetry_group_IT_number 15
_symmetry_cell_setting 'monoclinic'
loop_
_space_group_symop_operation_xyz
x,y,z
-x,y,1/2-z
-x,-y,-z
x,-y,1/2+z
1/2+x,1/2+y,z
1/2-x,1/2+y,1/2-z
1/2-x,1/2-y,-z
1/2+x,1/2-y,1/2+z
loop_
_atom_site_type_symbol
_atom_site_label
_atom_site_fract_x
_atom_site_fract_y
_atom_site_fract_z
Si Si1 0.095504 0.317134 0.532640
Si Si2 0.880926 0.173379 0.073993
Si Si3 0.581699 0.146450 0.306532
Si Si4 0.588040 0.997911 0.123890
Si Si5 0.022121 0.747149 0.688023
Si Si6 0.193726 0.012747 0.202109
Si Si7 0.165928 0.099504 0.822683
Si Si8 0.528171 0.429509 0.099165
O O1 0.070305 0.281621 0.464871
O O2 0.239713 0.324569 0.551377
O O3 0.057165 0.447789 0.558737
O O4 0.042281 0.197574 0.564047
O O5 0.910029 0.200023 0.142809
O O6 0.954671 0.045286 0.064403
O O7 0.500000 0.203910 0.250000
O O8 0.488755 0.093416 0.343884
O O9 0.665465 0.039625 0.287206
O O10 0.676253 0.251141 0.334889
O O11 0.731861 0.989486 0.142472
O O12 0.561619 0.863813 0.149841
O O13 0.000000 0.701511 0.750000
O O14 0.116254 0.860401 0.703184
O O15 0.167414 0.928271 0.255360
O O16 0.157823 0.963573 0.135908
O O17 0.044303 0.081282 0.847301
#
# Coordination Sequence:
#
# PCOD9298716 Si02
#       8
#     8   8   8   8   8   8   8   8
#     4  11  24  43  69  99 131 185 234 287 344 415
#     4  10  24  45  70  97 134 178 237 287 343 417
#     4  12  24  40  61  96 141 188 230 283 353 425
#     4  12  25  40  65  99 139 175 227 285 343 422
#     4  11  25  44  67  97 139 180 219 281 353 421
#     4  11  24  40  64  98 138 181 232 282 354 420
#     4  12  23  41  63  99 139 184 229 291 351 416
#     4  11  22  42  69  96 133 177 235 291 350 415
#
# _framework density 22.988054999999999
#
# number of rings (size 3 to 8) (size 9 to 14) (size 15 to 20)
#    0.000    0.750    5.000    3.375    1.750    0.500 
#    0.000    0.000    0.000    2.250    0.000    0.000 
#    0.000    0.000    0.000    0.000    0.000    0.000 
#
# Total GULP energy -178388.634161 kJ/mol
# GULP energy per Si atom -5574.644818 kJ/mol
# Density = 2.293573 g / cm^3
# Si number density = 22.988055 Si / 1000 Ang^3
#
#
#
# Elastic Constant Matrix: (Units=GPa)
#
#
# Indices 1 2 3 4 5 6 
#
# 1 67.3658 31.7318 40.6516 0.0000 2.4462 0.0000
# 2 31.7318 80.7314 20.5152 0.0000 1.4132 0.0000
# 3 40.6516 20.5152 98.5246 0.0000 1.4005 0.0000
# 4 0.0000 0.0000 0.0000 33.8572 0.0000 -7.3033
# 5 2.4462 1.4132 1.4005 0.0000 21.7378 0.0000
# 6 0.0000 0.0000 0.0000 -7.3033 0.0000 21.1702
#
#
#
# Elastic Compliance Matrix: (Units=1/GPa)
#
#
# Indices 1 2 3 4 5 6 
#
# 1 0.023039 -0.006987 -0.008028 0.000000 -0.001621 0.000000
# 2 -0.006987 0.015208 -0.000281 0.000000 -0.000184 0.000000
# 3 -0.008028 -0.000281 0.013520 0.000000 0.000051 0.000000
# 4 0.000000 0.000000 0.000000 0.031910 0.000000 0.011009
# 5 -0.001621 -0.000184 0.000051 0.000000 0.046194 0.000000
# 6 0.000000 0.000000 0.000000 0.011009 0.000000 0.051034
#
#
# Mechanical properties :
#
#
# Convention : Reuss Voigt Hill
#
# Bulk Modulus (GPa) = 47.22740 48.04657 47.63699
# Shear Modulus (GPa) = 22.87751 25.60125 24.23938
#
# Velocity S-wave (km/s) = 3.15809 3.34080 3.25073
# Velocity P-wave (km/s) = 5.82125 5.98559 5.90399
#
# Compressibility (1/GPa) = 0.02117415
#
# Stress axis : x y z
#
# Youngs Moduli (GPa) = 43.40505 65.75610 73.96496
#
# Poissons Ratio (x) = 0.45944 0.59379
# Poissons Ratio (y) = 0.30327 0.02079
# Poissons Ratio (z) = 0.34845 0.01848
#
# Static dielectric constant tensor:
#      x y z
#    x 1.954560 0.000000 0.002070 
#    y 0.000000 2.000940 0.000000 
#    z 0.002070 0.000000 1.843290 
# 
# From -- ./inp_files/268894.got.cif
#   From: 2010.05.17/outbox.cif.g08.bks.cpg/sg15_135_cif.got.tgz:268894.got - 2010.06.03 18:47:42.
