data_PCOD9298499
_publ_section_title
;
Structure prediction by ZEFSAII (Michael W. Deem and Ramdas Pophale) SiO2 
 PCOD9298499
Probable space group: C 2/C
;
_chemical_formula_sum "Si O2"
_cell_formula_units_Z 44
_cell_length_a 9.929565
_cell_length_b 14.596225
_cell_length_c 18.684323
_cell_angle_alpha 90.000000
_cell_angle_beta 131.217541
_cell_angle_gamma 90.000000
_cell_volume 2036.990947
_symmetry_space_group_name_H-M "C 2/C"
_symmetry_group_IT_number 15
_symmetry_cell_setting 'monoclinic'
loop_
_space_group_symop_operation_xyz
x,y,z
-x,y,1/2-z
-x,-y,-z
x,-y,1/2+z
1/2+x,1/2+y,z
1/2-x,1/2+y,1/2-z
1/2-x,1/2-y,-z
1/2+x,1/2-y,1/2+z
loop_
_atom_site_type_symbol
_atom_site_label
_atom_site_fract_x
_atom_site_fract_y
_atom_site_fract_z
Si Si1 0.351520 0.847121 0.347054
Si Si2 0.500000 0.115069 0.750000
Si Si3 0.091720 0.928143 0.084389
Si Si4 0.375970 0.517115 0.269343
Si Si5 0.363009 0.829879 0.761321
Si Si6 0.557979 0.771787 0.969559
O O1 0.465249 0.833779 0.313502
O O2 0.197254 0.770786 0.284392
O O3 0.432922 0.826815 0.453030
O O4 0.276929 0.950417 0.315982
O O5 0.691358 0.065697 0.832488
O O6 0.037091 0.825065 0.047313
O O7 0.020927 0.951355 0.139172
O O8 0.000000 0.000000 0.000000
O O9 0.500000 0.551088 0.250000
O O10 0.301121 0.601337 0.288318
O O11 0.500000 0.865106 0.750000
O O12 0.449169 0.823129 0.869644
O O13 0.750000 0.750000 0.000000
#
# Coordination Sequence:
#
# PCOD9298499 Si02
#       6
#     8   4   8   8   8   8
#     4  11  24  46  72 100 146 189 241 302 367 439
#     4  10  24  44  72 102 154 190 234 310 374 416
#     4  11  25  45  71 106 144 193 242 300 370 440
#     4  11  25  44  70 101 146 185 235 308 366 427
#     4  12  25  44  71 102 144 194 240 296 372 438
#     4  12  24  42  74 101 135 194 245 296 364 448
#
# _framework density 21.600487999999999
#
# number of rings (size 3 to 8) (size 9 to 14) (size 15 to 20)
#    0.000    0.727    5.455    2.727    6.364    2.909 
#    0.000    0.000    0.000    0.000    0.000    0.000 
#    0.000    0.000    0.000    0.000    0.000    0.000 
#
# Total GULP energy -122852.447376 kJ/mol
# GULP energy per Si atom -5584.202153 kJ/mol
# Density = 2.155132 g / cm^3
# Si number density = 21.600488 Si / 1000 Ang^3
#
#
#
# Elastic Constant Matrix: (Units=GPa)
#
#
# Indices 1 2 3 4 5 6 
#
# 1 116.5203 21.6648 15.7620 0.0000 -12.8184 0.0000
# 2 21.6648 67.7594 17.7460 0.0000 -0.6297 0.0000
# 3 15.7620 17.7460 132.0120 0.0000 -29.4106 0.0000
# 4 0.0000 0.0000 0.0000 36.9148 0.0000 5.2502
# 5 -12.8184 -0.6297 -29.4106 0.0000 42.0697 0.0000
# 6 0.0000 0.0000 0.0000 5.2502 0.0000 27.4499
#
#
#
# Elastic Compliance Matrix: (Units=1/GPa)
#
#
# Indices 1 2 3 4 5 6 
#
# 1 0.009452 -0.002966 -0.000116 0.000000 0.002754 0.000000
# 2 -0.002966 0.016301 -0.002350 0.000000 -0.002303 0.000000
# 3 -0.000116 -0.002350 0.009345 0.000000 0.006462 0.000000
# 4 0.000000 0.000000 0.000000 0.027847 0.000000 -0.005326
# 5 0.002754 -0.002303 0.006462 0.000000 0.029092 0.000000
# 6 0.000000 0.000000 0.000000 -0.005326 0.000000 0.037449
#
#
# Mechanical properties :
#
#
# Convention : Reuss Voigt Hill
#
# Bulk Modulus (GPa) = 41.26684 47.40414 44.33549
# Shear Modulus (GPa) = 33.68631 38.69481 36.19056
#
# Velocity S-wave (km/s) = 3.95336 4.23707 4.09767
# Velocity P-wave (km/s) = 6.32335 6.77720 6.55421
#
# Compressibility (1/GPa) = 0.02423253
#
# Stress axis : x y z
#
# Youngs Moduli (GPa) = 105.79270 61.34753 107.01431
#
# Poissons Ratio (x) = 0.18197 0.01244
# Poissons Ratio (y) = 0.31380 0.25149
# Poissons Ratio (z) = 0.01229 0.14417
#
# Static dielectric constant tensor:
#      x y z
#    x 1.939350 0.000000 -0.138240 
#    y 0.000000 1.792310 0.000000 
#    z -0.138240 0.000000 2.002280 
# 
# From -- ./inp_files/191200.got.cif
#   From: 2010.05.17/outbox.cif.g08.bks.cpg/sg15_96_cif.got.tgz:191200.got - 2010.06.03 18:47:42.
