data_PCOD9298795
_publ_section_title
;
Structure prediction by ZEFSAII (Michael W. Deem and Ramdas Pophale) SiO2 
 PCOD9298795
Probable space group: C 2/C
;
_chemical_formula_sum "Si O2"
_cell_formula_units_Z 36
_cell_length_a 12.842310
_cell_length_b 14.800520
_cell_length_c 9.592594
_cell_angle_alpha 90.000000
_cell_angle_beta 47.569784
_cell_angle_gamma 90.000000
_cell_volume 1345.771032
_symmetry_space_group_name_H-M "C 2/C"
_symmetry_group_IT_number 15
_symmetry_cell_setting 'monoclinic'
loop_
_space_group_symop_operation_xyz
x,y,z
-x,y,1/2-z
-x,-y,-z
x,-y,1/2+z
1/2+x,1/2+y,z
1/2-x,1/2+y,1/2-z
1/2-x,1/2-y,-z
1/2+x,1/2-y,1/2+z
loop_
_atom_site_type_symbol
_atom_site_label
_atom_site_fract_x
_atom_site_fract_y
_atom_site_fract_z
Si Si1 0.500000 0.236986 0.750000
Si Si2 0.000000 0.438904 0.750000
Si Si3 0.040906 0.838094 0.417737
Si Si4 0.264209 0.815124 0.823214
Si Si5 0.710952 0.912781 0.990725
Si Si6 0.000000 0.006020 0.750000
O O1 0.520854 0.297741 0.593638
O O2 0.632521 0.167807 0.645986
O O3 0.882653 0.375006 0.789641
O O4 0.095209 0.508497 0.573636
O O5 0.893338 0.808941 0.478530
O O6 0.177771 0.784399 0.248070
O O7 0.048441 0.937451 0.343096
O O8 0.250358 0.867381 0.689375
O O9 0.855241 0.953900 0.921619
#
# Coordination Sequence:
#
# PCOD9298795 Si02
#       6
#     4   4   8   8   8   4
#     4   9  24  53  75 100 153 210 242 285 386 471
#     4  11  21  46  68 101 143 196 240 305 363 446
#     4  11  26  46  75 110 147 197 247 310 370 446
#     4  11  25  44  71 103 150 195 244 297 379 451
#     4  10  24  45  75 105 147 199 244 304 374 454
#     4  12  25  47  79 117 146 182 260 324 363 419
#
# _framework density 26.750464999999998
#
# number of rings (size 3 to 8) (size 9 to 14) (size 15 to 20)
#    0.000    1.333    2.222    1.333    3.111    8.889 
#    4.000    0.000    0.000    0.000    0.000    0.000 
#    0.000    0.000    0.000    0.000    0.000    0.000 
#
# Total GULP energy -100672.040503 kJ/mol
# GULP energy per Si atom -5592.891139 kJ/mol
# Density = 2.668958 g / cm^3
# Si number density = 26.750465 Si / 1000 Ang^3
#
#
#
# Elastic Constant Matrix: (Units=GPa)
#
#
# Indices 1 2 3 4 5 6 
#
# 1 79.2714 57.0886 17.3831 0.0000 -13.8364 0.0000
# 2 57.0886 136.2147 37.1598 0.0000 -7.3708 0.0000
# 3 17.3831 37.1598 88.3912 0.0000 -28.3028 0.0000
# 4 0.0000 0.0000 0.0000 45.3284 0.0000 -19.4006
# 5 -13.8364 -7.3708 -28.3028 0.0000 65.9173 0.0000
# 6 0.0000 0.0000 0.0000 -19.4006 0.0000 54.1314
#
#
#
# Elastic Compliance Matrix: (Units=1/GPa)
#
#
# Indices 1 2 3 4 5 6 
#
# 1 0.018695 -0.007843 0.000691 0.000000 0.003344 0.000000
# 2 -0.007843 0.011607 -0.003999 0.000000 -0.002065 0.000000
# 3 0.000691 -0.003999 0.014796 0.000000 0.006051 0.000000
# 4 0.000000 0.000000 0.000000 0.026058 0.000000 0.009339
# 5 0.003344 -0.002065 0.006051 0.000000 0.018240 0.000000
# 6 0.000000 0.000000 0.000000 0.009339 0.000000 0.021821
#
#
# Mechanical properties :
#
#
# Convention : Reuss Voigt Hill
#
# Bulk Modulus (GPa) = 43.86348 58.57116 51.21732
# Shear Modulus (GPa) = 35.43151 45.89180 40.66165
#
# Velocity S-wave (km/s) = 3.64334 4.14642 3.90299
# Velocity P-wave (km/s) = 5.84221 6.69825 6.28483
#
# Compressibility (1/GPa) = 0.02279801
#
# Stress axis : x y z
#
# Youngs Moduli (GPa) = 53.48967 86.15123 67.58615
#
# Poissons Ratio (x) = 0.67568 -0.04673
# Poissons Ratio (y) = 0.41952 0.27026
# Poissons Ratio (z) = -0.03698 0.34449
#
# Static dielectric constant tensor:
#      x y z
#    x 2.108760 0.000000 0.071580 
#    y 0.000000 2.117590 0.000000 
#    z 0.071580 0.000000 2.106480 
# 
# From -- ./inp_files/47348.got.cif
#   From: 2010.05.17/outbox.cif.g08.bks.cpg/sg15_24_cif.got.tgz:47348.got - 2010.06.03 18:47:42.
