data_PCOD9298189
_publ_section_title
;
Structure prediction by ZEFSAII (Michael W. Deem and Ramdas Pophale) SiO2 
 PCOD9298189
Probable space group: C 2/C
;
_chemical_formula_sum "Si O2"
_cell_formula_units_Z 40
_cell_length_a 10.364101
_cell_length_b 29.507222
_cell_length_c 5.365940
_cell_angle_alpha 90.000000
_cell_angle_beta 82.585568
_cell_angle_gamma 90.000000
_cell_volume 1627.268567
_symmetry_space_group_name_H-M "C 2/C"
_symmetry_group_IT_number 15
_symmetry_cell_setting 'monoclinic'
loop_
_space_group_symop_operation_xyz
x,y,z
-x,y,1/2-z
-x,-y,-z
x,-y,1/2+z
1/2+x,1/2+y,z
1/2-x,1/2+y,1/2-z
1/2-x,1/2-y,-z
1/2+x,1/2-y,1/2+z
loop_
_atom_site_type_symbol
_atom_site_label
_atom_site_fract_x
_atom_site_fract_y
_atom_site_fract_z
Si Si1 0.633396 0.821792 0.615312
Si Si2 0.765214 0.100949 0.755438
Si Si3 0.000000 0.760807 0.250000
Si Si4 0.500000 0.468740 0.250000
Si Si5 0.855522 0.516547 0.592449
Si Si6 0.360821 0.676641 0.418977
O O1 0.500000 0.845178 0.750000
O O2 0.713270 0.856975 0.431037
O O3 0.569662 0.774227 0.539754
O O4 0.737023 0.806288 0.797272
O O5 0.818457 0.125718 0.499191
O O6 0.647658 0.065954 0.785478
O O7 0.879396 0.066446 0.804488
O O8 0.105793 0.792578 0.351566
O O9 0.500000 0.500000 0.500000
O O10 0.795413 0.485702 0.828023
O O11 0.000000 0.500000 0.500000
O O12 0.500000 0.675274 0.250000
#
# Coordination Sequence:
#
# PCOD9298189 Si02
#       6
#     8   8   4   4   8   8
#     4  10  27  46  77 112 156 199 262 329 403 484
#     4  12  27  47  74 110 149 200 265 321 404 465
#     4  10  25  50  74 116 148 210 262 316 421 464
#     4  12  29  50  80 114 160 216 272 334 399 488
#     4  10  24  43  73 105 148 197 246 317 392 473
#     4  12  26  47  78 107 160 206 262 332 387 497
#
# _framework density 24.581067000000001
#
# number of rings (size 3 to 8) (size 9 to 14) (size 15 to 20)
#    0.600    0.400    0.000    4.800    9.800    7.200 
#    0.000    0.000    0.000    0.000    0.000    0.000 
#    0.000    0.000    0.000    0.000    0.000    0.000 
#
# Total GULP energy -111477.974654 kJ/mol
# GULP energy per Si atom -5573.898733 kJ/mol
# Density = 2.452512 g / cm^3
# Si number density = 24.581067 Si / 1000 Ang^3
#
#
#
# Elastic Constant Matrix: (Units=GPa)
#
#
# Indices 1 2 3 4 5 6 
#
# 1 168.1047 49.3870 34.9910 0.0000 -22.2360 0.0000
# 2 49.3870 138.7898 33.6490 0.0000 -25.0224 0.0000
# 3 34.9910 33.6490 90.7968 0.0000 -20.9915 0.0000
# 4 0.0000 0.0000 0.0000 31.7630 0.0000 -20.5374
# 5 -22.2360 -25.0224 -20.9915 0.0000 33.2546 0.0000
# 6 0.0000 0.0000 0.0000 -20.5374 0.0000 61.0492
#
#
#
# Elastic Compliance Matrix: (Units=1/GPa)
#
#
# Indices 1 2 3 4 5 6 
#
# 1 0.007098 -0.001705 -0.001525 0.000000 0.002500 0.000000
# 2 -0.001705 0.009041 -0.001621 0.000000 0.004640 0.000000
# 3 -0.001525 -0.001621 0.013681 0.000000 0.006396 0.000000
# 4 0.000000 0.000000 0.000000 0.040235 0.000000 0.013535
# 5 0.002500 0.004640 0.006396 0.000000 0.039272 0.000000
# 6 0.000000 0.000000 0.000000 0.013535 0.000000 0.020934
#
#
# Mechanical properties :
#
#
# Convention : Reuss Voigt Hill
#
# Bulk Modulus (GPa) = 49.70849 70.41611 60.06230
# Shear Modulus (GPa) = 34.09040 43.85765 38.97403
#
# Velocity S-wave (km/s) = 3.72809 4.22857 3.98619
# Velocity P-wave (km/s) = 6.22878 7.24912 6.75823
#
# Compressibility (1/GPa) = 0.02011729
#
# Stress axis : x y z
#
# Youngs Moduli (GPa) = 140.88810 110.60245 73.09447
#
# Poissons Ratio (x) = 0.18859 0.11150
# Poissons Ratio (y) = 0.24023 0.11848
# Poissons Ratio (z) = 0.21491 0.17927
#
# Static dielectric constant tensor:
#      x y z
#    x 2.096080 0.000000 0.003110 
#    y 0.000000 1.963720 0.000000 
#    z 0.003110 0.000000 2.161520 
# 
# From -- ./inp_files/5509.got.cif
#   From: 2010.05.17/outbox.cif.g08.bks.cpg/sg15_3_cif.got.tgz:5509.got - 2010.06.03 18:47:42.
