data_PCOD9298598
_publ_section_title
;
Structure prediction by ZEFSAII (Michael W. Deem and Ramdas Pophale) SiO2 
 PCOD9298598
Probable space group: C 2/C
;
_chemical_formula_sum "Si O2"
_cell_formula_units_Z 44
_cell_length_a 8.295084
_cell_length_b 29.438458
_cell_length_c 8.959169
_cell_angle_alpha 90.000000
_cell_angle_beta 61.543727
_cell_angle_gamma 90.000000
_cell_volume 1923.454317
_symmetry_space_group_name_H-M "C 2/C"
_symmetry_group_IT_number 15
_symmetry_cell_setting 'monoclinic'
loop_
_space_group_symop_operation_xyz
x,y,z
-x,y,1/2-z
-x,-y,-z
x,-y,1/2+z
1/2+x,1/2+y,z
1/2-x,1/2+y,1/2-z
1/2-x,1/2-y,-z
1/2+x,1/2-y,1/2+z
loop_
_atom_site_type_symbol
_atom_site_label
_atom_site_fract_x
_atom_site_fract_y
_atom_site_fract_z
Si Si1 0.180960 0.394224 0.600232
Si Si2 0.000000 0.009530 0.250000
Si Si3 0.836611 0.812081 0.719603
Si Si4 0.577147 0.562703 0.943140
Si Si5 0.180808 0.354558 0.269042
Si Si6 0.914036 0.763527 0.129958
O O1 0.231466 0.352173 0.685547
O O2 0.361008 0.425673 0.520732
O O3 0.148360 0.373128 0.450598
O O4 0.000000 0.416439 0.750000
O O5 0.888626 0.041748 0.410216
O O6 0.883124 0.976280 0.195789
O O7 0.702682 0.779583 0.872644
O O8 0.000000 0.830372 0.750000
O O9 0.932883 0.780167 0.552810
O O10 0.686035 0.608189 0.863781
O O11 0.286446 0.306820 0.221510
O O12 0.000000 0.351076 0.250000
O O13 0.000000 0.749065 0.250000
#
# Coordination Sequence:
#
# PCOD9298598 Si02
#       6
#     8   4   8   8   8   8
#     4  12  27  44  71 105 143 185 237 286 350 419
#     4  10  24  44  84 100 138 186 226 294 354 432
#     4  12  27  43  69 100 142 187 239 289 344 407
#     4  11  23  51  72 106 142 182 233 286 363 410
#     4  12  26  46  72 101 143 192 232 288 351 414
#     4  12  24  46  67  98 144 187 235 295 338 406
#
# _framework density 22.875509999999998
#
# number of rings (size 3 to 8) (size 9 to 14) (size 15 to 20)
#    0.000    0.364    5.455    2.182    8.909    0.000 
#    0.000    5.455    0.000    0.000    0.000    0.000 
#    0.000    0.000    0.000    0.000    0.000    0.000 
#
# Total GULP energy -123307.410729 kJ/mol
# GULP energy per Si atom -5604.882306 kJ/mol
# Density = 2.282344 g / cm^3
# Si number density = 22.875510 Si / 1000 Ang^3
#
#
#
# Elastic Constant Matrix: (Units=GPa)
#
#
# Indices 1 2 3 4 5 6 
#
# 1 99.4354 25.5715 24.6827 0.0000 -6.5539 0.0000
# 2 25.5715 85.5710 21.7056 0.0000 2.6763 0.0000
# 3 24.6827 21.7056 86.3555 0.0000 3.2045 0.0000
# 4 0.0000 0.0000 0.0000 43.0074 0.0000 4.6682
# 5 -6.5539 2.6763 3.2045 0.0000 36.8646 0.0000
# 6 0.0000 0.0000 0.0000 4.6682 0.0000 -0.8591
#
#
#
# Elastic Compliance Matrix: (Units=1/GPa)
#
#
# Indices 1 2 3 4 5 6 
#
# 1 0.011629 -0.002870 -0.002696 0.000000 0.002510 0.000000
# 2 -0.002870 0.013205 -0.002452 0.000000 -0.001256 0.000000
# 3 -0.002696 -0.002452 0.013020 0.000000 -0.001433 0.000000
# 4 0.000000 0.000000 0.000000 0.014625 0.000000 0.079474
# 5 0.002510 -0.001256 -0.001433 0.000000 0.027788 0.000000
# 6 0.000000 0.000000 0.000000 0.079474 0.000000 -0.732180
#
#
# Mechanical properties :
#
#
# Convention : Reuss Voigt Hill
#
# Bulk Modulus (GPa) = 45.83214 46.14239 45.98726
# Shear Modulus (GPa) = -7.95415 29.09606 10.57095
#
# Velocity S-wave (km/s) = -1.86673 3.57028 2.15200
# Velocity P-wave (km/s) = 3.92845 6.10006 5.13047
#
# Compressibility (1/GPa) = 0.02181875
#
# Stress axis : x y z
#
# Youngs Moduli (GPa) = 85.98855 75.72811 76.80423
#
# Poissons Ratio (x) = 0.21734 0.20705
# Poissons Ratio (y) = 0.24679 0.18834
# Poissons Ratio (z) = 0.23181 0.18570
#
# Static dielectric constant tensor:
#      x y z
#    x 1.834110 0.000000 0.005070 
#    y 0.000000 1.796080 0.000000 
#    z 0.005070 0.000000 1.879030 
# 
# From -- ./inp_files/25990.got.cif
#   From: 2010.05.17/outbox.cif.g08.bks.cpg/sg15_13_cif.got.tgz:25990.got - 2010.06.03 18:47:42.
