data_PCOD9298518
_publ_section_title
;
Structure prediction by ZEFSAII (Michael W. Deem and Ramdas Pophale) SiO2 
 PCOD9298518
Probable space group: C 2/C
;
_chemical_formula_sum "Si O2"
_cell_formula_units_Z 44
_cell_length_a 8.868246
_cell_length_b 22.795504
_cell_length_c 16.577576
_cell_angle_alpha 90.000000
_cell_angle_beta 43.187148
_cell_angle_gamma 90.000000
_cell_volume 2293.546425
_symmetry_space_group_name_H-M "C 2/C"
_symmetry_group_IT_number 15
_symmetry_cell_setting 'monoclinic'
loop_
_space_group_symop_operation_xyz
x,y,z
-x,y,1/2-z
-x,-y,-z
x,-y,1/2+z
1/2+x,1/2+y,z
1/2-x,1/2+y,1/2-z
1/2-x,1/2-y,-z
1/2+x,1/2-y,1/2+z
loop_
_atom_site_type_symbol
_atom_site_label
_atom_site_fract_x
_atom_site_fract_y
_atom_site_fract_z
Si Si1 0.757516 0.692062 0.820419
Si Si2 0.367133 0.687004 0.456985
Si Si3 0.208888 0.902692 0.207808
Si Si4 0.610997 0.103728 0.434864
Si Si5 0.500000 0.487533 0.750000
Si Si6 0.123405 0.693237 0.287594
O O1 0.795415 0.639128 0.743508
O O2 0.612799 0.744412 0.838778
O O3 0.000000 0.715603 0.750000
O O4 0.648024 0.667975 0.944221
O O5 0.250000 0.750000 0.500000
O O6 0.231642 0.647913 0.448474
O O7 0.618164 0.687312 0.332392
O O8 0.000000 0.869405 0.250000
O O9 0.098050 0.964863 0.275996
O O10 0.391132 0.914879 0.068385
O O11 0.559823 0.140222 0.373091
O O12 0.791311 0.052787 0.351750
O O13 0.000000 0.693330 0.250000
#
# Coordination Sequence:
#
# PCOD9298518 Si02
#       6
#     8   8   8   8   4   8
#     4  12  22  41  65  98 134 172 214 264 336 396
#     4  12  22  40  68  97 132 176 213 267 337 406
#     4  10  25  42  67  99 130 179 221 271 324 384
#     4  12  21  46  70  95 132 176 223 269 335 395
#     4  10  24  44  72  90 132 180 228 266 328 382
#     4  12  26  38  65 103 135 169 215 278 332 391
#
# _framework density 19.184263999999999
#
# number of rings (size 3 to 8) (size 9 to 14) (size 15 to 20)
#    0.545    0.000    7.273    1.091    2.545    0.727 
#    0.000    1.818    0.000    0.000    0.000    0.000 
#    0.000    0.000    0.000    0.000    0.000    0.000 
#
# Total GULP energy -122661.313989 kJ/mol
# GULP energy per Si atom -5575.514272 kJ/mol
# Density = 1.914060 g / cm^3
# Si number density = 19.184264 Si / 1000 Ang^3
#
#
#
# Elastic Constant Matrix: (Units=GPa)
#
#
# Indices 1 2 3 4 5 6 
#
# 1 100.2559 39.7983 25.9604 0.0001 13.1737 0.0000
# 2 39.7983 100.8800 15.5776 0.0000 14.0790 0.0000
# 3 25.9604 15.5776 75.3190 0.0003 10.9991 -0.0002
# 4 0.0001 0.0000 0.0003 12.5325 -0.0002 -0.6048
# 5 13.1737 14.0790 10.9991 -0.0002 36.7692 0.0001
# 6 0.0000 0.0000 -0.0002 -0.6048 0.0001 25.2767
#
#
#
# Elastic Compliance Matrix: (Units=1/GPa)
#
#
# Indices 1 2 3 4 5 6 
#
# 1 0.012761 -0.004260 -0.003229 0.000000 -0.001975 0.000000
# 2 -0.004260 0.012095 -0.000606 0.000000 -0.002924 0.000000
# 3 -0.003229 -0.000606 0.014966 0.000000 -0.003088 0.000000
# 4 0.000000 0.000000 0.000000 0.079885 0.000001 0.001911
# 5 -0.001975 -0.002924 -0.003088 0.000001 0.029947 0.000000
# 6 0.000000 0.000000 0.000000 0.001911 0.000000 0.039608
#
#
# Mechanical properties :
#
#
# Convention : Reuss Voigt Hill
#
# Bulk Modulus (GPa) = 42.31599 48.79196 45.55397
# Shear Modulus (GPa) = 23.43781 27.92358 25.68069
#
# Velocity S-wave (km/s) = 3.49910 3.81930 3.66270
# Velocity P-wave (km/s) = 6.19923 6.70358 6.45633
#
# Compressibility (1/GPa) = 0.02363173
#
# Stress axis : x y z
#
# Youngs Moduli (GPa) = 78.36208 82.67813 66.81757
#
# Poissons Ratio (x) = 0.35223 0.21575
# Poissons Ratio (y) = 0.33384 0.04051
# Poissons Ratio (z) = 0.25303 0.05012
#
# Static dielectric constant tensor:
#      x y z
#    x 1.697330 0.000000 0.000540 
#    y 0.000000 1.693320 0.000000 
#    z 0.000540 0.000000 1.719800 
# 
# From -- ./inp_files/137163.got.cif
#   From: 2010.05.17/outbox.cif.g08.bks.cpg/sg15_69_cif.got.tgz:137163.got - 2010.06.03 18:47:42.
