data_PCOD9298650
_publ_section_title
;
Structure prediction by ZEFSAII (Michael W. Deem and Ramdas Pophale) SiO2 
 PCOD9298650
Probable space group: C 2/C
;
_chemical_formula_sum "Si O2"
_cell_formula_units_Z 48
_cell_length_a 15.842024
_cell_length_b 26.703560
_cell_length_c 9.716411
_cell_angle_alpha 90.000000
_cell_angle_beta 145.741533
_cell_angle_gamma 90.000000
_cell_volume 2313.864072
_symmetry_space_group_name_H-M "C 2/C"
_symmetry_group_IT_number 15
_symmetry_cell_setting 'monoclinic'
loop_
_space_group_symop_operation_xyz
x,y,z
-x,y,1/2-z
-x,-y,-z
x,-y,1/2+z
1/2+x,1/2+y,z
1/2-x,1/2+y,1/2-z
1/2-x,1/2-y,-z
1/2+x,1/2-y,1/2+z
loop_
_atom_site_type_symbol
_atom_site_label
_atom_site_fract_x
_atom_site_fract_y
_atom_site_fract_z
Si Si1 0.314462 0.923849 0.254474
Si Si2 0.711304 0.369900 0.711924
Si Si3 0.389101 0.518570 0.472897
Si Si4 0.223863 0.808807 0.458216
Si Si5 0.000000 0.621346 0.250000
Si Si6 0.557135 0.658459 0.463806
Si Si7 0.000000 0.389001 0.250000
O O1 0.429193 0.911362 0.532491
O O2 0.180796 0.882626 0.085761
O O3 0.401276 0.919640 0.227127
O O4 0.234791 0.976490 0.168560
O O5 0.694976 0.428350 0.652697
O O6 0.668014 0.333682 0.526262
O O7 0.591484 0.365034 0.671797
O O8 0.877414 0.358968 0.994286
O O9 0.500000 0.500000 0.500000
O O10 0.500000 0.523471 0.750000
O O11 0.250000 0.750000 0.500000
O O12 0.371652 0.842114 0.632958
O O13 0.127582 0.814447 0.189610
O O14 0.500000 0.686761 0.250000
#
# Coordination Sequence:
#
# PCOD9298650 Si02
#       7
#     8   8   8   8   4   8   4
#     4  11  23  44  67 100 146 185 224 293 353 429
#     4  12  25  45  71 103 140 189 238 294 359 434
#     4  12  25  42  69 105 139 185 246 289 347 437
#     4  11  26  47  71 102 143 188 242 301 363 425
#     4  10  24  45  68 102 142 186 238 297 360 430
#     4  11  22  44  73 101 134 182 239 286 347 430
#     4  12  24  43  66 104 146 178 224 289 370 424
#
# _framework density 20.744520999999999
#
# number of rings (size 3 to 8) (size 9 to 14) (size 15 to 20)
#    0.000    0.667    5.000    3.000    4.667    1.333 
#    1.500    0.833    0.000    0.000    0.000    0.000 
#    0.000    0.000    0.000    0.000    0.000    0.000 
#
# Total GULP energy -134025.557884 kJ/mol
# GULP energy per Si atom -5584.398245 kJ/mol
# Density = 2.069731 g / cm^3
# Si number density = 20.744521 Si / 1000 Ang^3
#
#
#
# Elastic Constant Matrix: (Units=GPa)
#
#
# Indices 1 2 3 4 5 6 
#
# 1 139.3096 24.8398 43.4969 0.0000 -10.3366 0.0000
# 2 24.8398 97.6481 53.5778 0.0000 -12.9371 0.0000
# 3 43.4969 53.5778 186.0627 0.0000 -20.3685 0.0000
# 4 0.0000 0.0000 0.0000 46.1085 0.0000 39.7653
# 5 -10.3366 -12.9371 -20.3685 0.0000 40.8653 0.0000
# 6 0.0000 0.0000 0.0000 39.7653 0.0000 53.9268
#
#
#
# Elastic Compliance Matrix: (Units=1/GPa)
#
#
# Indices 1 2 3 4 5 6 
#
# 1 0.007889 -0.001101 -0.001425 0.000000 0.000937 0.000000
# 2 -0.001101 0.012511 -0.003112 0.000000 0.002131 0.000000
# 3 -0.001425 -0.003112 0.006829 0.000000 0.002058 0.000000
# 4 0.000000 0.000000 0.000000 0.059574 0.000000 -0.043929
# 5 0.000937 0.002131 0.002058 0.000000 0.026408 0.000000
# 6 0.000000 0.000000 0.000000 -0.043929 0.000000 0.050937
#
#
# Mechanical properties :
#
#
# Convention : Reuss Voigt Hill
#
# Bulk Modulus (GPa) = 62.68177 74.09437 68.38807
# Shear Modulus (GPa) = 27.66398 48.25385 37.95891
#
# Velocity S-wave (km/s) = 3.65575 4.82820 4.28229
# Velocity P-wave (km/s) = 6.93549 8.17784 7.58215
#
# Compressibility (1/GPa) = 0.01595360
#
# Stress axis : x y z
#
# Youngs Moduli (GPa) = 126.76040 79.93166 146.43487
#
# Poissons Ratio (x) = 0.08800 0.20862
# Poissons Ratio (y) = 0.13956 0.45568
# Poissons Ratio (z) = 0.18059 0.24873
#
# Static dielectric constant tensor:
#      x y z
#    x 1.847140 0.000000 -0.010030 
#    y 0.000000 1.643950 0.000000 
#    z -0.010030 0.000000 1.797420 
# 
# From -- ./inp_files/44004.got.cif
#   From: 2010.05.17/outbox.cif.g08.bks.cpg/sg15_23_cif.got.tgz:44004.got - 2010.06.03 18:47:42.
