data_PCOD9298474
_publ_section_title
;
Structure prediction by ZEFSAII (Michael W. Deem and Ramdas Pophale) SiO2 
 PCOD9298474
Probable space group: C 2/C
;
_chemical_formula_sum "Si O2"
_cell_formula_units_Z 40
_cell_length_a 24.485489
_cell_length_b 13.765311
_cell_length_c 9.551099
_cell_angle_alpha 90.000000
_cell_angle_beta 146.642472
_cell_angle_gamma 90.000000
_cell_volume 1770.115705
_symmetry_space_group_name_H-M "C 2/C"
_symmetry_group_IT_number 15
_symmetry_cell_setting 'monoclinic'
loop_
_space_group_symop_operation_xyz
x,y,z
-x,y,1/2-z
-x,-y,-z
x,-y,1/2+z
1/2+x,1/2+y,z
1/2-x,1/2+y,1/2-z
1/2-x,1/2-y,-z
1/2+x,1/2-y,1/2+z
loop_
_atom_site_type_symbol
_atom_site_label
_atom_site_fract_x
_atom_site_fract_y
_atom_site_fract_z
Si Si1 0.308708 0.942192 0.951976
Si Si2 0.114116 0.928975 0.991683
Si Si3 0.253762 0.844582 0.098567
Si Si4 0.409286 0.139289 0.153405
Si Si5 0.101624 0.715909 0.055552
O O1 0.325727 0.853694 0.880593
O O2 0.199352 0.991135 0.701187
O O3 0.314426 0.915778 0.127988
O O4 0.392122 0.023535 0.108268
O O5 0.000000 0.962209 0.750000
O O6 0.146747 0.886855 0.909512
O O7 0.124142 0.831928 0.109485
O O8 0.311692 0.823562 0.364488
O O9 0.250000 0.750000 0.000000
O O10 0.500000 0.169502 0.250000
O O11 0.412169 0.174952 0.318249
O O12 0.000000 0.710926 0.750000
#
# Coordination Sequence:
#
# PCOD9298474 Si02
#       5
#     8   8   8   8   8
#     4  11  23  43  71  98 142 181 228 290 348 408
#     4  10  24  44  71 100 139 183 237 279 346 413
#     4  11  23  44  67  97 139 182 227 281 339 408
#     4  11  24  40  68 106 134 175 230 285 350 412
#     4  11  23  44  73 102 140 181 228 294 350 410
#
# _framework density 22.597394000000001
#
# number of rings (size 3 to 8) (size 9 to 14) (size 15 to 20)
#    0.000    1.200    2.000    4.200    2.800    6.400 
#    7.200    1.000    0.000    0.000    0.000    0.000 
#    0.000    0.000    0.000    0.000    0.000    0.000 
#
# Total GULP energy -111676.389712 kJ/mol
# GULP energy per Si atom -5583.819486 kJ/mol
# Density = 2.254596 g / cm^3
# Si number density = 22.597394 Si / 1000 Ang^3
#
#
#
# Elastic Constant Matrix: (Units=GPa)
#
#
# Indices 1 2 3 4 5 6 
#
# 1 150.8371 14.2773 64.4174 0.0000 -2.0911 0.0000
# 2 14.2773 61.3329 26.9168 0.0000 5.8014 0.0000
# 3 64.4174 26.9168 107.3413 0.0000 1.5816 0.0000
# 4 0.0000 0.0000 0.0000 -1.3599 0.0000 13.2981
# 5 -2.0911 5.8014 1.5816 0.0000 45.8891 0.0000
# 6 0.0000 0.0000 0.0000 13.2981 0.0000 37.6179
#
#
#
# Elastic Compliance Matrix: (Units=1/GPa)
#
#
# Indices 1 2 3 4 5 6 
#
# 1 0.008934 0.000251 -0.005433 0.000000 0.000563 0.000000
# 2 0.000251 0.018544 -0.004769 0.000000 -0.002169 0.000000
# 3 -0.005433 -0.004769 0.013774 0.000000 -0.000119 0.000000
# 4 0.000000 0.000000 0.000000 -0.164994 0.000000 0.058326
# 5 0.000563 -0.002169 -0.000119 0.000000 0.022096 0.000000
# 6 0.000000 0.000000 0.000000 0.058326 0.000000 0.005965
#
#
# Mechanical properties :
#
#
# Convention : Reuss Voigt Hill
#
# Bulk Modulus (GPa) = 46.83581 58.97048 52.90315
# Shear Modulus (GPa) = -72.81728 30.68941 -21.06394
#
# Velocity S-wave (km/s) = -5.68276 3.68923 -3.05641
# Velocity P-wave (km/s) = 4.72092 6.65583 3.31760
#
# Compressibility (1/GPa) = 0.02135118
#
# Stress axis : x y z
#
# Youngs Moduli (GPa) = 111.93492 53.92581 72.60106
#
# Poissons Ratio (x) = -0.01355 0.39441
# Poissons Ratio (y) = -0.02813 0.34623
# Poissons Ratio (z) = 0.60810 0.25717
#
# Static dielectric constant tensor:
#      x y z
#    x 2.005110 0.000000 0.149050 
#    y 0.000000 1.952960 0.000000 
#    z 0.149050 0.000000 1.939870 
# 
# From -- ./inp_files/61729.got.cif
#   From: 2010.05.17/outbox.cif.g08.bks.cpg/sg15_31_cif.got.tgz:61729.got - 2010.06.03 18:47:42.
