data_PCOD9298290
_publ_section_title
;
Structure prediction by ZEFSAII (Michael W. Deem and Ramdas Pophale) SiO2 
 PCOD9298290
Probable space group: C 2/C
;
_chemical_formula_sum "Si O2"
_cell_formula_units_Z 64
_cell_length_a 15.739365
_cell_length_b 16.396176
_cell_length_c 17.283397
_cell_angle_alpha 90.000000
_cell_angle_beta 142.096234
_cell_angle_gamma 90.000000
_cell_volume 2740.094888
_symmetry_space_group_name_H-M "C 2/C"
_symmetry_group_IT_number 15
_symmetry_cell_setting 'monoclinic'
loop_
_space_group_symop_operation_xyz
x,y,z
-x,y,1/2-z
-x,-y,-z
x,-y,1/2+z
1/2+x,1/2+y,z
1/2-x,1/2+y,1/2-z
1/2-x,1/2-y,-z
1/2+x,1/2-y,1/2+z
loop_
_atom_site_type_symbol
_atom_site_label
_atom_site_fract_x
_atom_site_fract_y
_atom_site_fract_z
Si Si1 0.220061 0.079881 0.032817
Si Si2 0.355526 0.690857 0.304716
Si Si3 0.159607 0.477620 0.042059
Si Si4 0.985022 0.216796 0.646806
Si Si5 0.134279 0.904973 0.016131
Si Si6 0.158394 0.874506 0.863615
Si Si7 0.087898 0.389184 0.690735
Si Si8 0.741997 0.858762 0.234022
O O1 0.350147 0.083600 0.182935
O O2 0.129471 0.002162 0.996026
O O3 0.262296 0.061368 0.975815
O O4 0.143879 0.166357 0.978199
O O5 0.484556 0.635033 0.421108
O O6 0.351704 0.695362 0.208155
O O7 0.218280 0.646641 0.237646
O O8 0.363115 0.782496 0.341778
O O9 0.222959 0.567248 0.084792
O O10 0.199703 0.430883 0.147826
O O11 0.998824 0.461171 0.910345
O O12 0.985606 0.312233 0.628250
O O13 0.117509 0.178073 0.700550
O O14 0.000000 0.206647 0.750000
O O15 0.227336 0.888214 0.157322
O O16 0.189064 0.863005 0.976037
O O17 0.000000 0.911106 0.750000
#
# Coordination Sequence:
#
# PCOD9298290 Si02
#       8
#     8   8   8   8   8   8   8   8
#     4  11  24  44  69  97 135 183 238 273 329 408
#     4  10  24  44  66 101 135 177 230 277 343 404
#     4  11  24  41  66  99 139 178 219 279 346 406
#     4  11  23  38  64  97 135 182 221 269 333 401
#     4  10  24  46  73 100 125 179 243 291 327 394
#     4   9  22  46  74  97 129 176 238 289 331 396
#     4  11  26  40  61  99 145 183 218 273 345 419
#     4  11  25  39  66 102 135 171 224 282 344 398
#
# _framework density 23.356857000000002
#
# number of rings (size 3 to 8) (size 9 to 14) (size 15 to 20)
#    0.000    1.500    1.250    1.875   14.000    3.000 
#    0.000    0.000    0.000    0.000    0.000    0.000 
#    0.000    0.000    0.000    0.000    0.000    0.000 
#
# Total GULP energy -179077.559605 kJ/mol
# GULP energy per Si atom -5596.173738 kJ/mol
# Density = 2.330370 g / cm^3
# Si number density = 23.356857 Si / 1000 Ang^3
#
#
#
# Elastic Constant Matrix: (Units=GPa)
#
#
# Indices 1 2 3 4 5 6 
#
# 1 85.5797 37.7036 34.3370 0.0000 -25.7708 0.0000
# 2 37.7036 51.8308 17.6475 -0.0001 4.2175 0.0000
# 3 34.3370 17.6475 93.0895 -0.0002 -25.4147 -0.0001
# 4 0.0000 -0.0001 -0.0002 15.9588 -0.0001 -5.5341
# 5 -25.7708 4.2175 -25.4147 -0.0001 43.6999 0.0000
# 6 0.0000 0.0000 -0.0001 -5.5341 0.0000 25.9281
#
#
#
# Elastic Compliance Matrix: (Units=1/GPa)
#
#
# Indices 1 2 3 4 5 6 
#
# 1 0.025785 -0.019632 -0.001332 0.000000 0.016326 0.000000
# 2 -0.019632 0.036562 -0.004534 0.000000 -0.017743 0.000000
# 3 -0.001332 -0.004534 0.014263 0.000000 0.007947 0.000000
# 4 0.000000 0.000000 0.000000 0.067670 0.000000 0.014444
# 5 0.016326 -0.017743 0.007947 0.000000 0.038845 0.000000
# 6 0.000000 0.000000 0.000000 0.014444 0.000000 0.041651
#
#
# Mechanical properties :
#
#
# Convention : Reuss Voigt Hill
#
# Bulk Modulus (GPa) = 39.04100 45.54178 42.29139
# Shear Modulus (GPa) = 17.58650 26.50483 22.04566
#
# Velocity S-wave (km/s) = 2.74697 3.37230 3.07557
# Velocity P-wave (km/s) = 5.17807 5.89099 5.54600
#
# Compressibility (1/GPa) = 0.02561410
#
# Stress axis : x y z
#
# Youngs Moduli (GPa) = 38.78252 27.35093 70.11235
#
# Poissons Ratio (x) = 0.53695 0.09340
# Poissons Ratio (y) = 0.76137 0.31788
# Poissons Ratio (z) = 0.05166 0.12401
#
# Static dielectric constant tensor:
#      x y z
#    x 1.905970 0.000000 0.000160 
#    y 0.000000 1.872600 0.000000 
#    z 0.000160 0.000000 1.859350 
# 
# From -- ./inp_files/206462.got.cif
#   From: 2010.05.17/outbox.cif.g08.bks.cpg/sg15_104_cif.got.tgz:206462.got - 2010.06.03 18:47:42.
