data_PCOD9298436
_publ_section_title
;
Structure prediction by ZEFSAII (Michael W. Deem and Ramdas Pophale) SiO2 
 PCOD9298436
Probable space group: C 2/C
;
_chemical_formula_sum "Si O2"
_cell_formula_units_Z 36
_cell_length_a 21.982872
_cell_length_b 10.660383
_cell_length_c 15.186493
_cell_angle_alpha 90.000000
_cell_angle_beta 26.414409
_cell_angle_gamma 90.000000
_cell_volume 1583.209925
_symmetry_space_group_name_H-M "C 2/C"
_symmetry_group_IT_number 15
_symmetry_cell_setting 'monoclinic'
loop_
_space_group_symop_operation_xyz
x,y,z
-x,y,1/2-z
-x,-y,-z
x,-y,1/2+z
1/2+x,1/2+y,z
1/2-x,1/2+y,1/2-z
1/2-x,1/2-y,-z
1/2+x,1/2-y,1/2+z
loop_
_atom_site_type_symbol
_atom_site_label
_atom_site_fract_x
_atom_site_fract_y
_atom_site_fract_z
Si Si1 0.746906 0.110211 0.035315
Si Si2 0.028564 0.120753 0.396014
Si Si3 0.849314 0.402539 0.465339
Si Si4 0.500000 0.460112 0.750000
Si Si5 0.096368 0.612058 0.404609
O O1 0.713374 0.111375 0.181036
O O2 0.651178 0.022999 0.098871
O O3 0.750000 0.250000 0.000000
O O4 0.893137 0.048229 0.840147
O O5 0.974185 0.251117 0.507089
O O6 0.191027 0.146903 0.160755
O O7 0.000000 0.000000 0.500000
O O8 0.947963 0.109220 0.406041
O O9 0.853442 0.422079 0.563823
O O10 0.000000 0.342000 0.250000
O O11 0.000000 0.500000 0.500000
#
# Coordination Sequence:
#
# PCOD9298436 Si02
#       5
#     8   8   8   4   8
#     4  11  25  45  74 104 148 193 239 301 365 436
#     4  11  26  47  73 107 145 192 243 299 366 438
#     4  11  25  46  70 107 147 187 249 298 366 435
#     4  10  24  44  70 102 144 186 238 294 364 426
#     4  12  26  45  74 105 143 191 241 300 360 432
#
# _framework density 22.738613999999998
#
# number of rings (size 3 to 8) (size 9 to 14) (size 15 to 20)
#    0.000    0.889    2.222    4.000    3.111    8.000 
#    0.000    0.000    0.000    0.000    0.000    0.000 
#    0.000    0.000    0.000    0.000    0.000    0.000 
#
# Total GULP energy -100265.138596 kJ/mol
# GULP energy per Si atom -5570.285478 kJ/mol
# Density = 2.268686 g / cm^3
# Si number density = 22.738614 Si / 1000 Ang^3
#
#
#
# Elastic Constant Matrix: (Units=GPa)
#
#
# Indices 1 2 3 4 5 6 
#
# 1 118.9790 19.1446 -7.6637 0.0000 18.2083 0.0000
# 2 19.1446 123.1932 3.2846 0.0000 2.5740 0.0000
# 3 -7.6637 3.2846 64.8702 0.0000 5.8853 0.0000
# 4 0.0000 0.0000 0.0000 24.5659 0.0000 22.9690
# 5 18.2083 2.5740 5.8853 0.0000 53.7142 0.0000
# 6 0.0000 0.0000 0.0000 22.9690 0.0000 15.6569
#
#
#
# Elastic Compliance Matrix: (Units=1/GPa)
#
#
# Indices 1 2 3 4 5 6 
#
# 1 0.009216 -0.001404 0.001452 0.000000 -0.003216 0.000000
# 2 -0.001404 0.008349 -0.000601 0.000000 0.000142 0.000000
# 3 0.001452 -0.000601 0.015817 0.000000 -0.002196 0.000000
# 4 0.000000 0.000000 0.000000 -0.109525 0.000000 0.160676
# 5 -0.003216 0.000142 -0.002196 0.000000 0.019941 0.000000
# 6 0.000000 0.000000 0.000000 0.160676 0.000000 -0.171846
#
#
# Mechanical properties :
#
#
# Convention : Reuss Voigt Hill
#
# Bulk Modulus (GPa) = 30.98419 37.39704 34.19062
# Shear Modulus (GPa) = -23.12850 38.27252 7.57201
#
# Velocity S-wave (km/s) = -3.19273 4.10707 1.82681
# Velocity P-wave (km/s) = 0.25383 6.24283 4.41799
#
# Compressibility (1/GPa) = 0.03227453
#
# Stress axis : x y z
#
# Youngs Moduli (GPa) = 108.50225 119.78125 63.22473
#
# Poissons Ratio (x) = 0.16814 -0.09178
# Poissons Ratio (y) = 0.15231 0.03802
# Poissons Ratio (z) = -0.15751 0.07204
#
# Static dielectric constant tensor:
#      x y z
#    x 1.843530 0.000000 -0.194870 
#    y 0.000000 1.855690 0.000000 
#    z -0.194870 0.000000 1.621180 
# 
# From -- ./inp_files/167489.got.cif
#   From: 2010.05.17/outbox.cif.g08.bks.cpg/sg15_84_cif.got.tgz:167489.got - 2010.06.03 18:47:42.
