data_PCOD9298365
_publ_section_title
;
Structure prediction by ZEFSAII (Michael W. Deem and Ramdas Pophale) SiO2 
 PCOD9298365
Probable space group: C 2/C
;
_chemical_formula_sum "Si O2"
_cell_formula_units_Z 56
_cell_length_a 13.610086
_cell_length_b 9.180709
_cell_length_c 21.827670
_cell_angle_alpha 90.000000
_cell_angle_beta 91.063310
_cell_angle_gamma 90.000000
_cell_volume 2726.902932
_symmetry_space_group_name_H-M "C 2/C"
_symmetry_group_IT_number 15
_symmetry_cell_setting 'monoclinic'
loop_
_space_group_symop_operation_xyz
x,y,z
-x,y,1/2-z
-x,-y,-z
x,-y,1/2+z
1/2+x,1/2+y,z
1/2-x,1/2+y,1/2-z
1/2-x,1/2-y,-z
1/2+x,1/2-y,1/2+z
loop_
_atom_site_type_symbol
_atom_site_label
_atom_site_fract_x
_atom_site_fract_y
_atom_site_fract_z
Si Si1 0.693794 0.770544 0.911628
Si Si2 0.499497 0.759663 0.838386
Si Si3 0.815640 0.765772 0.419749
Si Si4 0.810406 0.857756 0.800794
Si Si5 0.500000 0.503849 0.750000
Si Si6 0.689399 0.152931 0.808565
Si Si7 0.256280 0.501088 0.514321
Si Si8 0.000000 0.512992 0.750000
O O1 0.594438 0.811967 0.875911
O O2 0.785064 0.779486 0.864739
O O3 0.708122 0.887144 0.965778
O O4 0.686483 0.608670 0.939395
O O5 0.410192 0.709146 0.879235
O O6 0.538805 0.621263 0.799979
O O7 0.458310 0.895412 0.798269
O O8 0.718305 0.785289 0.375702
O O9 0.814920 0.604148 0.447915
O O10 0.815014 0.884971 0.473638
O O11 0.774168 0.761880 0.743585
O O12 0.749771 0.005283 0.803956
O O13 0.920212 0.906107 0.783929
O O14 0.578994 0.109945 0.787270
#
# Coordination Sequence:
#
# PCOD9298365 Si02
#       8
#     8   8   8   8   4   8   8   4
#     4  11  23  44  67  96 132 176 225 277 329 394
#     4  11  22  40  68  98 134 172 221 278 332 402
#     4  11  23  44  67  96 132 176 225 277 329 394
#     4  12  24  42  66  99 135 172 216 277 337 404
#     4  11  23  40  62 102 134 174 212 270 352 404
#     4  12  24  42  66  99 135 172 216 277 337 404
#     4  10  24  44  68  90 128 184 224 274 330 384
#     4  11  23  40  62 102 134 174 212 270 352 404
#
# _framework density 20.536117000000001
#
# number of rings (size 3 to 8) (size 9 to 14) (size 15 to 20)
#    0.000    0.857    4.286    2.143    6.000    1.143 
#    0.000    0.000    0.000    0.000    0.000    0.000 
#    0.000    0.000    0.000    0.000    0.000    0.000 
#
# Total GULP energy -156217.796390 kJ/mol
# GULP energy per Si atom -5579.207014 kJ/mol
# Density = 2.048938 g / cm^3
# Si number density = 20.536117 Si / 1000 Ang^3
#
#
#
# Elastic Constant Matrix: (Units=GPa)
#
#
# Indices 1 2 3 4 5 6 
#
# 1 84.3899 -0.0449 24.3115 0.0000 -4.9566 0.0000
# 2 -0.0449 86.6560 27.5138 0.0000 -14.7370 0.0000
# 3 24.3115 27.5138 87.3407 0.0000 -12.4516 0.0000
# 4 0.0000 0.0000 0.0000 -35.9219 0.0000 -8.0368
# 5 -4.9566 -14.7370 -12.4516 0.0000 0.4768 0.0000
# 6 0.0000 0.0000 0.0000 -8.0368 0.0000 17.0919
#
#
#
# Elastic Compliance Matrix: (Units=1/GPa)
#
#
# Indices 1 2 3 4 5 6 
#
# 1 0.012626 -0.000354 -0.005049 0.000000 -0.011547 0.000000
# 2 -0.000354 0.005960 -0.008798 0.000000 -0.049235 0.000000
# 3 -0.005049 -0.008798 0.011247 0.000000 -0.030722 0.000000
# 4 0.000000 0.000000 0.000000 -0.025188 0.000000 -0.011844
# 5 -0.011547 -0.049235 -0.030722 0.000000 -0.346834 0.000000
# 6 0.000000 0.000000 0.000000 -0.011844 0.000000 0.052938
#
#
# Mechanical properties :
#
#
# Convention : Reuss Voigt Hill
#
# Bulk Modulus (GPa) = 699.34176 40.21638 369.77907
# Shear Modulus (GPa) = -19.20325 10.10310 -4.55008
#
# Velocity S-wave (km/s) = -3.06125 2.22044 -1.49012
# Velocity P-wave (km/s) = 18.13247 5.11855 13.32265
#
# Compressibility (1/GPa) = 0.00142992
#
# Stress axis : x y z
#
# Youngs Moduli (GPa) = 79.20200 167.78547 88.91606
#
# Poissons Ratio (x) = 0.05940 0.44895
# Poissons Ratio (y) = 0.02804 0.78230
# Poissons Ratio (z) = 0.39990 1.47620
#
# Static dielectric constant tensor:
#      x y z
#    x 1.775370 0.000000 0.004960 
#    y 0.000000 1.747450 0.000000 
#    z 0.004960 0.000000 1.773570 
# 
# From -- ./inp_files/242847.got.cif
#   From: 2010.05.17/outbox.cif.g08.bks.cpg/sg15_122_cif.got.tgz:242847.got - 2010.06.03 18:47:42.
