data_PCOD9298204
_publ_section_title
;
Structure prediction by ZEFSAII (Michael W. Deem and Ramdas Pophale) SiO2 
 PCOD9298204
Probable space group: C 2/C
;
_chemical_formula_sum "Si O2"
_cell_formula_units_Z 48
_cell_length_a 7.267283
_cell_length_b 18.561506
_cell_length_c 13.579810
_cell_angle_alpha 90.000000
_cell_angle_beta 70.252396
_cell_angle_gamma 90.000000
_cell_volume 1724.075767
_symmetry_space_group_name_H-M "C 2/C"
_symmetry_group_IT_number 15
_symmetry_cell_setting 'monoclinic'
loop_
_space_group_symop_operation_xyz
x,y,z
-x,y,1/2-z
-x,-y,-z
x,-y,1/2+z
1/2+x,1/2+y,z
1/2-x,1/2+y,1/2-z
1/2-x,1/2-y,-z
1/2+x,1/2-y,1/2+z
loop_
_atom_site_type_symbol
_atom_site_label
_atom_site_fract_x
_atom_site_fract_y
_atom_site_fract_z
Si Si1 0.297302 0.309676 0.834697
Si Si2 0.674502 0.621861 0.963678
Si Si3 0.257968 0.165908 0.529701
Si Si4 0.627150 0.019934 0.079614
Si Si5 0.778240 0.027488 0.272468
Si Si6 0.704536 0.674644 0.756327
O O1 0.500000 0.280989 0.750000
O O2 0.275863 0.388048 0.794841
O O3 0.151383 0.252463 0.813956
O O4 0.296175 0.322414 0.951775
O O5 0.451753 0.632788 0.967867
O O6 0.782043 0.634606 0.839279
O O7 0.736769 0.543045 0.991163
O O8 0.250000 0.250000 0.500000
O O9 0.319131 0.173040 0.633433
O O10 0.387234 0.101372 0.459966
O O11 0.596514 0.007069 0.864298
O O12 0.724500 0.024717 0.168528
O O13 0.000000 0.002763 0.250000
O O14 0.500000 0.645952 0.750000
#
# Coordination Sequence:
#
# PCOD9298204 Si02
#       6
#     8   8   8   8   8   8
#     4  11  23  45  73 106 151 212 263 333 401 480
#     4  11  25  45  72 114 159 213 269 337 403 491
#     4  11  23  44  78 117 160 216 273 336 406 489
#     4  11  25  46  79 114 163 214 270 335 422 491
#     4  10  24  46  79 111 157 207 270 335 414 494
#     4  10  24  43  74 108 156 205 268 338 396 474
#
# _framework density 27.841000999999999
#
# number of rings (size 3 to 8) (size 9 to 14) (size 15 to 20)
#    0.000    1.333    0.000    5.000    7.000    4.000 
#    6.000    0.833    0.000    0.000    0.000    0.000 
#    0.000    0.000    0.000    0.000    0.000    0.000 
#
# Total GULP energy -134176.379996 kJ/mol
# GULP energy per Si atom -5590.682500 kJ/mol
# Density = 2.777763 g / cm^3
# Si number density = 27.841001 Si / 1000 Ang^3
#
#
#
# Elastic Constant Matrix: (Units=GPa)
#
#
# Indices 1 2 3 4 5 6 
#
# 1 162.0793 44.5656 59.2555 0.0000 8.4432 0.0000
# 2 44.5656 180.4462 85.1100 0.0000 7.3792 0.0000
# 3 59.2555 85.1100 196.9582 0.0000 41.9816 0.0000
# 4 0.0000 0.0000 0.0000 29.5719 0.0000 7.9929
# 5 8.4432 7.3792 41.9816 0.0000 58.7146 0.0000
# 6 0.0000 0.0000 0.0000 7.9929 0.0000 29.8484
#
#
#
# Elastic Compliance Matrix: (Units=1/GPa)
#
#
# Indices 1 2 3 4 5 6 
#
# 1 0.007062 -0.000902 -0.001820 0.000000 0.000399 0.000000
# 2 -0.000902 0.007190 -0.003151 0.000000 0.001479 0.000000
# 3 -0.001820 -0.003151 0.008077 0.000000 -0.005118 0.000000
# 4 0.000000 0.000000 0.000000 0.036454 0.000000 -0.009762
# 5 0.000399 0.001479 -0.005118 0.000000 0.020447 0.000000
# 6 0.000000 0.000000 0.000000 -0.009762 0.000000 0.036117
#
#
# Mechanical properties :
#
#
# Convention : Reuss Voigt Hill
#
# Bulk Modulus (GPa) = 94.48402 101.92731 98.20567
# Shear Modulus (GPa) = 38.27821 46.99713 42.63767
#
# Velocity S-wave (km/s) = 3.71197 4.11305 3.91765
# Velocity P-wave (km/s) = 7.23756 7.69716 7.47089
#
# Compressibility (1/GPa) = 0.01058380
#
# Stress axis : x y z
#
# Youngs Moduli (GPa) = 141.59354 139.07575 123.80575
#
# Poissons Ratio (x) = 0.12547 0.22533
# Poissons Ratio (y) = 0.12774 0.39010
# Poissons Ratio (z) = 0.25770 0.43822
#
# Static dielectric constant tensor:
#      x y z
#    x 2.260500 0.000000 -0.203430 
#    y 0.000000 2.139180 0.000000 
#    z -0.203430 0.000000 2.323110 
# 
# From -- ./inp_files/87244.got.cif
#   From: 2010.05.17/outbox.cif.g08.bks.cpg/sg15_44_cif.got.tgz:87244.got - 2010.06.03 18:47:42.
