data_PCOD9298190
_publ_section_title
;
Structure prediction by ZEFSAII (Michael W. Deem and Ramdas Pophale) SiO2 
 PCOD9298190
Probable space group: C 2/C
;
_chemical_formula_sum "Si O2"
_cell_formula_units_Z 48
_cell_length_a 13.390243
_cell_length_b 17.592532
_cell_length_c 16.911018
_cell_angle_alpha 90.000000
_cell_angle_beta 31.707956
_cell_angle_gamma 90.000000
_cell_volume 2093.791723
_symmetry_space_group_name_H-M "C 2/C"
_symmetry_group_IT_number 15
_symmetry_cell_setting 'monoclinic'
loop_
_space_group_symop_operation_xyz
x,y,z
-x,y,1/2-z
-x,-y,-z
x,-y,1/2+z
1/2+x,1/2+y,z
1/2-x,1/2+y,1/2-z
1/2-x,1/2-y,-z
1/2+x,1/2-y,1/2+z
loop_
_atom_site_type_symbol
_atom_site_label
_atom_site_fract_x
_atom_site_fract_y
_atom_site_fract_z
Si Si1 0.637360 0.966764 0.081329
Si Si2 0.553197 0.526678 0.376840
Si Si3 0.560129 0.799367 0.119312
Si Si4 0.287232 0.418520 0.356687
Si Si5 0.111736 0.266446 0.520594
Si Si6 0.313298 0.309911 0.676386
O O1 0.500000 0.981329 0.250000
O O2 0.588254 0.886282 0.072823
O O3 0.852892 0.959941 0.967890
O O4 0.653010 0.034142 0.007232
O O5 0.500000 0.500000 0.500000
O O6 0.678980 0.464963 0.246071
O O7 0.659148 0.606732 0.308005
O O8 0.500000 0.809371 0.250000
O O9 0.413941 0.750627 0.166309
O O10 0.750000 0.750000 0.000000
O O11 0.500000 0.411535 0.250000
O O12 0.201028 0.335121 0.409600
O O13 0.250000 0.250000 0.500000
O O14 0.092892 0.196133 0.473506
O O15 0.906448 0.291604 0.686766
#
# Coordination Sequence:
#
# PCOD9298190 Si02
#       6
#     8   8   8   8   8   8
#     4  10  24  43  73 105 149 191 233 304 380 445
#     4  11  27  46  72 111 151 192 251 306 373 463
#     4  11  23  42  69 106 150 181 233 298 374 450
#     4  10  25  48  74 102 148 197 244 306 378 448
#     4  12  29  50  75 105 148 201 261 312 372 447
#     4  12  28  46  77 109 143 198 250 308 380 454
#
# _framework density 22.924916
#
# number of rings (size 3 to 8) (size 9 to 14) (size 15 to 20)
#    0.000    1.000    1.667    2.500   16.333    0.667 
#    0.000    0.000    0.000    0.000    0.000    0.000 
#    0.000    0.000    0.000    0.000    0.000    0.000 
#
# Total GULP energy -134415.461584 kJ/mol
# GULP energy per Si atom -5600.644233 kJ/mol
# Density = 2.287274 g / cm^3
# Si number density = 22.924916 Si / 1000 Ang^3
#
#
#
# Elastic Constant Matrix: (Units=GPa)
#
#
# Indices 1 2 3 4 5 6 
#
# 1 97.2021 31.7821 4.2890 -0.0026 -5.7380 0.0022
# 2 31.7821 111.8422 34.2581 -0.0132 0.0632 0.0048
# 3 4.2890 34.2581 95.0833 -0.0062 -2.7664 0.0077
# 4 -0.0026 -0.0132 -0.0062 36.9386 0.0001 2.1068
# 5 -5.7380 0.0632 -2.7664 0.0001 40.6123 -0.0028
# 6 0.0022 0.0048 0.0077 2.1068 -0.0028 29.0453
#
#
#
# Elastic Compliance Matrix: (Units=1/GPa)
#
#
# Indices 1 2 3 4 5 6 
#
# 1 0.011501 -0.003513 0.000796 0.000000 0.001685 0.000000
# 2 -0.003513 0.011126 -0.003873 0.000003 -0.000777 -0.000001
# 3 0.000796 -0.003873 0.011904 0.000001 0.000929 -0.000003
# 4 0.000000 0.000003 0.000001 0.027184 0.000000 -0.001972
# 5 0.001685 -0.000777 0.000929 0.000000 0.024926 0.000002
# 6 0.000000 -0.000001 -0.000003 -0.001972 0.000002 0.034572
#
#
# Mechanical properties :
#
#
# Convention : Reuss Voigt Hill
#
# Bulk Modulus (GPa) = 46.83657 49.42066 48.12862
# Shear Modulus (GPa) = 35.33340 36.90581 36.11960
#
# Velocity S-wave (km/s) = 3.93016 4.01665 3.97364
# Velocity P-wave (km/s) = 6.40856 6.56626 6.48789
#
# Compressibility (1/GPa) = 0.02135084
#
# Stress axis : x y z
#
# Youngs Moduli (GPa) = 86.95059 89.87836 84.00820
#
# Poissons Ratio (x) = 0.31573 -0.06686
# Poissons Ratio (y) = 0.30545 0.32535
# Poissons Ratio (z) = -0.06921 0.34809
#
# Static dielectric constant tensor:
#      x y z
#    x 1.828390 0.000000 -0.003160 
#    y 0.000000 1.905090 0.000000 
#    z -0.003160 0.000000 1.856350 
# 
# From -- ./inp_files/206389.got.cif
#   From: 2010.05.17/outbox.cif.g08.bks.cpg/sg15_104_cif.got.tgz:206389.got - 2010.06.03 18:47:42.
