data_PCOD9298907
_publ_section_title
;
Structure prediction by ZEFSAII (Michael W. Deem and Ramdas Pophale) SiO2 
 PCOD9298907
Probable space group: C 2/C
;
_chemical_formula_sum "Si O2"
_cell_formula_units_Z 48
_cell_length_a 9.971827
_cell_length_b 24.913836
_cell_length_c 10.103489
_cell_angle_alpha 90.000000
_cell_angle_beta 92.606335
_cell_angle_gamma 90.000000
_cell_volume 2507.478514
_symmetry_space_group_name_H-M "C 2/C"
_symmetry_group_IT_number 15
_symmetry_cell_setting 'monoclinic'
loop_
_space_group_symop_operation_xyz
x,y,z
-x,y,1/2-z
-x,-y,-z
x,-y,1/2+z
1/2+x,1/2+y,z
1/2-x,1/2+y,1/2-z
1/2-x,1/2-y,-z
1/2+x,1/2-y,1/2+z
loop_
_atom_site_type_symbol
_atom_site_label
_atom_site_fract_x
_atom_site_fract_y
_atom_site_fract_z
Si Si1 0.720443 0.142659 0.628466
Si Si2 0.371073 0.748832 0.325686
Si Si3 0.715708 0.138501 0.944919
Si Si4 0.998830 0.552129 0.908599
Si Si5 0.507793 0.668912 0.974207
Si Si6 0.394782 0.779126 0.848420
O O1 0.670232 0.201852 0.579758
O O2 0.711423 0.147820 0.786939
O O3 0.625385 0.094183 0.578777
O O4 0.875902 0.137476 0.597131
O O5 0.500000 0.768425 0.250000
O O6 0.421269 0.694533 0.395899
O O7 0.243471 0.734366 0.231705
O O8 0.631277 0.084801 0.956404
O O9 0.871450 0.136852 0.993180
O O10 0.644171 0.184823 0.027603
O O11 0.000000 0.540144 0.750000
O O12 0.000000 0.500000 0.000000
O O13 0.459521 0.722673 0.895362
O O14 0.500000 0.804892 0.750000
#
# Coordination Sequence:
#
# PCOD9298907 Si02
#       6
#     8   8   8   8   8   8
#     4  11  22  39  62  89 123 165 207 249 307 368
#     4  12  22  36  56  90 137 174 205 242 293 367
#     4  11  22  40  62  88 125 163 204 254 304 367
#     4  10  24  46  69  90 114 157 216 275 326 371
#     4  12  22  37  56  91 133 168 206 244 301 373
#     4  12  23  36  56  93 135 174 206 244 293 366
#
# _framework density 19.142735999999999
#
# number of rings (size 3 to 8) (size 9 to 14) (size 15 to 20)
#    0.000    0.667    5.000    5.000    2.333    0.667 
#    0.000    0.833    0.000    0.000    0.000    0.000 
#    0.000    0.000    0.000    0.000    0.000    0.000 
#
# Total GULP energy -134100.584302 kJ/mol
# GULP energy per Si atom -5587.524346 kJ/mol
# Density = 1.909917 g / cm^3
# Si number density = 19.142736 Si / 1000 Ang^3
#
#
#
# Elastic Constant Matrix: (Units=GPa)
#
#
# Indices 1 2 3 4 5 6 
#
# 1 168.2501 68.3652 53.1527 0.0000 -12.6884 0.0000
# 2 68.3652 116.6021 49.2534 0.0000 2.1431 0.0000
# 3 53.1527 49.2534 59.7846 0.0000 5.2571 0.0000
# 4 0.0000 0.0000 0.0000 34.9150 0.0000 -0.3239
# 5 -12.6884 2.1431 5.2571 0.0000 32.3302 0.0000
# 6 0.0000 0.0000 0.0000 -0.3239 0.0000 19.0690
#
#
#
# Elastic Compliance Matrix: (Units=1/GPa)
#
#
# Indices 1 2 3 4 5 6 
#
# 1 0.009585 -0.002954 -0.006530 0.000000 0.005019 0.000000
# 2 -0.002954 0.014090 -0.008925 0.000000 -0.000642 0.000000
# 3 -0.006530 -0.008925 0.030494 0.000000 -0.006930 0.000000
# 4 0.000000 0.000000 0.000000 0.028645 0.000000 0.000487
# 5 0.005019 -0.000642 -0.006930 0.000000 0.034070 0.000000
# 6 0.000000 0.000000 0.000000 0.000487 0.000000 0.052449
#
#
# Mechanical properties :
#
#
# Convention : Reuss Voigt Hill
#
# Bulk Modulus (GPa) = 57.63081 76.24217 66.93649
# Shear Modulus (GPa) = 23.59200 28.85388 26.22294
#
# Velocity S-wave (km/s) = 3.51440 3.88661 3.70518
# Velocity P-wave (km/s) = 6.82929 7.74956 7.30393
#
# Compressibility (1/GPa) = 0.01735183
#
# Stress axis : x y z
#
# Youngs Moduli (GPa) = 104.32786 70.97222 32.79294
#
# Poissons Ratio (x) = 0.20965 0.21413
# Poissons Ratio (y) = 0.30819 0.29268
# Poissons Ratio (z) = 0.68122 0.63344
#
# Static dielectric constant tensor:
#      x y z
#    x 1.717220 0.000000 -0.019550 
#    y 0.000000 1.653090 0.000000 
#    z -0.019550 0.000000 1.746950 
# 
# From -- ./inp_files/79283.got.cif
#   From: 2010.05.17/outbox.cif.g08.bks.cpg/sg15_40_cif.got.tgz:79283.got - 2010.06.03 18:47:42.
