data_PCOD9298178
_publ_section_title
;
Structure prediction by ZEFSAII (Michael W. Deem and Ramdas Pophale) SiO2 
 PCOD9298178
Probable space group: C 2/C
;
_chemical_formula_sum "Si O2"
_cell_formula_units_Z 32
_cell_length_a 4.937354
_cell_length_b 30.278134
_cell_length_c 8.879871
_cell_angle_alpha 90.000000
_cell_angle_beta 71.612558
_cell_angle_gamma 90.000000
_cell_volume 1259.711664
_symmetry_space_group_name_H-M "C 2/C"
_symmetry_group_IT_number 15
_symmetry_cell_setting 'monoclinic'
loop_
_space_group_symop_operation_xyz
x,y,z
-x,y,1/2-z
-x,-y,-z
x,-y,1/2+z
1/2+x,1/2+y,z
1/2-x,1/2+y,1/2-z
1/2-x,1/2-y,-z
1/2+x,1/2-y,1/2+z
loop_
_atom_site_type_symbol
_atom_site_label
_atom_site_fract_x
_atom_site_fract_y
_atom_site_fract_z
Si Si1 0.319001 0.880552 0.934216
Si Si2 0.729887 0.440336 0.523141
Si Si3 0.000000 0.495306 0.750000
Si Si4 0.970682 0.209400 0.948393
Si Si5 0.000000 0.245798 0.250000
O O1 0.500000 0.869985 0.750000
O O2 0.532880 0.901925 0.016524
O O3 0.072663 0.915924 0.934702
O O4 0.175966 0.837558 0.029757
O O5 0.778633 0.473788 0.377914
O O6 0.826872 0.467308 0.655862
O O7 0.230841 0.221136 0.793333
O O8 0.750000 0.250000 0.000000
O O9 0.089635 0.213277 0.099689
#
# Coordination Sequence:
#
# PCOD9298178 Si02
#       5
#     8   8   4   8   4
#     4  12  27  46  74 111 147 194 254 304 372 442
#     4  11  27  48  78 108 147 194 247 310 377 462
#     4  10  26  53  78 106 150 192 244 310 401 440
#     4  11  25  46  72 104 151 198 246 306 371 441
#     4  10  24  43  72 104 134 208 246 296 373 436
#
# _framework density 25.402636000000001
#
# number of rings (size 3 to 8) (size 9 to 14) (size 15 to 20)
#    0.000    1.000    1.250    3.000   10.500    8.000 
#    4.500    0.000    0.000    0.000    0.000    0.000 
#    0.000    0.000    0.000    0.000    0.000    0.000 
#
# Total GULP energy -89608.729283 kJ/mol
# GULP energy per Si atom -5600.545580 kJ/mol
# Density = 2.534482 g / cm^3
# Si number density = 25.402636 Si / 1000 Ang^3
#
#
#
# Elastic Constant Matrix: (Units=GPa)
#
#
# Indices 1 2 3 4 5 6 
#
# 1 137.6939 19.6299 22.8578 0.0000 -43.6107 0.0000
# 2 19.6299 110.5422 52.0653 0.0000 -31.3539 0.0000
# 3 22.8578 52.0653 111.5625 0.0000 -30.1062 0.0000
# 4 0.0000 0.0000 0.0000 41.5760 0.0000 -8.7297
# 5 -43.6107 -31.3539 -30.1062 0.0000 37.9076 0.0000
# 6 0.0000 0.0000 0.0000 -8.7297 0.0000 37.1760
#
#
#
# Elastic Compliance Matrix: (Units=1/GPa)
#
#
# Indices 1 2 3 4 5 6 
#
# 1 0.011934 0.002004 0.000983 0.000000 0.016167 0.000000
# 2 0.002004 0.013461 -0.003903 0.000000 0.010340 0.000000
# 3 0.000983 -0.003903 0.012750 0.000000 0.008029 0.000000
# 4 0.000000 0.000000 0.000000 0.025300 0.000000 0.005941
# 5 0.016167 0.010340 0.008029 0.000000 0.059908 0.000000
# 6 0.000000 0.000000 0.000000 0.005941 0.000000 0.028294
#
#
# Mechanical properties :
#
#
# Convention : Reuss Voigt Hill
#
# Bulk Modulus (GPa) = 27.53814 60.98938 44.26376
# Shear Modulus (GPa) = 30.19596 41.01495 35.60545
#
# Velocity S-wave (km/s) = 3.45148 4.02256 3.74792
# Velocity P-wave (km/s) = 5.17183 6.75543 6.01597
#
# Compressibility (1/GPa) = 0.03631327
#
# Stress axis : x y z
#
# Youngs Moduli (GPa) = 83.79204 74.28683 78.43006
#
# Poissons Ratio (x) = -0.14884 -0.07707
# Poissons Ratio (y) = -0.16788 0.30608
# Poissons Ratio (z) = -0.08234 0.28991
#
# Static dielectric constant tensor:
#      x y z
#    x 2.151530 0.000000 0.207120 
#    y 0.000000 1.950250 0.000000 
#    z 0.207120 0.000000 2.274150 
# 
# From -- ./inp_files/20179.got.cif
#   From: 2010.05.17/outbox.cif.g08.bks.cpg/sg15_11_cif.got.tgz:20179.got - 2010.06.03 18:47:42.
