data_PCOD9298205
_publ_section_title
;
Structure prediction by ZEFSAII (Michael W. Deem and Ramdas Pophale) SiO2 
 PCOD9298205
Probable space group: C 2/C
;
_chemical_formula_sum "Si O2"
_cell_formula_units_Z 40
_cell_length_a 7.539836
_cell_length_b 17.986015
_cell_length_c 12.536129
_cell_angle_alpha 90.000000
_cell_angle_beta 100.400774
_cell_angle_gamma 90.000000
_cell_volume 1672.111177
_symmetry_space_group_name_H-M "C 2/C"
_symmetry_group_IT_number 15
_symmetry_cell_setting 'monoclinic'
loop_
_space_group_symop_operation_xyz
x,y,z
-x,y,1/2-z
-x,-y,-z
x,-y,1/2+z
1/2+x,1/2+y,z
1/2-x,1/2+y,1/2-z
1/2-x,1/2-y,-z
1/2+x,1/2-y,1/2+z
loop_
_atom_site_type_symbol
_atom_site_label
_atom_site_fract_x
_atom_site_fract_y
_atom_site_fract_z
Si Si1 0.678139 0.111730 0.468155
Si Si2 0.721498 0.171546 0.054024
Si Si3 0.280987 0.791483 0.717658
Si Si4 0.699230 0.883652 0.216558
Si Si5 0.171328 0.965486 0.077394
O O1 0.488954 0.152708 0.460690
O O2 0.781755 0.167411 0.397703
O O3 0.729241 0.096628 0.596118
O O4 0.679102 0.030973 0.413248
O O5 0.794174 0.172376 0.182271
O O6 0.750000 0.250000 0.000000
O O7 0.792733 0.106785 0.988576
O O8 0.500000 0.798211 0.750000
O O9 0.236656 0.704638 0.720509
O O10 0.500000 0.893557 0.250000
O O11 0.828458 0.933401 0.303897
O O12 0.000000 0.000000 0.000000
#
# Coordination Sequence:
#
# PCOD9298205 Si02
#       5
#     8   8   8   8   8
#     4  11  26  45  75 106 149 196 255 311 387 439
#     4  11  22  49  77 106 151 199 254 306 376 465
#     4  10  24  43  74 110 147 194 251 313 374 453
#     4  12  25  46  75 105 149 200 254 308 380 457
#     4  12  29  46  71 112 152 197 252 321 382 449
#
# _framework density 23.921855999999998
#
# number of rings (size 3 to 8) (size 9 to 14) (size 15 to 20)
#    0.000    0.800    4.000    1.200    5.600    4.000 
#    0.000    0.000    0.000    0.000    0.000    0.000 
#    0.000    0.000    0.000    0.000    0.000    0.000 
#
# Total GULP energy -111812.565299 kJ/mol
# GULP energy per Si atom -5590.628265 kJ/mol
# Density = 2.386741 g / cm^3
# Si number density = 23.921856 Si / 1000 Ang^3
#
#
#
# Elastic Constant Matrix: (Units=GPa)
#
#
# Indices 1 2 3 4 5 6 
#
# 1 68.4023 37.7683 45.7587 0.0000 -8.0986 0.0000
# 2 37.7683 174.4553 78.9989 0.0000 -22.1932 0.0000
# 3 45.7587 78.9989 242.6698 0.0000 -26.7294 0.0000
# 4 0.0000 0.0000 0.0000 39.9361 0.0000 6.2241
# 5 -8.0986 -22.1932 -26.7294 0.0000 22.0268 0.0000
# 6 0.0000 0.0000 0.0000 6.2241 0.0000 26.1668
#
#
#
# Elastic Compliance Matrix: (Units=1/GPa)
#
#
# Indices 1 2 3 4 5 6 
#
# 1 0.017793 -0.002647 -0.002385 0.000000 0.000980 0.000000
# 2 -0.002647 0.007578 -0.001424 0.000000 0.004933 0.000000
# 3 -0.002385 -0.001424 0.005517 0.000000 0.004383 0.000000
# 4 0.000000 0.000000 0.000000 0.026004 0.000000 -0.006185
# 5 0.000980 0.004933 0.004383 0.000000 0.056049 0.000000
# 6 0.000000 0.000000 0.000000 -0.006185 0.000000 0.039688
#
#
# Mechanical properties :
#
#
# Convention : Reuss Voigt Hill
#
# Bulk Modulus (GPa) = 55.63612 90.06433 72.85023
# Shear Modulus (GPa) = 29.14891 39.15936 34.15413
#
# Velocity S-wave (km/s) = 3.49450 4.05034 3.78264
# Velocity P-wave (km/s) = 6.29205 7.72041 7.04254
#
# Compressibility (1/GPa) = 0.01797393
#
# Stress axis : x y z
#
# Youngs Moduli (GPa) = 56.20254 131.96458 181.25645
#
# Poissons Ratio (x) = 0.34933 0.43236
# Poissons Ratio (y) = 0.14878 0.25817
# Poissons Ratio (z) = 0.13406 0.18796
#
# Static dielectric constant tensor:
#      x y z
#    x 1.981210 0.000000 0.057680 
#    y 0.000000 1.811520 0.000000 
#    z 0.057680 0.000000 1.856790 
# 
# From -- ./inp_files/76940.got.cif
#   From: 2010.05.17/outbox.cif.g08.bks.cpg/sg15_39_cif.got.tgz:76940.got - 2010.06.03 18:47:42.
