data_PCOD9298767
_publ_section_title
;
Structure prediction by ZEFSAII (Michael W. Deem and Ramdas Pophale) SiO2 
 PCOD9298767
Probable space group: C 2/C
;
_chemical_formula_sum "Si O2"
_cell_formula_units_Z 32
_cell_length_a 10.512900
_cell_length_b 16.203208
_cell_length_c 7.808454
_cell_angle_alpha 90.000000
_cell_angle_beta 91.481394
_cell_angle_gamma 90.000000
_cell_volume 1329.668619
_symmetry_space_group_name_H-M "C 2/C"
_symmetry_group_IT_number 15
_symmetry_cell_setting 'monoclinic'
loop_
_space_group_symop_operation_xyz
x,y,z
-x,y,1/2-z
-x,-y,-z
x,-y,1/2+z
1/2+x,1/2+y,z
1/2-x,1/2+y,1/2-z
1/2-x,1/2-y,-z
1/2+x,1/2-y,1/2+z
loop_
_atom_site_type_symbol
_atom_site_label
_atom_site_fract_x
_atom_site_fract_y
_atom_site_fract_z
Si Si1 0.187683 0.828406 0.406329
Si Si2 0.138866 0.534507 0.446983
Si Si3 0.683955 0.125084 0.091340
Si Si4 0.916228 0.792382 0.477725
O O1 0.250000 0.750000 0.500000
O O2 0.286770 0.902681 0.427442
O O3 0.145227 0.810102 0.210917
O O4 0.050577 0.837140 0.494321
O O5 0.144265 0.581296 0.266267
O O6 0.212324 0.447993 0.459374
O O7 0.000000 0.500000 0.500000
O O8 0.580237 0.191970 0.021804
O O9 0.814773 0.175801 0.110991
#
# Coordination Sequence:
#
# PCOD9298767 Si02
#       4
#     8   8   8   8
#     4  11  22  44  74 105 145 205 249 315 382 452
#     4  12  25  42  74 108 149 195 251 321 381 451
#     4  11  24  45  67 111 149 197 257 315 384 451
#     4  10  24  45  73 105 155 196 260 314 376 465
#
# _framework density 24.066147000000001
#
# number of rings (size 3 to 8) (size 9 to 14) (size 15 to 20)
#    0.000    1.000    2.500    3.750    3.500    2.000 
#    0.000    2.500    0.000    0.000    0.000    0.000 
#    0.000    0.000    0.000    0.000    0.000    0.000 
#
# Total GULP energy -89410.094192 kJ/mol
# GULP energy per Si atom -5588.130887 kJ/mol
# Density = 2.401137 g / cm^3
# Si number density = 24.066147 Si / 1000 Ang^3
#
#
#
# Elastic Constant Matrix: (Units=GPa)
#
#
# Indices 1 2 3 4 5 6 
#
# 1 160.0518 51.4445 48.7865 0.0000 -10.9557 0.0000
# 2 51.4445 172.6393 42.7741 0.0000 -1.8674 0.0000
# 3 48.7865 42.7741 106.2788 0.0000 -2.3996 0.0000
# 4 0.0000 0.0000 0.0000 50.7604 0.0000 -4.8608
# 5 -10.9557 -1.8674 -2.3996 0.0000 42.5103 0.0000
# 6 0.0000 0.0000 0.0000 -4.8608 0.0000 39.4546
#
#
#
# Elastic Compliance Matrix: (Units=1/GPa)
#
#
# Indices 1 2 3 4 5 6 
#
# 1 0.007755 -0.001577 -0.002885 0.000000 0.001767 0.000000
# 2 -0.001577 0.006755 -0.002000 0.000000 -0.000223 0.000000
# 3 -0.002885 -0.002000 0.011535 0.000000 -0.000180 0.000000
# 4 0.000000 0.000000 0.000000 0.019936 0.000000 0.002456
# 5 0.001767 -0.000223 -0.000180 0.000000 0.023959 0.000000
# 6 0.000000 0.000000 0.000000 0.002456 0.000000 0.025648
#
#
# Mechanical properties :
#
#
# Convention : Reuss Voigt Hill
#
# Bulk Modulus (GPa) = 76.21627 80.55334 78.38481
# Shear Modulus (GPa) = 44.29224 46.27603 45.28414
#
# Velocity S-wave (km/s) = 4.29469 4.38981 4.34251
# Velocity P-wave (km/s) = 7.50538 7.69664 7.60161
#
# Compressibility (1/GPa) = 0.01312056
#
# Stress axis : x y z
#
# Youngs Moduli (GPa) = 128.94396 148.02820 86.69543
#
# Poissons Ratio (x) = 0.23344 0.25016
# Poissons Ratio (y) = 0.20334 0.17339
# Poissons Ratio (z) = 0.37206 0.29606
#
# Static dielectric constant tensor:
#      x y z
#    x 2.013600 0.000000 0.012080 
#    y 0.000000 1.988630 0.000000 
#    z 0.012080 0.000000 2.051860 
# 
# From -- ./inp_files/27591.got.cif
#   From: 2010.05.17/outbox.cif.g08.bks.cpg/sg15_14_cif.got.tgz:27591.got - 2010.06.03 18:47:42.
