data_PCOD9298353
_publ_section_title
;
Structure prediction by ZEFSAII (Michael W. Deem and Ramdas Pophale) SiO2 
 PCOD9298353
Probable space group: C 2/C
;
_chemical_formula_sum "Si O2"
_cell_formula_units_Z 44
_cell_length_a 5.005401
_cell_length_b 19.372992
_cell_length_c 17.560055
_cell_angle_alpha 90.000000
_cell_angle_beta 91.820971
_cell_angle_gamma 90.000000
_cell_volume 1701.931480
_symmetry_space_group_name_H-M "C 2/C"
_symmetry_group_IT_number 15
_symmetry_cell_setting 'monoclinic'
loop_
_space_group_symop_operation_xyz
x,y,z
-x,y,1/2-z
-x,-y,-z
x,-y,1/2+z
1/2+x,1/2+y,z
1/2-x,1/2+y,1/2-z
1/2-x,1/2-y,-z
1/2+x,1/2-y,1/2+z
loop_
_atom_site_type_symbol
_atom_site_label
_atom_site_fract_x
_atom_site_fract_y
_atom_site_fract_z
Si Si1 0.961451 0.145783 0.473583
Si Si2 0.500000 0.806097 0.750000
Si Si3 0.091892 0.086541 0.171691
Si Si4 0.389917 0.861320 0.333817
Si Si5 0.602218 0.440862 0.108789
Si Si6 0.053684 0.745571 0.403787
O O1 0.088929 0.126106 0.393009
O O2 0.063241 0.205353 0.531571
O O3 0.673579 0.177041 0.444724
O O4 0.974344 0.078668 0.526328
O O5 0.714037 0.855738 0.791400
O O6 0.601636 0.763349 0.677795
O O7 0.000000 0.054087 0.250000
O O8 0.180921 0.019560 0.125989
O O9 0.500000 0.851818 0.250000
O O10 0.625109 0.899007 0.380478
O O11 0.305112 0.790518 0.374051
O O12 0.124757 0.909557 0.336667
#
# Coordination Sequence:
#
# PCOD9298353 Si02
#       6
#     8   4   8   8   8   8
#     4   9  21  46  67 103 141 188 232 296 350 423
#     4  10  24  44  68 102 142 186 234 298 350 420
#     4  11  24  45  69 104 138 188 241 291 357 418
#     4  11  24  42  72 111 142 188 231 296 349 419
#     4  11  25  45  73 104 145 187 236 288 357 420
#     4   9  21  43  70 101 145 183 241 283 361 413
#
# _framework density 25.852979999999999
#
# number of rings (size 3 to 8) (size 9 to 14) (size 15 to 20)
#    0.000    1.818    0.000    2.182    8.909    3.636 
#   16.364    4.545    0.000    0.000    0.000    0.000 
#    0.000    0.000    0.000    0.000    0.000    0.000 
#
# Total GULP energy -122697.324265 kJ/mol
# GULP energy per Si atom -5577.151103 kJ/mol
# Density = 2.579414 g / cm^3
# Si number density = 25.852980 Si / 1000 Ang^3
#
#
#
# Elastic Constant Matrix: (Units=GPa)
#
#
# Indices 1 2 3 4 5 6 
#
# 1 84.5761 32.1006 20.8106 0.0000 2.5857 0.0000
# 2 32.1006 117.0953 77.2217 0.0000 19.6564 0.0000
# 3 20.8106 77.2217 245.0585 0.0000 11.5426 0.0000
# 4 0.0000 0.0000 0.0000 57.3175 0.0000 7.0474
# 5 2.5857 19.6564 11.5426 0.0000 25.5775 0.0000
# 6 0.0000 0.0000 0.0000 7.0474 0.0000 29.2683
#
#
#
# Elastic Compliance Matrix: (Units=1/GPa)
#
#
# Indices 1 2 3 4 5 6 
#
# 1 0.013259 -0.003939 0.000037 0.000000 0.001670 0.000000
# 2 -0.003939 0.013290 -0.003465 0.000000 -0.008252 0.000000
# 3 0.000037 -0.003465 0.005154 0.000000 0.000333 0.000000
# 4 0.000000 0.000000 0.000000 0.017979 0.000000 -0.004329
# 5 0.001670 -0.008252 0.000333 0.000000 0.045119 0.000000
# 6 0.000000 0.000000 0.000000 -0.004329 0.000000 0.035209
#
#
# Mechanical properties :
#
#
# Convention : Reuss Voigt Hill
#
# Bulk Modulus (GPa) = 58.93554 78.55510 68.74532
# Shear Modulus (GPa) = 33.24466 43.53913 38.39190
#
# Velocity S-wave (km/s) = 3.58985 4.10824 3.85776
# Velocity P-wave (km/s) = 6.32682 7.27700 6.81848
#
# Compressibility (1/GPa) = 0.01696769
#
# Stress axis : x y z
#
# Youngs Moduli (GPa) = 75.42191 75.24413 194.03814
#
# Poissons Ratio (x) = 0.29642 -0.00713
# Poissons Ratio (y) = 0.29712 0.67228
# Poissons Ratio (z) = -0.00277 0.26070
#
# Static dielectric constant tensor:
#      x y z
#    x 2.112320 0.000000 -0.124920 
#    y 0.000000 2.103020 0.000000 
#    z -0.124920 0.000000 2.159010 
# 
# From -- ./inp_files/184931.got.cif
#   From: 2010.05.17/outbox.cif.g08.bks.cpg/sg15_93_cif.got.tgz:184931.got - 2010.06.03 18:47:42.
