data_PCOD9298346
_publ_section_title
;
Structure prediction by ZEFSAII (Michael W. Deem and Ramdas Pophale) SiO2 
 PCOD9298346
Probable space group: C 2/C
;
_chemical_formula_sum "Si O2"
_cell_formula_units_Z 56
_cell_length_a 10.795956
_cell_length_b 9.333021
_cell_length_c 26.315604
_cell_angle_alpha 90.000000
_cell_angle_beta 64.319234
_cell_angle_gamma 90.000000
_cell_volume 2389.619428
_symmetry_space_group_name_H-M "C 2/C"
_symmetry_group_IT_number 15
_symmetry_cell_setting 'monoclinic'
loop_
_space_group_symop_operation_xyz
x,y,z
-x,y,1/2-z
-x,-y,-z
x,-y,1/2+z
1/2+x,1/2+y,z
1/2-x,1/2+y,1/2-z
1/2-x,1/2-y,-z
1/2+x,1/2-y,1/2+z
loop_
_atom_site_type_symbol
_atom_site_label
_atom_site_fract_x
_atom_site_fract_y
_atom_site_fract_z
Si Si1 0.616373 0.407401 0.584069
Si Si2 0.846492 0.671957 0.779169
Si Si3 0.775056 0.319899 0.884166
Si Si4 0.249528 0.152150 0.909633
Si Si5 0.332543 0.591030 0.197812
Si Si6 0.433060 0.693994 0.947748
Si Si7 0.125866 0.590139 0.957345
O O1 0.661411 0.243950 0.566317
O O2 0.479555 0.420059 0.642630
O O3 0.597007 0.523107 0.542429
O O4 0.756685 0.479033 0.581088
O O5 0.813382 0.697641 0.843867
O O6 0.730621 0.563796 0.779637
O O7 0.846904 0.812187 0.744482
O O8 0.000000 0.608236 0.750000
O O9 0.761101 0.480354 0.909067
O O10 0.777125 0.343421 0.823464
O O11 0.893669 0.242386 0.896676
O O12 0.640040 0.218300 0.914252
O O13 0.092068 0.198316 0.934497
O O14 0.357292 0.807823 0.996610
O O15 0.000000 0.500000 0.000000
#
# Coordination Sequence:
#
# PCOD9298346 Si02
#       7
#     8   8   8   8   8   8   8
#     4  11  21  44  69  95 142 175 227 283 347 399
#     4  11  24  46  69 100 141 178 235 283 348 419
#     4  10  24  44  68 101 141 177 231 286 343 407
#     4  11  23  44  71  99 139 182 228 295 342 411
#     4  11  25  46  69 106 135 181 231 287 346 420
#     4  11  23  47  67  99 143 179 232 290 339 423
#     4  11  24  45  70 104 139 188 235 282 349 422
#
# _framework density 23.434692999999999
#
# number of rings (size 3 to 8) (size 9 to 14) (size 15 to 20)
#    0.000    1.143    5.714    1.714    0.000    6.286 
#    2.571    2.143    0.000    0.000    0.000    0.000 
#    0.000    0.000    0.000    0.000    0.000    0.000 
#
# Total GULP energy -155983.249067 kJ/mol
# GULP energy per Si atom -5570.830324 kJ/mol
# Density = 2.338135 g / cm^3
# Si number density = 23.434693 Si / 1000 Ang^3
#
#
#
# Elastic Constant Matrix: (Units=GPa)
#
#
# Indices 1 2 3 4 5 6 
#
# 1 78.3378 34.0076 -4.9894 0.0000 -17.5617 0.0000
# 2 34.0076 116.3161 8.8843 0.0000 -13.6248 0.0000
# 3 -4.9894 8.8843 62.0665 0.0000 -5.4156 0.0000
# 4 0.0000 0.0000 0.0000 41.9946 0.0000 1.9245
# 5 -17.5617 -13.6248 -5.4156 0.0000 26.5681 0.0000
# 6 0.0000 0.0000 0.0000 1.9245 0.0000 42.4612
#
#
#
# Elastic Compliance Matrix: (Units=1/GPa)
#
#
# Indices 1 2 3 4 5 6 
#
# 1 0.016842 -0.004006 0.002769 0.000000 0.009643 0.000000
# 2 -0.004006 0.010151 -0.001580 0.000000 0.002236 0.000000
# 3 0.002769 -0.001580 0.016951 0.000000 0.004475 0.000000
# 4 0.000000 0.000000 0.000000 0.023862 0.000000 -0.001082
# 5 0.009643 0.002236 0.004475 0.000000 0.046072 0.000000
# 6 0.000000 0.000000 0.000000 -0.001082 0.000000 0.023600
#
#
# Mechanical properties :
#
#
# Convention : Reuss Voigt Hill
#
# Bulk Modulus (GPa) = 26.10309 36.94726 31.52517
# Shear Modulus (GPa) = 32.07527 36.79263 34.43395
#
# Velocity S-wave (km/s) = 3.70362 3.96663 3.83738
# Velocity P-wave (km/s) = 5.42696 6.06458 5.75461
#
# Compressibility (1/GPa) = 0.03830964
#
# Stress axis : x y z
#
# Youngs Moduli (GPa) = 59.37364 98.51126 58.99361
#
# Poissons Ratio (x) = 0.39466 -0.16334
# Poissons Ratio (y) = 0.23786 0.09321
# Poissons Ratio (z) = -0.16439 0.15565
#
# Static dielectric constant tensor:
#      x y z
#    x 2.074360 0.000000 -0.190560 
#    y 0.000000 1.931580 0.000000 
#    z -0.190560 0.000000 2.414880 
# 
# From -- ./inp_files/310202.got.cif
#   From: 2010.05.17/outbox.cif.g08.bks.cpg/sg15_156_cif.got.tgz:310202.got - 2010.06.03 18:47:42.
