data_PCOD9298063
_publ_section_title
;
Structure prediction by ZEFSAII (Michael W. Deem and Ramdas Pophale) SiO2 
 PCOD9298063
Probable space group: C 2/C
;
_chemical_formula_sum "Si O2"
_cell_formula_units_Z 64
_cell_length_a 13.998228
_cell_length_b 26.488224
_cell_length_c 8.840870
_cell_angle_alpha 90.000000
_cell_angle_beta 70.116063
_cell_angle_gamma 90.000000
_cell_volume 3082.662049
_symmetry_space_group_name_H-M "C 2/C"
_symmetry_group_IT_number 15
_symmetry_cell_setting 'monoclinic'
loop_
_space_group_symop_operation_xyz
x,y,z
-x,y,1/2-z
-x,-y,-z
x,-y,1/2+z
1/2+x,1/2+y,z
1/2-x,1/2+y,1/2-z
1/2-x,1/2-y,-z
1/2+x,1/2-y,1/2+z
loop_
_atom_site_type_symbol
_atom_site_label
_atom_site_fract_x
_atom_site_fract_y
_atom_site_fract_z
Si Si1 0.037658 0.712120 0.894725
Si Si2 0.890180 0.129463 0.732447
Si Si3 0.712862 0.945620 0.824240
Si Si4 0.714862 0.057239 0.957529
Si Si5 0.090480 0.754873 0.308325
Si Si6 0.001599 0.394171 0.568226
Si Si7 0.713633 0.273574 0.679503
Si Si8 0.112306 0.123607 0.129903
O O1 0.149268 0.733828 0.811887
O O2 0.000000 0.699232 0.750000
O O3 0.018498 0.662261 0.000096
O O4 0.967438 0.756478 0.000079
O O5 0.801777 0.095570 0.852466
O O6 0.874341 0.189888 0.762369
O O7 0.889507 0.122179 0.551520
O O8 0.000000 0.118025 0.750000
O O9 0.719612 0.945073 0.637797
O O10 0.603736 0.920355 0.926059
O O11 0.803593 0.914055 0.849689
O O12 0.724741 0.002053 0.880282
O O13 0.603186 0.076080 0.968399
O O14 0.184131 0.717348 0.279354
O O15 0.000000 0.737837 0.250000
O O16 0.000000 0.393627 0.750000
O O17 0.750000 0.250000 0.500000
O O18 0.648663 0.322370 0.676033
O O19 0.000000 0.112167 0.250000
#
# Coordination Sequence:
#
# PCOD9298063 Si02
#       8
#     8   8   8   8   8   8   8   8
#     4  12  23  38  65  97 133 180 226 274 334 402
#     4  11  23  42  68  98 134 176 226 279 340 402
#     4  11  25  45  70  99 135 175 226 285 349 406
#     4  11  24  45  70 100 135 177 229 287 343 407
#     4  11  24  41  62  96 138 176 225 275 330 401
#     4  10  24  43  67 101 140 177 225 282 342 409
#     4  12  23  41  67  97 137 178 229 276 329 401
#     4  12  25  44  69  99 137 180 226 284 340 406
#
# _framework density 20.761275999999999
#
# number of rings (size 3 to 8) (size 9 to 14) (size 15 to 20)
#    0.000    0.750    2.500    4.875    0.000    4.000 
#    0.000    2.500    0.000    0.000    0.000    0.000 
#    0.000    0.000    0.000    0.000    0.000    0.000 
#
# Total GULP energy -178884.849110 kJ/mol
# GULP energy per Si atom -5590.151535 kJ/mol
# Density = 2.071402 g / cm^3
# Si number density = 20.761276 Si / 1000 Ang^3
#
#
#
# Elastic Constant Matrix: (Units=GPa)
#
#
# Indices 1 2 3 4 5 6 
#
# 1 187.5042 52.2310 44.7895 0.0000 1.5173 0.0000
# 2 52.2310 98.3817 26.2218 0.0000 4.7970 0.0000
# 3 44.7895 26.2218 54.3602 0.0000 1.2223 0.0000
# 4 0.0000 0.0000 0.0000 39.3095 0.0000 -9.7823
# 5 1.5173 4.7970 1.2223 0.0000 31.1567 0.0000
# 6 0.0000 0.0000 0.0000 -9.7823 0.0000 48.0725
#
#
#
# Elastic Compliance Matrix: (Units=1/GPa)
#
#
# Indices 1 2 3 4 5 6 
#
# 1 0.007162 -0.002570 -0.004667 0.000000 0.000230 0.000000
# 2 -0.002570 0.012664 -0.003954 0.000000 -0.001670 0.000000
# 3 -0.004667 -0.003954 0.024151 0.000000 -0.000111 0.000000
# 4 0.000000 0.000000 0.000000 0.026796 0.000000 0.005453
# 5 0.000230 -0.001670 -0.000111 0.000000 0.032346 0.000000
# 6 0.000000 0.000000 0.000000 0.005453 0.000000 0.021912
#
#
# Mechanical properties :
#
#
# Convention : Reuss Voigt Hill
#
# Bulk Modulus (GPa) = 46.30481 65.19230 55.74856
# Shear Modulus (GPa) = 32.33960 38.17466 35.25713
#
# Velocity S-wave (km/s) = 3.95104 4.29271 4.12541
# Velocity P-wave (km/s) = 6.57009 7.48591 7.04291
#
# Compressibility (1/GPa) = 0.02159603
#
# Stress axis : x y z
#
# Youngs Moduli (GPa) = 139.62826 78.96402 41.40687
#
# Poissons Ratio (x) = 0.20291 0.19323
# Poissons Ratio (y) = 0.35880 0.16372
# Poissons Ratio (z) = 0.65159 0.31222
#
# Static dielectric constant tensor:
#      x y z
#    x 1.778890 0.000000 0.014380 
#    y 0.000000 1.800510 0.000000 
#    z 0.014380 0.000000 1.713940 
# 
# From -- ./inp_files/43511.got.cif
#   From: 2010.05.17/outbox.cif.g08.bks.cpg/sg15_22_cif.got.tgz:43511.got - 2010.06.03 18:47:42.
