data_PCOD9298395
_publ_section_title
;
Structure prediction by ZEFSAII (Michael W. Deem and Ramdas Pophale) SiO2 
 PCOD9298395
Probable space group: C 2/C
;
_chemical_formula_sum "Si O2"
_cell_formula_units_Z 36
_cell_length_a 4.989157
_cell_length_b 8.979329
_cell_length_c 29.315276
_cell_angle_alpha 90.000000
_cell_angle_beta 83.773478
_cell_angle_gamma 90.000000
_cell_volume 1305.555967
_symmetry_space_group_name_H-M "C 2/C"
_symmetry_group_IT_number 15
_symmetry_cell_setting 'monoclinic'
loop_
_space_group_symop_operation_xyz
x,y,z
-x,y,1/2-z
-x,-y,-z
x,-y,1/2+z
1/2+x,1/2+y,z
1/2-x,1/2+y,1/2-z
1/2-x,1/2-y,-z
1/2+x,1/2-y,1/2+z
loop_
_atom_site_type_symbol
_atom_site_label
_atom_site_fract_x
_atom_site_fract_y
_atom_site_fract_z
Si Si1 0.944419 0.500107 0.614143
Si Si2 0.074638 0.656849 0.523836
Si Si3 0.005902 0.817409 0.075418
Si Si4 0.187313 0.556200 0.707071
Si Si5 0.000000 0.271357 0.750000
O O1 0.649142 0.551300 0.602907
O O2 0.174132 0.578440 0.576092
O O3 0.933418 0.323978 0.607901
O O4 0.039581 0.547187 0.661951
O O5 0.000000 0.500000 0.500000
O O6 0.114190 0.773804 0.475499
O O7 0.816770 0.733023 0.550630
O O8 0.438255 0.663230 0.708635
O O9 0.000000 0.624333 0.750000
O O10 0.218021 0.389386 0.725841
#
# Coordination Sequence:
#
# PCOD9298395 Si02
#       5
#     8   8   8   8   4
#     4  10  26  40  69  96 140 178 234 286 354 419
#     4  10  24  44  69 100 139 180 232 287 351 419
#     4  10  25  42  67 100 134 181 227 285 350 418
#     4  10  26  44  70 103 138 187 232 298 355 432
#     4  10  26  40  72  96 142 174 242 278 370 410
#
# _framework density 27.574459000000001
#
# number of rings (size 3 to 8) (size 9 to 14) (size 15 to 20)
#    2.000    0.000    0.000    0.667   10.889    1.778 
#    0.000    0.000    0.000    0.000    0.000    0.000 
#    0.000    0.000    0.000    0.000    0.000    0.000 
#
# Total GULP energy -100390.158922 kJ/mol
# GULP energy per Si atom -5577.231051 kJ/mol
# Density = 2.751170 g / cm^3
# Si number density = 27.574459 Si / 1000 Ang^3
#
#
#
# Elastic Constant Matrix: (Units=GPa)
#
#
# Indices 1 2 3 4 5 6 
#
# 1 150.3526 84.5201 69.6900 0.0000 57.6238 0.0000
# 2 84.5201 217.5235 66.4381 0.0000 30.2122 0.0000
# 3 69.6900 66.4381 227.9793 0.0000 41.2073 0.0000
# 4 0.0000 0.0000 0.0000 32.1801 0.0000 25.3107
# 5 57.6238 30.2122 41.2073 0.0000 58.2610 0.0000
# 6 0.0000 0.0000 0.0000 25.3107 0.0000 38.4847
#
#
#
# Elastic Compliance Matrix: (Units=1/GPa)
#
#
# Indices 1 2 3 4 5 6 
#
# 1 0.012973 -0.003255 -0.001150 0.000000 -0.010330 0.000000
# 2 -0.003255 0.006035 -0.000894 0.000000 0.000722 0.000000
# 3 -0.001150 -0.000894 0.005399 0.000000 -0.002218 0.000000
# 4 0.000000 0.000000 0.000000 0.064376 0.000000 -0.042339
# 5 -0.010330 0.000722 -0.002218 0.000000 0.028575 0.000000
# 6 0.000000 0.000000 0.000000 -0.042339 0.000000 0.053830
#
#
# Mechanical properties :
#
#
# Convention : Reuss Voigt Hill
#
# Bulk Modulus (GPa) = 72.41769 115.23908 93.82839
# Shear Modulus (GPa) = 26.82576 50.79898 38.81237
#
# Velocity S-wave (km/s) = 3.12244 4.29680 3.75580
# Velocity P-wave (km/s) = 6.27049 8.15471 7.27387
#
# Compressibility (1/GPa) = 0.01380878
#
# Stress axis : x y z
#
# Youngs Moduli (GPa) = 77.08604 165.70993 185.20695
#
# Poissons Ratio (x) = 0.53932 0.21298
# Poissons Ratio (y) = 0.25089 0.16562
# Poissons Ratio (z) = 0.08865 0.14819
#
# Static dielectric constant tensor:
#      x y z
#    x 4.456660 0.000000 0.094700 
#    y 0.000000 2.041580 0.000000 
#    z 0.094700 0.000000 2.331500 
# 
# From -- ./inp_files/304863.got.cif
#   From: 2010.05.17/outbox.cif.g08.bks.cpg/sg15_153_cif.got.tgz:304863.got - 2010.06.03 18:47:42.
