data_PCOD9298242
_publ_section_title
;
Structure prediction by ZEFSAII (Michael W. Deem and Ramdas Pophale) SiO2 
 PCOD9298242
Probable space group: C 2/C
;
_chemical_formula_sum "Si O2"
_cell_formula_units_Z 48
_cell_length_a 12.386952
_cell_length_b 7.220515
_cell_length_c 22.461481
_cell_angle_alpha 90.000000
_cell_angle_beta 107.040766
_cell_angle_gamma 90.000000
_cell_volume 1920.758402
_symmetry_space_group_name_H-M "C 2/C"
_symmetry_group_IT_number 15
_symmetry_cell_setting 'monoclinic'
loop_
_space_group_symop_operation_xyz
x,y,z
-x,y,1/2-z
-x,-y,-z
x,-y,1/2+z
1/2+x,1/2+y,z
1/2-x,1/2+y,1/2-z
1/2-x,1/2-y,-z
1/2+x,1/2-y,1/2+z
loop_
_atom_site_type_symbol
_atom_site_label
_atom_site_fract_x
_atom_site_fract_y
_atom_site_fract_z
Si Si1 0.139090 0.856871 0.959882
Si Si2 0.106236 0.183971 0.043392
Si Si3 0.357395 0.845823 0.284214
Si Si4 0.212838 0.091293 0.878067
Si Si5 0.504975 0.828616 0.819967
Si Si6 0.672197 0.462013 0.170848
O O1 0.021489 0.762760 0.959908
O O2 0.154853 0.905761 0.892810
O O3 0.250000 0.750000 0.000000
O O4 0.119183 0.059913 0.987144
O O5 0.185554 0.361352 0.060289
O O6 0.153555 0.048097 0.103124
O O7 0.470480 0.957830 0.315767
O O8 0.297020 0.912969 0.214132
O O9 0.268615 0.902792 0.322121
O O10 0.370490 0.627306 0.292654
O O11 0.121406 0.255858 0.864312
O O12 0.500000 0.771875 0.750000
O O13 0.404652 0.717287 0.835545
#
# Coordination Sequence:
#
# PCOD9298242 Si02
#       6
#     8   8   8   8   8   8
#     4  11  25  41  68  97 122 175 222 271 337 389
#     4  10  24  44  63  93 135 165 219 281 317 390
#     4  11  24  40  70 101 134 178 215 272 327 396
#     4  11  24  44  66  94 134 174 219 272 328 394
#     4  12  23  43  67  99 137 175 217 268 334 396
#     4  11  21  41  66  97 135 172 217 267 327 391
#
# _framework density 24.990129
#
# number of rings (size 3 to 8) (size 9 to 14) (size 15 to 20)
#    0.000    1.000    5.000    1.500    2.333    4.000 
#    0.000    0.000    0.000    0.000    0.000    0.000 
#    0.000    0.000    0.000    0.000    0.000    0.000 
#
# Total GULP energy -134301.804197 kJ/mol
# GULP energy per Si atom -5595.908508 kJ/mol
# Density = 2.493325 g / cm^3
# Si number density = 24.990129 Si / 1000 Ang^3
#
#
#
# Elastic Constant Matrix: (Units=GPa)
#
#
# Indices 1 2 3 4 5 6 
#
# 1 162.2825 26.9093 17.2350 0.0000 30.7080 0.0000
# 2 26.9093 68.8410 -0.8557 0.0000 14.3304 0.0000
# 3 17.2350 -0.8557 52.5312 0.0000 10.3893 0.0000
# 4 0.0000 0.0000 0.0000 38.6234 0.0000 8.8981
# 5 30.7080 14.3304 10.3893 0.0000 37.1225 0.0000
# 6 0.0000 0.0000 0.0000 8.8981 0.0000 33.5706
#
#
#
# Elastic Compliance Matrix: (Units=1/GPa)
#
#
# Indices 1 2 3 4 5 6 
#
# 1 0.007613 -0.001927 -0.001515 0.000000 -0.005130 0.000000
# 2 -0.001927 0.016403 0.001944 0.000000 -0.005282 0.000000
# 3 -0.001515 0.001944 0.020606 0.000000 -0.005265 0.000000
# 4 0.000000 0.000000 0.000000 0.027575 0.000000 -0.007309
# 5 -0.005130 -0.005282 -0.005265 0.000000 0.034694 0.000000
# 6 0.000000 0.000000 0.000000 -0.007309 0.000000 0.031725
#
#
# Mechanical properties :
#
#
# Convention : Reuss Voigt Hill
#
# Bulk Modulus (GPa) = 24.02252 41.13688 32.57970
# Shear Modulus (GPa) = 32.15701 37.88772 35.02236
#
# Velocity S-wave (km/s) = 3.59108 3.89795 3.74765
# Velocity P-wave (km/s) = 5.17958 6.06264 5.63843
#
# Compressibility (1/GPa) = 0.04162760
#
# Stress axis : x y z
#
# Youngs Moduli (GPa) = 131.35119 60.96385 48.52938
#
# Poissons Ratio (x) = 0.11747 0.07350
# Poissons Ratio (y) = 0.25309 -0.09434
# Poissons Ratio (z) = 0.19895 -0.11852
#
# Static dielectric constant tensor:
#      x y z
#    x 2.032070 0.000000 -0.045490 
#    y 0.000000 1.942460 0.000000 
#    z -0.045490 0.000000 2.005940 
# 
# From -- ./inp_files/268073.got.cif
#   From: 2010.05.17/outbox.cif.g08.bks.cpg/sg15_135_cif.got.tgz:268073.got - 2010.06.03 18:47:42.
