data_PCOD9298177
_publ_section_title
;
Structure prediction by ZEFSAII (Michael W. Deem and Ramdas Pophale) SiO2 
 PCOD9298177
Probable space group: C 2/C
;
_chemical_formula_sum "Si O2"
_cell_formula_units_Z 36
_cell_length_a 18.424259
_cell_length_b 10.473664
_cell_length_c 10.195966
_cell_angle_alpha 90.000000
_cell_angle_beta 124.744956
_cell_angle_gamma 90.000000
_cell_volume 1616.697653
_symmetry_space_group_name_H-M "C 2/C"
_symmetry_group_IT_number 15
_symmetry_cell_setting 'monoclinic'
loop_
_space_group_symop_operation_xyz
x,y,z
-x,y,1/2-z
-x,-y,-z
x,-y,1/2+z
1/2+x,1/2+y,z
1/2-x,1/2+y,1/2-z
1/2-x,1/2-y,-z
1/2+x,1/2-y,1/2+z
loop_
_atom_site_type_symbol
_atom_site_label
_atom_site_fract_x
_atom_site_fract_y
_atom_site_fract_z
Si Si1 0.500000 0.244660 0.750000
Si Si2 0.727595 0.678220 0.110634
Si Si3 0.914373 0.921569 0.874297
Si Si4 0.756821 0.431984 0.275618
Si Si5 0.942688 0.500295 0.072679
O O1 0.442787 0.327605 0.789437
O O2 0.564021 0.147768 0.892320
O O3 0.625144 0.651234 0.039456
O O4 0.768878 0.536427 0.171209
O O5 0.756725 0.780354 0.253774
O O6 0.750000 0.750000 0.000000
O O7 0.831873 0.011639 0.749433
O O8 0.000000 0.000000 0.000000
O O9 0.847207 0.443098 0.448994
O O10 0.000000 0.561096 0.250000
O O11 0.000000 0.500000 0.000000
#
# Coordination Sequence:
#
# PCOD9298177 Si02
#       5
#     4   8   8   8   8
#     4  10  24  44  68 104 150 200 258 310 398 462
#     4  10  25  45  73 109 154 202 258 320 398 457
#     4  10  25  42  73 108 154 195 257 312 403 458
#     4  10  25  45  73 109 148 200 261 314 392 462
#     4  10  24  43  72 103 145 193 259 317 383 458
#
# _framework density 22.267613999999998
#
# number of rings (size 3 to 8) (size 9 to 14) (size 15 to 20)
#    2.000    0.000    0.000    1.333    9.333    0.889 
#    0.000    0.000    0.000    0.000    0.000    0.000 
#    0.000    0.000    0.000    0.000    0.000    0.000 
#
# Total GULP energy -100240.328574 kJ/mol
# GULP energy per Si atom -5568.907143 kJ/mol
# Density = 2.221693 g / cm^3
# Si number density = 22.267614 Si / 1000 Ang^3
#
#
#
# Elastic Constant Matrix: (Units=GPa)
#
#
# Indices 1 2 3 4 5 6 
#
# 1 129.8861 29.8428 49.6722 0.0000 3.6275 0.0000
# 2 29.8428 95.6866 12.6603 0.0000 -4.9251 0.0000
# 3 49.6722 12.6603 85.4015 0.0000 8.2522 0.0000
# 4 0.0000 0.0000 0.0000 35.1621 0.0000 -2.4702
# 5 3.6275 -4.9251 8.2522 0.0000 45.2733 0.0000
# 6 0.0000 0.0000 0.0000 -2.4702 0.0000 53.8044
#
#
#
# Elastic Compliance Matrix: (Units=1/GPa)
#
#
# Indices 1 2 3 4 5 6 
#
# 1 0.010460 -0.002511 -0.005704 0.000000 -0.000071 0.000000
# 2 -0.002511 0.011360 -0.000369 0.000000 0.001504 0.000000
# 3 -0.005704 -0.000369 0.015311 0.000000 -0.002374 0.000000
# 4 0.000000 0.000000 0.000000 0.028532 0.000000 0.001310
# 5 -0.000071 0.001504 -0.002374 0.000000 0.022690 0.000000
# 6 0.000000 0.000000 0.000000 0.001310 0.000000 0.018646
#
#
# Mechanical properties :
#
#
# Convention : Reuss Voigt Hill
#
# Bulk Modulus (GPa) = 50.09464 55.03609 52.56536
# Shear Modulus (GPa) = 38.21993 41.43456 39.82725
#
# Velocity S-wave (km/s) = 4.14743 4.31833 4.23374
# Velocity P-wave (km/s) = 6.74391 7.04509 6.89615
#
# Compressibility (1/GPa) = 0.01996222
#
# Stress axis : x y z
#
# Youngs Moduli (GPa) = 95.60660 88.02688 65.31102
#
# Poissons Ratio (x) = 0.22104 0.37256
# Poissons Ratio (y) = 0.24007 0.02410
# Poissons Ratio (z) = 0.54538 0.03248
#
# Static dielectric constant tensor:
#      x y z
#    x 1.816430 0.000000 -0.017250 
#    y 0.000000 1.923200 0.000000 
#    z -0.017250 0.000000 1.960170 
# 
# From -- ./inp_files/103407.got.cif
#   From: 2010.05.17/outbox.cif.g08.bks.cpg/sg15_52_cif.got.tgz:103407.got - 2010.06.03 18:47:42.
