data_PCOD9298819
_publ_section_title
;
Structure prediction by ZEFSAII (Michael W. Deem and Ramdas Pophale) SiO2 
 PCOD9298819
Probable space group: C 2/C
;
_chemical_formula_sum "Si O2"
_cell_formula_units_Z 32
_cell_length_a 13.969109
_cell_length_b 9.392957
_cell_length_c 9.355885
_cell_angle_alpha 90.000000
_cell_angle_beta 75.377858
_cell_angle_gamma 90.000000
_cell_volume 1187.837468
_symmetry_space_group_name_H-M "C 2/C"
_symmetry_group_IT_number 15
_symmetry_cell_setting 'monoclinic'
loop_
_space_group_symop_operation_xyz
x,y,z
-x,y,1/2-z
-x,-y,-z
x,-y,1/2+z
1/2+x,1/2+y,z
1/2-x,1/2+y,1/2-z
1/2-x,1/2-y,-z
1/2+x,1/2-y,1/2+z
loop_
_atom_site_type_symbol
_atom_site_label
_atom_site_fract_x
_atom_site_fract_y
_atom_site_fract_z
Si Si1 0.217027 0.610003 0.830410
Si Si2 0.650826 0.365857 0.697232
Si Si3 0.454681 0.878871 0.916143
Si Si4 0.090489 0.115026 0.890863
O O1 0.243922 0.443405 0.807099
O O2 0.326720 0.667782 0.754243
O O3 0.152426 0.701404 0.742379
O O4 0.160922 0.626594 0.000355
O O5 0.865939 0.113165 0.465191
O O6 0.577864 0.457042 0.828561
O O7 0.500000 0.922836 0.750000
O O8 0.500808 0.722737 0.921841
O O9 0.500000 0.000000 0.000000
#
# Coordination Sequence:
#
# PCOD9298819 Si02
#       4
#     8   8   8   8
#     4  10  25  46  78 103 152 198 252 304 377 441
#     4  10  24  45  79 107 153 199 247 313 370 453
#     4  12  30  47  76 113 151 198 254 313 378 451
#     4  10  26  47  76 111 151 196 251 304 386 435
#
# _framework density 26.939712
#
# number of rings (size 3 to 8) (size 9 to 14) (size 15 to 20)
#    1.500    0.000    0.000    2.250   10.500    3.000 
#    0.000    0.000    0.000    0.000    0.000    0.000 
#    0.000    0.000    0.000    0.000    0.000    0.000 
#
# Total GULP energy -89311.125935 kJ/mol
# GULP energy per Si atom -5581.945371 kJ/mol
# Density = 2.687840 g / cm^3
# Si number density = 26.939712 Si / 1000 Ang^3
#
#
#
# Elastic Constant Matrix: (Units=GPa)
#
#
# Indices 1 2 3 4 5 6 
#
# 1 68.2263 58.0110 63.5981 0.0000 -13.2793 0.0000
# 2 58.0110 114.0226 82.5431 0.0000 -7.9445 0.0000
# 3 63.5981 82.5431 237.2519 0.0000 2.6308 0.0000
# 4 0.0000 0.0000 0.0000 39.9325 0.0000 0.1475
# 5 -13.2793 -7.9445 2.6308 0.0000 70.6048 0.0000
# 6 0.0000 0.0000 0.0000 0.1475 0.0000 25.6673
#
#
#
# Elastic Compliance Matrix: (Units=1/GPa)
#
#
# Indices 1 2 3 4 5 6 
#
# 1 0.028925 -0.011725 -0.003722 0.000000 0.004259 0.000000
# 2 -0.011725 0.016631 -0.002640 0.000000 -0.000236 0.000000
# 3 -0.003722 -0.002640 0.006145 0.000000 -0.001226 0.000000
# 4 0.000000 0.000000 0.000000 0.025043 0.000000 -0.000144
# 5 0.004259 -0.000236 -0.001226 0.000000 0.014984 0.000000
# 6 0.000000 0.000000 0.000000 -0.000144 0.000000 0.038961
#
#
# Mechanical properties :
#
#
# Convention : Reuss Voigt Hill
#
# Bulk Modulus (GPa) = 64.40769 91.97835 78.19302
# Shear Modulus (GPa) = 29.06357 41.59748 35.33052
#
# Velocity S-wave (km/s) = 3.28813 3.93376 3.62535
# Velocity P-wave (km/s) = 6.19481 7.40601 6.82733
#
# Compressibility (1/GPa) = 0.01552610
#
# Stress axis : x y z
#
# Youngs Moduli (GPa) = 34.57244 60.13042 162.74134
#
# Poissons Ratio (x) = 0.70504 0.60564
# Poissons Ratio (y) = 0.40537 0.42969
# Poissons Ratio (z) = 0.12866 0.15876
#
# Static dielectric constant tensor:
#      x y z
#    x 2.214210 0.000000 0.002060 
#    y 0.000000 2.097270 0.000000 
#    z 0.002060 0.000000 2.118760 
# 
# From -- ./inp_files/109288.got.cif
#   From: 2010.05.17/outbox.cif.g08.bks.cpg/sg15_55_cif.got.tgz:109288.got - 2010.06.03 18:47:42.
