data_PCOD9298930
_publ_section_title
;
Structure prediction by ZEFSAII (Michael W. Deem and Ramdas Pophale) SiO2 
 PCOD9298930
Probable space group: C 2/C
;
_chemical_formula_sum "Si O2"
_cell_formula_units_Z 40
_cell_length_a 16.634395
_cell_length_b 20.397636
_cell_length_c 8.065215
_cell_angle_alpha 90.000000
_cell_angle_beta 35.034053
_cell_angle_gamma 90.000000
_cell_volume 1570.950478
_symmetry_space_group_name_H-M "C 2/C"
_symmetry_group_IT_number 15
_symmetry_cell_setting 'monoclinic'
loop_
_space_group_symop_operation_xyz
x,y,z
-x,y,1/2-z
-x,-y,-z
x,-y,1/2+z
1/2+x,1/2+y,z
1/2-x,1/2+y,1/2-z
1/2-x,1/2-y,-z
1/2+x,1/2-y,1/2+z
loop_
_atom_site_type_symbol
_atom_site_label
_atom_site_fract_x
_atom_site_fract_y
_atom_site_fract_z
Si Si1 0.886861 0.351492 0.147134
Si Si2 0.362271 0.351749 0.684676
Si Si3 0.703025 0.524487 0.405765
Si Si4 0.353498 0.603475 0.661701
Si Si5 0.000000 0.752566 0.250000
Si Si6 0.000000 0.500000 0.000000
O O1 0.777246 0.336537 0.478410
O O2 0.782725 0.356343 0.163451
O O3 0.961091 0.420706 0.051656
O O4 0.994727 0.294515 0.918850
O O5 0.355090 0.425515 0.628964
O O6 0.508987 0.353119 0.538330
O O7 0.376509 0.303265 0.504474
O O8 0.680055 0.558622 0.621112
O O9 0.640609 0.452348 0.491810
O O10 0.867980 0.515826 0.099559
#
# Coordination Sequence:
#
# PCOD9298930 Si02
#       6
#     8   8   8   8   4   4
#     4  11  26  47  77 104 147 193 246 310 371 441
#     4  12  25  46  70 106 146 194 245 299 373 449
#     4  11  22  41  72 104 150 187 242 307 368 430
#     4  11  23  43  70 109 144 189 244 309 367 430
#     4  12  26  50  72 104 152 194 246 298 376 458
#     4  10  24  46  70 112 138 186 250 306 362 426
#
# _framework density 25.462292000000001
#
# number of rings (size 3 to 8) (size 9 to 14) (size 15 to 20)
#    0.000    0.800    2.000    5.400    0.000   12.000 
#    3.600    0.000    0.000    0.000    0.000    0.000 
#    0.000    0.000    0.000    0.000    0.000    0.000 
#
# Total GULP energy -111388.809772 kJ/mol
# GULP energy per Si atom -5569.440489 kJ/mol
# Density = 2.540434 g / cm^3
# Si number density = 25.462292 Si / 1000 Ang^3
#
#
#
# Elastic Constant Matrix: (Units=GPa)
#
#
# Indices 1 2 3 4 5 6 
#
# 1 93.6322 12.3415 17.0450 0.0001 -21.5754 -0.0007
# 2 12.3415 142.5830 56.8063 0.0000 -5.9653 -0.0005
# 3 17.0450 56.8063 131.7312 0.0002 6.0237 -0.0012
# 4 0.0001 0.0000 0.0002 26.0075 -0.0001 2.9879
# 5 -21.5754 -5.9653 6.0237 -0.0001 51.4744 0.0009
# 6 -0.0007 -0.0005 -0.0012 2.9879 0.0009 1.5743
#
#
#
# Elastic Compliance Matrix: (Units=1/GPa)
#
#
# Indices 1 2 3 4 5 6 
#
# 1 0.012247 -0.000131 -0.001771 0.000000 0.005325 0.000002
# 2 -0.000131 0.008574 -0.003743 0.000000 0.001377 -0.000002
# 3 -0.001771 -0.003743 0.009539 -0.000001 -0.002293 0.000009
# 4 0.000000 0.000000 -0.000001 0.049173 0.000002 -0.093328
# 5 0.005325 0.001377 -0.002293 0.000002 0.022087 -0.000014
# 6 0.000002 -0.000002 0.000009 -0.093328 -0.000014 0.812343
#
#
# Mechanical properties :
#
#
# Convention : Reuss Voigt Hill
#
# Bulk Modulus (GPa) = 52.44417 60.03690 56.24053
# Shear Modulus (GPa) = 5.36705 34.59480 19.98093
#
# Velocity S-wave (km/s) = 1.45342 3.69001 2.80434
# Velocity P-wave (km/s) = 4.84335 6.46412 5.71152
#
# Compressibility (1/GPa) = 0.01906790
#
# Stress axis : x y z
#
# Youngs Moduli (GPa) = 81.65252 116.63509 104.82796
#
# Poissons Ratio (x) = 0.01534 0.18570
# Poissons Ratio (y) = 0.01074 0.39239
# Poissons Ratio (z) = 0.14465 0.43659
#
# Static dielectric constant tensor:
#      x y z
#    x 2.013970 0.000000 0.041930 
#    y 0.000000 1.952480 0.000000 
#    z 0.041930 0.000000 2.132850 
# 
# From -- ./inp_files/49995.got.cif
#   From: 2010.05.17/outbox.cif.g08.bks.cpg/sg15_25_cif.got.tgz:49995.got - 2010.06.03 18:47:42.
