data_PCOD9298575
_publ_section_title
;
Structure prediction by ZEFSAII (Michael W. Deem and Ramdas Pophale) SiO2 
 PCOD9298575
Probable space group: C 2/C
;
_chemical_formula_sum "Si O2"
_cell_formula_units_Z 48
_cell_length_a 9.371850
_cell_length_b 23.565254
_cell_length_c 14.481101
_cell_angle_alpha 90.000000
_cell_angle_beta 143.182290
_cell_angle_gamma 90.000000
_cell_volume 1916.559702
_symmetry_space_group_name_H-M "C 2/C"
_symmetry_group_IT_number 15
_symmetry_cell_setting 'monoclinic'
loop_
_space_group_symop_operation_xyz
x,y,z
-x,y,1/2-z
-x,-y,-z
x,-y,1/2+z
1/2+x,1/2+y,z
1/2-x,1/2+y,1/2-z
1/2-x,1/2-y,-z
1/2+x,1/2-y,1/2+z
loop_
_atom_site_type_symbol
_atom_site_label
_atom_site_fract_x
_atom_site_fract_y
_atom_site_fract_z
Si Si1 0.763338 0.733935 0.400774
Si Si2 0.951933 0.419798 0.371397
Si Si3 0.258403 0.596994 0.415127
Si Si4 0.719290 0.523793 0.916512
Si Si5 0.249937 0.694544 0.563136
Si Si6 0.805099 0.137367 0.930957
O O1 0.500000 0.708035 0.250000
O O2 0.750000 0.750000 0.500000
O O3 0.773338 0.800005 0.369529
O O4 0.003821 0.702051 0.494367
O O5 0.802436 0.424573 0.389872
O O6 0.791389 0.404829 0.199446
O O7 0.074227 0.481060 0.446679
O O8 0.167742 0.376954 0.454491
O O9 0.368864 0.546526 0.531482
O O10 0.233136 0.646137 0.477646
O O11 0.419232 0.621903 0.417500
O O12 0.000000 0.579272 0.250000
O O13 0.500000 0.495060 0.750000
O O14 0.500000 0.691543 0.750000
O O15 0.250000 0.750000 0.500000
#
# Coordination Sequence:
#
# PCOD9298575 Si02
#       6
#     8   8   8   8   8   8
#     4  12  27  44  74 108 146 194 248 306 377 441
#     4  10  24  44  75 106 143 191 244 296 380 438
#     4  12  28  45  73 108 145 195 252 297 375 447
#     4  11  24  46  74 109 146 193 244 306 370 445
#     4  12  26  46  76 103 150 196 249 312 368 452
#     4  11  24  47  74 102 149 191 241 306 378 439
#
# _framework density 25.044875000000001
#
# number of rings (size 3 to 8) (size 9 to 14) (size 15 to 20)
#    0.000    0.667    5.000    2.000    7.000    3.333 
#    0.000    0.833    0.000    0.000    0.000    0.000 
#    0.000    0.000    0.000    0.000    0.000    0.000 
#
# Total GULP energy -133772.855976 kJ/mol
# GULP energy per Si atom -5573.868999 kJ/mol
# Density = 2.498787 g / cm^3
# Si number density = 25.044875 Si / 1000 Ang^3
#
#
#
# Elastic Constant Matrix: (Units=GPa)
#
#
# Indices 1 2 3 4 5 6 
#
# 1 148.7045 7.7768 27.6799 0.0000 31.5927 0.0000
# 2 7.7768 42.9071 11.1686 0.0000 -8.1453 0.0000
# 3 27.6799 11.1686 125.4461 0.0000 14.5671 0.0000
# 4 0.0000 0.0000 0.0000 5.6978 0.0000 -15.8366
# 5 31.5927 -8.1453 14.5671 0.0000 47.2953 0.0000
# 6 0.0000 0.0000 0.0000 -15.8366 0.0000 36.3933
#
#
#
# Elastic Compliance Matrix: (Units=1/GPa)
#
#
# Indices 1 2 3 4 5 6 
#
# 1 0.008210 -0.002299 -0.000958 0.000000 -0.005585 0.000000
# 2 -0.002299 0.025670 -0.002562 0.000000 0.006745 0.000000
# 3 -0.000958 -0.002562 0.008699 0.000000 -0.002480 0.000000
# 4 0.000000 0.000000 0.000000 -0.837821 0.000000 -0.364579
# 5 -0.005585 0.006745 -0.002480 0.000000 0.026800 0.000000
# 6 0.000000 0.000000 0.000000 -0.364579 0.000000 -0.131170
#
#
# Mechanical properties :
#
#
# Convention : Reuss Voigt Hill
#
# Bulk Modulus (GPa) = 32.31871 45.58980 38.95426
# Shear Modulus (GPa) = -5.69697 35.90609 15.10456
#
# Velocity S-wave (km/s) = -1.50985 3.79049 2.45847
# Velocity P-wave (km/s) = 3.14528 6.11554 4.86275
#
# Compressibility (1/GPa) = 0.03094183
#
# Stress axis : x y z
#
# Youngs Moduli (GPa) = 121.80477 38.95582 114.95462
#
# Poissons Ratio (x) = 0.08955 0.11016
# Poissons Ratio (y) = 0.28000 0.29446
# Poissons Ratio (z) = 0.11673 0.09979
#
# Static dielectric constant tensor:
#      x y z
#    x 2.140580 0.000000 0.078270 
#    y 0.000000 2.265410 0.000000 
#    z 0.078270 0.000000 1.981300 
# 
# From -- ./inp_files/138999.got.cif
#   From: 2010.05.17/outbox.cif.g08.bks.cpg/sg15_70_cif.got.tgz:138999.got - 2010.06.03 18:47:42.
