data_PCOD9298066
_publ_section_title
;
Structure prediction by ZEFSAII (Michael W. Deem and Ramdas Pophale) SiO2 
 PCOD9298066
Probable space group: C 2/C
;
_chemical_formula_sum "Si O2"
_cell_formula_units_Z 36
_cell_length_a 18.860586
_cell_length_b 5.318378
_cell_length_c 24.909593
_cell_angle_alpha 90.000000
_cell_angle_beta 33.711461
_cell_angle_gamma 90.000000
_cell_volume 1386.763734
_symmetry_space_group_name_H-M "C 2/C"
_symmetry_group_IT_number 15
_symmetry_cell_setting 'monoclinic'
loop_
_space_group_symop_operation_xyz
x,y,z
-x,y,1/2-z
-x,-y,-z
x,-y,1/2+z
1/2+x,1/2+y,z
1/2-x,1/2+y,1/2-z
1/2-x,1/2-y,-z
1/2+x,1/2-y,1/2+z
loop_
_atom_site_type_symbol
_atom_site_label
_atom_site_fract_x
_atom_site_fract_y
_atom_site_fract_z
Si Si1 0.255732 0.000565 0.960485
Si Si2 0.000000 0.699568 0.250000
Si Si3 0.334398 0.374400 0.159102
Si Si4 0.324652 0.486611 0.787959
Si Si5 0.903676 0.238971 0.025840
O O1 0.388128 0.973588 0.844353
O O2 0.139815 0.964641 0.991507
O O3 0.250000 0.750000 0.000000
O O4 0.250000 0.250000 0.000000
O O5 0.946577 0.889389 0.238048
O O6 0.312396 0.402500 0.235539
O O7 0.392212 0.609357 0.091124
O O8 0.205525 0.300974 0.208438
O O9 0.452664 0.179042 0.077266
O O10 0.209622 0.558670 0.900983
#
# Coordination Sequence:
#
# PCOD9298066 Si02
#       5
#     8   4   8   8   8
#     4  11  26  50  73 113 157 204 259 319 391 461
#     4  10  26  48  76 114 150 202 256 324 392 464
#     4  11  22  43  69 101 141 192 242 312 370 457
#     4  11  22  45  70 104 146 188 252 306 386 447
#     4  10  24  43  67 104 139 196 249 301 377 450
#
# _framework density 25.959723
#
# number of rings (size 3 to 8) (size 9 to 14) (size 15 to 20)
#    0.000    1.333    2.222    2.000    6.222    0.889 
#   20.000    0.000    0.000    0.000    0.000    0.000 
#    0.000    0.000    0.000    0.000    0.000    0.000 
#
# Total GULP energy -100655.452113 kJ/mol
# GULP energy per Si atom -5591.969562 kJ/mol
# Density = 2.590064 g / cm^3
# Si number density = 25.959723 Si / 1000 Ang^3
#
#
#
# Elastic Constant Matrix: (Units=GPa)
#
#
# Indices 1 2 3 4 5 6 
#
# 1 179.8426 55.8716 37.7864 0.0661 9.0804 -0.1216
# 2 55.8716 103.4265 32.5611 0.1947 12.0277 0.3060
# 3 37.7864 32.5611 122.2570 0.0533 10.8991 0.0556
# 4 0.0661 0.1947 0.0533 32.9632 -0.0036 7.9325
# 5 9.0804 12.0277 10.8991 -0.0036 43.3212 0.0768
# 6 -0.1216 0.3060 0.0556 7.9325 0.0768 41.4020
#
#
#
# Elastic Compliance Matrix: (Units=1/GPa)
#
#
# Indices 1 2 3 4 5 6 
#
# 1 0.006850 -0.003291 -0.001222 -0.000004 -0.000215 0.000047
# 2 -0.003291 0.012359 -0.002076 -0.000043 -0.002219 -0.000086
# 3 -0.001222 -0.002076 0.009243 -0.000001 -0.001493 0.000002
# 4 -0.000004 -0.000043 -0.000001 0.031803 0.000026 -0.006093
# 5 -0.000215 -0.002219 -0.001493 0.000026 0.024120 -0.000032
# 6 0.000047 -0.000086 0.000002 -0.006093 -0.000032 0.025322
#
#
# Mechanical properties :
#
#
# Convention : Reuss Voigt Hill
#
# Bulk Modulus (GPa) = 65.47143 73.10714 69.28929
# Shear Modulus (GPa) = 39.07248 42.15776 40.61512
#
# Velocity S-wave (km/s) = 3.88380 4.03422 3.95972
# Velocity P-wave (km/s) = 6.73698 7.06561 6.90325
#
# Compressibility (1/GPa) = 0.01527384
#
# Stress axis : x y z
#
# Youngs Moduli (GPa) = 145.97583 80.91453 108.18801
#
# Poissons Ratio (x) = 0.26631 0.13216
# Poissons Ratio (y) = 0.48044 0.22465
# Poissons Ratio (z) = 0.17832 0.16801
#
# Static dielectric constant tensor:
#      x y z
#    x 2.081090 0.000090 -0.067570 
#    y 0.000090 2.267000 0.000220 
#    z -0.067570 0.000220 2.039740 
# 
# From -- ./inp_files/165128.got.cif
#   From: 2010.05.17/outbox.cif.g08.bks.cpg/sg15_83_cif.got.tgz:165128.got - 2010.06.03 18:47:42.
