data_PCOD9298262
_publ_section_title
;
Structure prediction by ZEFSAII (Michael W. Deem and Ramdas Pophale) SiO2 
 PCOD9298262
Probable space group: C 2/C
;
_chemical_formula_sum "Si O2"
_cell_formula_units_Z 40
_cell_length_a 7.535786
_cell_length_b 14.410525
_cell_length_c 24.737734
_cell_angle_alpha 90.000000
_cell_angle_beta 132.728900
_cell_angle_gamma 90.000000
_cell_volume 1973.344477
_symmetry_space_group_name_H-M "C 2/C"
_symmetry_group_IT_number 15
_symmetry_cell_setting 'monoclinic'
loop_
_space_group_symop_operation_xyz
x,y,z
-x,y,1/2-z
-x,-y,-z
x,-y,1/2+z
1/2+x,1/2+y,z
1/2-x,1/2+y,1/2-z
1/2-x,1/2-y,-z
1/2+x,1/2-y,1/2+z
loop_
_atom_site_type_symbol
_atom_site_label
_atom_site_fract_x
_atom_site_fract_y
_atom_site_fract_z
Si Si1 0.345632 0.232070 0.663589
Si Si2 0.947968 0.316032 0.065503
Si Si3 0.223421 0.515318 0.462414
Si Si4 0.134089 0.120474 0.906819
Si Si5 0.298432 0.551070 0.161845
O O1 0.500000 0.226970 0.750000
O O2 0.461624 0.192394 0.632769
O O3 0.303809 0.341733 0.644070
O O4 0.114591 0.168211 0.628203
O O5 0.854560 0.417207 0.029373
O O6 0.208315 0.304811 0.093073
O O7 0.750000 0.250000 0.000000
O O8 0.500000 0.500000 0.500000
O O9 0.236799 0.592765 0.510912
O O10 0.982224 0.535918 0.377035
O O11 0.132804 0.026803 0.869315
O O12 0.500000 0.540799 0.250000
#
# Coordination Sequence:
#
# PCOD9298262 Si02
#       5
#     8   8   8   8   8
#     4  11  25  43  66 100 134 178 229 280 346 412
#     4  11  23  40  67  97 130 170 230 280 333 411
#     4  11  22  40  65  97 127 175 225 271 341 404
#     4  11  24  41  69  91 135 175 220 279 343 396
#     4  10  24  44  64  94 138 173 219 283 340 406
#
# _framework density 20.270156
#
# number of rings (size 3 to 8) (size 9 to 14) (size 15 to 20)
#    0.000    1.200    2.000    4.800    8.400    1.600 
#    0.000    0.000    0.000    0.000    0.000    0.000 
#    0.000    0.000    0.000    0.000    0.000    0.000 
#
# Total GULP energy -111469.882207 kJ/mol
# GULP energy per Si atom -5573.494110 kJ/mol
# Density = 2.022402 g / cm^3
# Si number density = 20.270156 Si / 1000 Ang^3
#
#
#
# Elastic Constant Matrix: (Units=GPa)
#
#
# Indices 1 2 3 4 5 6 
#
# 1 117.7407 4.3059 43.5725 0.0000 -2.6542 0.0000
# 2 4.3059 71.7166 25.3496 0.0000 7.8180 0.0000
# 3 43.5725 25.3496 121.3511 0.0000 8.9793 0.0000
# 4 0.0000 0.0000 0.0000 28.7723 0.0000 4.8500
# 5 -2.6542 7.8180 8.9793 0.0000 28.1294 0.0000
# 6 0.0000 0.0000 0.0000 4.8500 0.0000 22.6585
#
#
#
# Elastic Compliance Matrix: (Units=1/GPa)
#
#
# Indices 1 2 3 4 5 6 
#
# 1 0.009936 0.000538 -0.003829 0.000000 0.002010 0.000000
# 2 0.000538 0.015382 -0.003168 0.000000 -0.003213 0.000000
# 3 -0.003829 -0.003168 0.010486 0.000000 -0.002828 0.000000
# 4 0.000000 0.000000 0.000000 0.036057 0.000000 -0.007718
# 5 0.002010 -0.003213 -0.002828 0.000000 0.037535 0.000000
# 6 0.000000 0.000000 0.000000 -0.007718 0.000000 0.045786
#
#
# Mechanical properties :
#
#
# Convention : Reuss Voigt Hill
#
# Bulk Modulus (GPa) = 43.69688 50.80717 47.25202
# Shear Modulus (GPa) = 28.45300 31.75075 30.10188
#
# Velocity S-wave (km/s) = 3.75065 3.96204 3.85779
# Velocity P-wave (km/s) = 6.35299 6.78600 6.57306
#
# Compressibility (1/GPa) = 0.02288493
#
# Stress axis : x y z
#
# Youngs Moduli (GPa) = 100.64673 65.01238 95.36181
#
# Poissons Ratio (x) = -0.03495 0.36510
# Poissons Ratio (y) = -0.05411 0.30215
# Poissons Ratio (z) = 0.38533 0.20599
#
# Static dielectric constant tensor:
#      x y z
#    x 1.780250 0.000000 0.055340 
#    y 0.000000 1.437210 0.000000 
#    z 0.055340 0.000000 1.780420 
# 
# From -- ./inp_files/263832.got.cif
#   From: 2010.05.17/outbox.cif.g08.bks.cpg/sg15_132_cif.got.tgz:263832.got - 2010.06.03 18:47:42.
