data_PCOD9298629
_publ_section_title
;
Structure prediction by ZEFSAII (Michael W. Deem and Ramdas Pophale) SiO2 
 PCOD9298629
Probable space group: C 2/C
;
_chemical_formula_sum "Si O2"
_cell_formula_units_Z 56
_cell_length_a 15.054956
_cell_length_b 7.665259
_cell_length_c 21.505031
_cell_angle_alpha 90.000000
_cell_angle_beta 97.586319
_cell_angle_gamma 90.000000
_cell_volume 2459.961575
_symmetry_space_group_name_H-M "C 2/C"
_symmetry_group_IT_number 15
_symmetry_cell_setting 'monoclinic'
loop_
_space_group_symop_operation_xyz
x,y,z
-x,y,1/2-z
-x,-y,-z
x,-y,1/2+z
1/2+x,1/2+y,z
1/2-x,1/2+y,1/2-z
1/2-x,1/2-y,-z
1/2+x,1/2-y,1/2+z
loop_
_atom_site_type_symbol
_atom_site_label
_atom_site_fract_x
_atom_site_fract_y
_atom_site_fract_z
Si Si1 0.642323 0.261169 0.989937
Si Si2 0.218972 0.440768 0.817746
Si Si3 0.891584 0.525842 0.917842
Si Si4 0.019453 0.512643 0.819494
Si Si5 0.051966 0.869512 0.853937
Si Si6 0.724779 0.529796 0.815670
Si Si7 0.393730 0.450162 0.913270
O O1 0.605405 0.085536 0.019091
O O2 0.610687 0.429154 0.026878
O O3 0.750000 0.250000 0.000000
O O4 0.602774 0.289691 0.918350
O O5 0.125967 0.510166 0.835062
O O6 0.233955 0.492301 0.747776
O O7 0.304021 0.491818 0.866485
O O8 0.211724 0.234336 0.819732
O O9 0.796594 0.483118 0.875560
O O10 0.897233 0.738304 0.926657
O O11 0.965024 0.455644 0.875018
O O12 0.994883 0.717966 0.815834
O O13 0.000000 0.430846 0.750000
O O14 0.128703 0.942779 0.817072
O O15 0.978566 0.995819 0.877611
#
# Coordination Sequence:
#
# PCOD9298629 Si02
#       7
#     8   8   8   8   8   8   8
#     4  12  24  45  73  97 137 181 234 282 330 409
#     4  11  24  42  67  98 134 178 220 284 337 416
#     4  10  24  45  67 101 135 177 228 278 340 402
#     4  11  23  43  68  97 135 175 224 282 342 406
#     4  11  25  44  66 100 135 180 223 284 339 402
#     4  11  23  41  66  97 137 171 226 277 343 403
#     4  10  26  44  66 100 136 176 224 277 343 393
#
# _framework density 22.764583999999999
#
# number of rings (size 3 to 8) (size 9 to 14) (size 15 to 20)
#    0.000    1.143    2.857    2.143    8.000    2.857 
#    2.571    0.000    0.000    0.000    0.000    0.000 
#    0.000    0.000    0.000    0.000    0.000    0.000 
#
# Total GULP energy -156573.818465 kJ/mol
# GULP energy per Si atom -5591.922088 kJ/mol
# Density = 2.271277 g / cm^3
# Si number density = 22.764584 Si / 1000 Ang^3
#
#
#
# Elastic Constant Matrix: (Units=GPa)
#
#
# Indices 1 2 3 4 5 6 
#
# 1 114.7546 8.3979 -1.8388 0.0000 -30.9890 0.0000
# 2 8.3979 50.5094 12.3272 0.0000 -9.8375 0.0000
# 3 -1.8388 12.3272 47.6213 0.0000 -5.9581 0.0000
# 4 0.0000 0.0000 0.0000 41.3167 0.0000 -9.5259
# 5 -30.9890 -9.8375 -5.9581 0.0000 41.3675 0.0000
# 6 0.0000 0.0000 0.0000 -9.5259 0.0000 36.1869
#
#
#
# Elastic Compliance Matrix: (Units=1/GPa)
#
#
# Indices 1 2 3 4 5 6 
#
# 1 0.011043 -0.000605 0.001629 0.000000 0.008363 0.000000
# 2 -0.000605 0.021951 -0.005203 0.000000 0.004018 0.000000
# 3 0.001629 -0.005203 0.022818 0.000000 0.003270 0.000000
# 4 0.000000 0.000000 0.000000 0.025767 0.000000 0.006783
# 5 0.008363 0.004018 0.003270 0.000000 0.031865 0.000000
# 6 0.000000 0.000000 0.000000 0.006783 0.000000 0.029420
#
#
# Mechanical properties :
#
#
# Convention : Reuss Voigt Hill
#
# Bulk Modulus (GPa) = 21.07248 27.85089 24.46169
# Shear Modulus (GPa) = 29.93302 36.70748 33.32025
#
# Velocity S-wave (km/s) = 3.63008 4.01993 3.82997
# Velocity P-wave (km/s) = 5.18139 5.81440 5.50700
#
# Compressibility (1/GPa) = 0.04745526
#
# Stress axis : x y z
#
# Youngs Moduli (GPa) = 90.55407 45.55561 43.82537
#
# Poissons Ratio (x) = 0.02755 -0.07141
# Poissons Ratio (y) = 0.05477 0.22802
# Poissons Ratio (z) = -0.14754 0.23702
#
# Static dielectric constant tensor:
#      x y z
#    x 1.836450 0.000000 0.058150 
#    y 0.000000 1.874500 0.000000 
#    z 0.058150 0.000000 1.808610 
# 
# From -- ./inp_files/242770.got.cif
#   From: 2010.05.17/outbox.cif.g08.bks.cpg/sg15_122_cif.got.tgz:242770.got - 2010.06.03 18:47:42.
