data_PCOD9298557
_publ_section_title
;
Structure prediction by ZEFSAII (Michael W. Deem and Ramdas Pophale) SiO2 
 PCOD9298557
Probable space group: C 2/C
;
_chemical_formula_sum "Si O2"
_cell_formula_units_Z 36
_cell_length_a 14.458707
_cell_length_b 5.397948
_cell_length_c 25.029694
_cell_angle_alpha 90.000000
_cell_angle_beta 45.000492
_cell_angle_gamma 90.000000
_cell_volume 1381.345843
_symmetry_space_group_name_H-M "C 2/C"
_symmetry_group_IT_number 15
_symmetry_cell_setting 'monoclinic'
loop_
_space_group_symop_operation_xyz
x,y,z
-x,y,1/2-z
-x,-y,-z
x,-y,1/2+z
1/2+x,1/2+y,z
1/2-x,1/2+y,1/2-z
1/2-x,1/2-y,-z
1/2+x,1/2-y,1/2+z
loop_
_atom_site_type_symbol
_atom_site_label
_atom_site_fract_x
_atom_site_fract_y
_atom_site_fract_z
Si Si1 0.579981 0.011465 0.075662
Si Si2 0.603139 0.692190 0.287137
Si Si3 0.500000 0.328919 0.250000
Si Si4 0.374451 0.495114 0.001482
Si Si5 0.738469 0.516827 0.340208
O O1 0.474321 0.938782 0.163642
O O2 0.723427 0.012311 0.042886
O O3 0.578545 0.774702 0.036653
O O4 0.558062 0.269512 0.054572
O O5 0.503407 0.499167 0.301948
O O6 0.678209 0.607492 0.309058
O O7 0.704937 0.747820 0.198126
O O8 0.365770 0.175980 0.303887
O O9 0.361313 0.519243 0.070349
#
# Coordination Sequence:
#
# PCOD9298557 Si02
#       5
#     8   8   4   8   8
#     4  10  24  44  74 107 151 200 249 311 383 450
#     4  12  27  47  76 110 149 198 259 312 382 456
#     4  12  26  48  76 104 152 200 244 332 370 450
#     4  10  24  44  74 107 151 200 249 311 383 450
#     4  12  27  47  76 110 149 198 259 312 382 456
#
# _framework density 26.061540000000001
#
# number of rings (size 3 to 8) (size 9 to 14) (size 15 to 20)
#    0.000    0.889    2.222    3.333   15.556    1.778 
#    0.000    0.000    0.000    0.000    0.000    0.000 
#    0.000    0.000    0.000    0.000    0.000    0.000 
#
# Total GULP energy -101020.002609 kJ/mol
# GULP energy per Si atom -5612.222367 kJ/mol
# Density = 2.600222 g / cm^3
# Si number density = 26.061540 Si / 1000 Ang^3
#
#
#
# Elastic Constant Matrix: (Units=GPa)
#
#
# Indices 1 2 3 4 5 6 
#
# 1 171.3957 59.7006 21.6252 0.0017 20.7837 0.0078
# 2 59.7006 132.8399 47.1894 0.0102 23.2420 0.0392
# 3 21.6252 47.1894 145.1380 -0.0084 21.5794 0.0023
# 4 0.0017 0.0102 -0.0084 44.8951 -0.0025 2.7190
# 5 20.7837 23.2420 21.5794 -0.0025 43.1366 0.0017
# 6 0.0078 0.0392 0.0023 2.7190 0.0017 44.2927
#
#
#
# Elastic Compliance Matrix: (Units=1/GPa)
#
#
# Indices 1 2 3 4 5 6 
#
# 1 0.007055 -0.002896 0.000177 0.000000 -0.001927 0.000001
# 2 -0.002896 0.010206 -0.002460 -0.000002 -0.002873 -0.000008
# 3 0.000177 -0.002460 0.008080 0.000002 -0.002802 0.000002
# 4 0.000000 -0.000002 0.000002 0.022357 0.000002 -0.001372
# 5 -0.001927 -0.002873 -0.002802 0.000002 0.027060 0.000002
# 6 0.000001 -0.000008 0.000002 -0.001372 0.000002 0.022661
#
#
# Mechanical properties :
#
#
# Convention : Reuss Voigt Hill
#
# Bulk Modulus (GPa) = 66.74238 78.48932 72.61585
# Shear Modulus (GPa) = 44.33756 47.85545 46.09650
#
# Velocity S-wave (km/s) = 4.12911 4.28980 4.21022
# Velocity P-wave (km/s) = 6.95686 7.39721 7.18041
#
# Compressibility (1/GPa) = 0.01498298
#
# Stress axis : x y z
#
# Youngs Moduli (GPa) = 141.75157 97.98285 123.76333
#
# Poissons Ratio (x) = 0.28378 -0.02191
# Poissons Ratio (y) = 0.41054 0.30441
# Poissons Ratio (z) = -0.02510 0.24100
#
# Static dielectric constant tensor:
#      x y z
#    x 2.057000 -0.000030 -0.020980 
#    y -0.000030 2.027910 0.000000 
#    z -0.020980 0.000000 2.044700 
# 
# From -- ./inp_files/226509.got.cif
#   From: 2010.05.17/outbox.cif.g08.bks.cpg/sg15_114_cif.got.tgz:226509.got - 2010.06.03 18:47:42.
