data_PCOD9298541
_publ_section_title
;
Structure prediction by ZEFSAII (Michael W. Deem and Ramdas Pophale) SiO2 
 PCOD9298541
Probable space group: C 2/C
;
_chemical_formula_sum "Si O2"
_cell_formula_units_Z 60
_cell_length_a 8.135352
_cell_length_b 24.086989
_cell_length_c 15.232977
_cell_angle_alpha 90.000000
_cell_angle_beta 110.953361
_cell_angle_gamma 90.000000
_cell_volume 2787.603009
_symmetry_space_group_name_H-M "C 2/C"
_symmetry_group_IT_number 15
_symmetry_cell_setting 'monoclinic'
loop_
_space_group_symop_operation_xyz
x,y,z
-x,y,1/2-z
-x,-y,-z
x,-y,1/2+z
1/2+x,1/2+y,z
1/2-x,1/2+y,1/2-z
1/2-x,1/2-y,-z
1/2+x,1/2-y,1/2+z
loop_
_atom_site_type_symbol
_atom_site_label
_atom_site_fract_x
_atom_site_fract_y
_atom_site_fract_z
Si Si1 0.880706 0.670698 0.988122
Si Si2 0.000000 0.562499 0.750000
Si Si3 0.109022 0.142776 0.181918
Si Si4 0.934171 0.961598 0.565784
Si Si5 0.639958 0.996926 0.607077
Si Si6 0.560866 0.111338 0.176085
Si Si7 0.981314 0.201669 0.516224
Si Si8 0.311250 0.128895 0.579399
O O1 0.955340 0.732626 0.015669
O O2 0.005607 0.644260 0.936246
O O3 0.667981 0.675526 0.947010
O O4 0.920150 0.636543 0.084506
O O5 0.073479 0.529789 0.678956
O O6 0.147670 0.601524 0.819947
O O7 0.306826 0.153681 0.253011
O O8 0.062035 0.181604 0.091514
O O9 0.000000 0.151121 0.250000
O O10 0.073780 0.079017 0.141291
O O11 0.833919 0.006683 0.607593
O O12 0.797955 0.917068 0.496701
O O13 0.000000 0.000000 0.500000
O O14 0.662622 0.932925 0.638804
O O15 0.500000 0.000000 0.500000
O O16 0.500000 0.078527 0.250000
O O17 0.179566 0.180526 0.567483
#
# Coordination Sequence:
#
# PCOD9298541 Si02
#       8
#     8   4   8   8   8   8   8   8
#     4  11  22  47  72 102 136 181 222 287 360 407
#     4  12  26  42  70 102 136 192 236 268 356 416
#     4  11  22  40  63  99 130 171 227 288 336 405
#     4  11  25  40  64  96 140 181 231 286 349 408
#     4  12  24  42  67  95 136 182 229 288 339 407
#     4  12  22  38  68  97 132 167 229 285 331 407
#     4  10  24  44  74 100 137 178 228 283 358 421
#     4  11  24  46  65  98 141 182 225 281 342 420
#
# _framework density 21.523868
#
# number of rings (size 3 to 8) (size 9 to 14) (size 15 to 20)
#    0.000    0.800    6.000    1.200    3.733    2.133 
#    3.600    2.000    0.000    0.000    0.000    0.000 
#    0.000    0.000    0.000    0.000    0.000    0.000 
#
# Total GULP energy -167194.660713 kJ/mol
# GULP energy per Si atom -5573.155357 kJ/mol
# Density = 2.147488 g / cm^3
# Si number density = 21.523868 Si / 1000 Ang^3
#
#
#
# Elastic Constant Matrix: (Units=GPa)
#
#
# Indices 1 2 3 4 5 6 
#
# 1 89.2257 13.8162 23.2465 0.0000 -32.1214 0.0000
# 2 13.8162 46.3323 16.6905 0.0000 -16.9069 0.0000
# 3 23.2465 16.6905 87.2768 0.0000 -13.9009 0.0000
# 4 0.0000 0.0000 0.0000 8.8964 0.0000 -3.9101
# 5 -32.1214 -16.9069 -13.9009 0.0000 38.8182 0.0000
# 6 0.0000 0.0000 0.0000 -3.9101 0.0000 28.1577
#
#
#
# Elastic Compliance Matrix: (Units=1/GPa)
#
#
# Indices 1 2 3 4 5 6 
#
# 1 0.016422 0.000739 -0.002439 0.000000 0.013037 0.000000
# 2 0.000739 0.026633 -0.003547 0.000000 0.010941 0.000000
# 3 -0.002439 -0.003547 0.012957 0.000000 0.001077 0.000000
# 4 0.000000 0.000000 0.000000 0.119711 0.000000 0.016623
# 5 0.013037 0.010941 0.001077 0.000000 0.041700 0.000000
# 6 0.000000 0.000000 0.000000 0.016623 0.000000 0.037823
#
#
# Mechanical properties :
#
#
# Convention : Reuss Voigt Hill
#
# Bulk Modulus (GPa) = 21.96938 36.70458 29.33698
# Shear Modulus (GPa) = 17.79907 26.44657 22.12282
#
# Velocity S-wave (km/s) = 2.87879 3.50910 3.20945
# Velocity P-wave (km/s) = 4.61292 5.78864 5.23390
#
# Compressibility (1/GPa) = 0.04551789
#
# Stress axis : x y z
#
# Youngs Moduli (GPa) = 60.89386 37.54711 77.17644
#
# Poissons Ratio (x) = -0.02775 0.18822
# Poissons Ratio (y) = -0.04500 0.27378
# Poissons Ratio (z) = 0.14851 0.13320
#
# Static dielectric constant tensor:
#      x y z
#    x 1.964530 0.000000 -0.040690 
#    y 0.000000 1.784780 0.000000 
#    z -0.040690 0.000000 1.802940 
# 
# From -- ./inp_files/137912.got.cif
#   From: 2010.05.17/outbox.cif.g08.bks.cpg/sg15_69_cif.got.tgz:137912.got - 2010.06.03 18:47:42.
