data_PCOD9298967
_publ_section_title
;
Structure prediction by ZEFSAII (Michael W. Deem and Ramdas Pophale) SiO2 
 PCOD9298967
Probable space group: C 2/C
;
_chemical_formula_sum "Si O2"
_cell_formula_units_Z 60
_cell_length_a 8.285197
_cell_length_b 22.721816
_cell_length_c 15.522429
_cell_angle_alpha 90.000000
_cell_angle_beta 71.121979
_cell_angle_gamma 90.000000
_cell_volume 2764.985671
_symmetry_space_group_name_H-M "C 2/C"
_symmetry_group_IT_number 15
_symmetry_cell_setting 'monoclinic'
loop_
_space_group_symop_operation_xyz
x,y,z
-x,y,1/2-z
-x,-y,-z
x,-y,1/2+z
1/2+x,1/2+y,z
1/2-x,1/2+y,1/2-z
1/2-x,1/2-y,-z
1/2+x,1/2-y,1/2+z
loop_
_atom_site_type_symbol
_atom_site_label
_atom_site_fract_x
_atom_site_fract_y
_atom_site_fract_z
Si Si1 0.592593 0.412129 0.644045
Si Si2 0.048373 0.798384 0.343561
Si Si3 0.201783 0.498260 0.471300
Si Si4 0.500000 0.904274 0.750000
Si Si5 0.303930 0.898448 0.256318
Si Si6 0.781367 0.633263 0.560499
Si Si7 0.707820 0.489434 0.863048
Si Si8 0.385214 0.169378 0.105094
O O1 0.500000 0.400296 0.750000
O O2 0.731698 0.464306 0.620117
O O3 0.450142 0.444671 0.611550
O O4 0.706286 0.355834 0.598963
O O5 0.195683 0.847535 0.321705
O O6 0.111423 0.738096 0.374468
O O7 0.000000 0.789771 0.250000
O O8 0.876594 0.822238 0.418958
O O9 0.266481 0.431729 0.463659
O O10 0.261378 0.523349 0.552700
O O11 0.000000 0.500000 0.500000
O O12 0.366717 0.947012 0.818775
O O13 0.585987 0.864096 0.808506
O O14 0.500000 0.905761 0.250000
O O15 0.310494 0.878988 0.156176
O O16 0.205095 0.959502 0.291810
O O17 0.953322 0.653674 0.483178
#
# Coordination Sequence:
#
# PCOD9298967 Si02
#       8
#     8   8   8   4   8   8   8   8
#     4  12  25  39  63 103 141 175 219 285 360 418
#     4  10  24  46  71  98 135 191 241 286 347 421
#     4  12  23  42  69 100 142 178 234 290 354 425
#     4  12  22  42  70 102 132 184 220 290 352 428
#     4  11  24  44  71  98 143 182 234 289 355 420
#     4  11  23  43  71 102 129 188 240 291 344 425
#     4  12  24  42  68 102 141 181 226 285 360 429
#     4  12  24  45  70  99 142 177 240 288 352 422
#
# _framework density 21.699930999999999
#
# number of rings (size 3 to 8) (size 9 to 14) (size 15 to 20)
#    0.000    0.533    5.333    3.200    0.000    1.600 
#    0.000    0.667    0.000    0.000    0.000    0.000 
#    0.000    0.000    0.000    0.000    0.000    0.000 
#
# Total GULP energy -167660.362228 kJ/mol
# GULP energy per Si atom -5588.678741 kJ/mol
# Density = 2.165054 g / cm^3
# Si number density = 21.699931 Si / 1000 Ang^3
#
#
#
# Elastic Constant Matrix: (Units=GPa)
#
#
# Indices 1 2 3 4 5 6 
#
# 1 93.3456 37.5472 30.1241 0.0000 -22.6031 0.0000
# 2 37.5472 135.0299 29.5690 0.0000 -12.0379 0.0000
# 3 30.1241 29.5690 95.2518 0.0000 -25.6689 0.0000
# 4 0.0000 0.0000 0.0000 26.1776 0.0000 0.7863
# 5 -22.6031 -12.0379 -25.6689 0.0000 38.8141 0.0000
# 6 0.0000 0.0000 0.0000 0.7863 0.0000 25.6663
#
#
#
# Elastic Compliance Matrix: (Units=1/GPa)
#
#
# Indices 1 2 3 4 5 6 
#
# 1 0.013947 -0.002932 -0.001895 0.000000 0.005959 0.000000
# 2 -0.002932 0.008595 -0.001804 0.000000 -0.000235 0.000000
# 3 -0.001895 -0.001804 0.013641 0.000000 0.007358 0.000000
# 4 0.000000 0.000000 0.000000 0.038236 0.000000 -0.001171
# 5 0.005959 -0.000235 0.007358 0.000000 0.034028 0.000000
# 6 0.000000 0.000000 0.000000 -0.001171 0.000000 0.038998
#
#
# Mechanical properties :
#
#
# Convention : Reuss Voigt Hill
#
# Bulk Modulus (GPa) = 43.62817 57.56756 50.59787
# Shear Modulus (GPa) = 29.70085 33.22405 31.46245
#
# Velocity S-wave (km/s) = 3.70362 3.91713 3.81187
# Velocity P-wave (km/s) = 6.19983 6.85894 6.53770
#
# Compressibility (1/GPa) = 0.02292097
#
# Stress axis : x y z
#
# Youngs Moduli (GPa) = 71.70164 116.34400 73.31028
#
# Poissons Ratio (x) = 0.34111 0.13889
# Poissons Ratio (y) = 0.21022 0.13227
# Poissons Ratio (z) = 0.13585 0.20991
#
# Static dielectric constant tensor:
#      x y z
#    x 1.846360 0.000000 0.004940 
#    y 0.000000 1.761170 0.000000 
#    z 0.004940 0.000000 1.875100 
# 
# From -- ./inp_files/192518.got.cif
#   From: 2010.05.17/outbox.cif.g08.bks.cpg/sg15_97_cif.got.tgz:192518.got - 2010.06.03 18:47:42.
