data_PCOD9298720
_publ_section_title
;
Structure prediction by ZEFSAII (Michael W. Deem and Ramdas Pophale) SiO2 
 PCOD9298720
Probable space group: C 2/C
;
_chemical_formula_sum "Si O2"
_cell_formula_units_Z 36
_cell_length_a 4.757111
_cell_length_b 15.122503
_cell_length_c 18.788702
_cell_angle_alpha 90.000000
_cell_angle_beta 91.050269
_cell_angle_gamma 90.000000
_cell_volume 1351.421346
_symmetry_space_group_name_H-M "C 2/C"
_symmetry_group_IT_number 15
_symmetry_cell_setting 'monoclinic'
loop_
_space_group_symop_operation_xyz
x,y,z
-x,y,1/2-z
-x,-y,-z
x,-y,1/2+z
1/2+x,1/2+y,z
1/2-x,1/2+y,1/2-z
1/2-x,1/2-y,-z
1/2+x,1/2-y,1/2+z
loop_
_atom_site_type_symbol
_atom_site_label
_atom_site_fract_x
_atom_site_fract_y
_atom_site_fract_z
Si Si1 0.005275 0.028229 0.888865
Si Si2 0.405466 0.177481 0.547858
Si Si3 0.365239 0.274435 0.680468
Si Si4 0.010156 0.406731 0.912005
Si Si5 0.000000 0.875895 0.250000
O O1 0.776356 0.951312 0.877405
O O2 0.270628 0.980728 0.925921
O O3 0.825292 0.106138 0.925731
O O4 0.114463 0.064574 0.814208
O O5 0.250000 0.250000 0.500000
O O6 0.538706 0.229175 0.615880
O O7 0.598609 0.133609 0.488557
O O8 0.500000 0.320491 0.750000
O O9 0.139318 0.336596 0.640563
O O10 0.221094 0.189760 0.715939
#
# Coordination Sequence:
#
# PCOD9298720 Si02
#       5
#     8   8   8   8   4
#     4  11  25  44  71 102 144 181 234 293 349 415
#     4   9  21  47  70 104 137 189 231 288 349 421
#     4  10  24  45  70  98 141 187 237 288 351 426
#     4  11  25  45  71 104 138 184 235 293 351 413
#     4  10  26  42  66 100 142 190 230 292 354 426
#
# _framework density 26.638622000000002
#
# number of rings (size 3 to 8) (size 9 to 14) (size 15 to 20)
#    0.000    1.778    0.000    1.333   10.889    0.000 
#    4.000    4.444    0.000    0.000    0.000    0.000 
#    0.000    0.000    0.000    0.000    0.000    0.000 
#
# Total GULP energy -100814.825652 kJ/mol
# GULP energy per Si atom -5600.823647 kJ/mol
# Density = 2.657799 g / cm^3
# Si number density = 26.638622 Si / 1000 Ang^3
#
#
#
# Elastic Constant Matrix: (Units=GPa)
#
#
# Indices 1 2 3 4 5 6 
#
# 1 86.1444 34.3422 30.5876 0.0000 10.4613 0.0000
# 2 34.3422 108.4994 75.8667 0.0000 1.9251 0.0000
# 3 30.5876 75.8667 196.6807 0.0000 3.7574 0.0000
# 4 0.0000 0.0000 0.0000 61.1978 0.0000 -7.7966
# 5 10.4613 1.9251 3.7574 0.0000 31.3278 0.0000
# 6 0.0000 0.0000 0.0000 -7.7966 0.0000 21.9272
#
#
#
# Elastic Compliance Matrix: (Units=1/GPa)
#
#
# Indices 1 2 3 4 5 6 
#
# 1 0.013901 -0.003929 -0.000564 0.000000 -0.004333 0.000000
# 2 -0.003929 0.013732 -0.004706 0.000000 0.001033 0.000000
# 3 -0.000564 -0.004706 0.006994 0.000000 -0.000362 0.000000
# 4 0.000000 0.000000 0.000000 0.017116 0.000000 0.006086
# 5 -0.004333 0.001033 -0.000362 0.000000 0.033347 0.000000
# 6 0.000000 0.000000 0.000000 0.006086 0.000000 0.047769
#
#
# Mechanical properties :
#
#
# Convention : Reuss Voigt Hill
#
# Bulk Modulus (GPa) = 61.61093 74.76861 68.18977
# Shear Modulus (GPa) = 31.91482 39.59243 35.75363
#
# Velocity S-wave (km/s) = 3.46506 3.85941 3.66754
# Velocity P-wave (km/s) = 6.25999 6.92739 6.60213
#
# Compressibility (1/GPa) = 0.01623089
#
# Stress axis : x y z
#
# Youngs Moduli (GPa) = 71.93699 72.82066 142.97770
#
# Poissons Ratio (x) = 0.28612 0.08057
# Poissons Ratio (y) = 0.28264 0.67282
# Poissons Ratio (z) = 0.04054 0.34268
#
# Static dielectric constant tensor:
#      x y z
#    x 2.090050 0.000000 -0.019870 
#    y 0.000000 2.118960 0.000000 
#    z -0.019870 0.000000 2.127680 
# 
# From -- ./inp_files/226453.got.cif
#   From: 2010.05.17/outbox.cif.g08.bks.cpg/sg15_114_cif.got.tgz:226453.got - 2010.06.03 18:47:42.
