data_PCOD9298903
_publ_section_title
;
Structure prediction by ZEFSAII (Michael W. Deem and Ramdas Pophale) SiO2 
 PCOD9298903
Probable space group: C 2/C
;
_chemical_formula_sum "Si O2"
_cell_formula_units_Z 48
_cell_length_a 14.224319
_cell_length_b 4.966792
_cell_length_c 25.160788
_cell_angle_alpha 90.000000
_cell_angle_beta 91.254523
_cell_angle_gamma 90.000000
_cell_volume 1777.164309
_symmetry_space_group_name_H-M "C 2/C"
_symmetry_group_IT_number 15
_symmetry_cell_setting 'monoclinic'
loop_
_space_group_symop_operation_xyz
x,y,z
-x,y,1/2-z
-x,-y,-z
x,-y,1/2+z
1/2+x,1/2+y,z
1/2-x,1/2+y,1/2-z
1/2-x,1/2-y,-z
1/2+x,1/2-y,1/2+z
loop_
_atom_site_type_symbol
_atom_site_label
_atom_site_fract_x
_atom_site_fract_y
_atom_site_fract_z
Si Si1 0.352430 0.135989 0.314199
Si Si2 0.000000 0.288330 0.250000
Si Si3 0.851356 0.920154 0.216873
Si Si4 0.158508 0.569932 0.384590
Si Si5 0.945242 0.068755 0.078626
Si Si6 0.862860 0.300574 0.413333
Si Si7 0.000000 0.500000 0.000000
O O1 0.430886 0.975698 0.282483
O O2 0.248596 0.039069 0.297927
O O3 0.363560 0.060012 0.374809
O O4 0.353850 0.411223 0.281665
O O5 0.941424 0.102044 0.209257
O O6 0.856498 0.665790 0.176691
O O7 0.131944 0.260275 0.393390
O O8 0.262761 0.654089 0.404964
O O9 0.084165 0.756443 0.417582
O O10 0.049385 0.113074 0.103305
O O11 0.951493 0.219581 0.022362
O O12 0.899128 0.407732 0.469916
#
# Coordination Sequence:
#
# PCOD9298903 Si02
#       7
#     8   4   8   8   8   8   4
#     4  11  23  43  63  92 143 168 235 270 345 397
#     4  12  24  38  66  88 132 182 210 282 332 398
#     4  11  25  40  64 101 128 184 223 279 328 424
#     4  11  25  43  73  97 142 178 228 275 356 400
#     4  10  24  46  69 104 134 178 231 282 338 423
#     4   9  23  46  64 104 134 185 222 302 326 416
#     4   8  22  46  70 104 138 174 240 284 354 398
#
# _framework density 27.009322999999998
#
# number of rings (size 3 to 8) (size 9 to 14) (size 15 to 20)
#    1.000    0.667    1.667    1.500    7.000    3.333 
#    0.000    0.000    0.000    0.000    0.000    0.000 
#    0.000    0.000    0.000    0.000    0.000    0.000 
#
# Total GULP energy -133796.429014 kJ/mol
# GULP energy per Si atom -5574.851209 kJ/mol
# Density = 2.694785 g / cm^3
# Si number density = 27.009323 Si / 1000 Ang^3
#
#
#
# Elastic Constant Matrix: (Units=GPa)
#
#
# Indices 1 2 3 4 5 6 
#
# 1 157.1634 19.1948 28.7042 0.0000 39.5618 0.0000
# 2 19.1948 81.7524 14.6441 0.0000 14.5227 0.0000
# 3 28.7042 14.6441 83.7301 0.0000 16.6573 0.0000
# 4 0.0000 0.0000 0.0000 32.9723 0.0000 -8.6171
# 5 39.5618 14.5227 16.6573 0.0000 39.3178 0.0000
# 6 0.0000 0.0000 0.0000 -8.6171 0.0000 38.7355
#
#
#
# Elastic Compliance Matrix: (Units=1/GPa)
#
#
# Indices 1 2 3 4 5 6 
#
# 1 0.008669 -0.000374 -0.001309 0.000000 -0.008030 0.000000
# 2 -0.000374 0.013270 -0.001411 0.000000 -0.003927 0.000000
# 3 -0.001309 -0.001411 0.013403 0.000000 -0.003840 0.000000
# 4 0.000000 0.000000 0.000000 0.032201 0.000000 0.007163
# 5 -0.008030 -0.003927 -0.003840 0.000000 0.036591 0.000000
# 6 0.000000 0.000000 0.000000 0.007163 0.000000 0.027410
#
#
# Mechanical properties :
#
#
# Convention : Reuss Voigt Hill
#
# Bulk Modulus (GPa) = 34.30244 49.74802 42.02523
# Shear Modulus (GPa) = 33.90987 39.54531 36.72759
#
# Velocity S-wave (km/s) = 3.54713 3.83055 3.69156
# Velocity P-wave (km/s) = 5.43176 6.16628 5.81064
#
# Compressibility (1/GPa) = 0.02915244
#
# Stress axis : x y z
#
# Youngs Moduli (GPa) = 115.35481 75.35581 74.61252
#
# Poissons Ratio (x) = 0.02822 0.09766
# Poissons Ratio (y) = 0.04320 0.10530
# Poissons Ratio (z) = 0.15099 0.10635
#
# Static dielectric constant tensor:
#      x y z
#    x 2.198860 0.000000 -0.406940 
#    y 0.000000 2.239490 0.000000 
#    z -0.406940 0.000000 2.934390 
# 
# From -- ./inp_files/312135.got.cif
#   From: 2010.05.17/outbox.cif.g08.bks.cpg/sg15_157_cif.got.tgz:312135.got - 2010.06.03 18:47:42.
