data_PCOD9298634
_publ_section_title
;
Structure prediction by ZEFSAII (Michael W. Deem and Ramdas Pophale) SiO2 
 PCOD9298634
Probable space group: C 2/C
;
_chemical_formula_sum "Si O2"
_cell_formula_units_Z 60
_cell_length_a 13.136053
_cell_length_b 14.176741
_cell_length_c 16.235455
_cell_angle_alpha 90.000000
_cell_angle_beta 125.490138
_cell_angle_gamma 90.000000
_cell_volume 2461.756569
_symmetry_space_group_name_H-M "C 2/C"
_symmetry_group_IT_number 15
_symmetry_cell_setting 'monoclinic'
loop_
_space_group_symop_operation_xyz
x,y,z
-x,y,1/2-z
-x,-y,-z
x,-y,1/2+z
1/2+x,1/2+y,z
1/2-x,1/2+y,1/2-z
1/2-x,1/2-y,-z
1/2+x,1/2-y,1/2+z
loop_
_atom_site_type_symbol
_atom_site_label
_atom_site_fract_x
_atom_site_fract_y
_atom_site_fract_z
Si Si1 0.500000 0.460951 0.750000
Si Si2 0.815708 0.897653 0.803301
Si Si3 0.893470 0.549032 0.750273
Si Si4 0.290619 0.526139 0.540501
Si Si5 0.895744 0.189520 0.499846
Si Si6 0.161223 0.384614 0.114000
Si Si7 0.245390 0.170088 0.567557
Si Si8 0.638250 0.279829 0.187807
O O1 0.396621 0.406652 0.757423
O O2 0.423236 0.520364 0.648141
O O3 0.711822 0.815796 0.742611
O O4 0.730308 0.986588 0.790406
O O5 0.911404 0.872322 0.922377
O O6 0.932959 0.585082 0.858740
O O7 0.863541 0.640456 0.679833
O O8 0.000000 0.494690 0.750000
O O9 0.287717 0.623725 0.488872
O O10 0.187329 0.532393 0.562859
O O11 0.283163 0.430307 0.486851
O O12 0.872983 0.291745 0.451317
O O13 0.990293 0.210005 0.619995
O O14 0.288595 0.356023 0.222819
O O15 0.250000 0.250000 0.500000
O O16 0.152869 0.201827 0.596439
#
# Coordination Sequence:
#
# PCOD9298634 Si02
#       8
#     4   8   8   8   8   8   8   8
#     4  12  24  40  76 104 142 194 238 302 372 436
#     4  11  24  49  72 108 146 196 246 304 374 450
#     4  11  25  49  72 100 149 197 242 305 379 445
#     4  12  23  42  73 104 146 191 240 307 370 439
#     4  11  24  43  74 105 145 194 244 311 368 442
#     4  10  24  46  67 105 147 187 252 299 369 453
#     4  11  25  43  68 105 140 184 250 304 359 438
#     4  10  24  45  67 106 148 185 249 301 365 446
#
# _framework density 24.372841000000001
#
# number of rings (size 3 to 8) (size 9 to 14) (size 15 to 20)
#    0.000    1.067    2.667    2.800    3.733    2.133 
#   16.800    1.333    0.000    0.000    0.000    0.000 
#    0.000    0.000    0.000    0.000    0.000    0.000 
#
# Total GULP energy -167344.517110 kJ/mol
# GULP energy per Si atom -5578.150570 kJ/mol
# Density = 2.431737 g / cm^3
# Si number density = 24.372841 Si / 1000 Ang^3
#
#
#
# Elastic Constant Matrix: (Units=GPa)
#
#
# Indices 1 2 3 4 5 6 
#
# 1 67.4481 31.4061 17.0867 0.0000 -9.5138 0.0000
# 2 31.4061 92.5957 22.2123 0.0000 0.8496 0.0000
# 3 17.0867 22.2123 84.1880 0.0000 -0.0185 0.0000
# 4 0.0000 0.0000 0.0000 28.2226 0.0000 -12.0434
# 5 -9.5138 0.8496 -0.0185 0.0000 31.9439 0.0000
# 6 0.0000 0.0000 0.0000 -12.0434 0.0000 20.5378
#
#
#
# Elastic Compliance Matrix: (Units=1/GPa)
#
#
# Indices 1 2 3 4 5 6 
#
# 1 0.018995 -0.005948 -0.002285 0.000000 0.005814 0.000000
# 2 -0.005948 0.013395 -0.002327 0.000000 -0.002129 0.000000
# 3 -0.002285 -0.002327 0.012956 0.000000 -0.000611 0.000000
# 4 0.000000 0.000000 0.000000 0.047258 0.000000 0.027712
# 5 0.005814 -0.002129 -0.000611 0.000000 0.033093 0.000000
# 6 0.000000 0.000000 0.000000 0.027712 0.000000 0.064941
#
#
# Mechanical properties :
#
#
# Convention : Reuss Voigt Hill
#
# Bulk Modulus (GPa) = 41.27863 42.84913 42.06388
# Shear Modulus (GPa) = 22.74468 27.70931 25.22700
#
# Velocity S-wave (km/s) = 3.05814 3.37544 3.22070
# Velocity P-wave (km/s) = 5.42612 5.72803 5.57912
#
# Compressibility (1/GPa) = 0.02422561
#
# Stress axis : x y z
#
# Youngs Moduli (GPa) = 52.64670 74.65570 77.18563
#
# Poissons Ratio (x) = 0.44404 0.17633
# Poissons Ratio (y) = 0.31313 0.17964
# Poissons Ratio (z) = 0.12027 0.17376
#
# Static dielectric constant tensor:
#      x y z
#    x 2.336980 0.000000 0.139570 
#    y 0.000000 1.916380 0.000000 
#    z 0.139570 0.000000 2.056980 
# 
# From -- ./inp_files/154302.got.cif
#   From: 2010.05.17/outbox.cif.g08.bks.cpg/sg15_78_cif.got.tgz:154302.got - 2010.06.03 18:47:42.
