data_PCOD9298605
_publ_section_title
;
Structure prediction by ZEFSAII (Michael W. Deem and Ramdas Pophale) SiO2 
 PCOD9298605
Probable space group: C 2/C
;
_chemical_formula_sum "Si O2"
_cell_formula_units_Z 48
_cell_length_a 13.685201
_cell_length_b 20.540303
_cell_length_c 12.930133
_cell_angle_alpha 90.000000
_cell_angle_beta 141.817689
_cell_angle_gamma 90.000000
_cell_volume 2246.807968
_symmetry_space_group_name_H-M "C 2/C"
_symmetry_group_IT_number 15
_symmetry_cell_setting 'monoclinic'
loop_
_space_group_symop_operation_xyz
x,y,z
-x,y,1/2-z
-x,-y,-z
x,-y,1/2+z
1/2+x,1/2+y,z
1/2-x,1/2+y,1/2-z
1/2-x,1/2-y,-z
1/2+x,1/2-y,1/2+z
loop_
_atom_site_type_symbol
_atom_site_label
_atom_site_fract_x
_atom_site_fract_y
_atom_site_fract_z
Si Si1 0.191538 0.435761 0.909032
Si Si2 0.334854 0.079650 0.553042
Si Si3 0.935359 0.735941 0.397879
Si Si4 0.265597 0.612938 0.252917
Si Si5 0.070903 0.825395 0.916030
Si Si6 0.763825 0.191894 0.593932
O O1 0.229103 0.506450 0.985441
O O2 0.249674 0.432247 0.839020
O O3 0.000000 0.426665 0.750000
O O4 0.262924 0.377052 0.035999
O O5 0.500000 0.082093 0.750000
O O6 0.337727 0.092486 0.432498
O O7 0.223159 0.133333 0.512268
O O8 0.801853 0.682381 0.265983
O O9 0.906127 0.767846 0.484140
O O10 0.909556 0.792107 0.290651
O O11 0.102247 0.700004 0.525669
O O12 0.441436 0.625763 0.358019
O O13 0.000000 0.799022 0.750000
O O14 0.750000 0.250000 0.500000
#
# Coordination Sequence:
#
# PCOD9298605 Si02
#       6
#     8   8   8   8   8   8
#     4  11  22  42  67  96 133 168 217 271 317 392
#     4  10  26  42  66  94 126 176 222 265 319 385
#     4  12  23  39  68  97 130 172 210 270 329 382
#     4  11  23  43  65  92 134 171 211 272 328 378
#     4  10  24  45  63  96 134 170 218 264 322 389
#     4  12  22  40  65  99 129 165 212 267 330 383
#
# _framework density 21.363643
#
# number of rings (size 3 to 8) (size 9 to 14) (size 15 to 20)
#    0.000    1.000    5.000    0.500    2.333    8.000 
#    0.000    8.333    0.000    0.000    0.000    0.000 
#    0.000    0.000    0.000    0.000    0.000    0.000 
#
# Total GULP energy -134257.929576 kJ/mol
# GULP energy per Si atom -5594.080399 kJ/mol
# Density = 2.131502 g / cm^3
# Si number density = 21.363643 Si / 1000 Ang^3
#
#
#
# Elastic Constant Matrix: (Units=GPa)
#
#
# Indices 1 2 3 4 5 6 
#
# 1 71.3534 8.7839 8.7814 0.0000 -16.3088 0.0000
# 2 8.7839 69.6422 17.6420 0.0000 -13.9648 0.0000
# 3 8.7814 17.6420 57.0285 0.0000 -13.0005 0.0000
# 4 0.0000 0.0000 0.0000 29.3255 0.0000 -10.4939
# 5 -16.3088 -13.9648 -13.0005 0.0000 33.1167 0.0000
# 6 0.0000 0.0000 0.0000 -10.4939 0.0000 15.9884
#
#
#
# Elastic Compliance Matrix: (Units=1/GPa)
#
#
# Indices 1 2 3 4 5 6 
#
# 1 0.015827 -0.000351 -0.000643 0.000000 0.007394 0.000000
# 2 -0.000351 0.016427 -0.003831 0.000000 0.005250 0.000000
# 3 -0.000643 -0.003831 0.020185 0.000000 0.005992 0.000000
# 4 0.000000 0.000000 0.000000 0.044567 0.000000 0.029252
# 5 0.007394 0.005250 0.005992 0.000000 0.038404 0.000000
# 6 0.000000 0.000000 0.000000 0.029252 0.000000 0.081744
#
#
# Mechanical properties :
#
#
# Convention : Reuss Voigt Hill
#
# Bulk Modulus (GPa) = 23.37013 29.82653 26.59833
# Shear Modulus (GPa) = 20.74118 26.54059 23.64089
#
# Velocity S-wave (km/s) = 3.11925 3.52849 3.33016
# Velocity P-wave (km/s) = 4.89243 5.53100 5.22149
#
# Compressibility (1/GPa) = 0.04278967
#
# Stress axis : x y z
#
# Youngs Moduli (GPa) = 63.18301 60.87708 49.54148
#
# Poissons Ratio (x) = 0.02135 0.03186
# Poissons Ratio (y) = 0.02216 0.18978
# Poissons Ratio (z) = 0.04063 0.23320
#
# Static dielectric constant tensor:
#      x y z
#    x 1.805140 0.000000 0.022730 
#    y 0.000000 1.733400 0.000000 
#    z 0.022730 0.000000 1.769840 
# 
# From -- ./inp_files/100075.got.cif
#   From: 2010.05.17/outbox.cif.g08.bks.cpg/sg15_51_cif.got.tgz:100075.got - 2010.06.03 18:47:42.
