data_PCOD9298951
_publ_section_title
;
Structure prediction by ZEFSAII (Michael W. Deem and Ramdas Pophale) SiO2 
 PCOD9298951
Probable space group: C 2/C
;
_chemical_formula_sum "Si O2"
_cell_formula_units_Z 40
_cell_length_a 22.033422
_cell_length_b 7.318811
_cell_length_c 12.654780
_cell_angle_alpha 90.000000
_cell_angle_beta 125.464136
_cell_angle_gamma 90.000000
_cell_volume 1662.099021
_symmetry_space_group_name_H-M "C 2/C"
_symmetry_group_IT_number 15
_symmetry_cell_setting 'monoclinic'
loop_
_space_group_symop_operation_xyz
x,y,z
-x,y,1/2-z
-x,-y,-z
x,-y,1/2+z
1/2+x,1/2+y,z
1/2-x,1/2+y,1/2-z
1/2-x,1/2-y,-z
1/2+x,1/2-y,1/2+z
loop_
_atom_site_type_symbol
_atom_site_label
_atom_site_fract_x
_atom_site_fract_y
_atom_site_fract_z
Si Si1 0.793679 0.401366 0.974607
Si Si2 0.594458 0.218922 0.077846
Si Si3 0.419527 0.202236 0.114228
Si Si4 0.432003 0.830136 0.373664
Si Si5 0.136525 0.005580 0.789219
O O1 0.833660 0.290504 0.921907
O O2 0.724853 0.526118 0.866237
O O3 0.750000 0.250000 0.000000
O O4 0.858318 0.543687 0.074918
O O5 0.594869 0.393318 0.151639
O O6 0.592851 0.039683 0.150448
O O7 0.518789 0.197676 0.935059
O O8 0.500000 0.166070 0.250000
O O9 0.390432 0.393498 0.132888
O O10 0.425470 0.217708 0.992766
O O11 0.385564 0.703735 0.249500
#
# Coordination Sequence:
#
# PCOD9298951 Si02
#       5
#     8   8   8   8   8
#     4  11  29  44  70 109 146 192 237 300 371 430
#     4  10  24  46  71 100 144 187 241 295 355 434
#     4  11  25  48  74 107 147 187 248 305 353 440
#     4  10  24  48  74 106 136 193 248 297 362 427
#     4  12  26  43  77 104 145 189 241 301 368 429
#
# _framework density 24.065954999999999
#
# number of rings (size 3 to 8) (size 9 to 14) (size 15 to 20)
#    0.000    1.200    2.000    1.200   11.200    0.000 
#    0.000    0.000    0.000    0.000    0.000    0.000 
#    0.000    0.000    0.000    0.000    0.000    0.000 
#
# Total GULP energy -111888.369508 kJ/mol
# GULP energy per Si atom -5594.418475 kJ/mol
# Density = 2.401118 g / cm^3
# Si number density = 24.065955 Si / 1000 Ang^3
#
#
#
# Elastic Constant Matrix: (Units=GPa)
#
#
# Indices 1 2 3 4 5 6 
#
# 1 124.1426 24.1636 27.2836 0.0000 22.6825 0.0000
# 2 24.1636 92.7098 42.5814 0.0000 18.2616 0.0000
# 3 27.2836 42.5814 77.1441 0.0000 21.3908 0.0000
# 4 0.0000 0.0000 0.0000 39.9840 0.0000 6.3966
# 5 22.6825 18.2616 21.3908 0.0000 38.9403 0.0000
# 6 0.0000 0.0000 0.0000 6.3966 0.0000 18.1592
#
#
#
# Elastic Compliance Matrix: (Units=1/GPa)
#
#
# Indices 1 2 3 4 5 6 
#
# 1 0.009345 -0.000846 -0.001697 0.000000 -0.004114 0.000000
# 2 -0.000846 0.014795 -0.007172 0.000000 -0.002506 0.000000
# 3 -0.001697 -0.007172 0.019247 0.000000 -0.006220 0.000000
# 4 0.000000 0.000000 0.000000 0.026504 0.000000 -0.009336
# 5 -0.004114 -0.002506 -0.006220 0.000000 0.032669 0.000000
# 6 0.000000 0.000000 0.000000 -0.009336 0.000000 0.058357
#
#
# Mechanical properties :
#
#
# Convention : Reuss Voigt Hill
#
# Bulk Modulus (GPa) = 41.74425 53.56153 47.65289
# Shear Modulus (GPa) = 26.54897 32.74788 29.64843
#
# Velocity S-wave (km/s) = 3.32501 3.69284 3.51374
# Velocity P-wave (km/s) = 5.66784 6.36296 6.02543
#
# Compressibility (1/GPa) = 0.02395539
#
# Stress axis : x y z
#
# Youngs Moduli (GPa) = 107.01363 67.59257 51.95655
#
# Poissons Ratio (x) = 0.05715 0.08819
# Poissons Ratio (y) = 0.09049 0.37265
# Poissons Ratio (z) = 0.18164 0.48480
#
# Static dielectric constant tensor:
#      x y z
#    x 1.898100 0.000000 -0.019920 
#    y 0.000000 1.937960 0.000000 
#    z -0.019920 0.000000 1.929130 
# 
# From -- ./inp_files/166495.got.cif
#   From: 2010.05.17/outbox.cif.g08.bks.cpg/sg15_84_cif.got.tgz:166495.got - 2010.06.03 18:47:42.
