data_PCOD9298428
_publ_section_title
;
Structure prediction by ZEFSAII (Michael W. Deem and Ramdas Pophale) SiO2 
 PCOD9298428
Probable space group: C 2/C
;
_chemical_formula_sum "Si O2"
_cell_formula_units_Z 52
_cell_length_a 29.997800
_cell_length_b 13.229151
_cell_length_c 8.444848
_cell_angle_alpha 90.000000
_cell_angle_beta 142.289144
_cell_angle_gamma 90.000000
_cell_volume 2049.912517
_symmetry_space_group_name_H-M "C 2/C"
_symmetry_group_IT_number 15
_symmetry_cell_setting 'monoclinic'
loop_
_space_group_symop_operation_xyz
x,y,z
-x,y,1/2-z
-x,-y,-z
x,-y,1/2+z
1/2+x,1/2+y,z
1/2-x,1/2+y,1/2-z
1/2-x,1/2-y,-z
1/2+x,1/2-y,1/2+z
loop_
_atom_site_type_symbol
_atom_site_label
_atom_site_fract_x
_atom_site_fract_y
_atom_site_fract_z
Si Si1 0.704537 0.619409 0.583504
Si Si2 0.413809 0.136099 0.033587
Si Si3 0.000000 0.138489 0.750000
Si Si4 0.849545 0.137335 0.392677
Si Si5 0.659087 0.009954 0.953395
Si Si6 0.741322 0.821787 0.826540
Si Si7 0.964969 0.101220 0.323930
O O1 0.704713 0.600492 0.395888
O O2 0.766202 0.556085 0.847190
O O3 0.722076 0.738110 0.641590
O O4 0.623314 0.604116 0.423230
O O5 0.377463 0.247012 0.947311
O O6 0.373115 0.074174 0.780685
O O7 0.398531 0.071222 0.147351
O O8 0.500000 0.143306 0.250000
O O9 0.923842 0.080291 0.559806
O O10 0.987391 0.179099 0.531945
O O11 0.815915 0.128444 0.471634
O O12 0.680135 0.093302 0.147318
O O13 0.750000 0.750000 0.000000
O O14 0.000000 0.124021 0.250000
O O15 0.000000 0.000000 0.500000
#
# Coordination Sequence:
#
# PCOD9298428 Si02
#       7
#     8   8   4   8   8   8   8
#     4  11  25  47  72 104 144 192 247 302 370 452
#     4  12  25  48  74 106 145 193 250 302 373 452
#     4  10  24  44  70 100 140 196 240 306 378 438
#     4  11  23  47  74  96 145 196 242 304 372 453
#     4  12  26  45  74 106 146 195 243 307 372 446
#     4  12  26  43  69 110 144 184 249 307 374 440
#     4  11  25  43  68 106 148 191 246 301 380 455
#
# _framework density 25.366937
#
# number of rings (size 3 to 8) (size 9 to 14) (size 15 to 20)
#    0.000    0.615    4.615    2.769    4.308    1.231 
#    0.000    0.769    0.000    0.000    0.000    0.000 
#    0.000    0.000    0.000    0.000    0.000    0.000 
#
# Total GULP energy -145189.908302 kJ/mol
# GULP energy per Si atom -5584.227242 kJ/mol
# Density = 2.530920 g / cm^3
# Si number density = 25.366937 Si / 1000 Ang^3
#
#
#
# Elastic Constant Matrix: (Units=GPa)
#
#
# Indices 1 2 3 4 5 6 
#
# 1 163.0059 17.7800 47.6191 0.0000 11.2567 0.0000
# 2 17.7800 104.4318 20.6651 0.0000 12.6263 0.0000
# 3 47.6191 20.6651 119.9782 0.0000 7.0534 0.0000
# 4 0.0000 0.0000 0.0000 35.2406 0.0000 -8.5749
# 5 11.2567 12.6263 7.0534 0.0000 54.3723 0.0000
# 6 0.0000 0.0000 0.0000 -8.5749 0.0000 50.4116
#
#
#
# Elastic Compliance Matrix: (Units=1/GPa)
#
#
# Indices 1 2 3 4 5 6 
#
# 1 0.007034 -0.000556 -0.002638 0.000000 -0.000985 0.000000
# 2 -0.000556 0.010201 -0.001414 0.000000 -0.002070 0.000000
# 3 -0.002638 -0.001414 0.009648 0.000000 -0.000377 0.000000
# 4 0.000000 0.000000 0.000000 0.029602 0.000000 0.005035
# 5 -0.000985 -0.002070 -0.000377 0.000000 0.019125 0.000000
# 6 0.000000 0.000000 0.000000 0.005035 0.000000 0.020693
#
#
# Mechanical properties :
#
#
# Convention : Reuss Voigt Hill
#
# Bulk Modulus (GPa) = 56.61098 62.17159 59.39128
# Shear Modulus (GPa) = 44.87997 48.09502 46.48750
#
# Velocity S-wave (km/s) = 4.21079 4.35900 4.28553
# Velocity P-wave (km/s) = 6.78279 7.06375 6.92470
#
# Compressibility (1/GPa) = 0.01766442
#
# Stress axis : x y z
#
# Youngs Moduli (GPa) = 142.16416 98.03412 103.65202
#
# Poissons Ratio (x) = 0.05456 0.27344
# Poissons Ratio (y) = 0.07911 0.14660
# Poissons Ratio (z) = 0.37504 0.13866
#
# Static dielectric constant tensor:
#      x y z
#    x 2.089940 0.000000 -0.029570 
#    y 0.000000 2.200100 0.000000 
#    z -0.029570 0.000000 2.066260 
# 
# From -- ./inp_files/70190.got.cif
#   From: 2010.05.17/outbox.cif.g08.bks.cpg/sg15_36_cif.got.tgz:70190.got - 2010.06.03 18:47:42.
