data_PCOD9298686
_publ_section_title
;
Structure prediction by ZEFSAII (Michael W. Deem and Ramdas Pophale) SiO2 
 PCOD9298686
Probable space group: C 2/C
;
_chemical_formula_sum "Si O2"
_cell_formula_units_Z 48
_cell_length_a 17.603976
_cell_length_b 7.602162
_cell_length_c 28.103493
_cell_angle_alpha 90.000000
_cell_angle_beta 31.921091
_cell_angle_gamma 90.000000
_cell_volume 1988.654040
_symmetry_space_group_name_H-M "C 2/C"
_symmetry_group_IT_number 15
_symmetry_cell_setting 'monoclinic'
loop_
_space_group_symop_operation_xyz
x,y,z
-x,y,1/2-z
-x,-y,-z
x,-y,1/2+z
1/2+x,1/2+y,z
1/2-x,1/2+y,1/2-z
1/2-x,1/2-y,-z
1/2+x,1/2-y,1/2+z
loop_
_atom_site_type_symbol
_atom_site_label
_atom_site_fract_x
_atom_site_fract_y
_atom_site_fract_z
Si Si1 0.543019 0.257932 0.477557
Si Si2 0.456427 0.965177 0.107455
Si Si3 0.396342 0.190510 0.398177
Si Si4 0.224006 0.675339 0.142615
Si Si5 0.355501 0.535164 0.743889
Si Si6 0.371476 0.172853 0.780732
O O1 0.532822 0.115686 0.439467
O O2 0.394134 0.363523 0.546553
O O3 0.712293 0.294458 0.386692
O O4 0.510562 0.200259 0.549048
O O5 0.552053 0.019677 0.100685
O O6 0.288909 0.950031 0.210156
O O7 0.250000 0.250000 0.500000
O O8 0.356098 0.164072 0.364687
O O9 0.513632 0.345657 0.342733
O O10 0.197036 0.869323 0.178852
O O11 0.150333 0.535339 0.217187
O O12 0.392600 0.331389 0.732222
O O13 0.500000 0.192400 0.750000
#
# Coordination Sequence:
#
# PCOD9298686 Si02
#       6
#     8   8   8   8   8   8
#     4   9  19  40  68  93 135 183 223 280 350 420
#     4   9  20  41  66  97 131 182 230 277 345 422
#     4  12  23  40  72 106 142 181 240 298 358 416
#     4  11  22  44  70  97 132 189 237 284 347 435
#     4  10  24  45  69  92 142 188 224 285 362 416
#     4  11  22  37  68 100 128 175 240 275 335 426
#
# _framework density 24.136927
#
# number of rings (size 3 to 8) (size 9 to 14) (size 15 to 20)
#    0.000    1.667    1.667    4.000    2.333    0.000 
#   12.000    2.500    0.000    0.000    0.000    0.000 
#    0.000    0.000    0.000    0.000    0.000    0.000 
#
# Total GULP energy -134012.739672 kJ/mol
# GULP energy per Si atom -5583.864153 kJ/mol
# Density = 2.408199 g / cm^3
# Si number density = 24.136927 Si / 1000 Ang^3
#
#
#
# Elastic Constant Matrix: (Units=GPa)
#
#
# Indices 1 2 3 4 5 6 
#
# 1 138.2106 21.1020 21.5840 -0.0056 -8.3217 0.0108
# 2 21.1020 77.9169 -4.7855 -0.0076 -2.5789 0.0085
# 3 21.5840 -4.7855 102.1313 -0.0003 -25.0333 0.0036
# 4 -0.0056 -0.0076 -0.0003 36.7324 0.0001 -16.0151
# 5 -8.3217 -2.5789 -25.0333 0.0001 44.2052 -0.0027
# 6 0.0108 0.0085 0.0036 -16.0151 -0.0027 31.6232
#
#
#
# Elastic Compliance Matrix: (Units=1/GPa)
#
#
# Indices 1 2 3 4 5 6 
#
# 1 0.007858 -0.002217 -0.001665 0.000000 0.000407 -0.000002
# 2 -0.002217 0.013558 0.001388 0.000002 0.001160 -0.000002
# 3 -0.001665 0.001388 0.011787 0.000000 0.006443 -0.000001
# 4 0.000000 0.000002 0.000000 0.034938 0.000001 0.017694
# 5 0.000407 0.001160 0.006443 0.000001 0.026415 0.000002
# 6 -0.000002 -0.000002 -0.000001 0.017694 0.000002 0.040583
#
#
# Mechanical properties :
#
#
# Convention : Reuss Voigt Hill
#
# Bulk Modulus (GPa) = 35.44033 43.78442 39.61237
# Shear Modulus (GPa) = 33.43737 41.20271 37.32004
#
# Velocity S-wave (km/s) = 3.72603 4.13612 3.93642
# Velocity P-wave (km/s) = 5.76419 6.40229 6.09160
#
# Compressibility (1/GPa) = 0.02821644
#
# Stress axis : x y z
#
# Youngs Moduli (GPa) = 127.25339 73.75585 84.83654
#
# Poissons Ratio (x) = 0.16352 0.14124
# Poissons Ratio (y) = 0.28212 -0.11776
# Poissons Ratio (z) = 0.21185 -0.10238
#
# Static dielectric constant tensor:
#      x y z
#    x 1.888980 0.000000 0.004510 
#    y 0.000000 2.045480 0.000000 
#    z 0.004510 0.000000 1.941300 
# 
# From -- ./inp_files/315640.got.cif
#   From: 2010.05.17/outbox.cif.g08.bks.cpg/sg15_158_cif.got.tgz:315640.got - 2010.06.03 18:47:42.
