data_PCOD9298295
_publ_section_title
;
Structure prediction by ZEFSAII (Michael W. Deem and Ramdas Pophale) SiO2 
 PCOD9298295
Probable space group: C 2/C
;
_chemical_formula_sum "Si O2"
_cell_formula_units_Z 28
_cell_length_a 4.833841
_cell_length_b 29.421264
_cell_length_c 8.234536
_cell_angle_alpha 90.000000
_cell_angle_beta 79.102303
_cell_angle_gamma 90.000000
_cell_volume 1149.977676
_symmetry_space_group_name_H-M "C 2/C"
_symmetry_group_IT_number 15
_symmetry_cell_setting 'monoclinic'
loop_
_space_group_symop_operation_xyz
x,y,z
-x,y,1/2-z
-x,-y,-z
x,-y,1/2+z
1/2+x,1/2+y,z
1/2-x,1/2+y,1/2-z
1/2-x,1/2-y,-z
1/2+x,1/2-y,1/2+z
loop_
_atom_site_type_symbol
_atom_site_label
_atom_site_fract_x
_atom_site_fract_y
_atom_site_fract_z
Si Si1 0.878275 0.929155 0.544388
Si Si2 0.000000 0.997814 0.250000
Si Si3 0.802361 0.284917 0.137624
Si Si4 0.098168 0.631749 0.429153
O O1 0.794818 0.962306 0.703044
O O2 0.604379 0.908640 0.493684
O O3 0.089253 0.887576 0.569767
O O4 0.002924 0.962991 0.398338
O O5 0.500000 0.298534 0.250000
O O6 0.000000 0.261593 0.250000
O O7 0.750000 0.250000 0.000000
O O8 0.995560 0.325330 0.044196
O O9 0.000000 0.638977 0.250000
#
# Coordination Sequence:
#
# PCOD9298295 Si02
#       4
#     8   4   8   8
#     4  11  25  42  69  99 144 188 242 294 357 409
#     4  10  24  44  66 102 140 194 246 298 350 420
#     4  12  28  50  80 112 145 188 237 297 367 442
#     4  12  25  46  70 105 144 187 235 295 358 425
#
# _framework density 24.348299000000001
#
# number of rings (size 3 to 8) (size 9 to 14) (size 15 to 20)
#    0.000    0.571    2.857    3.429    6.000    9.143 
#    0.000    0.000    0.000    0.000    0.000    0.000 
#    0.000    0.000    0.000    0.000    0.000    0.000 
#
# Total GULP energy -77965.909692 kJ/mol
# GULP energy per Si atom -5568.993549 kJ/mol
# Density = 2.429288 g / cm^3
# Si number density = 24.348299 Si / 1000 Ang^3
#
#
#
# Elastic Constant Matrix: (Units=GPa)
#
#
# Indices 1 2 3 4 5 6 
#
# 1 147.6614 29.5712 51.7217 0.0000 -5.6691 0.0000
# 2 29.5712 91.0855 51.8819 0.0000 -4.8682 0.0000
# 3 51.7217 51.8819 92.1871 0.0000 10.6466 0.0000
# 4 0.0000 0.0000 0.0000 -24.3541 0.0000 103.6736
# 5 -5.6691 -4.8682 10.6466 0.0000 40.3599 0.0000
# 6 0.0000 0.0000 0.0000 103.6736 0.0000 -116.5689
#
#
#
# Elastic Compliance Matrix: (Units=1/GPa)
#
#
# Indices 1 2 3 4 5 6 
#
# 1 0.008692 0.000409 -0.005418 0.000000 0.002700 0.000000
# 2 0.000409 0.017005 -0.010359 0.000000 0.004841 0.000000
# 3 -0.005418 -0.010359 0.020576 0.000000 -0.007438 0.000000
# 4 0.000000 0.000000 0.000000 0.014738 0.000000 0.013108
# 5 0.002700 0.004841 -0.007438 0.000000 0.027702 0.000000
# 6 0.000000 0.000000 0.000000 0.013108 0.000000 0.003079
#
#
# Mechanical properties :
#
#
# Convention : Reuss Voigt Hill
#
# Bulk Modulus (GPa) = 64.36424 66.36484 65.36454
# Shear Modulus (GPa) = 39.15164 -6.92869 16.11148
#
# Velocity S-wave (km/s) = 4.01432 -1.68874 2.57516
# Velocity P-wave (km/s) = 6.92665 4.84904 5.97878
#
# Compressibility (1/GPa) = 0.01553658
#
# Stress axis : x y z
#
# Youngs Moduli (GPa) = 115.04872 58.80635 48.59960
#
# Poissons Ratio (x) = -0.02404 0.26333
# Poissons Ratio (y) = -0.04702 0.50342
# Poissons Ratio (z) = 0.62338 0.60915
#
# Static dielectric constant tensor:
#      x y z
#    x 1.957240 0.000000 0.005320 
#    y 0.000000 1.894600 0.000000 
#    z 0.005320 0.000000 2.093560 
# 
# From -- ./inp_files/19752.got.cif
#   From: 2010.05.17/outbox.cif.g08.bks.cpg/sg15_10_cif.got.tgz:19752.got - 2010.06.03 18:47:42.
