data_PCOD9298958
_publ_section_title
;
Structure prediction by ZEFSAII (Michael W. Deem and Ramdas Pophale) SiO2 
 PCOD9298958
Probable space group: C 2/C
;
_chemical_formula_sum "Si O2"
_cell_formula_units_Z 52
_cell_length_a 26.177038
_cell_length_b 6.211412
_cell_length_c 17.031772
_cell_angle_alpha 90.000000
_cell_angle_beta 120.763050
_cell_angle_gamma 90.000000
_cell_volume 2379.635282
_symmetry_space_group_name_H-M "C 2/C"
_symmetry_group_IT_number 15
_symmetry_cell_setting 'monoclinic'
loop_
_space_group_symop_operation_xyz
x,y,z
-x,y,1/2-z
-x,-y,-z
x,-y,1/2+z
1/2+x,1/2+y,z
1/2-x,1/2+y,1/2-z
1/2-x,1/2-y,-z
1/2+x,1/2-y,1/2+z
loop_
_atom_site_type_symbol
_atom_site_label
_atom_site_fract_x
_atom_site_fract_y
_atom_site_fract_z
Si Si1 0.777606 0.161891 0.281838
Si Si2 0.275492 0.581083 0.458101
Si Si3 0.399123 0.402053 0.614434
Si Si4 0.000000 0.222726 0.750000
Si Si5 0.339563 0.145737 0.694280
Si Si6 0.522369 0.295482 0.971013
Si Si7 0.440223 0.954672 0.847272
O O1 0.748445 0.410702 0.247349
O O2 0.794123 0.169846 0.386766
O O3 0.825244 0.176119 0.248851
O O4 0.250000 0.750000 0.500000
O O5 0.333581 0.483952 0.543102
O O6 0.220989 0.420077 0.396332
O O7 0.442831 0.578309 0.685226
O O8 0.388156 0.215894 0.668889
O O9 0.429553 0.332016 0.558041
O O10 0.982254 0.353832 0.813733
O O11 0.372113 0.952479 0.766056
O O12 0.465534 0.192188 0.883378
O O13 0.500000 0.500000 0.000000
O O14 0.551127 0.151964 0.061635
#
# Coordination Sequence:
#
# PCOD9298958 Si02
#       7
#     8   8   8   4   8   8   8
#     4  10  24  46  71 103 149 194 247 302 367 446
#     4  11  25  44  70 106 147 190 241 300 367 448
#     4  12  25  42  75  98 150 189 239 301 365 438
#     4  12  24  44  68 104 136 196 236 302 366 432
#     4  11  25  44  70 110 141 193 242 303 374 446
#     4  11  25  47  69 104 137 186 240 297 361 427
#     4  11  25  43  73  99 145 179 243 299 361 431
#
# _framework density 21.852087999999998
#
# number of rings (size 3 to 8) (size 9 to 14) (size 15 to 20)
#    0.000    0.923    1.538    4.154    2.154    8.615 
#    0.000    0.000    0.000    0.000    0.000    0.000 
#    0.000    0.000    0.000    0.000    0.000    0.000 
#
# Total GULP energy -145019.980442 kJ/mol
# GULP energy per Si atom -5577.691555 kJ/mol
# Density = 2.180235 g / cm^3
# Si number density = 21.852088 Si / 1000 Ang^3
#
#
#
# Elastic Constant Matrix: (Units=GPa)
#
#
# Indices 1 2 3 4 5 6 
#
# 1 98.8229 36.4011 37.0790 0.0000 -13.6362 0.0000
# 2 36.4011 69.3559 38.0076 0.0000 2.8075 -0.0001
# 3 37.0790 38.0076 131.8078 0.0000 1.1715 0.0000
# 4 0.0000 0.0000 0.0000 27.5798 0.0000 -3.0677
# 5 -13.6362 2.8075 1.1715 0.0000 59.5775 0.0000
# 6 0.0000 -0.0001 0.0000 -3.0677 0.0000 37.7211
#
#
#
# Elastic Compliance Matrix: (Units=1/GPa)
#
#
# Indices 1 2 3 4 5 6 
#
# 1 0.013649 -0.006155 -0.002096 0.000000 0.003455 0.000000
# 2 -0.006155 0.019930 -0.003995 0.000000 -0.002269 0.000000
# 3 -0.002096 -0.003995 0.009333 0.000000 -0.000475 0.000000
# 4 0.000000 0.000000 0.000000 0.036589 0.000000 0.002976
# 5 0.003455 -0.002269 -0.000475 0.000000 0.017692 0.000000
# 6 0.000000 0.000000 0.000000 0.002976 0.000000 0.026752
#
#
# Mechanical properties :
#
#
# Convention : Reuss Voigt Hill
#
# Bulk Modulus (GPa) = 54.28873 58.10688 56.19780
# Shear Modulus (GPa) = 32.34602 37.54226 34.94414
#
# Velocity S-wave (km/s) = 3.85154 4.14939 4.00324
# Velocity P-wave (km/s) = 6.68407 7.04311 6.86594
#
# Compressibility (1/GPa) = 0.01842003
#
# Stress axis : x y z
#
# Youngs Moduli (GPa) = 73.26290 50.17480 107.15140
#
# Poissons Ratio (x) = 0.30884 0.22454
# Poissons Ratio (y) = 0.45096 0.42810
# Poissons Ratio (z) = 0.15352 0.20046
#
# Static dielectric constant tensor:
#      x y z
#    x 1.977220 0.000000 0.103820 
#    y 0.000000 1.879090 0.000000 
#    z 0.103820 0.000000 1.852100 
# 
# From -- ./inp_files/221351.got.cif
#   From: 2010.05.17/outbox.cif.g08.bks.cpg/sg15_111_cif.got.tgz:221351.got - 2010.06.03 18:47:42.
