data_PCOD9298681
_publ_section_title
;
Structure prediction by ZEFSAII (Michael W. Deem and Ramdas Pophale) SiO2 
 PCOD9298681
Probable space group: C 2/C
;
_chemical_formula_sum "Si O2"
_cell_formula_units_Z 40
_cell_length_a 26.100050
_cell_length_b 5.323416
_cell_length_c 12.189525
_cell_angle_alpha 90.000000
_cell_angle_beta 103.649654
_cell_angle_gamma 90.000000
_cell_volume 1645.796523
_symmetry_space_group_name_H-M "C 2/C"
_symmetry_group_IT_number 15
_symmetry_cell_setting 'monoclinic'
loop_
_space_group_symop_operation_xyz
x,y,z
-x,y,1/2-z
-x,-y,-z
x,-y,1/2+z
1/2+x,1/2+y,z
1/2-x,1/2+y,1/2-z
1/2-x,1/2-y,-z
1/2+x,1/2-y,1/2+z
loop_
_atom_site_type_symbol
_atom_site_label
_atom_site_fract_x
_atom_site_fract_y
_atom_site_fract_z
Si Si1 0.190019 0.206235 0.428414
Si Si2 0.134071 0.252702 0.192644
Si Si3 0.058847 0.986420 0.480195
Si Si4 0.441013 0.014887 0.671114
Si Si5 0.190706 0.706074 0.514820
O O1 0.250000 0.250000 0.500000
O O2 0.174201 0.122911 0.299171
O O3 0.167914 0.484643 0.431045
O O4 0.168290 0.984068 0.490685
O O5 0.095777 0.437730 0.240222
O O6 0.095278 0.071711 0.105344
O O7 0.175572 0.377928 0.128758
O O8 0.064126 0.744462 0.400761
O O9 0.066280 0.243970 0.414315
O O10 0.000000 0.000000 0.500000
O O11 0.500000 0.020765 0.750000
O O12 0.250000 0.750000 0.500000
#
# Coordination Sequence:
#
# PCOD9298681 Si02
#       5
#     8   8   8   8   8
#     4  10  24  45  69 105 143 188 249 300 372 450
#     4  12  26  45  77 104 151 198 241 317 373 441
#     4  12  27  48  72 108 147 194 249 304 372 449
#     4  12  27  47  73 107 147 193 253 305 372 447
#     4  10  24  45  69 106 145 187 249 302 373 452
#
# _framework density 24.304338999999999
#
# number of rings (size 3 to 8) (size 9 to 14) (size 15 to 20)
#    0.000    0.800    2.000    3.600    0.000   11.200 
#    0.000    0.000    0.000    0.000    0.000    0.000 
#    0.000    0.000    0.000    0.000    0.000    0.000 
#
# Total GULP energy -111506.594267 kJ/mol
# GULP energy per Si atom -5575.329713 kJ/mol
# Density = 2.424902 g / cm^3
# Si number density = 24.304339 Si / 1000 Ang^3
#
#
#
# Elastic Constant Matrix: (Units=GPa)
#
#
# Indices 1 2 3 4 5 6 
#
# 1 163.4886 39.2120 83.6041 0.0000 -7.6403 0.0000
# 2 39.2120 185.6936 37.9610 0.0000 2.5210 0.0000
# 3 83.6041 37.9610 141.4322 0.0000 13.3890 0.0000
# 4 0.0000 0.0000 0.0000 40.3260 0.0000 1.4704
# 5 -7.6403 2.5210 13.3890 0.0000 55.4569 0.0000
# 6 0.0000 0.0000 0.0000 1.4704 0.0000 26.9189
#
#
#
# Elastic Compliance Matrix: (Units=1/GPa)
#
#
# Indices 1 2 3 4 5 6 
#
# 1 0.009254 -0.000868 -0.005487 0.000000 0.002639 0.000000
# 2 -0.000868 0.005780 -0.001025 0.000000 -0.000135 0.000000
# 3 -0.005487 -0.001025 0.010906 0.000000 -0.003342 0.000000
# 4 0.000000 0.000000 0.000000 0.024847 0.000000 -0.001357
# 5 0.002639 -0.000135 -0.003342 0.000000 0.019209 0.000000
# 6 0.000000 0.000000 0.000000 -0.001357 0.000000 0.037223
#
#
# Mechanical properties :
#
#
# Convention : Reuss Voigt Hill
#
# Bulk Modulus (GPa) = 89.45865 90.24093 89.84979
# Shear Modulus (GPa) = 39.77514 46.52952 43.15233
#
# Velocity S-wave (km/s) = 4.04981 4.38019 4.21824
# Velocity P-wave (km/s) = 7.66522 7.92412 7.79574
#
# Compressibility (1/GPa) = 0.01117835
#
# Stress axis : x y z
#
# Youngs Moduli (GPa) = 108.05846 173.01020 91.69454
#
# Poissons Ratio (x) = 0.15022 0.50315
# Poissons Ratio (y) = 0.09382 0.09402
# Poissons Ratio (z) = 0.59294 0.17740
#
# Static dielectric constant tensor:
#      x y z
#    x 12.991770 0.000000 2.227710 
#    y 0.000000 2.018860 0.000000 
#    z 2.227710 0.000000 2.445260 
# 
# From -- ./inp_files/124810.got.cif
#   From: 2010.05.17/outbox.cif.g08.bks.cpg/sg15_63_cif.got.tgz:124810.got - 2010.06.03 18:47:42.
