data_PCOD9298399
_publ_section_title
;
Structure prediction by ZEFSAII (Michael W. Deem and Ramdas Pophale) SiO2 
 PCOD9298399
Probable space group: C 2/C
;
_chemical_formula_sum "Si O2"
_cell_formula_units_Z 40
_cell_length_a 29.491270
_cell_length_b 11.460260
_cell_length_c 10.971762
_cell_angle_alpha 90.000000
_cell_angle_beta 152.067462
_cell_angle_gamma 90.000000
_cell_volume 1737.042850
_symmetry_space_group_name_H-M "C 2/C"
_symmetry_group_IT_number 15
_symmetry_cell_setting 'monoclinic'
loop_
_space_group_symop_operation_xyz
x,y,z
-x,y,1/2-z
-x,-y,-z
x,-y,1/2+z
1/2+x,1/2+y,z
1/2-x,1/2+y,1/2-z
1/2-x,1/2-y,-z
1/2+x,1/2-y,1/2+z
loop_
_atom_site_type_symbol
_atom_site_label
_atom_site_fract_x
_atom_site_fract_y
_atom_site_fract_z
Si Si1 0.139303 0.421077 0.785628
Si Si2 0.263453 0.376968 0.469494
Si Si3 0.437394 0.089274 0.702721
Si Si4 0.818953 0.809845 0.327054
Si Si5 0.054716 0.000593 0.499318
O O1 0.125101 0.504309 0.867268
O O2 0.031164 0.368934 0.505344
O O3 0.184401 0.518663 0.799192
O O4 0.218869 0.325970 0.014468
O O5 0.250000 0.250000 0.500000
O O6 0.294876 0.363337 0.403215
O O7 0.352882 0.423790 0.757762
O O8 0.500000 0.023539 0.750000
O O9 0.369108 0.186762 0.480101
O O10 0.900620 0.877683 0.443583
O O11 0.000000 0.000000 0.500000
O O12 0.000000 0.954064 0.250000
#
# Coordination Sequence:
#
# PCOD9298399 Si02
#       5
#     8   8   8   8   8
#     4  10  24  44  69 101 140 197 242 301 375 444
#     4  11  22  43  67  99 144 185 239 302 366 442
#     4  11  23  43  69 101 143 187 247 305 365 448
#     4  11  23  43  73 105 145 189 246 311 373 436
#     4  11  23  44  72 103 145 191 246 308 372 444
#
# _framework density 23.027642
#
# number of rings (size 3 to 8) (size 9 to 14) (size 15 to 20)
#    0.000    1.200    4.000    1.800    0.000    0.800 
#    3.600    3.000    0.000    0.000    0.000    0.000 
#    0.000    0.000    0.000    0.000    0.000    0.000 
#
# Total GULP energy -111437.296280 kJ/mol
# GULP energy per Si atom -5571.864814 kJ/mol
# Density = 2.297523 g / cm^3
# Si number density = 23.027642 Si / 1000 Ang^3
#
#
#
# Elastic Constant Matrix: (Units=GPa)
#
#
# Indices 1 2 3 4 5 6 
#
# 1 175.9555 59.3588 4.3065 0.0000 4.9394 0.0000
# 2 59.3588 129.7690 66.6054 0.0000 5.0090 0.0000
# 3 4.3065 66.6054 145.0391 0.0000 14.3646 0.0000
# 4 0.0000 0.0000 0.0000 20.4415 0.0000 -14.5024
# 5 4.9394 5.0090 14.3646 0.0000 25.0720 0.0000
# 6 0.0000 0.0000 0.0000 -14.5024 0.0000 45.0928
#
#
#
# Elastic Compliance Matrix: (Units=1/GPa)
#
#
# Indices 1 2 3 4 5 6 
#
# 1 0.007073 -0.004118 0.001842 0.000000 -0.001626 0.000000
# 2 -0.004118 0.012491 -0.005775 0.000000 0.001624 0.000000
# 3 0.001842 -0.005775 0.009980 0.000000 -0.004927 0.000000
# 4 0.000000 0.000000 0.000000 0.063382 0.000000 0.020384
# 5 -0.001626 0.001624 -0.004927 0.000000 0.042704 0.000000
# 6 0.000000 0.000000 0.000000 0.020384 0.000000 0.028732
#
#
# Mechanical properties :
#
#
# Convention : Reuss Voigt Hill
#
# Bulk Modulus (GPa) = 74.39076 79.03392 76.71234
# Shear Modulus (GPa) = 27.03521 39.48747 33.26134
#
# Velocity S-wave (km/s) = 3.43013 4.14549 3.80466
# Velocity P-wave (km/s) = 6.93274 7.57029 7.25852
#
# Compressibility (1/GPa) = 0.01344253
#
# Stress axis : x y z
#
# Youngs Moduli (GPa) = 141.38149 80.05797 100.20179
#
# Poissons Ratio (x) = 0.32969 -0.18459
# Poissons Ratio (y) = 0.58222 0.57864
# Poissons Ratio (z) = -0.26045 0.46231
#
# Static dielectric constant tensor:
#      x y z
#    x 1.981170 0.000000 -0.075370 
#    y 0.000000 1.988200 0.000000 
#    z -0.075370 0.000000 1.980920 
# 
# From -- ./inp_files/117385.got.cif
#   From: 2010.05.17/outbox.cif.g08.bks.cpg/sg15_59_cif.got.tgz:117385.got - 2010.06.03 18:47:42.
