data_PCOD9298146
_publ_section_title
;
Structure prediction by ZEFSAII (Michael W. Deem and Ramdas Pophale) SiO2 
 PCOD9298146
Probable space group: C 2/C
;
_chemical_formula_sum "Si O2"
_cell_formula_units_Z 52
_cell_length_a 15.474768
_cell_length_b 6.283507
_cell_length_c 29.073287
_cell_angle_alpha 90.000000
_cell_angle_beta 119.557187
_cell_angle_gamma 90.000000
_cell_volume 2459.074182
_symmetry_space_group_name_H-M "C 2/C"
_symmetry_group_IT_number 15
_symmetry_cell_setting 'monoclinic'
loop_
_space_group_symop_operation_xyz
x,y,z
-x,y,1/2-z
-x,-y,-z
x,-y,1/2+z
1/2+x,1/2+y,z
1/2-x,1/2+y,1/2-z
1/2-x,1/2-y,-z
1/2+x,1/2-y,1/2+z
loop_
_atom_site_type_symbol
_atom_site_label
_atom_site_fract_x
_atom_site_fract_y
_atom_site_fract_z
Si Si1 0.164505 0.570589 0.977883
Si Si2 0.180641 0.961648 0.662943
Si Si3 0.984668 0.930192 0.548818
Si Si4 0.676467 0.332350 0.432753
Si Si5 0.355772 0.325959 0.173831
Si Si6 0.000000 0.520628 0.250000
Si Si7 0.170765 0.205572 0.263791
O O1 0.211076 0.403757 0.026584
O O2 0.250000 0.750000 0.000000
O O3 0.164708 0.423354 0.932410
O O4 0.062124 0.690972 0.961074
O O5 0.081907 0.960197 0.606185
O O6 0.261991 0.827973 0.656025
O O7 0.172104 0.846158 0.710263
O O8 0.227925 0.190744 0.689287
O O9 0.000000 0.000000 0.500000
O O10 0.900300 0.074938 0.550468
O O11 0.649678 0.431880 0.377000
O O12 0.355056 0.495442 0.214326
O O13 0.451720 0.177483 0.200463
O O14 0.914376 0.377628 0.248866
#
# Coordination Sequence:
#
# PCOD9298146 Si02
#       7
#     8   8   8   8   8   4   8
#     4   9  22  44  66  93 133 169 230 272 327 392
#     4  11  26  43  68  98 140 174 223 280 344 403
#     4  11  27  42  67 101 138 175 227 283 340 401
#     4  10  24  43  70  94 128 182 226 275 333 404
#     4  11  25  43  70  97 133 179 224 278 342 408
#     4  10  26  40  70  96 136 168 236 268 342 410
#     4  11  24  46  66  99 135 178 221 285 340 407
#
# _framework density 21.146170000000001
#
# number of rings (size 3 to 8) (size 9 to 14) (size 15 to 20)
#    0.000    1.538    1.538    0.462   15.077    4.308 
#    0.000    0.000    0.000    0.000    0.000    0.000 
#    0.000    0.000    0.000    0.000    0.000    0.000 
#
# Total GULP energy -145107.760175 kJ/mol
# GULP energy per Si atom -5581.067699 kJ/mol
# Density = 2.109804 g / cm^3
# Si number density = 21.146170 Si / 1000 Ang^3
#
#
#
# Elastic Constant Matrix: (Units=GPa)
#
#
# Indices 1 2 3 4 5 6 
#
# 1 68.4066 29.3062 58.4935 0.0000 9.5365 0.0000
# 2 29.3062 85.2692 26.5989 0.0000 13.4544 0.0000
# 3 58.4935 26.5989 133.7697 0.0000 5.6438 0.0000
# 4 0.0000 0.0000 0.0000 22.0055 0.0000 2.2015
# 5 9.5365 13.4544 5.6438 0.0000 48.0699 0.0000
# 6 0.0000 0.0000 0.0000 2.2015 0.0000 33.3825
#
#
#
# Elastic Compliance Matrix: (Units=1/GPa)
#
#
# Indices 1 2 3 4 5 6 
#
# 1 0.025966 -0.005360 -0.010185 0.000000 -0.002455 0.000000
# 2 -0.005360 0.014127 -0.000345 0.000000 -0.002850 0.000000
# 3 -0.010185 -0.000345 0.011968 0.000000 0.000712 0.000000
# 4 0.000000 0.000000 0.000000 0.045745 0.000000 -0.003017
# 5 -0.002455 -0.002850 0.000712 0.000000 0.022004 0.000000
# 6 0.000000 0.000000 0.000000 -0.003017 0.000000 0.030155
#
#
# Mechanical properties :
#
#
# Convention : Reuss Voigt Hill
#
# Bulk Modulus (GPa) = 49.30670 57.36032 53.33351
# Shear Modulus (GPa) = 26.52461 32.22804 29.37633
#
# Velocity S-wave (km/s) = 3.54552 3.90816 3.73125
# Velocity P-wave (km/s) = 6.33472 6.89561 6.62110
#
# Compressibility (1/GPa) = 0.02028122
#
# Stress axis : x y z
#
# Youngs Moduli (GPa) = 38.51218 70.78618 83.55888
#
# Poissons Ratio (x) = 0.37940 0.85103
# Poissons Ratio (y) = 0.20642 0.02884
# Poissons Ratio (z) = 0.39224 0.02443
#
# Static dielectric constant tensor:
#      x y z
#    x 1.757060 0.000000 0.009720 
#    y 0.000000 1.826060 0.000000 
#    z 0.009720 0.000000 1.819560 
# 
# From -- ./inp_files/312426.got.cif
#   From: 2010.05.17/outbox.cif.g08.bks.cpg/sg15_157_cif.got.tgz:312426.got - 2010.06.03 18:47:42.
