data_PCOD9298691
_publ_section_title
;
Structure prediction by ZEFSAII (Michael W. Deem and Ramdas Pophale) SiO2 
 PCOD9298691
Probable space group: C 2/C
;
_chemical_formula_sum "Si O2"
_cell_formula_units_Z 32
_cell_length_a 22.178175
_cell_length_b 7.566634
_cell_length_c 12.129876
_cell_angle_alpha 90.000000
_cell_angle_beta 42.054396
_cell_angle_gamma 90.000000
_cell_volume 1363.494137
_symmetry_space_group_name_H-M "C 2/C"
_symmetry_group_IT_number 15
_symmetry_cell_setting 'monoclinic'
loop_
_space_group_symop_operation_xyz
x,y,z
-x,y,1/2-z
-x,-y,-z
x,-y,1/2+z
1/2+x,1/2+y,z
1/2-x,1/2+y,1/2-z
1/2-x,1/2-y,-z
1/2+x,1/2-y,1/2+z
loop_
_atom_site_type_symbol
_atom_site_label
_atom_site_fract_x
_atom_site_fract_y
_atom_site_fract_z
Si Si1 0.575268 0.429526 0.242053
Si Si2 0.737917 0.024443 0.093813
Si Si3 0.567119 0.842413 0.941059
Si Si4 0.635136 0.221302 0.578888
O O1 0.500000 0.403835 0.250000
O O2 0.550042 0.327083 0.386545
O O3 0.594947 0.640187 0.223446
O O4 0.674126 0.366665 0.064308
O O5 0.669779 0.105528 0.271884
O O6 0.676663 0.951062 0.076948
O O7 0.783987 0.844514 0.077557
O O8 0.569376 0.815788 0.068258
O O9 0.500000 0.000000 0.000000
#
# Coordination Sequence:
#
# PCOD9298691 Si02
#       4
#     8   8   8   8
#     4  10  24  45  69  98 139 179 230 288 345 412
#     4   9  23  44  69  96 142 176 230 291 342 406
#     4  12  27  40  72 105 135 185 231 283 354 415
#     4   9  24  44  70  93 138 182 229 285 346 411
#
# _framework density 23.469114999999999
#
# number of rings (size 3 to 8) (size 9 to 14) (size 15 to 20)
#    1.500    0.500    0.000    0.750   10.500    3.000 
#    0.000    0.000    0.000    0.000    0.000    0.000 
#    0.000    0.000    0.000    0.000    0.000    0.000 
#
# Total GULP energy -89288.334454 kJ/mol
# GULP energy per Si atom -5580.520903 kJ/mol
# Density = 2.341570 g / cm^3
# Si number density = 23.469115 Si / 1000 Ang^3
#
#
#
# Elastic Constant Matrix: (Units=GPa)
#
#
# Indices 1 2 3 4 5 6 
#
# 1 141.1307 57.3006 41.5780 0.0000 1.5526 0.0000
# 2 57.3006 114.2998 43.4484 -0.0001 7.7135 -0.0001
# 3 41.5780 43.4484 126.9469 -0.0001 -12.9631 0.0000
# 4 0.0000 -0.0001 -0.0001 40.2442 0.0000 -14.0169
# 5 1.5526 7.7135 -12.9631 0.0000 35.5456 0.0000
# 6 0.0000 -0.0001 0.0000 -14.0169 0.0000 -17.5682
#
#
#
# Elastic Compliance Matrix: (Units=1/GPa)
#
#
# Indices 1 2 3 4 5 6 
#
# 1 0.009187 -0.003961 -0.001669 0.000000 -0.000150 0.000000
# 2 -0.003961 0.012222 -0.003260 0.000000 -0.003668 0.000000
# 3 -0.001669 -0.003260 0.009991 0.000000 0.004424 0.000000
# 4 0.000000 0.000000 0.000000 0.019445 0.000000 -0.015514
# 5 -0.000150 -0.003668 0.004424 0.000000 0.030549 0.000000
# 6 0.000000 0.000000 0.000000 -0.015514 0.000000 -0.044543
#
#
# Mechanical properties :
#
#
# Convention : Reuss Voigt Hill
#
# Bulk Modulus (GPa) = 73.42011 74.11460 73.76735
# Shear Modulus (GPa) = 84.50134 27.64768 56.07451
#
# Velocity S-wave (km/s) = 6.00695 3.43599 4.89334
# Velocity P-wave (km/s) = 8.91420 6.88401 7.96406
#
# Compressibility (1/GPa) = 0.01362025
#
# Stress axis : x y z
#
# Youngs Moduli (GPa) = 108.84729 81.82266 100.08677
#
# Poissons Ratio (x) = 0.32412 0.16700
# Poissons Ratio (y) = 0.43118 0.32629
# Poissons Ratio (z) = 0.18162 0.26675
#
# Static dielectric constant tensor:
#      x y z
#    x 1.861720 0.000000 -0.045420 
#    y 0.000000 1.935400 0.000000 
#    z -0.045420 0.000000 1.935240 
# 
# From -- ./inp_files/109488.got.cif
#   From: 2010.05.17/outbox.cif.g08.bks.cpg/sg15_55_cif.got.tgz:109488.got - 2010.06.03 18:47:42.
