data_PCOD9298610
_publ_section_title
;
Structure prediction by ZEFSAII (Michael W. Deem and Ramdas Pophale) SiO2 
 PCOD9298610
Probable space group: C 2/C
;
_chemical_formula_sum "Si O2"
_cell_formula_units_Z 40
_cell_length_a 13.502036
_cell_length_b 4.765776
_cell_length_c 22.453403
_cell_angle_alpha 90.000000
_cell_angle_beta 98.108520
_cell_angle_gamma 90.000000
_cell_volume 1430.380021
_symmetry_space_group_name_H-M "C 2/C"
_symmetry_group_IT_number 15
_symmetry_cell_setting 'monoclinic'
loop_
_space_group_symop_operation_xyz
x,y,z
-x,y,1/2-z
-x,-y,-z
x,-y,1/2+z
1/2+x,1/2+y,z
1/2-x,1/2+y,1/2-z
1/2-x,1/2-y,-z
1/2+x,1/2-y,1/2+z
loop_
_atom_site_type_symbol
_atom_site_label
_atom_site_fract_x
_atom_site_fract_y
_atom_site_fract_z
Si Si1 0.447044 0.237534 0.408620
Si Si2 0.219058 0.960073 0.548784
Si Si3 0.084303 0.235578 0.397658
Si Si4 0.896558 0.469843 0.232695
Si Si5 0.686606 0.609074 0.174524
O O1 0.385099 0.363470 0.459174
O O2 0.493916 0.931633 0.414892
O O3 0.367239 0.314734 0.348984
O O4 0.545168 0.424494 0.404329
O O5 0.250000 0.750000 0.500000
O O6 0.310015 0.175913 0.565872
O O7 0.209453 0.781551 0.609777
O O8 0.097545 0.301549 0.328896
O O9 0.792148 0.626021 0.216806
O O10 0.887138 0.264779 0.287834
O O11 0.000000 0.634697 0.250000
#
# Coordination Sequence:
#
# PCOD9298610 Si02
#       5
#     8   8   8   8   8
#     4  10  24  45  65 103 138 171 236 272 341 412
#     4   9  22  46  71 102 140 182 232 287 340 404
#     4  11  24  44  69 100 134 184 221 280 347 406
#     4  11  21  39  61  94 135 174 218 275 341 400
#     4   9  23  39  62 102 133 177 228 278 336 413
#
# _framework density 27.964597999999999
#
# number of rings (size 3 to 8) (size 9 to 14) (size 15 to 20)
#    1.200    0.800    2.000    0.000    2.800    6.400 
#    0.000    2.000    0.000    0.000    0.000    0.000 
#    0.000    0.000    0.000    0.000    0.000    0.000 
#
# Total GULP energy -112053.606637 kJ/mol
# GULP energy per Si atom -5602.680332 kJ/mol
# Density = 2.790095 g / cm^3
# Si number density = 27.964598 Si / 1000 Ang^3
#
#
#
# Elastic Constant Matrix: (Units=GPa)
#
#
# Indices 1 2 3 4 5 6 
#
# 1 181.3079 22.0921 15.6891 0.0000 7.9728 0.0000
# 2 22.0921 76.0800 26.4426 0.0000 -5.7753 0.0000
# 3 15.6891 26.4426 110.4866 0.0000 -25.4620 0.0000
# 4 0.0000 0.0000 0.0000 37.6642 0.0000 -10.0626
# 5 7.9728 -5.7753 -25.4620 0.0000 54.2030 0.0000
# 6 0.0000 0.0000 0.0000 -10.0626 0.0000 55.7365
#
#
#
# Elastic Compliance Matrix: (Units=1/GPa)
#
#
# Indices 1 2 3 4 5 6 
#
# 1 0.005830 -0.001526 -0.000782 0.000000 -0.001388 0.000000
# 2 -0.001526 0.014737 -0.003248 0.000000 0.000269 0.000000
# 3 -0.000782 -0.003248 0.011086 0.000000 0.004977 0.000000
# 4 0.000000 0.000000 0.000000 0.027896 0.000000 0.005036
# 5 -0.001388 0.000269 0.004977 0.000000 0.021020 0.000000
# 6 0.000000 0.000000 0.000000 0.005036 0.000000 0.018851
#
#
# Mechanical properties :
#
#
# Convention : Reuss Voigt Hill
#
# Bulk Modulus (GPa) = 48.68743 55.14690 51.91717
# Shear Modulus (GPa) = 42.59668 49.76410 46.18039
#
# Velocity S-wave (km/s) = 3.90710 4.22304 4.06814
# Velocity P-wave (km/s) = 6.14834 6.59862 6.37745
#
# Compressibility (1/GPa) = 0.02053918
#
# Stress axis : x y z
#
# Youngs Moduli (GPa) = 171.52087 67.85805 90.20163
#
# Poissons Ratio (x) = 0.10358 0.07057
# Poissons Ratio (y) = 0.26181 0.29299
# Poissons Ratio (z) = 0.13420 0.22042
#
# Static dielectric constant tensor:
#      x y z
#    x 2.099870 0.000000 0.046490 
#    y 0.000000 2.150100 0.000000 
#    z 0.046490 0.000000 2.240350 
# 
# From -- ./inp_files/271681.got.cif
#   From: 2010.05.17/outbox.cif.g08.bks.cpg/sg15_136_cif.got.tgz:271681.got - 2010.06.03 18:47:42.
