data_PCOD9298198
_publ_section_title
;
Structure prediction by ZEFSAII (Michael W. Deem and Ramdas Pophale) SiO2 
 PCOD9298198
Probable space group: C 2/C
;
_chemical_formula_sum "Si O2"
_cell_formula_units_Z 52
_cell_length_a 20.280702
_cell_length_b 13.926286
_cell_length_c 9.351520
_cell_angle_alpha 90.000000
_cell_angle_beta 57.573325
_cell_angle_gamma 90.000000
_cell_volume 2229.375748
_symmetry_space_group_name_H-M "C 2/C"
_symmetry_group_IT_number 15
_symmetry_cell_setting 'monoclinic'
loop_
_space_group_symop_operation_xyz
x,y,z
-x,y,1/2-z
-x,-y,-z
x,-y,1/2+z
1/2+x,1/2+y,z
1/2-x,1/2+y,1/2-z
1/2-x,1/2-y,-z
1/2+x,1/2-y,1/2+z
loop_
_atom_site_type_symbol
_atom_site_label
_atom_site_fract_x
_atom_site_fract_y
_atom_site_fract_z
Si Si1 0.269706 0.755555 0.309950
Si Si2 0.323659 0.030028 0.778378
Si Si3 0.823334 0.107663 0.048478
Si Si4 0.370129 0.710306 0.716954
Si Si5 0.500000 0.815297 0.750000
Si Si6 0.924213 0.495195 0.418509
Si Si7 0.551419 0.451157 0.561213
O O1 0.250000 0.750000 0.500000
O O2 0.300295 0.864295 0.250388
O O3 0.330156 0.676768 0.178574
O O4 0.192075 0.732750 0.306942
O O5 0.398660 0.981865 0.611209
O O6 0.250168 0.961543 0.849291
O O7 0.349975 0.034736 0.911784
O O8 0.821497 0.171246 0.908523
O O9 0.895942 0.037216 0.940698
O O10 0.447888 0.756926 0.696891
O O11 0.397143 0.627544 0.577644
O O12 0.559555 0.890641 0.608820
O O13 0.000000 0.450530 0.250000
O O14 0.500000 0.410293 0.750000
O O15 0.500000 0.500000 0.500000
#
# Coordination Sequence:
#
# PCOD9298198 Si02
#       7
#     8   8   8   8   4   8   8
#     4  12  28  44  74 114 150 190 260 323 376 441
#     4  12  23  47  72 108 143 191 249 307 371 444
#     4  12  26  46  77 103 150 200 250 309 383 464
#     4  12  24  49  72 108 151 200 255 310 380 459
#     4  10  24  46  74 108 150 206 250 298 378 466
#     4  10  24  43  74 101 146 188 245 298 378 436
#     4  12  26  45  75 106 145 198 245 311 388 458
#
# _framework density 23.324916999999999
#
# number of rings (size 3 to 8) (size 9 to 14) (size 15 to 20)
#    0.462    0.000    3.077    5.538    4.308    0.000 
#    0.000    0.000    0.000    0.000    0.000    0.000 
#    0.000    0.000    0.000    0.000    0.000    0.000 
#
# Total GULP energy -145348.513081 kJ/mol
# GULP energy per Si atom -5590.327426 kJ/mol
# Density = 2.327183 g / cm^3
# Si number density = 23.324917 Si / 1000 Ang^3
#
#
#
# Elastic Constant Matrix: (Units=GPa)
#
#
# Indices 1 2 3 4 5 6 
#
# 1 79.6152 20.0889 1.2411 0.0000 8.3750 0.0000
# 2 20.0889 81.8763 10.3261 0.0000 -8.4596 0.0000
# 3 1.2411 10.3261 139.5862 0.0000 -1.3592 0.0000
# 4 0.0000 0.0000 0.0000 17.1689 0.0000 2.6516
# 5 8.3750 -8.4596 -1.3592 0.0000 32.3173 0.0000
# 6 0.0000 0.0000 0.0000 2.6516 0.0000 24.4011
#
#
#
# Elastic Compliance Matrix: (Units=1/GPa)
#
#
# Indices 1 2 3 4 5 6 
#
# 1 0.014044 -0.003943 0.000121 0.000000 -0.004667 0.000000
# 2 -0.003943 0.013774 -0.000939 0.000000 0.004588 0.000000
# 3 0.000121 -0.000939 0.007233 0.000000 0.000027 0.000000
# 4 0.000000 0.000000 0.000000 0.059239 0.000000 -0.006437
# 5 -0.004667 0.004588 0.000027 0.000000 0.033355 0.000000
# 6 0.000000 0.000000 0.000000 -0.006437 0.000000 0.041681
#
#
# Mechanical properties :
#
#
# Convention : Reuss Voigt Hill
#
# Bulk Modulus (GPa) = 39.17209 40.48774 39.82992
# Shear Modulus (GPa) = 26.68694 32.73889 29.71291
#
# Velocity S-wave (km/s) = 3.38618 3.75053 3.57300
# Velocity P-wave (km/s) = 5.66735 6.01258 5.84252
#
# Compressibility (1/GPa) = 0.02552838
#
# Stress axis : x y z
#
# Youngs Moduli (GPa) = 71.20249 72.60284 138.26112
#
# Poissons Ratio (x) = 0.28630 -0.01679
# Poissons Ratio (y) = 0.28078 0.12985
# Poissons Ratio (z) = -0.00864 0.06819
#
# Static dielectric constant tensor:
#      x y z
#    x 1.982410 0.000000 -0.018750 
#    y 0.000000 1.936760 0.000000 
#    z -0.018750 0.000000 1.976600 
# 
# From -- ./inp_files/61440.got.cif
#   From: 2010.05.17/outbox.cif.g08.bks.cpg/sg15_31_cif.got.tgz:61440.got - 2010.06.03 18:47:42.
