data_PCOD9298623
_publ_section_title
;
Structure prediction by ZEFSAII (Michael W. Deem and Ramdas Pophale) SiO2 
 PCOD9298623
Probable space group: C 2/C
;
_chemical_formula_sum "Si O2"
_cell_formula_units_Z 36
_cell_length_a 5.503518
_cell_length_b 16.548257
_cell_length_c 16.309648
_cell_angle_alpha 90.000000
_cell_angle_beta 68.010594
_cell_angle_gamma 90.000000
_cell_volume 1377.322150
_symmetry_space_group_name_H-M "C 2/C"
_symmetry_group_IT_number 15
_symmetry_cell_setting 'monoclinic'
loop_
_space_group_symop_operation_xyz
x,y,z
-x,y,1/2-z
-x,-y,-z
x,-y,1/2+z
1/2+x,1/2+y,z
1/2-x,1/2+y,1/2-z
1/2-x,1/2-y,-z
1/2+x,1/2-y,1/2+z
loop_
_atom_site_type_symbol
_atom_site_label
_atom_site_fract_x
_atom_site_fract_y
_atom_site_fract_z
Si Si1 0.000000 0.387291 0.250000
Si Si2 0.500000 0.713684 0.750000
Si Si3 0.845868 0.010503 0.137667
Si Si4 0.500000 0.371628 0.750000
Si Si5 0.081151 0.720419 0.405036
Si Si6 0.848414 0.883374 0.475706
O O1 0.754884 0.336377 0.246488
O O2 0.890194 0.447289 0.333146
O O3 0.576303 0.766513 0.661253
O O4 0.864508 0.067178 0.057280
O O5 0.826795 0.066867 0.218958
O O6 0.094067 0.948826 0.102105
O O7 0.655663 0.317750 0.664373
O O8 0.059297 0.809914 0.445562
O O9 0.930931 0.660715 0.484796
#
# Coordination Sequence:
#
# PCOD9298623 Si02
#       6
#     4   4   8   4   8   8
#     4  12  25  47  78 112 150 206 262 312 373 465
#     4  12  25  47  78 112 150 206 262 312 373 465
#     4  11  24  46  69 110 146 203 249 319 378 461
#     4  12  26  46  80 110 152 204 264 312 386 466
#     4  11  24  46  69 110 146 203 249 319 378 461
#     4  10  24  45  66 105 158 190 256 313 396 437
#
# _framework density 26.137675999999999
#
# number of rings (size 3 to 8) (size 9 to 14) (size 15 to 20)
#    0.000    0.889    2.222    4.000    0.000    1.778 
#   16.000    0.000    0.000    0.000    0.000    0.000 
#    0.000    0.000    0.000    0.000    0.000    0.000 
#
# Total GULP energy -100679.201075 kJ/mol
# GULP energy per Si atom -5593.288949 kJ/mol
# Density = 2.607819 g / cm^3
# Si number density = 26.137676 Si / 1000 Ang^3
#
#
#
# Elastic Constant Matrix: (Units=GPa)
#
#
# Indices 1 2 3 4 5 6 
#
# 1 111.0724 49.2295 20.5998 0.0000 -13.0717 0.0000
# 2 49.2295 128.5399 27.1763 0.0000 -28.1072 0.0000
# 3 20.5998 27.1763 75.1364 0.0000 -29.2216 0.0000
# 4 0.0000 0.0000 0.0000 65.6488 0.0000 -10.7710
# 5 -13.0717 -28.1072 -29.2216 0.0000 39.9566 0.0000
# 6 0.0000 0.0000 0.0000 -10.7710 0.0000 43.6230
#
#
#
# Elastic Compliance Matrix: (Units=1/GPa)
#
#
# Indices 1 2 3 4 5 6 
#
# 1 0.011029 -0.003951 -0.001778 0.000000 -0.000472 0.000000
# 2 -0.003951 0.010679 -0.000504 0.000000 0.005851 0.000000
# 3 -0.001778 -0.000504 0.019026 0.000000 0.012979 0.000000
# 4 0.000000 0.000000 0.000000 0.015876 0.000000 0.003920
# 5 -0.000472 0.005851 0.012979 0.000000 0.038480 0.000000
# 6 0.000000 0.000000 0.000000 0.003920 0.000000 0.023892
#
#
# Mechanical properties :
#
#
# Convention : Reuss Voigt Hill
#
# Bulk Modulus (GPa) = 35.37541 56.52888 45.95214
# Shear Modulus (GPa) = 35.49379 44.36189 39.92784
#
# Velocity S-wave (km/s) = 3.68904 4.12423 3.91269
# Velocity P-wave (km/s) = 5.63108 6.65983 6.16694
#
# Compressibility (1/GPa) = 0.02826822
#
# Stress axis : x y z
#
# Youngs Moduli (GPa) = 90.67354 93.64345 52.55860
#
# Poissons Ratio (x) = 0.36999 0.09345
# Poissons Ratio (y) = 0.35826 0.02647
# Poissons Ratio (z) = 0.16122 0.04716
#
# Static dielectric constant tensor:
#      x y z
#    x 2.064850 0.000000 -0.033660 
#    y 0.000000 2.074670 0.000000 
#    z -0.033660 0.000000 2.065780 
# 
# From -- ./inp_files/184203.got.cif
#   From: 2010.05.17/outbox.cif.g08.bks.cpg/sg15_93_cif.got.tgz:184203.got - 2010.06.03 18:47:42.
