data_PCOD9298745
_publ_section_title
;
Structure prediction by ZEFSAII (Michael W. Deem and Ramdas Pophale) SiO2 
 PCOD9298745
Probable space group: C 2/C
;
_chemical_formula_sum "Si O2"
_cell_formula_units_Z 32
_cell_length_a 18.821299
_cell_length_b 5.083087
_cell_length_c 29.078882
_cell_angle_alpha 90.000000
_cell_angle_beta 152.024385
_cell_angle_gamma 90.000000
_cell_volume 1305.017484
_symmetry_space_group_name_H-M "C 2/C"
_symmetry_group_IT_number 15
_symmetry_cell_setting 'monoclinic'
loop_
_space_group_symop_operation_xyz
x,y,z
-x,y,1/2-z
-x,-y,-z
x,-y,1/2+z
1/2+x,1/2+y,z
1/2-x,1/2+y,1/2-z
1/2-x,1/2-y,-z
1/2+x,1/2-y,1/2+z
loop_
_atom_site_type_symbol
_atom_site_label
_atom_site_fract_x
_atom_site_fract_y
_atom_site_fract_z
Si Si1 0.516655 0.063946 0.937878
Si Si2 0.755462 0.539097 0.354167
Si Si3 0.723969 0.790711 0.918165
Si Si4 0.947184 0.787495 0.641285
O O1 0.526079 0.223421 0.896619
O O2 0.350471 0.034534 0.863531
O O3 0.623244 0.168435 0.040921
O O4 0.598228 0.782334 0.974857
O O5 0.698467 0.284177 0.350085
O O6 0.609068 0.703647 0.258442
O O7 0.637037 0.561240 0.896730
O O8 0.657807 0.061937 0.897101
#
# Coordination Sequence:
#
# PCOD9298745 Si02
#       4
#     8   8   8   8
#     4   9  22  48  72 106 144 186 237 292 359 419
#     4   9  23  45  72 105 142 187 231 296 350 428
#     4  10  24  45  72 105 139 183 236 292 349 418
#     4  12  23  45  75 103 139 185 239 290 351 419
#
# _framework density 24.520745999999999
#
# number of rings (size 3 to 8) (size 9 to 14) (size 15 to 20)
#    1.500    0.500    0.000    2.250    0.000    6.000 
#    0.000   10.000    0.000    0.000    0.000    0.000 
#    0.000    0.000    0.000    0.000    0.000    0.000 
#
# Total GULP energy -89527.059817 kJ/mol
# GULP energy per Si atom -5595.441239 kJ/mol
# Density = 2.446494 g / cm^3
# Si number density = 24.520746 Si / 1000 Ang^3
#
#
#
# Elastic Constant Matrix: (Units=GPa)
#
#
# Indices 1 2 3 4 5 6 
#
# 1 199.0839 53.4110 26.1713 0.0062 29.1930 -0.0103
# 2 53.4110 103.1332 23.5179 0.0092 1.3043 -0.0057
# 3 26.1713 23.5179 69.3994 -0.0004 6.8503 0.0064
# 4 0.0062 0.0092 -0.0004 21.8875 -0.0089 -6.0979
# 5 29.1930 1.3043 6.8503 -0.0089 28.8471 0.0147
# 6 -0.0103 -0.0057 0.0064 -6.0979 0.0147 14.7625
#
#
#
# Elastic Compliance Matrix: (Units=1/GPa)
#
#
# Indices 1 2 3 4 5 6 
#
# 1 0.007027 -0.003361 -0.000844 0.000000 -0.006759 0.000011
# 2 -0.003361 0.012120 -0.003196 -0.000003 0.003612 -0.000001
# 3 -0.000844 -0.003196 0.016089 -0.000001 -0.002822 -0.000006
# 4 0.000000 -0.000003 -0.000001 0.051630 0.000006 0.021327
# 5 -0.006759 0.003612 -0.002822 0.000006 0.042012 -0.000042
# 6 0.000011 -0.000001 -0.000006 0.021327 -0.000042 0.076548
#
#
# Mechanical properties :
#
#
# Convention : Reuss Voigt Hill
#
# Bulk Modulus (GPa) = 48.93857 64.20188 56.57023
# Shear Modulus (GPa) = 22.02256 31.00052 26.51154
#
# Velocity S-wave (km/s) = 3.00012 3.55950 3.29171
# Velocity P-wave (km/s) = 5.65706 6.56756 6.12924
#
# Compressibility (1/GPa) = 0.02043378
#
# Stress axis : x y z
#
# Youngs Moduli (GPa) = 142.31365 82.50788 62.15327
#
# Poissons Ratio (x) = 0.27732 0.05244
# Poissons Ratio (y) = 0.47834 0.19866
# Poissons Ratio (z) = 0.12007 0.26372
#
# Static dielectric constant tensor:
#      x y z
#    x 1.941510 -0.000010 -0.051430 
#    y -0.000010 1.954480 0.000000 
#    z -0.051430 0.000000 1.978450 
# 
# From -- ./inp_files/314981.got.cif
#   From: 2010.05.17/outbox.cif.g08.bks.cpg/sg15_158_cif.got.tgz:314981.got - 2010.06.03 18:47:42.
