data_PCOD9298563
_publ_section_title
;
Structure prediction by ZEFSAII (Michael W. Deem and Ramdas Pophale) SiO2 
 PCOD9298563
Probable space group: C 2/C
;
_chemical_formula_sum "Si O2"
_cell_formula_units_Z 36
_cell_length_a 18.500841
_cell_length_b 8.687784
_cell_length_c 9.330641
_cell_angle_alpha 90.000000
_cell_angle_beta 83.723603
_cell_angle_gamma 90.000000
_cell_volume 1490.736911
_symmetry_space_group_name_H-M "C 2/C"
_symmetry_group_IT_number 15
_symmetry_cell_setting 'monoclinic'
loop_
_space_group_symop_operation_xyz
x,y,z
-x,y,1/2-z
-x,-y,-z
x,-y,1/2+z
1/2+x,1/2+y,z
1/2-x,1/2+y,1/2-z
1/2-x,1/2-y,-z
1/2+x,1/2-y,1/2+z
loop_
_atom_site_type_symbol
_atom_site_label
_atom_site_fract_x
_atom_site_fract_y
_atom_site_fract_z
Si Si1 0.914107 0.148518 0.545236
Si Si2 0.000000 0.065737 0.250000
Si Si3 0.057820 0.513440 0.365020
Si Si4 0.744041 0.599918 0.904848
Si Si5 0.698056 0.863146 0.420065
O O1 0.957650 0.047721 0.651049
O O2 0.904492 0.317666 0.620044
O O3 0.838800 0.053854 0.546835
O O4 0.950832 0.157089 0.378695
O O5 0.116310 0.373738 0.371883
O O6 0.000000 0.513715 0.250000
O O7 0.000000 0.500000 0.500000
O O8 0.755464 0.611304 0.734074
O O9 0.750000 0.750000 0.000000
O O10 0.805554 0.493802 0.958075
O O11 0.750000 0.750000 0.500000
#
# Coordination Sequence:
#
# PCOD9298563 Si02
#       5
#     8   4   8   8   8
#     4  11  24  46  73 107 152 199 261 314 395 465
#     4  10  24  44  74 110 150 206 246 328 386 474
#     4  12  28  47  77 110 155 201 263 328 397 466
#     4  12  25  46  75 108 151 198 262 315 394 465
#     4  12  28  49  78 111 153 208 262 325 397 478
#
# _framework density 24.149131000000001
#
# number of rings (size 3 to 8) (size 9 to 14) (size 15 to 20)
#    0.000    0.444    3.333    4.000    4.667    3.556 
#    0.000    0.000    0.000    0.000    0.000    0.000 
#    0.000    0.000    0.000    0.000    0.000    0.000 
#
# Total GULP energy -100205.244251 kJ/mol
# GULP energy per Si atom -5566.958014 kJ/mol
# Density = 2.409417 g / cm^3
# Si number density = 24.149131 Si / 1000 Ang^3
#
#
#
# Elastic Constant Matrix: (Units=GPa)
#
#
# Indices 1 2 3 4 5 6 
#
# 1 138.6541 15.0800 50.6523 0.0000 18.0554 0.0000
# 2 15.0800 44.7463 14.8002 0.0000 30.1241 0.0000
# 3 50.6523 14.8002 228.3363 0.0000 19.8307 0.0000
# 4 0.0000 0.0000 0.0000 36.2360 0.0000 11.8788
# 5 18.0554 30.1241 19.8307 0.0000 52.7018 0.0000
# 6 0.0000 0.0000 0.0000 11.8788 0.0000 33.9913
#
#
#
# Elastic Compliance Matrix: (Units=1/GPa)
#
#
# Indices 1 2 3 4 5 6 
#
# 1 0.008120 -0.001203 -0.001593 0.000000 -0.001494 0.000000
# 2 -0.001203 0.036578 -0.000335 0.000000 -0.020369 0.000000
# 3 -0.001593 -0.000335 0.004849 0.000000 -0.001087 0.000000
# 4 0.000000 0.000000 0.000000 0.031167 0.000000 -0.010892
# 5 -0.001494 -0.020369 -0.001087 0.000000 0.031539 0.000000
# 6 0.000000 0.000000 0.000000 -0.010892 0.000000 0.033226
#
#
# Mechanical properties :
#
#
# Convention : Reuss Voigt Hill
#
# Bulk Modulus (GPa) = 23.10376 63.64464 43.37420
# Shear Modulus (GPa) = 30.08980 46.66610 38.37795
#
# Velocity S-wave (km/s) = 3.53370 4.40069 3.99081
# Velocity P-wave (km/s) = 5.12223 7.22727 6.26382
#
# Compressibility (1/GPa) = 0.04328300
#
# Stress axis : x y z
#
# Youngs Moduli (GPa) = 123.15614 27.33919 206.22304
#
# Poissons Ratio (x) = 0.03290 0.32860
# Poissons Ratio (y) = 0.14820 0.06906
# Poissons Ratio (z) = 0.19624 0.00916
#
# Static dielectric constant tensor:
#      x y z
#    x 1.979060 0.000000 0.055600 
#    y 0.000000 2.061970 0.000000 
#    z 0.055600 0.000000 1.868380 
# 
# From -- ./inp_files/53599.got.cif
#   From: 2010.05.17/outbox.cif.g08.bks.cpg/sg15_27_cif.got.tgz:53599.got - 2010.06.03 18:47:42.
