data_PCOD9298948
_publ_section_title
;
Structure prediction by ZEFSAII (Michael W. Deem and Ramdas Pophale) SiO2 
 PCOD9298948
Probable space group: C 2/C
;
_chemical_formula_sum "Si O2"
_cell_formula_units_Z 64
_cell_length_a 21.186065
_cell_length_b 15.775468
_cell_length_c 8.617798
_cell_angle_alpha 90.000000
_cell_angle_beta 89.400089
_cell_angle_gamma 90.000000
_cell_volume 2880.083348
_symmetry_space_group_name_H-M "C 2/C"
_symmetry_group_IT_number 15
_symmetry_cell_setting 'monoclinic'
loop_
_space_group_symop_operation_xyz
x,y,z
-x,y,1/2-z
-x,-y,-z
x,-y,1/2+z
1/2+x,1/2+y,z
1/2-x,1/2+y,1/2-z
1/2-x,1/2-y,-z
1/2+x,1/2-y,1/2+z
loop_
_atom_site_type_symbol
_atom_site_label
_atom_site_fract_x
_atom_site_fract_y
_atom_site_fract_z
Si Si1 0.142184 0.068500 0.723742
Si Si2 0.798505 0.821466 0.551037
Si Si3 0.938411 0.059465 0.477888
Si Si4 0.642217 0.987744 0.445675
Si Si5 0.476164 0.257820 0.912855
Si Si6 0.735112 0.015456 0.195766
Si Si7 0.394426 0.798480 0.999376
Si Si8 0.429278 0.147361 0.176897
O O1 0.166461 0.135920 0.597249
O O2 0.088913 0.086630 0.853160
O O3 0.112838 0.992406 0.620956
O O4 0.204134 0.043743 0.821167
O O5 0.750000 0.750000 0.500000
O O6 0.762469 0.892206 0.650397
O O7 0.853337 0.761189 0.614219
O O8 0.955167 0.146291 0.391584
O O9 0.000000 0.000000 0.500000
O O10 0.712418 0.000013 0.371307
O O11 0.594811 0.057423 0.384377
O O12 0.666988 0.002321 0.619735
O O13 0.612794 0.894010 0.435931
O O14 0.500000 0.218557 0.750000
O O15 0.540396 0.251932 0.008370
O O16 0.429442 0.206100 0.024143
O O17 0.384105 0.816033 0.814463
O O18 0.500000 0.137970 0.250000
#
# Coordination Sequence:
#
# PCOD9298948 Si02
#       8
#     8   8   8   8   8   8   8   8
#     4  12  24  44  70  98 142 184 232 291 346 420
#     4  12  22  42  70  98 131 184 236 277 344 410
#     4  12  25  44  69 102 139 186 232 288 355 421
#     4  12  23  45  70 100 135 178 231 281 343 414
#     4  11  26  42  64 104 138 173 228 289 350 403
#     4  12  24  42  67 101 132 180 228 278 340 405
#     4  11  24  43  69  96 137 180 228 283 344 420
#     4  10  24  46  70  99 136 181 227 283 353 421
#
# _framework density 22.221579999999999
#
# number of rings (size 3 to 8) (size 9 to 14) (size 15 to 20)
#    0.000    0.500    5.000    2.625    3.500    4.500 
#    0.000    0.000    0.000    4.500    0.000    0.000 
#    0.000    0.000    0.000    0.000    0.000    0.000 
#
# Total GULP energy -178245.188095 kJ/mol
# GULP energy per Si atom -5570.162128 kJ/mol
# Density = 2.217100 g / cm^3
# Si number density = 22.221580 Si / 1000 Ang^3
#
#
#
# Elastic Constant Matrix: (Units=GPa)
#
#
# Indices 1 2 3 4 5 6 
#
# 1 69.1785 29.7538 1.7616 0.0000 -7.4978 0.0000
# 2 29.7538 101.0925 26.8723 0.0000 -12.5434 0.0000
# 3 1.7616 26.8723 67.2648 0.0000 -24.1672 0.0000
# 4 0.0000 0.0000 0.0000 23.0617 0.0000 -3.8996
# 5 -7.4978 -12.5434 -24.1672 0.0000 48.5721 0.0000
# 6 0.0000 0.0000 0.0000 -3.8996 0.0000 49.0687
#
#
#
# Elastic Compliance Matrix: (Units=1/GPa)
#
#
# Indices 1 2 3 4 5 6 
#
# 1 0.016976 -0.005377 0.002613 0.000000 0.002532 0.000000
# 2 -0.005377 0.012796 -0.004971 0.000000 0.000001 0.000000
# 3 0.002613 -0.004971 0.020052 0.000000 0.009097 0.000000
# 4 0.000000 0.000000 0.000000 0.043953 0.000000 0.003493
# 5 0.002532 0.000001 0.009097 0.000000 0.025505 0.000000
# 6 0.000000 0.000000 0.000000 0.003493 0.000000 0.020657
#
#
# Mechanical properties :
#
#
# Convention : Reuss Voigt Hill
#
# Bulk Modulus (GPa) = 29.10746 39.36794 34.23770
# Shear Modulus (GPa) = 29.96532 36.08371 33.02451
#
# Velocity S-wave (km/s) = 3.67615 4.03403 3.85924
# Velocity P-wave (km/s) = 5.58085 6.28111 5.94131
#
# Compressibility (1/GPa) = 0.03435545
#
# Stress axis : x y z
#
# Youngs Moduli (GPa) = 58.90724 78.14995 49.86957
#
# Poissons Ratio (x) = 0.42020 -0.13032
# Poissons Ratio (y) = 0.31673 0.24789
# Poissons Ratio (z) = -0.15394 0.38846
#
# Static dielectric constant tensor:
#      x y z
#    x 2.003920 0.000000 -0.018050 
#    y 0.000000 1.846720 0.000000 
#    z -0.018050 0.000000 1.877010 
# 
# From -- ./inp_files/61933.got.cif
#   From: 2010.05.17/outbox.cif.g08.bks.cpg/sg15_31_cif.got.tgz:61933.got - 2010.06.03 18:47:42.
