data_PCOD9298350
_publ_section_title
;
Structure prediction by ZEFSAII (Michael W. Deem and Ramdas Pophale) SiO2 
 PCOD9298350
Probable space group: C 2/C
;
_chemical_formula_sum "Si O2"
_cell_formula_units_Z 44
_cell_length_a 27.297611
_cell_length_b 8.871305
_cell_length_c 24.085295
_cell_angle_alpha 90.000000
_cell_angle_beta 161.136158
_cell_angle_gamma 90.000000
_cell_volume 1885.806364
_symmetry_space_group_name_H-M "C 2/C"
_symmetry_group_IT_number 15
_symmetry_cell_setting 'monoclinic'
loop_
_space_group_symop_operation_xyz
x,y,z
-x,y,1/2-z
-x,-y,-z
x,-y,1/2+z
1/2+x,1/2+y,z
1/2-x,1/2+y,1/2-z
1/2-x,1/2-y,-z
1/2+x,1/2-y,1/2+z
loop_
_atom_site_type_symbol
_atom_site_label
_atom_site_fract_x
_atom_site_fract_y
_atom_site_fract_z
Si Si1 0.519902 0.943800 0.196858
Si Si2 0.395634 0.570922 0.341234
Si Si3 0.458648 0.098962 0.509483
Si Si4 0.188283 0.096419 0.975132
Si Si5 0.216924 0.896001 0.383011
Si Si6 0.000000 0.826594 0.750000
O O1 0.563193 0.783807 0.270077
O O2 0.633932 0.063998 0.343392
O O3 0.530439 0.967881 0.142508
O O4 0.345406 0.975093 0.023713
O O5 0.500000 0.500000 0.500000
O O6 0.473416 0.732894 0.415636
O O7 0.223033 0.596966 0.177003
O O8 0.383641 0.454780 0.275983
O O9 0.500000 0.000000 0.500000
O O10 0.131887 0.121330 0.850944
O O11 0.191717 0.236314 0.021170
O O12 0.116831 0.932908 0.908944
#
# Coordination Sequence:
#
# PCOD9298350 Si02
#       6
#     8   8   8   8   8   4
#     4  11  24  44  69  98 146 178 243 296 366 442
#     4  11  25  49  73 106 146 190 252 306 369 441
#     4  11  26  47  73 105 141 195 245 309 370 441
#     4  11  24  41  68 103 145 182 237 288 378 437
#     4  10  24  44  68 102 141 189 235 302 363 442
#     4  12  24  38  70 106 140 194 226 298 368 446
#
# _framework density 23.332194999999999
#
# number of rings (size 3 to 8) (size 9 to 14) (size 15 to 20)
#    0.000    1.091    1.818    2.727   12.727    0.000 
#    3.273    0.000    0.000    0.000    0.000    0.000 
#    0.000    0.000    0.000    0.000    0.000    0.000 
#
# Total GULP energy -122643.762542 kJ/mol
# GULP energy per Si atom -5574.716479 kJ/mol
# Density = 2.327909 g / cm^3
# Si number density = 23.332195 Si / 1000 Ang^3
#
#
#
# Elastic Constant Matrix: (Units=GPa)
#
#
# Indices 1 2 3 4 5 6 
#
# 1 109.4708 53.8312 37.9200 -0.0003 -40.2222 -0.0003
# 2 53.8312 144.3656 52.8434 0.0001 -19.9876 0.0000
# 3 37.9200 52.8434 111.8329 -0.0005 -31.7794 -0.0004
# 4 -0.0003 0.0001 -0.0005 57.2096 -0.0002 3.4804
# 5 -40.2222 -19.9876 -31.7794 -0.0002 47.8637 -0.0002
# 6 -0.0003 0.0000 -0.0004 3.4804 -0.0002 37.7124
#
#
#
# Elastic Compliance Matrix: (Units=1/GPa)
#
#
# Indices 1 2 3 4 5 6 
#
# 1 0.015248 -0.004127 -0.000085 0.000000 0.011034 0.000000
# 2 -0.004127 0.009537 -0.003650 0.000000 -0.001908 0.000000
# 3 -0.000085 -0.003650 0.012624 0.000000 0.006786 0.000000
# 4 0.000000 0.000000 0.000000 0.017578 0.000000 -0.001622
# 5 0.011034 -0.001908 0.006786 0.000000 0.033874 0.000000
# 6 0.000000 0.000000 0.000000 -0.001622 0.000000 0.026666
#
#
# Mechanical properties :
#
#
# Convention : Reuss Voigt Hill
#
# Bulk Modulus (GPa) = 46.11205 72.76204 59.43705
# Shear Modulus (GPa) = 36.10684 43.29543 39.70114
#
# Velocity S-wave (km/s) = 3.93811 4.31235 4.12947
# Velocity P-wave (km/s) = 6.36274 7.48653 6.94739
#
# Compressibility (1/GPa) = 0.02168630
#
# Stress axis : x y z
#
# Youngs Moduli (GPa) = 65.58401 104.85066 79.21681
#
# Poissons Ratio (x) = 0.43271 0.00670
# Poissons Ratio (y) = 0.27066 0.28911
# Poissons Ratio (z) = 0.00555 0.38266
#
# Static dielectric constant tensor:
#      x y z
#    x 2.052770 0.000000 -0.042680 
#    y 0.000000 1.955680 0.000000 
#    z -0.042680 0.000000 1.968770 
# 
# From -- ./inp_files/284472.got.cif
#   From: 2010.05.17/outbox.cif.g08.bks.cpg/sg15_143_cif.got.tgz:284472.got - 2010.06.03 18:47:42.
