data_PCOD9298848
_publ_section_title
;
Structure prediction by ZEFSAII (Michael W. Deem and Ramdas Pophale) SiO2 
 PCOD9298848
Probable space group: C 2/C
;
_chemical_formula_sum "Si O2"
_cell_formula_units_Z 52
_cell_length_a 12.471226
_cell_length_b 28.409850
_cell_length_c 7.940469
_cell_angle_alpha 90.000000
_cell_angle_beta 59.689185
_cell_angle_gamma 90.000000
_cell_volume 2428.768589
_symmetry_space_group_name_H-M "C 2/C"
_symmetry_group_IT_number 15
_symmetry_cell_setting 'monoclinic'
loop_
_space_group_symop_operation_xyz
x,y,z
-x,y,1/2-z
-x,-y,-z
x,-y,1/2+z
1/2+x,1/2+y,z
1/2-x,1/2+y,1/2-z
1/2-x,1/2-y,-z
1/2+x,1/2-y,1/2+z
loop_
_atom_site_type_symbol
_atom_site_label
_atom_site_fract_x
_atom_site_fract_y
_atom_site_fract_z
Si Si1 0.922242 0.167522 0.639760
Si Si2 0.738869 0.072429 0.405284
Si Si3 0.115446 0.262860 0.023561
Si Si4 0.575086 0.142953 0.365630
Si Si5 0.898891 0.476290 0.960847
Si Si6 0.500000 0.394526 0.750000
Si Si7 0.820389 0.614731 0.699695
O O1 0.920968 0.220505 0.572669
O O2 0.781448 0.150427 0.788873
O O3 0.000000 0.161791 0.750000
O O4 0.968229 0.137019 0.440542
O O5 0.673318 0.099645 0.301563
O O6 0.708541 0.106341 0.584242
O O7 0.886007 0.073422 0.279835
O O8 0.687732 0.021471 0.501939
O O9 0.000000 0.267717 0.250000
O O10 0.250000 0.250000 0.000000
O O11 0.131885 0.309514 0.896720
O O12 0.500000 0.149893 0.250000
O O13 0.461098 0.130299 0.576802
O O14 0.000000 0.456598 0.750000
O O15 0.818975 0.434932 0.103519
O O16 0.000000 0.500000 0.000000
#
# Coordination Sequence:
#
# PCOD9298848 Si02
#       7
#     8   8   8   8   8   4   8
#     4  11  25  45  70  98 138 185 234 283 343 417
#     4  11  23  44  66  95 142 182 231 279 350 410
#     4  12  25  46  71 101 141 187 229 284 352 421
#     4  12  25  39  69 106 137 174 231 293 340 409
#     4  12  22  39  68 100 132 175 222 285 344 399
#     4  10  24  46  66  96 136 196 228 280 348 410
#     4  11  24  44  66 101 137 179 229 288 344 408
#
# _framework density 21.410026999999999
#
# number of rings (size 3 to 8) (size 9 to 14) (size 15 to 20)
#    0.000    0.615    3.846    5.077    2.154    0.000 
#    1.385    4.615    0.000    0.000    0.000    0.000 
#    0.000    0.000    0.000    0.000    0.000    0.000 
#
# Total GULP energy -145037.915421 kJ/mol
# GULP energy per Si atom -5578.381362 kJ/mol
# Density = 2.136130 g / cm^3
# Si number density = 21.410027 Si / 1000 Ang^3
#
#
#
# Elastic Constant Matrix: (Units=GPa)
#
#
# Indices 1 2 3 4 5 6 
#
# 1 144.3111 43.8392 34.8398 0.0000 -0.6207 0.0000
# 2 43.8392 102.0486 5.8203 0.0000 0.5728 0.0000
# 3 34.8398 5.8203 50.6386 0.0000 3.1465 0.0000
# 4 0.0000 0.0000 0.0000 29.7910 0.0000 2.6552
# 5 -0.6207 0.5728 3.1465 0.0000 41.5304 0.0000
# 6 0.0000 0.0000 0.0000 2.6552 0.0000 33.2221
#
#
#
# Elastic Compliance Matrix: (Units=1/GPa)
#
#
# Indices 1 2 3 4 5 6 
#
# 1 0.009570 -0.003762 -0.006193 0.000000 0.000664 0.000000
# 2 -0.003762 0.011343 0.001304 0.000000 -0.000311 0.000000
# 3 -0.006193 0.001304 0.023979 0.000000 -0.001927 0.000000
# 4 0.000000 0.000000 0.000000 0.033808 0.000000 -0.002702
# 5 0.000664 -0.000311 -0.001927 0.000000 0.024239 0.000000
# 6 0.000000 0.000000 0.000000 -0.002702 0.000000 0.030316
#
#
# Mechanical properties :
#
#
# Convention : Reuss Voigt Hill
#
# Bulk Modulus (GPa) = 36.24628 51.77742 44.01185
# Shear Modulus (GPa) = 31.29809 35.07532 33.18671
#
# Velocity S-wave (km/s) = 3.82755 4.05194 3.94134
# Velocity P-wave (km/s) = 6.04151 6.79170 6.42756
#
# Compressibility (1/GPa) = 0.02758904
#
# Stress axis : x y z
#
# Youngs Moduli (GPa) = 104.48980 88.16261 41.70358
#
# Poissons Ratio (x) = 0.33165 0.25829
# Poissons Ratio (y) = 0.39307 -0.05437
# Poissons Ratio (z) = 0.64714 -0.11495
#
# Static dielectric constant tensor:
#      x y z
#    x 1.815120 0.000000 0.027370 
#    y 0.000000 1.846180 0.000000 
#    z 0.027370 0.000000 1.743830 
# 
# From -- ./inp_files/34079.got.cif
#   From: 2010.05.17/outbox.cif.g08.bks.cpg/sg15_18_cif.got.tgz:34079.got - 2010.06.03 18:47:42.
