data_PCOD9298412
_publ_section_title
;
Structure prediction by ZEFSAII (Michael W. Deem and Ramdas Pophale) SiO2 
 PCOD9298412
Probable space group: C 2/C
;
_chemical_formula_sum "Si O2"
_cell_formula_units_Z 56
_cell_length_a 11.660228
_cell_length_b 11.791992
_cell_length_c 20.072903
_cell_angle_alpha 90.000000
_cell_angle_beta 102.312696
_cell_angle_gamma 90.000000
_cell_volume 2696.486391
_symmetry_space_group_name_H-M "C 2/C"
_symmetry_group_IT_number 15
_symmetry_cell_setting 'monoclinic'
loop_
_space_group_symop_operation_xyz
x,y,z
-x,y,1/2-z
-x,-y,-z
x,-y,1/2+z
1/2+x,1/2+y,z
1/2-x,1/2+y,1/2-z
1/2-x,1/2-y,-z
1/2+x,1/2-y,1/2+z
loop_
_atom_site_type_symbol
_atom_site_label
_atom_site_fract_x
_atom_site_fract_y
_atom_site_fract_z
Si Si1 0.036649 0.998883 0.427589
Si Si2 0.017644 0.558883 0.073217
Si Si3 0.417731 0.982253 0.189668
Si Si4 0.806226 0.126962 0.341335
Si Si5 0.869637 0.238916 0.219216
Si Si6 0.834038 0.239292 0.574181
Si Si7 0.238811 0.173975 0.431959
O O1 0.084467 0.873960 0.411551
O O2 0.153113 0.072581 0.438909
O O3 0.000000 0.000000 0.500000
O O4 0.930281 0.066286 0.376146
O O5 0.141845 0.621132 0.081687
O O6 0.991741 0.470915 0.130391
O O7 0.925384 0.658172 0.077161
O O8 0.000000 0.500000 0.000000
O O9 0.500000 0.054719 0.250000
O O10 0.383324 0.873180 0.229733
O O11 0.293276 0.034971 0.157262
O O12 0.797395 0.169402 0.264252
O O13 0.759600 0.234778 0.378437
O O14 0.823768 0.232820 0.138540
O O15 0.000000 0.192875 0.250000
O O16 0.750000 0.250000 0.500000
O O17 0.250000 0.250000 0.500000
#
# Coordination Sequence:
#
# PCOD9298412 Si02
#       7
#     8   8   8   8   8   8   8
#     4  12  25  43  72 106 145 189 242 303 372 442
#     4  11  24  42  68 104 138 178 238 292 362 432
#     4  10  24  44  69  93 135 185 232 291 361 430
#     4  11  25  46  70 103 147 185 244 304 371 449
#     4  11  24  45  67  99 138 189 234 295 366 437
#     4  11  24  42  70 103 144 191 235 299 372 437
#     4  12  26  43  73 105 143 182 248 301 363 441
#
# _framework density 20.767766999999999
#
# number of rings (size 3 to 8) (size 9 to 14) (size 15 to 20)
#    0.000    0.857    2.857    3.429    6.000    5.714 
#    0.000    0.000    0.000    0.000    0.000    0.000 
#    0.000    0.000    0.000    0.000    0.000    0.000 
#
# Total GULP energy -155919.666873 kJ/mol
# GULP energy per Si atom -5568.559531 kJ/mol
# Density = 2.072050 g / cm^3
# Si number density = 20.767767 Si / 1000 Ang^3
#
#
#
# Elastic Constant Matrix: (Units=GPa)
#
#
# Indices 1 2 3 4 5 6 
#
# 1 116.7411 35.1380 26.9399 0.0000 5.1431 0.0000
# 2 35.1380 93.9843 24.7058 0.0000 -3.6952 0.0000
# 3 26.9399 24.7058 125.0591 0.0000 -6.9339 0.0000
# 4 0.0000 0.0000 0.0000 21.6625 0.0000 -12.9459
# 5 5.1431 -3.6952 -6.9339 0.0000 33.8336 0.0000
# 6 0.0000 0.0000 0.0000 -12.9459 0.0000 20.5346
#
#
#
# Elastic Compliance Matrix: (Units=1/GPa)
#
#
# Indices 1 2 3 4 5 6 
#
# 1 0.010069 -0.003428 -0.001616 0.000000 -0.002236 0.000000
# 2 -0.003428 0.012410 -0.001628 0.000000 0.001543 0.000000
# 3 -0.001616 -0.001628 0.008769 0.000000 0.001865 0.000000
# 4 0.000000 0.000000 0.000000 0.074070 0.000000 0.046697
# 5 -0.002236 0.001543 0.001865 0.000000 0.030447 0.000000
# 6 0.000000 0.000000 0.000000 0.046697 0.000000 0.078138
#
#
# Mechanical properties :
#
#
# Convention : Reuss Voigt Hill
#
# Bulk Modulus (GPa) = 55.84757 56.59465 56.22111
# Shear Modulus (GPa) = 21.43949 31.80619 26.62284
#
# Velocity S-wave (km/s) = 3.21650 3.91771 3.58429
# Velocity P-wave (km/s) = 6.38313 6.91194 6.65279
#
# Compressibility (1/GPa) = 0.01790588
#
# Stress axis : x y z
#
# Youngs Moduli (GPa) = 99.31398 80.57930 114.03442
#
# Poissons Ratio (x) = 0.27620 0.18427
# Poissons Ratio (y) = 0.34042 0.18562
# Poissons Ratio (z) = 0.16048 0.13116
#
# Static dielectric constant tensor:
#      x y z
#    x 1.245980 0.000000 -0.138730 
#    y 0.000000 2.012930 0.000000 
#    z -0.138730 0.000000 1.801240 
# 
# From -- ./inp_files/237636.got.cif
#   From: 2010.05.17/outbox.cif.g08.bks.cpg/sg15_119_cif.got.tgz:237636.got - 2010.06.03 18:47:42.
