data_PCOD9298069
_publ_section_title
;
Structure prediction by ZEFSAII (Michael W. Deem and Ramdas Pophale) SiO2 
 PCOD9298069
Probable space group: C 2/C
;
_chemical_formula_sum "Si O2"
_cell_formula_units_Z 56
_cell_length_a 29.513148
_cell_length_b 12.549535
_cell_length_c 8.641173
_cell_angle_alpha 90.000000
_cell_angle_beta 129.475149
_cell_angle_gamma 90.000000
_cell_volume 2470.456065
_symmetry_space_group_name_H-M "C 2/C"
_symmetry_group_IT_number 15
_symmetry_cell_setting 'monoclinic'
loop_
_space_group_symop_operation_xyz
x,y,z
-x,y,1/2-z
-x,-y,-z
x,-y,1/2+z
1/2+x,1/2+y,z
1/2-x,1/2+y,1/2-z
1/2-x,1/2-y,-z
1/2+x,1/2-y,1/2+z
loop_
_atom_site_type_symbol
_atom_site_label
_atom_site_fract_x
_atom_site_fract_y
_atom_site_fract_z
Si Si1 0.166065 0.651532 0.511756
Si Si2 0.960893 0.739767 0.299650
Si Si3 0.453763 0.152695 0.762435
Si Si4 0.620585 0.353992 0.998050
Si Si5 0.565899 0.537326 0.680645
Si Si6 0.232861 0.733149 0.143267
Si Si7 0.659739 0.945401 0.344104
O O1 0.101021 0.684103 0.325405
O O2 0.209290 0.751594 0.627833
O O3 0.181847 0.564888 0.417138
O O4 0.165427 0.595733 0.680624
O O5 0.944340 0.862402 0.228563
O O6 0.000000 0.692439 0.250000
O O7 0.003529 0.722740 0.536312
O O8 0.500000 0.095001 0.750000
O O9 0.414669 0.242919 0.593596
O O10 0.407944 0.076178 0.750573
O O11 0.599959 0.437503 0.823423
O O12 0.601351 0.410970 0.114692
O O13 0.687522 0.321298 0.110213
O O14 0.500000 0.500000 0.500000
O O15 0.250000 0.750000 0.000000
O O16 0.198191 0.623358 0.049567
#
# Coordination Sequence:
#
# PCOD9298069 Si02
#       7
#     8   8   8   8   8   8   8
#     4  11  25  43  65  98 122 171 220 273 332 393
#     4  12  24  40  64  96 136 173 220 273 336 407
#     4  11  21  41  63  90 132 171 214 267 335 395
#     4  11  23  39  64  97 131 179 221 271 341 396
#     4  12  23  38  64 103 137 172 220 276 333 413
#     4   9  23  46  68  89 130 173 222 275 330 394
#     4  10  24  43  67  91 130 165 217 272 327 398
#
# _framework density 22.667878999999999
#
# number of rings (size 3 to 8) (size 9 to 14) (size 15 to 20)
#    0.000    1.143    4.286    1.286    2.000    4.571 
#    0.000    1.429    0.000    0.000    0.000    0.000 
#    0.000    0.000    0.000    0.000    0.000    0.000 
#
# Total GULP energy -156342.825803 kJ/mol
# GULP energy per Si atom -5583.672350 kJ/mol
# Density = 2.261629 g / cm^3
# Si number density = 22.667879 Si / 1000 Ang^3
#
#
#
# Elastic Constant Matrix: (Units=GPa)
#
#
# Indices 1 2 3 4 5 6 
#
# 1 94.2419 -12.9182 15.1977 0.0000 4.2916 0.0000
# 2 -12.9182 47.2109 3.2550 0.0000 6.6838 0.0000
# 3 15.1977 3.2550 42.6285 0.0000 16.6650 0.0000
# 4 0.0000 0.0000 0.0000 25.9694 0.0000 0.1734
# 5 4.2916 6.6838 16.6650 0.0000 33.7576 0.0000
# 6 0.0000 0.0000 0.0000 0.1734 0.0000 20.7495
#
#
#
# Elastic Compliance Matrix: (Units=1/GPa)
#
#
# Indices 1 2 3 4 5 6 
#
# 1 0.011820 0.003542 -0.004489 0.000000 0.000012 0.000000
# 2 0.003542 0.022854 -0.001317 0.000000 -0.004325 0.000000
# 3 -0.004489 -0.001317 0.030774 0.000000 -0.014360 0.000000
# 4 0.000000 0.000000 0.000000 0.038509 0.000000 -0.000322
# 5 0.000012 -0.004325 -0.014360 0.000000 0.037567 0.000000
# 6 0.000000 0.000000 0.000000 -0.000322 0.000000 0.048197
#
#
# Mechanical properties :
#
#
# Convention : Reuss Voigt Hill
#
# Bulk Modulus (GPa) = 16.41529 21.68338 19.04933
# Shear Modulus (GPa) = 23.30409 27.99841 25.65125
#
# Velocity S-wave (km/s) = 3.20983 3.51829 3.36759
# Velocity P-wave (km/s) = 4.58200 5.10793 4.85210
#
# Compressibility (1/GPa) = 0.06091883
#
# Stress axis : x y z
#
# Youngs Moduli (GPa) = 84.60307 43.75625 32.49549
#
# Poissons Ratio (x) = -0.15499 0.14588
# Poissons Ratio (y) = -0.29967 0.04280
# Poissons Ratio (z) = 0.37980 0.05763
#
# Static dielectric constant tensor:
#      x y z
#    x 1.891020 0.000000 -0.043910 
#    y 0.000000 1.862590 0.000000 
#    z -0.043910 0.000000 1.840890 
# 
# From -- ./inp_files/69977.got.cif
#   From: 2010.05.17/outbox.cif.g08.bks.cpg/sg15_35_cif.got.tgz:69977.got - 2010.06.03 18:47:42.
