data_PCOD9298447
_publ_section_title
;
Structure prediction by ZEFSAII (Michael W. Deem and Ramdas Pophale) SiO2 
 PCOD9298447
Probable space group: C 2/C
;
_chemical_formula_sum "Si O2"
_cell_formula_units_Z 32
_cell_length_a 17.944356
_cell_length_b 5.125785
_cell_length_c 14.072368
_cell_angle_alpha 90.000000
_cell_angle_beta 79.787390
_cell_angle_gamma 90.000000
_cell_volume 1273.854014
_symmetry_space_group_name_H-M "C 2/C"
_symmetry_group_IT_number 15
_symmetry_cell_setting 'monoclinic'
loop_
_space_group_symop_operation_xyz
x,y,z
-x,y,1/2-z
-x,-y,-z
x,-y,1/2+z
1/2+x,1/2+y,z
1/2-x,1/2+y,1/2-z
1/2-x,1/2-y,-z
1/2+x,1/2-y,1/2+z
loop_
_atom_site_type_symbol
_atom_site_label
_atom_site_fract_x
_atom_site_fract_y
_atom_site_fract_z
Si Si1 0.973497 0.755565 0.564750
Si Si2 0.673438 0.121088 0.982355
Si Si3 0.930867 0.479677 0.811555
Si Si4 0.706111 0.877217 0.793540
O O1 0.882635 0.773349 0.577162
O O2 0.000000 0.500000 0.500000
O O3 0.018917 0.714852 0.652424
O O4 0.000000 0.000000 0.500000
O O5 0.695093 0.875372 0.910330
O O6 0.750000 0.250000 0.000000
O O7 0.622746 0.091253 0.087621
O O8 0.869893 0.474181 0.741487
O O9 0.000000 0.312634 0.750000
O O10 0.767632 0.100682 0.754124
#
# Coordination Sequence:
#
# PCOD9298447 Si02
#       4
#     8   8   8   8
#     4  10  24  44  70 104 143 189 237 296 362 427
#     4  11  24  48  75 111 150 194 247 311 368 441
#     4  11  24  48  75 109 152 198 246 307 371 446
#     4  12  28  48  75 112 148 197 251 306 374 442
#
# _framework density 25.120616999999999
#
# number of rings (size 3 to 8) (size 9 to 14) (size 15 to 20)
#    0.000    1.000    5.000    0.000    3.500    5.000 
#    0.000    6.250    0.000    0.000    0.000    0.000 
#    0.000    0.000    0.000    0.000    0.000    0.000 
#
# Total GULP energy -89177.737499 kJ/mol
# GULP energy per Si atom -5573.608594 kJ/mol
# Density = 2.506344 g / cm^3
# Si number density = 25.120617 Si / 1000 Ang^3
#
#
#
# Elastic Constant Matrix: (Units=GPa)
#
#
# Indices 1 2 3 4 5 6 
#
# 1 226.5828 19.8969 57.8955 0.0000 8.1370 0.0000
# 2 19.8969 102.2082 22.8838 0.0000 -6.5550 0.0000
# 3 57.8955 22.8838 205.9857 0.0000 -9.9108 0.0000
# 4 0.0000 0.0000 0.0000 16.4649 0.0000 -15.1077
# 5 8.1370 -6.5550 -9.9108 0.0000 55.4399 0.0000
# 6 0.0000 0.0000 0.0000 -15.1077 0.0000 7.0129
#
#
#
# Elastic Compliance Matrix: (Units=1/GPa)
#
#
# Indices 1 2 3 4 5 6 
#
# 1 0.004854 -0.000712 -0.001335 0.000000 -0.001035 0.000000
# 2 -0.000712 0.010193 -0.000877 0.000000 0.001153 0.000000
# 3 -0.001335 -0.000877 0.005378 0.000000 0.001054 0.000000
# 4 0.000000 0.000000 0.000000 -0.062185 0.000000 -0.133963
# 5 -0.001035 0.001153 0.001054 0.000000 0.018514 0.000000
# 6 0.000000 0.000000 0.000000 -0.133963 0.000000 -0.145997
#
#
# Mechanical properties :
#
#
# Convention : Reuss Voigt Hill
#
# Bulk Modulus (GPa) = 68.60183 81.79210 75.19696
# Shear Modulus (GPa) = -31.53867 44.72359 6.59246
#
# Velocity S-wave (km/s) = -3.54713 4.22400 1.62173
# Velocity P-wave (km/s) = 3.25454 7.51133 5.78844
#
# Compressibility (1/GPa) = 0.01457687
#
# Stress axis : x y z
#
# Youngs Moduli (GPa) = 206.00440 98.10776 185.94186
#
# Poissons Ratio (x) = 0.06990 0.24824
# Poissons Ratio (y) = 0.14677 0.16300
# Poissons Ratio (z) = 0.27502 0.08600
#
# Static dielectric constant tensor:
#      x y z
#    x 2.042950 0.000000 -0.072210 
#    y 0.000000 2.043610 0.000000 
#    z -0.072210 0.000000 2.229000 
# 
# From -- ./inp_files/158196.got.cif
#   From: 2010.05.17/outbox.cif.g08.bks.cpg/sg15_80_cif.got.tgz:158196.got - 2010.06.03 18:47:42.
