data_PCOD9298179
_publ_section_title
;
Structure prediction by ZEFSAII (Michael W. Deem and Ramdas Pophale) SiO2 
 PCOD9298179
Probable space group: C 2/C
;
_chemical_formula_sum "Si O2"
_cell_formula_units_Z 44
_cell_length_a 23.311996
_cell_length_b 5.361463
_cell_length_c 17.684409
_cell_angle_alpha 90.000000
_cell_angle_beta 130.672442
_cell_angle_gamma 90.000000
_cell_volume 1676.405485
_symmetry_space_group_name_H-M "C 2/C"
_symmetry_group_IT_number 15
_symmetry_cell_setting 'monoclinic'
loop_
_space_group_symop_operation_xyz
x,y,z
-x,y,1/2-z
-x,-y,-z
x,-y,1/2+z
1/2+x,1/2+y,z
1/2-x,1/2+y,1/2-z
1/2-x,1/2-y,-z
1/2+x,1/2-y,1/2+z
loop_
_atom_site_type_symbol
_atom_site_label
_atom_site_fract_x
_atom_site_fract_y
_atom_site_fract_z
Si Si1 0.875203 0.841314 0.840487
Si Si2 0.338871 0.831167 0.993399
Si Si3 0.733016 0.329501 0.318257
Si Si4 0.071875 0.844844 0.463877
Si Si5 0.141548 0.448658 0.324742
Si Si6 0.500000 0.286279 0.250000
O O1 0.799472 0.731898 0.816619
O O2 0.887346 0.699586 0.772939
O O3 0.845639 0.114871 0.791978
O O4 0.942436 0.817288 0.958387
O O5 0.370320 0.577656 0.985978
O O6 0.392676 0.073649 0.025070
O O7 0.337531 0.796884 0.082268
O O8 0.262089 0.927914 0.888454
O O9 0.712344 0.118006 0.360328
O O10 0.018863 0.914806 0.347105
O O11 0.073059 0.625850 0.291416
#
# Coordination Sequence:
#
# PCOD9298179 Si02
#       6
#     8   8   8   8   8   4
#     4  11  23  40  72 104 146 178 239 295 373 410
#     4  10  24  43  72 105 142 184 237 290 363 420
#     4  11  22  42  68 109 146 181 230 300 365 428
#     4  10  24  46  72 100 142 193 236 295 345 427
#     4  11  25  44  71 105 143 195 232 298 347 431
#     4  10  26  52  68  98 146 194 254 278 350 424
#
# _framework density 26.246634
#
# number of rings (size 3 to 8) (size 9 to 14) (size 15 to 20)
#    0.000    1.455    1.818    1.636   10.182    4.364 
#    0.000    0.909    0.000    0.000    0.000    0.000 
#    0.000    0.000    0.000    0.000    0.000    0.000 
#
# Total GULP energy -123018.015894 kJ/mol
# GULP energy per Si atom -5591.727995 kJ/mol
# Density = 2.618690 g / cm^3
# Si number density = 26.246634 Si / 1000 Ang^3
#
#
#
# Elastic Constant Matrix: (Units=GPa)
#
#
# Indices 1 2 3 4 5 6 
#
# 1 54.6347 11.2960 5.4953 0.0001 -2.9994 0.0000
# 2 11.2960 79.0208 -0.8390 0.0006 0.3551 -0.0005
# 3 5.4953 -0.8390 202.0541 0.0001 -38.7442 0.0000
# 4 0.0001 0.0006 0.0001 41.8670 0.0000 3.6941
# 5 -2.9994 0.3551 -38.7442 0.0000 46.2040 0.0001
# 6 0.0000 -0.0005 0.0000 3.6941 0.0001 40.0802
#
#
#
# Elastic Compliance Matrix: (Units=1/GPa)
#
#
# Indices 1 2 3 4 5 6 
#
# 1 0.018953 -0.002717 -0.000342 0.000000 0.000965 0.000000
# 2 -0.002717 0.013045 0.000089 0.000000 -0.000202 0.000000
# 3 -0.000342 0.000089 0.005904 0.000000 0.004928 0.000000
# 4 0.000000 0.000000 0.000000 0.024081 0.000000 -0.002219
# 5 0.000965 -0.000202 0.004928 0.000000 0.025839 0.000000
# 6 0.000000 0.000000 0.000000 -0.002219 0.000000 0.025155
#
#
# Mechanical properties :
#
#
# Convention : Reuss Voigt Hill
#
# Bulk Modulus (GPa) = 31.28693 40.84602 36.06648
# Shear Modulus (GPa) = 38.58930 46.94741 42.76835
#
# Velocity S-wave (km/s) = 3.83855 4.23389 4.04106
# Velocity P-wave (km/s) = 5.62070 6.28469 5.96194
#
# Compressibility (1/GPa) = 0.03196223
#
# Stress axis : x y z
#
# Youngs Moduli (GPa) = 52.76341 76.65666 169.38466
#
# Poissons Ratio (x) = 0.20829 0.05789
# Poissons Ratio (y) = 0.14337 -0.01514
# Poissons Ratio (z) = 0.01803 -0.00685
#
# Static dielectric constant tensor:
#      x y z
#    x 2.065100 0.000000 0.047300 
#    y 0.000000 2.056130 0.000000 
#    z 0.047300 0.000000 2.154520 
# 
# From -- ./inp_files/221126.got.cif
#   From: 2010.05.17/outbox.cif.g08.bks.cpg/sg15_111_cif.got.tgz:221126.got - 2010.06.03 18:47:42.
