data_PCOD9298233
_publ_section_title
;
Structure prediction by ZEFSAII (Michael W. Deem and Ramdas Pophale) SiO2 
 PCOD9298233
Probable space group: C 2/C
;
_chemical_formula_sum "Si O2"
_cell_formula_units_Z 52
_cell_length_a 8.693305
_cell_length_b 19.577236
_cell_length_c 20.993917
_cell_angle_alpha 90.000000
_cell_angle_beta 139.617622
_cell_angle_gamma 90.000000
_cell_volume 2314.878120
_symmetry_space_group_name_H-M "C 2/C"
_symmetry_group_IT_number 15
_symmetry_cell_setting 'monoclinic'
loop_
_space_group_symop_operation_xyz
x,y,z
-x,y,1/2-z
-x,-y,-z
x,-y,1/2+z
1/2+x,1/2+y,z
1/2-x,1/2+y,1/2-z
1/2-x,1/2-y,-z
1/2+x,1/2-y,1/2+z
loop_
_atom_site_type_symbol
_atom_site_label
_atom_site_fract_x
_atom_site_fract_y
_atom_site_fract_z
Si Si1 0.500000 0.534228 0.250000
Si Si2 0.981005 0.618988 0.517255
Si Si3 0.000000 0.742215 0.750000
Si Si4 0.128313 0.346355 0.647191
Si Si5 0.500000 0.009300 0.750000
Si Si6 0.658043 0.482481 0.425516
Si Si7 0.347902 0.129591 0.608050
Si Si8 0.682026 0.414653 0.568864
O O1 0.730775 0.582209 0.316727
O O2 0.483149 0.493846 0.310859
O O3 0.208605 0.583602 0.559534
O O4 0.909917 0.671262 0.439608
O O5 0.809795 0.552379 0.472192
O O6 0.997283 0.647667 0.592533
O O7 0.183089 0.791003 0.769563
O O8 0.142340 0.691156 0.839835
O O9 0.892095 0.362792 0.612372
O O10 0.287224 0.956547 0.662690
O O11 0.465691 0.063209 0.680359
O O12 0.630667 0.462525 0.490594
O O13 0.073448 0.118875 0.501036
#
# Coordination Sequence:
#
# PCOD9298233 Si02
#       8
#     4   8   4   8   4   8   8   8
#     4   9  18  29  60  88 115 160 205 266 296 373
#     4   9  18  36  56  87 119 165 203 252 313 371
#     4  10  24  44  62  90 124 175 225 266 312 382
#     4   9  21  41  63  84 119 170 228 261 301 365
#     4  11  24  37  58  96 145 163 194 250 346 405
#     4   9  18  33  57  89 127 156 206 246 312 390
#     4  11  24  39  63  93 136 170 201 267 333 377
#     4  11  23  38  62  95 128 169 205 267 323 393
#
# _framework density 22.463384999999999
#
# number of rings (size 3 to 8) (size 9 to 14) (size 15 to 20)
#    0.000    2.154    1.538    1.385    2.154    4.923 
#    0.000    0.000    0.000    3.692    0.000    0.000 
#    0.000    0.000    0.000    0.000    0.000    0.000 
#
# Total GULP energy -144739.123623 kJ/mol
# GULP energy per Si atom -5566.889370 kJ/mol
# Density = 2.241226 g / cm^3
# Si number density = 22.463385 Si / 1000 Ang^3
#
#
#
# Elastic Constant Matrix: (Units=GPa)
#
#
# Indices 1 2 3 4 5 6 
#
# 1 89.3562 12.4458 40.6464 -0.0004 -6.1957 -0.0005
# 2 12.4458 60.6383 29.5970 -0.0004 13.8419 -0.0004
# 3 40.6464 29.5970 112.6782 -0.0002 2.6295 -0.0002
# 4 -0.0004 -0.0004 -0.0002 25.9925 -0.0002 1.5081
# 5 -6.1957 13.8419 2.6295 -0.0002 22.4359 -0.0003
# 6 -0.0005 -0.0004 -0.0002 1.5081 -0.0003 3.0979
#
#
#
# Elastic Compliance Matrix: (Units=1/GPa)
#
#
# Indices 1 2 3 4 5 6 
#
# 1 0.013962 -0.001846 -0.004681 0.000000 0.005543 0.000002
# 2 -0.001846 0.022400 -0.004897 0.000000 -0.013756 0.000001
# 3 -0.004681 -0.004897 0.011842 0.000000 0.000341 0.000000
# 4 0.000000 0.000000 0.000000 0.039591 0.000000 -0.019274
# 5 0.005543 -0.013756 0.000341 0.000000 0.054549 0.000005
# 6 0.000002 0.000001 0.000000 -0.019274 0.000005 0.332188
#
#
# Mechanical properties :
#
#
# Convention : Reuss Voigt Hill
#
# Bulk Modulus (GPa) = 39.43854 47.56122 43.49988
# Shear Modulus (GPa) = 9.88471 22.30417 16.09444
#
# Velocity S-wave (km/s) = 2.09998 3.15447 2.67961
# Velocity P-wave (km/s) = 4.84508 5.87250 5.38336
#
# Compressibility (1/GPa) = 0.02535591
#
# Stress axis : x y z
#
# Youngs Moduli (GPa) = 71.62340 44.64217 84.44767
#
# Poissons Ratio (x) = 0.08242 0.39529
# Poissons Ratio (y) = 0.13224 0.41353
# Poissons Ratio (z) = 0.33526 0.21860
#
# Static dielectric constant tensor:
#      x y z
#    x 1.963950 0.000000 0.004600 
#    y 0.000000 1.809840 0.000000 
#    z 0.004600 0.000000 1.997340 
# 
# From -- ./inp_files/234511.got.cif
#   From: 2010.05.17/outbox.cif.g08.bks.cpg/sg15_118_cif.got.tgz:234511.got - 2010.06.03 18:47:42.
