data_PCOD9298280
_publ_section_title
;
Structure prediction by ZEFSAII (Michael W. Deem and Ramdas Pophale) SiO2 
 PCOD9298280
Probable space group: C 2/C
;
_chemical_formula_sum "Si O2"
_cell_formula_units_Z 28
_cell_length_a 7.677818
_cell_length_b 10.965939
_cell_length_c 21.781527
_cell_angle_alpha 90.000000
_cell_angle_beta 144.078334
_cell_angle_gamma 90.000000
_cell_volume 1075.900794
_symmetry_space_group_name_H-M "C 2/C"
_symmetry_group_IT_number 15
_symmetry_cell_setting 'monoclinic'
loop_
_space_group_symop_operation_xyz
x,y,z
-x,y,1/2-z
-x,-y,-z
x,-y,1/2+z
1/2+x,1/2+y,z
1/2-x,1/2+y,1/2-z
1/2-x,1/2-y,-z
1/2+x,1/2-y,1/2+z
loop_
_atom_site_type_symbol
_atom_site_label
_atom_site_fract_x
_atom_site_fract_y
_atom_site_fract_z
Si Si1 0.000000 0.280793 0.250000
Si Si2 0.016917 0.597233 0.101816
Si Si3 0.726592 0.479627 0.632783
Si Si4 0.876365 0.629622 0.505465
O O1 0.752609 0.185591 0.201758
O O2 0.826317 0.378382 0.158196
O O3 0.996226 0.647444 0.026315
O O4 0.746854 0.582655 0.072025
O O5 0.094395 0.454620 0.108880
O O6 0.423600 0.453779 0.581642
O O7 0.000000 0.425280 0.750000
O O8 0.750000 0.750000 0.500000
#
# Coordination Sequence:
#
# PCOD9298280 Si02
#       4
#     4   8   8   8
#     4  10  24  44  66 102 134 180 236 276 342 412
#     4  11  23  44  70  96 140 181 223 285 346 393
#     4  10  24  44  65  96 138 177 226 287 338 400
#     4  11  25  43  68 107 134 179 234 275 342 414
#
# _framework density 26.024705000000001
#
# number of rings (size 3 to 8) (size 9 to 14) (size 15 to 20)
#    0.857    0.571    0.000    4.286    0.000    6.857 
#    2.571    0.000    0.000    0.000    0.000    0.000 
#    0.000    0.000    0.000    0.000    0.000    0.000 
#
# Total GULP energy -77994.229343 kJ/mol
# GULP energy per Si atom -5571.016382 kJ/mol
# Density = 2.596547 g / cm^3
# Si number density = 26.024705 Si / 1000 Ang^3
#
#
#
# Elastic Constant Matrix: (Units=GPa)
#
#
# Indices 1 2 3 4 5 6 
#
# 1 183.2482 58.2591 38.3571 0.0000 5.5138 0.0000
# 2 58.2591 183.5693 52.4224 0.0000 0.4777 0.0000
# 3 38.3571 52.4224 82.5814 0.0002 13.0769 0.0001
# 4 0.0000 0.0000 0.0002 68.5277 0.0001 12.5239
# 5 5.5138 0.4777 13.0769 0.0001 33.9137 0.0000
# 6 0.0000 0.0000 0.0001 12.5239 0.0000 40.0870
#
#
#
# Elastic Compliance Matrix: (Units=1/GPa)
#
#
# Indices 1 2 3 4 5 6 
#
# 1 0.006340 -0.001443 -0.001990 0.000000 -0.000243 0.000000
# 2 -0.001443 0.007068 -0.004088 0.000000 0.001711 0.000000
# 3 -0.001990 -0.004088 0.016581 0.000000 -0.006012 0.000000
# 4 0.000000 0.000000 0.000000 0.015476 0.000000 -0.004835
# 5 -0.000243 0.001711 -0.006012 0.000000 0.031820 0.000000
# 6 0.000000 0.000000 0.000000 -0.004835 0.000000 0.026456
#
#
# Mechanical properties :
#
#
# Convention : Reuss Voigt Hill
#
# Bulk Modulus (GPa) = 66.90356 83.05288 74.97822
# Shear Modulus (GPa) = 40.39896 48.52971 44.46433
#
# Velocity S-wave (km/s) = 3.94424 4.32297 4.13794
# Velocity P-wave (km/s) = 6.81955 7.54319 7.19048
#
# Compressibility (1/GPa) = 0.01494689
#
# Stress axis : x y z
#
# Youngs Moduli (GPa) = 157.73495 141.47470 60.31175
#
# Poissons Ratio (x) = 0.20416 0.12003
# Poissons Ratio (y) = 0.22762 0.24654
# Poissons Ratio (z) = 0.31391 0.57831
#
# Static dielectric constant tensor:
#      x y z
#    x 1.989520 0.000000 -0.111370 
#    y 0.000000 2.130390 0.000000 
#    z -0.111370 0.000000 2.242320 
# 
# From -- ./inp_files/287849.got.cif
#   From: 2010.05.17/outbox.cif.g08.bks.cpg/sg15_144_cif.got.tgz:287849.got - 2010.06.03 18:47:42.
