data_PCOD9298036
_publ_section_title
;
Structure prediction by ZEFSAII (Michael W. Deem and Ramdas Pophale) SiO2 
 PCOD9298036
Probable space group: C 2/C
;
_chemical_formula_sum "Si O2"
_cell_formula_units_Z 52
_cell_length_a 16.633823
_cell_length_b 11.605672
_cell_length_c 13.304410
_cell_angle_alpha 90.000000
_cell_angle_beta 119.212367
_cell_angle_gamma 90.000000
_cell_volume 2241.718432
_symmetry_space_group_name_H-M "C 2/C"
_symmetry_group_IT_number 15
_symmetry_cell_setting 'monoclinic'
loop_
_space_group_symop_operation_xyz
x,y,z
-x,y,1/2-z
-x,-y,-z
x,-y,1/2+z
1/2+x,1/2+y,z
1/2-x,1/2+y,1/2-z
1/2-x,1/2-y,-z
1/2+x,1/2-y,1/2+z
loop_
_atom_site_type_symbol
_atom_site_label
_atom_site_fract_x
_atom_site_fract_y
_atom_site_fract_z
Si Si1 0.359692 0.012552 0.412859
Si Si2 0.568471 0.379929 0.946613
Si Si3 0.712117 0.336970 0.755428
Si Si4 0.230407 0.818649 0.386479
Si Si5 0.073505 0.053451 0.681177
Si Si6 0.502517 0.867036 0.367739
Si Si7 0.250000 0.250000 0.500000
O O1 0.283950 0.938634 0.423520
O O2 0.429996 0.933079 0.394085
O O3 0.309643 0.096603 0.305902
O O4 0.401531 0.093756 0.524496
O O5 0.527809 0.494214 0.868310
O O6 0.504968 0.270408 0.877396
O O7 0.672141 0.347257 0.983102
O O8 0.565124 0.392766 0.064640
O O9 0.713604 0.251667 0.663866
O O10 0.639021 0.440589 0.712198
O O11 0.715343 0.264253 0.859847
O O12 0.250000 0.750000 0.500000
O O13 0.127521 0.853266 0.284044
O O14 0.500000 0.900924 0.250000
#
# Coordination Sequence:
#
# PCOD9298036 Si02
#       7
#     8   8   8   8   8   8   4
#     4  10  24  43  66 102 134 184 242 291 368 437
#     4  11  24  44  72 106 145 184 249 312 373 442
#     4  11  24  44  71 102 141 187 243 302 368 445
#     4  11  24  44  70 104 149 195 234 298 380 454
#     4  10  24  45  70 108 146 191 243 309 380 455
#     4  11  24  42  70 100 138 183 240 307 361 439
#     4  12  24  42  74 102 140 186 242 308 362 438
#
# _framework density 23.196490000000001
#
# number of rings (size 3 to 8) (size 9 to 14) (size 15 to 20)
#    0.000    1.231    3.077    0.923    6.462    2.462 
#    0.000    1.538    0.000    0.000    0.000    0.000 
#    0.000    0.000    0.000    0.000    0.000    0.000 
#
# Total GULP energy -144756.676066 kJ/mol
# GULP energy per Si atom -5567.564464 kJ/mol
# Density = 2.314369 g / cm^3
# Si number density = 23.196490 Si / 1000 Ang^3
#
#
#
# Elastic Constant Matrix: (Units=GPa)
#
#
# Indices 1 2 3 4 5 6 
#
# 1 32.0828 18.8780 16.0954 0.0000 0.2026 0.0000
# 2 18.8780 72.4762 29.0939 0.0000 -4.9119 0.0000
# 3 16.0954 29.0939 119.0154 0.0000 -18.8941 0.0000
# 4 0.0000 0.0000 0.0000 44.8502 0.0000 1.0652
# 5 0.2026 -4.9119 -18.8941 0.0000 36.1597 0.0000
# 6 0.0000 0.0000 0.0000 1.0652 0.0000 13.9548
#
#
#
# Elastic Compliance Matrix: (Units=1/GPa)
#
#
# Indices 1 2 3 4 5 6 
#
# 1 0.038096 -0.008724 -0.003535 0.000000 -0.003246 0.000000
# 2 -0.008724 0.017297 -0.002909 0.000000 0.000878 0.000000
# 3 -0.003535 -0.002909 0.010394 0.000000 0.005056 0.000000
# 4 0.000000 0.000000 0.000000 0.022337 0.000000 -0.001705
# 5 -0.003246 0.000878 0.005056 0.000000 0.030434 0.000000
# 6 0.000000 0.000000 0.000000 -0.001705 0.000000 0.071790
#
#
# Mechanical properties :
#
#
# Convention : Reuss Voigt Hill
#
# Bulk Modulus (GPa) = 28.20709 39.07877 33.64293
# Shear Modulus (GPa) = 21.50516 29.62675 25.56595
#
# Velocity S-wave (km/s) = 3.04811 3.57768 3.32346
# Velocity P-wave (km/s) = 4.95726 5.82665 5.40945
#
# Compressibility (1/GPa) = 0.03545208
#
# Stress axis : x y z
#
# Youngs Moduli (GPa) = 26.24914 57.81230 96.20879
#
# Poissons Ratio (x) = 0.50436 0.34007
# Poissons Ratio (y) = 0.22900 0.27988
# Poissons Ratio (z) = 0.09278 0.16818
#
# Static dielectric constant tensor:
#      x y z
#    x 2.114240 0.000000 0.075200 
#    y 0.000000 1.925270 0.000000 
#    z 0.075200 0.000000 1.861140 
# 
# From -- ./inp_files/111749.got.cif
#   From: 2010.05.17/outbox.cif.g08.bks.cpg/sg15_56_cif.got.tgz:111749.got - 2010.06.03 18:47:42.
