data_PCOD9298700
_publ_section_title
;
Structure prediction by ZEFSAII (Michael W. Deem and Ramdas Pophale) SiO2 
 PCOD9298700
Probable space group: C 2/C
;
_chemical_formula_sum "Si O2"
_cell_formula_units_Z 44
_cell_length_a 9.398707
_cell_length_b 11.283048
_cell_length_c 15.897910
_cell_angle_alpha 90.000000
_cell_angle_beta 109.001074
_cell_angle_gamma 90.000000
_cell_volume 1594.049645
_symmetry_space_group_name_H-M "C 2/C"
_symmetry_group_IT_number 15
_symmetry_cell_setting 'monoclinic'
loop_
_space_group_symop_operation_xyz
x,y,z
-x,y,1/2-z
-x,-y,-z
x,-y,1/2+z
1/2+x,1/2+y,z
1/2-x,1/2+y,1/2-z
1/2-x,1/2-y,-z
1/2+x,1/2-y,1/2+z
loop_
_atom_site_type_symbol
_atom_site_label
_atom_site_fract_x
_atom_site_fract_y
_atom_site_fract_z
Si Si1 0.283470 0.865325 0.379506
Si Si2 0.531506 0.702502 0.993302
Si Si3 0.000000 0.721820 0.250000
Si Si4 0.899721 0.683403 0.616967
Si Si5 0.754942 0.394016 0.815269
Si Si6 0.652044 0.513998 0.627177
O O1 0.348692 0.808910 0.477758
O O2 0.141632 0.794934 0.315016
O O3 0.422520 0.846161 0.341359
O O4 0.264354 0.004337 0.387153
O O5 0.399766 0.765259 0.021552
O O6 0.596580 0.598386 0.064566
O O7 0.461779 0.625134 0.905088
O O8 0.084730 0.646020 0.193259
O O9 0.804274 0.567118 0.618016
O O10 0.838683 0.785398 0.666422
O O11 0.672847 0.465253 0.724337
#
# Coordination Sequence:
#
# PCOD9298700 Si02
#       6
#     8   8   4   8   8   8
#     4  10  25  42  68 100 137 175 232 278 340 412
#     4   9  23  44  71 101 136 189 223 279 353 405
#     4  12  24  40  60 104 136 174 220 290 342 390
#     4  10  24  45  70 102 132 185 229 282 339 411
#     4  12  24  41  72 102 133 175 232 285 336 403
#     4  11  21  41  73 102 139 179 230 284 342 414
#
# _framework density 27.602656
#
# number of rings (size 3 to 8) (size 9 to 14) (size 15 to 20)
#    1.091    0.364    1.818    2.727    0.000   10.182 
#    0.000    0.909    4.000    6.545    0.000    0.000 
#    0.000    0.000    0.000    0.000    0.000    0.000 
#
# Total GULP energy -123193.498019 kJ/mol
# GULP energy per Si atom -5599.704455 kJ/mol
# Density = 2.753983 g / cm^3
# Si number density = 27.602656 Si / 1000 Ang^3
#
#
#
# Elastic Constant Matrix: (Units=GPa)
#
#
# Indices 1 2 3 4 5 6 
#
# 1 104.5716 0.0476 35.8531 0.0000 10.7358 0.0000
# 2 0.0476 69.4180 27.1603 0.0000 23.6007 0.0000
# 3 35.8531 27.1603 54.3765 0.0000 21.1549 0.0000
# 4 0.0000 0.0000 0.0000 9.8464 0.0000 -32.6195
# 5 10.7358 23.6007 21.1549 0.0000 46.6570 0.0000
# 6 0.0000 0.0000 0.0000 -32.6195 0.0000 30.2273
#
#
#
# Elastic Compliance Matrix: (Units=1/GPa)
#
#
# Indices 1 2 3 4 5 6 
#
# 1 0.013299 0.004337 -0.010795 0.000000 -0.000359 0.000000
# 2 0.004337 0.020858 -0.010666 0.000000 -0.006712 0.000000
# 3 -0.010795 -0.010666 0.033718 0.000000 -0.007409 0.000000
# 4 0.000000 0.000000 0.000000 -0.039441 0.000000 -0.042562
# 5 -0.000359 -0.006712 -0.007409 0.000000 0.028270 0.000000
# 6 0.000000 0.000000 0.000000 -0.042562 0.000000 -0.012848
#
#
# Mechanical properties :
#
#
# Convention : Reuss Voigt Hill
#
# Bulk Modulus (GPa) = 29.73932 39.38758 34.56345
# Shear Modulus (GPa) = 55.98229 28.36648 42.17439
#
# Velocity S-wave (km/s) = 4.50838 3.20921 3.91309
# Velocity P-wave (km/s) = 6.15615 5.29457 5.74154
#
# Compressibility (1/GPa) = 0.03362552
#
# Stress axis : x y z
#
# Youngs Moduli (GPa) = 75.19455 47.94385 29.65785
#
# Poissons Ratio (x) = -0.20791 0.32015
# Poissons Ratio (y) = -0.32609 0.31633
# Poissons Ratio (z) = 0.81172 0.51137
#
# Static dielectric constant tensor:
#      x y z
#    x 2.206040 0.000000 0.034090 
#    y 0.000000 2.057330 0.000000 
#    z 0.034090 0.000000 2.233950 
# 
# From -- ./inp_files/196665.got.cif
#   From: 2010.05.17/outbox.cif.g08.bks.cpg/sg15_99_cif.got.tgz:196665.got - 2010.06.03 18:47:42.
