data_PCOD9298236
_publ_section_title
;
Structure prediction by ZEFSAII (Michael W. Deem and Ramdas Pophale) SiO2 
 PCOD9298236
Probable space group: C 2/C
;
_chemical_formula_sum "Si O2"
_cell_formula_units_Z 52
_cell_length_a 30.706456
_cell_length_b 13.192692
_cell_length_c 9.426838
_cell_angle_alpha 90.000000
_cell_angle_beta 143.952107
_cell_angle_gamma 90.000000
_cell_volume 2247.227633
_symmetry_space_group_name_H-M "C 2/C"
_symmetry_group_IT_number 15
_symmetry_cell_setting 'monoclinic'
loop_
_space_group_symop_operation_xyz
x,y,z
-x,y,1/2-z
-x,-y,-z
x,-y,1/2+z
1/2+x,1/2+y,z
1/2-x,1/2+y,1/2-z
1/2-x,1/2-y,-z
1/2+x,1/2-y,1/2+z
loop_
_atom_site_type_symbol
_atom_site_label
_atom_site_fract_x
_atom_site_fract_y
_atom_site_fract_z
Si Si1 0.632302 0.686639 0.727240
Si Si2 0.420368 0.881231 0.799187
Si Si3 0.053932 0.026783 0.015279
Si Si4 0.722700 0.004819 0.071100
Si Si5 0.715312 0.799635 0.699888
Si Si6 0.500000 0.016001 0.250000
Si Si7 0.201584 0.108138 0.495105
O O1 0.576876 0.761572 0.664406
O O2 0.596477 0.579297 0.597382
O O3 0.658717 0.745669 0.656549
O O4 0.707488 0.676087 0.017799
O O5 0.448779 0.915085 0.718739
O O6 0.334640 0.913786 0.591625
O O7 0.459861 0.944226 0.028789
O O8 0.117472 0.106154 0.222137
O O9 0.000000 0.061491 0.750000
O O10 0.000000 0.000000 0.000000
O O11 0.684841 0.095682 0.058469
O O12 0.749790 0.053508 0.997059
O O13 0.789292 0.960848 0.340359
O O14 0.728291 0.719495 0.608148
#
# Coordination Sequence:
#
# PCOD9298236 Si02
#       7
#     8   8   8   8   8   4   8
#     4  11  23  42  71 100 134 176 231 282 353 411
#     4  11  23  43  68  96 133 178 221 288 348 420
#     4  12  27  48  68  98 142 196 232 281 352 436
#     4  12  23  42  72 103 135 173 231 302 367 404
#     4  11  23  41  70 106 133 174 227 301 352 407
#     4  10  24  44  62  94 138 176 222 266 350 432
#     4  12  24  44  70 104 139 178 241 299 351 423
#
# _framework density 23.139621999999999
#
# number of rings (size 3 to 8) (size 9 to 14) (size 15 to 20)
#    0.000    0.615    3.077    6.000    1.077    0.000 
#    6.923    0.000    0.000    0.000    0.000    0.000 
#    0.000    0.000    0.000    0.000    0.000    0.000 
#
# Total GULP energy -145582.261833 kJ/mol
# GULP energy per Si atom -5599.317763 kJ/mol
# Density = 2.308696 g / cm^3
# Si number density = 23.139622 Si / 1000 Ang^3
#
#
#
# Elastic Constant Matrix: (Units=GPa)
#
#
# Indices 1 2 3 4 5 6 
#
# 1 100.2865 -13.2998 17.9121 0.0000 -11.2098 0.0000
# 2 -13.2998 67.4121 1.5488 0.0000 -6.2314 0.0000
# 3 17.9121 1.5488 93.4480 0.0000 -5.2914 0.0000
# 4 0.0000 0.0000 0.0000 -9.0595 0.0000 6.6031
# 5 -11.2098 -6.2314 -5.2914 0.0000 31.5617 0.0000
# 6 0.0000 0.0000 0.0000 6.6031 0.0000 32.0272
#
#
#
# Elastic Compliance Matrix: (Units=1/GPa)
#
#
# Indices 1 2 3 4 5 6 
#
# 1 0.011130 0.002624 -0.001942 0.000000 0.004145 0.000000
# 2 0.002624 0.015729 -0.000540 0.000000 0.003947 0.000000
# 3 -0.001942 -0.000540 0.011143 0.000000 0.001072 0.000000
# 4 0.000000 0.000000 0.000000 -0.095961 0.000000 0.019784
# 5 0.004145 0.003947 0.001072 0.000000 0.034115 0.000000
# 6 0.000000 0.000000 0.000000 0.019784 0.000000 0.027145
#
#
# Mechanical properties :
#
#
# Convention : Reuss Voigt Hill
#
# Bulk Modulus (GPa) = 26.12030 30.38543 28.25287
# Shear Modulus (GPa) = 316.87876 27.90490 172.39183
#
# Velocity S-wave (km/s) = 11.71492 3.47643 8.64074
# Velocity P-wave (km/s) = 13.93910 5.41054 10.57290
#
# Compressibility (1/GPa) = 0.03828440
#
# Stress axis : x y z
#
# Youngs Moduli (GPa) = 89.85047 63.57689 89.74219
#
# Poissons Ratio (x) = -0.16680 0.17429
# Poissons Ratio (y) = -0.23573 0.04847
# Poissons Ratio (z) = 0.17450 0.03434
#
# Static dielectric constant tensor:
#      x y z
#    x 1.887660 0.000000 -0.009130 
#    y 0.000000 1.888700 0.000000 
#    z -0.009130 0.000000 1.860750 
# 
# From -- ./inp_files/70188.got.cif
#   From: 2010.05.17/outbox.cif.g08.bks.cpg/sg15_36_cif.got.tgz:70188.got - 2010.06.03 18:47:42.
