data_PCOD9298487
_publ_section_title
;
Structure prediction by ZEFSAII (Michael W. Deem and Ramdas Pophale) SiO2 
 PCOD9298487
Probable space group: C 2/C
;
_chemical_formula_sum "Si O2"
_cell_formula_units_Z 40
_cell_length_a 4.789831
_cell_length_b 22.744532
_cell_length_c 13.850631
_cell_angle_alpha 90.000000
_cell_angle_beta 87.284334
_cell_angle_gamma 90.000000
_cell_volume 1507.227292
_symmetry_space_group_name_H-M "C 2/C"
_symmetry_group_IT_number 15
_symmetry_cell_setting 'monoclinic'
loop_
_space_group_symop_operation_xyz
x,y,z
-x,y,1/2-z
-x,-y,-z
x,-y,1/2+z
1/2+x,1/2+y,z
1/2-x,1/2+y,1/2-z
1/2-x,1/2-y,-z
1/2+x,1/2-y,1/2+z
loop_
_atom_site_type_symbol
_atom_site_label
_atom_site_fract_x
_atom_site_fract_y
_atom_site_fract_z
Si Si1 0.806526 0.065029 0.158734
Si Si2 0.700260 0.133597 0.884683
Si Si3 0.188188 0.870207 0.514718
Si Si4 0.500000 0.040598 0.750000
Si Si5 0.000000 0.336011 0.750000
Si Si6 0.107438 0.237781 0.395128
O O1 0.555138 0.112704 0.167221
O O2 0.000000 0.077618 0.250000
O O3 0.017114 0.078004 0.069265
O O4 0.671580 0.001861 0.175793
O O5 0.696588 0.083701 0.805871
O O6 0.563775 0.196225 0.860518
O O7 0.492802 0.114121 0.973923
O O8 0.006851 0.142417 0.921332
O O9 0.140196 0.809680 0.578617
O O10 0.215863 0.291767 0.694099
O O11 0.250000 0.250000 0.500000
#
# Coordination Sequence:
#
# PCOD9298487 Si02
#       6
#     8   8   8   4   4   8
#     4  10  24  44  71  94 136 182 242 291 328 402
#     4  11  25  44  66 102 141 177 222 279 352 416
#     4  10  24  44  71  97 132 182 230 281 340 403
#     4  11  28  44  66 100 142 183 230 284 346 407
#     4   9  20  42  64 104 126 181 226 284 346 399
#     4   9  20  40  68  97 138 172 221 278 345 418
#
# _framework density 26.538796000000001
#
# number of rings (size 3 to 8) (size 9 to 14) (size 15 to 20)
#    0.000    2.000    0.000    0.600   14.000    4.800 
#   10.800    0.000    0.000    0.000    0.000    0.000 
#    0.000    0.000    0.000    0.000    0.000    0.000 
#
# Total GULP energy -111636.779292 kJ/mol
# GULP energy per Si atom -5581.838965 kJ/mol
# Density = 2.647839 g / cm^3
# Si number density = 26.538796 Si / 1000 Ang^3
#
#
#
# Elastic Constant Matrix: (Units=GPa)
#
#
# Indices 1 2 3 4 5 6 
#
# 1 95.9094 16.4243 24.4200 0.0000 -18.0806 0.0000
# 2 16.4243 183.1277 45.5654 0.0000 -8.9079 0.0000
# 3 24.4200 45.5654 89.9295 0.0000 -14.6467 0.0000
# 4 0.0000 0.0000 0.0000 10.8806 0.0000 1.6232
# 5 -18.0806 -8.9079 -14.6467 0.0000 34.7744 0.0000
# 6 0.0000 0.0000 0.0000 1.6232 0.0000 34.4037
#
#
#
# Elastic Compliance Matrix: (Units=1/GPa)
#
#
# Indices 1 2 3 4 5 6 
#
# 1 0.012039 -0.000256 -0.002287 0.000000 0.005230 0.000000
# 2 -0.000256 0.006257 -0.003072 0.000000 0.000176 0.000000
# 3 -0.002287 -0.003072 0.013931 0.000000 0.003892 0.000000
# 4 0.000000 0.000000 0.000000 0.092558 0.000000 -0.004367
# 5 0.005230 0.000176 0.003892 0.000000 0.033160 0.000000
# 6 0.000000 0.000000 0.000000 -0.004367 0.000000 0.029273
#
#
# Mechanical properties :
#
#
# Convention : Reuss Voigt Hill
#
# Bulk Modulus (GPa) = 47.62897 60.19845 53.91371
# Shear Modulus (GPa) = 24.33712 34.84886 29.59299
#
# Velocity S-wave (km/s) = 3.03155 3.62764 3.34291
# Velocity P-wave (km/s) = 5.49906 6.34656 5.93795
#
# Compressibility (1/GPa) = 0.02099563
#
# Stress axis : x y z
#
# Youngs Moduli (GPa) = 83.06468 159.83303 71.78116
#
# Poissons Ratio (x) = 0.04094 0.16419
# Poissons Ratio (y) = 0.02128 0.22050
# Poissons Ratio (z) = 0.19000 0.49099
#
# Static dielectric constant tensor:
#      x y z
#    x 2.221370 0.000000 0.076220 
#    y 0.000000 2.026580 0.000000 
#    z 0.076220 0.000000 2.169930 
# 
# From -- ./inp_files/129291.got.cif
#   From: 2010.05.17/outbox.cif.g08.bks.cpg/sg15_65_cif.got.tgz:129291.got - 2010.06.03 18:47:42.
