data_PCOD9298578
_publ_section_title
;
Structure prediction by ZEFSAII (Michael W. Deem and Ramdas Pophale) SiO2 
 PCOD9298578
Probable space group: C 2/C
;
_chemical_formula_sum "Si O2"
_cell_formula_units_Z 40
_cell_length_a 5.318837
_cell_length_b 28.190741
_cell_length_c 12.228415
_cell_angle_alpha 90.000000
_cell_angle_beta 108.626930
_cell_angle_gamma 90.000000
_cell_volume 1737.508035
_symmetry_space_group_name_H-M "C 2/C"
_symmetry_group_IT_number 15
_symmetry_cell_setting 'monoclinic'
loop_
_space_group_symop_operation_xyz
x,y,z
-x,y,1/2-z
-x,-y,-z
x,-y,1/2+z
1/2+x,1/2+y,z
1/2-x,1/2+y,1/2-z
1/2-x,1/2-y,-z
1/2+x,1/2-y,1/2+z
loop_
_atom_site_type_symbol
_atom_site_label
_atom_site_fract_x
_atom_site_fract_y
_atom_site_fract_z
Si Si1 0.256662 0.030988 0.512562
Si Si2 0.890676 0.131712 0.032901
Si Si3 0.219148 0.349254 0.112013
Si Si4 0.500000 0.084352 0.750000
Si Si5 0.000000 0.758804 0.250000
Si Si6 0.172127 0.224678 0.374616
O O1 0.162209 0.078204 0.433310
O O2 0.359902 0.052763 0.640270
O O3 0.500000 0.000000 0.500000
O O4 0.000000 0.000000 0.500000
O O5 0.968498 0.174939 0.121808
O O6 0.594359 0.149442 0.958472
O O7 0.101643 0.131743 0.962873
O O8 0.319187 0.297718 0.159948
O O9 0.212605 0.382826 0.217663
O O10 0.060672 0.723624 0.157789
O O11 0.250000 0.250000 0.500000
O O12 0.000000 0.248804 0.250000
#
# Coordination Sequence:
#
# PCOD9298578 Si02
#       6
#     8   8   8   4   4   8
#     4  11  24  45  72 104 141 188 245 312 380 460
#     4  11  25  47  71 105 152 184 255 312 388 439
#     4  11  23  42  75 105 137 193 250 326 360 446
#     4  10  24  44  75 110 138 192 263 320 378 454
#     4  12  24  40  75 104 156 198 259 298 390 444
#     4  12  28  48  73 112 156 208 254 317 381 467
#
# _framework density 23.021474000000001
#
# number of rings (size 3 to 8) (size 9 to 14) (size 15 to 20)
#    0.000    0.800    2.000    6.000    4.200    5.600 
#    3.600    0.000    0.000    0.000    0.000    0.000 
#    0.000    0.000    0.000    0.000    0.000    0.000 
#
# Total GULP energy -111450.855939 kJ/mol
# GULP energy per Si atom -5572.542797 kJ/mol
# Density = 2.296908 g / cm^3
# Si number density = 23.021474 Si / 1000 Ang^3
#
#
#
# Elastic Constant Matrix: (Units=GPa)
#
#
# Indices 1 2 3 4 5 6 
#
# 1 143.2917 47.6638 29.2647 0.0000 -36.9941 0.0000
# 2 47.6638 134.7588 23.5083 0.0000 -42.4501 0.0000
# 3 29.2647 23.5083 101.5641 0.0000 -32.5518 0.0000
# 4 0.0000 0.0000 0.0000 29.3652 0.0000 -4.8521
# 5 -36.9941 -42.4501 -32.5518 0.0000 53.8120 0.0000
# 6 0.0000 0.0000 0.0000 -4.8521 0.0000 33.5152
#
#
#
# Elastic Compliance Matrix: (Units=1/GPa)
#
#
# Indices 1 2 3 4 5 6 
#
# 1 0.008784 -0.001620 -0.000782 0.000000 0.004288 0.000000
# 2 -0.001620 0.010179 0.000406 0.000000 0.007162 0.000000
# 3 -0.000782 0.000406 0.012291 0.000000 0.007218 0.000000
# 4 0.000000 0.000000 0.000000 0.034888 0.000000 0.005051
# 5 0.004288 0.007162 0.007218 0.000000 0.031547 0.000000
# 6 0.000000 0.000000 0.000000 0.005051 0.000000 0.030568
#
#
# Mechanical properties :
#
#
# Convention : Reuss Voigt Hill
#
# Bulk Modulus (GPa) = 36.68021 64.49867 50.58944
# Shear Modulus (GPa) = 35.37671 41.95035 38.66353
#
# Velocity S-wave (km/s) = 3.92431 4.27339 4.10256
# Velocity P-wave (km/s) = 6.04162 7.24063 6.66813
#
# Compressibility (1/GPa) = 0.02726266
#
# Stress axis : x y z
#
# Youngs Moduli (GPa) = 113.83876 98.24425 81.36322
#
# Poissons Ratio (x) = 0.15913 0.06361
# Poissons Ratio (y) = 0.18439 -0.03304
# Poissons Ratio (z) = 0.08900 -0.03990
#
# Static dielectric constant tensor:
#      x y z
#    x 5.020020 0.000000 -0.552530 
#    y 0.000000 1.926920 0.000000 
#    z -0.552530 0.000000 2.093960 
# 
# From -- ./inp_files/73356.got.cif
#   From: 2010.05.17/outbox.cif.g08.bks.cpg/sg15_37_cif.got.tgz:73356.got - 2010.06.03 18:47:42.
