data_PCOD9298482
_publ_section_title
;
Structure prediction by ZEFSAII (Michael W. Deem and Ramdas Pophale) SiO2 
 PCOD9298482
Probable space group: C 2/C
;
_chemical_formula_sum "Si O2"
_cell_formula_units_Z 40
_cell_length_a 12.003629
_cell_length_b 20.835115
_cell_length_c 14.931562
_cell_angle_alpha 90.000000
_cell_angle_beta 27.984445
_cell_angle_gamma 90.000000
_cell_volume 1752.270621
_symmetry_space_group_name_H-M "C 2/C"
_symmetry_group_IT_number 15
_symmetry_cell_setting 'monoclinic'
loop_
_space_group_symop_operation_xyz
x,y,z
-x,y,1/2-z
-x,-y,-z
x,-y,1/2+z
1/2+x,1/2+y,z
1/2-x,1/2+y,1/2-z
1/2-x,1/2-y,-z
1/2+x,1/2-y,1/2+z
loop_
_atom_site_type_symbol
_atom_site_label
_atom_site_fract_x
_atom_site_fract_y
_atom_site_fract_z
Si Si1 0.257208 0.953795 0.581050
Si Si2 0.110159 0.684126 0.577206
Si Si3 0.281722 0.826074 0.967905
Si Si4 0.245576 0.144486 0.698489
Si Si5 0.739451 0.003486 0.730634
O O1 0.253100 0.880243 0.550369
O O2 0.469065 0.994422 0.382603
O O3 0.000000 0.985396 0.750000
O O4 0.274235 0.954576 0.677021
O O5 0.250000 0.750000 0.500000
O O6 0.000000 0.665215 0.750000
O O7 0.905780 0.691621 0.646207
O O8 0.500000 0.842546 0.750000
O O9 0.250000 0.750000 0.000000
O O10 0.310921 0.851246 0.047935
O O11 0.035048 0.845608 0.098597
O O12 0.278190 0.074546 0.715444
O O13 0.000000 0.000000 0.500000
#
# Coordination Sequence:
#
# PCOD9298482 Si02
#       5
#     8   8   8   8   8
#     4  10  24  44  71 104 145 184 250 299 369 445
#     4  11  26  45  70 107 149 203 242 300 369 448
#     4  11  23  43  72 100 139 191 231 316 359 424
#     4  10  25  45  69 111 141 184 263 283 380 445
#     4  10  24  47  74 103 145 193 242 315 363 438
#
# _framework density 22.827524
#
# number of rings (size 3 to 8) (size 9 to 14) (size 15 to 20)
#    0.000    1.600    2.000    0.600   11.200    4.800 
#    0.000    1.000    0.000    0.000    0.000    0.000 
#    0.000    0.000    0.000    0.000    0.000    0.000 
#
# Total GULP energy -111538.360609 kJ/mol
# GULP energy per Si atom -5576.918030 kJ/mol
# Density = 2.277557 g / cm^3
# Si number density = 22.827524 Si / 1000 Ang^3
#
#
#
# Elastic Constant Matrix: (Units=GPa)
#
#
# Indices 1 2 3 4 5 6 
#
# 1 111.1868 22.8635 75.6186 0.0110 -23.8629 0.0053
# 2 22.8635 89.4674 28.2086 0.0214 9.1624 0.0052
# 3 75.6186 28.2086 248.1265 0.0174 -9.7226 0.0500
# 4 0.0110 0.0214 0.0174 30.4949 0.0308 10.6427
# 5 -23.8629 9.1624 -9.7226 0.0308 35.7276 -0.0199
# 6 0.0053 0.0052 0.0500 10.6427 -0.0199 28.6485
#
#
#
# Elastic Compliance Matrix: (Units=1/GPa)
#
#
# Indices 1 2 3 4 5 6 
#
# 1 0.014121 -0.003449 -0.003545 -0.000016 0.009351 0.000017
# 2 -0.003449 0.012850 -0.000636 0.000000 -0.005772 -0.000005
# 3 -0.003545 -0.000636 0.005151 0.000003 -0.000803 -0.000010
# 4 -0.000016 0.000000 0.000003 0.037677 -0.000050 -0.013997
# 5 0.009351 -0.005772 -0.000803 -0.000050 0.035497 0.000044
# 6 0.000017 -0.000005 -0.000010 -0.013997 0.000044 0.040106
#
#
# Mechanical properties :
#
#
# Convention : Reuss Voigt Hill
#
# Bulk Modulus (GPa) = 59.30047 78.01802 68.65924
# Shear Modulus (GPa) = 30.06918 40.44686 35.25802
#
# Velocity S-wave (km/s) = 3.63331 4.21390 3.93433
# Velocity P-wave (km/s) = 6.60570 7.61100 7.12610
#
# Compressibility (1/GPa) = 0.01686327
#
# Stress axis : x y z
#
# Youngs Moduli (GPa) = 70.81668 77.81986 194.12081
#
# Poissons Ratio (x) = 0.26837 0.68816
# Poissons Ratio (y) = 0.24422 0.12348
# Poissons Ratio (z) = 0.25105 0.04950
#
# Static dielectric constant tensor:
#      x y z
#    x 1.996570 0.000270 -0.144540 
#    y 0.000270 1.799530 -0.000150 
#    z -0.144540 -0.000150 1.933740 
# 
# From -- ./inp_files/147985.got.cif
#   From: 2010.05.17/outbox.cif.g08.bks.cpg/sg15_74_cif.got.tgz:147985.got - 2010.06.03 18:47:42.
