data_PCOD9298569
_publ_section_title
;
Structure prediction by ZEFSAII (Michael W. Deem and Ramdas Pophale) SiO2 
 PCOD9298569
Probable space group: C 2/C
;
_chemical_formula_sum "Si O2"
_cell_formula_units_Z 44
_cell_length_a 11.502786
_cell_length_b 11.423373
_cell_length_c 13.871677
_cell_angle_alpha 90.000000
_cell_angle_beta 95.089130
_cell_angle_gamma 90.000000
_cell_volume 1815.561461
_symmetry_space_group_name_H-M "C 2/C"
_symmetry_group_IT_number 15
_symmetry_cell_setting 'monoclinic'
loop_
_space_group_symop_operation_xyz
x,y,z
-x,y,1/2-z
-x,-y,-z
x,-y,1/2+z
1/2+x,1/2+y,z
1/2-x,1/2+y,1/2-z
1/2-x,1/2-y,-z
1/2+x,1/2-y,1/2+z
loop_
_atom_site_type_symbol
_atom_site_label
_atom_site_fract_x
_atom_site_fract_y
_atom_site_fract_z
Si Si1 0.525319 0.294177 0.922078
Si Si2 0.646730 0.706691 0.921923
Si Si3 0.123387 0.430223 0.519209
Si Si4 0.308802 0.530858 0.177359
Si Si5 0.686083 0.050260 0.348801
Si Si6 0.500000 0.868588 0.250000
O O1 0.610245 0.199187 0.978414
O O2 0.595919 0.391475 0.869823
O O3 0.460708 0.214030 0.836040
O O4 0.448943 0.332923 0.007083
O O5 0.673053 0.603639 0.849540
O O6 0.622134 0.825811 0.859948
O O7 0.750000 0.750000 0.000000
O O8 0.181126 0.432646 0.627170
O O9 0.211841 0.500190 0.456657
O O10 0.000000 0.500000 0.500000
O O11 0.299065 0.556081 0.289891
O O12 0.601392 0.951846 0.297367
#
# Coordination Sequence:
#
# PCOD9298569 Si02
#       6
#     8   8   8   8   8   4
#     4  11  25  43  70 101 140 181 230 296 356 419
#     4  12  24  46  71  96 142 186 231 292 360 424
#     4  11  21  45  70 100 133 187 235 281 334 431
#     4  12  26  42  69 106 142 178 231 296 363 410
#     4  11  24  41  71 101 128 184 240 275 343 430
#     4  10  24  44  74  96 134 186 242 282 340 434
#
# _framework density 24.234926000000002
#
# number of rings (size 3 to 8) (size 9 to 14) (size 15 to 20)
#    0.000    0.727    3.636    4.364    7.636    0.000 
#    0.000    0.909    0.000    0.000    0.000    0.000 
#    0.000    0.000    0.000    0.000    0.000    0.000 
#
# Total GULP energy -123093.881667 kJ/mol
# GULP energy per Si atom -5595.176439 kJ/mol
# Density = 2.417977 g / cm^3
# Si number density = 24.234926 Si / 1000 Ang^3
#
#
#
# Elastic Constant Matrix: (Units=GPa)
#
#
# Indices 1 2 3 4 5 6 
#
# 1 62.1451 20.6186 15.3190 0.0000 -22.8385 0.0000
# 2 20.6186 97.7375 15.2106 0.0000 -9.0839 0.0000
# 3 15.3190 15.2106 112.2587 0.0000 -38.7518 0.0000
# 4 0.0000 0.0000 0.0000 38.4066 0.0000 -8.6539
# 5 -22.8385 -9.0839 -38.7518 0.0000 48.6684 0.0000
# 6 0.0000 0.0000 0.0000 -8.6539 0.0000 32.5632
#
#
#
# Elastic Compliance Matrix: (Units=1/GPa)
#
#
# Indices 1 2 3 4 5 6 
#
# 1 0.020652 -0.003607 0.001081 0.000000 0.009879 0.000000
# 2 -0.003607 0.011127 -0.001217 0.000000 -0.000585 0.000000
# 3 0.001081 -0.001217 0.012442 0.000000 0.010187 0.000000
# 4 0.000000 0.000000 0.000000 0.027696 0.000000 0.007360
# 5 0.009879 -0.000585 0.010187 0.000000 0.033185 0.000000
# 6 0.000000 0.000000 0.000000 0.007360 0.000000 0.032666
#
#
# Mechanical properties :
#
#
# Convention : Reuss Voigt Hill
#
# Bulk Modulus (GPa) = 27.22268 41.60419 34.41343
# Shear Modulus (GPa) = 31.74616 38.66052 35.20334
#
# Velocity S-wave (km/s) = 3.62323 3.99838 3.81542
# Velocity P-wave (km/s) = 5.36292 6.20648 5.80005
#
# Compressibility (1/GPa) = 0.03673408
#
# Stress axis : x y z
#
# Youngs Moduli (GPa) = 48.42135 89.86772 80.37334
#
# Poissons Ratio (x) = 0.32413 -0.08685
# Poissons Ratio (y) = 0.17464 0.09785
# Poissons Ratio (z) = -0.05232 0.10941
#
# Static dielectric constant tensor:
#      x y z
#    x 1.981720 0.000000 -0.039500 
#    y 0.000000 1.903680 0.000000 
#    z -0.039500 0.000000 1.959830 
# 
# From -- ./inp_files/142234.got.cif
#   From: 2010.05.17/outbox.cif.g08.bks.cpg/sg15_72_cif.got.tgz:142234.got - 2010.06.03 18:47:42.
