data_PCOD9298613
_publ_section_title
;
Structure prediction by ZEFSAII (Michael W. Deem and Ramdas Pophale) SiO2 
 PCOD9298613
Probable space group: C 2/C
;
_chemical_formula_sum "Si O2"
_cell_formula_units_Z 48
_cell_length_a 16.700474
_cell_length_b 8.883877
_cell_length_c 17.349079
_cell_angle_alpha 90.000000
_cell_angle_beta 83.672659
_cell_angle_gamma 90.000000
_cell_volume 2558.315808
_symmetry_space_group_name_H-M "C 2/C"
_symmetry_group_IT_number 15
_symmetry_cell_setting 'monoclinic'
loop_
_space_group_symop_operation_xyz
x,y,z
-x,y,1/2-z
-x,-y,-z
x,-y,1/2+z
1/2+x,1/2+y,z
1/2-x,1/2+y,1/2-z
1/2-x,1/2-y,-z
1/2+x,1/2-y,1/2+z
loop_
_atom_site_type_symbol
_atom_site_label
_atom_site_fract_x
_atom_site_fract_y
_atom_site_fract_z
Si Si1 0.512337 0.801771 0.657421
Si Si2 0.348421 0.022629 0.147557
Si Si3 0.668966 0.985465 0.668471
Si Si4 0.422603 0.538249 0.959355
Si Si5 0.200185 0.784095 0.927563
Si Si6 0.294671 0.297733 0.917086
O O1 0.500000 0.765238 0.750000
O O2 0.547197 0.659671 0.606975
O O3 0.430517 0.877663 0.632228
O O4 0.584040 0.922638 0.647468
O O5 0.337067 0.996809 0.239476
O O6 0.342549 0.863246 0.103482
O O7 0.271553 0.112493 0.124582
O O8 0.683910 0.145167 0.628437
O O9 0.738889 0.866923 0.637446
O O10 0.371991 0.402938 0.925868
O O11 0.500000 0.500000 0.000000
O O12 0.365035 0.604206 0.031531
O O13 0.250000 0.750000 0.000000
O O14 0.250000 0.250000 0.000000
#
# Coordination Sequence:
#
# PCOD9298613 Si02
#       6
#     8   8   8   8   8   8
#     4  10  24  45  65  93 132 170 211 265 324 379
#     4  11  24  42  66  96 127 172 212 261 323 382
#     4  11  23  43  66  94 131 167 213 265 319 385
#     4  12  26  43  64  95 129 169 216 268 320 379
#     4  12  22  44  67  93 128 171 214 261 323 378
#     4  12  23  42  66  98 126 165 219 263 317 383
#
# _framework density 18.762343000000001
#
# number of rings (size 3 to 8) (size 9 to 14) (size 15 to 20)
#    0.000    0.667    5.000    2.000    2.333    2.000 
#    3.000    0.000    0.000    0.000    0.000    0.000 
#    0.000    0.000    0.000    0.000    0.000    0.000 
#
# Total GULP energy -134013.539410 kJ/mol
# GULP energy per Si atom -5583.897475 kJ/mol
# Density = 1.871964 g / cm^3
# Si number density = 18.762343 Si / 1000 Ang^3
#
#
#
# Elastic Constant Matrix: (Units=GPa)
#
#
# Indices 1 2 3 4 5 6 
#
# 1 119.0620 26.4604 16.2484 0.0000 20.5874 0.0000
# 2 26.4604 84.7891 24.3507 0.0000 13.6650 0.0000
# 3 16.2484 24.3507 50.6371 0.0000 6.7046 0.0000
# 4 0.0000 0.0000 0.0000 39.9979 0.0000 -1.8663
# 5 20.5874 13.6650 6.7046 0.0000 38.3207 0.0000
# 6 0.0000 0.0000 0.0000 -1.8663 0.0000 46.9845
#
#
#
# Elastic Compliance Matrix: (Units=1/GPa)
#
#
# Indices 1 2 3 4 5 6 
#
# 1 0.009788 -0.001884 -0.001666 0.000000 -0.004295 0.000000
# 2 -0.001884 0.014614 -0.006006 0.000000 -0.003148 0.000000
# 3 -0.001666 -0.006006 0.023309 0.000000 -0.001041 0.000000
# 4 0.000000 0.000000 0.000000 0.025048 0.000000 0.000995
# 5 -0.004295 -0.003148 -0.001041 0.000000 0.029708 0.000000
# 6 0.000000 0.000000 0.000000 0.000995 0.000000 0.021323
#
#
# Mechanical properties :
#
#
# Convention : Reuss Voigt Hill
#
# Bulk Modulus (GPa) = 34.96679 43.17859 39.07269
# Shear Modulus (GPa) = 32.80075 37.55587 35.17831
#
# Velocity S-wave (km/s) = 4.18571 4.47885 4.33476
# Velocity P-wave (km/s) = 6.48362 7.05763 6.77671
#
# Compressibility (1/GPa) = 0.02859856
#
# Stress axis : x y z
#
# Youngs Moduli (GPa) = 102.16925 68.42627 42.90137
#
# Poissons Ratio (x) = 0.12890 0.07148
# Poissons Ratio (y) = 0.19246 0.25769
# Poissons Ratio (z) = 0.17022 0.41100
#
# Static dielectric constant tensor:
#      x y z
#    x 1.615560 0.000000 -0.006150 
#    y 0.000000 1.665370 0.000000 
#    z -0.006150 0.000000 1.666140 
# 
# From -- ./inp_files/202999.got.cif
#   From: 2010.05.17/outbox.cif.g08.bks.cpg/sg15_102_cif.got.tgz:202999.got - 2010.06.03 18:47:42.
