data_PCOD9298837
_publ_section_title
;
Structure prediction by ZEFSAII (Michael W. Deem and Ramdas Pophale) SiO2 
 PCOD9298837
Probable space group: C 2/C
;
_chemical_formula_sum "Si O2"
_cell_formula_units_Z 36
_cell_length_a 8.547956
_cell_length_b 15.155707
_cell_length_c 25.642198
_cell_angle_alpha 90.000000
_cell_angle_beta 147.311365
_cell_angle_gamma 90.000000
_cell_volume 1794.099429
_symmetry_space_group_name_H-M "C 2/C"
_symmetry_group_IT_number 15
_symmetry_cell_setting 'monoclinic'
loop_
_space_group_symop_operation_xyz
x,y,z
-x,y,1/2-z
-x,-y,-z
x,-y,1/2+z
1/2+x,1/2+y,z
1/2-x,1/2+y,1/2-z
1/2-x,1/2-y,-z
1/2+x,1/2-y,1/2+z
loop_
_atom_site_type_symbol
_atom_site_label
_atom_site_fract_x
_atom_site_fract_y
_atom_site_fract_z
Si Si1 0.706959 0.940518 0.766396
Si Si2 0.500000 0.649536 0.250000
Si Si3 0.453016 0.754569 0.948718
Si Si4 0.722008 0.937078 0.413814
Si Si5 0.150546 0.422038 0.511066
O O1 0.500000 0.889912 0.750000
O O2 0.807435 0.902455 0.738589
O O3 0.009971 0.942316 0.882643
O O4 0.505323 0.023698 0.692118
O O5 0.284200 0.708327 0.156897
O O6 0.352264 0.658165 0.937339
O O7 0.447078 0.827187 0.993451
O O8 0.750000 0.750000 0.000000
O O9 0.576633 0.929592 0.429759
O O10 0.000000 0.000000 0.500000
O O11 0.000000 0.500000 0.500000
#
# Coordination Sequence:
#
# PCOD9298837 Si02
#       5
#     8   4   8   8   8
#     4  11  23  42  72  94 132 181 227 273 346 394
#     4  10  24  46  64  98 138 170 234 286 330 400
#     4  11  25  41  66  98 136 176 222 277 337 401
#     4  12  23  41  68  98 133 176 224 274 339 402
#     4  11  24  44  68  99 137 175 226 282 339 403
#
# _framework density 20.065778000000002
#
# number of rings (size 3 to 8) (size 9 to 14) (size 15 to 20)
#    0.000    0.889    2.222    6.000    1.556    0.000 
#    0.000    0.000    2.444    0.000    0.000    0.000 
#    0.000    0.000    0.000    0.000    0.000    0.000 
#
# Total GULP energy -100390.148356 kJ/mol
# GULP energy per Si atom -5577.230464 kJ/mol
# Density = 2.002011 g / cm^3
# Si number density = 20.065778 Si / 1000 Ang^3
#
#
#
# Elastic Constant Matrix: (Units=GPa)
#
#
# Indices 1 2 3 4 5 6 
#
# 1 160.3139 55.2682 31.8776 -0.0001 4.4410 0.0001
# 2 55.2682 126.8464 28.9094 -0.0003 9.9182 -0.0002
# 3 31.8776 28.9094 63.5813 -0.0010 7.3479 -0.0003
# 4 -0.0001 -0.0003 -0.0010 23.7095 0.0002 16.6136
# 5 4.4410 9.9182 7.3479 0.0002 49.7528 -0.0003
# 6 0.0001 -0.0002 -0.0003 16.6136 -0.0003 -0.1000
#
#
#
# Elastic Compliance Matrix: (Units=1/GPa)
#
#
# Indices 1 2 3 4 5 6 
#
# 1 0.007713 -0.002781 -0.002632 0.000000 0.000255 0.000000
# 2 -0.002781 0.009866 -0.002944 0.000000 -0.001284 0.000000
# 3 -0.002632 -0.002944 0.018609 0.000000 -0.001927 0.000001
# 4 0.000000 0.000000 0.000000 0.000359 0.000000 0.059679
# 5 0.000255 -0.001284 -0.001927 0.000000 0.020617 -0.000001
# 6 0.000000 0.000000 0.000001 0.059679 -0.000001 -0.085169
#
#
# Mechanical properties :
#
#
# Convention : Reuss Voigt Hill
#
# Bulk Modulus (GPa) = 51.34739 64.76134 58.05437
# Shear Modulus (GPa) = -1041.49218 30.31822 -505.58698
#
# Velocity S-wave (km/s) = -22.80714 3.89130 -15.89062
# Velocity P-wave (km/s) = 25.84394 7.24805 17.54102
#
# Compressibility (1/GPa) = 0.01947519
#
# Stress axis : x y z
#
# Youngs Moduli (GPa) = 129.65694 101.35501 53.73869
#
# Poissons Ratio (x) = 0.28182 0.14144
# Poissons Ratio (y) = 0.36051 0.15819
# Poissons Ratio (z) = 0.34126 0.29835
#
# Static dielectric constant tensor:
#      x y z
#    x 1.776270 0.000000 0.021880 
#    y 0.000000 1.695860 0.000000 
#    z 0.021880 0.000000 1.846470 
# 
# From -- ./inp_files/132825.got.cif
#   From: 2010.05.17/outbox.cif.g08.bks.cpg/sg15_67_cif.got.tgz:132825.got - 2010.06.03 18:47:42.
