data_PCOD9298922
_publ_section_title
;
Structure prediction by ZEFSAII (Michael W. Deem and Ramdas Pophale) SiO2 
 PCOD9298922
Probable space group: C 2/C
;
_chemical_formula_sum "Si O2"
_cell_formula_units_Z 48
_cell_length_a 13.702421
_cell_length_b 5.177832
_cell_length_c 23.970897
_cell_angle_alpha 90.000000
_cell_angle_beta 82.384461
_cell_angle_gamma 90.000000
_cell_volume 1685.706332
_symmetry_space_group_name_H-M "C 2/C"
_symmetry_group_IT_number 15
_symmetry_cell_setting 'monoclinic'
loop_
_space_group_symop_operation_xyz
x,y,z
-x,y,1/2-z
-x,-y,-z
x,-y,1/2+z
1/2+x,1/2+y,z
1/2-x,1/2+y,1/2-z
1/2-x,1/2-y,-z
1/2+x,1/2-y,1/2+z
loop_
_atom_site_type_symbol
_atom_site_label
_atom_site_fract_x
_atom_site_fract_y
_atom_site_fract_z
Si Si1 0.000000 0.681599 0.250000
Si Si2 0.367819 0.114066 0.675457
Si Si3 0.853639 0.394378 0.376186
Si Si4 0.158341 0.081124 0.229818
Si Si5 0.352398 0.175633 0.064807
Si Si6 0.066825 0.096087 0.570425
Si Si7 0.750000 0.250000 0.000000
O O1 0.954198 0.521774 0.202721
O O2 0.918594 0.868447 0.282130
O O3 0.267108 0.009757 0.710088
O O4 0.363533 0.048450 0.612096
O O5 0.365317 0.396694 0.702280
O O6 0.854130 0.326179 0.310306
O O7 0.741087 0.345443 0.406324
O O8 0.883636 0.674821 0.395941
O O9 0.924462 0.175953 0.398165
O O10 0.458575 0.315897 0.060214
O O11 0.318393 0.002506 0.015480
O O12 0.148685 0.080319 0.515903
#
# Coordination Sequence:
#
# PCOD9298922 Si02
#       7
#     4   8   8   8   8   8   4
#     4  12  24  40  66  98 138 188 228 284 352 422
#     4  11  24  43  66 100 141 185 237 288 350 423
#     4  10  26  44  71 106 146 183 235 294 353 432
#     4  11  24  42  66  99 143 185 232 285 348 431
#     4  10  24  46  70 104 142 190 239 300 362 426
#     4  11  24  47  75 107 140 186 240 299 363 429
#     4  10  24  48  76 104 142 186 244 308 364 424
#
# _framework density 28.474710000000002
#
# number of rings (size 3 to 8) (size 9 to 14) (size 15 to 20)
#    0.000    1.333    1.667    2.000    7.000    6.667 
#    0.000    5.000    0.000    0.000    0.000    0.000 
#    0.000    0.000    0.000    0.000    0.000    0.000 
#
# Total GULP energy -134161.632416 kJ/mol
# GULP energy per Si atom -5590.068017 kJ/mol
# Density = 2.840990 g / cm^3
# Si number density = 28.474710 Si / 1000 Ang^3
#
#
#
# Elastic Constant Matrix: (Units=GPa)
#
#
# Indices 1 2 3 4 5 6 
#
# 1 221.5596 36.4536 28.1057 0.0000 15.2775 0.0000
# 2 36.4536 97.9670 7.6846 0.0000 19.1292 0.0000
# 3 28.1057 7.6846 91.5324 0.0000 10.4748 0.0000
# 4 0.0000 0.0000 0.0000 50.8441 0.0000 11.6799
# 5 15.2775 19.1292 10.4748 0.0000 27.2030 0.0000
# 6 0.0000 0.0000 0.0000 11.6799 0.0000 59.1914
#
#
#
# Elastic Compliance Matrix: (Units=1/GPa)
#
#
# Indices 1 2 3 4 5 6 
#
# 1 0.005011 -0.001520 -0.001267 0.000000 -0.001258 0.000000
# 2 -0.001520 0.012293 0.000341 0.000000 -0.007923 0.000000
# 3 -0.001267 0.000341 0.011749 0.000000 -0.004052 0.000000
# 4 0.000000 0.000000 0.000000 0.020602 0.000000 -0.004065
# 5 -0.001258 -0.007923 -0.004052 0.000000 0.044599 0.000000
# 6 0.000000 0.000000 0.000000 -0.004065 0.000000 0.017697
#
#
# Mechanical properties :
#
#
# Convention : Reuss Voigt Hill
#
# Bulk Modulus (GPa) = 41.38688 61.72744 51.55716
# Shear Modulus (GPa) = 40.03344 50.03537 45.03441
#
# Velocity S-wave (km/s) = 3.75364 4.19643 3.98120
# Velocity P-wave (km/s) = 5.77517 6.72347 6.26728
#
# Compressibility (1/GPa) = 0.02416225
#
# Stress axis : x y z
#
# Youngs Moduli (GPa) = 199.56313 81.34599 85.11150
#
# Poissons Ratio (x) = 0.12361 0.10785
# Poissons Ratio (y) = 0.30326 -0.02904
# Poissons Ratio (z) = 0.25287 -0.02775
#
# Static dielectric constant tensor:
#      x y z
#    x 2.195280 0.000000 -0.164500 
#    y 0.000000 2.320160 0.000000 
#    z -0.164500 0.000000 2.867800 
# 
# From -- ./inp_files/294458.got.cif
#   From: 2010.05.17/outbox.cif.g08.bks.cpg/sg15_148_cif.got.tgz:294458.got - 2010.06.03 18:47:42.
