data_PCOD9298319
_publ_section_title
;
Structure prediction by ZEFSAII (Michael W. Deem and Ramdas Pophale) SiO2 
 PCOD9298319
Probable space group: C 2/C
;
_chemical_formula_sum "Si O2"
_cell_formula_units_Z 36
_cell_length_a 7.279877
_cell_length_b 7.362324
_cell_length_c 30.740087
_cell_angle_alpha 90.000000
_cell_angle_beta 104.068812
_cell_angle_gamma 90.000000
_cell_volume 1598.150958
_symmetry_space_group_name_H-M "C 2/C"
_symmetry_group_IT_number 15
_symmetry_cell_setting 'monoclinic'
loop_
_space_group_symop_operation_xyz
x,y,z
-x,y,1/2-z
-x,-y,-z
x,-y,1/2+z
1/2+x,1/2+y,z
1/2-x,1/2+y,1/2-z
1/2-x,1/2-y,-z
1/2+x,1/2-y,1/2+z
loop_
_atom_site_type_symbol
_atom_site_label
_atom_site_fract_x
_atom_site_fract_y
_atom_site_fract_z
Si Si1 0.930197 0.795193 0.539155
Si Si2 0.500000 0.514228 0.250000
Si Si3 0.029441 0.477240 0.112872
Si Si4 0.829257 0.837720 0.069141
Si Si5 0.593733 0.130712 0.711885
O O1 0.750000 0.750000 0.500000
O O2 0.909967 0.682947 0.582956
O O3 0.133031 0.722840 0.534096
O O4 0.937841 0.007943 0.549333
O O5 0.457883 0.656175 0.286974
O O6 0.683263 0.398529 0.271017
O O7 0.952021 0.665579 0.089610
O O8 0.240035 0.432339 0.107263
O O9 0.021176 0.460369 0.163871
O O10 0.500000 0.048842 0.750000
#
# Coordination Sequence:
#
# PCOD9298319 Si02
#       5
#     8   4   8   8   8
#     4  10  24  44  66  98 133 177 222 272 331 394
#     4  10  26  40  68  94 132 170 224 268 344 394
#     4  10  26  42  67  98 132 172 222 273 336 395
#     4  10  25  39  68  93 131 171 218 271 327 390
#     4  10  26  43  68  97 133 175 221 278 336 407
#
# _framework density 22.526033000000002
#
# number of rings (size 3 to 8) (size 9 to 14) (size 15 to 20)
#    2.000    0.000    0.000    0.667   10.889    1.778 
#    0.000    0.000    0.000    0.000    0.000    0.000 
#    0.000    0.000    0.000    0.000    0.000    0.000 
#
# Total GULP energy -100511.046595 kJ/mol
# GULP energy per Si atom -5583.947033 kJ/mol
# Density = 2.247476 g / cm^3
# Si number density = 22.526033 Si / 1000 Ang^3
#
#
#
# Elastic Constant Matrix: (Units=GPa)
#
#
# Indices 1 2 3 4 5 6 
#
# 1 94.6885 45.3102 28.8997 0.0000 9.7299 0.0000
# 2 45.3102 118.8478 24.8050 0.0000 1.5571 0.0000
# 3 28.8997 24.8050 108.2883 0.0000 7.0956 0.0000
# 4 0.0000 0.0000 0.0000 1.5025 0.0000 12.9309
# 5 9.7299 1.5571 7.0956 0.0000 21.0837 0.0000
# 6 0.0000 0.0000 0.0000 12.9309 0.0000 25.5107
#
#
#
# Elastic Compliance Matrix: (Units=1/GPa)
#
#
# Indices 1 2 3 4 5 6 
#
# 1 0.014134 -0.004835 -0.002311 0.000000 -0.005388 0.000000
# 2 -0.004835 0.010491 -0.001235 0.000000 0.001872 0.000000
# 3 -0.002311 -0.001235 0.010285 0.000000 -0.002304 0.000000
# 4 0.000000 0.000000 0.000000 -0.197944 0.000000 0.100334
# 5 -0.005388 0.001872 -0.002304 0.000000 0.050553 0.000000
# 6 0.000000 0.000000 0.000000 0.100334 0.000000 -0.011658
#
#
# Mechanical properties :
#
#
# Convention : Reuss Voigt Hill
#
# Bulk Modulus (GPa) = 55.10891 57.76158 56.43524
# Shear Modulus (GPa) = -49.34602 24.47333 -12.43634
#
# Velocity S-wave (km/s) = -4.68549 3.29970 -2.35220
# Velocity P-wave (km/s) = 2.18038 6.34155 4.21077
#
# Compressibility (1/GPa) = 0.01814589
#
# Stress axis : x y z
#
# Youngs Moduli (GPa) = 70.75195 95.32045 97.22550
#
# Poissons Ratio (x) = 0.46092 0.22472
# Poissons Ratio (y) = 0.34212 0.12010
# Poissons Ratio (z) = 0.16353 0.11775
#
# Static dielectric constant tensor:
#      x y z
#    x 1.774950 0.000000 -0.046490 
#    y 0.000000 1.806150 0.000000 
#    z -0.046490 0.000000 1.824010 
# 
# From -- ./inp_files/306369.got.cif
#   From: 2010.05.17/outbox.cif.g08.bks.cpg/sg15_154_cif.got.tgz:306369.got - 2010.06.03 18:47:42.
