data_PCOD9298735
_publ_section_title
;
Structure prediction by ZEFSAII (Michael W. Deem and Ramdas Pophale) SiO2 
 PCOD9298735
Probable space group: C 2/C
;
_chemical_formula_sum "Si O2"
_cell_formula_units_Z 32
_cell_length_a 5.234335
_cell_length_b 22.218555
_cell_length_c 13.185048
_cell_angle_alpha 90.000000
_cell_angle_beta 117.602185
_cell_angle_gamma 90.000000
_cell_volume 1358.888681
_symmetry_space_group_name_H-M "C 2/C"
_symmetry_group_IT_number 15
_symmetry_cell_setting 'monoclinic'
loop_
_space_group_symop_operation_xyz
x,y,z
-x,y,1/2-z
-x,-y,-z
x,-y,1/2+z
1/2+x,1/2+y,z
1/2-x,1/2+y,1/2-z
1/2-x,1/2-y,-z
1/2+x,1/2-y,1/2+z
loop_
_atom_site_type_symbol
_atom_site_label
_atom_site_fract_x
_atom_site_fract_y
_atom_site_fract_z
Si Si1 0.802829 0.864872 0.351665
Si Si2 0.098585 0.026034 0.909631
Si Si3 0.500000 0.691928 0.250000
Si Si4 0.500000 0.268282 0.250000
Si Si5 0.173610 0.401157 0.555742
O O1 0.500000 0.845417 0.250000
O O2 0.789029 0.876036 0.468989
O O3 0.854656 0.932248 0.317946
O O4 0.017258 0.813797 0.349565
O O5 0.196953 0.964285 0.878097
O O6 0.350622 0.075150 0.974965
O O7 0.000000 0.000000 0.000000
O O8 0.291346 0.729717 0.287053
O O9 0.734352 0.650254 0.350153
#
# Coordination Sequence:
#
# PCOD9298735 Si02
#       5
#     8   8   4   4   8
#     4  11  23  46  72 103 140 191 241 296 351 433
#     4   9  21  41  73 108 139 182 232 291 375 419
#     4  12  30  47  72 105 146 190 246 292 358 422
#     4  12  28  49  68 107 138 204 244 286 358 414
#     4  10  24  45  71 108 143 184 233 303 362 429
#
# _framework density 23.548656000000001
#
# number of rings (size 3 to 8) (size 9 to 14) (size 15 to 20)
#    0.000    1.500    1.250    1.500    7.000    9.000 
#    0.000    0.000    0.000    0.000    0.000    0.000 
#    0.000    0.000    0.000    0.000    0.000    0.000 
#
# Total GULP energy -89181.272367 kJ/mol
# GULP energy per Si atom -5573.829523 kJ/mol
# Density = 2.349506 g / cm^3
# Si number density = 23.548656 Si / 1000 Ang^3
#
#
#
# Elastic Constant Matrix: (Units=GPa)
#
#
# Indices 1 2 3 4 5 6 
#
# 1 123.7969 75.0830 27.0170 0.0000 -5.3888 0.0000
# 2 75.0830 170.1097 43.7734 0.0000 3.5800 0.0000
# 3 27.0170 43.7734 69.2833 0.0000 -7.4629 0.0000
# 4 0.0000 0.0000 0.0000 295.1918 0.0000 98.9012
# 5 -5.3888 3.5800 -7.4629 0.0000 26.1756 0.0000
# 6 0.0000 0.0000 0.0000 98.9012 0.0000 67.4323
#
#
#
# Elastic Compliance Matrix: (Units=1/GPa)
#
#
# Indices 1 2 3 4 5 6 
#
# 1 0.011330 -0.004770 -0.001118 0.000000 0.002666 0.000000
# 2 -0.004770 0.009164 -0.004303 0.000000 -0.003462 0.000000
# 3 -0.001118 -0.004303 0.018185 0.000000 0.005543 0.000000
# 4 0.000000 0.000000 0.000000 0.006661 0.000000 -0.009769
# 5 0.002666 -0.003462 0.005543 0.000000 0.040806 0.000000
# 6 0.000000 0.000000 0.000000 -0.009769 0.000000 0.029158
#
#
# Mechanical properties :
#
#
# Convention : Reuss Voigt Hill
#
# Bulk Modulus (GPa) = 54.64724 72.77077 63.70900
# Shear Modulus (GPa) = 35.26504 92.24769 63.75636
#
# Velocity S-wave (km/s) = 3.87400 6.26564 5.20894
# Velocity P-wave (km/s) = 6.57777 9.12764 7.95553
#
# Compressibility (1/GPa) = 0.01829919
#
# Stress axis : x y z
#
# Youngs Moduli (GPa) = 88.25763 109.12496 54.99065
#
# Poissons Ratio (x) = 0.52048 0.06146
# Poissons Ratio (y) = 0.42095 0.23661
# Poissons Ratio (z) = 0.09865 0.46954
#
# Static dielectric constant tensor:
#      x y z
#    x 2.048940 0.000000 -0.018650 
#    y 0.000000 1.926350 0.000000 
#    z -0.018650 0.000000 1.926310 
# 
# From -- ./inp_files/72257.got.cif
#   From: 2010.05.17/outbox.cif.g08.bks.cpg/sg15_37_cif.got.tgz:72257.got - 2010.06.03 18:47:42.
