data_PCOD9298856
_publ_section_title
;
Structure prediction by ZEFSAII (Michael W. Deem and Ramdas Pophale) SiO2 
 PCOD9298856
Probable space group: C 2/C
;
_chemical_formula_sum "Si O2"
_cell_formula_units_Z 48
_cell_length_a 15.655309
_cell_length_b 13.882132
_cell_length_c 12.356097
_cell_angle_alpha 90.000000
_cell_angle_beta 57.611617
_cell_angle_gamma 90.000000
_cell_volume 2267.598417
_symmetry_space_group_name_H-M "C 2/C"
_symmetry_group_IT_number 15
_symmetry_cell_setting 'monoclinic'
loop_
_space_group_symop_operation_xyz
x,y,z
-x,y,1/2-z
-x,-y,-z
x,-y,1/2+z
1/2+x,1/2+y,z
1/2-x,1/2+y,1/2-z
1/2-x,1/2-y,-z
1/2+x,1/2-y,1/2+z
loop_
_atom_site_type_symbol
_atom_site_label
_atom_site_fract_x
_atom_site_fract_y
_atom_site_fract_z
Si Si1 0.274452 0.639754 0.945000
Si Si2 0.938886 0.905033 0.503644
Si Si3 0.647579 0.678471 0.842414
Si Si4 0.756010 0.363575 0.476598
Si Si5 0.744414 0.109832 0.282452
Si Si6 0.616765 0.982082 0.683244
O O1 0.300938 0.637053 0.800607
O O2 0.250000 0.750000 0.000000
O O3 0.371829 0.596085 0.940766
O O4 0.178937 0.581174 0.054410
O O5 0.853040 0.882855 0.650961
O O6 0.026750 0.826761 0.424218
O O7 0.000000 0.000000 0.500000
O O8 0.681513 0.620323 0.926518
O O9 0.688548 0.786930 0.820144
O O10 0.750000 0.250000 0.500000
O O11 0.735899 0.412677 0.605429
O O12 0.861141 0.406975 0.362619
O O13 0.669771 0.042593 0.262255
O O14 0.500000 0.959478 0.750000
#
# Coordination Sequence:
#
# PCOD9298856 Si02
#       6
#     8   8   8   8   8   8
#     4  11  23  43  71 109 148 181 240 307 360 440
#     4  11  24  42  69 104 143 194 240 296 370 443
#     4  11  22  44  71 100 146 187 235 297 368 432
#     4  10  25  49  67  96 148 189 231 299 362 446
#     4  10  24  46  67 104 144 182 245 298 364 443
#     4  11  25  43  73 105 139 184 243 302 367 432
#
# _framework density 21.167769
#
# number of rings (size 3 to 8) (size 9 to 14) (size 15 to 20)
#    0.000    1.333    3.333    2.500    7.000    1.333 
#   15.000    0.000    0.000    0.000    0.000    0.000 
#    0.000    0.000    0.000    0.000    0.000    0.000 
#
# Total GULP energy -133932.760411 kJ/mol
# GULP energy per Si atom -5580.531684 kJ/mol
# Density = 2.111959 g / cm^3
# Si number density = 21.167769 Si / 1000 Ang^3
#
#
#
# Elastic Constant Matrix: (Units=GPa)
#
#
# Indices 1 2 3 4 5 6 
#
# 1 157.4461 50.1137 110.8654 0.0000 -16.0947 0.0000
# 2 50.1137 109.9002 32.4756 0.0000 -7.2239 0.0000
# 3 110.8654 32.4756 148.2831 0.0000 23.0189 0.0000
# 4 0.0000 0.0000 0.0000 30.1740 0.0000 -11.2728
# 5 -16.0947 -7.2239 23.0189 0.0000 57.1785 0.0000
# 6 0.0000 0.0000 0.0000 -11.2728 0.0000 28.7789
#
#
#
# Elastic Compliance Matrix: (Units=1/GPa)
#
#
# Indices 1 2 3 4 5 6 
#
# 1 0.019784 -0.003604 -0.015782 0.000000 0.011467 0.000000
# 2 -0.003604 0.010658 0.000329 0.000000 0.000200 0.000000
# 3 -0.015782 0.000329 0.020432 0.000000 -0.012626 0.000000
# 4 0.000000 0.000000 0.000000 0.038822 0.000000 0.015207
# 5 0.011467 0.000200 -0.012626 0.000000 0.025825 0.000000
# 6 0.000000 0.000000 0.000000 0.015207 0.000000 0.040704
#
#
# Mechanical properties :
#
#
# Convention : Reuss Voigt Hill
#
# Bulk Modulus (GPa) = 78.37180 89.17097 83.77139
# Shear Modulus (GPa) = 25.17713 38.03794 31.60754
#
# Velocity S-wave (km/s) = 3.45252 4.24367 3.86838
# Velocity P-wave (km/s) = 7.27995 8.13812 7.72097
#
# Compressibility (1/GPa) = 0.01275969
#
# Stress axis : x y z
#
# Youngs Moduli (GPa) = 50.54645 93.82330 48.94358
#
# Poissons Ratio (x) = 0.33812 0.77245
# Poissons Ratio (y) = 0.18216 -0.01611
# Poissons Ratio (z) = 0.79774 -0.03088
#
# Static dielectric constant tensor:
#      x y z
#    x 1.774860 0.000000 0.040030 
#    y 0.000000 1.884530 0.000000 
#    z 0.040030 0.000000 1.766850 
# 
# From -- ./inp_files/96839.got.cif
#   From: 2010.05.17/outbox.cif.g08.bks.cpg/sg15_49_cif.got.tgz:96839.got - 2010.06.03 18:47:42.
