data_PCOD9298237
_publ_section_title
;
Structure prediction by ZEFSAII (Michael W. Deem and Ramdas Pophale) SiO2 
 PCOD9298237
Probable space group: C 2/C
;
_chemical_formula_sum "Si O2"
_cell_formula_units_Z 52
_cell_length_a 26.901697
_cell_length_b 11.417962
_cell_length_c 8.896018
_cell_angle_alpha 90.000000
_cell_angle_beta 120.643702
_cell_angle_gamma 90.000000
_cell_volume 2350.936275
_symmetry_space_group_name_H-M "C 2/C"
_symmetry_group_IT_number 15
_symmetry_cell_setting 'monoclinic'
loop_
_space_group_symop_operation_xyz
x,y,z
-x,y,1/2-z
-x,-y,-z
x,-y,1/2+z
1/2+x,1/2+y,z
1/2-x,1/2+y,1/2-z
1/2-x,1/2-y,-z
1/2+x,1/2-y,1/2+z
loop_
_atom_site_type_symbol
_atom_site_label
_atom_site_fract_x
_atom_site_fract_y
_atom_site_fract_z
Si Si1 0.079514 0.434269 0.126991
Si Si2 0.611019 0.794553 0.706901
Si Si3 0.839613 0.035673 0.177724
Si Si4 0.294284 0.336893 0.313130
Si Si5 0.836166 0.745700 0.881213
Si Si6 0.962254 0.914747 0.339625
Si Si7 0.500000 0.018643 0.750000
O O1 0.097590 0.569265 0.175106
O O2 0.132174 0.351214 0.171750
O O3 0.044292 0.404380 0.222391
O O4 0.035462 0.437875 0.919373
O O5 0.656673 0.757597 0.650523
O O6 0.556098 0.708127 0.612783
O O7 0.638622 0.768135 0.912939
O O8 0.848884 0.130049 0.324429
O O9 0.800930 0.932835 0.190417
O O10 0.901012 0.981622 0.221845
O O11 0.808935 0.099233 0.991712
O O12 0.231827 0.279001 0.219982
O O13 0.000000 0.891906 0.250000
O O14 0.000000 0.000000 0.500000
#
# Coordination Sequence:
#
# PCOD9298237 Si02
#       7
#     8   8   8   8   8   8   4
#     4  11  25  44  69 101 138 184 236 276 360 415
#     4  11  25  45  68 105 137 181 235 286 349 422
#     4  11  25  46  65 109 135 179 241 288 350 425
#     4  11  26  44  73  98 143 179 230 299 348 416
#     4  12  26  44  74  99 141 189 231 289 352 421
#     4  11  23  43  71  96 132 178 223 286 347 405
#     4  10  24  44  62  94 140 178 218 288 324 418
#
# _framework density 22.118846999999999
#
# number of rings (size 3 to 8) (size 9 to 14) (size 15 to 20)
#    0.000    0.923    1.538    5.538    7.538    2.462 
#    2.769    0.000    0.000    0.000    0.000    0.000 
#    0.000    0.000    0.000    0.000    0.000    0.000 
#
# Total GULP energy -145627.743091 kJ/mol
# GULP energy per Si atom -5601.067042 kJ/mol
# Density = 2.206850 g / cm^3
# Si number density = 22.118847 Si / 1000 Ang^3
#
#
#
# Elastic Constant Matrix: (Units=GPa)
#
#
# Indices 1 2 3 4 5 6 
#
# 1 151.0298 48.8786 16.5693 0.0000 -1.2583 0.0000
# 2 48.8786 115.4217 10.2860 0.0000 8.1514 0.0000
# 3 16.5693 10.2860 57.1008 0.0000 -7.4161 0.0000
# 4 0.0000 0.0000 0.0000 21.1254 0.0000 -17.2723
# 5 -1.2583 8.1514 -7.4161 0.0000 24.6120 0.0000
# 6 0.0000 0.0000 0.0000 -17.2723 0.0000 -14.1560
#
#
#
# Elastic Compliance Matrix: (Units=1/GPa)
#
#
# Indices 1 2 3 4 5 6 
#
# 1 0.007856 -0.003259 -0.001561 0.000000 0.001011 0.000000
# 2 -0.003259 0.010463 -0.001468 0.000000 -0.004074 0.000000
# 3 -0.001561 -0.001468 0.019028 0.000000 0.006140 0.000000
# 4 0.000000 0.000000 0.000000 0.023697 0.000000 -0.028913
# 5 0.001011 -0.004074 0.006140 0.000000 0.043882 0.000000
# 6 0.000000 0.000000 0.000000 -0.028913 0.000000 -0.035363
#
#
# Mechanical properties :
#
#
# Convention : Reuss Voigt Hill
#
# Bulk Modulus (GPa) = 40.37247 52.78000 46.57624
# Shear Modulus (GPa) = 55.31335 22.83751 39.07543
#
# Velocity S-wave (km/s) = 5.00616 3.21673 4.20767
# Velocity P-wave (km/s) = 7.19080 6.14087 6.68647
#
# Compressibility (1/GPa) = 0.02476935
#
# Stress axis : x y z
#
# Youngs Moduli (GPa) = 127.29757 95.57914 52.55461
#
# Poissons Ratio (x) = 0.31148 0.08205
# Poissons Ratio (y) = 0.41485 0.07716
# Poissons Ratio (z) = 0.19874 0.14033
#
# Static dielectric constant tensor:
#      x y z
#    x 1.793870 0.000000 -0.018020 
#    y 0.000000 1.785190 0.000000 
#    z -0.018020 0.000000 1.815380 
# 
# From -- ./inp_files/65594.got.cif
#   From: 2010.05.17/outbox.cif.g08.bks.cpg/sg15_33_cif.got.tgz:65594.got - 2010.06.03 18:47:42.
