data_PCOD9298269
_publ_section_title
;
Structure prediction by ZEFSAII (Michael W. Deem and Ramdas Pophale) SiO2 
 PCOD9298269
Probable space group: C 2/C
;
_chemical_formula_sum "Si O2"
_cell_formula_units_Z 52
_cell_length_a 23.450093
_cell_length_b 8.843455
_cell_length_c 12.499547
_cell_angle_alpha 90.000000
_cell_angle_beta 76.353300
_cell_angle_gamma 90.000000
_cell_volume 2518.975036
_symmetry_space_group_name_H-M "C 2/C"
_symmetry_group_IT_number 15
_symmetry_cell_setting 'monoclinic'
loop_
_space_group_symop_operation_xyz
x,y,z
-x,y,1/2-z
-x,-y,-z
x,-y,1/2+z
1/2+x,1/2+y,z
1/2-x,1/2+y,1/2-z
1/2-x,1/2-y,-z
1/2+x,1/2-y,1/2+z
loop_
_atom_site_type_symbol
_atom_site_label
_atom_site_fract_x
_atom_site_fract_y
_atom_site_fract_z
Si Si1 0.000000 0.000000 0.500000
Si Si2 0.874050 0.535746 0.698230
Si Si3 0.613740 0.460570 0.308500
Si Si4 0.690632 0.717850 0.164948
Si Si5 0.066955 0.704202 0.182919
Si Si6 0.671909 0.210295 0.431607
Si Si7 0.027957 0.332729 0.468332
O O1 0.941040 0.980751 0.598112
O O2 0.985383 0.187309 0.486903
O O3 0.819157 0.634173 0.758308
O O4 0.891916 0.421044 0.783671
O O5 0.861703 0.435913 0.598797
O O6 0.929660 0.642754 0.650858
O O7 0.655701 0.585308 0.239079
O O8 0.585942 0.363789 0.223527
O O9 0.650970 0.349485 0.367840
O O10 0.758863 0.683731 0.118156
O O11 0.663674 0.753433 0.059922
O O12 0.000000 0.675665 0.250000
O O13 0.066836 0.703664 0.056162
O O14 0.000000 0.500000 0.500000
#
# Coordination Sequence:
#
# PCOD9298269 Si02
#       7
#     4   8   8   8   8   8   8
#     4  12  24  40  64  98 136 176 218 272 334 424
#     4  11  22  41  65  91 129 176 220 270 343 403
#     4  11  24  42  64  95 137 172 217 288 342 406
#     4  11  23  42  69  94 125 181 226 283 354 402
#     4  11  22  40  59  91 133 172 212 269 329 402
#     4  10  24  44  64  97 132 166 238 290 330 417
#     4  12  23  42  63  93 135 174 218 268 325 404
#
# _framework density 20.643318000000001
#
# number of rings (size 3 to 8) (size 9 to 14) (size 15 to 20)
#    0.000    0.923    4.615    2.769    2.154    0.000 
#    0.000    2.308    0.000   10.154    0.000    0.000 
#    0.000    0.000    0.000    0.000    0.000    0.000 
#
# Total GULP energy -144766.006145 kJ/mol
# GULP energy per Si atom -5567.923313 kJ/mol
# Density = 2.059633 g / cm^3
# Si number density = 20.643318 Si / 1000 Ang^3
#
#
#
# Elastic Constant Matrix: (Units=GPa)
#
#
# Indices 1 2 3 4 5 6 
#
# 1 49.5828 24.7404 17.8959 0.0000 -3.9599 0.0000
# 2 24.7404 120.2669 31.9659 0.0000 -9.1523 0.0000
# 3 17.8959 31.9659 86.5090 0.0000 -5.4856 0.0000
# 4 0.0000 0.0000 0.0000 28.9236 0.0000 -16.7863
# 5 -3.9599 -9.1523 -5.4856 0.0000 37.4761 0.0000
# 6 0.0000 0.0000 0.0000 -16.7863 0.0000 14.2977
#
#
#
# Elastic Compliance Matrix: (Units=1/GPa)
#
#
# Indices 1 2 3 4 5 6 
#
# 1 0.023377 -0.003839 -0.003351 0.000000 0.001042 0.000000
# 2 -0.003839 0.009969 -0.002787 0.000000 0.001621 0.000000
# 3 -0.003351 -0.002787 0.013341 0.000000 0.000918 0.000000
# 4 0.000000 0.000000 0.000000 0.108512 0.000000 0.127398
# 5 0.001042 0.001621 0.000918 0.000000 0.027324 0.000000
# 6 0.000000 0.000000 0.000000 0.127398 0.000000 0.219514
#
#
# Mechanical properties :
#
#
# Convention : Reuss Voigt Hill
#
# Bulk Modulus (GPa) = 37.40777 45.06257 41.23517
# Shear Modulus (GPa) = 11.60363 28.25656 19.93010
#
# Velocity S-wave (km/s) = 2.37344 3.70374 3.11054
# Velocity P-wave (km/s) = 5.06669 6.33773 5.73751
#
# Compressibility (1/GPa) = 0.02673241
#
# Stress axis : x y z
#
# Youngs Moduli (GPa) = 42.77789 100.31565 74.95894
#
# Poissons Ratio (x) = 0.38509 0.25121
# Poissons Ratio (y) = 0.16422 0.20888
# Poissons Ratio (z) = 0.14336 0.27954
#
# Static dielectric constant tensor:
#      x y z
#    x 1.742520 0.000000 0.020990 
#    y 0.000000 1.785420 0.000000 
#    z 0.020990 0.000000 1.718880 
# 
# From -- ./inp_files/121437.got.cif
#   From: 2010.05.17/outbox.cif.g08.bks.cpg/sg15_61_cif.got.tgz:121437.got - 2010.06.03 18:47:42.
