data_PCOD9298202
_publ_section_title
;
Structure prediction by ZEFSAII (Michael W. Deem and Ramdas Pophale) SiO2 
 PCOD9298202
Probable space group: C 2/C
;
_chemical_formula_sum "Si O2"
_cell_formula_units_Z 48
_cell_length_a 25.737492
_cell_length_b 5.136692
_cell_length_c 21.480340
_cell_angle_alpha 90.000000
_cell_angle_beta 134.261880
_cell_angle_gamma 90.000000
_cell_volume 2033.758080
_symmetry_space_group_name_H-M "C 2/C"
_symmetry_group_IT_number 15
_symmetry_cell_setting 'monoclinic'
loop_
_space_group_symop_operation_xyz
x,y,z
-x,y,1/2-z
-x,-y,-z
x,-y,1/2+z
1/2+x,1/2+y,z
1/2-x,1/2+y,1/2-z
1/2-x,1/2-y,-z
1/2+x,1/2-y,1/2+z
loop_
_atom_site_type_symbol
_atom_site_label
_atom_site_fract_x
_atom_site_fract_y
_atom_site_fract_z
Si Si1 0.203069 0.249287 0.363589
Si Si2 0.730778 0.469357 0.692741
Si Si3 0.069341 0.811680 0.553441
Si Si4 0.463670 0.815312 0.605608
Si Si5 0.556199 0.292099 0.682272
Si Si6 0.689696 0.057123 0.475552
O O1 0.225201 0.473534 0.333536
O O2 0.131130 0.121510 0.276030
O O3 0.181160 0.348629 0.413436
O O4 0.274169 0.074269 0.433618
O O5 0.754522 0.206154 0.747270
O O6 0.645528 0.454950 0.605221
O O7 0.054469 0.626053 0.482550
O O8 0.076692 0.704227 0.629149
O O9 0.000000 0.000000 0.500000
O O10 0.502383 0.536646 0.639271
O O11 0.386581 0.812258 0.574645
O O12 0.515573 0.040335 0.675557
O O13 0.750000 0.250000 0.500000
#
# Coordination Sequence:
#
# PCOD9298202 Si02
#       6
#     8   8   8   8   8   8
#     4  11  28  48  76 108 148 192 254 302 371 434
#     4  12  28  45  78 112 146 192 245 308 374 441
#     4  10  24  43  74 107 152 187 241 297 371 436
#     4  11  27  47  75 107 148 196 244 295 375 438
#     4  11  26  47  73 111 149 190 242 309 366 440
#     4  11  28  50  77 103 147 201 250 311 359 445
#
# _framework density 23.601628999999999
#
# number of rings (size 3 to 8) (size 9 to 14) (size 15 to 20)
#    0.000    1.000    1.667    1.500   21.000    0.667 
#    0.000    0.000    0.000    0.000    0.000    0.000 
#    0.000    0.000    0.000    0.000    0.000    0.000 
#
# Total GULP energy -134335.816937 kJ/mol
# GULP energy per Si atom -5597.325706 kJ/mol
# Density = 2.354791 g / cm^3
# Si number density = 23.601629 Si / 1000 Ang^3
#
#
#
# Elastic Constant Matrix: (Units=GPa)
#
#
# Indices 1 2 3 4 5 6 
#
# 1 114.1793 15.3785 33.2637 0.0006 30.4047 0.0263
# 2 15.3785 73.8506 6.3316 0.0117 9.8716 0.0763
# 3 33.2637 6.3316 101.0909 0.0013 17.5229 0.0132
# 4 0.0006 0.0117 0.0013 1.4974 0.0003 12.3225
# 5 30.4047 9.8716 17.5229 0.0003 37.3963 -0.0047
# 6 0.0263 0.0763 0.0132 12.3225 -0.0047 36.1607
#
#
#
# Elastic Compliance Matrix: (Units=1/GPa)
#
#
# Indices 1 2 3 4 5 6 
#
# 1 0.011782 -0.001159 -0.002391 -0.000033 -0.008153 0.000005
# 2 -0.001159 0.014156 -0.000023 -0.000073 -0.002784 -0.000004
# 3 -0.002391 -0.000023 0.011257 -0.000008 -0.003325 0.000000
# 4 -0.000033 -0.000073 -0.000008 -0.370134 0.000070 0.126130
# 5 -0.008153 -0.002784 -0.003325 0.000070 0.035662 -0.000006
# 6 0.000005 -0.000004 0.000000 0.126130 -0.000006 -0.015327
#
#
# Mechanical properties :
#
#
# Convention : Reuss Voigt Hill
#
# Bulk Modulus (GPa) = 33.27818 44.34092 38.80955
# Shear Modulus (GPa) = -16.92375 30.62070 6.84848
#
# Velocity S-wave (km/s) = -2.68070 3.60585 1.70528
# Velocity P-wave (km/s) = 2.13284 6.01367 4.51183
#
# Compressibility (1/GPa) = 0.03004972
#
# Stress axis : x y z
#
# Youngs Moduli (GPa) = 84.87683 70.64016 88.83732
#
# Poissons Ratio (x) = 0.08185 0.21241
# Poissons Ratio (y) = 0.09834 0.00202
# Poissons Ratio (z) = 0.20294 0.00161
#
# Static dielectric constant tensor:
#      x y z
#    x 1.883290 0.000010 -0.040450 
#    y 0.000010 1.905410 0.000000 
#    z -0.040450 0.000000 1.923460 
# 
# From -- ./inp_files/254445.got.cif
#   From: 2010.05.17/outbox.cif.g08.bks.cpg/sg15_128_cif.got.tgz:254445.got - 2010.06.03 18:47:42.
