data_PCOD9298124
_publ_section_title
;
Structure prediction by ZEFSAII (Michael W. Deem and Ramdas Pophale) SiO2 
 PCOD9298124
Probable space group: C 2/C
;
_chemical_formula_sum "Si O2"
_cell_formula_units_Z 48
_cell_length_a 21.918844
_cell_length_b 11.211285
_cell_length_c 14.188482
_cell_angle_alpha 90.000000
_cell_angle_beta 36.597925
_cell_angle_gamma 90.000000
_cell_volume 2078.729046
_symmetry_space_group_name_H-M "C 2/C"
_symmetry_group_IT_number 15
_symmetry_cell_setting 'monoclinic'
loop_
_space_group_symop_operation_xyz
x,y,z
-x,y,1/2-z
-x,-y,-z
x,-y,1/2+z
1/2+x,1/2+y,z
1/2-x,1/2+y,1/2-z
1/2-x,1/2-y,-z
1/2+x,1/2-y,1/2+z
loop_
_atom_site_type_symbol
_atom_site_label
_atom_site_fract_x
_atom_site_fract_y
_atom_site_fract_z
Si Si1 0.889730 0.412841 0.665854
Si Si2 0.487802 0.287100 0.160434
Si Si3 0.993404 0.616356 0.651458
Si Si4 0.668673 0.521778 0.453071
Si Si5 0.652126 0.332668 0.639498
Si Si6 0.882716 0.027883 0.676843
O O1 0.971002 0.321174 0.610460
O O2 0.920297 0.539205 0.674181
O O3 0.772421 0.405316 0.841084
O O4 0.902722 0.393336 0.537677
O O5 0.500000 0.236624 0.250000
O O6 0.393002 0.370925 0.244041
O O7 0.582549 0.378513 0.042886
O O8 0.945412 0.747581 0.722830
O O9 0.000000 0.568790 0.750000
O O10 0.640726 0.427469 0.568714
O O11 0.676402 0.446207 0.346118
O O12 0.750000 0.250000 0.500000
O O13 0.664144 0.411892 0.717307
O O14 0.000000 0.000000 0.500000
#
# Coordination Sequence:
#
# PCOD9298124 Si02
#       6
#     8   8   8   8   8   8
#     4  11  26  49  68 112 151 201 245 310 382 445
#     4  11  23  46  73 100 149 201 249 306 372 453
#     4  11  26  45  72 104 158 194 243 313 379 446
#     4  11  25  45  73 111 149 196 259 309 375 449
#     4  12  25  46  77 113 142 196 256 310 369 455
#     4  10  24  43  69 108 146 191 247 307 366 439
#
# _framework density 23.091034000000001
#
# number of rings (size 3 to 8) (size 9 to 14) (size 15 to 20)
#    0.000    1.000    3.333    2.500    9.333    0.667 
#    6.000    0.000    0.000    0.000    0.000    0.000 
#    0.000    0.000    0.000    0.000    0.000    0.000 
#
# Total GULP energy -133881.806281 kJ/mol
# GULP energy per Si atom -5578.408595 kJ/mol
# Density = 2.303848 g / cm^3
# Si number density = 23.091034 Si / 1000 Ang^3
#
#
#
# Elastic Constant Matrix: (Units=GPa)
#
#
# Indices 1 2 3 4 5 6 
#
# 1 108.1946 46.2429 42.2511 0.0000 32.4462 0.0000
# 2 46.2429 104.6821 51.6269 0.0000 10.8817 0.0000
# 3 42.2511 51.6269 85.0528 0.0000 20.6532 0.0000
# 4 0.0000 0.0000 0.0000 41.2468 0.0000 3.9886
# 5 32.4462 10.8817 20.6532 0.0000 44.3217 0.0000
# 6 0.0000 0.0000 0.0000 3.9886 0.0000 32.5860
#
#
#
# Elastic Compliance Matrix: (Units=1/GPa)
#
#
# Indices 1 2 3 4 5 6 
#
# 1 0.014629 -0.004299 -0.002609 0.000000 -0.008438 0.000000
# 2 -0.004299 0.014910 -0.007657 0.000000 0.003054 0.000000
# 3 -0.002609 -0.007657 0.018922 0.000000 -0.005027 0.000000
# 4 0.000000 0.000000 0.000000 0.024535 0.000000 -0.003003
# 5 -0.008438 0.003054 -0.005027 0.000000 0.030333 0.000000
# 6 0.000000 0.000000 0.000000 -0.003003 0.000000 0.031056
#
#
# Mechanical properties :
#
#
# Convention : Reuss Voigt Hill
#
# Bulk Modulus (GPa) = 51.72541 64.24124 57.98332
# Shear Modulus (GPa) = 29.41919 34.15149 31.78534
#
# Velocity S-wave (km/s) = 3.57326 3.84994 3.71418
# Velocity P-wave (km/s) = 6.28280 6.90246 6.59991
#
# Compressibility (1/GPa) = 0.01933286
#
# Stress axis : x y z
#
# Youngs Moduli (GPa) = 68.35631 67.06784 52.84888
#
# Poissons Ratio (x) = 0.28829 0.13788
# Poissons Ratio (y) = 0.29383 0.40465
# Poissons Ratio (z) = 0.17834 0.51352
#
# Static dielectric constant tensor:
#      x y z
#    x 1.911970 0.000000 0.010680 
#    y 0.000000 1.844700 0.000000 
#    z 0.010680 0.000000 1.937410 
# 
# From -- ./inp_files/167833.got.cif
#   From: 2010.05.17/outbox.cif.g08.bks.cpg/sg15_84_cif.got.tgz:167833.got - 2010.06.03 18:47:42.
