data_PCOD9298423
_publ_section_title
;
Structure prediction by ZEFSAII (Michael W. Deem and Ramdas Pophale) SiO2 
 PCOD9298423
Probable space group: C 2/C
;
_chemical_formula_sum "Si O2"
_cell_formula_units_Z 56
_cell_length_a 14.434303
_cell_length_b 11.657803
_cell_length_c 14.294957
_cell_angle_alpha 90.000000
_cell_angle_beta 96.572451
_cell_angle_gamma 90.000000
_cell_volume 2389.635945
_symmetry_space_group_name_H-M "C 2/C"
_symmetry_group_IT_number 15
_symmetry_cell_setting 'monoclinic'
loop_
_space_group_symop_operation_xyz
x,y,z
-x,y,1/2-z
-x,-y,-z
x,-y,1/2+z
1/2+x,1/2+y,z
1/2-x,1/2+y,1/2-z
1/2-x,1/2-y,-z
1/2+x,1/2-y,1/2+z
loop_
_atom_site_type_symbol
_atom_site_label
_atom_site_fract_x
_atom_site_fract_y
_atom_site_fract_z
Si Si1 0.616072 0.145385 0.665136
Si Si2 0.733269 0.348702 0.625646
Si Si3 0.918072 0.795183 0.168332
Si Si4 0.790904 0.015676 0.189663
Si Si5 0.735714 0.423268 0.018377
Si Si6 0.463429 0.370612 0.487678
Si Si7 0.579842 0.185864 0.875093
O O1 0.663966 0.241658 0.605698
O O2 0.690553 0.045494 0.682756
O O3 0.604205 0.194471 0.769031
O O4 0.512661 0.107335 0.624322
O O5 0.835101 0.296460 0.656223
O O6 0.698542 0.415265 0.713881
O O7 0.737217 0.441568 0.543662
O O8 0.869462 0.917681 0.187185
O O9 0.000000 0.767870 0.250000
O O10 0.969592 0.806946 0.075652
O O11 0.783557 0.088960 0.093934
O O12 0.644133 0.373989 0.059344
O O13 0.830503 0.364048 0.061676
O O14 0.500000 0.500000 0.500000
O O15 0.457511 0.303726 0.584668
#
# Coordination Sequence:
#
# PCOD9298423 Si02
#       7
#     8   8   8   8   8   8   8
#     4  10  24  44  69  99 142 181 234 279 347 416
#     4  11  25  46  69 102 138 183 230 290 341 413
#     4  11  27  44  71 103 139 181 231 285 344 414
#     4  11  24  46  72 103 139 183 229 288 350 408
#     4  12  25  44  75 100 142 182 229 287 352 406
#     4  12  25  46  70 104 137 177 233 284 342 415
#     4  11  25  44  70 102 136 187 229 285 344 414
#
# _framework density 23.434531
#
# number of rings (size 3 to 8) (size 9 to 14) (size 15 to 20)
#    0.000    0.857    2.857    3.000    6.000    2.857 
#    0.000    0.000    0.000    0.000    0.000    0.000 
#    0.000    0.000    0.000    0.000    0.000    0.000 
#
# Total GULP energy -156778.140805 kJ/mol
# GULP energy per Si atom -5599.219314 kJ/mol
# Density = 2.338119 g / cm^3
# Si number density = 23.434531 Si / 1000 Ang^3
#
#
#
# Elastic Constant Matrix: (Units=GPa)
#
#
# Indices 1 2 3 4 5 6 
#
# 1 156.1468 2.9665 11.1583 0.0000 -2.0904 0.0000
# 2 2.9665 25.5238 -0.1333 0.0000 -17.8060 0.0000
# 3 11.1583 -0.1333 87.4429 0.0000 -15.8965 0.0000
# 4 0.0000 0.0000 0.0000 28.9983 0.0000 -9.5657
# 5 -2.0904 -17.8060 -15.8965 0.0000 37.2866 0.0000
# 6 0.0000 0.0000 0.0000 -9.5657 0.0000 26.9495
#
#
#
# Elastic Compliance Matrix: (Units=1/GPa)
#
#
# Indices 1 2 3 4 5 6 
#
# 1 0.006486 -0.001176 -0.000938 0.000000 -0.000598 0.000000
# 2 -0.001176 0.061634 0.006052 0.000000 0.031947 0.000000
# 3 -0.000938 0.006052 0.013096 0.000000 0.008421 0.000000
# 4 0.000000 0.000000 0.000000 0.039058 0.000000 0.013864
# 5 -0.000598 0.031947 0.008421 0.000000 0.045632 0.000000
# 6 0.000000 0.000000 0.000000 0.013864 0.000000 0.042027
#
#
# Mechanical properties :
#
#
# Convention : Reuss Voigt Hill
#
# Bulk Modulus (GPa) = 11.22438 33.01071 22.11755
# Shear Modulus (GPa) = 21.76239 35.65502 28.70871
#
# Velocity S-wave (km/s) = 3.05068 3.90484 3.50388
# Velocity P-wave (km/s) = 4.14836 5.86918 5.08214
#
# Compressibility (1/GPa) = 0.08909174
#
# Stress axis : x y z
#
# Youngs Moduli (GPa) = 154.18774 16.22471 76.36061
#
# Poissons Ratio (x) = 0.01908 0.07163
# Poissons Ratio (y) = 0.18128 -0.46212
# Poissons Ratio (z) = 0.14464 -0.09819
#
# Static dielectric constant tensor:
#      x y z
#    x 1.890350 0.000000 0.011960 
#    y 0.000000 1.890820 0.000000 
#    z 0.011960 0.000000 1.880440 
# 
# From -- ./inp_files/152600.got.cif
#   From: 2010.05.17/outbox.cif.g08.bks.cpg/sg15_77_cif.got.tgz:152600.got - 2010.06.03 18:47:42.
