data_PCOD9298928
_publ_section_title
;
Structure prediction by ZEFSAII (Michael W. Deem and Ramdas Pophale) SiO2 
 PCOD9298928
Probable space group: C 2/C
;
_chemical_formula_sum "Si O2"
_cell_formula_units_Z 52
_cell_length_a 22.252340
_cell_length_b 5.730157
_cell_length_c 19.693566
_cell_angle_alpha 90.000000
_cell_angle_beta 78.557918
_cell_angle_gamma 90.000000
_cell_volume 2461.208264
_symmetry_space_group_name_H-M "C 2/C"
_symmetry_group_IT_number 15
_symmetry_cell_setting 'monoclinic'
loop_
_space_group_symop_operation_xyz
x,y,z
-x,y,1/2-z
-x,-y,-z
x,-y,1/2+z
1/2+x,1/2+y,z
1/2-x,1/2+y,1/2-z
1/2-x,1/2-y,-z
1/2+x,1/2-y,1/2+z
loop_
_atom_site_type_symbol
_atom_site_label
_atom_site_fract_x
_atom_site_fract_y
_atom_site_fract_z
Si Si1 0.699055 0.502548 0.833681
Si Si2 0.598857 0.996031 0.152536
Si Si3 0.500000 0.674688 0.750000
Si Si4 0.279938 0.262931 0.418721
Si Si5 0.992213 0.410719 0.077310
Si Si6 0.940623 0.918214 0.128160
Si Si7 0.189383 0.845758 0.682576
O O1 0.727789 0.295980 0.873413
O O2 0.631276 0.569651 0.869542
O O3 0.748994 0.698309 0.834312
O O4 0.693886 0.470434 0.753889
O O5 0.555475 0.174464 0.203789
O O6 0.660412 0.098712 0.103790
O O7 0.555380 0.893234 0.104646
O O8 0.628136 0.808217 0.196524
O O9 0.532984 0.532505 0.802222
O O10 0.250000 0.250000 0.500000
O O11 0.308696 0.504359 0.386255
O O12 0.965307 0.147886 0.082782
O O13 0.958004 0.642248 0.115693
O O14 0.000000 0.500000 0.000000
#
# Coordination Sequence:
#
# PCOD9298928 Si02
#       7
#     8   8   4   8   8   8   8
#     4  11  25  41  71 101 139 189 241 309 364 448
#     4  10  26  44  71 105 145 190 246 311 367 450
#     4  10  24  46  70 110 140 188 242 308 378 428
#     4  11  26  45  71 105 145 192 245 311 378 446
#     4  11  27  47  70 104 143 194 243 299 371 447
#     4  11  27  42  73 102 140 188 239 304 363 440
#     4  11  24  44  71 102 142 189 250 305 377 443
#
# _framework density 21.127832999999999
#
# number of rings (size 3 to 8) (size 9 to 14) (size 15 to 20)
#    0.000    1.231    1.538    1.385   17.231    4.308 
#    0.000    0.000    0.000    0.000    0.000    0.000 
#    0.000    0.000    0.000    0.000    0.000    0.000 
#
# Total GULP energy -144857.248000 kJ/mol
# GULP energy per Si atom -5571.432615 kJ/mol
# Density = 2.107975 g / cm^3
# Si number density = 21.127833 Si / 1000 Ang^3
#
#
#
# Elastic Constant Matrix: (Units=GPa)
#
#
# Indices 1 2 3 4 5 6 
#
# 1 147.1619 26.5313 8.4828 0.0000 -6.5659 0.0000
# 2 26.5313 61.9675 3.7563 0.0000 -9.5179 0.0000
# 3 8.4828 3.7563 83.8139 0.0000 -11.0257 0.0000
# 4 0.0000 0.0000 0.0000 20.4766 0.0000 -0.6213
# 5 -6.5659 -9.5179 -11.0257 0.0000 21.9294 0.0000
# 6 0.0000 0.0000 0.0000 -0.6213 0.0000 25.3829
#
#
#
# Elastic Compliance Matrix: (Units=1/GPa)
#
#
# Indices 1 2 3 4 5 6 
#
# 1 0.007402 -0.003040 -0.000530 0.000000 0.000630 0.000000
# 2 -0.003040 0.018543 0.000445 0.000000 0.007362 0.000000
# 3 -0.000530 0.000445 0.012817 0.000000 0.006479 0.000000
# 4 0.000000 0.000000 0.000000 0.048873 0.000000 0.001196
# 5 0.000630 0.007362 0.006479 0.000000 0.052242 0.000000
# 6 0.000000 0.000000 0.000000 0.001196 0.000000 0.039426
#
#
# Mechanical properties :
#
#
# Convention : Reuss Voigt Hill
#
# Bulk Modulus (GPa) = 30.75810 41.16490 35.96150
# Shear Modulus (GPa) = 25.45952 30.50263 27.98108
#
# Velocity S-wave (km/s) = 3.47511 3.80375 3.64314
# Velocity P-wave (km/s) = 5.54000 6.23036 5.89529
#
# Compressibility (1/GPa) = 0.03251176
#
# Stress axis : x y z
#
# Youngs Moduli (GPa) = 135.09825 53.92899 78.02036
#
# Poissons Ratio (x) = 0.16396 0.04135
# Poissons Ratio (y) = 0.41073 -0.03472
# Poissons Ratio (z) = 0.07160 -0.02400
#
# Static dielectric constant tensor:
#      x y z
#    x 1.731180 0.000000 0.020710 
#    y 0.000000 1.803440 0.000000 
#    z 0.020710 0.000000 1.787060 
# 
# From -- ./inp_files/251044.got.cif
#   From: 2010.05.17/outbox.cif.g08.bks.cpg/sg15_126_cif.got.tgz:251044.got - 2010.06.03 18:47:42.
