data_PCOD9298544
_publ_section_title
;
Structure prediction by ZEFSAII (Michael W. Deem and Ramdas Pophale) SiO2 
 PCOD9298544
Probable space group: C 2/C
;
_chemical_formula_sum "Si O2"
_cell_formula_units_Z 52
_cell_length_a 5.039624
_cell_length_b 13.535956
_cell_length_c 30.991116
_cell_angle_alpha 90.000000
_cell_angle_beta 106.615217
_cell_angle_gamma 90.000000
_cell_volume 2025.823486
_symmetry_space_group_name_H-M "C 2/C"
_symmetry_group_IT_number 15
_symmetry_cell_setting 'monoclinic'
loop_
_space_group_symop_operation_xyz
x,y,z
-x,y,1/2-z
-x,-y,-z
x,-y,1/2+z
1/2+x,1/2+y,z
1/2-x,1/2+y,1/2-z
1/2-x,1/2-y,-z
1/2+x,1/2-y,1/2+z
loop_
_atom_site_type_symbol
_atom_site_label
_atom_site_fract_x
_atom_site_fract_y
_atom_site_fract_z
Si Si1 0.270588 0.530277 0.414084
Si Si2 0.500000 0.288442 0.250000
Si Si3 0.885339 0.672586 0.565918
Si Si4 0.671443 0.419490 0.858429
Si Si5 0.201031 0.450253 0.292585
Si Si6 0.936007 0.284671 0.337543
Si Si7 0.458186 0.163071 0.019970
O O1 0.304359 0.413964 0.423649
O O2 0.534169 0.564324 0.399228
O O3 0.194464 0.590497 0.453957
O O4 0.990108 0.550149 0.373701
O O5 0.308608 0.360842 0.268402
O O6 0.689745 0.242374 0.296121
O O7 0.720794 0.773452 0.549267
O O8 0.113809 0.694825 0.613719
O O9 0.977515 0.624730 0.524932
O O10 0.463306 0.485628 0.819865
O O11 0.655355 0.304118 0.846253
O O12 0.000000 0.508289 0.250000
O O13 0.046122 0.386935 0.322450
O O14 0.250000 0.250000 0.000000
#
# Coordination Sequence:
#
# PCOD9298544 Si02
#       7
#     8   4   8   8   8   8   8
#     4  12  27  48  74 112 147 201 252 307 374 450
#     4  10  24  44  74 100 150 188 252 306 378 440
#     4  11  24  46  71 105 150 196 243 315 367 444
#     4  12  27  46  78 110 151 196 253 304 378 452
#     4  10  24  46  69 109 143 196 248 311 374 450
#     4  11  23  46  72 107 146 196 245 307 378 440
#     4  11  26  44  72 108 147 198 254 308 370 450
#
# _framework density 25.668572999999999
#
# number of rings (size 3 to 8) (size 9 to 14) (size 15 to 20)
#    0.000    0.923    3.077    2.308    9.692    1.846 
#    4.154    0.000    0.000    0.000    0.000    0.000 
#    0.000    0.000    0.000    0.000    0.000    0.000 
#
# Total GULP energy -145330.230759 kJ/mol
# GULP energy per Si atom -5589.624260 kJ/mol
# Density = 2.561015 g / cm^3
# Si number density = 25.668573 Si / 1000 Ang^3
#
#
#
# Elastic Constant Matrix: (Units=GPa)
#
#
# Indices 1 2 3 4 5 6 
#
# 1 18.3417 -3.0850 -16.8169 0.0000 -1.6315 0.0000
# 2 -3.0850 85.2449 20.2566 0.0000 -0.3623 0.0000
# 3 -16.8169 20.2566 129.2737 0.0000 2.0771 0.0000
# 4 0.0000 0.0000 0.0000 26.6600 0.0000 6.4630
# 5 -1.6315 -0.3623 2.0771 0.0000 31.7672 0.0000
# 6 0.0000 0.0000 0.0000 6.4630 0.0000 12.3757
#
#
#
# Elastic Compliance Matrix: (Units=1/GPa)
#
#
# Indices 1 2 3 4 5 6 
#
# 1 0.062139 0.000363 0.007984 0.000000 0.002674 0.000000
# 2 0.000363 0.012189 -0.001867 0.000000 0.000280 0.000000
# 3 0.007984 -0.001867 0.009070 0.000000 -0.000204 0.000000
# 4 0.000000 0.000000 0.000000 0.042946 0.000000 -0.022428
# 5 0.002674 0.000280 -0.000204 0.000000 0.031633 0.000000
# 6 0.000000 0.000000 0.000000 -0.022428 0.000000 0.092516
#
#
# Mechanical properties :
#
#
# Convention : Reuss Voigt Hill
#
# Bulk Modulus (GPa) = 10.37807 25.95221 18.16514
# Shear Modulus (GPa) = 18.54228 29.66094 24.10161
#
# Velocity S-wave (km/s) = 2.69062 3.40300 3.06756
# Velocity P-wave (km/s) = 3.70195 5.05698 4.43156
#
# Compressibility (1/GPa) = 0.09635707
#
# Stress axis : x y z
#
# Youngs Moduli (GPa) = 16.09289 82.04159 110.25402
#
# Poissons Ratio (x) = -0.02978 -0.88023
# Poissons Ratio (y) = -0.00584 0.20587
# Poissons Ratio (z) = -0.12848 0.15319
#
# Static dielectric constant tensor:
#      x y z
#    x 2.363890 0.000000 -0.302210 
#    y 0.000000 2.027940 0.000000 
#    z -0.302210 0.000000 2.585830 
# 
# From -- ./inp_files/305359.got.cif
#   From: 2010.05.17/outbox.cif.g08.bks.cpg/sg15_153_cif.got.tgz:305359.got - 2010.06.03 18:47:42.
