data_PCOD9298265
_publ_section_title
;
Structure prediction by ZEFSAII (Michael W. Deem and Ramdas Pophale) SiO2 
 PCOD9298265
Probable space group: C 2/C
;
_chemical_formula_sum "Si O2"
_cell_formula_units_Z 48
_cell_length_a 10.409919
_cell_length_b 9.648411
_cell_length_c 19.060839
_cell_angle_alpha 90.000000
_cell_angle_beta 82.967802
_cell_angle_gamma 90.000000
_cell_volume 1900.053512
_symmetry_space_group_name_H-M "C 2/C"
_symmetry_group_IT_number 15
_symmetry_cell_setting 'monoclinic'
loop_
_space_group_symop_operation_xyz
x,y,z
-x,y,1/2-z
-x,-y,-z
x,-y,1/2+z
1/2+x,1/2+y,z
1/2-x,1/2+y,1/2-z
1/2-x,1/2-y,-z
1/2+x,1/2-y,1/2+z
loop_
_atom_site_type_symbol
_atom_site_label
_atom_site_fract_x
_atom_site_fract_y
_atom_site_fract_z
Si Si1 0.185366 0.390000 0.026405
Si Si2 0.399554 0.555756 0.065291
Si Si3 0.346260 0.638092 0.212554
Si Si4 0.603142 0.847241 0.486211
Si Si5 0.000000 0.100603 0.750000
Si Si6 0.067908 0.350422 0.655512
Si Si7 0.500000 0.894470 0.250000
O O1 0.280468 0.448909 0.079402
O O2 0.186319 0.514563 0.968891
O O3 0.250000 0.250000 0.000000
O O4 0.034188 0.360763 0.044273
O O5 0.441527 0.599633 0.140051
O O6 0.500000 0.500000 0.000000
O O7 0.344595 0.700213 0.039486
O O8 0.376523 0.503763 0.258022
O O9 0.205099 0.651719 0.188086
O O10 0.384964 0.783075 0.245572
O O11 0.572735 0.847010 0.571381
O O12 0.997821 0.209848 0.685727
O O13 0.006821 0.495392 0.685855
#
# Coordination Sequence:
#
# PCOD9298265 Si02
#       7
#     8   8   8   8   4   8   4
#     4  11  24  42  62  96 134 168 210 262 328 393
#     4  12  24  42  67 100 136 174 212 264 338 396
#     4  11  24  44  66  91 136 168 218 271 321 388
#     4  11  25  41  67  99 132 171 214 268 332 395
#     4  10  24  44  64  96 122 174 222 270 322 382
#     4  11  23  44  69  92 130 167 224 271 324 381
#     4  10  26  42  68  96 120 178 224 268 320 380
#
# _framework density 25.262446000000001
#
# number of rings (size 3 to 8) (size 9 to 14) (size 15 to 20)
#    0.000    1.000    3.333    2.500    4.667    0.000 
#    0.000    6.667    0.000    0.000    0.000    0.000 
#    0.000    0.000    0.000    0.000    0.000    0.000 
#
# Total GULP energy -134005.553121 kJ/mol
# GULP energy per Si atom -5583.564713 kJ/mol
# Density = 2.520495 g / cm^3
# Si number density = 25.262446 Si / 1000 Ang^3
#
#
#
# Elastic Constant Matrix: (Units=GPa)
#
#
# Indices 1 2 3 4 5 6 
#
# 1 76.5399 32.2412 -0.3286 0.0000 15.6363 0.0000
# 2 32.2412 230.6747 30.5370 0.0000 6.1137 0.0000
# 3 -0.3286 30.5370 91.1993 0.0000 1.4735 0.0000
# 4 0.0000 0.0000 0.0000 25.9816 0.0000 2.3559
# 5 15.6363 6.1137 1.4735 0.0000 26.2501 0.0000
# 6 0.0000 0.0000 0.0000 2.3559 0.0000 45.6126
#
#
#
# Elastic Compliance Matrix: (Units=1/GPa)
#
#
# Indices 1 2 3 4 5 6 
#
# 1 0.015779 -0.002087 0.000901 0.000000 -0.008964 0.000000
# 2 -0.002087 0.004837 -0.001631 0.000000 0.000208 0.000000
# 3 0.000901 -0.001631 0.011527 0.000000 -0.000804 0.000000
# 4 0.000000 0.000000 0.000000 0.038670 0.000000 -0.001997
# 5 -0.008964 0.000208 -0.000804 0.000000 0.043431 0.000000
# 6 0.000000 0.000000 0.000000 -0.001997 0.000000 0.022027
#
#
# Mechanical properties :
#
#
# Convention : Reuss Voigt Hill
#
# Bulk Modulus (GPa) = 37.72250 58.14590 47.93420
# Shear Modulus (GPa) = 33.16921 41.96647 37.56784
#
# Velocity S-wave (km/s) = 3.62744 4.08023 3.86048
# Velocity P-wave (km/s) = 5.70168 6.72788 6.23592
#
# Compressibility (1/GPa) = 0.02650938
#
# Stress axis : x y z
#
# Youngs Moduli (GPa) = 63.37429 206.73289 86.75132
#
# Poissons Ratio (x) = 0.43147 -0.07812
# Poissons Ratio (y) = 0.13227 0.14145
# Poissons Ratio (z) = -0.05707 0.33709
#
# Static dielectric constant tensor:
#      x y z
#    x 2.129830 0.000000 0.030550 
#    y 0.000000 2.005900 0.000000 
#    z 0.030550 0.000000 2.109880 
# 
# From -- ./inp_files/267753.got.cif
#   From: 2010.05.17/outbox.cif.g08.bks.cpg/sg15_134_cif.got.tgz:267753.got - 2010.06.03 18:47:42.
