data_PCOD9298245
_publ_section_title
;
Structure prediction by ZEFSAII (Michael W. Deem and Ramdas Pophale) SiO2 
 PCOD9298245
Probable space group: C 2/C
;
_chemical_formula_sum "Si O2"
_cell_formula_units_Z 44
_cell_length_a 24.913626
_cell_length_b 8.555163
_cell_length_c 23.342909
_cell_angle_alpha 90.000000
_cell_angle_beta 158.209431
_cell_angle_gamma 90.000000
_cell_volume 1846.909957
_symmetry_space_group_name_H-M "C 2/C"
_symmetry_group_IT_number 15
_symmetry_cell_setting 'monoclinic'
loop_
_space_group_symop_operation_xyz
x,y,z
-x,y,1/2-z
-x,-y,-z
x,-y,1/2+z
1/2+x,1/2+y,z
1/2-x,1/2+y,1/2-z
1/2-x,1/2-y,-z
1/2+x,1/2-y,1/2+z
loop_
_atom_site_type_symbol
_atom_site_label
_atom_site_fract_x
_atom_site_fract_y
_atom_site_fract_z
Si Si1 0.882022 0.432788 0.927053
Si Si2 0.518616 0.440038 0.704466
Si Si3 0.331890 0.952653 0.496434
Si Si4 0.651982 0.369125 0.542428
Si Si5 0.867181 0.182043 0.830542
Si Si6 0.500000 0.136227 0.750000
O O1 0.866612 0.254535 0.893219
O O2 0.737254 0.533835 0.773782
O O3 0.913056 0.462156 0.024204
O O4 0.000000 0.500000 0.000000
O O5 0.500000 0.508604 0.750000
O O6 0.382866 0.477097 0.529085
O O7 0.546831 0.258075 0.746875
O O8 0.661594 0.516381 0.820137
O O9 0.378755 0.027207 0.602620
O O10 0.365569 0.771213 0.521289
O O11 0.795747 0.316920 0.718701
O O12 0.525643 0.353689 0.464488
#
# Coordination Sequence:
#
# PCOD9298245 Si02
#       6
#     8   8   8   8   8   4
#     4  11  23  44  67 101 139 173 224 278 333 405
#     4  10  24  44  63  98 135 169 233 274 331 407
#     4  11  23  45  68  94 141 173 228 280 333 402
#     4  11  22  44  69  97 133 178 224 279 325 406
#     4  11  23  43  69 100 135 175 225 268 344 395
#     4  10  26  42  68  98 130 178 226 280 350 376
#
# _framework density 23.823575999999999
#
# number of rings (size 3 to 8) (size 9 to 14) (size 15 to 20)
#    0.545    0.727    7.273    0.545    1.273    5.818 
#    0.000    0.000    0.000    0.000    0.000    0.000 
#    0.000    0.000    0.000    0.000    0.000    0.000 
#
# Total GULP energy -122864.984138 kJ/mol
# GULP energy per Si atom -5584.772006 kJ/mol
# Density = 2.376935 g / cm^3
# Si number density = 23.823576 Si / 1000 Ang^3
#
#
#
# Elastic Constant Matrix: (Units=GPa)
#
#
# Indices 1 2 3 4 5 6 
#
# 1 80.2597 22.4649 14.8287 0.0001 5.9515 0.0000
# 2 22.4649 59.6664 3.2414 0.0001 -9.7277 0.0000
# 3 14.8287 3.2414 48.1590 0.0003 3.1180 0.0001
# 4 0.0001 0.0001 0.0003 33.3097 0.0001 -17.3442
# 5 5.9515 -9.7277 3.1180 0.0001 46.8895 0.0000
# 6 0.0000 0.0000 0.0001 -17.3442 0.0000 36.3435
#
#
#
# Elastic Compliance Matrix: (Units=1/GPa)
#
#
# Indices 1 2 3 4 5 6 
#
# 1 0.015081 -0.005926 -0.004059 0.000000 -0.002874 0.000000
# 2 -0.005926 0.019771 0.000181 0.000000 0.004842 0.000000
# 3 -0.004059 0.000181 0.022061 0.000000 -0.000914 0.000000
# 4 0.000000 0.000000 0.000000 0.039948 0.000000 0.019064
# 5 -0.002874 0.004842 -0.000914 0.000000 0.022757 0.000000
# 6 0.000000 0.000000 0.000000 0.019064 0.000000 0.036613
#
#
# Mechanical properties :
#
#
# Convention : Reuss Voigt Hill
#
# Bulk Modulus (GPa) = 26.80642 29.90612 28.35627
# Shear Modulus (GPa) = 26.55688 33.14523 29.85105
#
# Velocity S-wave (km/s) = 3.34238 3.73403 3.54362
# Velocity P-wave (km/s) = 5.11584 5.58311 5.35457
#
# Compressibility (1/GPa) = 0.03730449
#
# Stress axis : x y z
#
# Youngs Moduli (GPa) = 66.30717 50.57983 45.32816
#
# Poissons Ratio (x) = 0.29975 0.18398
# Poissons Ratio (y) = 0.39296 -0.00819
# Poissons Ratio (z) = 0.26913 -0.00914
#
# Static dielectric constant tensor:
#      x y z
#    x 1.910810 0.000000 -0.053210 
#    y 0.000000 1.938910 0.000000 
#    z -0.053210 0.000000 1.924210 
# 
# From -- ./inp_files/303176.got.cif
#   From: 2010.05.17/outbox.cif.g08.bks.cpg/sg15_152_cif.got.tgz:303176.got - 2010.06.03 18:47:42.
