data_PCOD9298486
_publ_section_title
;
Structure prediction by ZEFSAII (Michael W. Deem and Ramdas Pophale) SiO2 
 PCOD9298486
Probable space group: C 2/C
;
_chemical_formula_sum "Si O2"
_cell_formula_units_Z 56
_cell_length_a 23.307490
_cell_length_b 8.948373
_cell_length_c 27.389795
_cell_angle_alpha 90.000000
_cell_angle_beta 21.072659
_cell_angle_gamma 90.000000
_cell_volume 2053.948534
_symmetry_space_group_name_H-M "C 2/C"
_symmetry_group_IT_number 15
_symmetry_cell_setting 'monoclinic'
loop_
_space_group_symop_operation_xyz
x,y,z
-x,y,1/2-z
-x,-y,-z
x,-y,1/2+z
1/2+x,1/2+y,z
1/2-x,1/2+y,1/2-z
1/2-x,1/2-y,-z
1/2+x,1/2-y,1/2+z
loop_
_atom_site_type_symbol
_atom_site_label
_atom_site_fract_x
_atom_site_fract_y
_atom_site_fract_z
Si Si1 0.580896 0.885514 0.544064
Si Si2 0.868972 0.380763 0.154997
Si Si3 0.841368 0.050568 0.005233
Si Si4 0.405331 0.160471 0.362297
Si Si5 0.747611 0.646593 0.197930
Si Si6 0.937885 0.862960 0.018668
Si Si7 0.586533 0.555868 0.231475
O O1 0.453903 0.974173 0.613202
O O2 0.619209 0.712356 0.501499
O O3 0.514815 0.886801 0.651694
O O4 0.748234 0.972693 0.412554
O O5 0.767682 0.464635 0.192708
O O6 0.727578 0.339757 0.311707
O O7 0.056032 0.326194 0.977648
O O8 0.961764 0.034817 0.864068
O O9 0.667477 0.042393 0.118243
O O10 0.864884 0.922893 0.025806
O O11 0.500000 0.264426 0.250000
O O12 0.250000 0.250000 0.500000
O O13 0.626021 0.686919 0.343380
O O14 0.647447 0.665397 0.226589
O O15 0.000000 0.000000 0.000000
O O16 0.500000 0.608184 0.250000
#
# Coordination Sequence:
#
# PCOD9298486 Si02
#       7
#     8   8   8   8   8   8   8
#     4  11  26  44  80 109 157 200 270 327 400 476
#     4  12  27  51  72 114 148 207 261 334 410 487
#     4  11  26  44  76 112 155 203 270 321 409 472
#     4  10  24  44  71 113 157 210 270 330 396 480
#     4  12  28  49  78 109 157 205 268 336 416 482
#     4  12  26  48  73 111 150 202 265 334 410 486
#     4  12  26  50  74 113 158 213 261 338 395 489
#
# _framework density 27.264558999999998
#
# number of rings (size 3 to 8) (size 9 to 14) (size 15 to 20)
#    0.000    0.571    4.286    2.143   14.000    0.000 
#    2.571    2.143    0.000    0.000    0.000    0.000 
#    0.000    0.000    0.000    0.000    0.000    0.000 
#
# Total GULP energy -156274.118742 kJ/mol
# GULP energy per Si atom -5581.218527 kJ/mol
# Density = 2.720250 g / cm^3
# Si number density = 27.264559 Si / 1000 Ang^3
#
#
#
# Elastic Constant Matrix: (Units=GPa)
#
#
# Indices 1 2 3 4 5 6 
#
# 1 177.1759 75.2759 28.4072 -0.0021 11.2794 0.0005
# 2 75.2759 155.6642 50.4956 0.0031 4.7781 -0.0028
# 3 28.4072 50.4956 171.0717 0.0092 33.1963 -0.0068
# 4 -0.0021 0.0031 0.0092 75.2284 -0.0001 11.4826
# 5 11.2794 4.7781 33.1963 -0.0001 61.2801 -0.0008
# 6 0.0005 -0.0028 -0.0068 11.4826 -0.0008 38.4663
#
#
#
# Elastic Compliance Matrix: (Units=1/GPa)
#
#
# Indices 1 2 3 4 5 6 
#
# 1 0.007171 -0.003446 0.000034 0.000000 -0.001070 0.000000
# 2 -0.003446 0.008783 -0.002247 0.000000 0.001167 0.000000
# 3 0.000034 -0.002247 0.007230 -0.000001 -0.003748 0.000001
# 4 0.000000 0.000000 -0.000001 0.013927 0.000000 -0.004157
# 5 -0.001070 0.001167 -0.003748 0.000000 0.018455 0.000000
# 6 0.000000 0.000000 0.000001 -0.004157 0.000000 0.027238
#
#
# Mechanical properties :
#
#
# Convention : Reuss Voigt Hill
#
# Bulk Modulus (GPa) = 84.26615 90.25213 87.25914
# Shear Modulus (GPa) = 50.98007 58.31049 54.64528
#
# Velocity S-wave (km/s) = 4.32884 4.62962 4.48175
# Velocity P-wave (km/s) = 7.48058 7.85825 7.67174
#
# Compressibility (1/GPa) = 0.01186716
#
# Stress axis : x y z
#
# Youngs Moduli (GPa) = 139.45512 113.85072 138.30646
#
# Poissons Ratio (x) = 0.39231 -0.00469
# Poissons Ratio (y) = 0.48053 0.31075
# Poissons Ratio (z) = -0.00473 0.25580
#
# Static dielectric constant tensor:
#      x y z
#    x 2.395870 0.000000 0.218170 
#    y 0.000000 2.086950 0.000000 
#    z 0.218170 0.000000 3.024410 
# 
# From -- ./inp_files/302395.got.cif
#   From: 2010.05.17/outbox.cif.g08.bks.cpg/sg15_152_cif.got.tgz:302395.got - 2010.06.03 18:47:42.
