data_PCOD9298890
_publ_section_title
;
Structure prediction by ZEFSAII (Michael W. Deem and Ramdas Pophale) SiO2 
 PCOD9298890
Probable space group: C 2/C
;
_chemical_formula_sum "Si O2"
_cell_formula_units_Z 60
_cell_length_a 8.033056
_cell_length_b 23.412735
_cell_length_c 20.585061
_cell_angle_alpha 90.000000
_cell_angle_beta 133.496702
_cell_angle_gamma 90.000000
_cell_volume 2808.478028
_symmetry_space_group_name_H-M "C 2/C"
_symmetry_group_IT_number 15
_symmetry_cell_setting 'monoclinic'
loop_
_space_group_symop_operation_xyz
x,y,z
-x,y,1/2-z
-x,-y,-z
x,-y,1/2+z
1/2+x,1/2+y,z
1/2-x,1/2+y,1/2-z
1/2-x,1/2-y,-z
1/2+x,1/2-y,1/2+z
loop_
_atom_site_type_symbol
_atom_site_label
_atom_site_fract_x
_atom_site_fract_y
_atom_site_fract_z
Si Si1 0.299580 0.345126 0.067455
Si Si2 0.571781 0.953930 0.070978
Si Si3 0.827648 0.339689 0.256038
Si Si4 0.500000 0.513162 0.250000
Si Si5 0.799252 0.573629 0.612487
Si Si6 0.723202 0.466583 0.672757
Si Si7 0.407094 0.360272 0.952445
Si Si8 0.248586 0.749632 0.346840
O O1 0.139677 0.392999 0.058354
O O2 0.568714 0.352002 0.162397
O O3 0.252713 0.283032 0.085032
O O4 0.263376 0.349771 0.980213
O O5 0.358355 0.957491 0.062235
O O6 0.795519 0.975199 0.168101
O O7 0.500000 0.000000 0.000000
O O8 0.825945 0.298098 0.316868
O O9 0.000000 0.311914 0.250000
O O10 0.954170 0.399761 0.302746
O O11 0.394578 0.542182 0.287889
O O12 0.678619 0.529507 0.628963
O O13 0.652306 0.627659 0.550447
O O14 0.655062 0.417116 0.604055
O O15 0.000000 0.465137 0.750000
O O16 0.389816 0.307368 0.898924
O O17 0.000000 0.732527 0.250000
#
# Coordination Sequence:
#
# PCOD9298890 Si02
#       8
#     8   8   8   4   8   8   8   8
#     4  11  23  41  72  99 134 176 235 284 347 414
#     4  12  24  41  66 106 135 179 232 287 348 423
#     4  11  22  43  67 100 129 179 231 290 344 410
#     4  12  26  44  70  98 146 188 232 288 356 412
#     4  12  23  42  68  98 139 172 231 288 344 404
#     4  12  26  46  69 100 142 189 234 281 354 424
#     4  12  25  44  67 102 139 179 224 294 352 414
#     4  10  24  46  68  97 133 180 233 281 351 424
#
# _framework density 21.363883999999999
#
# number of rings (size 3 to 8) (size 9 to 14) (size 15 to 20)
#    0.000    0.533    4.000    4.800    0.933    0.533 
#    1.200    0.000    0.000    0.000    0.000    0.000 
#    0.000    0.000    0.000    0.000    0.000    0.000 
#
# Total GULP energy -167312.207475 kJ/mol
# GULP energy per Si atom -5577.073582 kJ/mol
# Density = 2.131526 g / cm^3
# Si number density = 21.363884 Si / 1000 Ang^3
#
#
#
# Elastic Constant Matrix: (Units=GPa)
#
#
# Indices 1 2 3 4 5 6 
#
# 1 95.8210 22.7535 30.3887 0.0000 -27.5162 0.0000
# 2 22.7535 116.9501 52.4919 0.0000 -8.0573 0.0000
# 3 30.3887 52.4919 69.6783 0.0000 -22.1471 0.0000
# 4 0.0000 0.0000 0.0000 32.4752 0.0000 -3.0280
# 5 -27.5162 -8.0573 -22.1471 0.0000 42.7339 0.0000
# 6 0.0000 0.0000 0.0000 -3.0280 0.0000 15.5302
#
#
#
# Elastic Compliance Matrix: (Units=1/GPa)
#
#
# Indices 1 2 3 4 5 6 
#
# 1 0.013624 -0.000755 -0.003148 0.000000 0.006998 0.000000
# 2 -0.000755 0.013318 -0.010847 0.000000 -0.003597 0.000000
# 3 -0.003148 -0.010847 0.027059 0.000000 0.009951 0.000000
# 4 0.000000 0.000000 0.000000 0.031363 0.000000 0.006115
# 5 0.006998 -0.003597 0.009951 0.000000 0.032386 0.000000
# 6 0.000000 0.000000 0.000000 0.006115 0.000000 0.065583
#
#
# Mechanical properties :
#
#
# Convention : Reuss Voigt Hill
#
# Bulk Modulus (GPa) = 40.81667 54.85752 47.83709
# Shear Modulus (GPa) = 22.62429 29.93556 26.27992
#
# Velocity S-wave (km/s) = 3.25775 3.74735 3.51110
# Velocity P-wave (km/s) = 5.77040 6.66761 6.23516
#
# Compressibility (1/GPa) = 0.02449979
#
# Stress axis : x y z
#
# Youngs Moduli (GPa) = 73.40254 75.08354 36.95564
#
# Poissons Ratio (x) = 0.05672 0.11634
# Poissons Ratio (y) = 0.05545 0.40087
# Poissons Ratio (z) = 0.23109 0.81445
#
# Static dielectric constant tensor:
#      x y z
#    x 1.921310 0.000000 -0.059900 
#    y 0.000000 1.762040 0.000000 
#    z -0.059900 0.000000 1.819350 
# 
# From -- ./inp_files/234095.got.cif
#   From: 2010.05.17/outbox.cif.g08.bks.cpg/sg15_118_cif.got.tgz:234095.got - 2010.06.03 18:47:42.
