data_PCOD9298743
_publ_section_title
;
Structure prediction by ZEFSAII (Michael W. Deem and Ramdas Pophale) SiO2 
 PCOD9298743
Probable space group: C 2/C
;
_chemical_formula_sum "Si O2"
_cell_formula_units_Z 40
_cell_length_a 18.633053
_cell_length_b 8.247468
_cell_length_c 12.011340
_cell_angle_alpha 90.000000
_cell_angle_beta 63.581833
_cell_angle_gamma 90.000000
_cell_volume 1653.088145
_symmetry_space_group_name_H-M "C 2/C"
_symmetry_group_IT_number 15
_symmetry_cell_setting 'monoclinic'
loop_
_space_group_symop_operation_xyz
x,y,z
-x,y,1/2-z
-x,-y,-z
x,-y,1/2+z
1/2+x,1/2+y,z
1/2-x,1/2+y,1/2-z
1/2-x,1/2-y,-z
1/2+x,1/2-y,1/2+z
loop_
_atom_site_type_symbol
_atom_site_label
_atom_site_fract_x
_atom_site_fract_y
_atom_site_fract_z
Si Si1 0.209762 0.184532 0.917432
Si Si2 0.204091 0.385150 0.714439
Si Si3 0.083970 0.214832 0.638208
Si Si4 0.964993 0.889864 0.923997
Si Si5 0.070947 0.381616 0.411485
O O1 0.240556 0.285765 0.790946
O O2 0.230660 0.996046 0.890102
O O3 0.250000 0.250000 0.000000
O O4 0.114222 0.204784 0.982739
O O5 0.156796 0.263992 0.666569
O O6 0.138848 0.512923 0.806534
O O7 0.097228 0.293219 0.507843
O O8 0.000000 0.278604 0.750000
O O9 0.069296 0.022032 0.638222
O O10 0.032951 0.755674 0.856524
O O11 0.000000 0.000000 0.000000
O O12 0.000000 0.500000 0.500000
#
# Coordination Sequence:
#
# PCOD9298743 Si02
#       5
#     8   8   8   8   8
#     4  12  29  48  69 112 148 195 248 303 375 450
#     4  12  27  45  75 103 152 193 241 303 378 434
#     4  11  23  43  72 108 141 189 246 302 365 442
#     4  10  24  45  72 101 144 185 249 305 361 445
#     4  11  21  46  73 103 141 184 244 305 356 443
#
# _framework density 24.197136
#
# number of rings (size 3 to 8) (size 9 to 14) (size 15 to 20)
#    0.000    0.800    4.000    2.400    8.400    2.400 
#    0.000    0.000    0.000    0.000    0.000    0.000 
#    0.000    0.000    0.000    0.000    0.000    0.000 
#
# Total GULP energy -112038.482781 kJ/mol
# GULP energy per Si atom -5601.924139 kJ/mol
# Density = 2.414206 g / cm^3
# Si number density = 24.197136 Si / 1000 Ang^3
#
#
#
# Elastic Constant Matrix: (Units=GPa)
#
#
# Indices 1 2 3 4 5 6 
#
# 1 105.4491 49.2701 35.7287 0.0000 26.9659 0.0000
# 2 49.2701 135.9449 33.3114 0.0000 30.7341 0.0000
# 3 35.7287 33.3114 69.9220 0.0000 24.0762 0.0000
# 4 0.0000 0.0000 0.0000 55.3661 0.0000 5.1216
# 5 26.9659 30.7341 24.0762 0.0000 50.1906 0.0000
# 6 0.0000 0.0000 0.0000 5.1216 0.0000 63.3755
#
#
#
# Elastic Compliance Matrix: (Units=1/GPa)
#
#
# Indices 1 2 3 4 5 6 
#
# 1 0.013121 -0.003009 -0.004166 0.000000 -0.003208 0.000000
# 2 -0.003009 0.009681 -0.001905 0.000000 -0.003398 0.000000
# 3 -0.004166 -0.001905 0.019364 0.000000 -0.005884 0.000000
# 4 0.000000 0.000000 0.000000 0.018198 0.000000 -0.001471
# 5 -0.003208 -0.003398 -0.005884 0.000000 0.026551 0.000000
# 6 0.000000 0.000000 0.000000 -0.001471 0.000000 0.015898
#
#
# Mechanical properties :
#
#
# Convention : Reuss Voigt Hill
#
# Bulk Modulus (GPa) = 41.65559 60.88181 51.26870
# Shear Modulus (GPa) = 38.76681 46.65351 42.71016
#
# Velocity S-wave (km/s) = 4.00700 4.39573 4.20586
# Velocity P-wave (km/s) = 6.21776 7.13993 6.69474
#
# Compressibility (1/GPa) = 0.02400638
#
# Stress axis : x y z
#
# Youngs Moduli (GPa) = 76.21103 103.28995 51.64212
#
# Poissons Ratio (x) = 0.31083 0.21516
# Poissons Ratio (y) = 0.22934 0.09836
# Poissons Ratio (z) = 0.31752 0.19673
#
# Static dielectric constant tensor:
#      x y z
#    x 1.853920 0.000000 -0.020890 
#    y 0.000000 1.903590 0.000000 
#    z -0.020890 0.000000 1.987710 
# 
# From -- ./inp_files/109561.got.cif
#   From: 2010.05.17/outbox.cif.g08.bks.cpg/sg15_55_cif.got.tgz:109561.got - 2010.06.03 18:47:42.
