data_PCOD9298170
_publ_section_title
;
Structure prediction by ZEFSAII (Michael W. Deem and Ramdas Pophale) SiO2 
 PCOD9298170
Probable space group: C 2/C
;
_chemical_formula_sum "Si O2"
_cell_formula_units_Z 60
_cell_length_a 22.774069
_cell_length_b 20.737518
_cell_length_c 8.903542
_cell_angle_alpha 90.000000
_cell_angle_beta 43.499026
_cell_angle_gamma 90.000000
_cell_volume 2894.440614
_symmetry_space_group_name_H-M "C 2/C"
_symmetry_group_IT_number 15
_symmetry_cell_setting 'monoclinic'
loop_
_space_group_symop_operation_xyz
x,y,z
-x,y,1/2-z
-x,-y,-z
x,-y,1/2+z
1/2+x,1/2+y,z
1/2-x,1/2+y,1/2-z
1/2-x,1/2-y,-z
1/2+x,1/2-y,1/2+z
loop_
_atom_site_type_symbol
_atom_site_label
_atom_site_fract_x
_atom_site_fract_y
_atom_site_fract_z
Si Si1 0.988937 0.726090 0.942236
Si Si2 0.680640 0.796661 0.205591
Si Si3 0.460131 0.376462 0.995627
Si Si4 0.233714 0.440651 0.048698
Si Si5 0.000000 0.934489 0.250000
Si Si6 0.591282 0.842853 0.651677
Si Si7 0.339959 0.484880 0.124509
Si Si8 0.435513 0.993846 0.754178
O O1 0.085923 0.721951 0.824951
O O2 0.000000 0.707001 0.750000
O O3 0.954976 0.799393 0.016670
O O4 0.921689 0.681421 0.155229
O O5 0.712530 0.866184 0.093552
O O6 0.664250 0.808680 0.416097
O O7 0.750000 0.750000 0.000000
O O8 0.500000 0.385789 0.750000
O O9 0.501061 0.398203 0.083265
O O10 0.375526 0.420252 0.137526
O O11 0.264095 0.466119 0.153599
O O12 0.150017 0.473333 0.138774
O O13 0.308615 0.462319 0.800168
O O14 0.917912 0.980732 0.395369
O O15 0.500000 0.823262 0.750000
O O16 0.589511 0.920827 0.650014
O O17 0.500000 0.026933 0.750000
O O18 0.500000 0.000000 0.500000
#
# Coordination Sequence:
#
# PCOD9298170 Si02
#       8
#     8   8   8   8   4   8   8   8
#     4  10  24  43  71  99 132 182 241 293 339 433
#     4  11  26  43  65  96 139 187 229 291 361 420
#     4  11  24  42  69 103 141 185 245 292 342 431
#     4  12  26  42  68 103 143 181 233 307 367 424
#     4  12  24  42  72 100 134 204 240 282 366 438
#     4   9  20  43  68  95 134 177 233 288 348 424
#     4  12  24  43  66 102 144 182 237 298 363 435
#     4  11  22  42  72 102 135 182 236 299 367 437
#
# _framework density 20.729395
#
# number of rings (size 3 to 8) (size 9 to 14) (size 15 to 20)
#    0.000    1.067    2.000    5.200    8.400    3.200 
#    0.000    0.667    0.000    0.000    0.000    0.000 
#    0.000    0.000    0.000    0.000    0.000    0.000 
#
# Total GULP energy -167032.563708 kJ/mol
# GULP energy per Si atom -5567.752124 kJ/mol
# Density = 2.068221 g / cm^3
# Si number density = 20.729395 Si / 1000 Ang^3
#
#
#
# Elastic Constant Matrix: (Units=GPa)
#
#
# Indices 1 2 3 4 5 6 
#
# 1 105.0012 21.3278 34.3332 0.0000 17.7754 0.0000
# 2 21.3278 82.1237 53.1404 0.0000 5.3978 0.0000
# 3 34.3332 53.1404 128.4550 0.0000 -3.1953 0.0000
# 4 0.0000 0.0000 0.0000 36.5439 0.0000 -2.3886
# 5 17.7754 5.3978 -3.1953 0.0000 25.3738 0.0000
# 6 0.0000 0.0000 0.0000 -2.3886 0.0000 27.4503
#
#
#
# Elastic Compliance Matrix: (Units=1/GPa)
#
#
# Indices 1 2 3 4 5 6 
#
# 1 0.012192 -0.000455 -0.003291 0.000000 -0.008859 0.000000
# 2 -0.000455 0.017153 -0.007080 0.000000 -0.004222 0.000000
# 3 -0.003291 -0.007080 0.011725 0.000000 0.005288 0.000000
# 4 0.000000 0.000000 0.000000 0.027521 0.000000 0.002395
# 5 -0.008859 -0.004222 0.005288 0.000000 0.047181 0.000000
# 6 0.000000 0.000000 0.000000 0.002395 0.000000 0.036638
#
#
# Mechanical properties :
#
#
# Convention : Reuss Voigt Hill
#
# Bulk Modulus (GPa) = 51.49429 59.24252 55.36840
# Shear Modulus (GPa) = 27.69579 31.65882 29.67730
#
# Velocity S-wave (km/s) = 3.65919 3.91224 3.78782
# Velocity P-wave (km/s) = 6.53819 7.00346 6.77482
#
# Compressibility (1/GPa) = 0.01941963
#
# Stress axis : x y z
#
# Youngs Moduli (GPa) = 82.02284 58.29735 85.28958
#
# Poissons Ratio (x) = 0.02650 0.28068
# Poissons Ratio (y) = 0.03728 0.60383
# Poissons Ratio (z) = 0.26993 0.41273
#
# Static dielectric constant tensor:
#      x y z
#    x 1.752610 0.000000 0.052750 
#    y 0.000000 1.725500 0.000000 
#    z 0.052750 0.000000 1.780760 
# 
# From -- ./inp_files/63493.got.cif
#   From: 2010.05.17/outbox.cif.g08.bks.cpg/sg15_32_cif.got.tgz:63493.got - 2010.06.03 18:47:42.
