data_PCOD9298139
_publ_section_title
;
Structure prediction by ZEFSAII (Michael W. Deem and Ramdas Pophale) SiO2 
 PCOD9298139
Probable space group: C 2/C
;
_chemical_formula_sum "Si O2"
_cell_formula_units_Z 48
_cell_length_a 16.366542
_cell_length_b 14.228218
_cell_length_c 16.898422
_cell_angle_alpha 90.000000
_cell_angle_beta 147.150487
_cell_angle_gamma 90.000000
_cell_volume 2134.522868
_symmetry_space_group_name_H-M "C 2/C"
_symmetry_group_IT_number 15
_symmetry_cell_setting 'monoclinic'
loop_
_space_group_symop_operation_xyz
x,y,z
-x,y,1/2-z
-x,-y,-z
x,-y,1/2+z
1/2+x,1/2+y,z
1/2-x,1/2+y,1/2-z
1/2-x,1/2-y,-z
1/2+x,1/2-y,1/2+z
loop_
_atom_site_type_symbol
_atom_site_label
_atom_site_fract_x
_atom_site_fract_y
_atom_site_fract_z
Si Si1 0.701756 0.463302 0.999862
Si Si2 0.379653 0.266137 0.315106
Si Si3 0.305871 0.321986 0.978071
Si Si4 0.857807 0.678002 0.742571
Si Si5 0.066083 0.600630 0.040127
Si Si6 0.879631 0.895786 0.740959
O O1 0.533612 0.440844 0.894928
O O2 0.677787 0.440269 0.887830
O O3 0.746055 0.571242 0.048008
O O4 0.809140 0.391140 0.133065
O O5 0.511688 0.326353 0.381904
O O6 0.269881 0.219036 0.162445
O O7 0.278382 0.313167 0.302452
O O8 0.473821 0.180454 0.430195
O O9 0.250000 0.250000 0.000000
O O10 0.003910 0.639027 0.906552
O O11 0.892499 0.783347 0.741883
O O12 0.000000 0.500000 0.000000
O O13 0.244664 0.590481 0.191323
#
# Coordination Sequence:
#
# PCOD9298139 Si02
#       6
#     8   8   8   8   8   8
#     4  11  26  43  73 105 138 188 230 284 353 422
#     4  11  25  46  70 100 138 184 231 292 344 408
#     4  12  28  47  72  99 142 186 236 289 350 420
#     4  11  23  46  69 106 140 179 228 293 349 407
#     4  11  24  41  69 101 141 182 230 283 343 411
#     4  10  24  43  70 102 139 182 230 288 346 409
#
# _framework density 22.487461
#
# number of rings (size 3 to 8) (size 9 to 14) (size 15 to 20)
#    0.000    1.000    1.667    4.000   11.667    2.667 
#    3.000    0.000    0.000    0.000    0.000    0.000 
#    0.000    0.000    0.000    0.000    0.000    0.000 
#
# Total GULP energy -134208.822663 kJ/mol
# GULP energy per Si atom -5592.034278 kJ/mol
# Density = 2.243628 g / cm^3
# Si number density = 22.487461 Si / 1000 Ang^3
#
#
#
# Elastic Constant Matrix: (Units=GPa)
#
#
# Indices 1 2 3 4 5 6 
#
# 1 35.8363 0.6445 -2.7740 0.0000 0.8637 -0.0001
# 2 0.6445 106.2885 14.1109 0.0002 0.5393 0.0001
# 3 -2.7740 14.1109 86.8599 0.0003 -12.8733 0.0005
# 4 0.0000 0.0002 0.0003 -2.1326 0.0002 30.1919
# 5 0.8637 0.5393 -12.8733 0.0002 35.7044 0.0001
# 6 -0.0001 0.0001 0.0005 30.1919 0.0001 -8.1931
#
#
#
# Elastic Compliance Matrix: (Units=1/GPa)
#
#
# Indices 1 2 3 4 5 6 
#
# 1 0.027987 -0.000286 0.000888 0.000000 -0.000353 0.000000
# 2 -0.000286 0.009638 -0.001685 0.000000 -0.000746 0.000000
# 3 0.000888 -0.001685 0.012483 0.000000 0.004505 0.000000
# 4 0.000000 0.000000 0.000000 0.009164 0.000000 0.033769
# 5 -0.000353 -0.000746 0.004505 0.000000 0.029652 0.000000
# 6 0.000000 0.000000 0.000000 0.033769 0.000000 0.002385
#
#
# Mechanical properties :
#
#
# Convention : Reuss Voigt Hill
#
# Bulk Modulus (GPa) = 20.85908 28.10526 24.48217
# Shear Modulus (GPa) = 45.68105 19.54264 32.61184
#
# Velocity S-wave (km/s) = 4.51200 2.95116 3.81231
# Velocity P-wave (km/s) = 6.03657 4.91302 5.50354
#
# Compressibility (1/GPa) = 0.04794076
#
# Stress axis : x y z
#
# Youngs Moduli (GPa) = 35.73085 103.75988 80.11165
#
# Poissons Ratio (x) = 0.02965 -0.07114
# Poissons Ratio (y) = 0.01021 0.13502
# Poissons Ratio (z) = -0.03173 0.17488
#
# Static dielectric constant tensor:
#      x y z
#    x 2.103370 0.000000 0.200480 
#    y 0.000000 1.735840 0.000000 
#    z 0.200480 0.000000 2.036980 
# 
# From -- ./inp_files/66511.got.cif
#   From: 2010.05.17/outbox.cif.g08.bks.cpg/sg15_34_cif.got.tgz:66511.got - 2010.06.03 18:47:42.
