data_PCOD9298045
_publ_section_title
;
Structure prediction by ZEFSAII (Michael W. Deem and Ramdas Pophale) SiO2 
 PCOD9298045
Probable space group: C 2/C
;
_chemical_formula_sum "Si O2"
_cell_formula_units_Z 56
_cell_length_a 9.159371
_cell_length_b 21.006368
_cell_length_c 14.143898
_cell_angle_alpha 90.000000
_cell_angle_beta 69.398774
_cell_angle_gamma 90.000000
_cell_volume 2547.332956
_symmetry_space_group_name_H-M "C 2/C"
_symmetry_group_IT_number 15
_symmetry_cell_setting 'monoclinic'
loop_
_space_group_symop_operation_xyz
x,y,z
-x,y,1/2-z
-x,-y,-z
x,-y,1/2+z
1/2+x,1/2+y,z
1/2-x,1/2+y,1/2-z
1/2-x,1/2-y,-z
1/2+x,1/2-y,1/2+z
loop_
_atom_site_type_symbol
_atom_site_label
_atom_site_fract_x
_atom_site_fract_y
_atom_site_fract_z
Si Si1 0.238940 0.100570 0.263349
Si Si2 0.793894 0.184296 0.413401
Si Si3 0.996504 0.756948 0.014540
Si Si4 0.234204 0.345517 0.542905
Si Si5 0.610897 0.077872 0.564517
Si Si6 0.000000 0.504013 0.250000
Si Si7 0.000000 0.989853 0.750000
Si Si8 0.285768 0.959158 0.076401
O O1 0.198090 0.139438 0.178614
O O2 0.275322 0.148418 0.341454
O O3 0.387705 0.053018 0.218743
O O4 0.088175 0.054686 0.307257
O O5 0.674083 0.239666 0.410459
O O6 0.706200 0.141392 0.515577
O O7 0.948489 0.217458 0.420016
O O8 0.105091 0.813099 0.026216
O O9 0.098742 0.695075 0.021986
O O10 0.238990 0.417734 0.510574
O O11 0.423013 0.079248 0.597552
O O12 0.616931 0.041089 0.663241
O O13 0.662125 0.027640 0.472983
O O14 0.132365 0.031666 0.671734
#
# Coordination Sequence:
#
# PCOD9298045 Si02
#       8
#     8   8   8   8   8   4   4   8
#     4  12  23  39  69 103 134 178 240 288 332 430
#     4  11  22  45  71  96 136 185 238 280 341 417
#     4  10  24  43  66  92 131 189 235 279 344 406
#     4  11  23  43  67  99 140 179 232 290 347 401
#     4  11  21  42  67 101 139 183 219 290 356 418
#     4  12  22  38  68 106 136 184 230 272 368 430
#     4  12  24  38  64 112 144 176 232 284 364 426
#     4  11  22  41  67  99 147 176 218 294 359 408
#
# _framework density 21.983775000000001
#
# number of rings (size 3 to 8) (size 9 to 14) (size 15 to 20)
#    0.000    0.857    5.714    2.571    0.000    1.714 
#    0.000    5.714    0.000    0.000    0.000    0.000 
#    0.000    0.000    0.000    0.000    0.000    0.000 
#
# Total GULP energy -155921.537938 kJ/mol
# GULP energy per Si atom -5568.626355 kJ/mol
# Density = 2.193374 g / cm^3
# Si number density = 21.983775 Si / 1000 Ang^3
#
#
#
# Elastic Constant Matrix: (Units=GPa)
#
#
# Indices 1 2 3 4 5 6 
#
# 1 130.8781 36.3366 32.1491 0.0000 5.2101 0.0000
# 2 36.3366 83.3480 32.9306 0.0000 7.9210 0.0000
# 3 32.1491 32.9306 91.0679 0.0000 7.1578 0.0000
# 4 0.0000 0.0000 0.0000 14.1525 0.0000 -8.8885
# 5 5.2101 7.9210 7.1578 0.0000 30.2128 0.0000
# 6 0.0000 0.0000 0.0000 -8.8885 0.0000 -16.0573
#
#
#
# Elastic Compliance Matrix: (Units=1/GPa)
#
#
# Indices 1 2 3 4 5 6 
#
# 1 0.009013 -0.003098 -0.002041 0.000000 -0.000258 0.000000
# 2 -0.003098 0.015253 -0.004228 0.000000 -0.002463 0.000000
# 3 -0.002041 -0.004228 0.013364 0.000000 -0.001706 0.000000
# 4 0.000000 0.000000 0.000000 0.052431 0.000000 -0.029023
# 5 -0.000258 -0.002463 -0.001706 0.000000 0.034193 0.000000
# 6 0.000000 0.000000 0.000000 -0.029023 0.000000 -0.046211
#
#
# Mechanical properties :
#
#
# Convention : Reuss Voigt Hill
#
# Bulk Modulus (GPa) = 52.92372 56.45853 54.69112
# Shear Modulus (GPa) = 48.50779 19.25343 33.88061
#
# Velocity S-wave (km/s) = 4.70246 2.96261 3.93003
# Velocity P-wave (km/s) = 7.32192 6.11885 6.74725
#
# Compressibility (1/GPa) = 0.01889512
#
# Stress axis : x y z
#
# Youngs Moduli (GPa) = 110.95694 65.55984 74.82573
#
# Poissons Ratio (x) = 0.20311 0.15272
# Poissons Ratio (y) = 0.34376 0.31639
# Poissons Ratio (z) = 0.22646 0.27721
#
# Static dielectric constant tensor:
#      x y z
#    x 1.869850 0.000000 0.034230 
#    y 0.000000 1.844760 0.000000 
#    z 0.034230 0.000000 1.863370 
# 
# From -- ./inp_files/137322.got.cif
#   From: 2010.05.17/outbox.cif.g08.bks.cpg/sg15_69_cif.got.tgz:137322.got - 2010.06.03 18:47:42.
