data_PCOD9298324
_publ_section_title
;
Structure prediction by ZEFSAII (Michael W. Deem and Ramdas Pophale) SiO2 
 PCOD9298324
Probable space group: C 2/C
;
_chemical_formula_sum "Si O2"
_cell_formula_units_Z 36
_cell_length_a 12.803583
_cell_length_b 23.811755
_cell_length_c 9.369979
_cell_angle_alpha 90.000000
_cell_angle_beta 144.758798
_cell_angle_gamma 90.000000
_cell_volume 1648.360688
_symmetry_space_group_name_H-M "C 2/C"
_symmetry_group_IT_number 15
_symmetry_cell_setting 'monoclinic'
loop_
_space_group_symop_operation_xyz
x,y,z
-x,y,1/2-z
-x,-y,-z
x,-y,1/2+z
1/2+x,1/2+y,z
1/2-x,1/2+y,1/2-z
1/2-x,1/2-y,-z
1/2+x,1/2-y,1/2+z
loop_
_atom_site_type_symbol
_atom_site_label
_atom_site_fract_x
_atom_site_fract_y
_atom_site_fract_z
Si Si1 0.807194 0.804146 0.969911
Si Si2 0.695814 0.440633 0.231171
Si Si3 0.089639 0.148688 0.196696
Si Si4 0.212832 0.458721 0.487016
Si Si5 0.000000 0.381861 0.750000
O O1 0.841547 0.803523 0.836599
O O2 0.644908 0.846523 0.821123
O O3 0.750000 0.750000 0.000000
O O4 0.000000 0.821683 0.250000
O O5 0.730205 0.461599 0.111736
O O6 0.667939 0.495789 0.295280
O O7 0.878050 0.415459 0.502725
O O8 0.552377 0.390409 0.050412
O O9 0.245585 0.103785 0.409454
O O10 0.000000 0.165905 0.250000
O O11 0.000000 0.470058 0.250000
#
# Coordination Sequence:
#
# PCOD9298324 Si02
#       5
#     8   8   8   8   4
#     4  12  25  46  74  99 130 174 240 292 346 409
#     4  11  23  38  62  99 140 186 224 272 334 411
#     4  10  24  44  66  99 142 180 226 285 346 406
#     4  11  22  37  61  98 143 184 228 267 335 407
#     4  12  24  42  72  98 138 182 230 284 348 394
#
# _framework density 21.839880000000001
#
# number of rings (size 3 to 8) (size 9 to 14) (size 15 to 20)
#    0.000    0.889    4.444    2.667    3.111    0.000 
#    0.000    1.111    0.000    0.000    0.000    0.000 
#    0.000    0.000    0.000    0.000    0.000    0.000 
#
# Total GULP energy -100473.678497 kJ/mol
# GULP energy per Si atom -5581.871028 kJ/mol
# Density = 2.179017 g / cm^3
# Si number density = 21.839880 Si / 1000 Ang^3
#
#
#
# Elastic Constant Matrix: (Units=GPa)
#
#
# Indices 1 2 3 4 5 6 
#
# 1 160.0408 66.3267 47.4324 0.0000 -26.4006 0.0000
# 2 66.3267 54.1817 16.1136 0.0000 -22.9330 0.0000
# 3 47.4324 16.1136 104.0691 0.0000 -7.5926 0.0000
# 4 0.0000 0.0000 0.0000 12.9093 0.0000 -10.9489
# 5 -26.4006 -22.9330 -7.5926 0.0000 54.3250 0.0000
# 6 0.0000 0.0000 0.0000 -10.9489 0.0000 26.0252
#
#
#
# Elastic Compliance Matrix: (Units=1/GPa)
#
#
# Indices 1 2 3 4 5 6 
#
# 1 0.014078 -0.016316 -0.003934 0.000000 -0.000596 0.000000
# 2 -0.016316 0.042229 0.001637 0.000000 0.010126 0.000000
# 3 -0.003934 0.001637 0.011173 0.000000 0.000341 0.000000
# 4 0.000000 0.000000 0.000000 0.120439 0.000000 0.050669
# 5 -0.000596 0.010126 0.000341 0.000000 0.022441 0.000000
# 6 0.000000 0.000000 0.000000 0.050669 0.000000 0.059741
#
#
# Mechanical properties :
#
#
# Convention : Reuss Voigt Hill
#
# Bulk Modulus (GPa) = 33.05299 64.22634 48.63966
# Shear Modulus (GPa) = 15.75248 31.21315 23.48282
#
# Velocity S-wave (km/s) = 2.68856 3.78455 3.28262
# Velocity P-wave (km/s) = 4.98045 6.96913 6.05697
#
# Compressibility (1/GPa) = 0.03025445
#
# Stress axis : x y z
#
# Youngs Moduli (GPa) = 71.03407 23.68057 89.49922
#
# Poissons Ratio (x) = 0.38637 0.35205
# Poissons Ratio (y) = 1.15897 -0.14648
# Poissons Ratio (z) = 0.27942 -0.03876
#
# Static dielectric constant tensor:
#      x y z
#    x 1.789870 0.000000 0.014640 
#    y 0.000000 1.887920 0.000000 
#    z 0.014640 0.000000 1.818740 
# 
# From -- ./inp_files/33276.got.cif
#   From: 2010.05.17/outbox.cif.g08.bks.cpg/sg15_17_cif.got.tgz:33276.got - 2010.06.03 18:47:42.
