data_PCOD9298020
_publ_section_title
;
Structure prediction by ZEFSAII (Michael W. Deem and Ramdas Pophale) SiO2 
 PCOD9298020
Probable space group: C 2/C
;
_chemical_formula_sum "Si O2"
_cell_formula_units_Z 44
_cell_length_a 12.375111
_cell_length_b 8.683440
_cell_length_c 24.120502
_cell_angle_alpha 90.000000
_cell_angle_beta 129.921166
_cell_angle_gamma 90.000000
_cell_volume 1987.842286
_symmetry_space_group_name_H-M "C 2/C"
_symmetry_group_IT_number 15
_symmetry_cell_setting 'monoclinic'
loop_
_space_group_symop_operation_xyz
x,y,z
-x,y,1/2-z
-x,-y,-z
x,-y,1/2+z
1/2+x,1/2+y,z
1/2-x,1/2+y,1/2-z
1/2-x,1/2-y,-z
1/2+x,1/2-y,1/2+z
loop_
_atom_site_type_symbol
_atom_site_label
_atom_site_fract_x
_atom_site_fract_y
_atom_site_fract_z
Si Si1 0.693147 0.286812 0.844413
Si Si2 0.905944 0.556420 0.608687
Si Si3 0.539811 0.830523 0.490732
Si Si4 0.926032 0.767967 0.335223
Si Si5 0.141912 0.130302 0.991885
Si Si6 0.000000 0.936184 0.250000
O O1 0.593205 0.152670 0.834707
O O2 0.811997 0.302822 0.930724
O O3 0.774862 0.247685 0.814580
O O4 0.615248 0.448443 0.813129
O O5 0.955040 0.660018 0.573355
O O6 0.744010 0.507416 0.541808
O O7 0.998524 0.400175 0.639715
O O8 0.430143 0.706652 0.478288
O O9 0.500000 0.000000 0.500000
O O10 0.018461 0.880641 0.405763
O O11 0.931577 0.834110 0.275634
O O12 0.250000 0.250000 0.000000
#
# Coordination Sequence:
#
# PCOD9298020 Si02
#       6
#     8   8   8   8   8   4
#     4  11  26  43  64  96 129 167 216 259 316 381
#     4  11  22  39  68  98 129 162 207 262 326 379
#     4  11  19  38  68  99 132 157 195 267 331 379
#     4  10  24  43  65  90 126 170 215 262 313 370
#     4   9  18  35  65  96 124 157 198 255 325 378
#     4  12  28  44  64  86 128 180 224 256 308 372
#
# _framework density 22.134551999999999
#
# number of rings (size 3 to 8) (size 9 to 14) (size 15 to 20)
#    0.000    1.455    5.455    1.636    2.545    8.000 
#    0.000    0.000    0.000    0.000    0.000    0.000 
#    0.000    0.000    0.000    0.000    0.000    0.000 
#
# Total GULP energy -123024.660701 kJ/mol
# GULP energy per Si atom -5592.030032 kJ/mol
# Density = 2.208417 g / cm^3
# Si number density = 22.134552 Si / 1000 Ang^3
#
#
#
# Elastic Constant Matrix: (Units=GPa)
#
#
# Indices 1 2 3 4 5 6 
#
# 1 149.6860 55.5684 52.2472 0.0000 -37.3792 0.0000
# 2 55.5684 67.7398 38.2362 0.0000 -31.2191 0.0000
# 3 52.2472 38.2362 43.4454 0.0000 -27.9950 0.0000
# 4 0.0000 0.0000 0.0000 13.3302 0.0000 -19.4795
# 5 -37.3792 -31.2191 -27.9950 0.0000 36.6856 0.0000
# 6 0.0000 0.0000 0.0000 -19.4795 0.0000 28.3026
#
#
#
# Elastic Compliance Matrix: (Units=1/GPa)
#
#
# Indices 1 2 3 4 5 6 
#
# 1 0.011911 -0.003103 -0.010770 0.000000 0.001276 0.000000
# 2 -0.003103 0.032289 -0.017741 0.000000 0.010778 0.000000
# 3 -0.010770 -0.017741 0.068435 0.000000 0.026152 0.000000
# 4 0.000000 0.000000 0.000000-13.030742 0.000000 -8.968513
# 5 0.001276 0.010778 0.026152 0.000000 0.057687 0.000000
# 6 0.000000 0.000000 0.000000 -8.968513 0.000000 -6.137319
#
#
# Mechanical properties :
#
#
# Convention : Reuss Voigt Hill
#
# Bulk Modulus (GPa) = 20.24040 61.44164 40.84102
# Shear Modulus (GPa) = -0.26430 23.31831 11.52701
#
# Velocity S-wave (km/s) = -0.34593 3.24926 2.28451
# Velocity P-wave (km/s) = 3.00076 6.47267 5.04480
#
# Compressibility (1/GPa) = 0.04940613
#
# Stress axis : x y z
#
# Youngs Moduli (GPa) = 83.95871 30.97038 14.61237
#
# Poissons Ratio (x) = 0.09610 0.15738
# Poissons Ratio (y) = 0.26051 0.25924
# Poissons Ratio (z) = 0.90427 0.54945
#
# Static dielectric constant tensor:
#      x y z
#    x 1.816060 0.000000 0.017420 
#    y 0.000000 1.849570 0.000000 
#    z 0.017420 0.000000 1.811600 
# 
# From -- ./inp_files/268133.got.cif
#   From: 2010.05.17/outbox.cif.g08.bks.cpg/sg15_135_cif.got.tgz:268133.got - 2010.06.03 18:47:42.
