data_PCOD9298168
_publ_section_title
;
Structure prediction by ZEFSAII (Michael W. Deem and Ramdas Pophale) SiO2 
 PCOD9298168
Probable space group: C 2/C
;
_chemical_formula_sum "Si O2"
_cell_formula_units_Z 52
_cell_length_a 18.509976
_cell_length_b 21.369766
_cell_length_c 7.878569
_cell_angle_alpha 90.000000
_cell_angle_beta 132.988594
_cell_angle_gamma 90.000000
_cell_volume 2279.612525
_symmetry_space_group_name_H-M "C 2/C"
_symmetry_group_IT_number 15
_symmetry_cell_setting 'monoclinic'
loop_
_space_group_symop_operation_xyz
x,y,z
-x,y,1/2-z
-x,-y,-z
x,-y,1/2+z
1/2+x,1/2+y,z
1/2-x,1/2+y,1/2-z
1/2-x,1/2-y,-z
1/2+x,1/2-y,1/2+z
loop_
_atom_site_type_symbol
_atom_site_label
_atom_site_fract_x
_atom_site_fract_y
_atom_site_fract_z
Si Si1 0.116352 0.585261 0.741039
Si Si2 0.855711 0.232352 0.746115
Si Si3 0.419767 0.445220 0.916762
Si Si4 0.396613 0.866564 0.905935
Si Si5 0.245102 0.381312 0.146338
Si Si6 0.500000 0.664694 0.750000
Si Si7 0.781277 0.992639 0.993523
O O1 0.169053 0.623765 0.677504
O O2 0.999150 0.596908 0.533909
O O3 0.138674 0.608185 0.968033
O O4 0.168156 0.516955 0.795688
O O5 0.750000 0.250000 0.500000
O O6 0.906189 0.290768 0.921400
O O7 0.829453 0.169727 0.806658
O O8 0.915844 0.209790 0.680474
O O9 0.344792 0.445414 0.639701
O O10 0.500000 0.500000 0.000000
O O11 0.471920 0.381109 0.050155
O O12 0.348024 0.455914 0.965535
O O13 0.317662 0.875793 0.629992
O O14 0.285888 0.450606 0.173330
#
# Coordination Sequence:
#
# PCOD9298168 Si02
#       7
#     8   8   8   8   8   4   8
#     4  11  25  43  70 101 145 182 235 295 361 425
#     4  10  24  43  71  97 133 185 246 294 349 421
#     4  12  22  41  67 100 144 176 226 290 358 441
#     4  10  25  47  65 102 139 186 246 294 344 432
#     4  11  22  44  71 100 134 190 232 291 363 416
#     4  12  24  42  72 104 136 188 236 294 370 420
#     4  12  23  41  66 103 140 178 228 289 358 433
#
# _framework density 22.810894999999999
#
# number of rings (size 3 to 8) (size 9 to 14) (size 15 to 20)
#    0.000    0.923    4.615    1.385    6.462    1.231 
#    2.769    3.077    0.000    0.000    0.000    0.000 
#    0.000    0.000    0.000    0.000    0.000    0.000 
#
# Total GULP energy -144939.694215 kJ/mol
# GULP energy per Si atom -5574.603624 kJ/mol
# Density = 2.275898 g / cm^3
# Si number density = 22.810895 Si / 1000 Ang^3
#
#
#
# Elastic Constant Matrix: (Units=GPa)
#
#
# Indices 1 2 3 4 5 6 
#
# 1 184.1288 41.1782 25.1529 0.0000 11.8606 0.0000
# 2 41.1782 90.4491 10.7323 0.0000 23.9157 0.0000
# 3 25.1529 10.7323 64.8314 0.0000 13.2264 0.0000
# 4 0.0000 0.0000 0.0000 25.3192 0.0000 11.3960
# 5 11.8606 23.9157 13.2264 0.0000 35.1922 0.0000
# 6 0.0000 0.0000 0.0000 11.3960 0.0000 40.5598
#
#
#
# Elastic Compliance Matrix: (Units=1/GPa)
#
#
# Indices 1 2 3 4 5 6 
#
# 1 0.006300 -0.002763 -0.002098 0.000000 0.000543 0.000000
# 2 -0.002763 0.014699 0.000527 0.000000 -0.009256 0.000000
# 3 -0.002098 0.000527 0.017415 0.000000 -0.006196 0.000000
# 4 0.000000 0.000000 0.000000 0.045213 0.000000 -0.012703
# 5 0.000543 -0.009256 -0.006196 0.000000 0.036851 0.000000
# 6 0.000000 0.000000 0.000000 -0.012703 0.000000 0.028224
#
#
# Mechanical properties :
#
#
# Convention : Reuss Voigt Hill
#
# Bulk Modulus (GPa) = 33.61682 54.83736 44.22709
# Shear Modulus (GPa) = 29.88889 37.70399 33.79644
#
# Velocity S-wave (km/s) = 3.62372 4.06999 3.85332
# Velocity P-wave (km/s) = 5.68134 6.79548 6.26324
#
# Compressibility (1/GPa) = 0.02974701
#
# Stress axis : x y z
#
# Youngs Moduli (GPa) = 158.71779 68.03386 57.42051
#
# Poissons Ratio (x) = 0.18797 0.12045
# Poissons Ratio (y) = 0.43853 -0.03026
# Poissons Ratio (z) = 0.33295 -0.03585
#
# Static dielectric constant tensor:
#      x y z
#    x 1.781900 0.000000 0.071880 
#    y 0.000000 2.386810 0.000000 
#    z 0.071880 0.000000 1.971570 
# 
# From -- ./inp_files/50704.got.cif
#   From: 2010.05.17/outbox.cif.g08.bks.cpg/sg15_26_cif.got.tgz:50704.got - 2010.06.03 18:47:42.
