data_PCOD9298009
_publ_section_title
;
Structure prediction by ZEFSAII (Michael W. Deem and Ramdas Pophale) SiO2 
 PCOD9298009
Probable space group: C 2/C
;
_chemical_formula_sum "Si O2"
_cell_formula_units_Z 60
_cell_length_a 14.292493
_cell_length_b 14.912326
_cell_length_c 16.146721
_cell_angle_alpha 90.000000
_cell_angle_beta 124.022238
_cell_angle_gamma 90.000000
_cell_volume 2852.319616
_symmetry_space_group_name_H-M "C 2/C"
_symmetry_group_IT_number 15
_symmetry_cell_setting 'monoclinic'
loop_
_space_group_symop_operation_xyz
x,y,z
-x,y,1/2-z
-x,-y,-z
x,-y,1/2+z
1/2+x,1/2+y,z
1/2-x,1/2+y,1/2-z
1/2-x,1/2-y,-z
1/2+x,1/2-y,1/2+z
loop_
_atom_site_type_symbol
_atom_site_label
_atom_site_fract_x
_atom_site_fract_y
_atom_site_fract_z
Si Si1 0.850145 0.422156 0.926445
Si Si2 0.082305 0.614661 0.579512
Si Si3 0.784868 0.851682 0.496563
Si Si4 0.761359 0.834913 0.775706
Si Si5 0.482745 0.447293 0.905646
Si Si6 0.878189 0.675051 0.728045
Si Si7 0.207712 0.783771 0.388968
Si Si8 0.500000 0.423500 0.250000
O O1 0.891680 0.522793 0.953546
O O2 0.811636 0.400274 0.816439
O O3 0.751754 0.408493 0.942429
O O4 0.954421 0.357447 0.999571
O O5 0.094952 0.608105 0.683893
O O6 0.176589 0.679687 0.593073
O O7 0.750000 0.750000 0.500000
O O8 0.914421 0.876139 0.548698
O O9 0.704789 0.871018 0.378709
O O10 0.810485 0.758142 0.736724
O O11 0.686482 0.796802 0.813677
O O12 0.868792 0.890908 0.857694
O O13 0.478786 0.512522 0.821242
O O14 0.500000 0.500000 0.000000
O O15 0.000000 0.702915 0.750000
O O16 0.250000 0.750000 0.500000
O O17 0.107109 0.857946 0.328189
#
# Coordination Sequence:
#
# PCOD9298009 Si02
#       8
#     8   8   8   8   8   8   8   4
#     4  11  23  42  66  96 136 174 219 285 345 410
#     4  10  24  43  64  96 136 174 222 281 345 408
#     4  12  24  40  71 101 138 178 232 282 347 416
#     4  11  25  40  72  98 136 177 230 284 347 414
#     4  12  28  45  72 107 145 186 240 295 362 427
#     4  11  22  40  66 101 131 172 223 284 342 411
#     4  11  26  47  73  98 139 185 237 279 347 427
#     4  12  28  50  74 104 150 190 232 300 364 420
#
# _framework density 21.035511
#
# number of rings (size 3 to 8) (size 9 to 14) (size 15 to 20)
#    0.000    0.800    2.667    4.000   10.267    0.000 
#    0.000    0.000    0.000    0.000    0.000    0.000 
#    0.000    0.000    0.000    0.000    0.000    0.000 
#
# Total GULP energy -167377.193524 kJ/mol
# GULP energy per Si atom -5579.239784 kJ/mol
# Density = 2.098763 g / cm^3
# Si number density = 21.035511 Si / 1000 Ang^3
#
#
#
# Elastic Constant Matrix: (Units=GPa)
#
#
# Indices 1 2 3 4 5 6 
#
# 1 40.2590 8.5910 19.0822 0.0000 -7.9421 0.0000
# 2 8.5910 38.4616 0.1731 0.0000 -5.9791 0.0000
# 3 19.0822 0.1731 88.4260 0.0000 1.6302 0.0000
# 4 0.0000 0.0000 0.0000 29.1320 0.0000 9.1080
# 5 -7.9421 -5.9791 1.6302 0.0000 40.7017 0.0000
# 6 0.0000 0.0000 0.0000 9.1080 0.0000 28.3458
#
#
#
# Elastic Compliance Matrix: (Units=1/GPa)
#
#
# Indices 1 2 3 4 5 6 
#
# 1 0.030286 -0.005910 -0.006622 0.000000 0.005307 0.000000
# 2 -0.005910 0.027762 0.001168 0.000000 0.002878 0.000000
# 3 -0.006622 0.001168 0.012766 0.000000 -0.001632 0.000000
# 4 0.000000 0.000000 0.000000 0.038160 0.000000 -0.012261
# 5 0.005307 0.002878 -0.001632 0.000000 0.026093 0.000000
# 6 0.000000 0.000000 0.000000 -0.012261 0.000000 0.039218
#
#
# Mechanical properties :
#
#
# Convention : Reuss Voigt Hill
#
# Bulk Modulus (GPa) = 20.79615 24.75990 22.77802
# Shear Modulus (GPa) = 23.46959 28.92258 26.19609
#
# Velocity S-wave (km/s) = 3.34385 3.71204 3.53275
# Velocity P-wave (km/s) = 4.98158 5.49258 5.24331
#
# Compressibility (1/GPa) = 0.04808583
#
# Stress axis : x y z
#
# Youngs Moduli (GPa) = 33.01863 36.02007 78.33502
#
# Poissons Ratio (x) = 0.21288 0.51873
# Poissons Ratio (y) = 0.19514 -0.09149
# Poissons Ratio (z) = 0.21865 -0.04207
#
# Static dielectric constant tensor:
#      x y z
#    x 1.789720 0.000000 0.036740 
#    y 0.000000 1.859640 0.000000 
#    z 0.036740 0.000000 1.861670 
# 
# From -- ./inp_files/154274.got.cif
#   From: 2010.05.17/outbox.cif.g08.bks.cpg/sg15_78_cif.got.tgz:154274.got - 2010.06.03 18:47:42.
