data_PCOD9298484
_publ_section_title
;
Structure prediction by ZEFSAII (Michael W. Deem and Ramdas Pophale) SiO2 
 PCOD9298484
Probable space group: C 2/C
;
_chemical_formula_sum "Si O2"
_cell_formula_units_Z 56
_cell_length_a 18.630598
_cell_length_b 5.676474
_cell_length_c 22.923890
_cell_angle_alpha 90.000000
_cell_angle_beta 67.261334
_cell_angle_gamma 90.000000
_cell_volume 2235.915334
_symmetry_space_group_name_H-M "C 2/C"
_symmetry_group_IT_number 15
_symmetry_cell_setting 'monoclinic'
loop_
_space_group_symop_operation_xyz
x,y,z
-x,y,1/2-z
-x,-y,-z
x,-y,1/2+z
1/2+x,1/2+y,z
1/2-x,1/2+y,1/2-z
1/2-x,1/2-y,-z
1/2+x,1/2-y,1/2+z
loop_
_atom_site_type_symbol
_atom_site_label
_atom_site_fract_x
_atom_site_fract_y
_atom_site_fract_z
Si Si1 0.185325 0.255001 0.470722
Si Si2 0.621305 0.314375 0.708589
Si Si3 0.930895 0.310654 0.819021
Si Si4 0.922155 0.220755 0.153957
Si Si5 0.533230 0.061466 0.062654
Si Si6 0.281177 0.002578 0.652272
Si Si7 0.109151 0.147413 0.932446
O O1 0.250000 0.250000 0.500000
O O2 0.119292 0.444231 0.509512
O O3 0.226596 0.295534 0.395018
O O4 0.129433 0.028937 0.478244
O O5 0.605642 0.550213 0.676414
O O6 0.564147 0.311380 0.782328
O O7 0.706728 0.391487 0.706207
O O8 0.616577 0.057079 0.679563
O O9 0.959514 0.317950 0.876236
O O10 0.000000 0.320532 0.750000
O O11 0.852063 0.412166 0.170419
O O12 0.994058 0.318243 0.094529
O O13 0.896334 0.994443 0.126877
O O14 0.470415 0.201792 0.042893
O O15 0.314493 0.799319 0.601023
#
# Coordination Sequence:
#
# PCOD9298484 Si02
#       7
#     8   8   8   8   8   8   8
#     4  11  25  47  71 105 146 193 253 312 379 444
#     4  12  27  44  75 106 157 189 250 313 376 441
#     4  12  26  46  71 109 146 196 248 313 375 445
#     4  10  24  44  71 105 142 194 242 303 376 450
#     4  11  24  45  73 103 146 196 253 306 374 453
#     4  10  26  44  69 108 142 194 246 304 378 452
#     4  10  24  45  70 103 144 190 252 302 378 447
#
# _framework density 25.045672
#
# number of rings (size 3 to 8) (size 9 to 14) (size 15 to 20)
#    0.000    1.143    1.429    2.571   12.000    6.857 
#    0.000    0.000    0.000    0.000    0.000    0.000 
#    0.000    0.000    0.000    0.000    0.000    0.000 
#
# Total GULP energy -156440.255136 kJ/mol
# GULP energy per Si atom -5587.151969 kJ/mol
# Density = 2.498867 g / cm^3
# Si number density = 25.045672 Si / 1000 Ang^3
#
#
#
# Elastic Constant Matrix: (Units=GPa)
#
#
# Indices 1 2 3 4 5 6 
#
# 1 88.4110 26.2166 20.3512 0.0013 4.6712 -0.0002
# 2 26.2166 110.7855 12.0362 0.0036 1.9277 -0.0010
# 3 20.3512 12.0362 93.0178 0.0028 6.5356 0.0002
# 4 0.0013 0.0036 0.0028 30.6638 0.0006 -0.4828
# 5 4.6712 1.9277 6.5356 0.0006 52.4616 0.0008
# 6 -0.0002 -0.0010 0.0002 -0.4828 0.0008 27.5623
#
#
#
# Elastic Compliance Matrix: (Units=1/GPa)
#
#
# Indices 1 2 3 4 5 6 
#
# 1 0.012708 -0.002736 -0.002375 0.000000 -0.000735 0.000000
# 2 -0.002736 0.009746 -0.000660 -0.000001 -0.000032 0.000000
# 3 -0.002375 -0.000660 0.011439 -0.000001 -0.001189 0.000000
# 4 0.000000 -0.000001 -0.000001 0.032621 0.000000 0.000571
# 5 -0.000735 -0.000032 -0.001189 0.000000 0.019276 -0.000001
# 6 0.000000 0.000000 0.000000 0.000571 -0.000001 0.036291
#
#
# Mechanical properties :
#
#
# Convention : Reuss Voigt Hill
#
# Bulk Modulus (GPa) = 44.74109 45.49138 45.11623
# Shear Modulus (GPa) = 35.44232 37.71155 36.57693
#
# Velocity S-wave (km/s) = 3.76587 3.88456 3.82568
# Velocity P-wave (km/s) = 6.06726 6.19052 6.12920
#
# Compressibility (1/GPa) = 0.02235082
#
# Stress axis : x y z
#
# Youngs Moduli (GPa) = 78.69257 102.60313 87.41913
#
# Poissons Ratio (x) = 0.28076 0.20758
# Poissons Ratio (y) = 0.21534 0.05771
# Poissons Ratio (z) = 0.18686 0.06774
#
# Static dielectric constant tensor:
#      x y z
#    x 2.011540 0.000000 -0.002610 
#    y 0.000000 2.079320 -0.000010 
#    z -0.002610 -0.000010 1.941210 
# 
# From -- ./inp_files/278905.got.cif
#   From: 2010.05.17/outbox.cif.g08.bks.cpg/sg15_140_cif.got.tgz:278905.got - 2010.06.03 18:47:42.
