data_PCOD9298931
_publ_section_title
;
Structure prediction by ZEFSAII (Michael W. Deem and Ramdas Pophale) SiO2 
 PCOD9298931
Probable space group: C 2/C
;
_chemical_formula_sum "Si O2"
_cell_formula_units_Z 32
_cell_length_a 9.234676
_cell_length_b 19.005985
_cell_length_c 7.290413
_cell_angle_alpha 90.000000
_cell_angle_beta 119.749203
_cell_angle_gamma 90.000000
_cell_volume 1110.930315
_symmetry_space_group_name_H-M "C 2/C"
_symmetry_group_IT_number 15
_symmetry_cell_setting 'monoclinic'
loop_
_space_group_symop_operation_xyz
x,y,z
-x,y,1/2-z
-x,-y,-z
x,-y,1/2+z
1/2+x,1/2+y,z
1/2-x,1/2+y,1/2-z
1/2-x,1/2-y,-z
1/2+x,1/2-y,1/2+z
loop_
_atom_site_type_symbol
_atom_site_label
_atom_site_fract_x
_atom_site_fract_y
_atom_site_fract_z
Si Si1 0.500000 0.505883 0.250000
Si Si2 0.236925 0.066595 0.159728
Si Si3 0.365105 0.163677 0.943588
Si Si4 0.500000 0.944748 0.250000
Si Si5 0.095560 0.791301 0.993060
O O1 0.659863 0.554985 0.310178
O O2 0.568712 0.451405 0.442914
O O3 0.356909 0.000590 0.206485
O O4 0.314576 0.134392 0.111493
O O5 0.488059 0.108005 0.916907
O O6 0.197106 0.166226 0.712815
O O7 0.461240 0.237705 0.999263
O O8 0.000000 0.818627 0.750000
O O9 0.250000 0.750000 0.000000
#
# Coordination Sequence:
#
# PCOD9298931 Si02
#       5
#     4   8   8   4   8
#     4  10  24  46  70 112 150 204 246 318 404 440
#     4  11  24  45  73 116 155 198 254 322 398 455
#     4  11  21  41  74 114 161 198 262 310 387 465
#     4  12  22  42  74 122 156 194 246 326 390 468
#     4   9  18  38  67 109 154 211 252 314 368 442
#
# _framework density 28.804687999999999
#
# number of rings (size 3 to 8) (size 9 to 14) (size 15 to 20)
#    0.000    1.500    6.250    0.750    0.000    0.000 
#    2.250    5.000    0.000    6.000    0.000    0.000 
#    0.000    0.000    0.000    0.000    0.000    0.000 
#
# Total GULP energy -89481.902003 kJ/mol
# GULP energy per Si atom -5592.618875 kJ/mol
# Density = 2.873913 g / cm^3
# Si number density = 28.804688 Si / 1000 Ang^3
#
#
#
# Elastic Constant Matrix: (Units=GPa)
#
#
# Indices 1 2 3 4 5 6 
#
# 1 181.6847 61.7306 19.3243 0.0000 4.1025 0.0000
# 2 61.7306 98.1258 22.4610 0.0000 3.6694 0.0000
# 3 19.3243 22.4610 100.3576 0.0000 2.4188 0.0000
# 4 0.0000 0.0000 0.0000 34.4940 0.0000 0.1647
# 5 4.1025 3.6694 2.4188 0.0000 50.7368 0.0000
# 6 0.0000 0.0000 0.0000 0.1647 0.0000 58.0031
#
#
#
# Elastic Compliance Matrix: (Units=1/GPa)
#
#
# Indices 1 2 3 4 5 6 
#
# 1 0.007017 -0.004319 -0.000379 0.000000 -0.000237 0.000000
# 2 -0.004319 0.013422 -0.002160 0.000000 -0.000519 0.000000
# 3 -0.000379 -0.002160 0.010528 0.000000 -0.000315 0.000000
# 4 0.000000 0.000000 0.000000 0.028991 0.000000 -0.000082
# 5 -0.000237 -0.000519 -0.000315 0.000000 0.019781 0.000000
# 6 0.000000 0.000000 0.000000 -0.000082 0.000000 0.017241
#
#
# Mechanical properties :
#
#
# Convention : Reuss Voigt Hill
#
# Bulk Modulus (GPa) = 57.96394 65.24445 61.60419
# Shear Modulus (GPa) = 42.93847 47.09027 45.01437
#
# Velocity S-wave (km/s) = 3.86512 4.04767 3.95745
# Velocity P-wave (km/s) = 6.33132 6.67418 6.50501
#
# Compressibility (1/GPa) = 0.01725211
#
# Stress axis : x y z
#
# Youngs Moduli (GPa) = 142.50917 74.50600 94.98213
#
# Poissons Ratio (x) = 0.32178 0.03599
# Poissons Ratio (y) = 0.61548 0.20514
# Poissons Ratio (z) = 0.05399 0.16092
#
# Static dielectric constant tensor:
#      x y z
#    x 2.450240 0.000000 -0.162220 
#    y 0.000000 2.194370 0.000000 
#    z -0.162220 0.000000 2.424890 
# 
# From -- ./inp_files/23264.got.cif
#   From: 2010.05.17/outbox.cif.g08.bks.cpg/sg15_12_cif.got.tgz:23264.got - 2010.06.03 18:47:42.
