data_PCOD9298209
_publ_section_title
;
Structure prediction by ZEFSAII (Michael W. Deem and Ramdas Pophale) SiO2 
 PCOD9298209
Probable space group: C 2/C
;
_chemical_formula_sum "Si O2"
_cell_formula_units_Z 52
_cell_length_a 5.811867
_cell_length_b 13.575652
_cell_length_c 27.877058
_cell_angle_alpha 90.000000
_cell_angle_beta 85.444464
_cell_angle_gamma 90.000000
_cell_volume 2192.548024
_symmetry_space_group_name_H-M "C 2/C"
_symmetry_group_IT_number 15
_symmetry_cell_setting 'monoclinic'
loop_
_space_group_symop_operation_xyz
x,y,z
-x,y,1/2-z
-x,-y,-z
x,-y,1/2+z
1/2+x,1/2+y,z
1/2-x,1/2+y,1/2-z
1/2-x,1/2-y,-z
1/2+x,1/2-y,1/2+z
loop_
_atom_site_type_symbol
_atom_site_label
_atom_site_fract_x
_atom_site_fract_y
_atom_site_fract_z
Si Si1 0.750069 0.552027 0.010860
Si Si2 0.597822 0.807567 0.625517
Si Si3 0.694715 0.957327 0.807142
Si Si4 0.501490 0.455422 0.892065
Si Si5 0.220678 0.837242 0.419602
Si Si6 0.000000 0.830648 0.750000
Si Si7 0.417031 0.175258 0.670654
O O1 0.766820 0.644287 0.974701
O O2 0.500000 0.500000 0.000000
O O3 0.710704 0.562348 0.068209
O O4 0.000000 0.500000 0.000000
O O5 0.472922 0.887436 0.660372
O O6 0.448365 0.753249 0.587927
O O7 0.670778 0.718217 0.659342
O O8 0.818520 0.867255 0.602650
O O9 0.917646 0.960516 0.838884
O O10 0.780434 0.903108 0.757895
O O11 0.600379 0.067751 0.805968
O O12 0.609507 0.560145 0.903414
O O13 0.439780 0.826989 0.381101
O O14 0.015994 0.757053 0.704811
#
# Coordination Sequence:
#
# PCOD9298209 Si02
#       7
#     8   8   8   8   8   4   8
#     4  10  24  43  75 117 157 205 262 308 377 465
#     4  12  24  44  76 106 144 194 246 312 374 466
#     4  12  26  47  73 104 147 190 246 310 388 447
#     4  11  23  45  76 107 151 199 246 309 382 449
#     4  11  23  45  76 107 151 199 246 309 382 449
#     4  12  28  46  68 112 134 188 256 310 376 476
#     4  12  26  47  73 104 147 190 246 310 388 447
#
# _framework density 23.716698999999998
#
# number of rings (size 3 to 8) (size 9 to 14) (size 15 to 20)
#    0.000    0.615    6.154    0.923    4.308    4.923 
#    0.000    3.077    0.000    0.000    0.000    0.000 
#    0.000    0.000    0.000    0.000    0.000    0.000 
#
# Total GULP energy -145351.464846 kJ/mol
# GULP energy per Si atom -5590.440956 kJ/mol
# Density = 2.366272 g / cm^3
# Si number density = 23.716699 Si / 1000 Ang^3
#
#
#
# Elastic Constant Matrix: (Units=GPa)
#
#
# Indices 1 2 3 4 5 6 
#
# 1 73.6080 49.7534 11.2815 0.0000 -16.3871 0.0000
# 2 49.7534 169.9984 32.8965 0.0000 -23.0794 0.0000
# 3 11.2815 32.8965 77.3692 0.0000 -25.0446 0.0000
# 4 0.0000 0.0000 0.0000 29.0589 0.0000 -6.3586
# 5 -16.3871 -23.0794 -25.0446 0.0000 41.7377 0.0000
# 6 0.0000 0.0000 0.0000 -6.3586 0.0000 31.9986
#
#
#
# Elastic Compliance Matrix: (Units=1/GPa)
#
#
# Indices 1 2 3 4 5 6 
#
# 1 0.017718 -0.004710 0.001027 0.000000 0.004968 0.000000
# 2 -0.004710 0.007856 -0.002291 0.000000 0.001120 0.000000
# 3 0.001027 -0.002291 0.016717 0.000000 0.009167 0.000000
# 4 0.000000 0.000000 0.000000 0.035977 0.000000 0.007149
# 5 0.004968 0.001120 0.009167 0.000000 0.032030 0.000000
# 6 0.000000 0.000000 0.000000 0.007149 0.000000 0.032672
#
#
# Mechanical properties :
#
#
# Convention : Reuss Voigt Hill
#
# Bulk Modulus (GPa) = 32.95539 56.53759 44.74649
# Shear Modulus (GPa) = 30.29725 35.69529 32.99627
#
# Velocity S-wave (km/s) = 3.57804 3.88373 3.73402
# Velocity P-wave (km/s) = 5.56736 6.63337 6.12361
#
# Compressibility (1/GPa) = 0.03034405
#
# Stress axis : x y z
#
# Youngs Moduli (GPa) = 56.44133 127.28767 59.81980
#
# Poissons Ratio (x) = 0.59948 -0.06146
# Poissons Ratio (y) = 0.26582 0.13705
# Poissons Ratio (z) = -0.05799 0.29161
#
# Static dielectric constant tensor:
#      x y z
#    x 2.031490 0.000000 0.042630 
#    y 0.000000 1.871580 0.000000 
#    z 0.042630 0.000000 1.921370 
# 
# From -- ./inp_files/305328.got.cif
#   From: 2010.05.17/outbox.cif.g08.bks.cpg/sg15_153_cif.got.tgz:305328.got - 2010.06.03 18:47:42.
