data_PCOD9298211
_publ_section_title
;
Structure prediction by ZEFSAII (Michael W. Deem and Ramdas Pophale) SiO2 
 PCOD9298211
Probable space group: C 2/C
;
_chemical_formula_sum "Si O2"
_cell_formula_units_Z 48
_cell_length_a 10.265128
_cell_length_b 24.990368
_cell_length_c 13.010914
_cell_angle_alpha 90.000000
_cell_angle_beta 148.237366
_cell_angle_gamma 90.000000
_cell_volume 1756.960012
_symmetry_space_group_name_H-M "C 2/C"
_symmetry_group_IT_number 15
_symmetry_cell_setting 'monoclinic'
loop_
_space_group_symop_operation_xyz
x,y,z
-x,y,1/2-z
-x,-y,-z
x,-y,1/2+z
1/2+x,1/2+y,z
1/2-x,1/2+y,1/2-z
1/2-x,1/2-y,-z
1/2+x,1/2-y,1/2+z
loop_
_atom_site_type_symbol
_atom_site_label
_atom_site_fract_x
_atom_site_fract_y
_atom_site_fract_z
Si Si1 0.500333 0.758940 0.855251
Si Si2 0.917876 0.628436 0.398795
Si Si3 0.647933 0.592325 0.672522
Si Si4 0.467774 0.987649 0.847479
Si Si5 0.000000 0.824612 0.750000
Si Si6 0.500000 0.532521 0.750000
Si Si7 0.282783 0.308362 0.401248
O O1 0.443909 0.822103 0.838165
O O2 0.357025 0.725989 0.850903
O O3 0.298146 0.748191 0.614153
O O4 0.873273 0.570092 0.321607
O O5 0.726384 0.640984 0.361092
O O6 0.176983 0.624653 0.632227
O O7 0.790598 0.538711 0.737625
O O8 0.445174 0.570338 0.614871
O O9 0.608746 0.632312 0.553254
O O10 0.500000 0.983088 0.750000
O O11 0.738611 0.998069 0.081983
O O12 0.923447 0.791216 0.599088
O O13 0.000000 0.314847 0.250000
#
# Coordination Sequence:
#
# PCOD9298211 Si02
#       7
#     8   8   8   8   4   4   8
#     4  12  28  49  83 119 161 214 271 336 412 488
#     4  11  25  47  74 115 159 204 271 331 400 486
#     4  11  25  49  76 116 155 213 264 338 406 487
#     4  11  26  46  74 111 159 206 274 332 401 484
#     4  12  28  47  82 112 160 210 270 333 414 482
#     4  10  24  43  76 106 158 206 262 331 414 452
#     4  12  28  53  82 119 167 210 275 338 415 489
#
# _framework density 27.319915000000002
#
# number of rings (size 3 to 8) (size 9 to 14) (size 15 to 20)
#    0.000    0.667    1.667    5.000    9.333    4.000 
#    0.000    0.000    0.000    0.000    0.000    0.000 
#    0.000    0.000    0.000    0.000    0.000    0.000 
#
# Total GULP energy -134235.759373 kJ/mol
# GULP energy per Si atom -5593.156641 kJ/mol
# Density = 2.725773 g / cm^3
# Si number density = 27.319915 Si / 1000 Ang^3
#
#
#
# Elastic Constant Matrix: (Units=GPa)
#
#
# Indices 1 2 3 4 5 6 
#
# 1 217.8547 92.4593 68.7012 0.0003 -22.2507 0.0002
# 2 92.4593 207.5242 40.4228 0.0001 -8.6543 0.0000
# 3 68.7012 40.4228 100.3733 0.0008 -19.3047 0.0004
# 4 0.0003 0.0001 0.0008 -186.5349 0.0004 -89.5908
# 5 -22.2507 -8.6543 -19.3047 0.0004 72.1813 0.0002
# 6 0.0002 0.0000 0.0004 -89.5908 0.0002 -7.6548
#
#
#
# Elastic Compliance Matrix: (Units=1/GPa)
#
#
# Indices 1 2 3 4 5 6 
#
# 1 0.006767 -0.002289 -0.003544 0.000000 0.000864 0.000000
# 2 -0.002289 0.006003 -0.000894 0.000000 -0.000225 0.000000
# 3 -0.003544 -0.000894 0.013197 0.000000 0.002330 0.000000
# 4 0.000000 0.000000 0.000000 0.001160 0.000000 -0.013577
# 5 0.000864 -0.000225 0.002330 0.000000 0.014716 0.000000
# 6 0.000000 0.000000 0.000000 -0.013577 0.000000 0.028269
#
#
# Mechanical properties :
#
#
# Convention : Reuss Voigt Hill
#
# Bulk Modulus (GPa) = 79.91660 103.21321 91.56490
# Shear Modulus (GPa) = 56.98753 -2.79043 27.09855
#
# Velocity S-wave (km/s) = 4.57216 -1.01173 3.15286
# Velocity P-wave (km/s) = 7.56231 6.04125 6.84416
#
# Compressibility (1/GPa) = 0.01251304
#
# Stress axis : x y z
#
# Youngs Moduli (GPa) = 147.76543 166.57586 75.77546
#
# Poissons Ratio (x) = 0.38125 0.26856
# Poissons Ratio (y) = 0.33820 0.06777
# Poissons Ratio (z) = 0.52370 0.14898
#
# Static dielectric constant tensor:
#      x y z
#    x 2.202270 0.000000 -0.006490 
#    y 0.000000 2.098360 0.000000 
#    z -0.006490 0.000000 2.369530 
# 
# From -- ./inp_files/148885.got.cif
#   From: 2010.05.17/outbox.cif.g08.bks.cpg/sg15_75_cif.got.tgz:148885.got - 2010.06.03 18:47:42.
