data_PCOD9298993
_publ_section_title
;
Structure prediction by ZEFSAII (Michael W. Deem and Ramdas Pophale) SiO2 
 PCOD9298993
Probable space group: C 2/C
;
_chemical_formula_sum "Si O2"
_cell_formula_units_Z 44
_cell_length_a 6.692238
_cell_length_b 22.201295
_cell_length_c 14.218164
_cell_angle_alpha 90.000000
_cell_angle_beta 58.556634
_cell_angle_gamma 90.000000
_cell_volume 1802.277917
_symmetry_space_group_name_H-M "C 2/C"
_symmetry_group_IT_number 15
_symmetry_cell_setting 'monoclinic'
loop_
_space_group_symop_operation_xyz
x,y,z
-x,y,1/2-z
-x,-y,-z
x,-y,1/2+z
1/2+x,1/2+y,z
1/2-x,1/2+y,1/2-z
1/2-x,1/2-y,-z
1/2+x,1/2-y,1/2+z
loop_
_atom_site_type_symbol
_atom_site_label
_atom_site_fract_x
_atom_site_fract_y
_atom_site_fract_z
Si Si1 0.882579 0.024136 0.432344
Si Si2 0.849092 0.816489 0.493310
Si Si3 0.389078 0.086824 0.583954
Si Si4 0.500000 0.284925 0.750000
Si Si5 0.262622 0.378514 0.709663
Si Si6 0.272226 0.318754 0.243502
O O1 0.655071 0.065114 0.510672
O O2 0.075519 0.063302 0.331232
O O3 0.779216 0.969317 0.397225
O O4 0.000000 0.000000 0.500000
O O5 0.750000 0.750000 0.500000
O O6 0.689285 0.863120 0.473144
O O7 0.846882 0.838777 0.600274
O O8 0.112590 0.819758 0.387485
O O9 0.330951 0.118429 0.696940
O O10 0.290423 0.334019 0.792726
O O11 0.413165 0.234506 0.697384
O O12 0.000000 0.395922 0.750000
O O13 0.500000 0.304874 0.250000
#
# Coordination Sequence:
#
# PCOD9298993 Si02
#       6
#     8   8   8   4   8   8
#     4  11  25  50  77 107 149 201 254 307 379 453
#     4  11  23  46  75 106 153 190 243 315 374 447
#     4  10  24  48  78 112 148 189 257 311 378 456
#     4  12  26  44  76 106 152 196 250 304 392 434
#     4  12  28  47  69 109 149 198 252 310 373 454
#     4  10  24  46  72 115 148 185 247 314 373 455
#
# _framework density 24.413550000000001
#
# number of rings (size 3 to 8) (size 9 to 14) (size 15 to 20)
#    0.000    1.091    1.818    3.818    7.636    0.727 
#   14.727    0.000    0.000    0.000    0.000    0.000 
#    0.000    0.000    0.000    0.000    0.000    0.000 
#
# Total GULP energy -122983.981842 kJ/mol
# GULP energy per Si atom -5590.180993 kJ/mol
# Density = 2.435798 g / cm^3
# Si number density = 24.413550 Si / 1000 Ang^3
#
#
#
# Elastic Constant Matrix: (Units=GPa)
#
#
# Indices 1 2 3 4 5 6 
#
# 1 171.0625 90.8845 37.7938 0.0000 -34.3837 0.0000
# 2 90.8845 197.8273 64.0182 0.0000 -27.6475 0.0000
# 3 37.7938 64.0182 105.9700 0.0000 -15.8378 0.0000
# 4 0.0000 0.0000 0.0000 28.7005 0.0000 13.6281
# 5 -34.3837 -27.6475 -15.8378 0.0000 34.0254 0.0000
# 6 0.0000 0.0000 0.0000 13.6281 0.0000 8.9117
#
#
#
# Elastic Compliance Matrix: (Units=1/GPa)
#
#
# Indices 1 2 3 4 5 6 
#
# 1 0.008804 -0.003055 -0.000361 0.000000 0.006247 0.000000
# 2 -0.003055 0.007779 -0.003360 0.000000 0.001670 0.000000
# 3 -0.000361 -0.003360 0.011965 0.000000 0.002474 0.000000
# 4 0.000000 0.000000 0.000000 0.127226 0.000000 -0.194559
# 5 0.006247 0.001670 0.002474 0.000000 0.038211 0.000000
# 6 0.000000 0.000000 0.000000 -0.194559 0.000000 0.409738
#
#
# Mechanical properties :
#
#
# Convention : Reuss Voigt Hill
#
# Bulk Modulus (GPa) = 66.68404 95.58362 81.13383
# Shear Modulus (GPa) = 8.03503 33.13840 20.58671
#
# Velocity S-wave (km/s) = 1.81614 3.68826 2.90703
# Velocity P-wave (km/s) = 5.63662 7.57460 6.67630
#
# Compressibility (1/GPa) = 0.01499609
#
# Stress axis : x y z
#
# Youngs Moduli (GPa) = 113.58193 128.54718 83.57554
#
# Poissons Ratio (x) = 0.39271 0.03016
# Poissons Ratio (y) = 0.34699 0.28085
# Poissons Ratio (z) = 0.04098 0.43198
#
# Static dielectric constant tensor:
#      x y z
#    x 1.979560 0.000000 0.069790 
#    y 0.000000 1.912830 0.000000 
#    z 0.069790 0.000000 2.054400 
# 
# From -- ./inp_files/185188.got.cif
#   From: 2010.05.17/outbox.cif.g08.bks.cpg/sg15_93_cif.got.tgz:185188.got - 2010.06.03 18:47:42.
