data_PCOD9298430
_publ_section_title
;
Structure prediction by ZEFSAII (Michael W. Deem and Ramdas Pophale) SiO2 
 PCOD9298430
Probable space group: C 2/C
;
_chemical_formula_sum "Si O2"
_cell_formula_units_Z 44
_cell_length_a 24.289290
_cell_length_b 8.815139
_cell_length_c 19.308435
_cell_angle_alpha 90.000000
_cell_angle_beta 155.691923
_cell_angle_gamma 90.000000
_cell_volume 1701.812151
_symmetry_space_group_name_H-M "C 2/C"
_symmetry_group_IT_number 15
_symmetry_cell_setting 'monoclinic'
loop_
_space_group_symop_operation_xyz
x,y,z
-x,y,1/2-z
-x,-y,-z
x,-y,1/2+z
1/2+x,1/2+y,z
1/2-x,1/2+y,1/2-z
1/2-x,1/2-y,-z
1/2+x,1/2-y,1/2+z
loop_
_atom_site_type_symbol
_atom_site_label
_atom_site_fract_x
_atom_site_fract_y
_atom_site_fract_z
Si Si1 0.000000 0.130207 0.750000
Si Si2 0.090872 0.889564 0.009718
Si Si3 0.541945 0.711623 0.651986
Si Si4 0.517923 0.109042 0.851307
Si Si5 0.290929 0.124496 0.866120
Si Si6 0.735072 0.595824 0.528912
O O1 0.875386 0.021093 0.624428
O O2 0.993967 0.232565 0.676133
O O3 0.187047 0.905018 0.185176
O O4 0.181837 0.878168 0.045110
O O5 0.006990 0.737885 0.898191
O O6 0.995327 0.034420 0.902121
O O7 0.423496 0.807130 0.480961
O O8 0.695209 0.729621 0.805121
O O9 0.500000 0.161617 0.750000
O O10 0.379428 0.018884 0.699656
O O11 0.651160 0.015751 0.022490
O O12 0.750000 0.750000 0.500000
#
# Coordination Sequence:
#
# PCOD9298430 Si02
#       6
#     4   8   8   8   8   8
#     4  10  24  44  70 100 150 194 238 318 380 442
#     4  11  26  46  75 106 151 197 248 320 381 447
#     4  11  27  48  72 102 153 195 249 301 381 451
#     4  12  26  44  78 111 145 195 264 316 370 448
#     4  12  29  48  72 109 155 204 246 308 386 460
#     4  11  21  41  71 109 144 184 254 311 377 434
#
# _framework density 25.854792
#
# number of rings (size 3 to 8) (size 9 to 14) (size 15 to 20)
#    0.000    0.727    1.818    4.909   12.727    1.455 
#    0.000    0.000    0.000    0.000    0.000    0.000 
#    0.000    0.000    0.000    0.000    0.000    0.000 
#
# Total GULP energy -122815.754852 kJ/mol
# GULP energy per Si atom -5582.534311 kJ/mol
# Density = 2.579595 g / cm^3
# Si number density = 25.854792 Si / 1000 Ang^3
#
#
#
# Elastic Constant Matrix: (Units=GPa)
#
#
# Indices 1 2 3 4 5 6 
#
# 1 87.3149 -3.7672 29.1497 0.0000 -7.2349 0.0000
# 2 -3.7672 84.9361 29.3510 0.0000 -7.0583 0.0000
# 3 29.1497 29.3510 163.3138 0.0000 1.8372 0.0000
# 4 0.0000 0.0000 0.0000 43.2900 0.0000 15.1568
# 5 -7.2349 -7.0583 1.8372 0.0000 65.4995 0.0000
# 6 0.0000 0.0000 0.0000 15.1568 0.0000 29.4681
#
#
#
# Elastic Compliance Matrix: (Units=1/GPa)
#
#
# Indices 1 2 3 4 5 6 
#
# 1 0.012499 0.001563 -0.002530 0.000000 0.001620 0.000000
# 2 0.001563 0.012881 -0.002613 0.000000 0.001634 0.000000
# 3 -0.002530 -0.002613 0.007053 0.000000 -0.000759 0.000000
# 4 0.000000 0.000000 0.000000 0.028174 0.000000 -0.014491
# 5 0.001620 0.001634 -0.000759 0.000000 0.015644 0.000000
# 6 0.000000 0.000000 0.000000 -0.014491 0.000000 0.041388
#
#
# Mechanical properties :
#
#
# Convention : Reuss Voigt Hill
#
# Bulk Modulus (GPa) = 39.56499 49.44798 44.50649
# Shear Modulus (GPa) = 37.53112 46.37360 41.95236
#
# Velocity S-wave (km/s) = 3.81414 4.23971 4.03254
# Velocity P-wave (km/s) = 5.89346 6.56762 6.23965
#
# Compressibility (1/GPa) = 0.02527487
#
# Stress axis : x y z
#
# Youngs Moduli (GPa) = 80.00532 77.63080 141.78676
#
# Poissons Ratio (x) = -0.12136 0.35874
# Poissons Ratio (y) = -0.12508 0.37042
# Poissons Ratio (z) = 0.20243 0.20281
#
# Static dielectric constant tensor:
#      x y z
#    x 2.212060 0.000000 -0.283380 
#    y 0.000000 2.162970 0.000000 
#    z -0.283380 0.000000 2.526080 
# 
# From -- ./inp_files/284481.got.cif
#   From: 2010.05.17/outbox.cif.g08.bks.cpg/sg15_143_cif.got.tgz:284481.got - 2010.06.03 18:47:42.
