data_PCOD9298479
_publ_section_title
;
Structure prediction by ZEFSAII (Michael W. Deem and Ramdas Pophale) SiO2 
 PCOD9298479
Probable space group: C 2/C
;
_chemical_formula_sum "Si O2"
_cell_formula_units_Z 36
_cell_length_a 11.854535
_cell_length_b 18.354207
_cell_length_c 7.502906
_cell_angle_alpha 90.000000
_cell_angle_beta 111.384356
_cell_angle_gamma 90.000000
_cell_volume 1520.098826
_symmetry_space_group_name_H-M "C 2/C"
_symmetry_group_IT_number 15
_symmetry_cell_setting 'monoclinic'
loop_
_space_group_symop_operation_xyz
x,y,z
-x,y,1/2-z
-x,-y,-z
x,-y,1/2+z
1/2+x,1/2+y,z
1/2-x,1/2+y,1/2-z
1/2-x,1/2-y,-z
1/2+x,1/2-y,1/2+z
loop_
_atom_site_type_symbol
_atom_site_label
_atom_site_fract_x
_atom_site_fract_y
_atom_site_fract_z
Si Si1 0.853190 0.732524 0.413166
Si Si2 0.268170 0.606515 0.352832
Si Si3 0.537788 0.389907 0.074613
Si Si4 0.724608 0.954628 0.222729
Si Si5 0.000000 0.368640 0.250000
O O1 0.750000 0.750000 0.500000
O O2 0.791200 0.683632 0.226133
O O3 0.910653 0.808172 0.385305
O O4 0.954383 0.683584 0.566043
O O5 0.412359 0.609306 0.395605
O O6 0.210366 0.541242 0.204843
O O7 0.243394 0.583245 0.542283
O O8 0.500000 0.414761 0.250000
O O9 0.652500 0.439449 0.092135
O O10 0.610474 0.917659 0.247993
#
# Coordination Sequence:
#
# PCOD9298479 Si02
#       5
#     8   8   8   8   4
#     4  12  25  45  70 105 141 190 226 291 347 420
#     4  11  26  46  74 101 142 181 238 289 348 417
#     4  10  24  44  71 103 139 183 235 287 347 412
#     4  11  25  46  70 106 137 190 230 293 350 409
#     4  12  26  44  68 104 148 180 246 280 358 420
#
# _framework density 23.682670000000002
#
# number of rings (size 3 to 8) (size 9 to 14) (size 15 to 20)
#    0.000    0.889    2.222    3.333    3.111    5.333 
#    0.000    0.000    0.000    0.000    0.000    0.000 
#    0.000    0.000    0.000    0.000    0.000    0.000 
#
# Total GULP energy -100854.329841 kJ/mol
# GULP energy per Si atom -5603.018324 kJ/mol
# Density = 2.362877 g / cm^3
# Si number density = 23.682670 Si / 1000 Ang^3
#
#
#
# Elastic Constant Matrix: (Units=GPa)
#
#
# Indices 1 2 3 4 5 6 
#
# 1 114.0583 17.8480 4.1995 0.0000 4.1141 0.0000
# 2 17.8480 115.8283 3.9500 0.0000 5.6518 0.0000
# 3 4.1995 3.9500 59.0043 0.0000 2.8725 0.0000
# 4 0.0000 0.0000 0.0000 41.0752 0.0000 -0.1458
# 5 4.1141 5.6518 2.8725 0.0000 27.6033 0.0000
# 6 0.0000 0.0000 0.0000 -0.1458 0.0000 21.7561
#
#
#
# Elastic Compliance Matrix: (Units=1/GPa)
#
#
# Indices 1 2 3 4 5 6 
#
# 1 0.009030 -0.001324 -0.000504 0.000000 -0.001022 0.000000
# 2 -0.001324 0.008929 -0.000426 0.000000 -0.001587 0.000000
# 3 -0.000504 -0.000426 0.017091 0.000000 -0.001616 0.000000
# 4 0.000000 0.000000 0.000000 0.024346 0.000000 0.000163
# 5 -0.001022 -0.001587 -0.001616 0.000000 0.036873 0.000000
# 6 0.000000 0.000000 0.000000 0.000163 0.000000 0.045965
#
#
# Mechanical properties :
#
#
# Convention : Reuss Voigt Hill
#
# Bulk Modulus (GPa) = 32.74310 37.87622 35.30966
# Shear Modulus (GPa) = 31.86234 35.61315 33.73774
#
# Velocity S-wave (km/s) = 3.67193 3.88205 3.77845
# Velocity P-wave (km/s) = 5.64209 6.01013 5.82902
#
# Compressibility (1/GPa) = 0.03054078
#
# Stress axis : x y z
#
# Youngs Moduli (GPa) = 110.74049 111.98842 58.51021
#
# Poissons Ratio (x) = 0.14831 0.02951
# Poissons Ratio (y) = 0.14666 0.02494
# Poissons Ratio (z) = 0.05584 0.04774
#
# Static dielectric constant tensor:
#      x y z
#    x 1.868880 0.000000 0.019030 
#    y 0.000000 1.852420 0.000000 
#    z 0.019030 0.000000 1.961270 
# 
# From -- ./inp_files/28969.got.cif
#   From: 2010.05.17/outbox.cif.g08.bks.cpg/sg15_15_cif.got.tgz:28969.got - 2010.06.03 18:47:42.
