data_PCOD9298268
_publ_section_title
;
Structure prediction by ZEFSAII (Michael W. Deem and Ramdas Pophale) SiO2 
 PCOD9298268
Probable space group: C 2/C
;
_chemical_formula_sum "Si O2"
_cell_formula_units_Z 52
_cell_length_a 11.648301
_cell_length_b 14.538836
_cell_length_c 14.909215
_cell_angle_alpha 90.000000
_cell_angle_beta 104.562289
_cell_angle_gamma 90.000000
_cell_volume 2443.803109
_symmetry_space_group_name_H-M "C 2/C"
_symmetry_group_IT_number 15
_symmetry_cell_setting 'monoclinic'
loop_
_space_group_symop_operation_xyz
x,y,z
-x,y,1/2-z
-x,-y,-z
x,-y,1/2+z
1/2+x,1/2+y,z
1/2-x,1/2+y,1/2-z
1/2-x,1/2-y,-z
1/2+x,1/2-y,1/2+z
loop_
_atom_site_type_symbol
_atom_site_label
_atom_site_fract_x
_atom_site_fract_y
_atom_site_fract_z
Si Si1 0.374167 0.865869 0.835380
Si Si2 0.463516 0.051917 0.899012
Si Si3 0.136633 0.987575 0.548241
Si Si4 0.808839 0.349332 0.027960
Si Si5 0.500000 0.282158 0.250000
Si Si6 0.630122 0.585976 0.248093
Si Si7 0.699160 0.590953 0.878043
O O1 0.457210 0.784536 0.820592
O O2 0.243550 0.848138 0.769528
O O3 0.432220 0.965884 0.827364
O O4 0.349025 0.868217 0.934939
O O5 0.570117 0.121812 0.895306
O O6 0.338352 0.103945 0.886340
O O7 0.500000 0.000000 0.000000
O O8 0.210772 0.080463 0.546153
O O9 0.136415 0.958487 0.651299
O O10 0.184116 0.915974 0.482653
O O11 0.000000 0.000000 0.500000
O O12 0.750000 0.250000 0.000000
O O13 0.391990 0.341462 0.189008
O O14 0.500000 0.621812 0.250000
O O15 0.661510 0.507953 0.328240
#
# Coordination Sequence:
#
# PCOD9298268 Si02
#       7
#     8   8   8   8   4   8   8
#     4  10  24  44  64  96 142 172 226 283 336 411
#     4   9  19  46  69  90 134 185 216 274 352 406
#     4  12  22  40  74  96 131 187 219 272 355 397
#     4  11  24  42  70 101 134 170 232 286 334 402
#     4  12  26  42  68 106 134 178 230 294 326 390
#     4  11  21  42  70  93 131 182 230 269 342 415
#     4  11  22  44  66  99 141 179 231 277 333 423
#
# _framework density 21.278310000000001
#
# number of rings (size 3 to 8) (size 9 to 14) (size 15 to 20)
#    0.000    1.231    6.923    0.000    6.462    0.000 
#    5.538    3.846    0.000    0.000    0.000    0.000 
#    0.000    0.000    0.000    0.000    0.000    0.000 
#
# Total GULP energy -144862.354404 kJ/mol
# GULP energy per Si atom -5571.629016 kJ/mol
# Density = 2.122988 g / cm^3
# Si number density = 21.278310 Si / 1000 Ang^3
#
#
#
# Elastic Constant Matrix: (Units=GPa)
#
#
# Indices 1 2 3 4 5 6 
#
# 1 173.8210 69.2027 26.2794 0.0000 34.0005 0.0000
# 2 69.2027 80.0505 9.4603 0.0000 14.3857 0.0000
# 3 26.2794 9.4603 57.6030 0.0000 -8.5249 0.0000
# 4 0.0000 0.0000 0.0000 22.7995 0.0000 17.8989
# 5 34.0005 14.3857 -8.5249 0.0000 43.0393 0.0000
# 6 0.0000 0.0000 0.0000 17.8989 0.0000 60.6154
#
#
#
# Elastic Compliance Matrix: (Units=1/GPa)
#
#
# Indices 1 2 3 4 5 6 
#
# 1 0.010845 -0.007561 -0.004739 0.000000 -0.006979 0.000000
# 2 -0.007561 0.019059 0.000269 0.000000 -0.000344 0.000000
# 3 -0.004739 0.000269 0.020623 0.000000 0.007739 0.000000
# 4 0.000000 0.000000 0.000000 0.057097 0.000000 -0.016860
# 5 -0.006979 -0.000344 0.007739 0.000000 0.030395 0.000000
# 6 0.000000 0.000000 0.000000 -0.016860 0.000000 0.021476
#
#
# Mechanical properties :
#
#
# Convention : Reuss Voigt Hill
#
# Bulk Modulus (GPa) = 37.78663 57.92880 47.85771
# Shear Modulus (GPa) = 25.99049 39.05965 32.52507
#
# Velocity S-wave (km/s) = 3.49872 4.28910 3.91392
# Velocity P-wave (km/s) = 5.84108 7.19805 6.55478
#
# Compressibility (1/GPa) = 0.02646439
#
# Stress axis : x y z
#
# Youngs Moduli (GPa) = 92.21044 52.46958 48.48916
#
# Poissons Ratio (x) = 0.39673 0.22977
# Poissons Ratio (y) = 0.69721 -0.01302
# Poissons Ratio (z) = 0.43694 -0.01409
#
# Static dielectric constant tensor:
#      x y z
#    x 1.808800 0.000000 0.062420 
#    y 0.000000 1.822360 0.000000 
#    z 0.062420 0.000000 1.803820 
# 
# From -- ./inp_files/144328.got.cif
#   From: 2010.05.17/outbox.cif.g08.bks.cpg/sg15_73_cif.got.tgz:144328.got - 2010.06.03 18:47:42.
