data_PCOD9298461
_publ_section_title
;
Structure prediction by ZEFSAII (Michael W. Deem and Ramdas Pophale) SiO2 
 PCOD9298461
Probable space group: C 2/C
;
_chemical_formula_sum "Si O2"
_cell_formula_units_Z 48
_cell_length_a 11.480130
_cell_length_b 12.852621
_cell_length_c 28.248953
_cell_angle_alpha 90.000000
_cell_angle_beta 150.058465
_cell_angle_gamma 90.000000
_cell_volume 2080.378667
_symmetry_space_group_name_H-M "C 2/C"
_symmetry_group_IT_number 15
_symmetry_cell_setting 'monoclinic'
loop_
_space_group_symop_operation_xyz
x,y,z
-x,y,1/2-z
-x,-y,-z
x,-y,1/2+z
1/2+x,1/2+y,z
1/2-x,1/2+y,1/2-z
1/2-x,1/2-y,-z
1/2+x,1/2-y,1/2+z
loop_
_atom_site_type_symbol
_atom_site_label
_atom_site_fract_x
_atom_site_fract_y
_atom_site_fract_z
Si Si1 0.021322 0.399969 0.540216
Si Si2 0.862526 0.643331 0.154893
Si Si3 0.841622 0.789909 0.480936
Si Si4 0.932540 0.273848 0.279638
Si Si5 0.981564 0.862752 0.152147
Si Si6 0.234414 0.437917 0.716101
O O1 0.753377 0.380032 0.459548
O O2 0.000000 0.500000 0.500000
O O3 0.105249 0.305997 0.536408
O O4 0.174309 0.422596 0.639823
O O5 0.000000 0.609949 0.250000
O O6 0.925345 0.765566 0.166867
O O7 0.988944 0.577602 0.157757
O O8 0.581916 0.643748 0.064720
O O9 0.750000 0.750000 0.500000
O O10 0.614040 0.837754 0.375269
O O11 0.682682 0.326103 0.188640
O O12 0.886593 0.161278 0.286652
O O13 0.000000 0.260247 0.250000
O O14 0.101872 0.961871 0.219248
#
# Coordination Sequence:
#
# PCOD9298461 Si02
#       6
#     8   8   8   8   8   8
#     4  11  25  40  69  99 129 171 223 279 330 393
#     4  10  24  44  70  95 133 179 220 276 333 393
#     4  11  23  41  67  98 132 174 221 268 335 398
#     4  11  23  41  67  95 131 173 214 272 330 395
#     4  10  25  41  67  95 132 168 223 268 332 391
#     4  11  24  45  66  97 134 171 221 277 329 392
#
# _framework density 23.072723
#
# number of rings (size 3 to 8) (size 9 to 14) (size 15 to 20)
#    0.000    1.333    1.667    3.000    9.333    2.667 
#    0.000    0.833    0.000    0.000    0.000    0.000 
#    0.000    0.000    0.000    0.000    0.000    0.000 
#
# Total GULP energy -134006.221694 kJ/mol
# GULP energy per Si atom -5583.592571 kJ/mol
# Density = 2.302021 g / cm^3
# Si number density = 23.072723 Si / 1000 Ang^3
#
#
#
# Elastic Constant Matrix: (Units=GPa)
#
#
# Indices 1 2 3 4 5 6 
#
# 1 105.2677 9.2240 29.6727 -0.0001 21.4761 0.0000
# 2 9.2240 70.3435 18.7082 -0.0001 5.9476 0.0000
# 3 29.6727 18.7082 81.1110 -0.0005 27.4328 -0.0001
# 4 -0.0001 -0.0001 -0.0005 24.8950 0.0000 4.3046
# 5 21.4761 5.9476 27.4328 0.0000 53.8593 0.0000
# 6 0.0000 0.0000 -0.0001 4.3046 0.0000 4.3260
#
#
#
# Elastic Compliance Matrix: (Units=1/GPa)
#
#
# Indices 1 2 3 4 5 6 
#
# 1 0.010943 -0.000411 -0.002958 0.000000 -0.002812 0.000000
# 2 -0.000411 0.015161 -0.003426 0.000000 0.000235 0.000000
# 3 -0.002958 -0.003426 0.016520 0.000000 -0.006857 0.000000
# 4 0.000000 0.000000 0.000000 0.048516 0.000000 -0.048275
# 5 -0.002812 0.000235 -0.006857 0.000000 0.023155 0.000000
# 6 0.000000 0.000000 0.000000 -0.048275 0.000000 0.279195
#
#
# Mechanical properties :
#
#
# Convention : Reuss Voigt Hill
#
# Bulk Modulus (GPa) = 34.44049 41.32579 37.88314
# Shear Modulus (GPa) = 11.99742 29.89055 20.94399
#
# Velocity S-wave (km/s) = 2.28279 3.60320 3.01614
# Velocity P-wave (km/s) = 4.68054 5.93807 5.34641
#
# Compressibility (1/GPa) = 0.02903560
#
# Stress axis : x y z
#
# Youngs Moduli (GPa) = 91.38387 65.95812 60.53276
#
# Poissons Ratio (x) = 0.02708 0.17903
# Poissons Ratio (y) = 0.03752 0.20739
# Poissons Ratio (z) = 0.27027 0.22597
#
# Static dielectric constant tensor:
#      x y z
#    x 1.894210 0.000000 0.091000 
#    y 0.000000 1.976600 0.000000 
#    z 0.091000 0.000000 1.872750 
# 
# From -- ./inp_files/293121.got.cif
#   From: 2010.05.17/outbox.cif.g08.bks.cpg/sg15_147_cif.got.tgz:293121.got - 2010.06.03 18:47:42.
