data_PCOD9298441
_publ_section_title
;
Structure prediction by ZEFSAII (Michael W. Deem and Ramdas Pophale) SiO2 
 PCOD9298441
Probable space group: C 2/C
;
_chemical_formula_sum "Si O2"
_cell_formula_units_Z 40
_cell_length_a 13.464082
_cell_length_b 7.356296
_cell_length_c 22.235708
_cell_angle_alpha 90.000000
_cell_angle_beta 47.159902
_cell_angle_gamma 90.000000
_cell_volume 1614.884460
_symmetry_space_group_name_H-M "C 2/C"
_symmetry_group_IT_number 15
_symmetry_cell_setting 'monoclinic'
loop_
_space_group_symop_operation_xyz
x,y,z
-x,y,1/2-z
-x,-y,-z
x,-y,1/2+z
1/2+x,1/2+y,z
1/2-x,1/2+y,1/2-z
1/2-x,1/2-y,-z
1/2+x,1/2-y,1/2+z
loop_
_atom_site_type_symbol
_atom_site_label
_atom_site_fract_x
_atom_site_fract_y
_atom_site_fract_z
Si Si1 0.092709 0.267245 0.581673
Si Si2 0.881559 0.837059 0.083043
Si Si3 0.035530 0.643225 0.911579
Si Si4 0.884363 0.669638 0.749078
Si Si5 0.290762 0.177316 0.343542
O O1 0.250000 0.250000 0.500000
O O2 0.101484 0.268773 0.650369
O O3 0.993576 0.128155 0.588507
O O4 0.033719 0.454090 0.578005
O O5 0.755111 0.745613 0.169941
O O6 0.943006 0.730273 0.001473
O O7 0.187164 0.977237 0.912208
O O8 0.056992 0.735351 0.837760
O O9 0.191154 0.657384 0.870065
O O10 0.848541 0.450354 0.765843
O O11 0.000000 0.695414 0.750000
#
# Coordination Sequence:
#
# PCOD9298441 Si02
#       5
#     8   8   8   8   8
#     4  12  25  44  72 108 140 190 246 302 376 442
#     4  10  25  45  71 109 144 188 253 302 364 447
#     4  12  23  46  76 101 150 194 240 311 364 437
#     4  10  24  44  70 103 145 196 240 297 374 429
#     4  10  25  46  70 101 148 189 241 310 365 436
#
# _framework density 24.769575
#
# number of rings (size 3 to 8) (size 9 to 14) (size 15 to 20)
#    1.200    0.000    4.000    1.200    2.800    3.200 
#    0.000    0.000    0.000    1.200    0.000    0.000 
#    0.000    0.000    0.000    0.000    0.000    0.000 
#
# Total GULP energy -111509.051087 kJ/mol
# GULP energy per Si atom -5575.452554 kJ/mol
# Density = 2.471320 g / cm^3
# Si number density = 24.769575 Si / 1000 Ang^3
#
#
#
# Elastic Constant Matrix: (Units=GPa)
#
#
# Indices 1 2 3 4 5 6 
#
# 1 169.6689 26.2826 78.4787 0.0000 -4.5863 0.0000
# 2 26.2826 63.2218 41.2295 0.0000 3.9239 0.0000
# 3 78.4787 41.2295 165.0614 0.0000 7.0544 0.0000
# 4 0.0000 0.0000 0.0000 23.3935 0.0000 -3.9314
# 5 -4.5863 3.9239 7.0544 0.0000 44.0474 0.0000
# 6 0.0000 0.0000 0.0000 -3.9314 0.0000 41.0093
#
#
#
# Elastic Compliance Matrix: (Units=1/GPa)
#
#
# Indices 1 2 3 4 5 6 
#
# 1 0.007694 -0.001030 -0.003463 0.000000 0.001447 0.000000
# 2 -0.001030 0.019071 -0.004226 0.000000 -0.001129 0.000000
# 3 -0.003463 -0.004226 0.008820 0.000000 -0.001397 0.000000
# 4 0.000000 0.000000 0.000000 0.043447 0.000000 0.004165
# 5 0.001447 -0.001129 -0.001397 0.000000 0.023178 0.000000
# 6 0.000000 0.000000 0.000000 0.004165 0.000000 0.024784
#
#
# Mechanical properties :
#
#
# Convention : Reuss Voigt Hill
#
# Bulk Modulus (GPa) = 55.10161 76.65929 65.88045
# Shear Modulus (GPa) = 33.22682 38.48746 35.85714
#
# Velocity S-wave (km/s) = 3.66654 3.94613 3.80890
# Velocity P-wave (km/s) = 6.34182 7.19574 6.78223
#
# Compressibility (1/GPa) = 0.01814829
#
# Stress axis : x y z
#
# Youngs Moduli (GPa) = 129.96780 52.43445 113.38012
#
# Poissons Ratio (x) = 0.05402 0.39261
# Poissons Ratio (y) = 0.13390 0.47910
# Poissons Ratio (z) = 0.45004 0.22157
#
# Static dielectric constant tensor:
#      x y z
#    x 1.967750 0.000000 0.001540 
#    y 0.000000 2.107850 0.000000 
#    z 0.001540 0.000000 2.057810 
# 
# From -- ./inp_files/236442.got.cif
#   From: 2010.05.17/outbox.cif.g08.bks.cpg/sg15_119_cif.got.tgz:236442.got - 2010.06.03 18:47:42.
