data_PCOD9298731
_publ_section_title
;
Structure prediction by ZEFSAII (Michael W. Deem and Ramdas Pophale) SiO2 
 PCOD9298731
Probable space group: C 2/C
;
_chemical_formula_sum "Si O2"
_cell_formula_units_Z 36
_cell_length_a 25.608956
_cell_length_b 5.020157
_cell_length_c 14.228684
_cell_angle_alpha 90.000000
_cell_angle_beta 61.824111
_cell_angle_gamma 90.000000
_cell_volume 1612.491090
_symmetry_space_group_name_H-M "C 2/C"
_symmetry_group_IT_number 15
_symmetry_cell_setting 'monoclinic'
loop_
_space_group_symop_operation_xyz
x,y,z
-x,y,1/2-z
-x,-y,-z
x,-y,1/2+z
1/2+x,1/2+y,z
1/2-x,1/2+y,1/2-z
1/2-x,1/2-y,-z
1/2+x,1/2-y,1/2+z
loop_
_atom_site_type_symbol
_atom_site_label
_atom_site_fract_x
_atom_site_fract_y
_atom_site_fract_z
Si Si1 0.000000 0.989600 0.750000
Si Si2 0.290931 0.496885 0.987456
Si Si3 0.111427 0.044289 0.750610
Si Si4 0.710438 0.343250 0.302708
Si Si5 0.014600 0.749143 0.922499
O O1 0.051817 0.161774 0.753924
O O2 0.979685 0.799804 0.853821
O O3 0.307294 0.467269 0.082430
O O4 0.250000 0.750000 0.000000
O O5 0.346688 0.483526 0.872062
O O6 0.250000 0.250000 0.000000
O O7 0.152541 0.199413 0.788333
O O8 0.082651 0.790928 0.829637
O O9 0.747703 0.071168 0.279298
O O10 0.000000 0.500000 0.000000
O O11 0.000000 0.000000 0.000000
#
# Coordination Sequence:
#
# PCOD9298731 Si02
#       5
#     4   8   8   8   8
#     4   8  24  48  68 106 142 192 242 300 370 432
#     4  12  24  45  68 102 142 187 235 293 360 427
#     4  10  24  45  71 104 145 183 243 294 363 435
#     4  12  24  44  68 103 142 187 239 294 359 435
#     4  10  24  46  68 101 139 188 240 292 358 426
#
# _framework density 22.325704000000002
#
# number of rings (size 3 to 8) (size 9 to 14) (size 15 to 20)
#    1.333    0.000    4.444    0.000    3.111    4.444 
#    4.000    0.000    0.000    0.000    0.000    0.000 
#    0.000    0.000    0.000    0.000    0.000    0.000 
#
# Total GULP energy -100369.980231 kJ/mol
# GULP energy per Si atom -5576.110013 kJ/mol
# Density = 2.227489 g / cm^3
# Si number density = 22.325704 Si / 1000 Ang^3
#
#
#
# Elastic Constant Matrix: (Units=GPa)
#
#
# Indices 1 2 3 4 5 6 
#
# 1 160.4512 27.5418 34.5555 0.0000 13.4869 0.0000
# 2 27.5418 125.0788 28.4527 -0.0004 -3.8378 -0.0003
# 3 34.5555 28.4527 179.4296 0.0000 7.0347 0.0000
# 4 0.0000 -0.0004 0.0000 27.1905 0.0000 4.6841
# 5 13.4869 -3.8378 7.0347 0.0000 52.8065 0.0000
# 6 0.0000 -0.0003 0.0000 4.6841 0.0000 12.4330
#
#
#
# Elastic Compliance Matrix: (Units=1/GPa)
#
#
# Indices 1 2 3 4 5 6 
#
# 1 0.006825 -0.001319 -0.001039 0.000000 -0.001701 0.000000
# 2 -0.001319 0.008581 -0.001150 0.000000 0.001114 0.000000
# 3 -0.001039 -0.001150 0.005980 0.000000 -0.000615 0.000000
# 4 0.000000 0.000000 0.000000 0.039330 0.000000 -0.014818
# 5 -0.001701 0.001114 -0.000615 0.000000 0.019534 0.000000
# 6 0.000000 0.000000 0.000000 -0.014818 0.000000 0.086014
#
#
# Mechanical properties :
#
#
# Convention : Reuss Voigt Hill
#
# Bulk Modulus (GPa) = 69.58660 71.78443 70.68552
# Shear Modulus (GPa) = 28.07873 43.44663 35.76268
#
# Velocity S-wave (km/s) = 3.55023 4.41618 4.00667
# Velocity P-wave (km/s) = 6.93124 7.63063 7.28933
#
# Compressibility (1/GPa) = 0.01437058
#
# Stress axis : x y z
#
# Youngs Moduli (GPa) = 146.51038 116.53333 167.23009
#
# Poissons Ratio (x) = 0.15369 0.17370
# Poissons Ratio (y) = 0.19322 0.19239
# Poissons Ratio (z) = 0.15218 0.13406
#
# Static dielectric constant tensor:
#      x y z
#    x 1.832730 0.000000 0.002290 
#    y 0.000000 1.767340 0.000000 
#    z 0.002290 0.000000 1.800450 
# 
# From -- ./inp_files/170455.got.cif
#   From: 2010.05.17/outbox.cif.g08.bks.cpg/sg15_86_cif.got.tgz:170455.got - 2010.06.03 18:47:42.
