data_PCOD9298665
_publ_section_title
;
Structure prediction by ZEFSAII (Michael W. Deem and Ramdas Pophale) SiO2 
 PCOD9298665
Probable space group: C 2/C
;
_chemical_formula_sum "Si O2"
_cell_formula_units_Z 56
_cell_length_a 12.452104
_cell_length_b 21.645182
_cell_length_c 8.470319
_cell_angle_alpha 90.000000
_cell_angle_beta 87.428655
_cell_angle_gamma 90.000000
_cell_volume 2280.689957
_symmetry_space_group_name_H-M "C 2/C"
_symmetry_group_IT_number 15
_symmetry_cell_setting 'monoclinic'
loop_
_space_group_symop_operation_xyz
x,y,z
-x,y,1/2-z
-x,-y,-z
x,-y,1/2+z
1/2+x,1/2+y,z
1/2-x,1/2+y,1/2-z
1/2-x,1/2-y,-z
1/2+x,1/2-y,1/2+z
loop_
_atom_site_type_symbol
_atom_site_label
_atom_site_fract_x
_atom_site_fract_y
_atom_site_fract_z
Si Si1 0.391161 0.222152 0.813871
Si Si2 0.795330 0.934824 0.579368
Si Si3 0.000000 0.087585 0.250000
Si Si4 0.638623 0.097755 0.600878
Si Si5 0.000000 0.248050 0.750000
Si Si6 0.832581 0.499241 0.154451
Si Si7 0.179269 0.309751 0.518832
Si Si8 0.861311 0.166517 0.506357
O O1 0.500000 0.253743 0.750000
O O2 0.417760 0.163664 0.922949
O O3 0.351496 0.185825 0.663378
O O4 0.322831 0.276838 0.893995
O O5 0.908234 0.945791 0.654418
O O6 0.774710 0.973225 0.423152
O O7 0.760520 0.864339 0.558666
O O8 0.702476 0.959186 0.699070
O O9 0.064113 0.125643 0.111575
O O10 0.617441 0.061052 0.766101
O O11 0.763860 0.122468 0.572878
O O12 0.611883 0.046350 0.470164
O O13 0.916568 0.290808 0.855043
O O14 0.930143 0.202641 0.637293
O O15 0.250000 0.250000 0.500000
#
# Coordination Sequence:
#
# PCOD9298665 Si02
#       8
#     8   8   4   8   4   8   8   8
#     4  12  24  45  70 105 141 177 233 293 358 424
#     4  11  24  45  69  98 138 186 230 293 350 410
#     4  12  24  44  67 104 143 180 232 292 348 442
#     4  11  24  45  70  97 137 190 225 291 347 417
#     4  12  26  40  71 112 139 180 236 284 364 442
#     4  10  24  45  68  96 134 187 242 276 344 424
#     4  12  25  45  72 102 146 185 226 298 361 420
#     4  12  24  42  67 105 142 175 229 286 358 426
#
# _framework density 24.553972000000002
#
# number of rings (size 3 to 8) (size 9 to 14) (size 15 to 20)
#    0.000    0.571    5.000    3.000    4.000    0.571 
#    0.000    0.714    6.286    0.000    0.000    0.000 
#    0.000    0.000    0.000    0.000    0.000    0.000 
#
# Total GULP energy -156193.612450 kJ/mol
# GULP energy per Si atom -5578.343302 kJ/mol
# Density = 2.449809 g / cm^3
# Si number density = 24.553972 Si / 1000 Ang^3
#
#
#
# Elastic Constant Matrix: (Units=GPa)
#
#
# Indices 1 2 3 4 5 6 
#
# 1 62.3256 -8.8523 7.1159 0.0000 -5.5183 0.0000
# 2 -8.8523 107.5433 9.7657 0.0000 3.4314 0.0000
# 3 7.1159 9.7657 74.4459 0.0000 -1.0071 0.0000
# 4 0.0000 0.0000 0.0000 72.9731 0.0000 7.3915
# 5 -5.5183 3.4314 -1.0071 0.0000 32.1585 0.0000
# 6 0.0000 0.0000 0.0000 7.3915 0.0000 27.0614
#
#
#
# Elastic Compliance Matrix: (Units=1/GPa)
#
#
# Indices 1 2 3 4 5 6 
#
# 1 0.016685 0.001448 -0.001749 0.000000 0.002654 0.000000
# 2 0.001448 0.009571 -0.001405 0.000000 -0.000817 0.000000
# 3 -0.001749 -0.001405 0.013788 0.000000 0.000282 0.000000
# 4 0.000000 0.000000 0.000000 0.014094 0.000000 -0.003849
# 5 0.002654 -0.000817 0.000282 0.000000 0.031647 0.000000
# 6 0.000000 0.000000 0.000000 -0.003849 0.000000 0.038004
#
#
# Mechanical properties :
#
#
# Convention : Reuss Voigt Hill
#
# Bulk Modulus (GPa) = 27.29874 28.93038 28.11456
# Shear Modulus (GPa) = 35.86476 42.19099 39.02788
#
# Velocity S-wave (km/s) = 3.82599 4.14973 3.99114
# Velocity P-wave (km/s) = 5.53711 5.89646 5.71961
#
# Compressibility (1/GPa) = 0.03663173
#
# Stress axis : x y z
#
# Youngs Moduli (GPa) = 59.93406 104.47822 72.52766
#
# Poissons Ratio (x) = -0.15123 0.12684
# Poissons Ratio (y) = -0.08676 0.10190
# Poissons Ratio (z) = 0.10481 0.14679
#
# Static dielectric constant tensor:
#      x y z
#    x 1.814080 0.000000 -0.078100 
#    y 0.000000 1.911900 0.000000 
#    z -0.078100 0.000000 2.141540 
# 
# From -- ./inp_files/41281.got.cif
#   From: 2010.05.17/outbox.cif.g08.bks.cpg/sg15_21_cif.got.tgz:41281.got - 2010.06.03 18:47:42.
