data_PCOD9298775
_publ_section_title
;
Structure prediction by ZEFSAII (Michael W. Deem and Ramdas Pophale) SiO2 
 PCOD9298775
Probable space group: C 2/C
;
_chemical_formula_sum "Si O2"
_cell_formula_units_Z 40
_cell_length_a 11.677704
_cell_length_b 15.936522
_cell_length_c 9.274129
_cell_angle_alpha 90.000000
_cell_angle_beta 85.186314
_cell_angle_gamma 90.000000
_cell_volume 1719.846192
_symmetry_space_group_name_H-M "C 2/C"
_symmetry_group_IT_number 15
_symmetry_cell_setting 'monoclinic'
loop_
_space_group_symop_operation_xyz
x,y,z
-x,y,1/2-z
-x,-y,-z
x,-y,1/2+z
1/2+x,1/2+y,z
1/2-x,1/2+y,1/2-z
1/2-x,1/2-y,-z
1/2+x,1/2-y,1/2+z
loop_
_atom_site_type_symbol
_atom_site_label
_atom_site_fract_x
_atom_site_fract_y
_atom_site_fract_z
Si Si1 0.665249 0.172794 0.999350
Si Si2 0.874920 0.268075 0.298982
Si Si3 0.500000 0.868334 0.750000
Si Si4 0.203940 0.627322 0.417729
Si Si5 0.000000 0.980118 0.250000
Si Si6 0.660391 0.532094 0.487473
O O1 0.561835 0.185763 0.120397
O O2 0.729890 0.089464 0.039482
O O3 0.750000 0.250000 0.000000
O O4 0.636275 0.168919 0.834337
O O5 0.856470 0.321834 0.445541
O O6 0.778662 0.195596 0.320732
O O7 0.000000 0.229013 0.250000
O O8 0.397308 0.912418 0.670514
O O9 0.292567 0.559586 0.473006
O O10 0.916497 0.933515 0.371202
O O11 0.916821 0.028822 0.147528
#
# Coordination Sequence:
#
# PCOD9298775 Si02
#       6
#     8   8   4   8   4   8
#     4  12  26  46  70 104 145 185 239 294 356 429
#     4  11  24  45  71 103 145 188 239 297 355 418
#     4  12  24  45  70 105 142 194 234 290 357 426
#     4  11  25  45  72 105 143 190 241 291 355 427
#     4  10  24  45  74 103 136 186 236 302 355 418
#     4  11  25  47  70 107 141 187 240 294 358 424
#
# _framework density 23.257895000000001
#
# number of rings (size 3 to 8) (size 9 to 14) (size 15 to 20)
#    0.000    0.800    4.000    2.400    1.400    3.200 
#    3.600    0.000    0.000    0.000    0.000    0.000 
#    0.000    0.000    0.000    0.000    0.000    0.000 
#
# Total GULP energy -111702.681364 kJ/mol
# GULP energy per Si atom -5585.134068 kJ/mol
# Density = 2.320496 g / cm^3
# Si number density = 23.257895 Si / 1000 Ang^3
#
#
#
# Elastic Constant Matrix: (Units=GPa)
#
#
# Indices 1 2 3 4 5 6 
#
# 1 129.7192 21.4842 74.0498 0.0000 4.1452 0.0000
# 2 21.4842 53.1130 24.0885 0.0000 1.8852 0.0000
# 3 74.0498 24.0885 188.7374 0.0000 -17.2417 0.0000
# 4 0.0000 0.0000 0.0000 10.4840 0.0000 11.7221
# 5 4.1452 1.8852 -17.2417 0.0000 64.9875 0.0000
# 6 0.0000 0.0000 0.0000 11.7221 0.0000 -29.5260
#
#
#
# Elastic Compliance Matrix: (Units=1/GPa)
#
#
# Indices 1 2 3 4 5 6 
#
# 1 0.010394 -0.002366 -0.003925 0.000000 -0.001636 0.000000
# 2 -0.002366 0.020629 -0.001789 0.000000 -0.000922 0.000000
# 3 -0.003925 -0.001789 0.007271 0.000000 0.002231 0.000000
# 4 0.000000 0.000000 0.000000 0.066060 0.000000 0.026226
# 5 -0.001636 -0.000922 0.002231 0.000000 0.016111 0.000000
# 6 0.000000 0.000000 0.000000 0.026226 0.000000 -0.023456
#
#
# Mechanical properties :
#
#
# Convention : Reuss Voigt Hill
#
# Bulk Modulus (GPa) = 45.18156 67.86829 56.52493
# Shear Modulus (GPa) = 41.47810 25.98559 33.73184
#
# Velocity S-wave (km/s) = 4.22761 3.34620 3.81246
# Velocity P-wave (km/s) = 6.58018 6.64632 6.61333
#
# Compressibility (1/GPa) = 0.02213292
#
# Stress axis : x y z
#
# Youngs Moduli (GPa) = 96.21019 48.47586 137.53976
#
# Poissons Ratio (x) = 0.11469 0.53991
# Poissons Ratio (y) = 0.22763 0.24603
# Poissons Ratio (z) = 0.37767 0.08671
#
# Static dielectric constant tensor:
#      x y z
#    x 2.461680 0.000000 -0.355340 
#    y 0.000000 1.881170 0.000000 
#    z -0.355340 0.000000 2.204170 
# 
# From -- ./inp_files/29184.got.cif
#   From: 2010.05.17/outbox.cif.g08.bks.cpg/sg15_15_cif.got.tgz:29184.got - 2010.06.03 18:47:42.
