data_PCOD9298429
_publ_section_title
;
Structure prediction by ZEFSAII (Michael W. Deem and Ramdas Pophale) SiO2 
 PCOD9298429
Probable space group: C 2/C
;
_chemical_formula_sum "Si O2"
_cell_formula_units_Z 44
_cell_length_a 13.117616
_cell_length_b 8.460073
_cell_length_c 19.844691
_cell_angle_alpha 90.000000
_cell_angle_beta 60.693495
_cell_angle_gamma 90.000000
_cell_volume 1920.422014
_symmetry_space_group_name_H-M "C 2/C"
_symmetry_group_IT_number 15
_symmetry_cell_setting 'monoclinic'
loop_
_space_group_symop_operation_xyz
x,y,z
-x,y,1/2-z
-x,-y,-z
x,-y,1/2+z
1/2+x,1/2+y,z
1/2-x,1/2+y,1/2-z
1/2-x,1/2-y,-z
1/2+x,1/2-y,1/2+z
loop_
_atom_site_type_symbol
_atom_site_label
_atom_site_fract_x
_atom_site_fract_y
_atom_site_fract_z
Si Si1 0.449158 0.677126 0.022011
Si Si2 0.719416 0.796096 0.205745
Si Si3 0.862993 0.126730 0.901124
Si Si4 0.816554 0.345043 0.537669
Si Si5 0.218990 0.656668 0.181437
Si Si6 0.500000 0.419231 0.750000
O O1 0.350304 0.671199 0.110655
O O2 0.500000 0.500000 0.000000
O O3 0.396769 0.688106 0.963713
O O4 0.545122 0.808910 0.011720
O O5 0.787137 0.738490 0.117932
O O6 0.792400 0.765211 0.249463
O O7 0.604484 0.689159 0.243250
O O8 0.690798 0.978876 0.209024
O O9 0.854093 0.278051 0.856528
O O10 0.743465 0.018936 0.942337
O O11 0.952196 0.016004 0.830079
O O12 0.750000 0.250000 0.500000
#
# Coordination Sequence:
#
# PCOD9298429 Si02
#       6
#     8   8   8   8   8   4
#     4  12  23  44  77 102 143 189 238 300 368 423
#     4  11  24  44  69  99 141 183 239 293 357 430
#     4  11  25  45  71 106 149 188 242 297 359 443
#     4  11  23  43  73 103 137 185 236 296 362 433
#     4  12  26  46  69 105 142 190 241 295 359 432
#     4  10  24  44  70 100 142 190 236 298 366 424
#
# _framework density 22.911629999999999
#
# number of rings (size 3 to 8) (size 9 to 14) (size 15 to 20)
#    0.000    0.727    3.636    3.818    5.091    1.455 
#    3.273    0.000    0.000    0.000    0.000    0.000 
#    0.000    0.000    0.000    0.000    0.000    0.000 
#
# Total GULP energy -123109.884777 kJ/mol
# GULP energy per Si atom -5595.903853 kJ/mol
# Density = 2.285948 g / cm^3
# Si number density = 22.911630 Si / 1000 Ang^3
#
#
#
# Elastic Constant Matrix: (Units=GPa)
#
#
# Indices 1 2 3 4 5 6 
#
# 1 66.2692 24.1205 25.3683 0.0000 15.1809 0.0000
# 2 24.1205 107.2785 35.6212 0.0000 2.4111 0.0000
# 3 25.3683 35.6212 111.5126 0.0000 26.4515 0.0000
# 4 0.0000 0.0000 0.0000 18.8195 0.0000 1.1349
# 5 15.1809 2.4111 26.4515 0.0000 59.4733 0.0000
# 6 0.0000 0.0000 0.0000 1.1349 0.0000 29.6325
#
#
#
# Elastic Compliance Matrix: (Units=1/GPa)
#
#
# Indices 1 2 3 4 5 6 
#
# 1 0.017901 -0.003207 -0.002230 0.000000 -0.003447 0.000000
# 2 -0.003207 0.011077 -0.003238 0.000000 0.001810 0.000000
# 3 -0.002230 -0.003238 0.011563 0.000000 -0.004442 0.000000
# 4 0.000000 0.000000 0.000000 0.053259 0.000000 -0.002040
# 5 -0.003447 0.001810 -0.004442 0.000000 0.019597 0.000000
# 6 0.000000 0.000000 0.000000 -0.002040 0.000000 0.033825
#
#
# Mechanical properties :
#
#
# Convention : Reuss Voigt Hill
#
# Bulk Modulus (GPa) = 43.12110 50.58671 46.85390
# Shear Modulus (GPa) = 29.01884 34.91509 31.96697
#
# Velocity S-wave (km/s) = 3.56273 3.90795 3.73933
# Velocity P-wave (km/s) = 5.98210 6.51842 6.25601
#
# Compressibility (1/GPa) = 0.02319050
#
# Stress axis : x y z
#
# Youngs Moduli (GPa) = 55.86409 90.27639 86.48218
#
# Poissons Ratio (x) = 0.28950 0.19287
# Poissons Ratio (y) = 0.17914 0.28004
# Poissons Ratio (z) = 0.12459 0.29233
#
# Static dielectric constant tensor:
#      x y z
#    x 1.942070 0.000000 -0.054790 
#    y 0.000000 1.837230 0.000000 
#    z -0.054790 0.000000 1.809700 
# 
# From -- ./inp_files/202941.got.cif
#   From: 2010.05.17/outbox.cif.g08.bks.cpg/sg15_102_cif.got.tgz:202941.got - 2010.06.03 18:47:42.
