data_PCOD9298234
_publ_section_title
;
Structure prediction by ZEFSAII (Michael W. Deem and Ramdas Pophale) SiO2 
 PCOD9298234
Probable space group: C 2/C
;
_chemical_formula_sum "Si O2"
_cell_formula_units_Z 64
_cell_length_a 9.466626
_cell_length_b 28.250313
_cell_length_c 15.319223
_cell_angle_alpha 90.000000
_cell_angle_beta 49.173984
_cell_angle_gamma 90.000000
_cell_volume 3100.116181
_symmetry_space_group_name_H-M "C 2/C"
_symmetry_group_IT_number 15
_symmetry_cell_setting 'monoclinic'
loop_
_space_group_symop_operation_xyz
x,y,z
-x,y,1/2-z
-x,-y,-z
x,-y,1/2+z
1/2+x,1/2+y,z
1/2-x,1/2+y,1/2-z
1/2-x,1/2-y,-z
1/2+x,1/2-y,1/2+z
loop_
_atom_site_type_symbol
_atom_site_label
_atom_site_fract_x
_atom_site_fract_y
_atom_site_fract_z
Si Si1 0.500225 0.697624 0.106510
Si Si2 0.048656 0.417458 0.994781
Si Si3 0.139423 0.426960 0.615736
Si Si4 0.174652 0.464828 0.115396
Si Si5 0.313961 0.364044 0.291518
Si Si6 0.957355 0.882871 0.048899
Si Si7 0.660982 0.222830 0.954890
Si Si8 0.222028 0.324495 0.869680
O O1 0.418525 0.740546 0.083982
O O2 0.672717 0.707862 0.101423
O O3 0.339805 0.678080 0.234879
O O4 0.558727 0.655641 0.019616
O O5 0.872625 0.392775 0.113666
O O6 0.123189 0.454953 0.034710
O O7 0.975053 0.431751 0.928680
O O8 0.203883 0.377320 0.914375
O O9 0.209682 0.479457 0.612931
O O10 0.322290 0.394484 0.527595
O O11 0.000000 0.410489 0.750000
O O12 0.345147 0.430717 0.071887
O O13 0.000000 0.453054 0.250000
O O14 0.500000 0.390221 0.250000
O O15 0.356390 0.359522 0.172889
O O16 0.291963 0.314901 0.352732
O O17 0.750000 0.250000 0.000000
O O18 0.485674 0.193386 0.061473
#
# Coordination Sequence:
#
# PCOD9298234 Si02
#       8
#     8   8   8   8   8   8   8   8
#     4  11  24  42  67  89 132 172 217 265 325 396
#     4  11  21  44  67  91 134 174 215 270 329 393
#     4  11  25  42  66 100 137 176 224 272 333 395
#     4  11  23  42  68 103 134 171 223 277 331 396
#     4  11  23  41  68  98 128 168 223 265 336 387
#     4  12  23  43  70  96 135 176 217 278 327 399
#     4  11  26  43  67  98 131 167 216 280 325 396
#     4  10  24  44  62  93 127 171 220 262 325 397
#
# _framework density 20.644386999999998
#
# number of rings (size 3 to 8) (size 9 to 14) (size 15 to 20)
#    0.000    1.000    3.750    2.625    5.250    0.000 
#    0.000    0.000    2.750    0.000    0.000    0.000 
#    0.000    0.000    0.000    0.000    0.000    0.000 
#
# Total GULP energy -178793.170400 kJ/mol
# GULP energy per Si atom -5587.286575 kJ/mol
# Density = 2.059740 g / cm^3
# Si number density = 20.644387 Si / 1000 Ang^3
#
#
#
# Elastic Constant Matrix: (Units=GPa)
#
#
# Indices 1 2 3 4 5 6 
#
# 1 61.7820 -9.5305 30.1935 0.0000 11.0167 0.0000
# 2 -9.5305 34.5697 18.0031 0.0000 -0.1011 0.0000
# 3 30.1935 18.0031 148.3277 0.0000 12.1451 0.0000
# 4 0.0000 0.0000 0.0000 15.3515 0.0000 5.1980
# 5 11.0167 -0.1011 12.1451 0.0000 36.2380 0.0000
# 6 0.0000 0.0000 0.0000 5.1980 0.0000 35.5259
#
#
#
# Elastic Compliance Matrix: (Units=1/GPa)
#
#
# Indices 1 2 3 4 5 6 
#
# 1 0.020626 0.008179 -0.004812 0.000000 -0.004635 0.000000
# 2 0.008179 0.034189 -0.005777 0.000000 -0.000455 0.000000
# 3 -0.004812 -0.005777 0.008538 0.000000 -0.001415 0.000000
# 4 0.000000 0.000000 0.000000 0.068535 0.000000 -0.010028
# 5 -0.004635 -0.000455 -0.001415 0.000000 0.029477 0.000000
# 6 0.000000 0.000000 0.000000 -0.010028 0.000000 0.029616
#
#
# Mechanical properties :
#
#
# Convention : Reuss Voigt Hill
#
# Bulk Modulus (GPa) = 17.08461 35.77907 26.43184
# Shear Modulus (GPa) = 23.22201 31.15732 27.18967
#
# Velocity S-wave (km/s) = 3.35753 3.88911 3.63305
# Velocity P-wave (km/s) = 4.82952 6.12663 5.51634
#
# Compressibility (1/GPa) = 0.05853222
#
# Stress axis : x y z
#
# Youngs Moduli (GPa) = 48.48355 29.24907 117.11861
#
# Poissons Ratio (x) = -0.23921 0.56354
# Poissons Ratio (y) = -0.39652 0.67662
# Poissons Ratio (z) = 0.23329 0.16898
#
# Static dielectric constant tensor:
#      x y z
#    x 1.774850 0.000000 0.007210 
#    y 0.000000 1.745100 0.000000 
#    z 0.007210 0.000000 1.716340 
# 
# From -- ./inp_files/139811.got.cif
#   From: 2010.05.17/outbox.cif.g08.bks.cpg/sg15_70_cif.got.tgz:139811.got - 2010.06.03 18:47:42.
