data_PCOD9298322
_publ_section_title
;
Structure prediction by ZEFSAII (Michael W. Deem and Ramdas Pophale) SiO2 
 PCOD9298322
Probable space group: C 2/C
;
_chemical_formula_sum "Si O2"
_cell_formula_units_Z 28
_cell_length_a 5.002892
_cell_length_b 29.929904
_cell_length_c 8.721097
_cell_angle_alpha 90.000000
_cell_angle_beta 117.560250
_cell_angle_gamma 90.000000
_cell_volume 1157.679788
_symmetry_space_group_name_H-M "C 2/C"
_symmetry_group_IT_number 15
_symmetry_cell_setting 'monoclinic'
loop_
_space_group_symop_operation_xyz
x,y,z
-x,y,1/2-z
-x,-y,-z
x,-y,1/2+z
1/2+x,1/2+y,z
1/2-x,1/2+y,1/2-z
1/2-x,1/2-y,-z
1/2+x,1/2-y,1/2+z
loop_
_atom_site_type_symbol
_atom_site_label
_atom_site_fract_x
_atom_site_fract_y
_atom_site_fract_z
Si Si1 0.262936 0.946630 0.562211
Si Si2 0.774607 0.648879 0.935872
Si Si3 0.500000 0.491598 0.750000
Si Si4 0.132343 0.199755 0.453324
O O1 0.500000 0.966507 0.750000
O O2 0.327626 0.895380 0.549096
O O3 0.221552 0.971677 0.391189
O O4 0.981878 0.956895 0.599201
O O5 0.500000 0.637357 0.750000
O O6 0.634839 0.688492 0.000999
O O7 0.085251 0.666469 0.947755
O O8 0.250000 0.250000 0.500000
O O9 0.000000 0.192543 0.250000
#
# Coordination Sequence:
#
# PCOD9298322 Si02
#       4
#     8   8   4   8
#     4  11  23  43  67 100 139 187 242 294 364 419
#     4  12  26  46  72 107 145 189 239 299 357 433
#     4  10  24  44  66  98 138 186 246 292 366 422
#     4  12  26  48  74 106 142 189 236 297 364 433
#
# _framework density 24.186309999999999
#
# number of rings (size 3 to 8) (size 9 to 14) (size 15 to 20)
#    0.000    0.571    1.429    6.857    6.000    0.000 
#    0.000    0.000    0.000    0.000    0.000    0.000 
#    0.000    0.000    0.000    0.000    0.000    0.000 
#
# Total GULP energy -78059.096828 kJ/mol
# GULP energy per Si atom -5575.649773 kJ/mol
# Density = 2.413126 g / cm^3
# Si number density = 24.186310 Si / 1000 Ang^3
#
#
#
# Elastic Constant Matrix: (Units=GPa)
#
#
# Indices 1 2 3 4 5 6 
#
# 1 43.9456 10.8005 13.0771 0.0000 2.2490 0.0000
# 2 10.8005 133.5028 16.4013 0.0000 -5.6400 0.0000
# 3 13.0771 16.4013 177.2136 0.0000 23.0023 0.0000
# 4 0.0000 0.0000 0.0000 21.4891 0.0000 -6.5012
# 5 2.2490 -5.6400 23.0023 0.0000 29.7115 0.0000
# 6 0.0000 0.0000 0.0000 -6.5012 0.0000 28.3791
#
#
#
# Elastic Compliance Matrix: (Units=1/GPa)
#
#
# Indices 1 2 3 4 5 6 
#
# 1 0.023676 -0.001780 -0.001452 0.000000 -0.001006 0.000000
# 2 -0.001780 0.007842 -0.000895 0.000000 0.002316 0.000000
# 3 -0.001452 -0.000895 0.006493 0.000000 -0.005087 0.000000
# 4 0.000000 0.000000 0.000000 0.050001 0.000000 0.011454
# 5 -0.001006 0.002316 -0.005087 0.000000 0.038111 0.000000
# 6 0.000000 0.000000 0.000000 0.011454 0.000000 0.037861
#
#
# Mechanical properties :
#
#
# Convention : Reuss Voigt Hill
#
# Bulk Modulus (GPa) = 33.60376 48.35778 40.98077
# Shear Modulus (GPa) = 27.44878 36.87479 32.16178
#
# Velocity S-wave (km/s) = 3.37247 3.90887 3.65053
# Velocity P-wave (km/s) = 5.39338 6.35685 5.89484
#
# Compressibility (1/GPa) = 0.02975858
#
# Stress axis : x y z
#
# Youngs Moduli (GPa) = 42.23629 127.51391 154.00774
#
# Poissons Ratio (x) = 0.22692 0.22360
# Poissons Ratio (y) = 0.07516 0.13786
# Poissons Ratio (z) = 0.06132 0.11415
#
# Static dielectric constant tensor:
#      x y z
#    x 1.109390 0.000000 0.069640 
#    y 0.000000 1.889480 0.000000 
#    z 0.069640 0.000000 1.931660 
# 
# From -- ./inp_files/19865.got.cif
#   From: 2010.05.17/outbox.cif.g08.bks.cpg/sg15_10_cif.got.tgz:19865.got - 2010.06.03 18:47:42.
