data_PCOD9298218
_publ_section_title
;
Structure prediction by ZEFSAII (Michael W. Deem and Ramdas Pophale) SiO2 
 PCOD9298218
Probable space group: C 2/C
;
_chemical_formula_sum "Si O2"
_cell_formula_units_Z 60
_cell_length_a 27.753938
_cell_length_b 10.409266
_cell_length_c 23.443542
_cell_angle_alpha 90.000000
_cell_angle_beta 19.227645
_cell_angle_gamma 90.000000
_cell_volume 2230.432294
_symmetry_space_group_name_H-M "C 2/C"
_symmetry_group_IT_number 15
_symmetry_cell_setting 'monoclinic'
loop_
_space_group_symop_operation_xyz
x,y,z
-x,y,1/2-z
-x,-y,-z
x,-y,1/2+z
1/2+x,1/2+y,z
1/2-x,1/2+y,1/2-z
1/2-x,1/2-y,-z
1/2+x,1/2-y,1/2+z
loop_
_atom_site_type_symbol
_atom_site_label
_atom_site_fract_x
_atom_site_fract_y
_atom_site_fract_z
Si Si1 0.068367 0.151420 0.298526
Si Si2 0.000000 0.176672 0.750000
Si Si3 0.726067 0.467506 0.388737
Si Si4 0.134611 0.599665 0.042534
Si Si5 0.141849 0.252708 0.777441
Si Si6 0.276175 0.452483 0.980554
Si Si7 0.858662 0.392903 0.549192
Si Si8 0.837192 0.621919 0.649817
O O1 0.963838 0.272289 0.427398
O O2 0.135868 0.145400 0.158733
O O3 0.201521 0.129947 0.193820
O O4 0.945744 0.038733 0.434984
O O5 0.036467 0.275634 0.659397
O O6 0.131590 0.082495 0.613353
O O7 0.781540 0.612256 0.323126
O O8 0.746099 0.408419 0.429766
O O9 0.811573 0.386496 0.245486
O O10 0.291592 0.654110 0.844386
O O11 0.152742 0.511409 0.077926
O O12 0.070121 0.506863 0.067570
O O13 0.974386 0.292353 0.976278
O O14 0.201505 0.186559 0.768794
O O15 0.843479 0.470653 0.624943
#
# Coordination Sequence:
#
# PCOD9298218 Si02
#       8
#     8   4   8   8   8   8   8   8
#     4  11  25  51  78 114 159 208 264 324 399 484
#     4  12  20  42  72 112 152 202 256 324 394 458
#     4  12  26  47  80 108 161 209 262 326 397 475
#     4  10  24  43  77 116 158 200 264 334 392 473
#     4  11  26  49  81 117 158 206 272 335 396 465
#     4  11  23  45  75 115 151 209 255 327 408 465
#     4  10  27  50  77 114 161 210 267 318 400 475
#     4  11  29  50  80 120 155 209 272 331 399 469
#
# _framework density 26.900614999999998
#
# number of rings (size 3 to 8) (size 9 to 14) (size 15 to 20)
#    0.000    1.067    2.667    0.800   13.067    1.600 
#    2.400    6.000    0.000    0.000    0.000    0.000 
#    0.000    0.000    0.000    0.000    0.000    0.000 
#
# Total GULP energy -168078.764510 kJ/mol
# GULP energy per Si atom -5602.625484 kJ/mol
# Density = 2.683939 g / cm^3
# Si number density = 26.900615 Si / 1000 Ang^3
#
#
#
# Elastic Constant Matrix: (Units=GPa)
#
#
# Indices 1 2 3 4 5 6 
#
# 1 127.0177 40.4323 74.6390 0.0000 14.0643 0.0000
# 2 40.4323 123.0025 44.7876 0.0000 5.2282 0.0000
# 3 74.6390 44.7876 142.3010 -0.0003 9.1574 0.0003
# 4 0.0000 0.0000 -0.0003 58.1724 0.0000 0.7841
# 5 14.0643 5.2282 9.1574 0.0000 56.1115 0.0001
# 6 0.0000 0.0000 0.0003 0.7841 0.0001 45.3578
#
#
#
# Elastic Compliance Matrix: (Units=1/GPa)
#
#
# Indices 1 2 3 4 5 6 
#
# 1 0.011932 -0.001815 -0.005564 0.000000 -0.001914 0.000000
# 2 -0.001815 0.009467 -0.002021 0.000000 -0.000097 0.000000
# 3 -0.005564 -0.002021 0.010591 0.000000 -0.000146 0.000000
# 4 0.000000 0.000000 0.000000 0.017194 0.000000 -0.000297
# 5 -0.001914 -0.000097 -0.000146 0.000000 0.018334 0.000000
# 6 0.000000 0.000000 0.000000 -0.000297 0.000000 0.022052
#
#
# Mechanical properties :
#
#
# Convention : Reuss Voigt Hill
#
# Bulk Modulus (GPa) = 75.81862 79.11546 77.46704
# Shear Modulus (GPa) = 44.33875 47.42583 45.88229
#
# Velocity S-wave (km/s) = 4.06426 4.20337 4.13440
# Velocity P-wave (km/s) = 7.09015 7.28230 7.18686
#
# Compressibility (1/GPa) = 0.01318937
#
# Stress axis : x y z
#
# Youngs Moduli (GPa) = 83.80664 105.63426 94.41569
#
# Poissons Ratio (x) = 0.19171 0.52536
# Poissons Ratio (y) = 0.15210 0.19085
# Poissons Ratio (z) = 0.46632 0.21352
#
# Static dielectric constant tensor:
#      x y z
#    x 1.646430 0.000000 -0.092930 
#    y 0.000000 2.064370 0.000000 
#    z -0.092930 0.000000 2.156680 
# 
# From -- ./inp_files/257706.got.cif
#   From: 2010.05.17/outbox.cif.g08.bks.cpg/sg15_129_cif.got.tgz:257706.got - 2010.06.03 18:47:42.
