data_PCOD9298696
_publ_section_title
;
Structure prediction by ZEFSAII (Michael W. Deem and Ramdas Pophale) SiO2 
 PCOD9298696
Probable space group: C 2/C
;
_chemical_formula_sum "Si O2"
_cell_formula_units_Z 48
_cell_length_a 8.222166
_cell_length_b 14.591204
_cell_length_c 26.313385
_cell_angle_alpha 90.000000
_cell_angle_beta 136.046472
_cell_angle_gamma 90.000000
_cell_volume 2191.090419
_symmetry_space_group_name_H-M "C 2/C"
_symmetry_group_IT_number 15
_symmetry_cell_setting 'monoclinic'
loop_
_space_group_symop_operation_xyz
x,y,z
-x,y,1/2-z
-x,-y,-z
x,-y,1/2+z
1/2+x,1/2+y,z
1/2-x,1/2+y,1/2-z
1/2-x,1/2-y,-z
1/2+x,1/2-y,1/2+z
loop_
_atom_site_type_symbol
_atom_site_label
_atom_site_fract_x
_atom_site_fract_y
_atom_site_fract_z
Si Si1 0.602582 0.265934 0.071849
Si Si2 0.270227 0.551810 0.312823
Si Si3 0.009504 0.856891 0.346299
Si Si4 0.516125 0.103224 0.984429
Si Si5 0.606122 0.737608 0.216577
Si Si6 0.505098 0.592553 0.468635
O O1 0.520808 0.301424 0.107771
O O2 0.885659 0.276326 0.135063
O O3 0.548080 0.163398 0.042539
O O4 0.473240 0.326210 0.000725
O O5 0.417979 0.460829 0.333511
O O6 0.327575 0.637367 0.289266
O O7 0.324793 0.584353 0.382223
O O8 0.000000 0.525665 0.250000
O O9 0.834293 0.803064 0.269196
O O10 0.287447 0.865399 0.401564
O O11 0.746335 0.110134 0.002247
O O12 0.500000 0.000000 0.000000
O O13 0.500000 0.731036 0.250000
O O14 0.500000 0.500000 0.500000
#
# Coordination Sequence:
#
# PCOD9298696 Si02
#       6
#     8   8   8   8   8   8
#     4  11  22  44  70 100 139 181 225 293 348 421
#     4  12  25  47  68  97 143 184 232 286 353 425
#     4  11  24  45  69 103 138 185 230 292 358 417
#     4  12  23  43  68 104 140 175 236 287 343 421
#     4  10  24  45  69  99 141 184 233 287 358 422
#     4  12  25  44  71 102 136 182 230 290 352 418
#
# _framework density 21.906901000000001
#
# number of rings (size 3 to 8) (size 9 to 14) (size 15 to 20)
#    0.000    0.667    5.000    2.500    2.333    0.000 
#    6.000    0.833    0.000    0.000    0.000    0.000 
#    0.000    0.000    0.000    0.000    0.000    0.000 
#
# Total GULP energy -134277.562843 kJ/mol
# GULP energy per Si atom -5594.898452 kJ/mol
# Density = 2.185704 g / cm^3
# Si number density = 21.906901 Si / 1000 Ang^3
#
#
#
# Elastic Constant Matrix: (Units=GPa)
#
#
# Indices 1 2 3 4 5 6 
#
# 1 40.3710 -6.2201 20.3430 0.0000 15.6333 0.0000
# 2 -6.2201 117.2913 34.2586 0.0000 -18.1606 0.0000
# 3 20.3430 34.2586 144.8725 0.0000 21.3907 0.0000
# 4 0.0000 0.0000 0.0000 44.4613 0.0000 -0.3455
# 5 15.6333 -18.1606 21.3907 0.0000 37.2053 0.0000
# 6 0.0000 0.0000 0.0000 -0.3455 0.0000 27.0608
#
#
#
# Elastic Compliance Matrix: (Units=1/GPa)
#
#
# Indices 1 2 3 4 5 6 
#
# 1 0.030519 0.000790 -0.002880 0.000000 -0.010782 0.000000
# 2 0.000790 0.010732 -0.003686 0.000000 0.007026 0.000000
# 3 -0.002880 -0.003686 0.009033 0.000000 -0.005782 0.000000
# 4 0.000000 0.000000 0.000000 0.022494 0.000000 0.000287
# 5 -0.010782 0.007026 -0.005782 0.000000 0.038162 0.000000
# 6 0.000000 0.000000 0.000000 0.000287 0.000000 0.036958
#
#
# Mechanical properties :
#
#
# Convention : Reuss Voigt Hill
#
# Bulk Modulus (GPa) = 25.81919 44.36640 35.09280
# Shear Modulus (GPa) = 29.00910 38.68902 33.84906
#
# Velocity S-wave (km/s) = 3.64290 4.20702 3.93508
# Velocity P-wave (km/s) = 5.43192 6.62532 6.05808
#
# Compressibility (1/GPa) = 0.03873088
#
# Stress axis : x y z
#
# Youngs Moduli (GPa) = 32.76683 93.17733 110.71094
#
# Poissons Ratio (x) = -0.07364 0.31889
# Poissons Ratio (y) = -0.02590 0.40811
# Poissons Ratio (z) = 0.09438 0.34348
#
# Static dielectric constant tensor:
#      x y z
#    x 1.782540 0.000000 0.024570 
#    y 0.000000 1.799520 0.000000 
#    z 0.024570 0.000000 1.814280 
# 
# From -- ./inp_files/289111.got.cif
#   From: 2010.05.17/outbox.cif.g08.bks.cpg/sg15_145_cif.got.tgz:289111.got - 2010.06.03 18:47:42.
