data_PCOD9298799
_publ_section_title
;
Structure prediction by ZEFSAII (Michael W. Deem and Ramdas Pophale) SiO2 
 PCOD9298799
Probable space group: C 2/C
;
_chemical_formula_sum "Si O2"
_cell_formula_units_Z 56
_cell_length_a 7.944720
_cell_length_b 25.608015
_cell_length_c 12.937854
_cell_angle_alpha 90.000000
_cell_angle_beta 103.820778
_cell_angle_gamma 90.000000
_cell_volume 2555.979269
_symmetry_space_group_name_H-M "C 2/C"
_symmetry_group_IT_number 15
_symmetry_cell_setting 'monoclinic'
loop_
_space_group_symop_operation_xyz
x,y,z
-x,y,1/2-z
-x,-y,-z
x,-y,1/2+z
1/2+x,1/2+y,z
1/2-x,1/2+y,1/2-z
1/2-x,1/2-y,-z
1/2+x,1/2-y,1/2+z
loop_
_atom_site_type_symbol
_atom_site_label
_atom_site_fract_x
_atom_site_fract_y
_atom_site_fract_z
Si Si1 0.000000 0.917397 0.250000
Si Si2 0.052351 0.645195 0.877138
Si Si3 0.225336 0.098127 0.134589
Si Si4 0.542519 0.649678 0.553874
Si Si5 0.551607 0.232124 0.470108
Si Si6 0.000000 0.670853 0.250000
Si Si7 0.702739 0.995455 0.733430
Si Si8 0.472431 0.059100 0.466981
O O1 0.024861 0.878817 0.351866
O O2 0.826818 0.954268 0.234392
O O3 0.256611 0.638928 0.917427
O O4 0.000000 0.651064 0.750000
O O5 0.005032 0.590788 0.923933
O O6 0.988289 0.693209 0.940271
O O7 0.323664 0.136840 0.227569
O O8 0.190895 0.040340 0.170293
O O9 0.381900 0.087508 0.078274
O O10 0.066307 0.125441 0.055792
O O11 0.539914 0.712130 0.544511
O O12 0.750000 0.250000 0.500000
O O13 0.510797 0.203768 0.356383
O O14 0.500000 0.002205 0.750000
O O15 0.686269 0.954210 0.634626
O O16 0.500000 0.000000 0.500000
#
# Coordination Sequence:
#
# PCOD9298799 Si02
#       8
#     4   8   8   8   8   4   8   8
#     4  12  29  46  72 118 158 206 261 322 400 468
#     4  12  30  48  75 115 157 203 257 326 396 467
#     4  11  22  46  72 108 142 201 254 310 378 462
#     4  12  29  45  71 109 156 193 261 324 386 462
#     4  12  26  52  79 110 145 207 259 323 391 466
#     4  12  21  46  86 102 146 196 269 306 398 462
#     4  10  24  45  75 108 157 209 255 317 390 467
#     4  11  23  43  71 104 150 198 251 304 379 460
#
# _framework density 21.909410000000001
#
# number of rings (size 3 to 8) (size 9 to 14) (size 15 to 20)
#    0.000    0.571    5.000    1.714   14.000    0.571 
#    0.000    0.000    0.000    0.000    0.000    0.000 
#    0.000    0.000    0.000    0.000    0.000    0.000 
#
# Total GULP energy -156044.847887 kJ/mol
# GULP energy per Si atom -5573.030282 kJ/mol
# Density = 2.185954 g / cm^3
# Si number density = 21.909410 Si / 1000 Ang^3
#
#
#
# Elastic Constant Matrix: (Units=GPa)
#
#
# Indices 1 2 3 4 5 6 
#
# 1 59.6562 33.1874 39.7050 0.0000 18.4200 0.0000
# 2 33.1874 166.2257 78.8527 0.0000 -7.6823 0.0000
# 3 39.7050 78.8527 158.1055 0.0000 6.9405 0.0000
# 4 0.0000 0.0000 0.0000 52.2520 0.0000 -1.7880
# 5 18.4200 -7.6823 6.9405 0.0000 30.9874 0.0000
# 6 0.0000 0.0000 0.0000 -1.7880 0.0000 39.8692
#
#
#
# Elastic Compliance Matrix: (Units=1/GPa)
#
#
# Indices 1 2 3 4 5 6 
#
# 1 0.026636 -0.004215 -0.003884 0.000000 -0.016008 0.000000
# 2 -0.004215 0.008807 -0.003575 0.000000 0.005490 0.000000
# 3 -0.003884 -0.003575 0.009110 0.000000 -0.000618 0.000000
# 4 0.000000 0.000000 0.000000 0.019167 0.000000 0.000860
# 5 -0.016008 0.005490 -0.000618 0.000000 0.043286 0.000000
# 6 0.000000 0.000000 0.000000 0.000860 0.000000 0.025121
#
#
# Mechanical properties :
#
#
# Convention : Reuss Voigt Hill
#
# Bulk Modulus (GPa) = 47.15902 76.38638 61.77270
# Shear Modulus (GPa) = 30.76100 40.10455 35.43278
#
# Velocity S-wave (km/s) = 3.75108 4.28304 4.02586
# Velocity P-wave (km/s) = 6.35075 7.70711 7.06157
#
# Compressibility (1/GPa) = 0.02120485
#
# Stress axis : x y z
#
# Youngs Moduli (GPa) = 37.54379 113.54625 109.76644
#
# Poissons Ratio (x) = 0.47863 0.42633
# Poissons Ratio (y) = 0.15826 0.39239
# Poissons Ratio (z) = 0.14582 0.40590
#
# Static dielectric constant tensor:
#      x y z
#    x 1.766240 0.000000 -0.310880 
#    y 0.000000 1.657810 0.000000 
#    z -0.310880 0.000000 2.085840 
# 
# From -- ./inp_files/81478.got.cif
#   From: 2010.05.17/outbox.cif.g08.bks.cpg/sg15_41_cif.got.tgz:81478.got - 2010.06.03 18:47:42.
