data_PCOD9298943
_publ_section_title
;
Structure prediction by ZEFSAII (Michael W. Deem and Ramdas Pophale) SiO2 
 PCOD9298943
Probable space group: C 2/C
;
_chemical_formula_sum "Si O2"
_cell_formula_units_Z 40
_cell_length_a 14.249639
_cell_length_b 14.240460
_cell_length_c 14.259061
_cell_angle_alpha 90.000000
_cell_angle_beta 146.363942
_cell_angle_gamma 90.000000
_cell_volume 1602.737585
_symmetry_space_group_name_H-M "C 2/C"
_symmetry_group_IT_number 15
_symmetry_cell_setting 'monoclinic'
loop_
_space_group_symop_operation_xyz
x,y,z
-x,y,1/2-z
-x,-y,-z
x,-y,1/2+z
1/2+x,1/2+y,z
1/2-x,1/2+y,1/2-z
1/2-x,1/2-y,-z
1/2+x,1/2-y,1/2+z
loop_
_atom_site_type_symbol
_atom_site_label
_atom_site_fract_x
_atom_site_fract_y
_atom_site_fract_z
Si Si1 0.730193 0.189327 0.077809
Si Si2 0.818903 0.998924 0.089283
Si Si3 0.370983 0.176536 0.848523
Si Si4 0.505472 0.139971 0.359327
Si Si5 0.301699 0.500298 0.360587
O O1 0.833024 0.092854 0.162548
O O2 0.772040 0.249260 0.204157
O O3 0.750000 0.250000 0.000000
O O4 0.537470 0.158674 0.925939
O O5 0.000000 0.947059 0.250000
O O6 0.795708 0.033052 0.963342
O O7 0.651963 0.939037 0.970726
O O8 0.275326 0.078126 0.771030
O O9 0.426467 0.204663 0.999473
O O10 0.500000 0.183022 0.250000
O O11 0.328042 0.089829 0.243124
O O12 0.500000 0.500000 0.500000
#
# Coordination Sequence:
#
# PCOD9298943 Si02
#       5
#     8   8   8   8   8
#     4  12  25  41  65 105 149 189 221 283 364 438
#     4  11  22  40  67 105 146 181 231 294 360 422
#     4  12  25  43  67 100 144 188 236 285 360 427
#     4  10  24  46  70  98 138 186 243 302 345 416
#     4  11  23  39  70 104 141 184 236 295 357 422
#
# _framework density 24.9573
#
# number of rings (size 3 to 8) (size 9 to 14) (size 15 to 20)
#    0.000    0.800    4.000    3.600    2.800    0.000 
#    0.000    1.000    0.000    0.000    0.000    0.000 
#    0.000    0.000    0.000    0.000    0.000    0.000 
#
# Total GULP energy -111871.830635 kJ/mol
# GULP energy per Si atom -5593.591532 kJ/mol
# Density = 2.490050 g / cm^3
# Si number density = 24.957300 Si / 1000 Ang^3
#
#
#
# Elastic Constant Matrix: (Units=GPa)
#
#
# Indices 1 2 3 4 5 6 
#
# 1 133.4878 27.3723 56.8995 0.0001 -0.2725 0.0002
# 2 27.3723 37.6785 22.9242 0.0001 -1.5459 0.0002
# 3 56.8995 22.9242 125.6103 -0.0001 1.5243 0.0002
# 4 0.0001 0.0001 -0.0001 32.4143 -0.0003 -2.9895
# 5 -0.2725 -1.5459 1.5243 -0.0003 84.2467 0.0000
# 6 0.0002 0.0002 0.0002 -2.9895 0.0000 26.5871
#
#
#
# Elastic Compliance Matrix: (Units=1/GPa)
#
#
# Indices 1 2 3 4 5 6 
#
# 1 0.010091 -0.005118 -0.003637 0.000000 0.000005 0.000000
# 2 -0.005118 0.032486 -0.003618 0.000000 0.000645 0.000000
# 3 -0.003637 -0.003618 0.010272 0.000000 -0.000264 0.000000
# 4 0.000000 0.000000 0.000000 0.031174 0.000000 0.003505
# 5 0.000005 0.000645 -0.000264 0.000000 0.011887 0.000000
# 6 0.000000 0.000000 0.000000 0.003505 0.000000 0.038006
#
#
# Mechanical properties :
#
#
# Convention : Reuss Voigt Hill
#
# Bulk Modulus (GPa) = 35.58350 56.79652 46.19001
# Shear Modulus (GPa) = 29.75651 41.28833 35.52242
#
# Velocity S-wave (km/s) = 3.45671 4.07179 3.77679
# Velocity P-wave (km/s) = 5.49732 6.70171 6.12917
#
# Compressibility (1/GPa) = 0.02810292
#
# Stress axis : x y z
#
# Youngs Moduli (GPa) = 99.09719 30.78236 97.34941
#
# Poissons Ratio (x) = 0.15754 0.35408
# Poissons Ratio (y) = 0.50716 0.35225
# Poissons Ratio (z) = 0.36043 0.11138
#
# Static dielectric constant tensor:
#      x y z
#    x 2.008740 0.000000 0.030340 
#    y 0.000000 1.913600 0.000000 
#    z 0.030340 0.000000 2.060620 
# 
# From -- ./inp_files/155586.got.cif
#   From: 2010.05.17/outbox.cif.g08.bks.cpg/sg15_78_cif.got.tgz:155586.got - 2010.06.03 18:47:42.
