data_PCOD9298099
_publ_section_title
;
Structure prediction by ZEFSAII (Michael W. Deem and Ramdas Pophale) SiO2 
 PCOD9298099
Probable space group: C 2/C
;
_chemical_formula_sum "Si O2"
_cell_formula_units_Z 44
_cell_length_a 26.071328
_cell_length_b 8.878239
_cell_length_c 21.747138
_cell_angle_alpha 90.000000
_cell_angle_beta 22.710460
_cell_angle_gamma 90.000000
_cell_volume 1943.404320
_symmetry_space_group_name_H-M "C 2/C"
_symmetry_group_IT_number 15
_symmetry_cell_setting 'monoclinic'
loop_
_space_group_symop_operation_xyz
x,y,z
-x,y,1/2-z
-x,-y,-z
x,-y,1/2+z
1/2+x,1/2+y,z
1/2-x,1/2+y,1/2-z
1/2-x,1/2-y,-z
1/2+x,1/2-y,1/2+z
loop_
_atom_site_type_symbol
_atom_site_label
_atom_site_fract_x
_atom_site_fract_y
_atom_site_fract_z
Si Si1 0.861857 0.936157 0.178031
Si Si2 0.029019 0.392836 0.317527
Si Si3 0.500000 0.662546 0.250000
Si Si4 0.714180 0.561004 0.475780
Si Si5 0.788829 0.403949 0.036319
Si Si6 0.609064 0.887221 0.907006
O O1 0.826495 0.955062 0.289240
O O2 0.860860 0.757957 0.166606
O O3 0.741368 0.019310 0.276231
O O4 0.000000 0.000000 0.000000
O O5 0.071946 0.270341 0.219700
O O6 0.920347 0.501975 0.406299
O O7 0.954878 0.326885 0.458476
O O8 0.155147 0.489928 0.198555
O O9 0.404049 0.557136 0.395458
O O10 0.747308 0.575742 0.511894
O O11 0.681769 0.726495 0.487348
O O12 0.500000 0.000000 0.000000
#
# Coordination Sequence:
#
# PCOD9298099 Si02
#       6
#     8   8   4   8   8   8
#     4  11  25  45  69 100 134 178 227 277 334 396
#     4  11  24  44  66  94 139 166 219 276 329 393
#     4  12  26  38  64 104 130 172 210 268 348 384
#     4  11  24  42  66  97 131 168 221 265 332 396
#     4  10  24  43  68  92 131 175 217 269 325 395
#     4  11  25  45  68 100 134 182 227 277 333 401
#
# _framework density 22.640682999999999
#
# number of rings (size 3 to 8) (size 9 to 14) (size 15 to 20)
#    0.000    1.091    1.818    2.727    7.636    5.818 
#    0.000    0.000    0.000    0.000    0.000    0.000 
#    0.000    0.000    0.000    0.000    0.000    0.000 
#
# Total GULP energy -123170.569361 kJ/mol
# GULP energy per Si atom -5598.662244 kJ/mol
# Density = 2.258915 g / cm^3
# Si number density = 22.640683 Si / 1000 Ang^3
#
#
#
# Elastic Constant Matrix: (Units=GPa)
#
#
# Indices 1 2 3 4 5 6 
#
# 1 25.7115 -1.5037 20.9340 0.0001 0.1587 0.0000
# 2 -1.5037 87.3114 29.3175 0.0013 -4.0582 -0.0003
# 3 20.9340 29.3175 135.7593 0.0008 5.5132 -0.0002
# 4 0.0001 0.0013 0.0008 40.8246 -0.0003 5.8645
# 5 0.1587 -4.0582 5.5132 -0.0003 22.8710 0.0000
# 6 0.0000 -0.0003 -0.0002 5.8645 0.0000 25.7140
#
#
#
# Elastic Compliance Matrix: (Units=1/GPa)
#
#
# Indices 1 2 3 4 5 6 
#
# 1 0.045490 0.003527 -0.007866 0.000000 0.002206 0.000000
# 2 0.003527 0.012811 -0.003435 0.000000 0.003077 0.000000
# 3 -0.007866 -0.003435 0.009436 0.000000 -0.002829 0.000000
# 4 0.000000 0.000000 0.000000 0.025325 0.000000 -0.005776
# 5 0.002206 0.003077 -0.002829 0.000000 0.044936 0.000000
# 6 0.000000 0.000000 0.000000 -0.005776 0.000000 0.040207
#
#
# Mechanical properties :
#
#
# Convention : Reuss Voigt Hill
#
# Bulk Modulus (GPa) = 19.16135 38.47532 28.81834
# Shear Modulus (GPa) = 23.68009 31.21754 27.44882
#
# Velocity S-wave (km/s) = 3.23756 3.71728 3.48568
# Velocity P-wave (km/s) = 4.73892 5.95441 5.38109
#
# Compressibility (1/GPa) = 0.05218839
#
# Stress axis : x y z
#
# Youngs Moduli (GPa) = 21.98279 78.06093 105.98103
#
# Poissons Ratio (x) = -0.27534 0.83363
# Poissons Ratio (y) = -0.07754 0.36408
# Poissons Ratio (z) = 0.17291 0.26816
#
# Static dielectric constant tensor:
#      x y z
#    x 1.834610 0.000000 0.025170 
#    y 0.000000 1.790230 0.000000 
#    z 0.025170 0.000000 1.808210 
# 
# From -- ./inp_files/110028.got.cif
#   From: 2010.05.17/outbox.cif.g08.bks.cpg/sg15_56_cif.got.tgz:110028.got - 2010.06.03 18:47:42.
