data_PCOD9298277
_publ_section_title
;
Structure prediction by ZEFSAII (Michael W. Deem and Ramdas Pophale) SiO2 
 PCOD9298277
Probable space group: C 2/C
;
_chemical_formula_sum "Si O2"
_cell_formula_units_Z 56
_cell_length_a 11.104602
_cell_length_b 9.065332
_cell_length_c 29.516360
_cell_angle_alpha 90.000000
_cell_angle_beta 108.787668
_cell_angle_gamma 90.000000
_cell_volume 2813.004456
_symmetry_space_group_name_H-M "C 2/C"
_symmetry_group_IT_number 15
_symmetry_cell_setting 'monoclinic'
loop_
_space_group_symop_operation_xyz
x,y,z
-x,y,1/2-z
-x,-y,-z
x,-y,1/2+z
1/2+x,1/2+y,z
1/2-x,1/2+y,1/2-z
1/2-x,1/2-y,-z
1/2+x,1/2-y,1/2+z
loop_
_atom_site_type_symbol
_atom_site_label
_atom_site_fract_x
_atom_site_fract_y
_atom_site_fract_z
Si Si1 0.142668 0.369530 0.662526
Si Si2 0.418734 0.163506 0.201340
Si Si3 0.808238 0.050851 0.843760
Si Si4 0.487091 0.248784 0.999169
Si Si5 0.671999 0.507682 0.556856
Si Si6 0.963911 0.504515 0.569990
Si Si7 0.637160 0.527255 0.755781
O O1 0.212010 0.225556 0.650983
O O2 0.242182 0.444272 0.708705
O O3 0.018051 0.307712 0.673419
O O4 0.080874 0.480568 0.618904
O O5 0.500000 0.082544 0.250000
O O6 0.368521 0.312362 0.219719
O O7 0.311443 0.056739 0.171273
O O8 0.855070 0.035902 0.797558
O O9 0.882220 0.002606 0.898086
O O10 0.607600 0.352553 0.024765
O O11 0.461600 0.141895 0.038424
O O12 0.373097 0.361153 0.974417
O O13 0.511274 0.143102 0.959433
O O14 0.824466 0.520458 0.575064
O O15 0.500000 0.456047 0.750000
#
# Coordination Sequence:
#
# PCOD9298277 Si02
#       7
#     8   8   8   8   8   8   8
#     4  12  24  42  64  96 130 170 212 262 318 377
#     4  11  22  43  66  87 131 170 208 266 309 376
#     4  12  22  41  65  95 128 166 215 258 316 381
#     4  10  24  44  65  93 129 163 212 266 319 382
#     4  11  23  42  67  95 126 168 211 264 319 377
#     4  11  23  43  67  94 126 167 212 263 321 379
#     4  11  24  44  64  93 134 171 211 260 314 381
#
# _framework density 19.907541999999999
#
# number of rings (size 3 to 8) (size 9 to 14) (size 15 to 20)
#    0.000    0.857    7.143    0.857    2.000    0.571 
#    5.143    1.429    0.000    0.000    0.000    0.000 
#    0.000    0.000    0.000    0.000    0.000    0.000 
#
# Total GULP energy -156105.543103 kJ/mol
# GULP energy per Si atom -5575.197968 kJ/mol
# Density = 1.986223 g / cm^3
# Si number density = 19.907542 Si / 1000 Ang^3
#
#
#
# Elastic Constant Matrix: (Units=GPa)
#
#
# Indices 1 2 3 4 5 6 
#
# 1 68.5057 23.7283 5.1404 0.0000 -1.6880 0.0000
# 2 23.7283 70.0427 6.8216 0.0000 -0.8416 0.0000
# 3 5.1404 6.8216 77.1594 0.0000 -5.7153 0.0000
# 4 0.0000 0.0000 0.0000 18.3020 0.0000 7.6680
# 5 -1.6880 -0.8416 -5.7153 0.0000 25.0211 0.0000
# 6 0.0000 0.0000 0.0000 7.6680 0.0000 12.6070
#
#
#
# Elastic Compliance Matrix: (Units=1/GPa)
#
#
# Indices 1 2 3 4 5 6 
#
# 1 0.016582 -0.005554 -0.000554 0.000000 0.000805 0.000000
# 2 -0.005554 0.016262 -0.001073 0.000000 -0.000073 0.000000
# 3 -0.000554 -0.001073 0.013312 0.000000 0.002967 0.000000
# 4 0.000000 0.000000 0.000000 0.073324 0.000000 -0.044599
# 5 0.000805 -0.000073 0.002967 0.000000 0.040696 0.000000
# 6 0.000000 0.000000 0.000000 -0.044599 0.000000 0.106447
#
#
# Mechanical properties :
#
#
# Convention : Reuss Voigt Hill
#
# Bulk Modulus (GPa) = 31.45240 31.89871 31.67556
# Shear Modulus (GPa) = 17.14769 23.18719 20.16744
#
# Velocity S-wave (km/s) = 2.93809 3.41654 3.18631
# Velocity P-wave (km/s) = 5.22909 5.62333 5.42979
#
# Compressibility (1/GPa) = 0.03179407
#
# Stress axis : x y z
#
# Youngs Moduli (GPa) = 60.30459 61.49245 75.12157
#
# Poissons Ratio (x) = 0.34153 0.04162
# Poissons Ratio (y) = 0.33493 0.08061
# Poissons Ratio (z) = 0.03341 0.06599
#
# Static dielectric constant tensor:
#      x y z
#    x 1.718270 0.000000 -0.025220 
#    y 0.000000 1.695160 0.000000 
#    z -0.025220 0.000000 1.750610 
# 
# From -- ./inp_files/310030.got.cif
#   From: 2010.05.17/outbox.cif.g08.bks.cpg/sg15_156_cif.got.tgz:310030.got - 2010.06.03 18:47:42.
