data_PCOD9298494
_publ_section_title
;
Structure prediction by ZEFSAII (Michael W. Deem and Ramdas Pophale) SiO2 
 PCOD9298494
Probable space group: C 2/C
;
_chemical_formula_sum "Si O2"
_cell_formula_units_Z 48
_cell_length_a 14.820630
_cell_length_b 11.188982
_cell_length_c 20.100888
_cell_angle_alpha 90.000000
_cell_angle_beta 138.180896
_cell_angle_gamma 90.000000
_cell_volume 2222.571276
_symmetry_space_group_name_H-M "C 2/C"
_symmetry_group_IT_number 15
_symmetry_cell_setting 'monoclinic'
loop_
_space_group_symop_operation_xyz
x,y,z
-x,y,1/2-z
-x,-y,-z
x,-y,1/2+z
1/2+x,1/2+y,z
1/2-x,1/2+y,1/2-z
1/2-x,1/2-y,-z
1/2+x,1/2-y,1/2+z
loop_
_atom_site_type_symbol
_atom_site_label
_atom_site_fract_x
_atom_site_fract_y
_atom_site_fract_z
Si Si1 0.097916 0.289268 0.433114
Si Si2 0.000000 0.832011 0.750000
Si Si3 0.775478 0.970524 0.701480
Si Si4 0.066859 0.102411 0.079445
Si Si5 0.732415 0.202813 0.599724
Si Si6 0.489566 0.062936 0.103305
Si Si7 0.000000 0.676470 0.250000
O O1 0.250000 0.250000 0.500000
O O2 0.066521 0.427116 0.430921
O O3 0.016568 0.251484 0.322605
O O4 0.042049 0.202233 0.459265
O O5 0.133759 0.911660 0.807512
O O6 0.862917 0.950960 0.816087
O O7 0.625108 0.920418 0.633395
O O8 0.749971 0.107934 0.668995
O O9 0.173892 0.173706 0.094490
O O10 0.000000 0.000000 0.000000
O O11 0.630593 0.144754 0.491354
O O12 0.881799 0.236203 0.659637
O O13 0.527938 0.096116 0.200267
#
# Coordination Sequence:
#
# PCOD9298494 Si02
#       7
#     8   4   8   8   8   8   4
#     4  11  25  44  71 105 139 184 232 299 353 424
#     4  10  24  44  72 102 144 182 242 290 358 426
#     4  11  24  49  71 104 144 194 241 300 360 429
#     4  11  27  44  71 106 144 189 240 297 361 429
#     4  12  26  47  74 106 142 195 238 301 363 433
#     4  12  26  47  76 105 147 190 246 295 369 433
#     4  12  28  48  72 108 148 190 240 302 364 438
#
# _framework density 21.596608
#
# number of rings (size 3 to 8) (size 9 to 14) (size 15 to 20)
#    0.000    0.667    3.333    3.000    7.000    2.667 
#    0.000    0.000    0.000    0.000    0.000    0.000 
#    0.000    0.000    0.000    0.000    0.000    0.000 
#
# Total GULP energy -134197.020117 kJ/mol
# GULP energy per Si atom -5591.542505 kJ/mol
# Density = 2.154745 g / cm^3
# Si number density = 21.596608 Si / 1000 Ang^3
#
#
#
# Elastic Constant Matrix: (Units=GPa)
#
#
# Indices 1 2 3 4 5 6 
#
# 1 91.0434 33.3967 45.4789 0.0000 19.3589 0.0000
# 2 33.3967 104.7928 67.9392 0.0000 -12.8566 0.0000
# 3 45.4789 67.9392 99.5977 0.0000 6.7548 0.0000
# 4 0.0000 0.0000 0.0000 60.9888 0.0000 -14.3594
# 5 19.3589 -12.8566 6.7548 0.0000 42.1845 0.0000
# 6 0.0000 0.0000 0.0000 -14.3594 0.0000 41.4499
#
#
#
# Elastic Compliance Matrix: (Units=1/GPa)
#
#
# Indices 1 2 3 4 5 6 
#
# 1 0.016057 -0.002884 -0.004858 0.000000 -0.007470 0.000000
# 2 -0.002884 0.020072 -0.013021 0.000000 0.009526 0.000000
# 3 -0.004858 -0.013021 0.021492 0.000000 -0.005181 0.000000
# 4 0.000000 0.000000 0.000000 0.017853 0.000000 0.006185
# 5 -0.007470 0.009526 -0.005181 0.000000 0.030866 0.000000
# 6 0.000000 0.000000 0.000000 0.006185 0.000000 0.026268
#
#
# Mechanical properties :
#
#
# Convention : Reuss Voigt Hill
#
# Bulk Modulus (GPa) = 62.13176 65.45151 63.79163
# Shear Modulus (GPa) = 27.85521 38.83257 33.34389
#
# Velocity S-wave (km/s) = 3.59527 4.24499 3.93356
# Velocity P-wave (km/s) = 6.78721 7.37555 7.08749
#
# Compressibility (1/GPa) = 0.01609483
#
# Stress axis : x y z
#
# Youngs Moduli (GPa) = 62.27914 49.81969 46.52831
#
# Poissons Ratio (x) = 0.14368 0.22604
# Poissons Ratio (y) = 0.17962 0.60586
# Poissons Ratio (z) = 0.30255 0.64871
#
# Static dielectric constant tensor:
#      x y z
#    x 1.842280 0.000000 0.038500 
#    y 0.000000 1.756190 0.000000 
#    z 0.038500 0.000000 1.808790 
# 
# From -- ./inp_files/243952.got.cif
#   From: 2010.05.17/outbox.cif.g08.bks.cpg/sg15_122_cif.got.tgz:243952.got - 2010.06.03 18:47:42.
