data_PCOD9298425
_publ_section_title
;
Structure prediction by ZEFSAII (Michael W. Deem and Ramdas Pophale) SiO2 
 PCOD9298425
Probable space group: C 2/C
;
_chemical_formula_sum "Si O2"
_cell_formula_units_Z 44
_cell_length_a 12.635082
_cell_length_b 22.862322
_cell_length_c 9.073629
_cell_angle_alpha 90.000000
_cell_angle_beta 128.664995
_cell_angle_gamma 90.000000
_cell_volume 2046.567349
_symmetry_space_group_name_H-M "C 2/C"
_symmetry_group_IT_number 15
_symmetry_cell_setting 'monoclinic'
loop_
_space_group_symop_operation_xyz
x,y,z
-x,y,1/2-z
-x,-y,-z
x,-y,1/2+z
1/2+x,1/2+y,z
1/2-x,1/2+y,1/2-z
1/2-x,1/2-y,-z
1/2+x,1/2-y,1/2+z
loop_
_atom_site_type_symbol
_atom_site_label
_atom_site_fract_x
_atom_site_fract_y
_atom_site_fract_z
Si Si1 0.258424 0.448458 0.443260
Si Si2 0.095940 0.172314 0.708740
Si Si3 0.653736 0.553059 0.814955
Si Si4 0.000000 0.636317 0.750000
Si Si5 0.322603 0.221880 0.420680
Si Si6 0.410478 0.639165 0.293127
O O1 0.245217 0.511584 0.506425
O O2 0.322002 0.460094 0.337486
O O3 0.355279 0.414202 0.645858
O O4 0.126723 0.406063 0.318722
O O5 0.187989 0.122018 0.859000
O O6 0.154821 0.225046 0.669165
O O7 0.000000 0.197083 0.750000
O O8 0.006237 0.133430 0.516102
O O9 0.500000 0.544022 0.750000
O O10 0.948832 0.681465 0.579550
O O11 0.250000 0.250000 0.500000
O O12 0.214972 0.176500 0.263047
O O13 0.500000 0.674104 0.250000
#
# Coordination Sequence:
#
# PCOD9298425 Si02
#       6
#     8   8   8   4   8   8
#     4  11  24  41  69  98 133 177 223 278 339 403
#     4  11  24  38  61 100 133 168 219 282 340 388
#     4  11  24  40  67 100 132 174 227 283 334 393
#     4  10  24  44  70 100 132 182 228 268 338 406
#     4  11  20  39  68  91 128 176 222 272 321 406
#     4  11  20  38  63  94 124 168 226 269 331 395
#
# _framework density 21.499414000000002
#
# number of rings (size 3 to 8) (size 9 to 14) (size 15 to 20)
#    0.000    1.091    3.636    3.273    5.091    1.455 
#    0.000    1.818    0.000    0.000    0.000    0.000 
#    0.000    0.000    0.000    0.000    0.000    0.000 
#
# Total GULP energy -122630.526949 kJ/mol
# GULP energy per Si atom -5574.114861 kJ/mol
# Density = 2.145048 g / cm^3
# Si number density = 21.499414 Si / 1000 Ang^3
#
#
#
# Elastic Constant Matrix: (Units=GPa)
#
#
# Indices 1 2 3 4 5 6 
#
# 1 94.6741 63.3937 36.7123 0.0000 -27.0792 0.0000
# 2 63.3937 149.7972 39.6018 0.0000 -5.6719 0.0000
# 3 36.7123 39.6018 38.8101 0.0000 -2.0807 0.0000
# 4 0.0000 0.0000 0.0000 35.8072 0.0000 -10.8490
# 5 -27.0792 -5.6719 -2.0807 0.0000 45.9597 0.0000
# 6 0.0000 0.0000 0.0000 -10.8490 0.0000 30.5365
#
#
#
# Elastic Compliance Matrix: (Units=1/GPa)
#
#
# Indices 1 2 3 4 5 6 
#
# 1 0.024439 -0.005373 -0.016940 0.000000 0.012969 0.000000
# 2 -0.005373 0.010346 -0.005589 0.000000 -0.002142 0.000000
# 3 -0.016940 -0.005589 0.047036 0.000000 -0.008541 0.000000
# 4 0.000000 0.000000 0.000000 0.031296 0.000000 0.011119
# 5 0.012969 -0.002142 -0.008541 0.000000 0.028748 0.000000
# 6 0.000000 0.000000 0.000000 0.011119 0.000000 0.036698
#
#
# Mechanical properties :
#
#
# Convention : Reuss Voigt Hill
#
# Bulk Modulus (GPa) = 38.43710 62.52187 50.47949
# Shear Modulus (GPa) = 20.57274 32.03226 26.30250
#
# Velocity S-wave (km/s) = 3.09673 3.86413 3.50152
# Velocity P-wave (km/s) = 5.54106 7.00375 6.31490
#
# Compressibility (1/GPa) = 0.02601653
#
# Stress axis : x y z
#
# Youngs Moduli (GPa) = 40.91895 96.65509 21.26020
#
# Poissons Ratio (x) = 0.51932 0.36014
# Poissons Ratio (y) = 0.21985 0.11883
# Poissons Ratio (z) = 0.69316 0.54025
#
# Static dielectric constant tensor:
#      x y z
#    x 1.827150 0.000000 0.043230 
#    y 0.000000 1.850760 0.000000 
#    z 0.043230 0.000000 1.874520 
# 
# From -- ./inp_files/32768.got.cif
#   From: 2010.05.17/outbox.cif.g08.bks.cpg/sg15_17_cif.got.tgz:32768.got - 2010.06.03 18:47:42.
