data_PCOD9298885
_publ_section_title
;
Structure prediction by ZEFSAII (Michael W. Deem and Ramdas Pophale) SiO2 
 PCOD9298885
Probable space group: C 2/C
;
_chemical_formula_sum "Si O2"
_cell_formula_units_Z 44
_cell_length_a 9.487093
_cell_length_b 16.525479
_cell_length_c 15.791756
_cell_angle_alpha 90.000000
_cell_angle_beta 125.995810
_cell_angle_gamma 90.000000
_cell_volume 2003.080288
_symmetry_space_group_name_H-M "C 2/C"
_symmetry_group_IT_number 15
_symmetry_cell_setting 'monoclinic'
loop_
_space_group_symop_operation_xyz
x,y,z
-x,y,1/2-z
-x,-y,-z
x,-y,1/2+z
1/2+x,1/2+y,z
1/2-x,1/2+y,1/2-z
1/2-x,1/2-y,-z
1/2+x,1/2-y,1/2+z
loop_
_atom_site_type_symbol
_atom_site_label
_atom_site_fract_x
_atom_site_fract_y
_atom_site_fract_z
Si Si1 0.000000 0.574600 0.750000
Si Si2 0.000000 0.335115 0.750000
Si Si3 0.331935 0.663749 0.943443
Si Si4 0.000000 0.065071 0.750000
Si Si5 0.399668 0.302573 0.094983
Si Si6 0.280336 0.044221 0.267556
Si Si7 0.324676 0.339276 0.631643
O O1 0.837773 0.623318 0.656723
O O2 0.928654 0.521252 0.802427
O O3 0.995224 0.270831 0.824359
O O4 0.168949 0.392212 0.790580
O O5 0.494595 0.652206 0.940262
O O6 0.287562 0.758983 0.922719
O O7 0.370394 0.635539 0.052146
O O8 0.129790 0.127583 0.844734
O O9 0.103744 0.007655 0.720748
O O10 0.250000 0.250000 0.000000
O O11 0.285692 0.095384 0.355532
O O12 0.500000 0.324832 0.750000
#
# Coordination Sequence:
#
# PCOD9298885 Si02
#       7
#     4   4   8   4   8   8   8
#     4  11  24  46  70  99 150 176 240 291 356 428
#     4  10  24  46  68  94 144 180 234 284 360 422
#     4  11  24  44  71 105 135 194 238 288 350 424
#     4  11  24  44  72 105 142 180 236 287 364 414
#     4  11  25  44  70 101 135 191 237 286 348 432
#     4  11  23  44  67 104 141 184 221 302 356 414
#     4  11  24  42  71 103 141 182 241 292 348 425
#
# _framework density 21.966170000000002
#
# number of rings (size 3 to 8) (size 9 to 14) (size 15 to 20)
#    0.000    1.091    5.455    0.000    2.545    3.636 
#    6.545    2.727    0.000    0.000    0.000    0.000 
#    0.000    0.000    0.000    0.000    0.000    0.000 
#
# Total GULP energy -122504.083636 kJ/mol
# GULP energy per Si atom -5568.367438 kJ/mol
# Density = 2.191617 g / cm^3
# Si number density = 21.966170 Si / 1000 Ang^3
#
#
#
# Elastic Constant Matrix: (Units=GPa)
#
#
# Indices 1 2 3 4 5 6 
#
# 1 114.0353 35.9796 32.0206 0.0000 -24.7642 0.0000
# 2 35.9796 110.6347 24.7466 0.0000 -12.1365 0.0000
# 3 32.0206 24.7466 100.5898 0.0000 -20.3135 0.0000
# 4 0.0000 0.0000 0.0000 32.0916 0.0000 9.3341
# 5 -24.7642 -12.1365 -20.3135 0.0000 27.7818 0.0000
# 6 0.0000 0.0000 0.0000 9.3341 0.0000 54.6883
#
#
#
# Elastic Compliance Matrix: (Units=1/GPa)
#
#
# Indices 1 2 3 4 5 6 
#
# 1 0.011803 -0.002604 -0.001433 0.000000 0.008336 0.000000
# 2 -0.002604 0.010340 -0.001492 0.000000 0.001106 0.000000
# 3 -0.001433 -0.001492 0.012172 0.000000 0.006971 0.000000
# 4 0.000000 0.000000 0.000000 0.032789 0.000000 -0.005596
# 5 0.008336 0.001106 0.006971 0.000000 0.049005 0.000000
# 6 0.000000 0.000000 0.000000 -0.005596 0.000000 0.019241
#
#
# Mechanical properties :
#
#
# Convention : Reuss Voigt Hill
#
# Bulk Modulus (GPa) = 42.99487 56.75037 49.87262
# Shear Modulus (GPa) = 32.43362 38.41321 35.42341
#
# Velocity S-wave (km/s) = 3.84673 4.18634 4.02012
# Velocity P-wave (km/s) = 6.27260 7.01845 6.65598
#
# Compressibility (1/GPa) = 0.02325859
#
# Stress axis : x y z
#
# Youngs Moduli (GPa) = 84.72124 96.70775 82.15305
#
# Poissons Ratio (x) = 0.25178 0.11776
# Poissons Ratio (y) = 0.22057 0.12256
# Poissons Ratio (z) = 0.12145 0.14427
#
# Static dielectric constant tensor:
#      x y z
#    x 1.830070 0.000000 -0.072160 
#    y 0.000000 1.856020 0.000000 
#    z -0.072160 0.000000 1.829410 
# 
# From -- ./inp_files/134339.got.cif
#   From: 2010.05.17/outbox.cif.g08.bks.cpg/sg15_68_cif.got.tgz:134339.got - 2010.06.03 18:47:42.
