data_PCOD9298865
_publ_section_title
;
Structure prediction by ZEFSAII (Michael W. Deem and Ramdas Pophale) SiO2 
 PCOD9298865
Probable space group: C 2/C
;
_chemical_formula_sum "Si O2"
_cell_formula_units_Z 56
_cell_length_a 12.445487
_cell_length_b 22.808614
_cell_length_c 9.638465
_cell_angle_alpha 90.000000
_cell_angle_beta 115.716567
_cell_angle_gamma 90.000000
_cell_volume 2465.018157
_symmetry_space_group_name_H-M "C 2/C"
_symmetry_group_IT_number 15
_symmetry_cell_setting 'monoclinic'
loop_
_space_group_symop_operation_xyz
x,y,z
-x,y,1/2-z
-x,-y,-z
x,-y,1/2+z
1/2+x,1/2+y,z
1/2-x,1/2+y,1/2-z
1/2-x,1/2-y,-z
1/2+x,1/2-y,1/2+z
loop_
_atom_site_type_symbol
_atom_site_label
_atom_site_fract_x
_atom_site_fract_y
_atom_site_fract_z
Si Si1 0.542773 0.146683 0.415191
Si Si2 0.726406 0.520188 0.589860
Si Si3 0.644262 0.640617 0.658700
Si Si4 0.887318 0.708155 0.776407
Si Si5 0.303653 0.601495 0.511805
Si Si6 0.065280 0.838062 0.653790
Si Si7 0.384914 0.041001 0.418174
O O1 0.500000 0.175327 0.250000
O O2 0.577945 0.193961 0.546931
O O3 0.661579 0.107486 0.456852
O O4 0.438292 0.103475 0.404993
O O5 0.650942 0.573622 0.607668
O O6 0.659669 0.466454 0.476863
O O7 0.815544 0.545121 0.523675
O O8 0.801849 0.489765 0.755986
O O9 0.765908 0.673484 0.683517
O O10 0.641019 0.634751 0.824173
O O11 0.537225 0.671794 0.518978
O O12 0.879064 0.777985 0.756997
O O13 0.000000 0.687237 0.750000
O O14 0.337739 0.627795 0.381755
O O15 0.000000 0.867485 0.750000
O O16 0.500000 0.000000 0.500000
#
# Coordination Sequence:
#
# PCOD9298865 Si02
#       7
#     8   8   8   8   8   8   8
#     4  11  21  36  65 103 137 175 221 278 346 402
#     4  12  23  39  66 100 144 185 220 276 337 417
#     4  11  25  46  70 101 137 183 223 284 346 404
#     4  10  24  46  68 102 134 176 228 290 350 406
#     4  11  24  43  64 100 138 181 230 275 336 413
#     4  11  28  47  71  95 132 183 239 286 339 406
#     4  12  20  36  60 101 142 179 216 274 337 407
#
# _framework density 22.717884999999999
#
# number of rings (size 3 to 8) (size 9 to 14) (size 15 to 20)
#    0.000    0.857    4.286    2.571    2.000    8.571 
#    0.000    0.000    0.000    0.000    0.000    0.000 
#    0.000    0.000    0.000    0.000    0.000    0.000 
#
# Total GULP energy -156576.686329 kJ/mol
# GULP energy per Si atom -5592.024512 kJ/mol
# Density = 2.266618 g / cm^3
# Si number density = 22.717885 Si / 1000 Ang^3
#
#
#
# Elastic Constant Matrix: (Units=GPa)
#
#
# Indices 1 2 3 4 5 6 
#
# 1 74.1193 31.7122 8.9298 0.0000 -17.9770 0.0000
# 2 31.7122 53.6354 -2.3482 0.0000 -4.6425 0.0000
# 3 8.9298 -2.3482 71.7112 0.0000 -8.2753 0.0000
# 4 0.0000 0.0000 0.0000 27.0779 0.0000 -6.0028
# 5 -17.9770 -4.6425 -8.2753 0.0000 46.6770 0.0000
# 6 0.0000 0.0000 0.0000 -6.0028 0.0000 22.3271
#
#
#
# Elastic Compliance Matrix: (Units=1/GPa)
#
#
# Indices 1 2 3 4 5 6 
#
# 1 0.020183 -0.011488 -0.002169 0.000000 0.006246 0.000000
# 2 -0.011488 0.025395 0.002086 0.000000 -0.001529 0.000000
# 3 -0.002169 0.002086 0.014508 0.000000 0.001944 0.000000
# 4 0.000000 0.000000 0.000000 0.039271 0.000000 0.010558
# 5 0.006246 -0.001529 0.001944 0.000000 0.024022 0.000000
# 6 0.000000 0.000000 0.000000 0.010558 0.000000 0.047627
#
#
# Mechanical properties :
#
#
# Convention : Reuss Voigt Hill
#
# Bulk Modulus (GPa) = 27.06737 30.67261 28.86999
# Shear Modulus (GPa) = 24.21746 29.96121 27.08933
#
# Velocity S-wave (km/s) = 3.26852 3.63552 3.45689
# Velocity P-wave (km/s) = 5.11710 5.58153 5.35436
#
# Compressibility (1/GPa) = 0.03694486
#
# Stress axis : x y z
#
# Youngs Moduli (GPa) = 49.54677 39.37714 68.92970
#
# Poissons Ratio (x) = 0.45235 0.14948
# Poissons Ratio (y) = 0.56917 -0.14376
# Poissons Ratio (z) = 0.10745 -0.08213
#
# Static dielectric constant tensor:
#      x y z
#    x 1.852170 0.000000 -0.001090 
#    y 0.000000 1.842680 0.000000 
#    z -0.001090 0.000000 1.846290 
# 
# From -- ./inp_files/34361.got.cif
#   From: 2010.05.17/outbox.cif.g08.bks.cpg/sg15_18_cif.got.tgz:34361.got - 2010.06.03 18:47:42.
