data_PCOD9298933
_publ_section_title
;
Structure prediction by ZEFSAII (Michael W. Deem and Ramdas Pophale) SiO2 
 PCOD9298933
Probable space group: C 2/C
;
_chemical_formula_sum "Si O2"
_cell_formula_units_Z 28
_cell_length_a 12.425584
_cell_length_b 19.607306
_cell_length_c 8.365057
_cell_angle_alpha 90.000000
_cell_angle_beta 142.960905
_cell_angle_gamma 90.000000
_cell_volume 1227.607793
_symmetry_space_group_name_H-M "C 2/C"
_symmetry_group_IT_number 15
_symmetry_cell_setting 'monoclinic'
loop_
_space_group_symop_operation_xyz
x,y,z
-x,y,1/2-z
-x,-y,-z
x,-y,1/2+z
1/2+x,1/2+y,z
1/2-x,1/2+y,1/2-z
1/2-x,1/2-y,-z
1/2+x,1/2-y,1/2+z
loop_
_atom_site_type_symbol
_atom_site_label
_atom_site_fract_x
_atom_site_fract_y
_atom_site_fract_z
Si Si1 0.500000 0.467289 0.750000
Si Si2 0.307692 0.698229 0.714035
Si Si3 0.376834 0.592529 0.413444
Si Si4 0.027162 0.327667 0.466599
O O1 0.383732 0.519369 0.506592
O O2 0.611582 0.421751 0.761846
O O3 0.250000 0.750000 0.500000
O O4 0.139531 0.668497 0.610546
O O5 0.446759 0.637952 0.840218
O O6 0.413397 0.748704 0.957740
O O7 0.193873 0.630195 0.232697
O O8 0.000000 0.347282 0.250000
#
# Coordination Sequence:
#
# PCOD9298933 Si02
#       4
#     4   8   8   8
#     4  10  24  46  70  92 134 204 220 278 332 408
#     4  12  25  41  70 107 140 176 227 289 359 411
#     4  11  24  46  69  97 143 176 239 276 339 412
#     4  12  25  41  69 107 140 177 224 290 360 408
#
# _framework density 22.808585999999998
#
# number of rings (size 3 to 8) (size 9 to 14) (size 15 to 20)
#    0.000    0.571    2.857    5.143    2.000    0.000 
#    0.000   15.714    0.000    0.000    0.000    0.000 
#    0.000    0.000    0.000    0.000    0.000    0.000 
#
# Total GULP energy -78304.950210 kJ/mol
# GULP energy per Si atom -5593.210729 kJ/mol
# Density = 2.275667 g / cm^3
# Si number density = 22.808586 Si / 1000 Ang^3
#
#
#
# Elastic Constant Matrix: (Units=GPa)
#
#
# Indices 1 2 3 4 5 6 
#
# 1 194.3282 46.4975 78.3601 0.0000 29.3633 0.0000
# 2 46.4975 72.1312 26.8776 0.0000 20.0820 0.0000
# 3 78.3601 26.8776 100.7572 0.0000 17.6286 0.0000
# 4 0.0000 0.0000 0.0000 22.0603 0.0000 -3.4982
# 5 29.3633 20.0820 17.6286 0.0000 51.6923 0.0000
# 6 0.0000 0.0000 0.0000 -3.4982 0.0000 41.4196
#
#
#
# Elastic Compliance Matrix: (Units=1/GPa)
#
#
# Indices 1 2 3 4 5 6 
#
# 1 0.008247 -0.002833 -0.005350 0.000000 -0.001760 0.000000
# 2 -0.002833 0.017613 -0.001680 0.000000 -0.004661 0.000000
# 3 -0.005350 -0.001680 0.014769 0.000000 -0.001345 0.000000
# 4 0.000000 0.000000 0.000000 0.045946 0.000000 0.003880
# 5 -0.001760 -0.004661 -0.001345 0.000000 0.022614 0.000000
# 6 0.000000 0.000000 0.000000 0.003880 0.000000 0.024471
#
#
# Mechanical properties :
#
#
# Convention : Reuss Voigt Hill
#
# Bulk Modulus (GPa) = 47.83885 74.52077 61.17981
# Shear Modulus (GPa) = 31.18104 37.39988 34.29046
#
# Velocity S-wave (km/s) = 3.70141 4.05375 3.88158
# Velocity P-wave (km/s) = 6.26792 7.39281 6.85348
#
# Compressibility (1/GPa) = 0.02090351
#
# Stress axis : x y z
#
# Youngs Moduli (GPa) = 121.25559 56.77561 67.70802
#
# Poissons Ratio (x) = 0.16083 0.36226
# Poissons Ratio (y) = 0.34348 0.11375
# Poissons Ratio (z) = 0.64876 0.09538
#
# Static dielectric constant tensor:
#      x y z
#    x 1.957490 0.000000 -0.082500 
#    y 0.000000 1.812570 0.000000 
#    z -0.082500 0.000000 1.904870 
# 
# From -- ./inp_files/29990.got.cif
#   From: 2010.05.17/outbox.cif.g08.bks.cpg/sg15_15_cif.got.tgz:29990.got - 2010.06.03 18:47:42.
