data_PCOD9298129
_publ_section_title
;
Structure prediction by ZEFSAII (Michael W. Deem and Ramdas Pophale) SiO2 
 PCOD9298129
Probable space group: C 2/C
;
_chemical_formula_sum "Si O2"
_cell_formula_units_Z 40
_cell_length_a 6.918684
_cell_length_b 22.217575
_cell_length_c 9.950146
_cell_angle_alpha 90.000000
_cell_angle_beta 79.022081
_cell_angle_gamma 90.000000
_cell_volume 1501.511560
_symmetry_space_group_name_H-M "C 2/C"
_symmetry_group_IT_number 15
_symmetry_cell_setting 'monoclinic'
loop_
_space_group_symop_operation_xyz
x,y,z
-x,y,1/2-z
-x,-y,-z
x,-y,1/2+z
1/2+x,1/2+y,z
1/2-x,1/2+y,1/2-z
1/2-x,1/2-y,-z
1/2+x,1/2-y,1/2+z
loop_
_atom_site_type_symbol
_atom_site_label
_atom_site_fract_x
_atom_site_fract_y
_atom_site_fract_z
Si Si1 0.017760 0.761518 0.521757
Si Si2 0.844866 0.119613 0.165076
Si Si3 0.729817 0.468150 0.057396
Si Si4 0.500000 0.200882 0.250000
Si Si5 0.000000 0.328405 0.250000
Si Si6 0.262372 0.563005 0.647188
O O1 0.250000 0.750000 0.500000
O O2 0.953066 0.741237 0.383872
O O3 0.929453 0.715165 0.641970
O O4 0.962950 0.829256 0.567271
O O5 0.680575 0.157610 0.263790
O O6 0.000000 0.090437 0.250000
O O7 0.735354 0.077334 0.072306
O O8 0.807881 0.462003 0.197992
O O9 0.495932 0.452326 0.108543
O O10 0.795773 0.531251 0.984571
O O11 0.823876 0.370127 0.329530
#
# Coordination Sequence:
#
# PCOD9298129 Si02
#       6
#     8   8   8   4   4   8
#     4  12  24  46  69 105 145 190 238 293 365 434
#     4  12  25  43  70 103 141 187 235 297 357 431
#     4  10  24  44  66  97 134 185 235 287 360 415
#     4  12  26  41  70 100 142 187 236 290 358 438
#     4  12  24  43  70 106 144 179 238 296 356 426
#     4  10  24  43  69  98 136 182 235 297 349 425
#
# _framework density 26.639818999999999
#
# number of rings (size 3 to 8) (size 9 to 14) (size 15 to 20)
#    0.000    0.800    3.000    3.000    5.600    4.800 
#    0.000    0.000    0.000    0.000    0.000    0.000 
#    0.000    0.000    0.000    0.000    0.000    0.000 
#
# Total GULP energy -111975.817218 kJ/mol
# GULP energy per Si atom -5598.790861 kJ/mol
# Density = 2.657919 g / cm^3
# Si number density = 26.639819 Si / 1000 Ang^3
#
#
#
# Elastic Constant Matrix: (Units=GPa)
#
#
# Indices 1 2 3 4 5 6 
#
# 1 105.8619 13.6135 20.7724 0.0000 0.3660 0.0000
# 2 13.6135 111.3638 71.4843 0.0000 -0.0545 0.0000
# 3 20.7724 71.4843 185.8502 0.0000 25.4875 0.0000
# 4 0.0000 0.0000 0.0000 58.0765 0.0000 -15.2702
# 5 0.3660 -0.0545 25.4875 0.0000 48.7864 0.0000
# 6 0.0000 0.0000 0.0000 -15.2702 0.0000 51.1362
#
#
#
# Elastic Compliance Matrix: (Units=1/GPa)
#
#
# Indices 1 2 3 4 5 6 
#
# 1 0.009700 -0.000603 -0.000907 0.000000 0.000400 0.000000
# 2 -0.000603 0.012274 -0.005015 0.000000 0.002638 0.000000
# 3 -0.000907 -0.005015 0.007983 0.000000 -0.004169 0.000000
# 4 0.000000 0.000000 0.000000 0.018686 0.000000 0.005580
# 5 0.000400 0.002638 -0.004169 0.000000 0.022676 0.000000
# 6 0.000000 0.000000 0.000000 0.005580 0.000000 0.021222
#
#
# Mechanical properties :
#
#
# Convention : Reuss Voigt Hill
#
# Bulk Modulus (GPa) = 59.15153 68.31292 63.73223
# Shear Modulus (GPa) = 44.95288 51.41355 48.18321
#
# Velocity S-wave (km/s) = 4.11229 4.39789 4.25749
# Velocity P-wave (km/s) = 6.69330 7.17547 6.93858
#
# Compressibility (1/GPa) = 0.01690573
#
# Stress axis : x y z
#
# Youngs Moduli (GPa) = 103.08792 81.47307 125.26743
#
# Poissons Ratio (x) = 0.04916 0.11362
# Poissons Ratio (y) = 0.06220 0.62826
# Poissons Ratio (z) = 0.09350 0.40862
#
# Static dielectric constant tensor:
#      x y z
#    x 2.211860 0.000000 -0.027730 
#    y 0.000000 2.055740 0.000000 
#    z -0.027730 0.000000 2.017820 
# 
# From -- ./inp_files/23512.got.cif
#   From: 2010.05.17/outbox.cif.g08.bks.cpg/sg15_12_cif.got.tgz:23512.got - 2010.06.03 18:47:42.
