data_PCOD9298043
_publ_section_title
;
Structure prediction by ZEFSAII (Michael W. Deem and Ramdas Pophale) SiO2 
 PCOD9298043
Probable space group: C 2/C
;
_chemical_formula_sum "Si O2"
_cell_formula_units_Z 52
_cell_length_a 18.505301
_cell_length_b 16.776340
_cell_length_c 9.259101
_cell_angle_alpha 90.000000
_cell_angle_beta 55.536726
_cell_angle_gamma 90.000000
_cell_volume 2369.993212
_symmetry_space_group_name_H-M "C 2/C"
_symmetry_group_IT_number 15
_symmetry_cell_setting 'monoclinic'
loop_
_space_group_symop_operation_xyz
x,y,z
-x,y,1/2-z
-x,-y,-z
x,-y,1/2+z
1/2+x,1/2+y,z
1/2-x,1/2+y,1/2-z
1/2-x,1/2-y,-z
1/2+x,1/2-y,1/2+z
loop_
_atom_site_type_symbol
_atom_site_label
_atom_site_fract_x
_atom_site_fract_y
_atom_site_fract_z
Si Si1 0.332245 0.834043 0.783774
Si Si2 0.000000 0.707324 0.750000
Si Si3 0.210159 0.944566 0.741731
Si Si4 0.404596 0.469371 0.909909
Si Si5 0.204471 0.618927 0.868698
Si Si6 0.861958 0.191032 0.556666
Si Si7 0.993986 0.406172 0.982324
O O1 0.274469 0.874032 0.720180
O O2 0.365676 0.748977 0.690223
O O3 0.420347 0.885296 0.706288
O O4 0.280818 0.840410 0.992121
O O5 0.997022 0.647694 0.886366
O O6 0.086707 0.762589 0.629367
O O7 0.154429 0.937908 0.657704
O O8 0.264235 0.027087 0.664046
O O9 0.144509 0.961589 0.948738
O O10 0.500000 0.492943 0.750000
O O11 0.411550 0.393504 0.009677
O O12 0.259844 0.663786 0.680639
O O13 0.101853 0.617861 0.959934
O O14 0.000000 0.500000 0.000000
#
# Coordination Sequence:
#
# PCOD9298043 Si02
#       7
#     8   4   8   8   8   8   8
#     4  11  23  42  63  98 137 171 230 270 338 400
#     4  10  24  44  64  96 132 176 230 274 340 404
#     4  11  23  39  71  97 127 181 218 280 332 394
#     4  11  23  44  68  96 133 168 229 275 337 391
#     4  11  23  42  66  97 135 180 223 274 338 398
#     4  10  24  43  66  90 135 175 216 282 326 411
#     4  11  24  37  68  99 135 177 218 281 335 399
#
# _framework density 21.940991
#
# number of rings (size 3 to 8) (size 9 to 14) (size 15 to 20)
#    0.000    1.231    3.846    1.385    2.154    7.385 
#    0.000    0.000    0.000    0.000    0.000    0.000 
#    0.000    0.000    0.000    0.000    0.000    0.000 
#
# Total GULP energy -145006.780608 kJ/mol
# GULP energy per Si atom -5577.183870 kJ/mol
# Density = 2.189105 g / cm^3
# Si number density = 21.940991 Si / 1000 Ang^3
#
#
#
# Elastic Constant Matrix: (Units=GPa)
#
#
# Indices 1 2 3 4 5 6 
#
# 1 78.6312 13.7719 34.8152 0.0000 -8.1140 0.0000
# 2 13.7719 67.2865 19.7524 0.0000 -10.2129 0.0000
# 3 34.8152 19.7524 138.3497 0.0000 -21.7950 0.0000
# 4 0.0000 0.0000 0.0000 24.6768 0.0000 -7.0397
# 5 -8.1140 -10.2129 -21.7950 0.0000 23.8935 0.0000
# 6 0.0000 0.0000 0.0000 -7.0397 0.0000 17.0219
#
#
#
# Elastic Compliance Matrix: (Units=1/GPa)
#
#
# Indices 1 2 3 4 5 6 
#
# 1 0.014592 -0.001857 -0.003213 0.000000 0.001231 0.000000
# 2 -0.001857 0.016365 -0.001012 0.000000 0.005441 0.000000
# 3 -0.003213 -0.001012 0.009274 0.000000 0.006935 0.000000
# 4 0.000000 0.000000 0.000000 0.045944 0.000000 0.019001
# 5 0.001231 0.005441 0.006935 0.000000 0.050922 0.000000
# 6 0.000000 0.000000 0.000000 0.019001 0.000000 0.066606
#
#
# Mechanical properties :
#
#
# Convention : Reuss Voigt Hill
#
# Bulk Modulus (GPa) = 35.62861 46.77182 41.20022
# Shear Modulus (GPa) = 22.20015 27.51363 24.85689
#
# Velocity S-wave (km/s) = 3.18435 3.54500 3.36951
# Velocity P-wave (km/s) = 5.45836 6.17409 5.82723
#
# Compressibility (1/GPa) = 0.02806733
#
# Stress axis : x y z
#
# Youngs Moduli (GPa) = 68.52846 61.10676 107.83173
#
# Poissons Ratio (x) = 0.11345 0.34648
# Poissons Ratio (y) = 0.12723 0.10913
# Poissons Ratio (z) = 0.22019 0.06184
#
# Static dielectric constant tensor:
#      x y z
#    x 1.776560 0.000000 -0.162830 
#    y 0.000000 1.791850 0.000000 
#    z -0.162830 0.000000 1.095440 
# 
# From -- ./inp_files/48961.got.cif
#   From: 2010.05.17/outbox.cif.g08.bks.cpg/sg15_25_cif.got.tgz:48961.got - 2010.06.03 18:47:42.
