data_PCOD9298062
_publ_section_title
;
Structure prediction by ZEFSAII (Michael W. Deem and Ramdas Pophale) SiO2 
 PCOD9298062
Probable space group: C 2/C
;
_chemical_formula_sum "Si O2"
_cell_formula_units_Z 40
_cell_length_a 13.409501
_cell_length_b 15.377657
_cell_length_c 20.912720
_cell_angle_alpha 90.000000
_cell_angle_beta 154.744178
_cell_angle_gamma 90.000000
_cell_volume 1839.907086
_symmetry_space_group_name_H-M "C 2/C"
_symmetry_group_IT_number 15
_symmetry_cell_setting 'monoclinic'
loop_
_space_group_symop_operation_xyz
x,y,z
-x,y,1/2-z
-x,-y,-z
x,-y,1/2+z
1/2+x,1/2+y,z
1/2-x,1/2+y,1/2-z
1/2-x,1/2-y,-z
1/2+x,1/2-y,1/2+z
loop_
_atom_site_type_symbol
_atom_site_label
_atom_site_fract_x
_atom_site_fract_y
_atom_site_fract_z
Si Si1 0.000000 0.899617 0.750000
Si Si2 0.217646 0.345898 0.703343
Si Si3 0.207296 0.534293 0.497029
Si Si4 0.500000 0.940205 0.250000
Si Si5 0.511384 0.601868 0.490766
Si Si6 0.566837 0.688796 0.929786
O O1 0.833043 0.847169 0.701070
O O2 0.822224 0.959617 0.605890
O O3 0.987945 0.407835 0.578827
O O4 0.156720 0.249465 0.692693
O O5 0.404800 0.384477 0.860339
O O6 0.088549 0.497661 0.362413
O O7 0.420325 0.598891 0.600949
O O8 0.713666 0.881551 0.350590
O O9 0.500000 0.500000 0.500000
O O10 0.377121 0.659315 0.465223
O O11 0.750000 0.750000 0.000000
#
# Coordination Sequence:
#
# PCOD9298062 Si02
#       6
#     4   8   8   4   8   8
#     4  12  24  43  67 104 140 182 232 292 356 413
#     4  11  24  43  68 101 147 181 231 296 358 417
#     4  11  22  42  71 103 132 185 238 290 343 424
#     4  12  22  41  77 102 132 178 254 284 332 419
#     4  12  22  44  73 102 137 190 243 283 344 436
#     4  10  24  43  67 101 138 179 225 293 353 414
#
# _framework density 21.740227000000001
#
# number of rings (size 3 to 8) (size 9 to 14) (size 15 to 20)
#    0.000    0.800    6.000    0.600    0.000    6.400 
#    3.600    3.000    0.000    0.000    0.000    0.000 
#    0.000    0.000    0.000    0.000    0.000    0.000 
#
# Total GULP energy -111646.178434 kJ/mol
# GULP energy per Si atom -5582.308922 kJ/mol
# Density = 2.169075 g / cm^3
# Si number density = 21.740227 Si / 1000 Ang^3
#
#
#
# Elastic Constant Matrix: (Units=GPa)
#
#
# Indices 1 2 3 4 5 6 
#
# 1 165.0245 48.4762 32.2581 0.0000 10.6356 0.0000
# 2 48.4762 73.7074 33.8888 0.0040 -0.6581 0.0015
# 3 32.2581 33.8888 77.9005 0.0104 4.7475 0.0037
# 4 0.0000 0.0040 0.0104 24.8775 0.0041 0.5599
# 5 10.6356 -0.6581 4.7475 0.0041 30.3638 0.0003
# 6 0.0000 0.0015 0.0037 0.5599 0.0003 44.4079
#
#
#
# Elastic Compliance Matrix: (Units=1/GPa)
#
#
# Indices 1 2 3 4 5 6 
#
# 1 0.007811 -0.004686 -0.001033 0.000002 -0.002676 0.000000
# 2 -0.004686 0.019842 -0.006883 -0.000001 0.003148 0.000000
# 3 -0.001033 -0.006883 0.016402 -0.000005 -0.002352 -0.000001
# 4 0.000002 -0.000001 -0.000005 0.040208 -0.000005 -0.000507
# 5 -0.002676 0.003148 -0.002352 -0.000005 0.034307 0.000000
# 6 0.000000 0.000000 -0.000001 -0.000507 0.000000 0.022525
#
#
# Mechanical properties :
#
#
# Convention : Reuss Voigt Hill
#
# Bulk Modulus (GPa) = 53.04754 60.65317 56.85035
# Shear Modulus (GPa) = 28.97169 33.39712 31.18440
#
# Velocity S-wave (km/s) = 3.65448 3.92368 3.79147
# Velocity P-wave (km/s) = 6.50081 6.96323 6.73599
#
# Compressibility (1/GPa) = 0.01885102
#
# Stress axis : x y z
#
# Youngs Moduli (GPa) = 128.03228 50.39862 60.96745
#
# Poissons Ratio (x) = 0.23616 0.06296
# Poissons Ratio (y) = 0.59995 0.41965
# Poissons Ratio (z) = 0.13222 0.34690
#
# Static dielectric constant tensor:
#      x y z
#    x 1.951960 0.000010 0.076280 
#    y 0.000010 1.829690 0.000000 
#    z 0.076280 0.000000 1.771600 
# 
# From -- ./inp_files/67087.got.cif
#   From: 2010.05.17/outbox.cif.g08.bks.cpg/sg15_34_cif.got.tgz:67087.got - 2010.06.03 18:47:42.
