data_PCOD9298657
_publ_section_title
;
Structure prediction by ZEFSAII (Michael W. Deem and Ramdas Pophale) SiO2 
 PCOD9298657
Probable space group: C 2/C
;
_chemical_formula_sum "Si O2"
_cell_formula_units_Z 40
_cell_length_a 10.115101
_cell_length_b 25.506296
_cell_length_c 10.146487
_cell_angle_alpha 90.000000
_cell_angle_beta 37.342872
_cell_angle_gamma 90.000000
_cell_volume 1587.902669
_symmetry_space_group_name_H-M "C 2/C"
_symmetry_group_IT_number 15
_symmetry_cell_setting 'monoclinic'
loop_
_space_group_symop_operation_xyz
x,y,z
-x,y,1/2-z
-x,-y,-z
x,-y,1/2+z
1/2+x,1/2+y,z
1/2-x,1/2+y,1/2-z
1/2-x,1/2-y,-z
1/2+x,1/2-y,1/2+z
loop_
_atom_site_type_symbol
_atom_site_label
_atom_site_fract_x
_atom_site_fract_y
_atom_site_fract_z
Si Si1 0.887277 0.631223 0.632880
Si Si2 0.018692 0.920286 0.580882
Si Si3 0.315352 0.734962 0.822836
Si Si4 0.808027 0.811146 0.813513
Si Si5 0.590066 0.039167 0.319634
O O1 0.745271 0.675364 0.670816
O O2 0.088711 0.661593 0.543140
O O3 0.992006 0.595733 0.435314
O O4 0.753816 0.590699 0.830996
O O5 0.929190 0.860840 0.654257
O O6 0.850347 0.953885 0.627375
O O7 0.000000 0.937662 0.750000
O O8 0.594307 0.739636 0.585667
O O9 0.269155 0.770067 0.730281
O O10 0.000000 0.787138 0.750000
O O11 0.500000 0.023191 0.250000
O O12 0.500000 0.000000 0.500000
#
# Coordination Sequence:
#
# PCOD9298657 Si02
#       5
#     8   8   8   8   8
#     4  11  26  47  79 107 161 204 262 330 395 474
#     4  10  25  49  76 110 152 205 263 315 399 475
#     4  12  24  42  71 107 156 210 266 315 385 473
#     4  10  24  45  68 109 155 207 264 312 387 457
#     4  11  29  52  81 116 154 197 267 329 408 480
#
# _framework density 25.190460000000002
#
# number of rings (size 3 to 8) (size 9 to 14) (size 15 to 20)
#    0.000    1.200    2.000    1.200   11.200    8.000 
#    7.200    0.000    0.000    0.000    0.000    0.000 
#    0.000    0.000    0.000    0.000    0.000    0.000 
#
# Total GULP energy -111811.832763 kJ/mol
# GULP energy per Si atom -5590.591638 kJ/mol
# Density = 2.513313 g / cm^3
# Si number density = 25.190460 Si / 1000 Ang^3
#
#
#
# Elastic Constant Matrix: (Units=GPa)
#
#
# Indices 1 2 3 4 5 6 
#
# 1 235.7029 50.8862 84.1810 0.0000 -22.2298 0.0000
# 2 50.8862 57.8039 33.6135 0.0000 -5.4242 0.0000
# 3 84.1810 33.6135 179.3105 0.0000 -12.9466 0.0000
# 4 0.0000 0.0000 0.0000 51.2522 0.0000 -2.0424
# 5 -22.2298 -5.4242 -12.9466 0.0000 51.6410 0.0000
# 6 0.0000 0.0000 0.0000 -2.0424 0.0000 25.3643
#
#
#
# Elastic Compliance Matrix: (Units=1/GPa)
#
#
# Indices 1 2 3 4 5 6 
#
# 1 0.005941 -0.003953 -0.001928 0.000000 0.001659 0.000000
# 2 -0.003953 0.022114 -0.002286 0.000000 0.000048 0.000000
# 3 -0.001928 -0.002286 0.006960 0.000000 0.000675 0.000000
# 4 0.000000 0.000000 0.000000 0.019574 0.000000 0.001576
# 5 0.001659 0.000048 0.000675 0.000000 0.020253 0.000000
# 6 0.000000 0.000000 0.000000 0.001576 0.000000 0.039552
#
#
# Mechanical properties :
#
#
# Convention : Reuss Voigt Hill
#
# Bulk Modulus (GPa) = 53.53543 90.01986 71.77764
# Shear Modulus (GPa) = 36.50817 45.92728 41.21772
#
# Velocity S-wave (km/s) = 3.81108 4.27453 4.04944
# Velocity P-wave (km/s) = 6.37685 7.75728 7.10069
#
# Compressibility (1/GPa) = 0.01867922
#
# Stress axis : x y z
#
# Youngs Moduli (GPa) = 168.31413 45.22057 143.68841
#
# Poissons Ratio (x) = 0.17877 0.27709
# Poissons Ratio (y) = 0.66538 0.32848
# Poissons Ratio (z) = 0.32458 0.10338
#
# Static dielectric constant tensor:
#      x y z
#    x 1.985140 0.000000 -0.037950 
#    y 0.000000 1.915130 0.000000 
#    z -0.037950 0.000000 2.101950 
# 
# From -- ./inp_files/92510.got.cif
#   From: 2010.05.17/outbox.cif.g08.bks.cpg/sg15_47_cif.got.tgz:92510.got - 2010.06.03 18:47:42.
