data_PCOD9298104
_publ_section_title
;
Structure prediction by ZEFSAII (Michael W. Deem and Ramdas Pophale) SiO2 
 PCOD9298104
Probable space group: C 2/C
;
_chemical_formula_sum "Si O2"
_cell_formula_units_Z 40
_cell_length_a 11.834290
_cell_length_b 21.151066
_cell_length_c 12.080362
_cell_angle_alpha 90.000000
_cell_angle_beta 144.314641
_cell_angle_gamma 90.000000
_cell_volume 1763.889873
_symmetry_space_group_name_H-M "C 2/C"
_symmetry_group_IT_number 15
_symmetry_cell_setting 'monoclinic'
loop_
_space_group_symop_operation_xyz
x,y,z
-x,y,1/2-z
-x,-y,-z
x,-y,1/2+z
1/2+x,1/2+y,z
1/2-x,1/2+y,1/2-z
1/2-x,1/2-y,-z
1/2+x,1/2-y,1/2+z
loop_
_atom_site_type_symbol
_atom_site_label
_atom_site_fract_x
_atom_site_fract_y
_atom_site_fract_z
Si Si1 0.382732 0.824343 0.834639
Si Si2 0.755459 0.690144 0.732163
Si Si3 0.614153 0.347728 0.443619
Si Si4 0.173212 0.544597 0.093474
Si Si5 0.000000 0.613889 0.750000
Si Si6 0.500000 0.469005 0.250000
O O1 0.283546 0.764310 0.815562
O O2 0.306572 0.820106 0.648882
O O3 0.315106 0.892918 0.822545
O O4 0.605631 0.819546 0.049780
O O5 0.550896 0.657334 0.593601
O O6 0.862902 0.657578 0.716018
O O7 0.500000 0.315898 0.250000
O O8 0.641518 0.419665 0.425421
O O9 0.374271 0.508169 0.236755
O O10 0.000000 0.500000 0.000000
O O11 0.117299 0.570202 0.927598
#
# Coordination Sequence:
#
# PCOD9298104 Si02
#       6
#     8   8   8   8   4   4
#     4  11  24  43  73  97 142 178 226 297 342 418
#     4  11  23  47  66 106 132 176 232 283 363 405
#     4  10  25  45  67 100 136 183 230 286 338 419
#     4  11  26  45  69 105 140 185 231 286 348 417
#     4  10  26  43  72  97 146 172 224 308 334 416
#     4  10  24  43  68  97 128 196 226 274 348 412
#
# _framework density 22.677153000000001
#
# number of rings (size 3 to 8) (size 9 to 14) (size 15 to 20)
#    0.600    0.800    2.000    2.400    5.600    6.400 
#    0.000    0.000    0.000    0.000    0.000    0.000 
#    0.000    0.000    0.000    0.000    0.000    0.000 
#
# Total GULP energy -111704.613782 kJ/mol
# GULP energy per Si atom -5585.230689 kJ/mol
# Density = 2.262554 g / cm^3
# Si number density = 22.677153 Si / 1000 Ang^3
#
#
#
# Elastic Constant Matrix: (Units=GPa)
#
#
# Indices 1 2 3 4 5 6 
#
# 1 95.2110 26.0060 28.6129 0.0000 17.4042 0.0000
# 2 26.0060 131.5584 20.3166 0.0000 6.2638 0.0000
# 3 28.6129 20.3166 126.9174 0.0000 -2.2139 0.0000
# 4 0.0000 0.0000 0.0000 27.6609 0.0000 12.3458
# 5 17.4042 6.2638 -2.2139 0.0000 33.9624 0.0000
# 6 0.0000 0.0000 0.0000 12.3458 0.0000 4.8357
#
#
#
# Elastic Compliance Matrix: (Units=1/GPa)
#
#
# Indices 1 2 3 4 5 6 
#
# 1 0.013024 -0.001839 -0.002756 0.000000 -0.006515 0.000000
# 2 -0.001839 0.008133 -0.000898 0.000000 -0.000616 0.000000
# 3 -0.002756 -0.000898 0.008682 0.000000 0.002144 0.000000
# 4 0.000000 0.000000 0.000000 -0.259176 0.000000 0.661688
# 5 -0.006515 -0.000616 0.002144 0.000000 0.033036 0.000000
# 6 0.000000 0.000000 0.000000 0.661688 0.000000 -1.482521
#
#
# Mechanical properties :
#
#
# Convention : Reuss Voigt Hill
#
# Bulk Modulus (GPa) = 53.04033 55.95087 54.49560
# Shear Modulus (GPa) = -3.00923 31.87524 14.43300
#
# Velocity S-wave (km/s) = -1.15320 3.75321 2.52554
# Velocity P-wave (km/s) = 4.65478 6.59610 5.70857
#
# Compressibility (1/GPa) = 0.01885358
#
# Stress axis : x y z
#
# Youngs Moduli (GPa) = 76.77992 122.96027 115.18734
#
# Poissons Ratio (x) = 0.22611 0.31740
# Poissons Ratio (y) = 0.14119 0.10344
# Poissons Ratio (z) = 0.21157 0.11042
#
# Static dielectric constant tensor:
#      x y z
#    x 1.830540 0.000000 -0.023210 
#    y 0.000000 1.813230 0.000000 
#    z -0.023210 0.000000 1.879790 
# 
# From -- ./inp_files/89916.got.cif
#   From: 2010.05.17/outbox.cif.g08.bks.cpg/sg15_45_cif.got.tgz:89916.got - 2010.06.03 18:47:42.
