data_PCOD9298281
_publ_section_title
;
Structure prediction by ZEFSAII (Michael W. Deem and Ramdas Pophale) SiO2 
 PCOD9298281
Probable space group: C 2/C
;
_chemical_formula_sum "Si O2"
_cell_formula_units_Z 48
_cell_length_a 16.967436
_cell_length_b 10.626708
_cell_length_c 11.904673
_cell_angle_alpha 90.000000
_cell_angle_beta 79.187750
_cell_angle_gamma 90.000000
_cell_volume 2108.401040
_symmetry_space_group_name_H-M "C 2/C"
_symmetry_group_IT_number 15
_symmetry_cell_setting 'monoclinic'
loop_
_space_group_symop_operation_xyz
x,y,z
-x,y,1/2-z
-x,-y,-z
x,-y,1/2+z
1/2+x,1/2+y,z
1/2-x,1/2+y,1/2-z
1/2-x,1/2-y,-z
1/2+x,1/2-y,1/2+z
loop_
_atom_site_type_symbol
_atom_site_label
_atom_site_fract_x
_atom_site_fract_y
_atom_site_fract_z
Si Si1 0.678526 0.542534 0.445425
Si Si2 0.858888 0.371523 0.867546
Si Si3 0.623062 0.870784 0.244846
Si Si4 0.199754 0.170361 0.775631
Si Si5 0.453096 0.241242 0.530809
Si Si6 0.133155 0.214374 0.015699
O O1 0.768728 0.594032 0.433710
O O2 0.675413 0.467527 0.326573
O O3 0.610532 0.646209 0.464551
O O4 0.659453 0.428646 0.536181
O O5 0.883059 0.481621 0.775816
O O6 0.850791 0.239222 0.805025
O O7 0.922849 0.360903 0.949331
O O8 0.707680 0.838791 0.282586
O O9 0.555489 0.815762 0.342530
O O10 0.632233 0.805628 0.121115
O O11 0.189718 0.249955 0.895012
O O12 0.543211 0.286927 0.490373
#
# Coordination Sequence:
#
# PCOD9298281 Si02
#       6
#     8   8   8   8   8   8
#     4   9  22  42  70  94 128 173 223 272 324 396
#     4  11  24  42  70  97 133 175 224 279 317 410
#     4  11  24  42  67  93 134 177 222 266 330 407
#     4   9  22  43  66  94 127 173 221 264 333 388
#     4  12  24  42  67 101 134 171 225 276 342 384
#     4  10  24  44  65  97 134 176 216 280 335 392
#
# _framework density 22.766065999999999
#
# number of rings (size 3 to 8) (size 9 to 14) (size 15 to 20)
#    1.000    0.667    1.667    2.000    2.333    2.667 
#    3.000    1.667    0.000    0.000    0.000    0.000 
#    0.000    0.000    0.000    0.000    0.000    0.000 
#
# Total GULP energy -134072.715229 kJ/mol
# GULP energy per Si atom -5586.363135 kJ/mol
# Density = 2.271425 g / cm^3
# Si number density = 22.766066 Si / 1000 Ang^3
#
#
#
# Elastic Constant Matrix: (Units=GPa)
#
#
# Indices 1 2 3 4 5 6 
#
# 1 38.8095 3.4954 10.7662 0.0000 -19.8362 0.0000
# 2 3.4954 56.3199 12.1385 0.0000 -0.8684 0.0000
# 3 10.7662 12.1385 69.0270 0.0000 13.2234 0.0000
# 4 0.0000 0.0000 0.0000 30.8309 0.0000 -0.9565
# 5 -19.8362 -0.8684 13.2234 0.0000 26.7161 0.0000
# 6 0.0000 0.0000 0.0000 -0.9565 0.0000 15.4320
#
#
#
# Elastic Compliance Matrix: (Units=1/GPa)
#
#
# Indices 1 2 3 4 5 6 
#
# 1 0.057907 0.001389 -0.019357 0.000000 0.052621 0.000000
# 2 0.001389 0.018633 -0.004206 0.000000 0.003719 0.000000
# 3 -0.019357 -0.004206 0.023228 0.000000 -0.026005 0.000000
# 4 0.000000 0.000000 0.000000 0.032497 0.000000 0.002014
# 5 0.052621 0.003719 -0.026005 0.000000 0.089493 0.000000
# 6 0.000000 0.000000 0.000000 0.002014 0.000000 0.064925
#
#
# Mechanical properties :
#
#
# Convention : Reuss Voigt Hill
#
# Bulk Modulus (GPa) = 18.04352 24.10629 21.07491
# Shear Modulus (GPa) = 14.30600 23.77955 19.04278
#
# Velocity S-wave (km/s) = 2.50949 3.23541 2.89529
# Velocity P-wave (km/s) = 4.04222 4.95669 4.52263
#
# Compressibility (1/GPa) = 0.05542157
#
# Stress axis : x y z
#
# Youngs Moduli (GPa) = 17.26913 53.66731 43.05220
#
# Poissons Ratio (x) = -0.07457 0.83334
# Poissons Ratio (y) = -0.02399 0.18107
# Poissons Ratio (z) = 0.33427 0.22572
#
# Static dielectric constant tensor:
#      x y z
#    x 1.807090 0.000000 0.011380 
#    y 0.000000 1.831150 0.000000 
#    z 0.011380 0.000000 1.873730 
# 
# From -- ./inp_files/103726.got.cif
#   From: 2010.05.17/outbox.cif.g08.bks.cpg/sg15_52_cif.got.tgz:103726.got - 2010.06.03 18:47:42.
