data_PCOD9298921
_publ_section_title
;
Structure prediction by ZEFSAII (Michael W. Deem and Ramdas Pophale) SiO2 
 PCOD9298921
Probable space group: C 2/C
;
_chemical_formula_sum "Si O2"
_cell_formula_units_Z 36
_cell_length_a 22.483393
_cell_length_b 7.136372
_cell_length_c 13.811736
_cell_angle_alpha 90.000000
_cell_angle_beta 140.630600
_cell_angle_gamma 90.000000
_cell_volume 1405.705844
_symmetry_space_group_name_H-M "C 2/C"
_symmetry_group_IT_number 15
_symmetry_cell_setting 'monoclinic'
loop_
_space_group_symop_operation_xyz
x,y,z
-x,y,1/2-z
-x,-y,-z
x,-y,1/2+z
1/2+x,1/2+y,z
1/2-x,1/2+y,1/2-z
1/2-x,1/2-y,-z
1/2+x,1/2-y,1/2+z
loop_
_atom_site_type_symbol
_atom_site_label
_atom_site_fract_x
_atom_site_fract_y
_atom_site_fract_z
Si Si1 0.670510 0.737490 0.171394
Si Si2 0.013757 0.388734 0.655968
Si Si3 0.705484 0.410242 0.010601
Si Si4 0.500000 0.255617 0.750000
Si Si5 0.812618 0.154018 0.693170
O O1 0.766321 0.368602 0.181422
O O2 0.729254 0.744589 0.145525
O O3 0.659879 0.534760 0.209830
O O4 0.000000 0.314624 0.750000
O O5 0.019616 0.611759 0.685251
O O6 0.101982 0.294444 0.716701
O O7 0.926217 0.332680 0.480427
O O8 0.594650 0.370464 0.888879
O O9 0.713967 0.577398 0.945637
O O10 0.750000 0.250000 0.000000
#
# Coordination Sequence:
#
# PCOD9298921 Si02
#       5
#     8   8   8   4   8
#     4  11  25  47  73 108 140 195 238 287 363 423
#     4  10  25  46  73 109 145 186 236 298 358 422
#     4  10  24  47  72 101 145 188 235 293 351 425
#     4  10  24  46  70 104 140 184 232 292 358 414
#     4  11  26  46  75 104 146 187 241 295 350 428
#
# _framework density 25.609909999999999
#
# number of rings (size 3 to 8) (size 9 to 14) (size 15 to 20)
#    0.667    0.889    0.000    3.333    4.667    8.000 
#    0.000    6.667    0.000    0.000    0.000    0.000 
#    0.000    0.000    0.000    0.000    0.000    0.000 
#
# Total GULP energy -100767.987898 kJ/mol
# GULP energy per Si atom -5598.221550 kJ/mol
# Density = 2.555162 g / cm^3
# Si number density = 25.609910 Si / 1000 Ang^3
#
#
#
# Elastic Constant Matrix: (Units=GPa)
#
#
# Indices 1 2 3 4 5 6 
#
# 1 174.3277 38.7943 63.3553 0.0000 -13.8961 0.0000
# 2 38.7943 129.1228 29.2764 0.0000 11.5609 0.0000
# 3 63.3553 29.2764 161.5057 0.0000 12.3515 0.0000
# 4 0.0000 0.0000 0.0000 17.0939 0.0000 31.1874
# 5 -13.8961 11.5609 12.3515 0.0000 48.2892 0.0000
# 6 0.0000 0.0000 0.0000 31.1874 0.0000 41.0227
#
#
#
# Elastic Compliance Matrix: (Units=1/GPa)
#
#
# Indices 1 2 3 4 5 6 
#
# 1 0.007453 -0.001894 -0.002834 0.000000 0.003323 0.000000
# 2 -0.001894 0.008679 -0.000642 0.000000 -0.002459 0.000000
# 3 -0.002834 -0.000642 0.007620 0.000000 -0.002611 0.000000
# 4 0.000000 0.000000 0.000000 -0.151145 0.000000 0.114908
# 5 0.003323 -0.002459 -0.002611 0.000000 0.022921 0.000000
# 6 0.000000 0.000000 0.000000 0.114908 0.000000 -0.062981
#
#
# Mechanical properties :
#
#
# Convention : Reuss Voigt Hill
#
# Bulk Modulus (GPa) = 76.86137 80.86759 78.86448
# Shear Modulus (GPa) = -32.81379 43.51651 5.35136
#
# Velocity S-wave (km/s) = -3.58340 4.12661 1.44710
# Velocity P-wave (km/s) = 3.59952 7.37228 5.80116
#
# Compressibility (1/GPa) = 0.01301044
#
# Stress axis : x y z
#
# Youngs Moduli (GPa) = 134.17772 115.21552 131.23864
#
# Poissons Ratio (x) = 0.21822 0.37198
# Poissons Ratio (y) = 0.25414 0.08429
# Poissons Ratio (z) = 0.38031 0.07400
#
# Static dielectric constant tensor:
#      x y z
#    x 2.069830 0.000000 -0.040970 
#    y 0.000000 3.230180 0.000000 
#    z -0.040970 0.000000 1.977850 
# 
# From -- ./inp_files/319078.got.cif
#   From: 2010.05.17/outbox.cif.g08.bks.cpg/sg15_160_cif.got.tgz:319078.got - 2010.06.03 18:47:42.
