data_PCOD9298000
_publ_section_title
;
Structure prediction by ZEFSAII (Michael W. Deem and Ramdas Pophale) SiO2 
 PCOD9298000
Probable space group: C 2/C
;
_chemical_formula_sum "Si O2"
_cell_formula_units_Z 48
_cell_length_a 6.601003
_cell_length_b 12.964697
_cell_length_c 23.451803
_cell_angle_alpha 90.000000
_cell_angle_beta 94.593970
_cell_angle_gamma 90.000000
_cell_volume 2000.557510
_symmetry_space_group_name_H-M "C 2/C"
_symmetry_group_IT_number 15
_symmetry_cell_setting 'monoclinic'
loop_
_space_group_symop_operation_xyz
x,y,z
-x,y,1/2-z
-x,-y,-z
x,-y,1/2+z
1/2+x,1/2+y,z
1/2-x,1/2+y,1/2-z
1/2-x,1/2-y,-z
1/2+x,1/2-y,1/2+z
loop_
_atom_site_type_symbol
_atom_site_label
_atom_site_fract_x
_atom_site_fract_y
_atom_site_fract_z
Si Si1 0.668695 0.315933 0.805220
Si Si2 0.167110 0.092369 0.673181
Si Si3 0.013346 0.249970 0.002487
Si Si4 0.770802 0.874848 0.574097
Si Si5 0.714338 0.035233 0.702822
Si Si6 0.480235 0.070008 0.594179
O O1 0.500000 0.311917 0.750000
O O2 0.800686 0.214224 0.817619
O O3 0.595206 0.345950 0.867479
O O4 0.819106 0.412881 0.800854
O O5 0.291028 0.053938 0.730806
O O6 0.255438 0.049258 0.615325
O O7 0.940382 0.057569 0.683226
O O8 0.973899 0.341381 0.047576
O O9 0.923008 0.143205 0.024615
O O10 0.250000 0.250000 0.000000
O O11 0.896868 0.286213 0.943274
O O12 0.631679 0.977842 0.576687
O O13 0.582428 0.103124 0.656696
#
# Coordination Sequence:
#
# PCOD9298000 Si02
#       6
#     8   8   8   8   8   8
#     4  11  21  43  69  98 140 171 221 280 331 413
#     4  11  22  43  68  97 143 179 223 280 343 404
#     4  11  25  45  68  97 135 176 232 283 346 396
#     4  10  25  44  66 100 130 174 231 278 335 416
#     4  10  24  43  64 107 137 178 228 273 343 420
#     4  11  23  43  71  93 136 177 227 284 338 404
#
# _framework density 23.993313000000001
#
# number of rings (size 3 to 8) (size 9 to 14) (size 15 to 20)
#    0.000    1.333    3.333    2.000    2.333    3.333 
#   12.000    0.000    0.000    0.000    0.000    0.000 
#    0.000    0.000    0.000    0.000    0.000    0.000 
#
# Total GULP energy -133719.256886 kJ/mol
# GULP energy per Si atom -5571.635704 kJ/mol
# Density = 2.393870 g / cm^3
# Si number density = 23.993313 Si / 1000 Ang^3
#
#
#
# Elastic Constant Matrix: (Units=GPa)
#
#
# Indices 1 2 3 4 5 6 
#
# 1 100.4767 10.4768 32.9973 0.0000 -12.4621 0.0000
# 2 10.4768 127.2975 30.2601 0.0000 -13.5669 0.0000
# 3 32.9973 30.2601 119.8590 0.0000 2.8800 0.0000
# 4 0.0000 0.0000 0.0000 34.4162 0.0000 -0.8702
# 5 -12.4621 -13.5669 2.8800 0.0000 50.0125 0.0000
# 6 0.0000 0.0000 0.0000 -0.8702 0.0000 21.3479
#
#
#
# Elastic Compliance Matrix: (Units=1/GPa)
#
#
# Indices 1 2 3 4 5 6 
#
# 1 0.011383 0.000162 -0.003248 0.000000 0.003067 0.000000
# 2 0.000162 0.008655 -0.002290 0.000000 0.002520 0.000000
# 3 -0.003248 -0.002290 0.009864 0.000000 -0.001999 0.000000
# 4 0.000000 0.000000 0.000000 0.029086 0.000000 0.001186
# 5 0.003067 0.002520 -0.001999 0.000000 0.021558 0.000000
# 6 0.000000 0.000000 0.000000 0.001186 0.000000 0.046891
#
#
# Mechanical properties :
#
#
# Convention : Reuss Voigt Hill
#
# Bulk Modulus (GPa) = 52.22243 55.01131 53.61687
# Shear Modulus (GPa) = 34.58449 39.41524 36.99987
#
# Velocity S-wave (km/s) = 3.80073 4.05749 3.93121
# Velocity P-wave (km/s) = 6.40885 6.70288 6.55751
#
# Compressibility (1/GPa) = 0.01914886
#
# Stress axis : x y z
#
# Youngs Moduli (GPa) = 87.85113 115.53601 101.38190
#
# Poissons Ratio (x) = -0.01875 0.32933
# Poissons Ratio (y) = -0.01426 0.23220
# Poissons Ratio (z) = 0.28538 0.26462
#
# Static dielectric constant tensor:
#      x y z
#    x 2.152260 0.000000 -0.132870 
#    y 0.000000 1.960380 0.000000 
#    z -0.132870 0.000000 2.129110 
# 
# From -- ./inp_files/263102.got.cif
#   From: 2010.05.17/outbox.cif.g08.bks.cpg/sg15_132_cif.got.tgz:263102.got - 2010.06.03 18:47:42.
