data_PCOD9298949
_publ_section_title
;
Structure prediction by ZEFSAII (Michael W. Deem and Ramdas Pophale) SiO2 
 PCOD9298949
Probable space group: C 2/C
;
_chemical_formula_sum "Si O2"
_cell_formula_units_Z 40
_cell_length_a 19.529247
_cell_length_b 9.746373
_cell_length_c 9.946817
_cell_angle_alpha 90.000000
_cell_angle_beta 75.975538
_cell_angle_gamma 90.000000
_cell_volume 1836.836500
_symmetry_space_group_name_H-M "C 2/C"
_symmetry_group_IT_number 15
_symmetry_cell_setting 'monoclinic'
loop_
_space_group_symop_operation_xyz
x,y,z
-x,y,1/2-z
-x,-y,-z
x,-y,1/2+z
1/2+x,1/2+y,z
1/2-x,1/2+y,1/2-z
1/2-x,1/2-y,-z
1/2+x,1/2-y,1/2+z
loop_
_atom_site_type_symbol
_atom_site_label
_atom_site_fract_x
_atom_site_fract_y
_atom_site_fract_z
Si Si1 0.807465 0.572054 0.773172
Si Si2 0.422929 0.470067 0.225537
Si Si3 0.080631 0.662563 0.208184
Si Si4 0.633619 0.302713 0.919832
Si Si5 0.717426 0.508072 0.548924
O O1 0.863197 0.451216 0.776344
O O2 0.847515 0.710588 0.715958
O O3 0.763506 0.535506 0.659347
O O4 0.756945 0.590738 0.926095
O O5 0.500000 0.487745 0.250000
O O6 0.412529 0.305784 0.211586
O O7 0.411998 0.566635 0.103029
O O8 0.360636 0.517054 0.356332
O O9 0.000000 0.613165 0.250000
O O10 0.095946 0.710304 0.048668
O O11 0.703877 0.361040 0.957683
#
# Coordination Sequence:
#
# PCOD9298949 Si02
#       5
#     8   8   8   8   8
#     4  12  24  45  73 101 136 182 228 285 343 401
#     4  10  24  46  70  99 138 181 227 280 341 405
#     4  10  25  46  68  98 139 184 225 283 339 407
#     4  11  24  46  68 100 143 173 233 286 336 401
#     4  11  24  44  70 101 135 179 227 283 341 403
#
# _framework density 21.77657
#
# number of rings (size 3 to 8) (size 9 to 14) (size 15 to 20)
#    0.000    1.200    4.000    0.600    2.800    9.600 
#   10.800    0.000    0.000    0.000    0.000    0.000 
#    0.000    0.000    0.000    0.000    0.000    0.000 
#
# Total GULP energy -111744.376094 kJ/mol
# GULP energy per Si atom -5587.218805 kJ/mol
# Density = 2.172701 g / cm^3
# Si number density = 21.776570 Si / 1000 Ang^3
#
#
#
# Elastic Constant Matrix: (Units=GPa)
#
#
# Indices 1 2 3 4 5 6 
#
# 1 129.4865 69.8263 32.4172 0.0000 1.0387 0.0000
# 2 69.8263 93.5051 46.4263 0.0000 9.9966 0.0000
# 3 32.4172 46.4263 43.2154 0.0000 13.7725 0.0000
# 4 0.0000 0.0000 0.0000 39.2179 0.0000 12.6662
# 5 1.0387 9.9966 13.7725 0.0000 31.7456 0.0000
# 6 0.0000 0.0000 0.0000 12.6662 0.0000 9.7715
#
#
#
# Elastic Compliance Matrix: (Units=1/GPa)
#
#
# Indices 1 2 3 4 5 6 
#
# 1 0.013160 -0.010264 0.000304 0.000000 0.002670 0.000000
# 2 -0.010264 0.031376 -0.026651 0.000000 0.002018 0.000000
# 3 0.000304 -0.026651 0.056713 0.000000 -0.016222 0.000000
# 4 0.000000 0.000000 0.000000 0.043861 0.000000 -0.056854
# 5 0.002670 0.002018 -0.016222 0.000000 0.037815 0.000000
# 6 0.000000 0.000000 0.000000 -0.056854 0.000000 0.176035
#
#
# Mechanical properties :
#
#
# Convention : Reuss Voigt Hill
#
# Bulk Modulus (GPa) = 35.67995 62.61632 49.14813
# Shear Modulus (GPa) = 11.32436 23.98281 17.65359
#
# Velocity S-wave (km/s) = 2.28288 3.32220 2.85031
# Velocity P-wave (km/s) = 4.83413 6.59791 5.78365
#
# Compressibility (1/GPa) = 0.02802695
#
# Stress axis : x y z
#
# Youngs Moduli (GPa) = 75.98700 31.87137 17.63250
#
# Poissons Ratio (x) = 0.32712 -0.00535
# Poissons Ratio (y) = 0.77991 0.46993
# Poissons Ratio (z) = -0.02307 0.84941
#
# Static dielectric constant tensor:
#      x y z
#    x 1.794280 0.000000 -0.043070 
#    y 0.000000 1.833110 0.000000 
#    z -0.043070 0.000000 1.855860 
# 
# From -- ./inp_files/54123.got.cif
#   From: 2010.05.17/outbox.cif.g08.bks.cpg/sg15_28_cif.got.tgz:54123.got - 2010.06.03 18:47:42.
