data_PCOD9298078
_publ_section_title
;
Structure prediction by ZEFSAII (Michael W. Deem and Ramdas Pophale) SiO2 
 PCOD9298078
Probable space group: C 2/C
;
_chemical_formula_sum "Si O2"
_cell_formula_units_Z 40
_cell_length_a 8.546830
_cell_length_b 26.167418
_cell_length_c 7.462578
_cell_angle_alpha 90.000000
_cell_angle_beta 101.791135
_cell_angle_gamma 90.000000
_cell_volume 1633.776759
_symmetry_space_group_name_H-M "C 2/C"
_symmetry_group_IT_number 15
_symmetry_cell_setting 'monoclinic'
loop_
_space_group_symop_operation_xyz
x,y,z
-x,y,1/2-z
-x,-y,-z
x,-y,1/2+z
1/2+x,1/2+y,z
1/2-x,1/2+y,1/2-z
1/2-x,1/2-y,-z
1/2+x,1/2-y,1/2+z
loop_
_atom_site_type_symbol
_atom_site_label
_atom_site_fract_x
_atom_site_fract_y
_atom_site_fract_z
Si Si1 0.500000 0.267647 0.750000
Si Si2 0.000000 0.408675 0.250000
Si Si3 0.000000 0.500000 0.000000
Si Si4 0.606887 0.175065 0.545887
Si Si5 0.800896 0.051751 0.373450
Si Si6 0.000000 0.037207 0.750000
Si Si7 0.242483 0.343411 0.700311
O O1 0.591407 0.229134 0.638856
O O2 0.369164 0.306083 0.637332
O O3 0.062466 0.448792 0.410300
O O4 0.869144 0.370540 0.305286
O O5 0.869319 0.536075 0.083562
O O6 0.429576 0.162823 0.428738
O O7 0.722680 0.173141 0.404611
O O8 0.792542 0.098012 0.232906
O O9 0.923406 0.064862 0.562507
O O10 0.863411 0.001311 0.288598
#
# Coordination Sequence:
#
# PCOD9298078 Si02
#       7
#     4   4   4   8   8   4   8
#     4  11  23  46  68  96 130 176 213 279 348 400
#     4  11  24  38  63 102 131 166 220 277 322 376
#     4  12  24  40  70 100 130 182 228 270 320 386
#     4  10  24  43  67  98 133 166 227 283 326 397
#     4  11  24  43  65 100 133 185 221 274 325 406
#     4  10  25  44  61  92 151 180 219 260 346 398
#     4  11  23  44  68 100 130 173 222 277 336 401
#
# _framework density 24.483148
#
# number of rings (size 3 to 8) (size 9 to 14) (size 15 to 20)
#    0.000    1.200    2.000    3.000    5.600    0.000 
#    3.600    4.000    0.000    0.000    0.000    0.000 
#    0.000    0.000    0.000    0.000    0.000    0.000 
#
# Total GULP energy -111414.167353 kJ/mol
# GULP energy per Si atom -5570.708368 kJ/mol
# Density = 2.442742 g / cm^3
# Si number density = 24.483148 Si / 1000 Ang^3
#
#
#
# Elastic Constant Matrix: (Units=GPa)
#
#
# Indices 1 2 3 4 5 6 
#
# 1 52.4104 33.0001 0.7390 0.0000 -14.0688 0.0000
# 2 33.0001 150.8489 31.8466 0.0000 12.1626 0.0000
# 3 0.7390 31.8466 64.9867 0.0000 4.1149 0.0000
# 4 0.0000 0.0000 0.0000 -21.9599 0.0000 -18.1075
# 5 -14.0688 12.1626 4.1149 0.0000 39.4311 0.0000
# 6 0.0000 0.0000 0.0000 -18.1075 0.0000 17.6652
#
#
#
# Elastic Compliance Matrix: (Units=1/GPa)
#
#
# Indices 1 2 3 4 5 6 
#
# 1 0.026751 -0.007321 0.002553 0.000000 0.011536 0.000000
# 2 -0.007321 0.009544 -0.004270 0.000000 -0.005110 0.000000
# 3 0.002553 -0.004270 0.017425 0.000000 0.000410 0.000000
# 4 0.000000 0.000000 0.000000 -0.024679 0.000000 -0.025297
# 5 0.011536 -0.005110 0.000410 0.000000 0.031010 0.000000
# 6 0.000000 0.000000 0.000000 -0.025297 0.000000 0.030678
#
#
# Mechanical properties :
#
#
# Convention : Reuss Voigt Hill
#
# Bulk Modulus (GPa) = 28.05552 44.37970 36.21761
# Shear Modulus (GPa) = 41.42888 20.53799 30.98343
#
# Velocity S-wave (km/s) = 4.11802 2.89945 3.56125
# Velocity P-wave (km/s) = 5.83908 5.41988 5.63338
#
# Compressibility (1/GPa) = 0.03564360
#
# Stress axis : x y z
#
# Youngs Moduli (GPa) = 37.38216 104.77417 57.38732
#
# Poissons Ratio (x) = 0.76707 -0.14651
# Poissons Ratio (y) = 0.27368 0.24506
# Poissons Ratio (z) = -0.09544 0.44742
#
# Static dielectric constant tensor:
#      x y z
#    x 1.973450 0.000000 0.013220 
#    y 0.000000 1.925420 0.000000 
#    z 0.013220 0.000000 2.073790 
# 
# From -- ./inp_files/23583.got.cif
#   From: 2010.05.17/outbox.cif.g08.bks.cpg/sg15_12_cif.got.tgz:23583.got - 2010.06.03 18:47:42.
