data_PCOD9298404
_publ_section_title
;
Structure prediction by ZEFSAII (Michael W. Deem and Ramdas Pophale) SiO2 
 PCOD9298404
Probable space group: C 2/C
;
_chemical_formula_sum "Si O2"
_cell_formula_units_Z 32
_cell_length_a 8.122554
_cell_length_b 13.726249
_cell_length_c 21.986874
_cell_angle_alpha 90.000000
_cell_angle_beta 144.932927
_cell_angle_gamma 90.000000
_cell_volume 1408.394896
_symmetry_space_group_name_H-M "C 2/C"
_symmetry_group_IT_number 15
_symmetry_cell_setting 'monoclinic'
loop_
_space_group_symop_operation_xyz
x,y,z
-x,y,1/2-z
-x,-y,-z
x,-y,1/2+z
1/2+x,1/2+y,z
1/2-x,1/2+y,1/2-z
1/2-x,1/2-y,-z
1/2+x,1/2-y,1/2+z
loop_
_atom_site_type_symbol
_atom_site_label
_atom_site_fract_x
_atom_site_fract_y
_atom_site_fract_z
Si Si1 0.648133 0.395227 0.233638
Si Si2 0.175211 0.096404 0.532330
Si Si3 0.763896 0.927961 0.587902
Si Si4 0.332110 0.259357 0.368485
O O1 0.500000 0.360112 0.250000
O O2 0.471009 0.502949 0.315644
O O3 0.541850 0.319040 0.150113
O O4 0.988034 0.407466 0.347351
O O5 0.163937 0.115985 0.456773
O O6 0.062733 0.183825 0.540050
O O7 0.000000 0.000000 0.500000
O O8 0.670365 0.852462 0.611726
O O9 0.500000 0.000000 0.500000
O O10 0.000000 0.274440 0.250000
#
# Coordination Sequence:
#
# PCOD9298404 Si02
#       4
#     8   8   8   8
#     4  11  23  45  72 104 147 186 242 295 355 428
#     4  11  23  45  71 106 141 188 237 297 358 425
#     4  12  24  43  72 102 143 185 238 295 359 424
#     4  10  24  44  69 103 147 182 236 299 353 428
#
# _framework density 22.7209
#
# number of rings (size 3 to 8) (size 9 to 14) (size 15 to 20)
#    0.000    1.000    5.000    1.500    0.000    1.000 
#    0.000    0.000    0.000    0.000    0.000    0.000 
#    0.000    0.000    0.000    0.000    0.000    0.000 
#
# Total GULP energy -89276.152460 kJ/mol
# GULP energy per Si atom -5579.759529 kJ/mol
# Density = 2.266919 g / cm^3
# Si number density = 22.720900 Si / 1000 Ang^3
#
#
#
# Elastic Constant Matrix: (Units=GPa)
#
#
# Indices 1 2 3 4 5 6 
#
# 1 97.5265 55.7114 53.5636 0.0000 -24.8370 0.0000
# 2 55.7114 131.3218 44.5718 0.0000 -31.7814 0.0000
# 3 53.5636 44.5718 76.0591 0.0001 -23.0696 0.0000
# 4 0.0000 0.0000 0.0001 47.8779 0.0000 0.2547
# 5 -24.8370 -31.7814 -23.0696 0.0000 54.0384 0.0000
# 6 0.0000 0.0000 0.0000 0.2547 0.0000 16.8127
#
#
#
# Elastic Compliance Matrix: (Units=1/GPa)
#
#
# Indices 1 2 3 4 5 6 
#
# 1 0.018606 -0.003980 -0.010209 0.000000 0.001853 0.000000
# 2 -0.003980 0.011044 -0.002589 0.000000 0.003561 0.000000
# 3 -0.010209 -0.002589 0.022940 0.000000 0.003578 0.000000
# 4 0.000000 0.000000 0.000000 0.020888 0.000000 -0.000316
# 5 0.001853 0.003561 0.003578 0.000000 0.022979 0.000000
# 6 0.000000 0.000000 0.000000 -0.000316 0.000000 0.059484
#
#
# Mechanical properties :
#
#
# Convention : Reuss Voigt Hill
#
# Bulk Modulus (GPa) = 52.53787 68.06675 60.30231
# Shear Modulus (GPa) = 25.53118 33.81652 29.67385
#
# Velocity S-wave (km/s) = 3.35578 3.86209 3.61780
# Velocity P-wave (km/s) = 6.17967 7.06473 6.63697
#
# Compressibility (1/GPa) = 0.01903389
#
# Stress axis : x y z
#
# Youngs Moduli (GPa) = 53.74693 90.54887 43.59290
#
# Poissons Ratio (x) = 0.36038 0.44502
# Poissons Ratio (y) = 0.21391 0.11286
# Poissons Ratio (z) = 0.54868 0.23443
#
# Static dielectric constant tensor:
#      x y z
#    x 1.995240 0.000010 -0.063340 
#    y 0.000010 2.945560 0.000000 
#    z -0.063340 0.000000 1.882570 
# 
# From -- ./inp_files/187487.got.cif
#   From: 2010.05.17/outbox.cif.g08.bks.cpg/sg15_94_cif.got.tgz:187487.got - 2010.06.03 18:47:42.
