data_PCOD9298860
_publ_section_title
;
Structure prediction by ZEFSAII (Michael W. Deem and Ramdas Pophale) SiO2 
 PCOD9298860
Probable space group: C 2/C
;
_chemical_formula_sum "Si O2"
_cell_formula_units_Z 28
_cell_length_a 18.825155
_cell_length_b 5.041645
_cell_length_c 12.015299
_cell_angle_alpha 90.000000
_cell_angle_beta 64.527979
_cell_angle_gamma 90.000000
_cell_volume 1029.519901
_symmetry_space_group_name_H-M "C 2/C"
_symmetry_group_IT_number 15
_symmetry_cell_setting 'monoclinic'
loop_
_space_group_symop_operation_xyz
x,y,z
-x,y,1/2-z
-x,-y,-z
x,-y,1/2+z
1/2+x,1/2+y,z
1/2-x,1/2+y,1/2-z
1/2-x,1/2-y,-z
1/2+x,1/2-y,1/2+z
loop_
_atom_site_type_symbol
_atom_site_label
_atom_site_fract_x
_atom_site_fract_y
_atom_site_fract_z
Si Si1 0.172217 0.111024 0.830799
Si Si2 0.380139 0.912965 0.005519
Si Si3 0.834099 0.260625 0.335152
Si Si4 0.000000 0.512854 0.750000
O O1 0.143333 0.863435 0.924927
O O2 0.168448 0.048864 0.701130
O O3 0.119250 0.359788 0.900806
O O4 0.263242 0.141987 0.804407
O O5 0.322756 0.076772 0.957721
O O6 0.458498 0.866595 0.880650
O O7 0.926860 0.314738 0.255335
#
# Coordination Sequence:
#
# PCOD9298860 Si02
#       4
#     8   8   8   4
#     4  12  23  43  77  93 141 176 238 261 360 381
#     4  10  25  45  68 104 133 186 215 297 321 417
#     4  10  24  46  67 111 129 184 226 291 316 439
#     4   8  24  48  64 104 146 166 236 276 350 384
#
# _framework density 27.197140000000001
#
# number of rings (size 3 to 8) (size 9 to 14) (size 15 to 20)
#    1.714    0.000    0.000    3.429    0.000    8.000 
#    0.000    0.000    0.000    0.000    0.000    0.000 
#    0.000    0.000    0.000    0.000    0.000    0.000 
#
# Total GULP energy -78051.662383 kJ/mol
# GULP energy per Si atom -5575.118742 kJ/mol
# Density = 2.713524 g / cm^3
# Si number density = 27.197140 Si / 1000 Ang^3
#
#
#
# Elastic Constant Matrix: (Units=GPa)
#
#
# Indices 1 2 3 4 5 6 
#
# 1 130.2427 18.1098 13.6120 0.0000 3.9452 0.0001
# 2 18.1098 141.8195 54.3798 0.0004 -9.9582 0.0009
# 3 13.6120 54.3798 151.0981 -0.0001 -33.2952 0.0000
# 4 0.0000 0.0004 -0.0001 1.9153 -0.0001 24.1798
# 5 3.9452 -9.9582 -33.2952 -0.0001 42.1159 0.0001
# 6 0.0001 0.0009 0.0000 24.1798 0.0001 22.3790
#
#
#
# Elastic Compliance Matrix: (Units=1/GPa)
#
#
# Indices 1 2 3 4 5 6 
#
# 1 0.007918 -0.000830 -0.000752 0.000000 -0.001533 0.000000
# 2 -0.000830 0.008275 -0.002973 0.000000 -0.000316 0.000000
# 3 -0.000752 -0.002973 0.009223 0.000000 0.006659 0.000000
# 4 0.000000 0.000000 0.000000 -0.041305 0.000000 0.044629
# 5 -0.001533 -0.000316 0.006659 0.000000 0.029077 0.000000
# 6 0.000000 0.000000 0.000000 0.044629 0.000000 -0.003535
#
#
# Mechanical properties :
#
#
# Convention : Reuss Voigt Hill
#
# Bulk Modulus (GPa) = 61.32842 66.15150 63.73996
# Shear Modulus (GPa) = 206.60347 35.75261 121.17804
#
# Velocity S-wave (km/s) = 8.72525 3.62964 6.68223
# Velocity P-wave (km/s) = 11.14026 6.47622 9.11172
#
# Compressibility (1/GPa) = 0.01630565
#
# Stress axis : x y z
#
# Youngs Moduli (GPa) = 126.28684 120.84543 108.42073
#
# Poissons Ratio (x) = 0.10034 0.08156
# Poissons Ratio (y) = 0.10486 0.32233
# Poissons Ratio (z) = 0.09500 0.35927
#
# Static dielectric constant tensor:
#      x y z
#    x 2.104670 0.000000 0.088860 
#    y 0.000000 2.195440 0.000000 
#    z 0.088860 0.000000 2.280590 
# 
# From -- ./inp_files/157995.got.cif
#   From: 2010.05.17/outbox.cif.g08.bks.cpg/sg15_79_cif.got.tgz:157995.got - 2010.06.03 18:47:42.
