data_PCOD9298838
_publ_section_title
;
Structure prediction by ZEFSAII (Michael W. Deem and Ramdas Pophale) SiO2 
 PCOD9298838
Probable space group: C 2/C
;
_chemical_formula_sum "Si O2"
_cell_formula_units_Z 32
_cell_length_a 7.606671
_cell_length_b 10.522556
_cell_length_c 28.498765
_cell_angle_alpha 90.000000
_cell_angle_beta 38.175771
_cell_angle_gamma 90.000000
_cell_volume 1409.885399
_symmetry_space_group_name_H-M "C 2/C"
_symmetry_group_IT_number 15
_symmetry_cell_setting 'monoclinic'
loop_
_space_group_symop_operation_xyz
x,y,z
-x,y,1/2-z
-x,-y,-z
x,-y,1/2+z
1/2+x,1/2+y,z
1/2-x,1/2+y,1/2-z
1/2-x,1/2-y,-z
1/2+x,1/2-y,1/2+z
loop_
_atom_site_type_symbol
_atom_site_label
_atom_site_fract_x
_atom_site_fract_y
_atom_site_fract_z
Si Si1 0.093950 0.952438 0.078924
Si Si2 0.968387 0.385771 0.175115
Si Si3 0.974484 0.638538 0.945838
Si Si4 0.709281 0.382780 0.782340
O O1 0.261559 0.847729 0.073981
O O2 0.797555 0.911510 0.118597
O O3 0.019255 0.062312 0.132694
O O4 0.308022 0.010506 0.995883
O O5 0.932432 0.367663 0.127257
O O6 0.217318 0.504302 0.268643
O O7 0.881141 0.253552 0.217758
O O8 0.750000 0.750000 0.000000
O O9 0.000000 0.362533 0.750000
#
# Coordination Sequence:
#
# PCOD9298838 Si02
#       4
#     8   8   8   8
#     4  10  24  46  65 105 133 176 236 276 338 416
#     4  11  24  47  72  99 141 184 220 290 344 398
#     4  11  23  45  72  96 140 180 228 286 336 403
#     4  10  24  46  67 104 140 175 235 278 338 417
#
# _framework density 22.696881000000001
#
# number of rings (size 3 to 8) (size 9 to 14) (size 15 to 20)
#    0.000    1.500    2.500    0.750    3.500    1.000 
#   18.000    0.000    0.000    0.000    0.000    0.000 
#    0.000    0.000    0.000    0.000    0.000    0.000 
#
# Total GULP energy -89567.103488 kJ/mol
# GULP energy per Si atom -5597.943968 kJ/mol
# Density = 2.264522 g / cm^3
# Si number density = 22.696881 Si / 1000 Ang^3
#
#
#
# Elastic Constant Matrix: (Units=GPa)
#
#
# Indices 1 2 3 4 5 6 
#
# 1 57.7584 16.0259 1.6629 -0.0078 4.5913 -0.0006
# 2 16.0259 97.1265 25.9124 0.0023 11.7331 0.0013
# 3 1.6629 25.9124 78.3363 0.0041 10.0550 0.0006
# 4 -0.0078 0.0023 0.0041 15.1905 0.0001 -12.3689
# 5 4.5913 11.7331 10.0550 0.0001 35.4876 -0.0002
# 6 -0.0006 0.0013 0.0006 -12.3689 -0.0002 29.3297
#
#
#
# Elastic Compliance Matrix: (Units=1/GPa)
#
#
# Indices 1 2 3 4 5 6 
#
# 1 0.018260 -0.003040 0.000822 0.000015 -0.001590 0.000007
# 2 -0.003040 0.012068 -0.003597 -0.000004 -0.002578 -0.000002
# 3 0.000822 -0.003597 0.014320 -0.000004 -0.002974 -0.000002
# 4 0.000015 -0.000004 -0.000004 0.100258 0.000001 0.042281
# 5 -0.001590 -0.002578 -0.002974 0.000001 0.030080 0.000001
# 6 0.000007 -0.000002 -0.000002 0.042281 0.000001 0.051926
#
#
# Mechanical properties :
#
#
# Convention : Reuss Voigt Hill
#
# Bulk Modulus (GPa) = 30.28608 35.60262 32.94435
# Shear Modulus (GPa) = 20.03638 28.64289 24.33963
#
# Velocity S-wave (km/s) = 2.97439 3.55628 3.27827
# Velocity P-wave (km/s) = 5.01684 5.70816 5.37363
#
# Compressibility (1/GPa) = 0.03301847
#
# Stress axis : x y z
#
# Youngs Moduli (GPa) = 54.76523 82.86091 69.83475
#
# Poissons Ratio (x) = 0.25191 -0.05741
# Poissons Ratio (y) = 0.16649 0.25117
# Poissons Ratio (z) = -0.04502 0.29802
#
# Static dielectric constant tensor:
#      x y z
#    x 1.834330 0.000000 0.000940 
#    y 0.000000 1.882680 0.000000 
#    z 0.000940 0.000000 1.823990 
# 
# From -- ./inp_files/285123.got.cif
#   From: 2010.05.17/outbox.cif.g08.bks.cpg/sg15_143_cif.got.tgz:285123.got - 2010.06.03 18:47:42.
