data_PCOD9298979
_publ_section_title
;
Structure prediction by ZEFSAII (Michael W. Deem and Ramdas Pophale) SiO2 
 PCOD9298979
Probable space group: C 2/C
;
_chemical_formula_sum "Si O2"
_cell_formula_units_Z 60
_cell_length_a 8.320969
_cell_length_b 11.966826
_cell_length_c 26.015944
_cell_angle_alpha 90.000000
_cell_angle_beta 81.346795
_cell_angle_gamma 90.000000
_cell_volume 2561.064910
_symmetry_space_group_name_H-M "C 2/C"
_symmetry_group_IT_number 15
_symmetry_cell_setting 'monoclinic'
loop_
_space_group_symop_operation_xyz
x,y,z
-x,y,1/2-z
-x,-y,-z
x,-y,1/2+z
1/2+x,1/2+y,z
1/2-x,1/2+y,1/2-z
1/2-x,1/2-y,-z
1/2+x,1/2-y,1/2+z
loop_
_atom_site_type_symbol
_atom_site_label
_atom_site_fract_x
_atom_site_fract_y
_atom_site_fract_z
Si Si1 0.833367 0.925118 0.972145
Si Si2 0.652400 0.863844 0.512782
Si Si3 0.500000 0.630258 0.250000
Si Si4 0.793376 0.882055 0.152228
Si Si5 0.310260 0.964267 0.239115
Si Si6 0.947207 0.702299 0.656738
Si Si7 0.339802 0.397808 0.595225
Si Si8 0.350277 0.251890 0.060779
O O1 0.788850 0.840335 0.927830
O O2 0.024662 0.936268 0.952433
O O3 0.812648 0.857267 0.026338
O O4 0.726511 0.036984 0.975648
O O5 0.750000 0.750000 0.500000
O O6 0.675833 0.900667 0.570672
O O7 0.470922 0.821662 0.519387
O O8 0.669124 0.557821 0.239202
O O9 0.515759 0.710039 0.298948
O O10 0.618309 0.855165 0.135384
O O11 0.905299 0.798879 0.113408
O O12 0.763437 0.879359 0.214247
O O13 0.841025 0.009156 0.138716
O O14 0.500000 0.993886 0.250000
O O15 0.335985 0.895028 0.185812
O O16 0.868889 0.774600 0.615462
#
# Coordination Sequence:
#
# PCOD9298979 Si02
#       8
#     8   8   4   8   8   8   8   8
#     4  11  23  43  65  92 135 183 221 283 341 401
#     4  12  24  41  63  98 135 176 233 283 332 410
#     4  12  22  48  76  98 136 186 222 288 360 410
#     4  11  21  43  69  95 133 178 221 275 344 403
#     4  10  24  46  72 103 138 177 230 288 344 422
#     4  11  24  47  68 100 141 176 224 289 346 412
#     4  12  23  43  71  94 135 181 223 280 346 404
#     4  11  23  41  67  95 133 181 225 275 345 404
#
# _framework density 23.427752999999999
#
# number of rings (size 3 to 8) (size 9 to 14) (size 15 to 20)
#    0.000    0.800    7.333    1.600    0.000    1.067 
#   10.800    0.000    0.000    0.000    0.000    0.000 
#    0.000    0.000    0.000    0.000    0.000    0.000 
#
# Total GULP energy -167323.702987 kJ/mol
# GULP energy per Si atom -5577.456766 kJ/mol
# Density = 2.337443 g / cm^3
# Si number density = 23.427753 Si / 1000 Ang^3
#
#
#
# Elastic Constant Matrix: (Units=GPa)
#
#
# Indices 1 2 3 4 5 6 
#
# 1 63.3493 27.2402 0.3153 0.0000 -14.1667 0.0000
# 2 27.2402 106.8412 2.3500 0.0000 -19.6201 0.0000
# 3 0.3153 2.3500 58.8042 0.0000 -14.9422 0.0000
# 4 0.0000 0.0000 0.0000 41.8512 0.0000 -0.9134
# 5 -14.1667 -19.6201 -14.9422 0.0000 23.9395 0.0000
# 6 0.0000 0.0000 0.0000 -0.9134 0.0000 42.9734
#
#
#
# Elastic Compliance Matrix: (Units=1/GPa)
#
#
# Indices 1 2 3 4 5 6 
#
# 1 0.019488 -0.003056 0.002747 0.000000 0.010743 0.000000
# 2 -0.003056 0.011743 0.001822 0.000000 0.008953 0.000000
# 3 0.002747 0.001822 0.021049 0.000000 0.016257 0.000000
# 4 0.000000 0.000000 0.000000 0.023905 0.000000 0.000508
# 5 0.010743 0.008953 0.016257 0.000000 0.065614 0.000000
# 6 0.000000 0.000000 0.000000 0.000508 0.000000 0.023281
#
#
# Mechanical properties :
#
#
# Convention : Reuss Voigt Hill
#
# Bulk Modulus (GPa) = 18.08120 32.08951 25.08536
# Shear Modulus (GPa) = 27.70240 35.02543 31.36391
#
# Velocity S-wave (km/s) = 3.44242 3.87077 3.66286
# Velocity P-wave (km/s) = 4.85129 5.80552 5.34972
#
# Compressibility (1/GPa) = 0.05530606
#
# Stress axis : x y z
#
# Youngs Moduli (GPa) = 51.31246 85.15753 47.50824
#
# Poissons Ratio (x) = 0.26028 -0.13052
# Poissons Ratio (y) = 0.15683 -0.08656
# Poissons Ratio (z) = -0.14097 -0.15516
#
# Static dielectric constant tensor:
#      x y z
#    x 2.293220 0.000000 -0.030620 
#    y 0.000000 2.107000 0.000000 
#    z -0.030620 0.000000 1.922120 
# 
# From -- ./inp_files/307468.got.cif
#   From: 2010.05.17/outbox.cif.g08.bks.cpg/sg15_154_cif.got.tgz:307468.got - 2010.06.03 18:47:42.
