data_PCOD9298785
_publ_section_title
;
Structure prediction by ZEFSAII (Michael W. Deem and Ramdas Pophale) SiO2 
 PCOD9298785
Probable space group: C 2/C
;
_chemical_formula_sum "Si O2"
_cell_formula_units_Z 48
_cell_length_a 22.857960
_cell_length_b 17.073387
_cell_length_c 8.179684
_cell_angle_alpha 90.000000
_cell_angle_beta 143.573934
_cell_angle_gamma 90.000000
_cell_volume 1895.496133
_symmetry_space_group_name_H-M "C 2/C"
_symmetry_group_IT_number 15
_symmetry_cell_setting 'monoclinic'
loop_
_space_group_symop_operation_xyz
x,y,z
-x,y,1/2-z
-x,-y,-z
x,-y,1/2+z
1/2+x,1/2+y,z
1/2-x,1/2+y,1/2-z
1/2-x,1/2-y,-z
1/2+x,1/2-y,1/2+z
loop_
_atom_site_type_symbol
_atom_site_label
_atom_site_fract_x
_atom_site_fract_y
_atom_site_fract_z
Si Si1 0.425673 0.741020 0.242778
Si Si2 0.334885 0.418327 0.438134
Si Si3 0.094094 0.588984 0.869593
Si Si4 0.649378 0.850602 0.174109
Si Si5 0.853434 0.243609 0.629495
Si Si6 0.305357 0.573750 0.485331
O O1 0.402884 0.817748 0.081183
O O2 0.359222 0.768330 0.247115
O O3 0.399025 0.659098 0.104440
O O4 0.461923 0.736485 0.949415
O O5 0.249598 0.397542 0.377531
O O6 0.374017 0.502915 0.579588
O O7 0.303083 0.424025 0.177369
O O8 0.085353 0.594516 0.652442
O O9 0.000000 0.555307 0.750000
O O10 0.197893 0.557137 0.164680
O O11 0.632677 0.820143 0.953389
O O12 0.750000 0.250000 0.500000
O O13 0.838161 0.160100 0.505034
#
# Coordination Sequence:
#
# PCOD9298785 Si02
#       6
#     8   8   8   8   8   8
#     4  10  26  43  75 108 146 186 250 298 368 436
#     4  12  26  47  70 104 149 202 236 308 369 447
#     4  10  24  45  74 107 144 187 245 312 364 440
#     4  10  24  45  74 108 144 187 243 302 368 432
#     4  12  24  46  77 114 140 194 245 311 364 436
#     4  12  28  44  72 102 154 190 249 296 381 431
#
# _framework density 25.323184000000001
#
# number of rings (size 3 to 8) (size 9 to 14) (size 15 to 20)
#    1.000    0.000    1.667    4.000    7.000    0.667 
#    0.000    5.000    0.000    0.000    0.000    0.000 
#    0.000    0.000    0.000    0.000    0.000    0.000 
#
# Total GULP energy -133793.989991 kJ/mol
# GULP energy per Si atom -5574.749583 kJ/mol
# Density = 2.526555 g / cm^3
# Si number density = 25.323184 Si / 1000 Ang^3
#
#
#
# Elastic Constant Matrix: (Units=GPa)
#
#
# Indices 1 2 3 4 5 6 
#
# 1 120.5849 6.7216 42.1781 0.0000 -14.0586 0.0000
# 2 6.7216 112.5237 33.8916 0.0000 3.1767 0.0000
# 3 42.1781 33.8916 85.3188 0.0000 4.4645 0.0000
# 4 0.0000 0.0000 0.0000 34.5093 0.0000 -13.9477
# 5 -14.0586 3.1767 4.4645 0.0000 32.3815 0.0000
# 6 0.0000 0.0000 0.0000 -13.9477 0.0000 -0.6925
#
#
#
# Elastic Compliance Matrix: (Units=1/GPa)
#
#
# Indices 1 2 3 4 5 6 
#
# 1 0.011034 0.001039 -0.006157 0.000000 0.005538 0.000000
# 2 0.001039 0.010199 -0.004569 0.000000 0.000081 0.000000
# 3 -0.006157 -0.004569 0.016818 0.000000 -0.004544 0.000000
# 4 0.000000 0.000000 0.000000 0.003170 0.000000 -0.063852
# 5 0.005538 0.000081 -0.004544 0.000000 0.033905 0.000000
# 6 0.000000 0.000000 0.000000 -0.063852 0.000000 -0.157984
#
#
# Mechanical properties :
#
#
# Convention : Reuss Voigt Hill
#
# Bulk Modulus (GPa) = 53.54581 53.77889 53.66235
# Shear Modulus (GPa) = -87.32469 28.94873 -29.18798
#
# Velocity S-wave (km/s) = -5.87869 3.38475 -3.39871
# Velocity P-wave (km/s) = 4.98876 6.04636 2.41565
#
# Compressibility (1/GPa) = 0.01867560
#
# Stress axis : x y z
#
# Youngs Moduli (GPa) = 90.62595 98.04971 59.46160
#
# Poissons Ratio (x) = -0.10189 0.36613
# Poissons Ratio (y) = -0.09417 0.27170
# Poissons Ratio (z) = 0.55803 0.44802
#
# Static dielectric constant tensor:
#      x y z
#    x 2.074420 0.000000 -0.033830 
#    y 0.000000 2.008440 0.000000 
#    z -0.033830 0.000000 2.088380 
# 
# From -- ./inp_files/66771.got.cif
#   From: 2010.05.17/outbox.cif.g08.bks.cpg/sg15_34_cif.got.tgz:66771.got - 2010.06.03 18:47:42.
