data_PCOD9298630
_publ_section_title
;
Structure prediction by ZEFSAII (Michael W. Deem and Ramdas Pophale) SiO2 
 PCOD9298630
Probable space group: C 2/C
;
_chemical_formula_sum "Si O2"
_cell_formula_units_Z 40
_cell_length_a 13.519067
_cell_length_b 11.931680
_cell_length_c 11.211862
_cell_angle_alpha 90.000000
_cell_angle_beta 67.053858
_cell_angle_gamma 90.000000
_cell_volume 1665.425476
_symmetry_space_group_name_H-M "C 2/C"
_symmetry_group_IT_number 15
_symmetry_cell_setting 'monoclinic'
loop_
_space_group_symop_operation_xyz
x,y,z
-x,y,1/2-z
-x,-y,-z
x,-y,1/2+z
1/2+x,1/2+y,z
1/2-x,1/2+y,1/2-z
1/2-x,1/2-y,-z
1/2+x,1/2-y,1/2+z
loop_
_atom_site_type_symbol
_atom_site_label
_atom_site_fract_x
_atom_site_fract_y
_atom_site_fract_z
Si Si1 0.710644 0.372704 0.042633
Si Si2 0.000000 0.939025 0.250000
Si Si3 0.356313 0.763695 0.528470
Si Si4 0.615286 0.998743 0.879132
Si Si5 0.381398 0.517333 0.606958
Si Si6 0.000000 0.357167 0.250000
O O1 0.585027 0.363795 0.139554
O O2 0.793892 0.430234 0.094539
O O3 0.750000 0.250000 0.000000
O O4 0.703162 0.447561 0.926624
O O5 0.910289 0.015525 0.227783
O O6 0.250000 0.750000 0.500000
O O7 0.351970 0.868840 0.620834
O O8 0.364357 0.649388 0.599609
O O9 0.449567 0.786689 0.384412
O O10 0.589652 0.060570 0.766500
O O11 0.500000 0.000000 0.000000
O O12 0.500000 0.500000 0.500000
#
# Coordination Sequence:
#
# PCOD9298630 Si02
#       6
#     8   4   8   8   8   4
#     4  11  25  49  71 105 149 187 242 302 355 434
#     4  10  26  46  72 108 136 196 238 294 368 422
#     4  11  23  47  70 101 143 183 240 298 341 437
#     4  10  24  45  67 103 141 183 242 287 357 422
#     4  10  24  47  69 102 144 183 245 291 356 427
#     4  10  26  44  70 104 142 196 224 290 374 408
#
# _framework density 24.017887000000002
#
# number of rings (size 3 to 8) (size 9 to 14) (size 15 to 20)
#    0.000    1.600    2.000    0.000   14.000    4.000 
#    7.200    0.000    0.000    0.000    0.000    0.000 
#    0.000    0.000    0.000    0.000    0.000    0.000 
#
# Total GULP energy -111566.025992 kJ/mol
# GULP energy per Si atom -5578.301300 kJ/mol
# Density = 2.396322 g / cm^3
# Si number density = 24.017887 Si / 1000 Ang^3
#
#
#
# Elastic Constant Matrix: (Units=GPa)
#
#
# Indices 1 2 3 4 5 6 
#
# 1 188.5816 71.9021 38.4304 0.0000 25.7795 0.0000
# 2 71.9021 171.2684 15.2485 0.0000 27.0788 0.0000
# 3 38.4304 15.2485 56.7096 0.0000 -1.9652 0.0000
# 4 0.0000 0.0000 0.0000 23.3132 0.0000 -2.8407
# 5 25.7795 27.0788 -1.9652 0.0000 67.7695 0.0000
# 6 0.0000 0.0000 0.0000 -2.8407 0.0000 42.6847
#
#
#
# Elastic Compliance Matrix: (Units=1/GPa)
#
#
# Indices 1 2 3 4 5 6 
#
# 1 0.007390 -0.002394 -0.004433 0.000000 -0.001983 0.000000
# 2 -0.002394 0.007190 -0.000379 0.000000 -0.001973 0.000000
# 3 -0.004433 -0.000379 0.020824 0.000000 0.002442 0.000000
# 4 0.000000 0.000000 0.000000 0.043245 0.000000 0.002878
# 5 -0.001983 -0.001973 0.002442 0.000000 0.016369 0.000000
# 6 0.000000 0.000000 0.000000 0.002878 0.000000 0.023619
#
#
# Mechanical properties :
#
#
# Convention : Reuss Voigt Hill
#
# Bulk Modulus (GPa) = 47.63844 74.19131 60.91487
# Shear Modulus (GPa) = 35.70223 46.15205 40.92714
#
# Velocity S-wave (km/s) = 3.85968 4.38833 4.13247
# Velocity P-wave (km/s) = 6.30400 7.52553 6.94169
#
# Compressibility (1/GPa) = 0.02099145
#
# Stress axis : x y z
#
# Youngs Moduli (GPa) = 135.31590 139.08865 48.02078
#
# Poissons Ratio (x) = 0.33302 0.21288
# Poissons Ratio (y) = 0.32399 0.01820
# Poissons Ratio (z) = 0.59985 0.05272
#
# Static dielectric constant tensor:
#      x y z
#    x 1.919980 0.000000 0.067830 
#    y 0.000000 1.773890 0.000000 
#    z 0.067830 0.000000 2.354990 
# 
# From -- ./inp_files/94938.got.cif
#   From: 2010.05.17/outbox.cif.g08.bks.cpg/sg15_48_cif.got.tgz:94938.got - 2010.06.03 18:47:42.
