data_PCOD9298221
_publ_section_title
;
Structure prediction by ZEFSAII (Michael W. Deem and Ramdas Pophale) SiO2 
 PCOD9298221
Probable space group: C 2/C
;
_chemical_formula_sum "Si O2"
_cell_formula_units_Z 52
_cell_length_a 30.441259
_cell_length_b 16.975920
_cell_length_c 14.049543
_cell_angle_alpha 90.000000
_cell_angle_beta 158.129042
_cell_angle_gamma 90.000000
_cell_volume 2704.610509
_symmetry_space_group_name_H-M "C 2/C"
_symmetry_group_IT_number 15
_symmetry_cell_setting 'monoclinic'
loop_
_space_group_symop_operation_xyz
x,y,z
-x,y,1/2-z
-x,-y,-z
x,-y,1/2+z
1/2+x,1/2+y,z
1/2-x,1/2+y,1/2-z
1/2-x,1/2-y,-z
1/2+x,1/2-y,1/2+z
loop_
_atom_site_type_symbol
_atom_site_label
_atom_site_fract_x
_atom_site_fract_y
_atom_site_fract_z
Si Si1 0.169845 0.056753 0.371304
Si Si2 0.000000 0.667518 0.750000
Si Si3 0.874464 0.789462 0.027906
Si Si4 0.585688 0.382484 0.205771
Si Si5 0.134545 0.042775 0.520137
Si Si6 0.156971 0.205780 0.674076
Si Si7 0.777166 0.598958 0.402241
O O1 0.177307 0.064353 0.499811
O O2 0.268338 0.090023 0.498322
O O3 0.155667 0.963090 0.327322
O O4 0.048328 0.097828 0.092559
O O5 0.927072 0.724787 0.532947
O O6 0.905975 0.616269 0.619603
O O7 0.901040 0.857802 0.158484
O O8 0.000000 0.755657 0.250000
O O9 0.787604 0.728981 0.904590
O O10 0.804318 0.829029 0.799421
O O11 0.635764 0.312703 0.241488
O O12 0.126475 0.123492 0.562278
O O13 0.219521 0.979417 0.740339
O O14 0.000000 0.010782 0.250000
#
# Coordination Sequence:
#
# PCOD9298221 Si02
#       7
#     8   4   8   8   8   8   8
#     4  11  20  33  64  94 112 146 202 257 302 344
#     4  10  24  44  58  82 124 174 192 240 320 366
#     4  11  22  38  59  89 121 161 198 249 301 353
#     4  11  19  35  61  93 117 147 198 256 298 354
#     4  12  20  38  65  90 118 153 204 252 293 356
#     4  11  22  40  60  84 126 163 199 244 304 359
#     4  11  22  40  63  84 122 155 201 253 298 361
#
# _framework density 19.226427999999999
#
# number of rings (size 3 to 8) (size 9 to 14) (size 15 to 20)
#    0.000    0.923    6.923    1.846    0.000    0.000 
#    4.154    3.077    0.000    0.000    0.000    0.000 
#    0.000    0.000    0.000    0.000    0.000    0.000 
#
# Total GULP energy -145232.216642 kJ/mol
# GULP energy per Si atom -5585.854486 kJ/mol
# Density = 1.918267 g / cm^3
# Si number density = 19.226428 Si / 1000 Ang^3
#
#
#
# Elastic Constant Matrix: (Units=GPa)
#
#
# Indices 1 2 3 4 5 6 
#
# 1 112.8906 13.0362 22.4976 0.0000 10.6048 0.0000
# 2 13.0362 53.9209 20.3206 0.0000 16.6765 0.0000
# 3 22.4976 20.3206 75.7184 0.0000 32.4704 0.0000
# 4 0.0000 0.0000 0.0000 4.4737 0.0000 -7.6609
# 5 10.6048 16.6765 32.4704 0.0000 31.9737 0.0000
# 6 0.0000 0.0000 0.0000 -7.6609 0.0000 18.9799
#
#
#
# Elastic Compliance Matrix: (Units=1/GPa)
#
#
# Indices 1 2 3 4 5 6 
#
# 1 0.009506 -0.001391 -0.002498 0.000000 0.000109 0.000000
# 2 -0.001391 0.022448 -0.001396 0.000000 -0.009829 0.000000
# 3 -0.002498 -0.001396 0.024191 0.000000 -0.023010 0.000000
# 4 0.000000 0.000000 0.000000 0.723829 0.000000 0.292160
# 5 0.000109 -0.009829 -0.023010 0.000000 0.059734 0.000000
# 6 0.000000 0.000000 0.000000 0.292160 0.000000 0.170612
#
#
# Mechanical properties :
#
#
# Convention : Reuss Voigt Hill
#
# Bulk Modulus (GPa) = 21.94161 39.35986 30.65073
# Shear Modulus (GPa) = 4.82587 23.53048 14.17818
#
# Velocity S-wave (km/s) = 1.58602 3.50217 2.71852
# Velocity P-wave (km/s) = 3.84590 6.07205 5.08236
#
# Compressibility (1/GPa) = 0.04557551
#
# Stress axis : x y z
#
# Youngs Moduli (GPa) = 105.19326 44.54751 41.33700
#
# Poissons Ratio (x) = 0.06195 0.10327
# Poissons Ratio (y) = 0.14629 0.05771
# Poissons Ratio (z) = 0.26280 0.06220
#
# Static dielectric constant tensor:
#      x y z
#    x 1.696530 0.000000 -0.010460 
#    y 0.000000 1.656760 0.000000 
#    z -0.010460 0.000000 1.665090 
# 
# From -- ./inp_files/144315.got.cif
#   From: 2010.05.17/outbox.cif.g08.bks.cpg/sg15_73_cif.got.tgz:144315.got - 2010.06.03 18:47:42.
