data_PCOD9298381
_publ_section_title
;
Structure prediction by ZEFSAII (Michael W. Deem and Ramdas Pophale) SiO2 
 PCOD9298381
Probable space group: C 2/C
;
_chemical_formula_sum "Si O2"
_cell_formula_units_Z 56
_cell_length_a 17.747093
_cell_length_b 10.068309
_cell_length_c 14.967295
_cell_angle_alpha 90.000000
_cell_angle_beta 126.312762
_cell_angle_gamma 90.000000
_cell_volume 2155.025438
_symmetry_space_group_name_H-M "C 2/C"
_symmetry_group_IT_number 15
_symmetry_cell_setting 'monoclinic'
loop_
_space_group_symop_operation_xyz
x,y,z
-x,y,1/2-z
-x,-y,-z
x,-y,1/2+z
1/2+x,1/2+y,z
1/2-x,1/2+y,1/2-z
1/2-x,1/2-y,-z
1/2+x,1/2-y,1/2+z
loop_
_atom_site_type_symbol
_atom_site_label
_atom_site_fract_x
_atom_site_fract_y
_atom_site_fract_z
Si Si1 0.578140 0.604520 0.125225
Si Si2 0.623377 0.893129 0.856516
Si Si3 0.364491 0.607178 0.702915
Si Si4 0.935448 0.358083 0.302768
Si Si5 0.329195 0.517674 0.490496
Si Si6 0.391221 0.752035 0.007054
Si Si7 0.855507 0.544549 0.931927
O O1 0.582188 0.469123 0.182330
O O2 0.616566 0.715845 0.222566
O O3 0.474821 0.657993 0.028014
O O4 0.632615 0.584577 0.072089
O O5 0.604267 0.757536 0.791686
O O6 0.593299 0.016990 0.775323
O O7 0.734143 0.906391 0.941229
O O8 0.596947 0.902737 0.942586
O O9 0.383417 0.536579 0.621047
O O10 0.252754 0.593998 0.648562
O O11 0.916816 0.409407 0.391582
O O12 0.044417 0.312588 0.367953
O O13 0.313888 0.359043 0.470200
O O14 0.354624 0.883338 0.933813
#
# Coordination Sequence:
#
# PCOD9298381 Si02
#       7
#     8   8   8   8   8   8   8
#     4  10  24  44  68  98 134 172 222 266 332 391
#     4  11  25  43  71 100 129 175 222 276 327 383
#     4  11  25  43  71 100 129 175 222 276 327 383
#     4  10  24  44  68  98 134 172 222 266 332 391
#     4  11  23  44  69  96 136 172 222 272 326 393
#     4  10  26  40  72  97 136 174 220 266 340 384
#     4  11  23  44  69  96 136 172 222 272 326 393
#
# _framework density 25.985772000000001
#
# number of rings (size 3 to 8) (size 9 to 14) (size 15 to 20)
#    0.857    0.571    0.000    5.143    6.000    3.429 
#    0.000    1.429    0.000    0.000    0.000    0.000 
#    0.000    0.000    0.000    0.000    0.000    0.000 
#
# Total GULP energy -156433.142856 kJ/mol
# GULP energy per Si atom -5586.897959 kJ/mol
# Density = 2.592663 g / cm^3
# Si number density = 25.985772 Si / 1000 Ang^3
#
#
#
# Elastic Constant Matrix: (Units=GPa)
#
#
# Indices 1 2 3 4 5 6 
#
# 1 68.9579 20.1981 32.1397 0.0000 -8.6068 0.0000
# 2 20.1981 197.8757 56.2783 0.0000 -18.3465 0.0000
# 3 32.1397 56.2783 95.5719 0.0000 -27.9554 0.0000
# 4 0.0000 0.0000 0.0000 50.5735 0.0000 3.5576
# 5 -8.6068 -18.3465 -27.9554 0.0000 35.6832 0.0000
# 6 0.0000 0.0000 0.0000 3.5576 0.0000 28.9756
#
#
#
# Elastic Compliance Matrix: (Units=1/GPa)
#
#
# Indices 1 2 3 4 5 6 
#
# 1 0.017207 -0.000139 -0.005853 0.000000 -0.000506 0.000000
# 2 -0.000139 0.006076 -0.003408 0.000000 0.000420 0.000000
# 3 -0.005853 -0.003408 0.017530 0.000000 0.010570 0.000000
# 4 0.000000 0.000000 0.000000 0.019945 0.000000 -0.002449
# 5 -0.000506 0.000420 0.010570 0.000000 0.036399 0.000000
# 6 0.000000 0.000000 0.000000 -0.002449 0.000000 0.034812
#
#
# Mechanical properties :
#
#
# Convention : Reuss Voigt Hill
#
# Bulk Modulus (GPa) = 45.42685 64.40419 54.91552
# Shear Modulus (GPa) = 31.62389 39.96577 35.79483
#
# Velocity S-wave (km/s) = 3.49229 3.92597 3.71547
# Velocity P-wave (km/s) = 5.81213 6.73715 6.29166
#
# Compressibility (1/GPa) = 0.02201341
#
# Stress axis : x y z
#
# Youngs Moduli (GPa) = 58.11607 164.57630 57.04386
#
# Poissons Ratio (x) = 0.02283 0.33387
# Poissons Ratio (y) = 0.00806 0.19443
# Poissons Ratio (z) = 0.34015 0.56095
#
# Static dielectric constant tensor:
#      x y z
#    x 2.153950 0.000000 0.057360 
#    y 0.000000 2.081830 0.000000 
#    z 0.057360 0.000000 2.097840 
# 
# From -- ./inp_files/172491.got.cif
#   From: 2010.05.17/outbox.cif.g08.bks.cpg/sg15_87_cif.got.tgz:172491.got - 2010.06.03 18:47:42.
