data_PCOD9298397
_publ_section_title
;
Structure prediction by ZEFSAII (Michael W. Deem and Ramdas Pophale) SiO2 
 PCOD9298397
Probable space group: C 2/C
;
_chemical_formula_sum "Si O2"
_cell_formula_units_Z 36
_cell_length_a 4.902154
_cell_length_b 14.467686
_cell_length_c 23.484093
_cell_angle_alpha 90.000000
_cell_angle_beta 117.295542
_cell_angle_gamma 90.000000
_cell_volume 1480.103163
_symmetry_space_group_name_H-M "C 2/C"
_symmetry_group_IT_number 15
_symmetry_cell_setting 'monoclinic'
loop_
_space_group_symop_operation_xyz
x,y,z
-x,y,1/2-z
-x,-y,-z
x,-y,1/2+z
1/2+x,1/2+y,z
1/2-x,1/2+y,1/2-z
1/2-x,1/2-y,-z
1/2+x,1/2-y,1/2+z
loop_
_atom_site_type_symbol
_atom_site_label
_atom_site_fract_x
_atom_site_fract_y
_atom_site_fract_z
Si Si1 0.259747 0.811595 0.621589
Si Si2 0.271251 0.932289 0.513442
Si Si3 0.695468 0.304113 0.095189
Si Si4 0.000000 0.594112 0.250000
Si Si5 0.157409 0.588667 0.709668
O O1 0.345986 0.887865 0.581953
O O2 0.529318 0.738904 0.634356
O O3 0.282201 0.847001 0.688448
O O4 0.912405 0.769984 0.582563
O O5 0.100632 0.848524 0.463912
O O6 0.500000 0.000000 0.500000
O O7 0.000000 0.000000 0.500000
O O8 0.949039 0.380747 0.137185
O O9 0.847052 0.521601 0.279548
O O10 0.500000 0.620596 0.750000
O O11 0.000000 0.629612 0.750000
#
# Coordination Sequence:
#
# PCOD9298397 Si02
#       5
#     8   8   8   4   8
#     4  12  27  45  74 110 149 187 245 312 374 436
#     4  12  26  50  77 105 145 196 250 302 370 448
#     4  12  26  46  74 106 147 190 248 308 376 432
#     4  10  28  42  74 104 154 186 252 290 374 446
#     4  10  24  44  69 100 147 191 247 289 364 437
#
# _framework density 24.322628999999999
#
# number of rings (size 3 to 8) (size 9 to 14) (size 15 to 20)
#    0.667    0.000    0.000    6.667    7.778    1.778 
#    0.000    0.000    0.000    0.000    0.000    0.000 
#    0.000    0.000    0.000    0.000    0.000    0.000 
#
# Total GULP energy -100305.463406 kJ/mol
# GULP energy per Si atom -5572.525745 kJ/mol
# Density = 2.426727 g / cm^3
# Si number density = 24.322629 Si / 1000 Ang^3
#
#
#
# Elastic Constant Matrix: (Units=GPa)
#
#
# Indices 1 2 3 4 5 6 
#
# 1 176.5429 43.1262 25.9236 0.0000 17.9872 0.0000
# 2 43.1262 97.1116 55.8481 0.0000 -4.5655 0.0000
# 3 25.9236 55.8481 141.7671 0.0000 -4.0586 0.0000
# 4 0.0000 0.0000 0.0000 39.8086 0.0000 6.0328
# 5 17.9872 -4.5655 -4.0586 0.0000 29.0935 0.0000
# 6 0.0000 0.0000 0.0000 6.0328 0.0000 42.3646
#
#
#
# Elastic Compliance Matrix: (Units=1/GPa)
#
#
# Indices 1 2 3 4 5 6 
#
# 1 0.006970 -0.003245 -0.000135 0.000000 -0.004837 0.000000
# 2 -0.003245 0.014879 -0.005164 0.000000 0.003621 0.000000
# 3 -0.000135 -0.005164 0.009129 0.000000 0.000546 0.000000
# 4 0.000000 0.000000 0.000000 0.025674 0.000000 -0.003656
# 5 -0.004837 0.003621 0.000546 0.000000 0.038007 0.000000
# 6 0.000000 0.000000 0.000000 -0.003656 0.000000 0.024125
#
#
# Mechanical properties :
#
#
# Convention : Reuss Voigt Hill
#
# Bulk Modulus (GPa) = 72.00011 73.91307 72.95659
# Shear Modulus (GPa) = 35.58695 41.62158 38.60427
#
# Velocity S-wave (km/s) = 3.82923 4.14119 3.98826
# Velocity P-wave (km/s) = 7.01548 7.30209 7.16022
#
# Compressibility (1/GPa) = 0.01388887
#
# Stress axis : x y z
#
# Youngs Moduli (GPa) = 143.47890 67.20992 109.54701
#
# Poissons Ratio (x) = 0.21811 0.01474
# Poissons Ratio (y) = 0.46562 0.56573
# Poissons Ratio (z) = 0.01930 0.34709
#
# Static dielectric constant tensor:
#      x y z
#    x 1.911150 0.000000 -0.035270 
#    y 0.000000 1.970260 0.000000 
#    z -0.035270 0.000000 1.799210 
# 
# From -- ./inp_files/285523.got.cif
#   From: 2010.05.17/outbox.cif.g08.bks.cpg/sg15_143_cif.got.tgz:285523.got - 2010.06.03 18:47:42.
