data_PCOD9298718
_publ_section_title
;
Structure prediction by ZEFSAII (Michael W. Deem and Ramdas Pophale) SiO2 
 PCOD9298718
Probable space group: C 2/C
;
_chemical_formula_sum "Si O2"
_cell_formula_units_Z 32
_cell_length_a 4.887155
_cell_length_b 32.144688
_cell_length_c 8.229796
_cell_angle_alpha 90.000000
_cell_angle_beta 74.179549
_cell_angle_gamma 90.000000
_cell_volume 1243.895730
_symmetry_space_group_name_H-M "C 2/C"
_symmetry_group_IT_number 15
_symmetry_cell_setting 'monoclinic'
loop_
_space_group_symop_operation_xyz
x,y,z
-x,y,1/2-z
-x,-y,-z
x,-y,1/2+z
1/2+x,1/2+y,z
1/2-x,1/2+y,1/2-z
1/2-x,1/2-y,-z
1/2+x,1/2-y,1/2+z
loop_
_atom_site_type_symbol
_atom_site_label
_atom_site_fract_x
_atom_site_fract_y
_atom_site_fract_z
Si Si1 0.224550 0.885932 0.565156
Si Si2 0.737539 0.559083 0.500020
Si Si3 0.000000 0.231729 0.250000
Si Si4 0.000000 0.509547 0.750000
Si Si5 0.598706 0.306179 0.410888
O O1 0.518746 0.906352 0.568180
O O2 0.281443 0.842852 0.463071
O O3 0.000000 0.880762 0.750000
O O4 0.059387 0.917845 0.473034
O O5 0.832958 0.537168 0.649070
O O6 0.772389 0.521906 0.366013
O O7 0.247309 0.263452 0.160871
O O8 0.088160 0.206401 0.398878
O O9 0.500000 0.322105 0.250000
#
# Coordination Sequence:
#
# PCOD9298718 Si02
#       5
#     8   8   4   4   8
#     4  12  25  46  67 104 143 186 230 296 356 423
#     4  11  26  44  69  99 139 183 237 290 357 418
#     4  10  24  49  68 106 138 182 244 292 354 423
#     4  10  24  45  70  98 134 186 236 294 350 423
#     4  11  25  44  73 101 142 187 238 291 359 423
#
# _framework density 25.725629000000001
#
# number of rings (size 3 to 8) (size 9 to 14) (size 15 to 20)
#    0.000    1.000    3.750    0.750    7.000    6.000 
#    0.000    0.000    0.000    0.000    0.000    0.000 
#    0.000    0.000    0.000    0.000    0.000    0.000 
#
# Total GULP energy -89522.447894 kJ/mol
# GULP energy per Si atom -5595.152993 kJ/mol
# Density = 2.566708 g / cm^3
# Si number density = 25.725629 Si / 1000 Ang^3
#
#
#
# Elastic Constant Matrix: (Units=GPa)
#
#
# Indices 1 2 3 4 5 6 
#
# 1 79.6920 14.8475 14.7941 0.0000 6.2512 0.0000
# 2 14.8475 102.6570 59.9219 0.0000 17.8527 0.0000
# 3 14.7941 59.9219 147.8925 0.0000 20.5845 0.0000
# 4 0.0000 0.0000 0.0000 108.1053 0.0000 -29.0801
# 5 6.2512 17.8527 20.5845 0.0000 36.2328 0.0000
# 6 0.0000 0.0000 0.0000 -29.0801 0.0000 52.4082
#
#
#
# Elastic Compliance Matrix: (Units=1/GPa)
#
#
# Indices 1 2 3 4 5 6 
#
# 1 0.013002 -0.001316 -0.000592 0.000000 -0.001258 0.000000
# 2 -0.001316 0.013349 -0.004770 0.000000 -0.003640 0.000000
# 3 -0.000592 -0.004770 0.009135 0.000000 -0.002737 0.000000
# 4 0.000000 0.000000 0.000000 0.010873 0.000000 0.006033
# 5 -0.001258 -0.003640 -0.002737 0.000000 0.031165 0.000000
# 6 0.000000 0.000000 0.000000 0.006033 0.000000 0.022429
#
#
# Mechanical properties :
#
#
# Convention : Reuss Voigt Hill
#
# Bulk Modulus (GPa) = 45.19031 56.59651 50.89341
# Shear Modulus (GPa) = 41.42976 55.39446 48.41211
#
# Velocity S-wave (km/s) = 4.01739 4.64538 4.34275
# Velocity P-wave (km/s) = 6.25489 7.12885 6.70612
#
# Compressibility (1/GPa) = 0.02212864
#
# Stress axis : x y z
#
# Youngs Moduli (GPa) = 76.91036 74.91159 109.47296
#
# Poissons Ratio (x) = 0.09858 0.06484
# Poissons Ratio (y) = 0.10121 0.52223
# Poissons Ratio (z) = 0.04555 0.35736
#
# Static dielectric constant tensor:
#      x y z
#    x 1.987210 0.000000 -0.049310 
#    y 0.000000 1.968950 0.000000 
#    z -0.049310 0.000000 2.165390 
# 
# From -- ./inp_files/20162.got.cif
#   From: 2010.05.17/outbox.cif.g08.bks.cpg/sg15_11_cif.got.tgz:20162.got - 2010.06.03 18:47:42.
