data_PCOD9298756
_publ_section_title
;
Structure prediction by ZEFSAII (Michael W. Deem and Ramdas Pophale) SiO2 
 PCOD9298756
Probable space group: C 2/C
;
_chemical_formula_sum "Si O2"
_cell_formula_units_Z 52
_cell_length_a 8.022447
_cell_length_b 14.312772
_cell_length_c 31.728392
_cell_angle_alpha 90.000000
_cell_angle_beta 140.562458
_cell_angle_gamma 90.000000
_cell_volume 2314.271199
_symmetry_space_group_name_H-M "C 2/C"
_symmetry_group_IT_number 15
_symmetry_cell_setting 'monoclinic'
loop_
_space_group_symop_operation_xyz
x,y,z
-x,y,1/2-z
-x,-y,-z
x,-y,1/2+z
1/2+x,1/2+y,z
1/2-x,1/2+y,1/2-z
1/2-x,1/2-y,-z
1/2+x,1/2-y,1/2+z
loop_
_atom_site_type_symbol
_atom_site_label
_atom_site_fract_x
_atom_site_fract_y
_atom_site_fract_z
Si Si1 0.421682 0.657226 0.533106
Si Si2 0.172313 0.855688 0.989856
Si Si3 0.102410 0.087696 0.145593
Si Si4 0.459303 0.013765 0.435074
Si Si5 0.750005 0.922918 0.184921
Si Si6 0.000000 0.257121 0.750000
Si Si7 0.146181 0.613245 0.817964
O O1 0.250000 0.750000 0.500000
O O2 0.582717 0.636916 0.521252
O O3 0.210594 0.575364 0.493474
O O4 0.609330 0.659240 0.610427
O O5 0.942797 0.882398 0.912076
O O6 0.250000 0.750000 0.000000
O O7 0.434052 0.913781 0.028019
O O8 0.255899 0.168989 0.201384
O O9 0.809973 0.062341 0.104119
O O10 0.256934 0.989807 0.176993
O O11 0.411212 0.986434 0.377505
O O12 0.570033 0.895238 0.188265
O O13 0.000000 0.979713 0.250000
O O14 0.883487 0.824255 0.194937
O O15 0.000000 0.660099 0.750000
#
# Coordination Sequence:
#
# PCOD9298756 Si02
#       7
#     8   8   8   8   8   4   8
#     4  12  28  47  74 111 151 192 255 313 370 449
#     4  12  25  44  74 106 148 190 249 308 371 436
#     4  12  25  43  73 109 144 195 251 305 374 452
#     4  12  24  47  73 106 148 198 246 303 378 440
#     4  10  24  45  72  98 148 194 242 301 376 440
#     4  10  26  44  70 106 150 190 250 308 380 440
#     4  12  25  47  74 101 144 190 240 301 377 444
#
# _framework density 22.469277000000002
#
# number of rings (size 3 to 8) (size 9 to 14) (size 15 to 20)
#    0.462    0.000    3.846    4.615    4.308    1.231 
#    0.000    0.769    0.000    0.000    0.000    0.000 
#    0.000    0.000    0.000    0.000    0.000    0.000 
#
# Total GULP energy -144895.765620 kJ/mol
# GULP energy per Si atom -5572.914062 kJ/mol
# Density = 2.241814 g / cm^3
# Si number density = 22.469277 Si / 1000 Ang^3
#
#
#
# Elastic Constant Matrix: (Units=GPa)
#
#
# Indices 1 2 3 4 5 6 
#
# 1 89.3388 26.2436 62.9977 0.0000 7.2401 0.0000
# 2 26.2436 48.1195 13.6971 -0.0001 3.1012 0.0000
# 3 62.9977 13.6971 179.3050 -0.0013 4.5759 -0.0005
# 4 0.0000 -0.0001 -0.0013 -15.1452 -0.0002 -8.5113
# 5 7.2401 3.1012 4.5759 -0.0002 36.9249 -0.0001
# 6 0.0000 0.0000 -0.0005 -8.5113 -0.0001 12.2260
#
#
#
# Elastic Compliance Matrix: (Units=1/GPa)
#
#
# Indices 1 2 3 4 5 6 
#
# 1 0.017567 -0.007875 -0.005517 0.000000 -0.002099 0.000000
# 2 -0.007875 0.024867 0.000884 0.000000 -0.000654 0.000000
# 3 -0.005517 0.000884 0.007446 -0.000001 0.000085 0.000000
# 4 0.000000 0.000000 -0.000001 -0.047460 0.000000 -0.033040
# 5 -0.002099 -0.000654 0.000085 0.000000 0.027538 0.000000
# 6 0.000000 0.000000 0.000000 -0.033040 0.000000 0.058792
#
#
# Mechanical properties :
#
#
# Convention : Reuss Voigt Hill
#
# Bulk Modulus (GPa) = 40.21919 58.07111 49.14515
# Shear Modulus (GPa) = 40.96539 21.05613 31.01076
#
# Velocity S-wave (km/s) = 4.27450 3.06454 3.71905
# Velocity P-wave (km/s) = 6.50386 6.19860 6.35307
#
# Compressibility (1/GPa) = 0.02486375
#
# Stress axis : x y z
#
# Youngs Moduli (GPa) = 56.92444 40.21374 134.30493
#
# Poissons Ratio (x) = 0.31669 0.74095
# Poissons Ratio (y) = 0.44829 -0.11872
# Poissons Ratio (z) = 0.31405 -0.03555
#
# Static dielectric constant tensor:
#      x y z
#    x 1.876340 0.000000 -0.037470 
#    y 0.000000 1.752830 0.000000 
#    z -0.037470 0.000000 1.932770 
# 
# From -- ./inp_files/308320.got.cif
#   From: 2010.05.17/outbox.cif.g08.bks.cpg/sg15_155_cif.got.tgz:308320.got - 2010.06.03 18:47:42.
