data_PCOD9298449
_publ_section_title
;
Structure prediction by ZEFSAII (Michael W. Deem and Ramdas Pophale) SiO2 
 PCOD9298449
Probable space group: C 2/C
;
_chemical_formula_sum "Si O2"
_cell_formula_units_Z 40
_cell_length_a 11.300227
_cell_length_b 11.059231
_cell_length_c 14.099000
_cell_angle_alpha 90.000000
_cell_angle_beta 68.451555
_cell_angle_gamma 90.000000
_cell_volume 1638.828409
_symmetry_space_group_name_H-M "C 2/C"
_symmetry_group_IT_number 15
_symmetry_cell_setting 'monoclinic'
loop_
_space_group_symop_operation_xyz
x,y,z
-x,y,1/2-z
-x,-y,-z
x,-y,1/2+z
1/2+x,1/2+y,z
1/2-x,1/2+y,1/2-z
1/2-x,1/2-y,-z
1/2+x,1/2-y,1/2+z
loop_
_atom_site_type_symbol
_atom_site_label
_atom_site_fract_x
_atom_site_fract_y
_atom_site_fract_z
Si Si1 0.500000 0.017506 0.750000
Si Si2 0.645917 0.833802 0.480859
Si Si3 0.500000 0.393582 0.250000
Si Si4 0.882567 0.318526 0.674144
Si Si5 0.307570 0.567999 0.408863
Si Si6 0.014221 0.256046 0.137621
O O1 0.390730 0.929661 0.745384
O O2 0.447515 0.107153 0.846440
O O3 0.750000 0.750000 0.500000
O O4 0.511869 0.831035 0.574834
O O5 0.611145 0.776923 0.388134
O O6 0.699381 0.969921 0.464875
O O7 0.598191 0.306669 0.276729
O O8 0.418026 0.476703 0.342690
O O9 0.761309 0.344494 0.646726
O O10 0.386789 0.668464 0.445182
O O11 0.000000 0.206029 0.250000
#
# Coordination Sequence:
#
# PCOD9298449 Si02
#       6
#     4   8   4   8   8   8
#     4   9  21  44  68 100 141 181 238 286 354 423
#     4  12  26  49  70 107 151 185 241 297 355 431
#     4  11  25  44  66 112 133 193 238 290 360 427
#     4  11  25  44  74 102 144 192 230 299 365 413
#     4  12  24  44  74  99 147 183 242 294 351 433
#     4  10  24  44  70 106 139 188 236 293 354 422
#
# _framework density 24.407681
#
# number of rings (size 3 to 8) (size 9 to 14) (size 15 to 20)
#    0.600    0.400    5.000    0.600    5.600    1.600 
#    0.000    0.000    0.000    0.000    0.000    0.000 
#    0.000    0.000    0.000    0.000    0.000    0.000 
#
# Total GULP energy -111630.831039 kJ/mol
# GULP energy per Si atom -5581.541552 kJ/mol
# Density = 2.435213 g / cm^3
# Si number density = 24.407681 Si / 1000 Ang^3
#
#
#
# Elastic Constant Matrix: (Units=GPa)
#
#
# Indices 1 2 3 4 5 6 
#
# 1 150.9391 70.1541 34.2812 0.0000 6.8890 0.0000
# 2 70.1541 154.2696 30.7627 0.0000 10.7805 0.0000
# 3 34.2812 30.7627 42.4496 0.0000 12.7028 0.0000
# 4 0.0000 0.0000 0.0000 12.5477 0.0000 -14.4966
# 5 6.8890 10.7805 12.7028 0.0000 27.2280 0.0000
# 6 0.0000 0.0000 0.0000 -14.4966 0.0000 23.3544
#
#
#
# Elastic Compliance Matrix: (Units=1/GPa)
#
#
# Indices 1 2 3 4 5 6 
#
# 1 0.009342 -0.003226 -0.005673 0.000000 0.001560 0.000000
# 2 -0.003226 0.008697 -0.003384 0.000000 -0.001049 0.000000
# 3 -0.005673 -0.003384 0.034590 0.000000 -0.013362 0.000000
# 4 0.000000 0.000000 0.000000 0.281744 0.000000 0.174885
# 5 0.001560 -0.001049 -0.013362 0.000000 0.042981 0.000000
# 6 0.000000 0.000000 0.000000 0.174885 0.000000 0.151374
#
#
# Mechanical properties :
#
#
# Convention : Reuss Voigt Hill
#
# Bulk Modulus (GPa) = 35.63465 68.67270 52.15367
# Shear Modulus (GPa) = 8.88654 26.79004 17.83829
#
# Velocity S-wave (km/s) = 1.91018 3.31661 2.70635
# Velocity P-wave (km/s) = 4.41548 6.54701 5.58390
#
# Compressibility (1/GPa) = 0.02806258
#
# Stress axis : x y z
#
# Youngs Moduli (GPa) = 107.04490 114.97966 28.91030
#
# Poissons Ratio (x) = 0.37092 0.16402
# Poissons Ratio (y) = 0.34532 0.09783
# Poissons Ratio (z) = 0.60731 0.38906
#
# Static dielectric constant tensor:
#      x y z
#    x 1.958290 0.000000 -0.020650 
#    y 0.000000 1.915630 0.000000 
#    z -0.020650 0.000000 2.191150 
# 
# From -- ./inp_files/142166.got.cif
#   From: 2010.05.17/outbox.cif.g08.bks.cpg/sg15_72_cif.got.tgz:142166.got - 2010.06.03 18:47:42.
