data_PCOD9298596
_publ_section_title
;
Structure prediction by ZEFSAII (Michael W. Deem and Ramdas Pophale) SiO2 
 PCOD9298596
Probable space group: C 2/C
;
_chemical_formula_sum "Si O2"
_cell_formula_units_Z 28
_cell_length_a 19.168695
_cell_length_b 4.806564
_cell_length_c 12.490756
_cell_angle_alpha 90.000000
_cell_angle_beta 60.176287
_cell_angle_gamma 90.000000
_cell_volume 998.424822
_symmetry_space_group_name_H-M "C 2/C"
_symmetry_group_IT_number 15
_symmetry_cell_setting 'monoclinic'
loop_
_space_group_symop_operation_xyz
x,y,z
-x,y,1/2-z
-x,-y,-z
x,-y,1/2+z
1/2+x,1/2+y,z
1/2-x,1/2+y,1/2-z
1/2-x,1/2-y,-z
1/2+x,1/2-y,1/2+z
loop_
_atom_site_type_symbol
_atom_site_label
_atom_site_fract_x
_atom_site_fract_y
_atom_site_fract_z
Si Si1 0.539891 0.688213 0.584611
Si Si2 0.000000 0.653027 0.750000
Si Si3 0.369848 0.331312 0.141707
Si Si4 0.250673 0.498002 0.915328
O O1 0.508274 0.388442 0.652143
O O2 0.609150 0.588637 0.452925
O O3 0.456259 0.804666 0.601209
O O4 0.563033 0.920784 0.654877
O O5 0.313627 0.112632 0.123872
O O6 0.327629 0.554036 0.780438
O O7 0.250000 0.250000 0.000000
O O8 0.250000 0.750000 0.000000
#
# Coordination Sequence:
#
# PCOD9298596 Si02
#       4
#     8   4   8   8
#     4  10  26  48  84 114 168 209 285 349 398 495
#     4  10  24  44  78 126 150 216 268 340 426 472
#     4  11  28  54  78 125 163 220 279 349 409 500
#     4  12  30  50  82 118 170 220 270 339 425 498
#
# _framework density 28.044174000000002
#
# number of rings (size 3 to 8) (size 9 to 14) (size 15 to 20)
#    0.000    1.143    0.000    1.714   12.000   13.714 
#    0.000    0.000    0.000    0.000    0.000    0.000 
#    0.000    0.000    0.000    0.000    0.000    0.000 
#
# Total GULP energy -78166.084973 kJ/mol
# GULP energy per Si atom -5583.291784 kJ/mol
# Density = 2.798034 g / cm^3
# Si number density = 28.044174 Si / 1000 Ang^3
#
#
#
# Elastic Constant Matrix: (Units=GPa)
#
#
# Indices 1 2 3 4 5 6 
#
# 1 108.9016 58.6306 50.2397 0.0015 -16.1305 0.0027
# 2 58.6306 251.0439 105.0925 0.0070 -10.4523 0.0176
# 3 50.2397 105.0925 289.0169 0.0006 -14.8983 0.0006
# 4 0.0015 0.0070 0.0006 57.9106 -0.0005 6.7215
# 5 -16.1305 -10.4523 -14.8983 -0.0005 33.4596 0.0004
# 6 0.0027 0.0176 0.0006 6.7215 0.0004 45.9435
#
#
#
# Elastic Compliance Matrix: (Units=1/GPa)
#
#
# Indices 1 2 3 4 5 6 
#
# 1 0.011409 -0.002059 -0.001007 0.000000 0.004408 0.000000
# 2 -0.002059 0.005087 -0.001496 0.000000 -0.000069 -0.000002
# 3 -0.001007 -0.001496 0.004227 0.000000 0.000929 0.000001
# 4 0.000000 0.000000 0.000000 0.017566 0.000000 -0.002570
# 5 0.004408 -0.000069 0.000929 0.000000 0.032404 -0.000001
# 6 0.000000 -0.000002 0.000001 -0.002570 -0.000001 0.022142
#
#
# Mechanical properties :
#
#
# Convention : Reuss Voigt Hill
#
# Bulk Modulus (GPa) = 86.21327 119.65424 102.93375
# Shear Modulus (GPa) = 47.24745 56.46272 51.85509
#
# Velocity S-wave (km/s) = 4.10902 4.49190 4.30472
# Velocity P-wave (km/s) = 7.30211 8.34637 7.84164
#
# Compressibility (1/GPa) = 0.01159914
#
# Stress axis : x y z
#
# Youngs Moduli (GPa) = 87.65076 196.56043 236.58667
#
# Poissons Ratio (x) = 0.40479 0.23827
# Poissons Ratio (y) = 0.18051 0.35382
# Poissons Ratio (z) = 0.08828 0.29396
#
# Static dielectric constant tensor:
#      x y z
#    x 2.488880 0.000020 0.069520 
#    y 0.000020 2.174410 0.000000 
#    z 0.069520 0.000000 2.260240 
# 
# From -- ./inp_files/207659.got.cif
#   From: 2010.05.17/outbox.cif.g08.bks.cpg/sg15_104_cif.got.tgz:207659.got - 2010.06.03 18:47:42.
