data_PCOD9298023
_publ_section_title
;
Structure prediction by ZEFSAII (Michael W. Deem and Ramdas Pophale) SiO2 
 PCOD9298023
Probable space group: C 2/C
;
_chemical_formula_sum "Si O2"
_cell_formula_units_Z 48
_cell_length_a 7.183709
_cell_length_b 27.111151
_cell_length_c 14.343448
_cell_angle_alpha 90.000000
_cell_angle_beta 121.921145
_cell_angle_gamma 90.000000
_cell_volume 2371.066058
_symmetry_space_group_name_H-M "C 2/C"
_symmetry_group_IT_number 15
_symmetry_cell_setting 'monoclinic'
loop_
_space_group_symop_operation_xyz
x,y,z
-x,y,1/2-z
-x,-y,-z
x,-y,1/2+z
1/2+x,1/2+y,z
1/2-x,1/2+y,1/2-z
1/2-x,1/2-y,-z
1/2+x,1/2-y,1/2+z
loop_
_atom_site_type_symbol
_atom_site_label
_atom_site_fract_x
_atom_site_fract_y
_atom_site_fract_z
Si Si1 0.547689 0.370756 0.653979
Si Si2 0.520717 0.922887 0.152943
Si Si3 0.500000 0.549669 0.750000
Si Si4 0.803385 0.317335 0.060564
Si Si5 0.500000 0.174809 0.250000
Si Si6 0.632671 0.476203 0.949997
Si Si7 0.492386 0.237618 0.436063
O O1 0.500000 0.362969 0.750000
O O2 0.399669 0.333616 0.556915
O O3 0.791279 0.359891 0.686630
O O4 0.480988 0.425739 0.610874
O O5 0.500000 0.945729 0.250000
O O6 0.781991 0.918639 0.210019
O O7 0.413351 0.868300 0.123049
O O8 0.377784 0.958104 0.046016
O O9 0.592092 0.514460 0.856150
O O10 0.690645 0.281429 0.106731
O O11 0.957794 0.289877 0.026498
O O12 0.457222 0.206351 0.332340
O O13 0.500000 0.500000 0.000000
O O14 0.750000 0.250000 0.500000
#
# Coordination Sequence:
#
# PCOD9298023 Si02
#       7
#     8   8   4   8   4   8   8
#     4  11  22  42  66  97 133 173 225 285 338 402
#     4  11  25  44  68  99 138 180 224 281 340 413
#     4  12  24  44  71 100 138 182 230 279 348 404
#     4  10  24  43  65  93 134 171 220 280 341 392
#     4  12  24  38  71 100 130 178 232 273 348 412
#     4  11  24  45  72 100 137 180 233 284 342 409
#     4  11  23  41  66  95 129 172 225 278 332 411
#
# _framework density 20.244057999999999
#
# number of rings (size 3 to 8) (size 9 to 14) (size 15 to 20)
#    0.000    1.000    5.833    0.500    0.000    5.333 
#    0.000    0.000    0.000    0.000    0.000    0.000 
#    0.000    0.000    0.000    0.000    0.000    0.000 
#
# Total GULP energy -133848.773224 kJ/mol
# GULP energy per Si atom -5577.032218 kJ/mol
# Density = 2.019798 g / cm^3
# Si number density = 20.244058 Si / 1000 Ang^3
#
#
#
# Elastic Constant Matrix: (Units=GPa)
#
#
# Indices 1 2 3 4 5 6 
#
# 1 131.9666 14.9280 41.3977 0.0000 28.8855 0.0000
# 2 14.9280 26.1901 14.4456 0.0000 9.7134 0.0000
# 3 41.3977 14.4456 96.0927 0.0000 14.3325 0.0000
# 4 0.0000 0.0000 0.0000 670.0764 0.0000 -335.8415
# 5 28.8855 9.7134 14.3325 0.0000 44.5623 0.0000
# 6 0.0000 0.0000 0.0000 -335.8415 0.0000 173.1950
#
#
#
# Elastic Compliance Matrix: (Units=1/GPa)
#
#
# Indices 1 2 3 4 5 6 
#
# 1 0.009899 -0.002034 -0.003223 0.000000 -0.004937 0.000000
# 2 -0.002034 0.044526 -0.004796 0.000000 -0.006844 0.000000
# 3 -0.003223 -0.004796 0.012656 0.000000 -0.000936 0.000000
# 4 0.000000 0.000000 0.000000 0.053056 0.000000 0.102880
# 5 -0.004937 -0.006844 -0.000936 0.000000 0.027434 0.000000
# 6 0.000000 0.000000 0.000000 0.102880 0.000000 0.205267
#
#
# Mechanical properties :
#
#
# Convention : Reuss Voigt Hill
#
# Bulk Modulus (GPa) = 21.28812 43.97688 32.63250
# Shear Modulus (GPa) = 12.86667 189.79863 101.33265
#
# Velocity S-wave (km/s) = 2.52380 9.69323 7.08267
# Velocity P-wave (km/s) = 4.36249 12.12637 9.11263
#
# Compressibility (1/GPa) = 0.04697456
#
# Stress axis : x y z
#
# Youngs Moduli (GPa) = 101.01733 22.45898 79.01644
#
# Poissons Ratio (x) = 0.04568 0.25464
# Poissons Ratio (y) = 0.20547 0.37900
# Poissons Ratio (z) = 0.32554 0.10772
#
# Static dielectric constant tensor:
#      x y z
#    x 1.666830 0.000000 0.033500 
#    y 0.000000 1.726990 0.000000 
#    z 0.033500 0.000000 1.734840 
# 
# From -- ./inp_files/130329.got.cif
#   From: 2010.05.17/outbox.cif.g08.bks.cpg/sg15_66_cif.got.tgz:130329.got - 2010.06.03 18:47:42.
