data_PCOD9298758
_publ_section_title
;
Structure prediction by ZEFSAII (Michael W. Deem and Ramdas Pophale) SiO2 
 PCOD9298758
Probable space group: C 2/C
;
_chemical_formula_sum "Si O2"
_cell_formula_units_Z 28
_cell_length_a 11.010868
_cell_length_b 9.887611
_cell_length_c 14.498941
_cell_angle_alpha 90.000000
_cell_angle_beta 133.233859
_cell_angle_gamma 90.000000
_cell_volume 1150.050467
_symmetry_space_group_name_H-M "C 2/C"
_symmetry_group_IT_number 15
_symmetry_cell_setting 'monoclinic'
loop_
_space_group_symop_operation_xyz
x,y,z
-x,y,1/2-z
-x,-y,-z
x,-y,1/2+z
1/2+x,1/2+y,z
1/2-x,1/2+y,1/2-z
1/2-x,1/2-y,-z
1/2+x,1/2-y,1/2+z
loop_
_atom_site_type_symbol
_atom_site_label
_atom_site_fract_x
_atom_site_fract_y
_atom_site_fract_z
Si Si1 0.313682 0.354457 0.613182
Si Si2 0.226241 0.066753 0.061276
Si Si3 0.131957 0.834103 0.133692
Si Si4 0.000000 0.227730 0.750000
O O1 0.500000 0.336600 0.750000
O O2 0.250000 0.250000 0.500000
O O3 0.298339 0.494440 0.550171
O O4 0.196042 0.312718 0.637051
O O5 0.373099 0.172609 0.132253
O O6 0.249561 0.947909 0.149210
O O7 0.053533 0.138029 0.001270
O O8 0.109124 0.847643 0.230489
#
# Coordination Sequence:
#
# PCOD9298758 Si02
#       4
#     8   8   8   4
#     4  10  24  45  73 100 135 184 230 280 341 407
#     4  10  25  45  66 103 136 183 226 283 344 404
#     4  10  25  43  67  97 142 172 232 282 336 403
#     4  12  26  40  72 106 134 178 232 280 350 408
#
# _framework density 24.346755999999999
#
# number of rings (size 3 to 8) (size 9 to 14) (size 15 to 20)
#    0.000    1.714    0.000    0.857   22.000    1.143 
#    0.000    0.000    0.000    0.000    0.000    0.000 
#    0.000    0.000    0.000    0.000    0.000    0.000 
#
# Total GULP energy -78239.170472 kJ/mol
# GULP energy per Si atom -5588.512177 kJ/mol
# Density = 2.429134 g / cm^3
# Si number density = 24.346756 Si / 1000 Ang^3
#
#
#
# Elastic Constant Matrix: (Units=GPa)
#
#
# Indices 1 2 3 4 5 6 
#
# 1 104.7438 36.0317 17.1407 0.0000 -34.0830 0.0000
# 2 36.0317 58.9172 31.4383 0.0000 -5.2027 0.0000
# 3 17.1407 31.4383 118.5402 0.0000 -10.1995 0.0000
# 4 0.0000 0.0000 0.0000 44.2816 0.0000 -13.7390
# 5 -34.0830 -5.2027 -10.1995 0.0000 50.5433 0.0000
# 6 0.0000 0.0000 0.0000 -13.7390 0.0000 41.0600
#
#
#
# Elastic Compliance Matrix: (Units=1/GPa)
#
#
# Indices 1 2 3 4 5 6 
#
# 1 0.015823 -0.009360 0.001048 0.000000 0.009918 0.000000
# 2 -0.009360 0.025357 -0.005791 0.000000 -0.004870 0.000000
# 3 0.001048 -0.005791 0.010003 0.000000 0.002129 0.000000
# 4 0.000000 0.000000 0.000000 0.025199 0.000000 0.008432
# 5 0.009918 -0.004870 0.002129 0.000000 0.026401 0.000000
# 6 0.000000 0.000000 0.000000 0.008432 0.000000 0.027176
#
#
# Mechanical properties :
#
#
# Convention : Reuss Voigt Hill
#
# Bulk Modulus (GPa) = 43.52066 50.15805 46.83936
# Shear Modulus (GPa) = 30.15257 40.34968 35.25112
#
# Velocity S-wave (km/s) = 3.52300 4.07540 3.80923
# Velocity P-wave (km/s) = 5.87051 6.54152 6.21507
#
# Compressibility (1/GPa) = 0.02297759
#
# Stress axis : x y z
#
# Youngs Moduli (GPa) = 63.20089 39.43693 99.96615
#
# Poissons Ratio (x) = 0.36912 -0.10474
# Poissons Ratio (y) = 0.59155 0.57886
# Poissons Ratio (z) = -0.06622 0.22836
#
# Static dielectric constant tensor:
#      x y z
#    x 1.908080 0.000000 -0.072970 
#    y 0.000000 2.055450 0.000000 
#    z -0.072970 0.000000 2.001360 
# 
# From -- ./inp_files/83542.got.cif
#   From: 2010.05.17/outbox.cif.g08.bks.cpg/sg15_42_cif.got.tgz:83542.got - 2010.06.03 18:47:42.
