data_PCOD9298875
_publ_section_title
;
Structure prediction by ZEFSAII (Michael W. Deem and Ramdas Pophale) SiO2 
 PCOD9298875
Probable space group: C 2/C
;
_chemical_formula_sum "Si O2"
_cell_formula_units_Z 52
_cell_length_a 28.655556
_cell_length_b 19.606275
_cell_length_c 9.101122
_cell_angle_alpha 90.000000
_cell_angle_beta 28.567942
_cell_angle_gamma 90.000000
_cell_volume 2445.169241
_symmetry_space_group_name_H-M "C 2/C"
_symmetry_group_IT_number 15
_symmetry_cell_setting 'monoclinic'
loop_
_space_group_symop_operation_xyz
x,y,z
-x,y,1/2-z
-x,-y,-z
x,-y,1/2+z
1/2+x,1/2+y,z
1/2-x,1/2+y,1/2-z
1/2-x,1/2-y,-z
1/2+x,1/2-y,1/2+z
loop_
_atom_site_type_symbol
_atom_site_label
_atom_site_fract_x
_atom_site_fract_y
_atom_site_fract_z
Si Si1 0.135548 0.031402 0.626159
Si Si2 0.500000 0.490117 0.750000
Si Si3 0.687583 0.231876 0.026707
Si Si4 0.513143 0.171140 0.874339
Si Si5 0.234786 0.352204 0.858906
Si Si6 0.552770 0.052344 0.252970
Si Si7 0.253103 0.603218 0.649729
O O1 0.063148 0.034860 0.688026
O O2 0.225384 0.081454 0.339514
O O3 0.157677 0.949684 0.581931
O O4 0.077405 0.050871 0.935211
O O5 0.572923 0.227790 0.391749
O O6 0.750000 0.250000 0.000000
O O7 0.696305 0.290382 0.880207
O O8 0.735948 0.164094 0.815441
O O9 0.500000 0.137404 0.750000
O O10 0.627439 0.173081 0.599859
O O11 0.470633 0.126029 0.121364
O O12 0.239546 0.368549 0.020367
O O13 0.500000 0.043394 0.250000
O O14 0.500000 0.000000 0.500000
O O15 0.666503 0.049547 0.920190
#
# Coordination Sequence:
#
# PCOD9298875 Si02
#       7
#     8   4   8   8   8   8   8
#     4  11  24  46  74 104 143 184 242 296 362 427
#     4  10  24  46  68 108 140 184 242 302 354 434
#     4  11  26  45  69 104 142 191 243 297 359 424
#     4  11  23  44  67  96 144 178 241 288 350 427
#     4  12  24  48  73 104 142 192 236 299 362 431
#     4  11  22  37  63 103 139 182 223 281 356 418
#     4  11  25  44  71 102 144 186 233 297 358 429
#
# _framework density 21.266421000000001
#
# number of rings (size 3 to 8) (size 9 to 14) (size 15 to 20)
#    0.000    0.923    4.615    1.846    2.154    0.000 
#    6.923    0.000    0.000    0.000    0.000    0.000 
#    0.000    0.000    0.000    0.000    0.000    0.000 
#
# Total GULP energy -144774.952440 kJ/mol
# GULP energy per Si atom -5568.267402 kJ/mol
# Density = 2.121802 g / cm^3
# Si number density = 21.266421 Si / 1000 Ang^3
#
#
#
# Elastic Constant Matrix: (Units=GPa)
#
#
# Indices 1 2 3 4 5 6 
#
# 1 121.8941 36.1471 59.0298 0.0000 12.0047 0.0000
# 2 36.1471 82.1173 32.8500 0.0000 -1.9784 0.0000
# 3 59.0298 32.8500 124.6787 0.0000 4.7215 0.0000
# 4 0.0000 0.0000 0.0000 50.2321 0.0000 17.9386
# 5 12.0047 -1.9784 4.7215 0.0000 40.6034 0.0000
# 6 0.0000 0.0000 0.0000 17.9386 0.0000 46.1251
#
#
#
# Elastic Compliance Matrix: (Units=1/GPa)
#
#
# Indices 1 2 3 4 5 6 
#
# 1 0.011717 -0.003421 -0.004529 0.000000 -0.003104 0.000000
# 2 -0.003421 0.014659 -0.002318 0.000000 0.001995 0.000000
# 3 -0.004529 -0.002318 0.010777 0.000000 -0.000027 0.000000
# 4 0.000000 0.000000 0.000000 0.023118 0.000000 -0.008991
# 5 -0.003104 0.001995 -0.000027 0.000000 0.025647 0.000000
# 6 0.000000 0.000000 0.000000 -0.008991 0.000000 0.025177
#
#
# Mechanical properties :
#
#
# Convention : Reuss Voigt Hill
#
# Bulk Modulus (GPa) = 60.17891 64.97156 62.57524
# Shear Modulus (GPa) = 36.45134 40.76967 38.61050
#
# Velocity S-wave (km/s) = 4.14458 4.38321 4.26556
# Velocity P-wave (km/s) = 7.15978 7.49895 7.33133
#
# Compressibility (1/GPa) = 0.01661712
#
# Stress axis : x y z
#
# Youngs Moduli (GPa) = 85.34529 68.21747 92.79408
#
# Poissons Ratio (x) = 0.23337 0.42023
# Poissons Ratio (y) = 0.29196 0.21512
# Poissons Ratio (z) = 0.38650 0.15814
#
# Static dielectric constant tensor:
#      x y z
#    x 1.770770 0.000000 -0.045610 
#    y 0.000000 1.761630 0.000000 
#    z -0.045610 0.000000 1.888070 
# 
# From -- ./inp_files/70804.got.cif
#   From: 2010.05.17/outbox.cif.g08.bks.cpg/sg15_36_cif.got.tgz:70804.got - 2010.06.03 18:47:42.
