data_PCOD9298022
_publ_section_title
;
Structure prediction by ZEFSAII (Michael W. Deem and Ramdas Pophale) SiO2 
 PCOD9298022
Probable space group: C 2/C
;
_chemical_formula_sum "Si O2"
_cell_formula_units_Z 40
_cell_length_a 20.011109
_cell_length_b 11.227185
_cell_length_c 20.844897
_cell_angle_alpha 90.000000
_cell_angle_beta 20.708181
_cell_angle_gamma 90.000000
_cell_volume 1656.015407
_symmetry_space_group_name_H-M "C 2/C"
_symmetry_group_IT_number 15
_symmetry_cell_setting 'monoclinic'
loop_
_space_group_symop_operation_xyz
x,y,z
-x,y,1/2-z
-x,-y,-z
x,-y,1/2+z
1/2+x,1/2+y,z
1/2-x,1/2+y,1/2-z
1/2-x,1/2-y,-z
1/2+x,1/2-y,1/2+z
loop_
_atom_site_type_symbol
_atom_site_label
_atom_site_fract_x
_atom_site_fract_y
_atom_site_fract_z
Si Si1 0.183229 0.656403 0.114098
Si Si2 0.362266 0.387663 0.814009
Si Si3 0.381917 0.307650 0.025826
Si Si4 0.126789 0.390829 0.361099
Si Si5 0.595318 0.620870 0.772694
O O1 0.117561 0.743104 0.230114
O O2 0.000000 0.589824 0.250000
O O3 0.250000 0.750000 0.000000
O O4 0.372835 0.592016 0.965534
O O5 0.500000 0.368171 0.750000
O O6 0.464303 0.377199 0.653023
O O7 0.207665 0.285292 0.945139
O O8 0.301331 0.525969 0.867644
O O9 0.224981 0.387079 0.202452
O O10 0.490930 0.224790 0.979574
O O11 0.300622 0.385453 0.253626
O O12 0.000000 0.500000 0.500000
#
# Coordination Sequence:
#
# PCOD9298022 Si02
#       5
#     8   8   8   8   8
#     4   9  19  37  57  90 128 164 211 260 316 388
#     4  11  22  42  66  94 130 172 222 275 329 389
#     4  10  24  43  65  93 132 174 224 276 323 393
#     4  11  22  44  65  96 131 173 221 270 332 393
#     4  11  21  39  65  92 131 171 212 268 331 387
#
# _framework density 24.154364999999999
#
# number of rings (size 3 to 8) (size 9 to 14) (size 15 to 20)
#    0.000    1.600    2.000    3.600    0.000    0.800 
#   10.800    3.000    0.000    0.000    0.000    0.000 
#    0.000    0.000    0.000    0.000    0.000    0.000 
#
# Total GULP energy -111650.839983 kJ/mol
# GULP energy per Si atom -5582.541999 kJ/mol
# Density = 2.409939 g / cm^3
# Si number density = 24.154365 Si / 1000 Ang^3
#
#
#
# Elastic Constant Matrix: (Units=GPa)
#
#
# Indices 1 2 3 4 5 6 
#
# 1 111.1538 25.2553 30.4493 0.0023 -40.8091 0.0006
# 2 25.2553 73.8484 11.7487 0.0088 -2.8973 -0.0016
# 3 30.4493 11.7487 68.2195 0.0067 -1.7739 -0.0044
# 4 0.0023 0.0088 0.0067 33.2795 -0.0020 -1.3832
# 5 -40.8091 -2.8973 -1.7739 -0.0020 52.0886 0.0007
# 6 0.0006 -0.0016 -0.0044 -1.3832 0.0007 21.8691
#
#
#
# Elastic Compliance Matrix: (Units=1/GPa)
#
#
# Indices 1 2 3 4 5 6 
#
# 1 0.016061 -0.004036 -0.006158 0.000002 0.012149 -0.000002
# 2 -0.004036 0.014962 -0.000837 -0.000004 -0.002359 0.000001
# 3 -0.006158 -0.000837 0.017440 -0.000003 -0.004277 0.000004
# 4 0.000002 -0.000004 -0.000003 0.030128 0.000002 0.001906
# 5 0.012149 -0.002359 -0.004277 0.000002 0.028439 -0.000002
# 6 -0.000002 0.000001 0.000004 0.001906 -0.000002 0.045847
#
#
# Mechanical properties :
#
#
# Convention : Reuss Voigt Hill
#
# Bulk Modulus (GPa) = 37.87603 43.12535 40.50069
# Shear Modulus (GPa) = 27.21267 33.83200 30.52234
#
# Velocity S-wave (km/s) = 3.36015 3.74660 3.55862
# Velocity P-wave (km/s) = 5.54698 6.05052 5.80421
#
# Compressibility (1/GPa) = 0.02640192
#
# Stress axis : x y z
#
# Youngs Moduli (GPa) = 62.26394 66.83517 57.34013
#
# Poissons Ratio (x) = 0.26977 0.35307
# Poissons Ratio (y) = 0.25132 0.04797
# Poissons Ratio (z) = 0.38339 0.05591
#
# Static dielectric constant tensor:
#      x y z
#    x 1.906540 0.000000 0.021970 
#    y 0.000000 2.081010 -0.000010 
#    z 0.021970 -0.000010 1.996110 
# 
# From -- ./inp_files/46266.got.cif
#   From: 2010.05.17/outbox.cif.g08.bks.cpg/sg15_24_cif.got.tgz:46266.got - 2010.06.03 18:47:42.
