data_PCOD9298274
_publ_section_title
;
Structure prediction by ZEFSAII (Michael W. Deem and Ramdas Pophale) SiO2 
 PCOD9298274
Probable space group: C 2/C
;
_chemical_formula_sum "Si O2"
_cell_formula_units_Z 44
_cell_length_a 6.405223
_cell_length_b 13.967427
_cell_length_c 23.776443
_cell_angle_alpha 90.000000
_cell_angle_beta 65.297722
_cell_angle_gamma 90.000000
_cell_volume 1932.495303
_symmetry_space_group_name_H-M "C 2/C"
_symmetry_group_IT_number 15
_symmetry_cell_setting 'monoclinic'
loop_
_space_group_symop_operation_xyz
x,y,z
-x,y,1/2-z
-x,-y,-z
x,-y,1/2+z
1/2+x,1/2+y,z
1/2-x,1/2+y,1/2-z
1/2-x,1/2-y,-z
1/2+x,1/2-y,1/2+z
loop_
_atom_site_type_symbol
_atom_site_label
_atom_site_fract_x
_atom_site_fract_y
_atom_site_fract_z
Si Si1 0.227992 0.385532 0.979459
Si Si2 0.337111 0.291999 0.081387
Si Si3 0.000000 0.648761 0.250000
Si Si4 0.608068 0.203535 0.794869
Si Si5 0.252885 0.498850 0.794699
Si Si6 0.281937 0.573028 0.918337
O O1 0.186536 0.320608 0.928855
O O2 0.354165 0.483011 0.948651
O O3 0.359209 0.334245 0.015732
O O4 0.972317 0.401789 0.032028
O O5 0.543706 0.338382 0.093811
O O6 0.096392 0.316346 0.138349
O O7 0.203766 0.719596 0.207554
O O8 0.072006 0.578623 0.292931
O O9 0.500000 0.242214 0.750000
O O10 0.718041 0.100906 0.767759
O O11 0.500000 0.460204 0.750000
O O12 0.260279 0.530655 0.858466
#
# Coordination Sequence:
#
# PCOD9298274 Si02
#       6
#     8   8   4   8   8   8
#     4  10  24  44  65 106 140 187 234 284 356 418
#     4  11  24  44  71 101 141 184 236 293 349 426
#     4  12  30  48  72 104 144 190 238 296 372 428
#     4  12  26  47  72 104 142 188 239 299 364 428
#     4  12  26  47  72 104 142 188 239 299 364 428
#     4  11  24  44  71 101 141 184 236 293 349 426
#
# _framework density 22.768488000000001
#
# number of rings (size 3 to 8) (size 9 to 14) (size 15 to 20)
#    0.000    0.727    3.636    2.727    5.091    0.000 
#   13.091    0.000    0.000    0.000    0.000    0.000 
#    0.000    0.000    0.000    0.000    0.000    0.000 
#
# Total GULP energy -122956.738455 kJ/mol
# GULP energy per Si atom -5588.942657 kJ/mol
# Density = 2.271667 g / cm^3
# Si number density = 22.768488 Si / 1000 Ang^3
#
#
#
# Elastic Constant Matrix: (Units=GPa)
#
#
# Indices 1 2 3 4 5 6 
#
# 1 83.4004 37.3504 24.3633 0.0000 8.8411 0.0000
# 2 37.3504 105.1670 0.7759 0.0000 7.7301 0.0000
# 3 24.3633 0.7759 40.0091 0.0000 6.9522 0.0000
# 4 0.0000 0.0000 0.0000 -156.5990 0.0000 22.7754
# 5 8.8411 7.7301 6.9522 0.0000 29.3548 0.0000
# 6 0.0000 0.0000 0.0000 22.7754 0.0000 55.7714
#
#
#
# Elastic Compliance Matrix: (Units=1/GPa)
#
#
# Indices 1 2 3 4 5 6 
#
# 1 0.018020 -0.006228 -0.010632 0.000000 -0.001269 0.000000
# 2 -0.006228 0.011852 0.003941 0.000000 -0.002179 0.000000
# 3 -0.010632 0.003941 0.032347 0.000000 -0.005497 0.000000
# 4 0.000000 0.000000 0.000000 -0.006028 0.000000 0.002462
# 5 -0.001269 -0.002179 -0.005497 0.000000 0.036324 0.000000
# 6 0.000000 0.000000 0.000000 0.002462 0.000000 0.016925
#
#
# Mechanical properties :
#
#
# Convention : Reuss Voigt Hill
#
# Bulk Modulus (GPa) = 27.48643 39.28395 33.38519
# Shear Modulus (GPa) = 33.92033 -3.22208 15.34912
#
# Velocity S-wave (km/s) = 3.86397 -1.19089 2.59924
# Velocity P-wave (km/s) = 5.65733 3.92430 4.86855
#
# Compressibility (1/GPa) = 0.03638159
#
# Stress axis : x y z
#
# Youngs Moduli (GPa) = 55.49414 84.37634 30.91458
#
# Poissons Ratio (x) = 0.52550 0.32868
# Poissons Ratio (y) = 0.34562 -0.12184
# Poissons Ratio (z) = 0.59000 -0.33255
#
# Static dielectric constant tensor:
#      x y z
#    x 1.865300 0.000000 0.049230 
#    y 0.000000 1.901420 0.000000 
#    z 0.049230 0.000000 1.841870 
# 
# From -- ./inp_files/285402.got.cif
#   From: 2010.05.17/outbox.cif.g08.bks.cpg/sg15_143_cif.got.tgz:285402.got - 2010.06.03 18:47:42.
