data_PCOD9298843
_publ_section_title
;
Structure prediction by ZEFSAII (Michael W. Deem and Ramdas Pophale) SiO2 
 PCOD9298843
Probable space group: C 2/C
;
_chemical_formula_sum "Si O2"
_cell_formula_units_Z 56
_cell_length_a 25.983196
_cell_length_b 19.640856
_cell_length_c 8.319977
_cell_angle_alpha 90.000000
_cell_angle_beta 145.938291
_cell_angle_gamma 90.000000
_cell_volume 2378.096180
_symmetry_space_group_name_H-M "C 2/C"
_symmetry_group_IT_number 15
_symmetry_cell_setting 'monoclinic'
loop_
_space_group_symop_operation_xyz
x,y,z
-x,y,1/2-z
-x,-y,-z
x,-y,1/2+z
1/2+x,1/2+y,z
1/2-x,1/2+y,1/2-z
1/2-x,1/2-y,-z
1/2+x,1/2-y,1/2+z
loop_
_atom_site_type_symbol
_atom_site_label
_atom_site_fract_x
_atom_site_fract_y
_atom_site_fract_z
Si Si1 0.545569 0.429363 0.694134
Si Si2 0.500000 0.787346 0.250000
Si Si3 0.753642 0.389007 0.196153
Si Si4 0.873405 0.597886 0.519525
Si Si5 0.094118 0.476933 0.072016
Si Si6 0.000000 0.894651 0.250000
Si Si7 0.309891 0.360719 0.811446
Si Si8 0.834151 0.736191 0.095819
O O1 0.500000 0.420449 0.750000
O O2 0.500000 0.500000 0.500000
O O3 0.518982 0.374172 0.486899
O O4 0.655961 0.420745 0.000568
O O5 0.568510 0.833970 0.322021
O O6 0.572778 0.755078 0.560162
O O7 0.820684 0.448082 0.308365
O O8 0.806814 0.337379 0.450968
O O9 0.732090 0.349653 0.973046
O O10 0.898440 0.558022 0.423153
O O11 0.901532 0.549747 0.738180
O O12 0.766695 0.611624 0.266398
O O13 0.000000 0.453075 0.750000
O O14 0.107164 0.914647 0.497233
O O15 0.340952 0.289908 0.968177
O O16 0.750000 0.750000 0.000000
#
# Coordination Sequence:
#
# PCOD9298843 Si02
#       8
#     8   4   8   8   8   4   8   8
#     4  11  24  42  71 104 150 191 245 294 369 438
#     4  12  26  44  70 108 142 184 242 296 366 434
#     4  10  26  45  70 104 140 190 237 294 368 429
#     4  11  24  41  67 100 141 173 230 287 349 435
#     4  11  23  40  68  98 139 182 225 282 360 425
#     4  10  24  46  66 106 138 196 240 302 358 436
#     4  10  24  49  70  98 142 182 244 301 355 428
#     4  12  26  47  73 101 142 187 242 300 359 423
#
# _framework density 23.548247
#
# number of rings (size 3 to 8) (size 9 to 14) (size 15 to 20)
#    0.000    1.143    2.857    1.714    6.000    3.429 
#    6.429    0.000    0.000    0.000    0.000    0.000 
#    0.000    0.000    0.000    0.000    0.000    0.000 
#
# Total GULP energy -156052.746461 kJ/mol
# GULP energy per Si atom -5573.312374 kJ/mol
# Density = 2.349465 g / cm^3
# Si number density = 23.548247 Si / 1000 Ang^3
#
#
#
# Elastic Constant Matrix: (Units=GPa)
#
#
# Indices 1 2 3 4 5 6 
#
# 1 128.1303 21.2978 46.4356 0.0000 11.2728 0.0000
# 2 21.2978 64.1267 45.5309 0.0000 -7.7719 0.0000
# 3 46.4356 45.5309 152.8153 0.0000 3.7427 0.0000
# 4 0.0000 0.0000 0.0000 31.5301 0.0000 -9.0686
# 5 11.2728 -7.7719 3.7427 0.0000 55.6600 0.0000
# 6 0.0000 0.0000 0.0000 -9.0686 0.0000 8.2544
#
#
#
# Elastic Compliance Matrix: (Units=1/GPa)
#
#
# Indices 1 2 3 4 5 6 
#
# 1 0.009050 -0.001673 -0.002205 0.000000 -0.001918 0.000000
# 2 -0.001673 0.020659 -0.005735 0.000000 0.003609 0.000000
# 3 -0.002205 -0.005735 0.008946 0.000000 -0.000956 0.000000
# 4 0.000000 0.000000 0.000000 0.046367 0.000000 0.050940
# 5 -0.001918 0.003609 -0.000956 0.000000 0.018923 0.000000
# 6 0.000000 0.000000 0.000000 0.050940 0.000000 0.177112
#
#
# Mechanical properties :
#
#
# Convention : Reuss Voigt Hill
#
# Bulk Modulus (GPa) = 51.46764 63.51124 57.48944
# Shear Modulus (GPa) = 16.29937 34.54277 25.42107
#
# Velocity S-wave (km/s) = 2.63376 3.83416 3.28919
# Velocity P-wave (km/s) = 5.58146 6.82864 6.23630
#
# Compressibility (1/GPa) = 0.01942968
#
# Stress axis : x y z
#
# Youngs Moduli (GPa) = 110.49230 48.40401 111.78109
#
# Poissons Ratio (x) = 0.08098 0.24644
# Poissons Ratio (y) = 0.18485 0.64112
# Poissons Ratio (z) = 0.24360 0.27762
#
# Static dielectric constant tensor:
#      x y z
#    x 1.867500 0.000000 -0.008220 
#    y 0.000000 2.010820 0.000000 
#    z -0.008220 0.000000 1.927520 
# 
# From -- ./inp_files/70861.got.cif
#   From: 2010.05.17/outbox.cif.g08.bks.cpg/sg15_36_cif.got.tgz:70861.got - 2010.06.03 18:47:42.
