data_PCOD9298389
_publ_section_title
;
Structure prediction by ZEFSAII (Michael W. Deem and Ramdas Pophale) SiO2 
 PCOD9298389
Probable space group: C 2/C
;
_chemical_formula_sum "Si O2"
_cell_formula_units_Z 40
_cell_length_a 8.755218
_cell_length_b 12.062700
_cell_length_c 15.623608
_cell_angle_alpha 90.000000
_cell_angle_beta 81.287091
_cell_angle_gamma 90.000000
_cell_volume 1630.991992
_symmetry_space_group_name_H-M "C 2/C"
_symmetry_group_IT_number 15
_symmetry_cell_setting 'monoclinic'
loop_
_space_group_symop_operation_xyz
x,y,z
-x,y,1/2-z
-x,-y,-z
x,-y,1/2+z
1/2+x,1/2+y,z
1/2-x,1/2+y,1/2-z
1/2-x,1/2-y,-z
1/2+x,1/2-y,1/2+z
loop_
_atom_site_type_symbol
_atom_site_label
_atom_site_fract_x
_atom_site_fract_y
_atom_site_fract_z
Si Si1 0.692498 0.597106 0.850969
Si Si2 0.502903 0.780784 0.942461
Si Si3 0.000000 0.536079 0.750000
Si Si4 0.500000 0.562395 0.250000
Si Si5 0.304143 0.593648 0.017495
Si Si6 0.224468 0.556389 0.376960
O O1 0.596003 0.709172 0.865007
O O2 0.616579 0.518951 0.787336
O O3 0.666130 0.519497 0.935887
O O4 0.871992 0.606354 0.812208
O O5 0.349231 0.848625 0.932023
O O6 0.631624 0.870770 0.955217
O O7 0.435695 0.687101 0.011190
O O8 0.098477 0.467124 0.812556
O O9 0.379304 0.615146 0.327201
O O10 0.273504 0.556918 0.921549
#
# Coordination Sequence:
#
# PCOD9298389 Si02
#       6
#     8   8   4   4   8   8
#     4  11  23  47  69  99 137 175 222 281 326 399
#     4  11  24  41  74  99 129 183 222 268 345 384
#     4  10  24  44  68  98 144 170 214 290 332 380
#     4  10  24  44  68  98 144 170 214 290 332 380
#     4  11  24  47  68 100 136 175 224 281 320 402
#     4  11  23  47  69  99 137 175 222 281 326 399
#
# _framework density 24.524951000000001
#
# number of rings (size 3 to 8) (size 9 to 14) (size 15 to 20)
#    0.000    1.200    4.000    1.200    0.000    2.400 
#    0.000    0.000    0.000    0.000    0.000    0.000 
#    0.000    0.000    0.000    0.000    0.000    0.000 
#
# Total GULP energy -111555.204069 kJ/mol
# GULP energy per Si atom -5577.760203 kJ/mol
# Density = 2.446913 g / cm^3
# Si number density = 24.524951 Si / 1000 Ang^3
#
#
#
# Elastic Constant Matrix: (Units=GPa)
#
#
# Indices 1 2 3 4 5 6 
#
# 1 149.0955 38.2087 46.1656 0.0000 -49.0004 0.0000
# 2 38.2087 83.1328 13.1937 0.0000 -10.3212 0.0000
# 3 46.1656 13.1937 59.3836 0.0000 -4.4301 0.0000
# 4 0.0000 0.0000 0.0000 29.5252 0.0000 -34.8966
# 5 -49.0004 -10.3212 -4.4301 0.0000 68.3124 0.0000
# 6 0.0000 0.0000 0.0000 -34.8966 0.0000 64.1808
#
#
#
# Elastic Compliance Matrix: (Units=1/GPa)
#
#
# Indices 1 2 3 4 5 6 
#
# 1 0.013036 -0.003583 -0.008723 0.000000 0.008243 0.000000
# 2 -0.003583 0.013656 -0.000287 0.000000 -0.000526 0.000000
# 3 -0.008723 -0.000287 0.023328 0.000000 -0.004788 0.000000
# 4 0.000000 0.000000 0.000000 0.094777 0.000000 0.051533
# 5 0.008243 -0.000526 -0.004788 0.000000 0.020162 0.000000
# 6 0.000000 0.000000 0.000000 0.051533 0.000000 0.043601
#
#
# Mechanical properties :
#
#
# Convention : Reuss Voigt Hill
#
# Bulk Modulus (GPa) = 40.27091 54.08309 47.17700
# Shear Modulus (GPa) = 20.65910 45.33993 32.99951
#
# Velocity S-wave (km/s) = 2.90551 4.30435 3.67215
# Velocity P-wave (km/s) = 5.26422 6.84130 6.10391
#
# Compressibility (1/GPa) = 0.02483182
#
# Stress axis : x y z
#
# Youngs Moduli (GPa) = 76.71331 73.22621 42.86754
#
# Poissons Ratio (x) = 0.26240 0.37393
# Poissons Ratio (y) = 0.27490 0.01232
# Poissons Ratio (z) = 0.66916 0.02105
#
# Static dielectric constant tensor:
#      x y z
#    x 1.866680 0.000000 -0.115880 
#    y 0.000000 1.929440 0.000000 
#    z -0.115880 0.000000 2.048680 
# 
# From -- ./inp_files/46120.got.cif
#   From: 2010.05.17/outbox.cif.g08.bks.cpg/sg15_24_cif.got.tgz:46120.got - 2010.06.03 18:47:42.
