data_PCOD9298379
_publ_section_title
;
Structure prediction by ZEFSAII (Michael W. Deem and Ramdas Pophale) SiO2 
 PCOD9298379
Probable space group: C 2/C
;
_chemical_formula_sum "Si O2"
_cell_formula_units_Z 36
_cell_length_a 14.564549
_cell_length_b 12.175698
_cell_length_c 11.937308
_cell_angle_alpha 90.000000
_cell_angle_beta 127.890346
_cell_angle_gamma 90.000000
_cell_volume 1670.619507
_symmetry_space_group_name_H-M "C 2/C"
_symmetry_group_IT_number 15
_symmetry_cell_setting 'monoclinic'
loop_
_space_group_symop_operation_xyz
x,y,z
-x,y,1/2-z
-x,-y,-z
x,-y,1/2+z
1/2+x,1/2+y,z
1/2-x,1/2+y,1/2-z
1/2-x,1/2-y,-z
1/2+x,1/2-y,1/2+z
loop_
_atom_site_type_symbol
_atom_site_label
_atom_site_fract_x
_atom_site_fract_y
_atom_site_fract_z
Si Si1 0.930894 0.644204 0.878547
Si Si2 0.298767 0.692053 0.424747
Si Si3 0.500000 0.283005 0.750000
Si Si4 0.883638 0.984559 0.611564
Si Si5 0.682573 0.078704 0.137962
O O1 0.897147 0.726125 0.952979
O O2 0.857323 0.534044 0.832333
O O3 0.910263 0.708683 0.748505
O O4 0.067346 0.615715 0.985423
O O5 0.250000 0.750000 0.500000
O O6 0.337408 0.569477 0.487499
O O7 0.215156 0.669042 0.255815
O O8 0.436653 0.366319 0.616378
O O9 0.000000 0.040092 0.750000
O O10 0.788034 0.953699 0.633907
#
# Coordination Sequence:
#
# PCOD9298379 Si02
#       5
#     8   8   4   8   8
#     4  11  26  44  70 102 138 183 222 288 346 399
#     4  12  25  44  73  99 138 185 226 280 346 406
#     4  10  24  44  68  98 132 178 222 284 346 388
#     4  10  24  45  66 104 131 176 232 282 338 406
#     4  11  26  45  66 105 138 174 238 278 339 419
#
# _framework density 21.548893
#
# number of rings (size 3 to 8) (size 9 to 14) (size 15 to 20)
#    0.667    0.444    4.444    0.000    6.222    6.222 
#    0.000    0.000    0.000    0.000    0.000    0.000 
#    0.000    0.000    0.000    0.000    0.000    0.000 
#
# Total GULP energy -100372.201410 kJ/mol
# GULP energy per Si atom -5576.233412 kJ/mol
# Density = 2.149985 g / cm^3
# Si number density = 21.548893 Si / 1000 Ang^3
#
#
#
# Elastic Constant Matrix: (Units=GPa)
#
#
# Indices 1 2 3 4 5 6 
#
# 1 108.0854 19.1909 9.9909 0.0000 4.2247 0.0000
# 2 19.1909 99.1835 6.2302 0.0000 -3.7123 0.0000
# 3 9.9909 6.2302 28.0462 0.0000 9.6211 0.0000
# 4 0.0000 0.0000 0.0000 38.4342 0.0000 -22.0350
# 5 4.2247 -3.7123 9.6211 0.0000 30.8495 0.0000
# 6 0.0000 0.0000 0.0000 -22.0350 0.0000 18.1636
#
#
#
# Elastic Compliance Matrix: (Units=1/GPa)
#
#
# Indices 1 2 3 4 5 6 
#
# 1 0.009856 -0.001750 -0.002897 0.000000 -0.000657 0.000000
# 2 -0.001750 0.010667 -0.002541 0.000000 0.002316 0.000000
# 3 -0.002897 -0.002541 0.041680 0.000000 -0.012908 0.000000
# 4 0.000000 0.000000 0.000000 0.085450 0.000000 0.103663
# 5 -0.000657 0.002316 -0.012908 0.000000 0.036810 0.000000
# 6 0.000000 0.000000 0.000000 0.103663 0.000000 0.180813
#
#
# Mechanical properties :
#
#
# Convention : Reuss Voigt Hill
#
# Bulk Modulus (GPa) = 20.90818 34.01547 27.46182
# Shear Modulus (GPa) = 12.63923 30.81634 21.72778
#
# Velocity S-wave (km/s) = 2.42448 3.78572 3.17882
# Velocity P-wave (km/s) = 4.19061 5.91003 5.12297
#
# Compressibility (1/GPa) = 0.04782818
#
# Stress axis : x y z
#
# Youngs Moduli (GPa) = 101.46047 93.74601 23.99246
#
# Poissons Ratio (x) = 0.16402 0.06951
# Poissons Ratio (y) = 0.17752 0.06096
# Poissons Ratio (z) = 0.29394 0.23818
#
# Static dielectric constant tensor:
#      x y z
#    x 1.772170 0.000000 0.007160 
#    y 0.000000 1.784770 0.000000 
#    z 0.007160 0.000000 1.797570 
# 
# From -- ./inp_files/94774.got.cif
#   From: 2010.05.17/outbox.cif.g08.bks.cpg/sg15_48_cif.got.tgz:94774.got - 2010.06.03 18:47:42.
