data_PCOD9298150
_publ_section_title
;
Structure prediction by ZEFSAII (Michael W. Deem and Ramdas Pophale) SiO2 
 PCOD9298150
Probable space group: C 2/C
;
_chemical_formula_sum "Si O2"
_cell_formula_units_Z 44
_cell_length_a 15.190507
_cell_length_b 5.080045
_cell_length_c 25.619181
_cell_angle_alpha 90.000000
_cell_angle_beta 125.455251
_cell_angle_gamma 90.000000
_cell_volume 1610.396607
_symmetry_space_group_name_H-M "C 2/C"
_symmetry_group_IT_number 15
_symmetry_cell_setting 'monoclinic'
loop_
_space_group_symop_operation_xyz
x,y,z
-x,y,1/2-z
-x,-y,-z
x,-y,1/2+z
1/2+x,1/2+y,z
1/2-x,1/2+y,1/2-z
1/2-x,1/2-y,-z
1/2+x,1/2-y,1/2+z
loop_
_atom_site_type_symbol
_atom_site_label
_atom_site_fract_x
_atom_site_fract_y
_atom_site_fract_z
Si Si1 0.266675 0.711727 0.169010
Si Si2 0.482076 0.822965 0.115945
Si Si3 0.099879 0.337808 0.057397
Si Si4 0.500000 0.506853 0.750000
Si Si5 0.140254 0.404801 0.734954
Si Si6 0.130467 0.854079 0.461128
O O1 0.189796 0.556514 0.102921
O O2 0.388651 0.632969 0.194821
O O3 0.214316 0.637507 0.208823
O O4 0.287407 0.021189 0.189550
O O5 0.559873 0.712031 0.097171
O O6 0.559978 0.856252 0.191786
O O7 0.385788 0.618615 0.077030
O O8 0.444104 0.117129 0.087034
O O9 0.119065 0.121247 0.019842
O O10 0.000000 0.500000 0.000000
O O11 0.554203 0.688539 0.723356
O O12 0.250000 0.750000 0.500000
#
# Coordination Sequence:
#
# PCOD9298150 Si02
#       6
#     8   8   8   4   8   8
#     4  11  24  46  73 105 148 195 244 319 373 456
#     4  10  24  43  70  96 143 186 235 303 362 437
#     4   9  22  45  69 101 139 192 242 299 374 439
#     4  12  26  44  72 108 144 192 248 300 392 444
#     4  11  25  45  72 106 143 195 246 313 378 448
#     4  11  23  41  67 104 138 187 239 298 357 437
#
# _framework density 27.322458999999998
#
# number of rings (size 3 to 8) (size 9 to 14) (size 15 to 20)
#    0.000    1.455    1.818    1.636    5.091    2.909 
#    6.545    0.000    0.000    0.000    0.000    0.000 
#    0.000    0.000    0.000    0.000    0.000    0.000 
#
# Total GULP energy -122862.105977 kJ/mol
# GULP energy per Si atom -5584.641181 kJ/mol
# Density = 2.726027 g / cm^3
# Si number density = 27.322459 Si / 1000 Ang^3
#
#
#
# Elastic Constant Matrix: (Units=GPa)
#
#
# Indices 1 2 3 4 5 6 
#
# 1 153.4648 2.7284 18.9235 -0.0001 27.6194 0.0003
# 2 2.7284 79.1980 6.7200 -0.0013 0.3355 0.0010
# 3 18.9235 6.7200 95.1534 -0.0004 17.3956 0.0003
# 4 -0.0001 -0.0013 -0.0004 31.8323 0.0001 10.4249
# 5 27.6194 0.3355 17.3956 0.0001 45.4250 -0.0002
# 6 0.0003 0.0010 0.0003 10.4249 -0.0002 37.1676
#
#
#
# Elastic Compliance Matrix: (Units=1/GPa)
#
#
# Indices 1 2 3 4 5 6 
#
# 1 0.007362 -0.000178 -0.000681 0.000000 -0.004214 0.000000
# 2 -0.000178 0.012710 -0.000930 0.000001 0.000370 -0.000001
# 3 -0.000681 -0.000930 0.011434 0.000000 -0.003958 0.000000
# 4 0.000000 0.000001 0.000000 0.034592 0.000000 -0.009702
# 5 -0.004214 0.000370 -0.003958 0.000000 0.026089 0.000000
# 6 0.000000 -0.000001 0.000000 -0.009702 0.000000 0.029626
#
#
# Mechanical properties :
#
#
# Convention : Reuss Voigt Hill
#
# Bulk Modulus (GPa) = 35.80674 42.72886 39.26780
# Shear Modulus (GPa) = 37.11925 42.84794 39.98359
#
# Velocity S-wave (km/s) = 3.68987 3.96439 3.82959
# Velocity P-wave (km/s) = 5.59349 6.05209 5.82731
#
# Compressibility (1/GPa) = 0.02792771
#
# Stress axis : x y z
#
# Youngs Moduli (GPa) = 135.83834 78.67785 87.45840
#
# Poissons Ratio (x) = 0.01400 0.05957
# Poissons Ratio (y) = 0.02417 0.08133
# Poissons Ratio (z) = 0.09252 0.07317
#
# Static dielectric constant tensor:
#      x y z
#    x 2.228200 0.000000 -0.072750 
#    y 0.000000 2.356500 0.000000 
#    z -0.072750 0.000000 2.299080 
# 
# From -- ./inp_files/297871.got.cif
#   From: 2010.05.17/outbox.cif.g08.bks.cpg/sg15_149_cif.got.tgz:297871.got - 2010.06.03 18:47:42.
