data_PCOD9298547
_publ_section_title
;
Structure prediction by ZEFSAII (Michael W. Deem and Ramdas Pophale) SiO2 
 PCOD9298547
Probable space group: C 2/C
;
_chemical_formula_sum "Si O2"
_cell_formula_units_Z 48
_cell_length_a 8.915602
_cell_length_b 30.562473
_cell_length_c 8.747220
_cell_angle_alpha 90.000000
_cell_angle_beta 87.033359
_cell_angle_gamma 90.000000
_cell_volume 2380.273160
_symmetry_space_group_name_H-M "C 2/C"
_symmetry_group_IT_number 15
_symmetry_cell_setting 'monoclinic'
loop_
_space_group_symop_operation_xyz
x,y,z
-x,y,1/2-z
-x,-y,-z
x,-y,1/2+z
1/2+x,1/2+y,z
1/2-x,1/2+y,1/2-z
1/2-x,1/2-y,-z
1/2+x,1/2-y,1/2+z
loop_
_atom_site_type_symbol
_atom_site_label
_atom_site_fract_x
_atom_site_fract_y
_atom_site_fract_z
Si Si1 0.752546 0.887857 0.955685
Si Si2 0.613136 0.521004 0.113511
Si Si3 0.900114 0.465116 0.107157
Si Si4 0.836561 0.369237 0.196898
Si Si5 0.746595 0.699435 0.458001
Si Si6 0.500000 0.152281 0.250000
Si Si7 0.000000 0.164061 0.250000
O O1 0.788331 0.938852 0.947337
O O2 0.605289 0.875546 0.861542
O O3 0.888680 0.864021 0.862029
O O4 0.743447 0.877852 0.136321
O O5 0.500000 0.536343 0.250000
O O6 0.738225 0.485728 0.151143
O O7 0.500000 0.500000 0.000000
O O8 0.861805 0.412849 0.087541
O O9 0.000000 0.462141 0.250000
O O10 0.000000 0.500000 0.000000
O O11 0.000000 0.354323 0.250000
O O12 0.751688 0.332526 0.104467
O O13 0.750000 0.750000 0.500000
O O14 0.890411 0.682849 0.354379
O O15 0.603303 0.691279 0.359046
#
# Coordination Sequence:
#
# PCOD9298547 Si02
#       7
#     8   8   8   8   8   4   4
#     4  11  23  45  69 102 144 188 236 290 357 426
#     4  12  25  41  63  99 144 187 236 294 350 416
#     4  11  25  43  67 101 135 186 244 287 347 422
#     4  11  23  44  70 103 135 185 237 292 347 415
#     4  11  26  46  75 106 141 180 234 293 358 427
#     4  10  24  44  74 102 140 192 230 292 356 434
#     4  10  26  44  68 106 138 190 224 284 370 412
#
# _framework density 20.165751
#
# number of rings (size 3 to 8) (size 9 to 14) (size 15 to 20)
#    0.000    1.000    2.500    4.000    4.667    3.333 
#    0.000    3.333    0.000    0.000    0.000    0.000 
#    0.000    0.000    0.000    0.000    0.000    0.000 
#
# Total GULP energy -133856.179854 kJ/mol
# GULP energy per Si atom -5577.340827 kJ/mol
# Density = 2.011985 g / cm^3
# Si number density = 20.165751 Si / 1000 Ang^3
#
#
#
# Elastic Constant Matrix: (Units=GPa)
#
#
# Indices 1 2 3 4 5 6 
#
# 1 136.8193 65.9109 42.7245 0.0000 10.0557 0.0000
# 2 65.9109 164.6435 76.7052 0.0000 21.4995 0.0000
# 3 42.7245 76.7052 111.2064 0.0000 -11.8081 0.0000
# 4 0.0000 0.0000 0.0000 21.9609 0.0000 0.3662
# 5 10.0557 21.4995 -11.8081 0.0000 37.5233 0.0000
# 6 0.0000 0.0000 0.0000 0.3662 0.0000 15.7566
#
#
#
# Elastic Compliance Matrix: (Units=1/GPa)
#
#
# Indices 1 2 3 4 5 6 
#
# 1 0.009288 -0.002602 -0.001945 0.000000 -0.001610 0.000000
# 2 -0.002602 0.012157 -0.008329 0.000000 -0.008889 0.000000
# 3 -0.001945 -0.008329 0.016601 0.000000 0.010518 0.000000
# 4 0.000000 0.000000 0.000000 0.045553 0.000000 -0.001059
# 5 -0.001610 -0.008889 0.010518 0.000000 0.035485 0.000000
# 6 0.000000 0.000000 0.000000 -0.001059 0.000000 0.063490
#
#
# Mechanical properties :
#
#
# Convention : Reuss Voigt Hill
#
# Bulk Modulus (GPa) = 81.33919 87.03892 84.18905
# Shear Modulus (GPa) = 23.53789 30.20341 26.87065
#
# Velocity S-wave (km/s) = 3.42017 3.87429 3.65429
# Velocity P-wave (km/s) = 7.48463 7.95418 7.72297
#
# Compressibility (1/GPa) = 0.01229420
#
# Stress axis : x y z
#
# Youngs Moduli (GPa) = 107.66632 82.25943 60.23600
#
# Poissons Ratio (x) = 0.21404 0.11713
# Poissons Ratio (y) = 0.28015 0.50173
# Poissons Ratio (z) = 0.20936 0.68517
#
# Static dielectric constant tensor:
#      x y z
#    x 1.647610 0.000000 -0.022940 
#    y 0.000000 1.662290 0.000000 
#    z -0.022940 0.000000 1.720090 
# 
# From -- ./inp_files/26180.got.cif
#   From: 2010.05.17/outbox.cif.g08.bks.cpg/sg15_14_cif.got.tgz:26180.got - 2010.06.03 18:47:42.
