data_PCOD9298435
_publ_section_title
;
Structure prediction by ZEFSAII (Michael W. Deem and Ramdas Pophale) SiO2 
 PCOD9298435
Probable space group: C 2/C
;
_chemical_formula_sum "Si O2"
_cell_formula_units_Z 60
_cell_length_a 17.299752
_cell_length_b 9.323625
_cell_length_c 18.485589
_cell_angle_alpha 90.000000
_cell_angle_beta 61.642507
_cell_angle_gamma 90.000000
_cell_volume 2623.863435
_symmetry_space_group_name_H-M "C 2/C"
_symmetry_group_IT_number 15
_symmetry_cell_setting 'monoclinic'
loop_
_space_group_symop_operation_xyz
x,y,z
-x,y,1/2-z
-x,-y,-z
x,-y,1/2+z
1/2+x,1/2+y,z
1/2-x,1/2+y,1/2-z
1/2-x,1/2-y,-z
1/2+x,1/2-y,1/2+z
loop_
_atom_site_type_symbol
_atom_site_label
_atom_site_fract_x
_atom_site_fract_y
_atom_site_fract_z
Si Si1 0.280814 0.143216 0.422465
Si Si2 0.835655 0.839792 0.747824
Si Si3 0.598464 0.451508 0.034099
Si Si4 0.000000 0.733491 0.750000
Si Si5 0.200406 0.842502 0.230893
Si Si6 0.991786 0.762153 0.170418
Si Si7 0.044714 0.477529 0.100087
Si Si8 0.983966 0.210544 0.061543
O O1 0.250000 0.250000 0.500000
O O2 0.195102 0.042434 0.458606
O O3 0.290603 0.233851 0.342847
O O4 0.362133 0.048568 0.416795
O O5 0.762817 0.718099 0.766200
O O6 0.910330 0.819457 0.775605
O O7 0.896896 0.819184 0.648593
O O8 0.784227 0.987945 0.785866
O O9 0.575822 0.362260 0.116529
O O10 0.558805 0.607435 0.059664
O O11 0.541171 0.354845 0.004403
O O12 0.015676 0.629000 0.676281
O O13 0.098418 0.844805 0.298796
O O14 0.000000 0.716169 0.250000
O O15 0.985741 0.618315 0.127039
O O16 0.022740 0.371021 0.043896
#
# Coordination Sequence:
#
# PCOD9298435 Si02
#       8
#     8   8   8   4   8   8   8   8
#     4  12  24  43  68  99 141 182 237 294 349 423
#     4  11  26  44  74 103 143 179 239 297 351 429
#     4  11  23  45  69  94 142 186 231 287 359 425
#     4  10  24  44  70 102 140 184 226 290 368 410
#     4  12  26  43  71 105 141 183 241 294 355 419
#     4  12  23  41  71 100 138 190 234 284 359 418
#     4  11  23  41  70  98 136 179 238 289 342 420
#     4  10  24  45  67  98 135 189 228 286 363 421
#
# _framework density 22.867042000000001
#
# number of rings (size 3 to 8) (size 9 to 14) (size 15 to 20)
#    0.000    0.800    6.000    0.000    6.533    3.200 
#    2.400    0.000    0.000    0.000    0.000    0.000 
#    0.000    0.000    0.000    0.000    0.000    0.000 
#
# Total GULP energy -167294.132713 kJ/mol
# GULP energy per Si atom -5576.471090 kJ/mol
# Density = 2.281500 g / cm^3
# Si number density = 22.867042 Si / 1000 Ang^3
#
#
#
# Elastic Constant Matrix: (Units=GPa)
#
#
# Indices 1 2 3 4 5 6 
#
# 1 47.2007 -21.9827 0.0330 0.0000 -3.3635 0.0000
# 2 -21.9827 70.7592 3.5198 0.0000 2.2597 0.0001
# 3 0.0330 3.5198 53.8507 0.0000 -4.9217 0.0000
# 4 0.0000 0.0000 0.0000 28.0485 0.0000 -5.4457
# 5 -3.3635 2.2597 -4.9217 0.0000 32.7610 0.0000
# 6 0.0000 0.0001 0.0000 -5.4457 0.0000 46.0195
#
#
#
# Elastic Compliance Matrix: (Units=1/GPa)
#
#
# Indices 1 2 3 4 5 6 
#
# 1 0.024910 0.007692 -0.000337 0.000000 0.001976 0.000000
# 2 0.007692 0.016596 -0.001137 0.000000 -0.000526 0.000000
# 3 -0.000337 -0.001137 0.018908 0.000000 0.002884 0.000000
# 4 0.000000 0.000000 0.000000 0.036491 0.000000 0.004318
# 5 0.001976 -0.000526 0.002884 0.000000 0.031197 0.000000
# 6 0.000000 0.000000 0.000000 0.004318 0.000000 0.022241
#
#
# Mechanical properties :
#
#
# Convention : Reuss Voigt Hill
#
# Bulk Modulus (GPa) = 13.72717 14.99452 14.36084
# Shear Modulus (GPa) = 30.82812 34.04850 32.43831
#
# Velocity S-wave (km/s) = 3.67569 3.86291 3.77047
# Velocity P-wave (km/s) = 4.90208 5.14467 5.02484
#
# Compressibility (1/GPa) = 0.07284825
#
# Stress axis : x y z
#
# Youngs Moduli (GPa) = 40.14498 60.25696 52.88755
#
# Poissons Ratio (x) = -0.46352 0.01785
# Poissons Ratio (y) = -0.30881 0.06016
# Poissons Ratio (z) = 0.01355 0.06854
#
# Static dielectric constant tensor:
#      x y z
#    x 1.957360 0.000000 0.070620 
#    y 0.000000 1.871090 0.000000 
#    z 0.070620 0.000000 1.955900 
# 
# From -- ./inp_files/247820.got.cif
#   From: 2010.05.17/outbox.cif.g08.bks.cpg/sg15_124_cif.got.tgz:247820.got - 2010.06.03 18:47:42.
