data_PCOD9298971
_publ_section_title
;
Structure prediction by ZEFSAII (Michael W. Deem and Ramdas Pophale) SiO2 
 PCOD9298971
Probable space group: C 2/C
;
_chemical_formula_sum "Si O2"
_cell_formula_units_Z 36
_cell_length_a 4.956251
_cell_length_b 29.934251
_cell_length_c 11.266489
_cell_angle_alpha 90.000000
_cell_angle_beta 116.368711
_cell_angle_gamma 90.000000
_cell_volume 1497.601310
_symmetry_space_group_name_H-M "C 2/C"
_symmetry_group_IT_number 15
_symmetry_cell_setting 'monoclinic'
loop_
_space_group_symop_operation_xyz
x,y,z
-x,y,1/2-z
-x,-y,-z
x,-y,1/2+z
1/2+x,1/2+y,z
1/2-x,1/2+y,1/2-z
1/2-x,1/2-y,-z
1/2+x,1/2-y,1/2+z
loop_
_atom_site_type_symbol
_atom_site_label
_atom_site_fract_x
_atom_site_fract_y
_atom_site_fract_z
Si Si1 0.954820 0.709376 0.998638
Si Si2 0.694155 0.120154 0.405003
Si Si3 0.500000 0.751320 0.250000
Si Si4 0.248401 0.565609 0.033286
Si Si5 0.814826 0.016128 0.813670
O O1 0.815152 0.662894 0.012669
O O2 0.255256 0.718460 0.137684
O O3 0.750000 0.750000 0.000000
O O4 0.955440 0.716027 0.855948
O O5 0.500000 0.128657 0.250000
O O6 0.541714 0.079540 0.449661
O O7 0.021798 0.106558 0.423025
O O8 0.427349 0.521423 0.112061
O O9 0.206200 0.551347 0.890351
O O10 0.500000 0.989034 0.750000
O O11 0.000000 0.042355 0.750000
#
# Coordination Sequence:
#
# PCOD9298971 Si02
#       5
#     8   8   4   8   8
#     4  11  25  46  72 103 139 188 233 289 355 426
#     4  12  25  42  70 101 137 175 233 291 339 411
#     4  10  24  46  72 100 136 186 232 284 354 426
#     4  11  25  42  65 101 131 177 232 283 344 412
#     4  11  22  43  67  93 134 181 225 281 351 417
#
# _framework density 24.038439
#
# number of rings (size 3 to 8) (size 9 to 14) (size 15 to 20)
#    0.000    0.889    0.000    7.333    9.333    3.556 
#    6.000    0.000    0.000    0.000    0.000    0.000 
#    0.000    0.000    0.000    0.000    0.000    0.000 
#
# Total GULP energy -100387.130895 kJ/mol
# GULP energy per Si atom -5577.062827 kJ/mol
# Density = 2.398373 g / cm^3
# Si number density = 24.038439 Si / 1000 Ang^3
#
#
#
# Elastic Constant Matrix: (Units=GPa)
#
#
# Indices 1 2 3 4 5 6 
#
# 1 73.5294 -18.6221 26.3094 0.0000 -12.6326 0.0000
# 2 -18.6221 73.6222 20.2141 0.0000 -11.7910 0.0000
# 3 26.3094 20.2141 145.3011 0.0000 -27.1821 0.0000
# 4 0.0000 0.0000 0.0000 34.9693 0.0000 -22.0563
# 5 -12.6326 -11.7910 -27.1821 0.0000 39.8167 0.0000
# 6 0.0000 0.0000 0.0000 -22.0563 0.0000 45.5573
#
#
#
# Elastic Compliance Matrix: (Units=1/GPa)
#
#
# Indices 1 2 3 4 5 6 
#
# 1 0.017048 0.005948 -0.002950 0.000000 0.005156 0.000000
# 2 0.005948 0.016576 -0.002421 0.000000 0.005143 0.000000
# 3 -0.002950 -0.002421 0.008534 0.000000 0.004173 0.000000
# 4 0.000000 0.000000 0.000000 0.041168 0.000000 0.019931
# 5 0.005156 0.005143 0.004173 0.000000 0.031123 0.000000
# 6 0.000000 0.000000 0.000000 0.019931 0.000000 0.031600
#
#
# Mechanical properties :
#
#
# Convention : Reuss Voigt Hill
#
# Bulk Modulus (GPa) = 23.08846 38.69506 30.89176
# Shear Modulus (GPa) = 31.38134 41.70541 36.54338
#
# Velocity S-wave (km/s) = 3.61704 4.16979 3.90321
# Velocity P-wave (km/s) = 5.20285 6.27016 5.76128
#
# Compressibility (1/GPa) = 0.04331168
#
# Stress axis : x y z
#
# Youngs Moduli (GPa) = 58.65927 60.32956 117.18093
#
# Poissons Ratio (x) = -0.35882 0.34564
# Poissons Ratio (y) = -0.34889 0.28367
# Poissons Ratio (z) = 0.17302 0.14605
#
# Static dielectric constant tensor:
#      x y z
#    x 1.997970 0.000000 0.338970 
#    y 0.000000 1.912650 0.000000 
#    z 0.338970 0.000000 0.664980 
# 
# From -- ./inp_files/73428.got.cif
#   From: 2010.05.17/outbox.cif.g08.bks.cpg/sg15_37_cif.got.tgz:73428.got - 2010.06.03 18:47:42.
