data_PCOD9298836
_publ_section_title
;
Structure prediction by ZEFSAII (Michael W. Deem and Ramdas Pophale) SiO2 
 PCOD9298836
Probable space group: C 2/C
;
_chemical_formula_sum "Si O2"
_cell_formula_units_Z 60
_cell_length_a 12.979988
_cell_length_b 23.780481
_cell_length_c 8.948145
_cell_angle_alpha 90.000000
_cell_angle_beta 86.620027
_cell_angle_gamma 90.000000
_cell_volume 2757.222565
_symmetry_space_group_name_H-M "C 2/C"
_symmetry_group_IT_number 15
_symmetry_cell_setting 'monoclinic'
loop_
_space_group_symop_operation_xyz
x,y,z
-x,y,1/2-z
-x,-y,-z
x,-y,1/2+z
1/2+x,1/2+y,z
1/2-x,1/2+y,1/2-z
1/2-x,1/2-y,-z
1/2+x,1/2-y,1/2+z
loop_
_atom_site_type_symbol
_atom_site_label
_atom_site_fract_x
_atom_site_fract_y
_atom_site_fract_z
Si Si1 0.791447 0.042588 0.036736
Si Si2 0.614494 0.728010 0.765742
Si Si3 0.817872 0.837798 0.514805
Si Si4 0.239342 0.673376 0.348779
Si Si5 0.394288 0.466814 0.842534
Si Si6 0.000000 0.484393 0.250000
Si Si7 0.937781 0.857830 0.995283
Si Si8 0.867238 0.443424 0.531112
O O1 0.764124 0.103222 0.973942
O O2 0.888090 0.025645 0.925682
O O3 0.717867 0.990398 0.006547
O O4 0.814176 0.043834 0.212179
O O5 0.500000 0.753336 0.750000
O O6 0.674631 0.710155 0.610498
O O7 0.674356 0.769652 0.871197
O O8 0.590758 0.668115 0.844128
O O9 0.754090 0.826653 0.669201
O O10 0.939854 0.850430 0.542536
O O11 0.357412 0.674636 0.394655
O O12 0.179780 0.618065 0.421291
O O13 0.500000 0.460258 0.750000
O O14 0.399478 0.420522 0.971322
O O15 0.943005 0.446188 0.380095
O O16 0.925456 0.527050 0.165306
#
# Coordination Sequence:
#
# PCOD9298836 Si02
#       8
#     8   8   8   8   8   4   8   8
#     4  12  23  38  63 101 132 172 214 266 330 420
#     4  10  26  43  67  94 130 182 236 284 328 389
#     4  11  23  41  68 100 139 173 220 275 342 408
#     4  12  22  44  70  97 132 177 231 276 337 396
#     4  12  23  36  59  96 137 174 206 250 328 402
#     4  10  24  46  64  96 134 178 220 292 354 376
#     4  11  22  43  63  96 136 178 213 275 336 397
#     4  11  24  42  72  97 134 174 228 284 339 407
#
# _framework density 21.761029000000001
#
# number of rings (size 3 to 8) (size 9 to 14) (size 15 to 20)
#    0.000    0.800    4.000    3.200    2.800    1.600 
#    0.000    0.000   13.200    0.000    0.000    0.000 
#    0.000    0.000    0.000    0.000    0.000    0.000 
#
# Total GULP energy -167136.291146 kJ/mol
# GULP energy per Si atom -5571.209705 kJ/mol
# Density = 2.171150 g / cm^3
# Si number density = 21.761029 Si / 1000 Ang^3
#
#
#
# Elastic Constant Matrix: (Units=GPa)
#
#
# Indices 1 2 3 4 5 6 
#
# 1 53.6294 30.7330 25.6654 0.0000 -2.0860 0.0000
# 2 30.7330 99.3846 46.7894 0.0000 -5.3318 0.0000
# 3 25.6654 46.7894 84.8514 0.0000 -8.9288 0.0000
# 4 0.0000 0.0000 0.0000 29.4824 0.0000 12.3623
# 5 -2.0860 -5.3318 -8.9288 0.0000 34.7026 0.0000
# 6 0.0000 0.0000 0.0000 12.3623 0.0000 18.0929
#
#
#
# Elastic Compliance Matrix: (Units=1/GPa)
#
#
# Indices 1 2 3 4 5 6 
#
# 1 0.023744 -0.005353 -0.004283 0.000000 -0.000497 0.000000
# 2 -0.005353 0.014798 -0.006512 0.000000 0.000276 0.000000
# 3 -0.004283 -0.006512 0.016999 0.000000 0.003116 0.000000
# 4 0.000000 0.000000 0.000000 0.047538 0.000000 -0.032481
# 5 -0.000497 0.000276 0.003116 0.000000 0.029631 0.000000
# 6 0.000000 0.000000 0.000000 -0.032481 0.000000 0.077464
#
#
# Mechanical properties :
#
#
# Convention : Reuss Voigt Hill
#
# Bulk Modulus (GPa) = 43.01655 49.36009 46.18832
# Shear Modulus (GPa) = 19.98264 25.43409 22.70836
#
# Velocity S-wave (km/s) = 3.03359 3.42247 3.23388
# Velocity P-wave (km/s) = 5.66400 6.19272 5.93425
#
# Compressibility (1/GPa) = 0.02324687
#
# Stress axis : x y z
#
# Youngs Moduli (GPa) = 42.11548 67.57816 58.82611
#
# Poissons Ratio (x) = 0.36174 0.25193
# Poissons Ratio (y) = 0.22544 0.38305
# Poissons Ratio (z) = 0.18036 0.44004
#
# Static dielectric constant tensor:
#      x y z
#    x 1.995650 0.000000 -0.055570 
#    y 0.000000 1.810550 0.000000 
#    z -0.055570 0.000000 1.856810 
# 
# From -- ./inp_files/42213.got.cif
#   From: 2010.05.17/outbox.cif.g08.bks.cpg/sg15_22_cif.got.tgz:42213.got - 2010.06.03 18:47:42.
