data_PCOD9298026
_publ_section_title
;
Structure prediction by ZEFSAII (Michael W. Deem and Ramdas Pophale) SiO2 
 PCOD9298026
Probable space group: C 2/C
;
_chemical_formula_sum "Si O2"
_cell_formula_units_Z 64
_cell_length_a 17.784092
_cell_length_b 28.377081
_cell_length_c 8.624227
_cell_angle_alpha 90.000000
_cell_angle_beta 45.105703
_cell_angle_gamma 90.000000
_cell_volume 3083.218733
_symmetry_space_group_name_H-M "C 2/C"
_symmetry_group_IT_number 15
_symmetry_cell_setting 'monoclinic'
loop_
_space_group_symop_operation_xyz
x,y,z
-x,y,1/2-z
-x,-y,-z
x,-y,1/2+z
1/2+x,1/2+y,z
1/2-x,1/2+y,1/2-z
1/2-x,1/2-y,-z
1/2+x,1/2-y,1/2+z
loop_
_atom_site_type_symbol
_atom_site_label
_atom_site_fract_x
_atom_site_fract_y
_atom_site_fract_z
Si Si1 0.633399 0.261685 0.231373
Si Si2 0.284250 0.937715 0.875619
Si Si3 0.267456 0.710143 0.603802
Si Si4 0.985797 0.582278 0.590059
Si Si5 0.607193 0.634560 0.677474
Si Si6 0.777148 0.463493 0.248725
Si Si7 0.621062 0.616748 0.026781
Si Si8 0.036845 0.322080 0.534992
O O1 0.649680 0.271906 0.389174
O O2 0.605955 0.308804 0.176323
O O3 0.546927 0.220562 0.349956
O O4 0.750000 0.250000 0.000000
O O5 0.404578 0.927564 0.655747
O O6 0.251299 0.982590 0.821723
O O7 0.208939 0.892390 0.959551
O O8 0.279152 0.952720 0.063019
O O9 0.250000 0.750000 0.500000
O O10 0.318459 0.660351 0.478500
O O11 0.155913 0.698332 0.851893
O O12 0.000000 0.571346 0.750000
O O13 0.889913 0.552194 0.657117
O O14 0.965594 0.637941 0.592122
O O15 0.500000 0.617354 0.750000
O O16 0.616997 0.624713 0.846930
O O17 0.689055 0.429932 0.453651
O O18 0.500000 0.613306 0.250000
O O19 0.000000 0.346359 0.750000
#
# Coordination Sequence:
#
# PCOD9298026 Si02
#       8
#     8   8   8   8   8   8   8   8
#     4  11  23  40  65  94 127 178 228 265 336 396
#     4  11  24  44  72  98 135 180 218 284 337 408
#     4  11  26  41  64  97 134 175 223 280 337 394
#     4  12  26  42  67 103 139 176 225 278 338 401
#     4  10  24  43  65  95 129 172 229 274 333 398
#     4  11  23  45  69  99 134 172 229 272 345 404
#     4  10  24  44  66  92 132 176 216 281 341 398
#     4  12  24  43  68  95 137 182 224 276 334 399
#
# _framework density 20.757527
#
# number of rings (size 3 to 8) (size 9 to 14) (size 15 to 20)
#    0.000    1.000    2.500    3.375    7.000    2.500 
#    0.000    2.500    0.000    0.000    0.000    0.000 
#    0.000    0.000    0.000    0.000    0.000    0.000 
#
# Total GULP energy -178786.337741 kJ/mol
# GULP energy per Si atom -5587.073054 kJ/mol
# Density = 2.071028 g / cm^3
# Si number density = 20.757527 Si / 1000 Ang^3
#
#
#
# Elastic Constant Matrix: (Units=GPa)
#
#
# Indices 1 2 3 4 5 6 
#
# 1 67.8906 18.2834 11.4365 0.0000 -7.5183 0.0000
# 2 18.2834 80.8536 12.7482 0.0000 -6.5576 0.0000
# 3 11.4365 12.7482 91.9107 0.0000 -22.3623 0.0000
# 4 0.0000 0.0000 0.0000 26.4806 0.0000 3.4527
# 5 -7.5183 -6.5576 -22.3623 0.0000 35.0525 0.0000
# 6 0.0000 0.0000 0.0000 3.4527 0.0000 23.1214
#
#
#
# Elastic Compliance Matrix: (Units=1/GPa)
#
#
# Indices 1 2 3 4 5 6 
#
# 1 0.016026 -0.003288 -0.001008 0.000000 0.002179 0.000000
# 2 -0.003288 0.013384 -0.001195 0.000000 0.001036 0.000000
# 3 -0.001008 -0.001195 0.013097 0.000000 0.007916 0.000000
# 4 0.000000 0.000000 0.000000 0.038513 0.000000 -0.005751
# 5 0.002179 0.001036 0.007916 0.000000 0.034240 0.000000
# 6 0.000000 0.000000 0.000000 -0.005751 0.000000 0.044109
#
#
# Mechanical properties :
#
#
# Convention : Reuss Voigt Hill
#
# Bulk Modulus (GPa) = 31.72088 36.17679 33.94883
# Shear Modulus (GPa) = 27.64559 30.14337 28.89448
#
# Velocity S-wave (km/s) = 3.65339 3.81486 3.73500
# Velocity P-wave (km/s) = 5.75423 6.07210 5.91530
#
# Compressibility (1/GPa) = 0.03152498
#
# Stress axis : x y z
#
# Youngs Moduli (GPa) = 62.39753 74.71557 76.35180
#
# Poissons Ratio (x) = 0.24569 0.07695
# Poissons Ratio (y) = 0.20519 0.09125
# Poissons Ratio (z) = 0.06289 0.08930
#
# Static dielectric constant tensor:
#      x y z
#    x 1.750840 0.000000 0.019310 
#    y 0.000000 1.787770 0.000000 
#    z 0.019310 0.000000 1.708370 
# 
# From -- ./inp_files/52829.got.cif
#   From: 2010.05.17/outbox.cif.g08.bks.cpg/sg15_27_cif.got.tgz:52829.got - 2010.06.03 18:47:42.
