data_PCOD9298458
_publ_section_title
;
Structure prediction by ZEFSAII (Michael W. Deem and Ramdas Pophale) SiO2 
 PCOD9298458
Probable space group: C 2/C
;
_chemical_formula_sum "Si O2"
_cell_formula_units_Z 44
_cell_length_a 16.085647
_cell_length_b 16.606788
_cell_length_c 8.377725
_cell_angle_alpha 90.000000
_cell_angle_beta 62.740900
_cell_angle_gamma 90.000000
_cell_volume 1989.412665
_symmetry_space_group_name_H-M "C 2/C"
_symmetry_group_IT_number 15
_symmetry_cell_setting 'monoclinic'
loop_
_space_group_symop_operation_xyz
x,y,z
-x,y,1/2-z
-x,-y,-z
x,-y,1/2+z
1/2+x,1/2+y,z
1/2-x,1/2+y,1/2-z
1/2-x,1/2-y,-z
1/2+x,1/2-y,1/2+z
loop_
_atom_site_type_symbol
_atom_site_label
_atom_site_fract_x
_atom_site_fract_y
_atom_site_fract_z
Si Si1 0.808615 0.435284 0.671512
Si Si2 0.854051 0.717373 0.944004
Si Si3 0.500000 0.475277 0.750000
Si Si4 0.400154 0.404740 0.541999
Si Si5 0.529389 0.238227 0.981580
Si Si6 0.410832 0.072986 0.406076
O O1 0.842408 0.375218 0.503845
O O2 0.698519 0.424081 0.790856
O O3 0.850938 0.521221 0.583945
O O4 0.847349 0.409394 0.809385
O O5 0.912768 0.730889 0.733359
O O6 0.920599 0.751612 0.028284
O O7 0.750000 0.750000 0.000000
O O8 0.472960 0.423381 0.620982
O O9 0.581956 0.534586 0.618926
O O10 0.422783 0.313640 0.471993
O O11 0.547667 0.153923 0.053337
O O12 0.500000 0.026780 0.250000
#
# Coordination Sequence:
#
# PCOD9298458 Si02
#       6
#     8   8   4   8   8   8
#     4  12  25  44  71 102 145 188 243 288 360 428
#     4  11  23  44  69 103 141 190 237 293 355 427
#     4  10  24  44  70  94 138 184 238 286 360 418
#     4  11  24  46  68 102 135 188 232 300 348 430
#     4  11  25  44  71 102 144 185 238 295 361 419
#     4  12  26  45  69 108 144 191 234 296 357 427
#
# _framework density 22.117080000000001
#
# number of rings (size 3 to 8) (size 9 to 14) (size 15 to 20)
#    0.000    0.727    3.636    3.818    3.818    0.727 
#    6.545    0.000    0.000    0.000    0.000    0.000 
#    0.000    0.000    0.000    0.000    0.000    0.000 
#
# Total GULP energy -122892.407668 kJ/mol
# GULP energy per Si atom -5586.018530 kJ/mol
# Density = 2.206674 g / cm^3
# Si number density = 22.117080 Si / 1000 Ang^3
#
#
#
# Elastic Constant Matrix: (Units=GPa)
#
#
# Indices 1 2 3 4 5 6 
#
# 1 114.9870 45.0385 15.3331 0.0000 -10.1101 0.0000
# 2 45.0385 101.2081 22.2317 0.0000 -8.4162 0.0000
# 3 15.3331 22.2317 55.2968 0.0000 -13.5709 0.0000
# 4 0.0000 0.0000 0.0000 26.3639 0.0000 5.9871
# 5 -10.1101 -8.4162 -13.5709 0.0000 44.9776 0.0000
# 6 0.0000 0.0000 0.0000 5.9871 0.0000 12.7050
#
#
#
# Elastic Compliance Matrix: (Units=1/GPa)
#
#
# Indices 1 2 3 4 5 6 
#
# 1 0.010669 -0.004453 -0.000847 0.000000 0.001309 0.000000
# 2 -0.004453 0.012721 -0.003824 0.000000 0.000226 0.000000
# 3 -0.000847 -0.003824 0.021204 0.000000 0.005492 0.000000
# 4 0.000000 0.000000 0.000000 0.042476 0.000000 -0.020017
# 5 0.001309 0.000226 0.005492 0.000000 0.024227 0.000000
# 6 0.000000 0.000000 0.000000 -0.020017 0.000000 0.088142
#
#
# Mechanical properties :
#
#
# Convention : Reuss Voigt Hill
#
# Bulk Modulus (GPa) = 37.95583 48.52206 43.23895
# Shear Modulus (GPa) = 22.07809 29.40187 25.73998
#
# Velocity S-wave (km/s) = 3.16292 3.65001 3.41516
# Velocity P-wave (km/s) = 5.52606 6.30475 5.92820
#
# Compressibility (1/GPa) = 0.02634641
#
# Stress axis : x y z
#
# Youngs Moduli (GPa) = 93.73152 78.61021 47.16005
#
# Poissons Ratio (x) = 0.35004 0.03993
# Poissons Ratio (y) = 0.41737 0.18036
# Poissons Ratio (z) = 0.07937 0.30063
#
# Static dielectric constant tensor:
#      x y z
#    x 1.861500 0.000000 -0.014690 
#    y 0.000000 1.837970 0.000000 
#    z -0.014690 0.000000 1.783170 
# 
# From -- ./inp_files/39311.got.cif
#   From: 2010.05.17/outbox.cif.g08.bks.cpg/sg15_20_cif.got.tgz:39311.got - 2010.06.03 18:47:42.
