data_PCOD9298685
_publ_section_title
;
Structure prediction by ZEFSAII (Michael W. Deem and Ramdas Pophale) SiO2 
 PCOD9298685
Probable space group: C 2/C
;
_chemical_formula_sum "Si O2"
_cell_formula_units_Z 52
_cell_length_a 6.995149
_cell_length_b 23.087896
_cell_length_c 19.805243
_cell_angle_alpha 90.000000
_cell_angle_beta 125.835636
_cell_angle_gamma 90.000000
_cell_volume 2593.113875
_symmetry_space_group_name_H-M "C 2/C"
_symmetry_group_IT_number 15
_symmetry_cell_setting 'monoclinic'
loop_
_space_group_symop_operation_xyz
x,y,z
-x,y,1/2-z
-x,-y,-z
x,-y,1/2+z
1/2+x,1/2+y,z
1/2-x,1/2+y,1/2-z
1/2-x,1/2-y,-z
1/2+x,1/2-y,1/2+z
loop_
_atom_site_type_symbol
_atom_site_label
_atom_site_fract_x
_atom_site_fract_y
_atom_site_fract_z
Si Si1 0.721058 0.632061 0.107532
Si Si2 0.500000 0.036741 0.250000
Si Si3 0.500000 0.152025 0.750000
Si Si4 0.000000 0.725269 0.250000
Si Si5 0.276511 0.812127 0.965943
Si Si6 0.270968 0.641264 0.549778
Si Si7 0.873773 0.061930 0.793218
Si Si8 0.352100 0.263193 0.356101
O O1 0.871938 0.579233 0.169959
O O2 0.445674 0.645404 0.067438
O O3 0.843260 0.687402 0.167316
O O4 0.749362 0.628477 0.033505
O O5 0.281409 0.994267 0.221701
O O6 0.679950 0.112156 0.746975
O O7 0.348784 0.190667 0.668291
O O8 0.160956 0.756698 0.227942
O O9 0.306855 0.792015 0.893429
O O10 0.250000 0.750000 0.000000
O O11 0.517842 0.846693 0.031021
O O12 0.431095 0.590812 0.616505
O O13 0.405906 0.703085 0.581354
O O14 0.000000 0.050124 0.750000
#
# Coordination Sequence:
#
# PCOD9298685 Si02
#       8
#     8   4   4   4   8   8   8   8
#     4  11  24  44  65  94 132 175 216 273 323 395
#     4  10  26  50  70  90 122 162 228 288 340 384
#     4   9  22  35  60  94 122 169 214 261 314 384
#     4  11  22  39  62  94 142 183 218 261 310 390
#     4  12  23  37  64  99 142 179 208 255 320 397
#     4  11  24  41  63 100 135 172 220 265 325 399
#     4  10  24  45  69  92 124 163 224 290 335 381
#     4  11  21  38  61  96 142 179 216 254 315 388
#
# _framework density 20.053111000000001
#
# number of rings (size 3 to 8) (size 9 to 14) (size 15 to 20)
#    0.000    1.231    3.077    2.308    6.462    3.077 
#    0.000    1.538    0.000    0.000    0.000    0.000 
#    0.000    0.000    0.000    0.000    0.000    0.000 
#
# Total GULP energy -144878.987062 kJ/mol
# GULP energy per Si atom -5572.268733 kJ/mol
# Density = 2.000747 g / cm^3
# Si number density = 20.053111 Si / 1000 Ang^3
#
#
#
# Elastic Constant Matrix: (Units=GPa)
#
#
# Indices 1 2 3 4 5 6 
#
# 1 125.7630 48.6537 64.5163 0.0000 10.8487 0.0000
# 2 48.6537 99.5987 55.2403 0.0000 0.4818 0.0000
# 3 64.5163 55.2403 109.7716 0.0000 -5.5811 0.0000
# 4 0.0000 0.0000 0.0000 27.5439 0.0000 -192.1405
# 5 10.8487 0.4818 -5.5811 0.0000 49.1737 0.0000
# 6 0.0000 0.0000 0.0000 -192.1405 0.0000 2904.7163
#
#
#
# Elastic Compliance Matrix: (Units=1/GPa)
#
#
# Indices 1 2 3 4 5 6 
#
# 1 0.012420 -0.002644 -0.006142 0.000000 -0.003411 0.000000
# 2 -0.002644 0.014533 -0.005771 0.000000 -0.000214 0.000000
# 3 -0.006142 -0.005771 0.015787 0.000000 0.003203 0.000000
# 4 0.000000 0.000000 0.000000 0.067412 0.000000 0.004459
# 5 -0.003411 -0.000214 0.003203 0.000000 0.021454 0.000000
# 6 0.000000 0.000000 0.000000 0.004459 0.000000 0.000639
#
#
# Mechanical properties :
#
#
# Convention : Reuss Voigt Hill
#
# Bulk Modulus (GPa) = 73.38880 74.66154 74.02517
# Shear Modulus (GPa) = 30.13854 607.40166 318.77010
#
# Velocity S-wave (km/s) = 3.88098 17.42280 12.62173
# Velocity P-wave (km/s) = 7.53388 21.02502 15.79257
#
# Compressibility (1/GPa) = 0.01362606
#
# Stress axis : x y z
#
# Youngs Moduli (GPa) = 80.51836 68.80723 63.34408
#
# Poissons Ratio (x) = 0.18190 0.38909
# Poissons Ratio (y) = 0.21286 0.36554
# Poissons Ratio (z) = 0.49458 0.39707
#
# Static dielectric constant tensor:
#      x y z
#    x 2.147400 0.000000 -0.139080 
#    y 0.000000 1.719400 0.000000 
#    z -0.139080 0.000000 1.862470 
# 
# From -- ./inp_files/228236.got.cif
#   From: 2010.05.17/outbox.cif.g08.bks.cpg/sg15_115_cif.got.tgz:228236.got - 2010.06.03 18:47:42.
