data_PCOD9298065
_publ_section_title
;
Structure prediction by ZEFSAII (Michael W. Deem and Ramdas Pophale) SiO2 
 PCOD9298065
Probable space group: C 2/C
;
_chemical_formula_sum "Si O2"
_cell_formula_units_Z 44
_cell_length_a 25.287695
_cell_length_b 9.259625
_cell_length_c 12.821771
_cell_angle_alpha 90.000000
_cell_angle_beta 148.664946
_cell_angle_gamma 90.000000
_cell_volume 1561.309114
_symmetry_space_group_name_H-M "C 2/C"
_symmetry_group_IT_number 15
_symmetry_cell_setting 'monoclinic'
loop_
_space_group_symop_operation_xyz
x,y,z
-x,y,1/2-z
-x,-y,-z
x,-y,1/2+z
1/2+x,1/2+y,z
1/2-x,1/2+y,1/2-z
1/2-x,1/2-y,-z
1/2+x,1/2-y,1/2+z
loop_
_atom_site_type_symbol
_atom_site_label
_atom_site_fract_x
_atom_site_fract_y
_atom_site_fract_z
Si Si1 0.199023 0.568753 0.390692
Si Si2 0.500000 0.222474 0.250000
Si Si3 0.398297 0.202585 0.868900
Si Si4 0.207527 0.585203 0.106875
Si Si5 0.583084 0.275658 0.040584
Si Si6 0.138616 0.009861 0.971929
O O1 0.124248 0.443850 0.227637
O O2 0.186995 0.545505 0.494091
O O3 0.164102 0.714966 0.268533
O O4 0.311470 0.496976 0.558040
O O5 0.540551 0.156228 0.424203
O O6 0.589393 0.335622 0.377000
O O7 0.295905 0.299035 0.718708
O O8 0.478604 0.279662 0.927489
O O9 0.111860 0.671752 0.990912
O O10 0.255053 0.512891 0.287796
O O11 0.579534 0.422678 0.963677
#
# Coordination Sequence:
#
# PCOD9298065 Si02
#       6
#     8   4   8   8   8   8
#     4  11  24  45  68  99 142 183 224 288 340 402
#     4  10  26  44  70 102 142 176 234 290 328 414
#     4  11  24  45  69 101 138 183 230 282 343 406
#     4  10  24  45  67 101 144 174 233 292 330 408
#     4  11  25  43  71 102 137 184 230 275 351 407
#     4  10  24  43  67 104 135 182 233 278 345 405
#
# _framework density 28.181479
#
# number of rings (size 3 to 8) (size 9 to 14) (size 15 to 20)
#    0.000    1.455    1.818    1.091    5.091    5.818 
#    0.000    0.909    0.000    0.000    0.000    0.000 
#    0.000    0.000    0.000    0.000    0.000    0.000 
#
# Total GULP energy -122501.739455 kJ/mol
# GULP energy per Si atom -5568.260884 kJ/mol
# Density = 2.811734 g / cm^3
# Si number density = 28.181479 Si / 1000 Ang^3
#
#
#
# Elastic Constant Matrix: (Units=GPa)
#
#
# Indices 1 2 3 4 5 6 
#
# 1 153.7340 29.9957 3.5929 0.0000 4.1365 0.0000
# 2 29.9957 80.1762 24.2199 0.0000 -12.1948 0.0000
# 3 3.5929 24.2199 79.7151 0.0000 1.9409 0.0000
# 4 0.0000 0.0000 0.0000 -1.8441 0.0000 3.6323
# 5 4.1365 -12.1948 1.9409 0.0000 24.4610 0.0000
# 6 0.0000 0.0000 0.0000 3.6323 0.0000 47.8365
#
#
#
# Elastic Compliance Matrix: (Units=1/GPa)
#
#
# Indices 1 2 3 4 5 6 
#
# 1 0.007228 -0.003392 0.000777 0.000000 -0.002975 0.000000
# 2 -0.003392 0.016715 -0.005152 0.000000 0.009315 0.000000
# 3 0.000777 -0.005152 0.014168 0.000000 -0.003824 0.000000
# 4 0.000000 0.000000 0.000000 -0.471715 0.000000 0.035818
# 5 -0.002975 0.009315 -0.003824 0.000000 0.046332 0.000000
# 6 0.000000 0.000000 0.000000 0.035818 0.000000 0.018185
#
#
# Mechanical properties :
#
#
# Convention : Reuss Voigt Hill
#
# Bulk Modulus (GPa) = 44.29162 47.69359 45.99260
# Shear Modulus (GPa) = -14.44973 31.14514 8.34770
#
# Velocity S-wave (km/s) = -2.26683 3.32801 1.72295
# Velocity P-wave (km/s) = 2.98317 5.63276 4.50707
#
# Compressibility (1/GPa) = 0.02257764
#
# Stress axis : x y z
#
# Youngs Moduli (GPa) = 138.34406 59.82766 70.58051
#
# Poissons Ratio (x) = 0.20291 -0.05485
# Poissons Ratio (y) = 0.46919 0.36366
# Poissons Ratio (z) = -0.10750 0.30826
#
# Static dielectric constant tensor:
#      x y z
#    x 2.492310 0.000000 0.017970 
#    y 0.000000 2.305650 0.000000 
#    z 0.017970 0.000000 2.269880 
# 
# From -- ./inp_files/122747.got.cif
#   From: 2010.05.17/outbox.cif.g08.bks.cpg/sg15_62_cif.got.tgz:122747.got - 2010.06.03 18:47:42.
