data_PCOD9298585
_publ_section_title
;
Structure prediction by ZEFSAII (Michael W. Deem and Ramdas Pophale) SiO2 
 PCOD9298585
Probable space group: C 2/C
;
_chemical_formula_sum "Si O2"
_cell_formula_units_Z 40
_cell_length_a 28.474154
_cell_length_b 9.846313
_cell_length_c 9.156982
_cell_angle_alpha 90.000000
_cell_angle_beta 142.337209
_cell_angle_gamma 90.000000
_cell_volume 1568.654614
_symmetry_space_group_name_H-M "C 2/C"
_symmetry_group_IT_number 15
_symmetry_cell_setting 'monoclinic'
loop_
_space_group_symop_operation_xyz
x,y,z
-x,y,1/2-z
-x,-y,-z
x,-y,1/2+z
1/2+x,1/2+y,z
1/2-x,1/2+y,1/2-z
1/2-x,1/2-y,-z
1/2+x,1/2-y,1/2+z
loop_
_atom_site_type_symbol
_atom_site_label
_atom_site_fract_x
_atom_site_fract_y
_atom_site_fract_z
Si Si1 0.959074 0.165936 0.956247
Si Si2 0.638600 0.931483 0.795187
Si Si3 0.728289 0.944473 0.738953
Si Si4 0.388978 0.565368 0.490037
Si Si5 0.380310 0.773197 0.215020
O O1 0.912660 0.304191 0.863441
O O2 0.946551 0.120805 0.756587
O O3 0.923133 0.053779 0.973785
O O4 0.048771 0.202190 0.192551
O O5 0.711998 0.931962 0.868607
O O6 0.594872 0.075077 0.671936
O O7 0.673333 0.936140 0.042480
O O8 0.814051 0.970968 0.901121
O O9 0.691390 0.813378 0.564817
O O10 0.363314 0.680601 0.311652
#
# Coordination Sequence:
#
# PCOD9298585 Si02
#       5
#     8   8   8   8   8
#     4  12  27  48  74 108 150 192 247 305 377 436
#     4  10  24  46  77 104 145 189 251 301 363 441
#     4  10  24  44  76 108 145 191 248 301 371 433
#     4  12  26  45  75 107 152 190 243 307 375 442
#     4  10  25  47  72 104 146 192 241 304 364 441
#
# _framework density 25.499561
#
# number of rings (size 3 to 8) (size 9 to 14) (size 15 to 20)
#    1.200    0.000    0.000    4.800    2.800    5.600 
#    0.000    0.000    0.000    0.000    0.000    0.000 
#    0.000    0.000    0.000    0.000    0.000    0.000 
#
# Total GULP energy -112031.597891 kJ/mol
# GULP energy per Si atom -5601.579895 kJ/mol
# Density = 2.544152 g / cm^3
# Si number density = 25.499561 Si / 1000 Ang^3
#
#
#
# Elastic Constant Matrix: (Units=GPa)
#
#
# Indices 1 2 3 4 5 6 
#
# 1 133.8384 43.8511 11.7103 0.0000 5.2532 0.0000
# 2 43.8511 124.9294 8.0003 0.0000 -13.2800 0.0000
# 3 11.7103 8.0003 71.9835 0.0000 -2.7719 0.0000
# 4 0.0000 0.0000 0.0000 27.0085 0.0000 4.7741
# 5 5.2532 -13.2800 -2.7719 0.0000 48.2076 0.0000
# 6 0.0000 0.0000 0.0000 4.7741 0.0000 33.6726
#
#
#
# Elastic Compliance Matrix: (Units=1/GPa)
#
#
# Indices 1 2 3 4 5 6 
#
# 1 0.008686 -0.003177 -0.001133 0.000000 -0.001887 0.000000
# 2 -0.003177 0.009458 -0.000422 0.000000 0.002927 0.000000
# 3 -0.001133 -0.000422 0.014155 0.000000 0.000821 0.000000
# 4 0.000000 0.000000 0.000000 0.037977 0.000000 -0.005384
# 5 -0.001887 0.002927 0.000821 0.000000 0.021803 0.000000
# 6 0.000000 0.000000 0.000000 -0.005384 0.000000 0.030461
#
#
# Mechanical properties :
#
#
# Convention : Reuss Voigt Hill
#
# Bulk Modulus (GPa) = 43.78989 50.87497 47.33243
# Shear Modulus (GPa) = 35.81319 39.59040 37.70179
#
# Velocity S-wave (km/s) = 3.75168 3.94457 3.84933
# Velocity P-wave (km/s) = 5.99808 6.38285 6.19345
#
# Compressibility (1/GPa) = 0.02283632
#
# Stress axis : x y z
#
# Youngs Moduli (GPa) = 115.13193 105.73327 70.64738
#
# Poissons Ratio (x) = 0.33589 0.08001
# Poissons Ratio (y) = 0.36575 0.02979
# Poissons Ratio (z) = 0.13040 0.04458
#
# Static dielectric constant tensor:
#      x y z
#    x 1.956220 0.000000 0.005830 
#    y 0.000000 2.019900 0.000000 
#    z 0.005830 0.000000 1.998050 
# 
# From -- ./inp_files/66054.got.cif
#   From: 2010.05.17/outbox.cif.g08.bks.cpg/sg15_34_cif.got.tgz:66054.got - 2010.06.03 18:47:42.
