data_PCOD9298631
_publ_section_title
;
Structure prediction by ZEFSAII (Michael W. Deem and Ramdas Pophale) SiO2 
 PCOD9298631
Probable space group: C 2/C
;
_chemical_formula_sum "Si O2"
_cell_formula_units_Z 32
_cell_length_a 28.653373
_cell_length_b 7.915453
_cell_length_c 12.890614
_cell_angle_alpha 90.000000
_cell_angle_beta 154.340346
_cell_angle_gamma 90.000000
_cell_volume 1266.011253
_symmetry_space_group_name_H-M "C 2/C"
_symmetry_group_IT_number 15
_symmetry_cell_setting 'monoclinic'
loop_
_space_group_symop_operation_xyz
x,y,z
-x,y,1/2-z
-x,-y,-z
x,-y,1/2+z
1/2+x,1/2+y,z
1/2-x,1/2+y,1/2-z
1/2-x,1/2-y,-z
1/2+x,1/2-y,1/2+z
loop_
_atom_site_type_symbol
_atom_site_label
_atom_site_fract_x
_atom_site_fract_y
_atom_site_fract_z
Si Si1 0.748382 0.173682 0.111922
Si Si2 0.486043 0.080652 0.860406
Si Si3 0.607182 0.388033 0.185057
Si Si4 0.900747 0.770010 0.103445
O O1 0.814948 0.253631 0.339513
O O2 0.804333 0.993932 0.200255
O O3 0.750000 0.250000 0.000000
O O4 0.623432 0.175837 0.887617
O O5 0.458923 0.903269 0.751642
O O6 0.574881 0.228026 0.048422
O O7 0.500000 0.000000 0.000000
O O8 0.644441 0.339759 0.377546
O O9 0.500000 0.500000 0.000000
O O10 0.000000 0.875913 0.250000
#
# Coordination Sequence:
#
# PCOD9298631 Si02
#       4
#     8   8   8   8
#     4  12  24  43  76 105 145 191 243 303 362 441
#     4  10  24  45  67 104 146 186 242 305 362 435
#     4  11  22  46  74  99 142 190 238 297 366 431
#     4  11  24  45  68 102 147 184 241 303 362 433
#
# _framework density 25.276236000000001
#
# number of rings (size 3 to 8) (size 9 to 14) (size 15 to 20)
#    0.000    1.000    5.000    1.500    3.500    4.000 
#    9.000    0.000    0.000    0.000    0.000    0.000 
#    0.000    0.000    0.000    0.000    0.000    0.000 
#
# Total GULP energy -89094.868652 kJ/mol
# GULP energy per Si atom -5568.429291 kJ/mol
# Density = 2.521871 g / cm^3
# Si number density = 25.276236 Si / 1000 Ang^3
#
#
#
# Elastic Constant Matrix: (Units=GPa)
#
#
# Indices 1 2 3 4 5 6 
#
# 1 60.1396 16.8235 56.2171 0.0000 -43.2959 0.0000
# 2 16.8235 106.7458 43.0936 0.0000 -21.9439 0.0000
# 3 56.2171 43.0936 213.0461 0.0000 -54.3180 0.0000
# 4 0.0000 0.0000 0.0000 54.3433 0.0000 10.4522
# 5 -43.2959 -21.9439 -54.3180 0.0000 50.7780 0.0000
# 6 0.0000 0.0000 0.0000 10.4522 0.0000 18.5824
#
#
#
# Elastic Compliance Matrix: (Units=1/GPa)
#
#
# Indices 1 2 3 4 5 6 
#
# 1 0.044472 0.001474 -0.003029 0.000000 0.035316 0.000000
# 2 0.001474 0.010600 -0.001436 0.000000 0.004301 0.000000
# 3 -0.003029 -0.001436 0.006830 0.000000 0.004102 0.000000
# 4 0.000000 0.000000 0.000000 0.020634 0.000000 -0.011606
# 5 0.035316 0.004301 0.004102 0.000000 0.056052 0.000000
# 6 0.000000 0.000000 0.000000 -0.011606 0.000000 0.060343
#
#
# Mechanical properties :
#
#
# Convention : Reuss Voigt Hill
#
# Bulk Modulus (GPa) = 17.88343 68.02221 42.95282
# Shear Modulus (GPa) = 22.36616 42.32722 32.34669
#
# Velocity S-wave (km/s) = 2.97790 4.09661 3.58121
# Velocity P-wave (km/s) = 4.34907 7.02469 5.84212
#
# Compressibility (1/GPa) = 0.05591768
#
# Stress axis : x y z
#
# Youngs Moduli (GPa) = 22.48629 94.34156 146.42285
#
# Poissons Ratio (x) = -0.13904 0.44351
# Poissons Ratio (y) = -0.03314 0.21033
# Poissons Ratio (z) = 0.06811 0.13551
#
# Static dielectric constant tensor:
#      x y z
#    x 2.110980 0.000000 0.229490 
#    y 0.000000 2.102160 0.000000 
#    z 0.229490 0.000000 1.627350 
# 
# From -- ./inp_files/93425.got.cif
#   From: 2010.05.17/outbox.cif.g08.bks.cpg/sg15_47_cif.got.tgz:93425.got - 2010.06.03 18:47:42.
