data_PCOD9298576
_publ_section_title
;
Structure prediction by ZEFSAII (Michael W. Deem and Ramdas Pophale) SiO2 
 PCOD9298576
Probable space group: C 2/C
;
_chemical_formula_sum "Si O2"
_cell_formula_units_Z 60
_cell_length_a 10.171532
_cell_length_b 9.315064
_cell_length_c 24.293330
_cell_angle_alpha 90.000000
_cell_angle_beta 100.182452
_cell_angle_gamma 90.000000
_cell_volume 2265.502766
_symmetry_space_group_name_H-M "C 2/C"
_symmetry_group_IT_number 15
_symmetry_cell_setting 'monoclinic'
loop_
_space_group_symop_operation_xyz
x,y,z
-x,y,1/2-z
-x,-y,-z
x,-y,1/2+z
1/2+x,1/2+y,z
1/2-x,1/2+y,1/2-z
1/2-x,1/2-y,-z
1/2+x,1/2-y,1/2+z
loop_
_atom_site_type_symbol
_atom_site_label
_atom_site_fract_x
_atom_site_fract_y
_atom_site_fract_z
Si Si1 0.164637 0.048714 0.811862
Si Si2 0.790692 0.663612 0.251096
Si Si3 0.676655 0.566714 0.458064
Si Si4 0.434794 0.213307 0.632969
Si Si5 0.094532 0.491134 0.585620
Si Si6 0.384074 0.519085 0.342674
Si Si7 0.559633 0.332083 0.061951
Si Si8 0.500000 0.956556 0.250000
O O1 0.193499 0.176107 0.769628
O O2 0.178915 0.890661 0.785429
O O3 0.282640 0.048836 0.865530
O O4 0.011405 0.056412 0.821290
O O5 0.749151 0.563512 0.197389
O O6 0.919727 0.577510 0.280175
O O7 0.670499 0.679361 0.405822
O O8 0.826172 0.504079 0.466800
O O9 0.573429 0.432500 0.445878
O O10 0.623773 0.652654 0.506760
O O11 0.557144 0.327036 0.638595
O O12 0.472259 0.089920 0.592790
O O13 0.446359 0.145031 0.695836
O O14 0.043378 0.327187 0.583272
O O15 0.345197 0.416062 0.388662
#
# Coordination Sequence:
#
# PCOD9298576 Si02
#       8
#     8   8   8   8   8   8   8   4
#     4  12  27  45  70 104 144 193 237 291 355 429
#     4  12  28  45  69 104 143 187 242 290 356 431
#     4  10  24  50  72 100 146 185 233 296 363 414
#     4  11  25  45  67 101 142 186 232 294 348 425
#     4  12  23  45  69 100 140 178 238 285 350 420
#     4  11  25  45  72  97 147 188 231 294 367 411
#     4  10  24  44  75 107 134 186 240 292 355 436
#     4  12  28  42  68 108 144 178 252 284 352 436
#
# _framework density 26.484188
#
# number of rings (size 3 to 8) (size 9 to 14) (size 15 to 20)
#    0.000    0.800    5.333    0.800   11.200    0.533 
#    0.000    7.333    0.000    0.000    0.000    0.000 
#    0.000    0.000    0.000    0.000    0.000    0.000 
#
# Total GULP energy -167244.606128 kJ/mol
# GULP energy per Si atom -5574.820204 kJ/mol
# Density = 2.642391 g / cm^3
# Si number density = 26.484188 Si / 1000 Ang^3
#
#
#
# Elastic Constant Matrix: (Units=GPa)
#
#
# Indices 1 2 3 4 5 6 
#
# 1 62.7803 38.1541 13.8808 0.0000 -24.0087 0.0000
# 2 38.1541 175.9878 49.7160 0.0000 -19.3083 0.0000
# 3 13.8808 49.7160 101.1045 0.0000 -18.6145 0.0000
# 4 0.0000 0.0000 0.0000 47.8466 0.0000 -11.2531
# 5 -24.0087 -19.3083 -18.6145 0.0000 30.9104 0.0000
# 6 0.0000 0.0000 0.0000 -11.2531 0.0000 52.6768
#
#
#
# Elastic Compliance Matrix: (Units=1/GPa)
#
#
# Indices 1 2 3 4 5 6 
#
# 1 0.024738 -0.003917 0.001819 0.000000 0.017863 0.000000
# 2 -0.003917 0.007387 -0.003155 0.000000 -0.000328 0.000000
# 3 0.001819 -0.003155 0.012473 0.000000 0.006953 0.000000
# 4 0.000000 0.000000 0.000000 0.022006 0.000000 0.004701
# 5 0.017863 -0.000328 0.006953 0.000000 0.050208 0.000000
# 6 0.000000 0.000000 0.000000 0.004701 0.000000 0.019988
#
#
# Mechanical properties :
#
#
# Convention : Reuss Voigt Hill
#
# Bulk Modulus (GPa) = 29.33350 60.37495 44.85422
# Shear Modulus (GPa) = 31.51189 42.16153 36.83671
#
# Velocity S-wave (km/s) = 3.45314 3.99425 3.73352
# Velocity P-wave (km/s) = 5.19604 6.64215 5.96310
#
# Compressibility (1/GPa) = 0.03409072
#
# Stress axis : x y z
#
# Youngs Moduli (GPa) = 40.42289 135.37865 80.17610
#
# Poissons Ratio (x) = 0.53031 -0.14581
# Poissons Ratio (y) = 0.15835 0.25295
# Poissons Ratio (z) = -0.07351 0.42711
#
# Static dielectric constant tensor:
#      x y z
#    x 2.185070 0.000000 0.071220 
#    y 0.000000 2.014680 0.000000 
#    z 0.071220 0.000000 2.325890 
# 
# From -- ./inp_files/291566.got.cif
#   From: 2010.05.17/outbox.cif.g08.bks.cpg/sg15_146_cif.got.tgz:291566.got - 2010.06.03 18:47:42.
