data_PCOD9298130
_publ_section_title
;
Structure prediction by ZEFSAII (Michael W. Deem and Ramdas Pophale) SiO2 
 PCOD9298130
Probable space group: C 2/C
;
_chemical_formula_sum "Si O2"
_cell_formula_units_Z 40
_cell_length_a 11.808856
_cell_length_b 12.602936
_cell_length_c 11.906182
_cell_angle_alpha 90.000000
_cell_angle_beta 110.700374
_cell_angle_gamma 90.000000
_cell_volume 1657.558296
_symmetry_space_group_name_H-M "C 2/C"
_symmetry_group_IT_number 15
_symmetry_cell_setting 'monoclinic'
loop_
_space_group_symop_operation_xyz
x,y,z
-x,y,1/2-z
-x,-y,-z
x,-y,1/2+z
1/2+x,1/2+y,z
1/2-x,1/2+y,1/2-z
1/2-x,1/2-y,-z
1/2+x,1/2-y,1/2+z
loop_
_atom_site_type_symbol
_atom_site_label
_atom_site_fract_x
_atom_site_fract_y
_atom_site_fract_z
Si Si1 0.932885 0.760854 0.058436
Si Si2 0.135943 0.320857 0.494961
Si Si3 0.500000 0.727917 0.250000
Si Si4 0.640491 0.420262 0.666533
Si Si5 0.000000 0.088832 0.750000
Si Si6 0.621650 0.036101 0.370553
O O1 0.908038 0.830683 0.159947
O O2 0.874128 0.647224 0.060557
O O3 0.897491 0.842060 0.947361
O O4 0.073496 0.724692 0.085449
O O5 0.250000 0.250000 0.500000
O O6 0.149284 0.445547 0.474337
O O7 0.031048 0.297311 0.366470
O O8 0.383517 0.653947 0.233705
O O9 0.553454 0.517818 0.668523
O O10 0.770139 0.464358 0.681741
O O11 0.500000 0.028910 0.250000
#
# Coordination Sequence:
#
# PCOD9298130 Si02
#       6
#     8   8   4   8   4   8
#     4  11  24  46  66 105 141 183 245 295 356 431
#     4  11  24  44  73 102 142 189 237 298 365 434
#     4   9  22  45  66 100 140 179 242 289 348 430
#     4  10  24  43  69  98 139 188 233 296 355 424
#     4  11  22  45  74 100 134 185 248 293 350 430
#     4  12  25  44  68 105 143 186 233 298 368 423
#
# _framework density 24.131881
#
# number of rings (size 3 to 8) (size 9 to 14) (size 15 to 20)
#    0.000    1.200    2.000    3.000    2.800    4.800 
#    3.600    0.000    0.000    0.000    0.000    0.000 
#    0.000    0.000    0.000    0.000    0.000    0.000 
#
# Total GULP energy -111482.801922 kJ/mol
# GULP energy per Si atom -5574.140096 kJ/mol
# Density = 2.407696 g / cm^3
# Si number density = 24.131881 Si / 1000 Ang^3
#
#
#
# Elastic Constant Matrix: (Units=GPa)
#
#
# Indices 1 2 3 4 5 6 
#
# 1 134.8629 34.8933 2.2305 0.0000 -5.0826 0.0000
# 2 34.8933 184.0946 46.7776 0.0000 1.9476 0.0000
# 3 2.2305 46.7776 71.5202 0.0000 -8.2762 0.0000
# 4 0.0000 0.0000 0.0000 35.4164 0.0000 -0.3686
# 5 -5.0826 1.9476 -8.2762 0.0000 23.5456 0.0000
# 6 0.0000 0.0000 0.0000 -0.3686 0.0000 10.2523
#
#
#
# Elastic Compliance Matrix: (Units=1/GPa)
#
#
# Indices 1 2 3 4 5 6 
#
# 1 0.007958 -0.001844 0.001224 0.000000 0.002301 0.000000
# 2 -0.001844 0.007045 -0.004862 0.000000 -0.002690 0.000000
# 3 0.001224 -0.004862 0.017930 0.000000 0.006969 0.000000
# 4 0.000000 0.000000 0.000000 0.028246 0.000000 0.001016
# 5 0.002301 -0.002690 0.006969 0.000000 0.045639 0.000000
# 6 0.000000 0.000000 0.000000 0.001016 0.000000 0.097575
#
#
# Mechanical properties :
#
#
# Convention : Reuss Voigt Hill
#
# Bulk Modulus (GPa) = 45.51505 62.03117 53.77311
# Shear Modulus (GPa) = 22.45365 34.28129 28.36747
#
# Velocity S-wave (km/s) = 3.05365 3.77315 3.43230
# Velocity P-wave (km/s) = 5.59776 6.68903 6.16758
#
# Compressibility (1/GPa) = 0.02197075
#
# Stress axis : x y z
#
# Youngs Moduli (GPa) = 125.65272 141.93983 55.77230
#
# Poissons Ratio (x) = 0.26171 -0.06826
# Poissons Ratio (y) = 0.23168 0.27115
# Poissons Ratio (z) = -0.15379 0.69006
#
# Static dielectric constant tensor:
#      x y z
#    x 1.992980 0.000000 0.005450 
#    y 0.000000 1.950020 0.000000 
#    z 0.005450 0.000000 2.042670 
# 
# From -- ./inp_files/142414.got.cif
#   From: 2010.05.17/outbox.cif.g08.bks.cpg/sg15_72_cif.got.tgz:142414.got - 2010.06.03 18:47:42.
