data_PCOD9298904
_publ_section_title
;
Structure prediction by ZEFSAII (Michael W. Deem and Ramdas Pophale) SiO2 
 PCOD9298904
Probable space group: C 2/C
;
_chemical_formula_sum "Si O2"
_cell_formula_units_Z 40
_cell_length_a 24.559748
_cell_length_b 7.468350
_cell_length_c 11.827654
_cell_angle_alpha 90.000000
_cell_angle_beta 47.705838
_cell_angle_gamma 90.000000
_cell_volume 1604.732333
_symmetry_space_group_name_H-M "C 2/C"
_symmetry_group_IT_number 15
_symmetry_cell_setting 'monoclinic'
loop_
_space_group_symop_operation_xyz
x,y,z
-x,y,1/2-z
-x,-y,-z
x,-y,1/2+z
1/2+x,1/2+y,z
1/2-x,1/2+y,1/2-z
1/2-x,1/2-y,-z
1/2+x,1/2-y,1/2+z
loop_
_atom_site_type_symbol
_atom_site_label
_atom_site_fract_x
_atom_site_fract_y
_atom_site_fract_z
Si Si1 0.323027 0.155031 0.759738
Si Si2 0.075929 0.232843 0.180046
Si Si3 0.934427 0.172391 0.762423
Si Si4 0.869221 0.290532 0.634673
Si Si5 0.287553 0.638980 0.103240
O O1 0.311679 0.331754 0.700710
O O2 0.362697 0.004698 0.626298
O O3 0.246301 0.051110 0.889870
O O4 0.129837 0.325611 0.193183
O O5 0.000000 0.328303 0.250000
O O6 0.056021 0.041769 0.262171
O O7 0.112892 0.198747 0.007218
O O8 0.929036 0.254158 0.646288
O O9 0.000000 0.237666 0.750000
O O10 0.855739 0.198236 0.933203
O O11 0.787488 0.242270 0.795309
#
# Coordination Sequence:
#
# PCOD9298904 Si02
#       5
#     8   8   8   8   8
#     4  10  26  43  76  99 145 181 238 291 345 415
#     4  11  27  46  72 107 143 186 234 289 352 420
#     4  11  26  44  74 101 144 188 233 288 351 422
#     4  10  26  45  69 106 138 188 228 291 350 411
#     4  10  24  46  69 105 134 188 234 290 345 414
#
# _framework density 24.926275
#
# number of rings (size 3 to 8) (size 9 to 14) (size 15 to 20)
#    1.200    0.400    0.000    1.800   11.200    6.400 
#    0.000    0.000    0.000    0.000    0.000    0.000 
#    0.000    0.000    0.000    0.000    0.000    0.000 
#
# Total GULP energy -111704.600586 kJ/mol
# GULP energy per Si atom -5585.230029 kJ/mol
# Density = 2.486954 g / cm^3
# Si number density = 24.926275 Si / 1000 Ang^3
#
#
#
# Elastic Constant Matrix: (Units=GPa)
#
#
# Indices 1 2 3 4 5 6 
#
# 1 241.0760 32.9321 50.0912 0.0000 7.5581 0.0000
# 2 32.9321 76.0888 -0.5220 0.0000 -1.9159 0.0000
# 3 50.0912 -0.5220 56.5447 0.0000 -11.0467 0.0000
# 4 0.0000 0.0000 0.0000 16.5523 0.0000 14.5866
# 5 7.5581 -1.9159 -11.0467 0.0000 30.1107 0.0000
# 6 0.0000 0.0000 0.0000 14.5866 0.0000 28.2111
#
#
#
# Elastic Compliance Matrix: (Units=1/GPa)
#
#
# Indices 1 2 3 4 5 6 
#
# 1 0.005878 -0.002682 -0.005982 0.000000 -0.003841 0.000000
# 2 -0.002682 0.014392 0.003037 0.000000 0.002703 0.000000
# 3 -0.005982 0.003037 0.025146 0.000000 0.010920 0.000000
# 4 0.000000 0.000000 0.000000 0.110985 0.000000 -0.057385
# 5 -0.003841 0.002703 0.010920 0.000000 0.038353 0.000000
# 6 0.000000 0.000000 0.000000 -0.057385 0.000000 0.065118
#
#
# Mechanical properties :
#
#
# Convention : Reuss Voigt Hill
#
# Bulk Modulus (GPa) = 29.27285 59.85692 44.56488
# Shear Modulus (GPa) = 17.69826 34.38869 26.04348
#
# Velocity S-wave (km/s) = 2.66752 3.71835 3.23587
# Velocity P-wave (km/s) = 4.61051 6.51924 5.64612
#
# Compressibility (1/GPa) = 0.03416135
#
# Stress axis : x y z
#
# Youngs Moduli (GPa) = 170.13264 69.48256 39.76809
#
# Poissons Ratio (x) = 0.18633 0.23789
# Poissons Ratio (y) = 0.45625 -0.12076
# Poissons Ratio (z) = 1.01773 -0.21099
#
# Static dielectric constant tensor:
#      x y z
#    x 1.966680 0.000000 -0.060260 
#    y 0.000000 2.011000 0.000000 
#    z -0.060260 0.000000 1.984390 
# 
# From -- ./inp_files/125442.got.cif
#   From: 2010.05.17/outbox.cif.g08.bks.cpg/sg15_63_cif.got.tgz:125442.got - 2010.06.03 18:47:42.
