data_PCOD9298450
_publ_section_title
;
Structure prediction by ZEFSAII (Michael W. Deem and Ramdas Pophale) SiO2 
 PCOD9298450
Probable space group: C 2/C
;
_chemical_formula_sum "Si O2"
_cell_formula_units_Z 44
_cell_length_a 18.322436
_cell_length_b 4.898193
_cell_length_c 22.896392
_cell_angle_alpha 90.000000
_cell_angle_beta 65.391350
_cell_angle_gamma 90.000000
_cell_volume 1868.240614
_symmetry_space_group_name_H-M "C 2/C"
_symmetry_group_IT_number 15
_symmetry_cell_setting 'monoclinic'
loop_
_space_group_symop_operation_xyz
x,y,z
-x,y,1/2-z
-x,-y,-z
x,-y,1/2+z
1/2+x,1/2+y,z
1/2-x,1/2+y,1/2-z
1/2-x,1/2-y,-z
1/2+x,1/2-y,1/2+z
loop_
_atom_site_type_symbol
_atom_site_label
_atom_site_fract_x
_atom_site_fract_y
_atom_site_fract_z
Si Si1 0.305516 0.672350 0.745080
Si Si2 0.500000 0.000000 0.500000
Si Si3 0.316680 0.526950 0.371205
Si Si4 0.080089 0.945466 0.395936
Si Si5 0.589376 0.738588 0.058991
Si Si6 0.288527 0.465381 0.567637
O O1 0.234922 0.467290 0.747632
O O2 0.330703 0.592036 0.802161
O O3 0.382048 0.641172 0.677367
O O4 0.439531 0.805914 0.555720
O O5 0.429423 0.024591 0.466878
O O6 0.390213 0.672396 0.380681
O O7 0.253648 0.773509 0.388801
O O8 0.275928 0.272303 0.419178
O O9 0.145392 0.130185 0.407579
O O10 0.998938 0.117219 0.423917
O O11 0.663905 0.591695 0.002524
#
# Coordination Sequence:
#
# PCOD9298450 Si02
#       6
#     8   4   8   8   8   8
#     4  12  25  46  73 100 138 194 245 297 369 449
#     4  10  24  44  70 106 146 188 238 298 386 428
#     4  12  25  46  70 106 140 189 243 298 362 439
#     4  11  25  43  74 100 144 193 242 304 368 449
#     4  11  27  40  72 105 147 183 242 307 368 429
#     4  11  24  44  72 101 142 188 238 295 364 436
#
# _framework density 23.551569000000001
#
# number of rings (size 3 to 8) (size 9 to 14) (size 15 to 20)
#    0.000    0.727    3.636    3.273   15.273    0.727 
#    0.000    0.000    0.000    0.000    0.000    0.000 
#    0.000    0.000    0.000    0.000    0.000    0.000 
#
# Total GULP energy -122477.784810 kJ/mol
# GULP energy per Si atom -5567.172037 kJ/mol
# Density = 2.349796 g / cm^3
# Si number density = 23.551569 Si / 1000 Ang^3
#
#
#
# Elastic Constant Matrix: (Units=GPa)
#
#
# Indices 1 2 3 4 5 6 
#
# 1 284.4038 61.2549 152.1779 -0.0169 17.4242 0.0223
# 2 61.2549 87.3914 39.1415 0.0138 -14.5420 -0.0021
# 3 152.1779 39.1415 206.3200 -0.0197 -5.6167 0.0046
# 4 -0.0169 0.0138 -0.0197 27.7620 -0.0051 -4.9682
# 5 17.4242 -14.5420 -5.6167 -0.0051 37.1618 0.0020
# 6 0.0223 -0.0021 0.0046 -4.9682 0.0020 37.5950
#
#
#
# Elastic Compliance Matrix: (Units=1/GPa)
#
#
# Indices 1 2 3 4 5 6 
#
# 1 0.007245 -0.003884 -0.004761 0.000001 -0.005637 -0.000003
# 2 -0.003884 0.015405 0.000157 -0.000008 0.007873 0.000002
# 3 -0.004761 0.000157 0.008426 0.000004 0.003567 0.000002
# 4 0.000001 -0.000008 0.000004 0.036893 0.000002 0.004875
# 5 -0.005637 0.007873 0.003567 0.000002 0.033172 0.000002
# 6 -0.000003 0.000002 0.000002 0.004875 0.000002 0.027244
#
#
# Mechanical properties :
#
#
# Convention : Reuss Voigt Hill
#
# Bulk Modulus (GPa) = 70.92249 120.36265 95.64257
# Shear Modulus (GPa) = 33.31980 42.20648 37.76314
#
# Velocity S-wave (km/s) = 3.76541 4.23790 4.00862
# Velocity P-wave (km/s) = 7.00596 8.66968 7.88184
#
# Compressibility (1/GPa) = 0.01409990
#
# Stress axis : x y z
#
# Youngs Moduli (GPa) = 138.02046 64.91307 118.68670
#
# Poissons Ratio (x) = 0.25213 0.56502
# Poissons Ratio (y) = 0.53609 -0.01859
# Poissons Ratio (z) = 0.65706 -0.01017
#
# Static dielectric constant tensor:
#      x y z
#    x 1.981640 0.000010 0.039800 
#    y 0.000010 1.663690 -0.000030 
#    z 0.039800 -0.000030 1.858390 
# 
# From -- ./inp_files/275602.got.cif
#   From: 2010.05.17/outbox.cif.g08.bks.cpg/sg15_138_cif.got.tgz:275602.got - 2010.06.03 18:47:42.
