data_PCOD9298869
_publ_section_title
;
Structure prediction by ZEFSAII (Michael W. Deem and Ramdas Pophale) SiO2 
 PCOD9298869
Probable space group: C 2/C
;
_chemical_formula_sum "Si O2"
_cell_formula_units_Z 44
_cell_length_a 15.942661
_cell_length_b 11.559997
_cell_length_c 11.464849
_cell_angle_alpha 90.000000
_cell_angle_beta 111.210487
_cell_angle_gamma 90.000000
_cell_volume 1969.803038
_symmetry_space_group_name_H-M "C 2/C"
_symmetry_group_IT_number 15
_symmetry_cell_setting 'monoclinic'
loop_
_space_group_symop_operation_xyz
x,y,z
-x,y,1/2-z
-x,-y,-z
x,-y,1/2+z
1/2+x,1/2+y,z
1/2-x,1/2+y,1/2-z
1/2-x,1/2-y,-z
1/2+x,1/2-y,1/2+z
loop_
_atom_site_type_symbol
_atom_site_label
_atom_site_fract_x
_atom_site_fract_y
_atom_site_fract_z
Si Si1 0.500000 0.106865 0.750000
Si Si2 0.151933 0.496171 0.679280
Si Si3 0.939101 0.126796 0.830137
Si Si4 0.682724 0.529667 0.567414
Si Si5 0.106077 0.274592 0.506555
Si Si6 0.774063 0.149622 0.598552
O O1 0.558975 0.027045 0.694311
O O2 0.435505 0.184254 0.635896
O O3 0.228507 0.492348 0.817803
O O4 0.146071 0.384921 0.593632
O O5 0.185752 0.601237 0.615830
O O6 0.901301 0.017974 0.884795
O O7 0.847711 0.183321 0.731160
O O8 0.000000 0.104387 0.750000
O O9 0.969422 0.218563 0.943423
O O10 0.674245 0.665474 0.529341
O O11 0.680124 0.453443 0.451784
O O12 0.750000 0.250000 0.500000
#
# Coordination Sequence:
#
# PCOD9298869 Si02
#       6
#     4   8   8   8   8   8
#     4  12  26  42  68 108 146 190 230 300 350 422
#     4  11  24  42  68 101 134 186 232 294 347 412
#     4   9  22  42  65 100 135 183 221 287 342 412
#     4   9  23  44  69 102 133 189 227 295 344 418
#     4  10  24  46  68 104 142 183 236 291 351 426
#     4  11  23  42  68  96 134 182 233 279 353 418
#
# _framework density 22.337259
#
# number of rings (size 3 to 8) (size 9 to 14) (size 15 to 20)
#    1.091    0.727    0.000    2.727    3.818    3.636 
#    4.909    0.000    0.000    0.000    0.000    0.000 
#    0.000    0.000    0.000    0.000    0.000    0.000 
#
# Total GULP energy -122755.658970 kJ/mol
# GULP energy per Si atom -5579.802680 kJ/mol
# Density = 2.228642 g / cm^3
# Si number density = 22.337259 Si / 1000 Ang^3
#
#
#
# Elastic Constant Matrix: (Units=GPa)
#
#
# Indices 1 2 3 4 5 6 
#
# 1 70.3959 21.2766 -0.7022 0.0000 -14.7335 0.0000
# 2 21.2766 86.8786 53.9324 0.0000 14.6235 0.0000
# 3 -0.7022 53.9324 104.3440 0.0000 17.5343 0.0000
# 4 0.0000 0.0000 0.0000 36.6245 0.0000 6.6563
# 5 -14.7335 14.6235 17.5343 0.0000 43.0752 0.0000
# 6 0.0000 0.0000 0.0000 6.6563 0.0000 -28.0432
#
#
#
# Elastic Compliance Matrix: (Units=1/GPa)
#
#
# Indices 1 2 3 4 5 6 
#
# 1 0.018034 -0.007329 0.002635 0.000000 0.007584 0.000000
# 2 -0.007329 0.020151 -0.009547 0.000000 -0.005462 0.000000
# 3 0.002635 -0.009547 0.014856 0.000000 -0.001905 0.000000
# 4 0.000000 0.000000 0.000000 0.026175 0.000000 0.006213
# 5 0.007584 -0.005462 -0.001905 0.000000 0.028439 0.000000
# 6 0.000000 0.000000 0.000000 0.006213 0.000000 -0.034185
#
#
# Mechanical properties :
#
#
# Convention : Reuss Voigt Hill
#
# Bulk Modulus (GPa) = 40.71746 45.62578 43.17162
# Shear Modulus (GPa) = 45.39746 22.80542 34.10144
#
# Velocity S-wave (km/s) = 4.51307 3.19871 3.91149
# Velocity P-wave (km/s) = 6.73981 5.84059 6.30625
#
# Compressibility (1/GPa) = 0.02455949
#
# Stress axis : x y z
#
# Youngs Moduli (GPa) = 55.45088 49.62531 67.31235
#
# Poissons Ratio (x) = 0.36369 -0.17737
# Poissons Ratio (y) = 0.40639 0.64263
# Poissons Ratio (z) = -0.14611 0.47377
#
# Static dielectric constant tensor:
#      x y z
#    x 1.882190 0.000000 -0.005660 
#    y 0.000000 1.804660 0.000000 
#    z -0.005660 0.000000 1.821970 
# 
# From -- ./inp_files/94978.got.cif
#   From: 2010.05.17/outbox.cif.g08.bks.cpg/sg15_48_cif.got.tgz:94978.got - 2010.06.03 18:47:42.
