data_PCOD9298801
_publ_section_title
;
Structure prediction by ZEFSAII (Michael W. Deem and Ramdas Pophale) SiO2 
 PCOD9298801
Probable space group: C 2/C
;
_chemical_formula_sum "Si O2"
_cell_formula_units_Z 36
_cell_length_a 23.283557
_cell_length_b 4.850856
_cell_length_c 14.217710
_cell_angle_alpha 90.000000
_cell_angle_beta 117.538274
_cell_angle_gamma 90.000000
_cell_volume 1423.885738
_symmetry_space_group_name_H-M "C 2/C"
_symmetry_group_IT_number 15
_symmetry_cell_setting 'monoclinic'
loop_
_space_group_symop_operation_xyz
x,y,z
-x,y,1/2-z
-x,-y,-z
x,-y,1/2+z
1/2+x,1/2+y,z
1/2-x,1/2+y,1/2-z
1/2-x,1/2-y,-z
1/2+x,1/2-y,1/2+z
loop_
_atom_site_type_symbol
_atom_site_label
_atom_site_fract_x
_atom_site_fract_y
_atom_site_fract_z
Si Si1 0.000000 0.064884 0.750000
Si Si2 0.784934 0.206419 0.389217
Si Si3 0.802922 0.789484 0.691375
Si Si4 0.484584 0.746529 0.056441
Si Si5 0.384325 0.022685 0.100304
O O1 0.058794 0.268704 0.823324
O O2 0.981785 0.861400 0.821948
O O3 0.819100 0.250189 0.313757
O O4 0.761390 0.893537 0.376545
O O5 0.829552 0.300619 0.507208
O O6 0.720221 0.397213 0.338757
O O7 0.854512 0.662528 0.660050
O O8 0.414313 0.818922 0.044531
O O9 0.500000 0.500000 0.000000
O O10 0.500000 0.000000 0.000000
#
# Coordination Sequence:
#
# PCOD9298801 Si02
#       5
#     4   8   8   8   8
#     4  12  30  52  78 120 152 214 272 328 392 484
#     4  10  24  45  75 111 150 200 254 328 391 467
#     4  10  24  46  73 112 151 196 263 318 397 463
#     4  12  29  52  74 111 158 207 267 323 395 468
#     4  12  27  48  80 109 158 208 262 327 390 474
#
# _framework density 25.282927000000001
#
# number of rings (size 3 to 8) (size 9 to 14) (size 15 to 20)
#    0.000    0.889    2.222    2.000    9.333    0.000 
#    4.000    0.000    0.000    0.000    0.000    0.000 
#    0.000    0.000    0.000    0.000    0.000    0.000 
#
# Total GULP energy -100829.257145 kJ/mol
# GULP energy per Si atom -5601.625397 kJ/mol
# Density = 2.522538 g / cm^3
# Si number density = 25.282927 Si / 1000 Ang^3
#
#
#
# Elastic Constant Matrix: (Units=GPa)
#
#
# Indices 1 2 3 4 5 6 
#
# 1 147.2446 33.0787 61.6953 0.0000 -55.9093 0.0000
# 2 33.0787 137.4082 29.7260 -0.0002 -24.5047 0.0002
# 3 61.6953 29.7260 139.7432 0.0000 -24.9268 0.0000
# 4 0.0000 -0.0002 0.0000 37.2916 0.0000 -8.5950
# 5 -55.9093 -24.5047 -24.9268 0.0000 58.0952 0.0000
# 6 0.0000 0.0002 0.0000 -8.5950 0.0000 41.4026
#
#
#
# Elastic Compliance Matrix: (Units=1/GPa)
#
#
# Indices 1 2 3 4 5 6 
#
# 1 0.012151 -0.000380 -0.003494 0.000000 0.010034 0.000000
# 2 -0.000380 0.008063 -0.001089 0.000000 0.002568 0.000000
# 3 -0.003494 -0.001089 0.008932 0.000000 0.000011 0.000000
# 4 0.000000 0.000000 0.000000 0.028163 0.000000 0.005847
# 5 0.010034 0.002568 0.000011 0.000000 0.027958 0.000000
# 6 0.000000 0.000000 0.000000 0.005847 0.000000 0.025367
#
#
# Mechanical properties :
#
#
# Convention : Reuss Voigt Hill
#
# Bulk Modulus (GPa) = 52.03030 74.82177 63.42603
# Shear Modulus (GPa) = 39.38089 47.35095 43.36592
#
# Velocity S-wave (km/s) = 3.95094 4.33233 4.14602
# Velocity P-wave (km/s) = 6.43716 7.39483 6.93255
#
# Compressibility (1/GPa) = 0.01921957
#
# Stress axis : x y z
#
# Youngs Moduli (GPa) = 82.30023 124.02906 111.95617
#
# Poissons Ratio (x) = 0.04711 0.39115
# Poissons Ratio (y) = 0.03126 0.12196
# Poissons Ratio (z) = 0.28754 0.13511
#
# Static dielectric constant tensor:
#      x y z
#    x 1.994130 0.000000 0.035230 
#    y 0.000000 1.944720 0.000000 
#    z 0.035230 0.000000 1.976950 
# 
# From -- ./inp_files/170668.got.cif
#   From: 2010.05.17/outbox.cif.g08.bks.cpg/sg15_86_cif.got.tgz:170668.got - 2010.06.03 18:47:42.
