data_PCOD9298570
_publ_section_title
;
Structure prediction by ZEFSAII (Michael W. Deem and Ramdas Pophale) SiO2 
 PCOD9298570
Probable space group: C 2/C
;
_chemical_formula_sum "Si O2"
_cell_formula_units_Z 20
_cell_length_a 11.147810
_cell_length_b 11.236173
_cell_length_c 5.497697
_cell_angle_alpha 90.000000
_cell_angle_beta 99.954663
_cell_angle_gamma 90.000000
_cell_volume 678.267002
_symmetry_space_group_name_H-M "C 2/C"
_symmetry_group_IT_number 15
_symmetry_cell_setting 'monoclinic'
loop_
_space_group_symop_operation_xyz
x,y,z
-x,y,1/2-z
-x,-y,-z
x,-y,1/2+z
1/2+x,1/2+y,z
1/2-x,1/2+y,1/2-z
1/2-x,1/2-y,-z
1/2+x,1/2-y,1/2+z
loop_
_atom_site_type_symbol
_atom_site_label
_atom_site_fract_x
_atom_site_fract_y
_atom_site_fract_z
Si Si1 0.627122 0.188613 0.355937
Si Si2 0.683231 0.427348 0.859696
Si Si3 0.000000 0.292643 0.250000
O O1 0.500000 0.258004 0.250000
O O2 0.750000 0.250000 0.500000
O O3 0.678992 0.115452 0.148358
O O4 0.571195 0.128760 0.576410
O O5 0.659551 0.501921 0.601723
O O6 0.603874 0.308228 0.845722
#
# Coordination Sequence:
#
# PCOD9298570 Si02
#       3
#     8   8   4
#     4  10  25  44  73 102 143 187 241 288 357 426
#     4  11  26  44  70 107 144 185 236 300 358 417
#     4  10  24  44  74  96 142 194 242 280 352 440
#
# _framework density 29.486910000000002
#
# number of rings (size 3 to 8) (size 9 to 14) (size 15 to 20)
#    0.000    1.600    0.000    1.200   16.800    4.800 
#    0.000    0.000    0.000    0.000    0.000    0.000 
#    0.000    0.000    0.000    0.000    0.000    0.000 
#
# Total GULP energy -55673.034776 kJ/mol
# GULP energy per Si atom -5567.303478 kJ/mol
# Density = 2.941980 g / cm^3
# Si number density = 29.486910 Si / 1000 Ang^3
#
#
#
# Elastic Constant Matrix: (Units=GPa)
#
#
# Indices 1 2 3 4 5 6 
#
# 1 235.7838 61.2090 52.1045 0.0000 -2.2830 0.0000
# 2 61.2090 144.4421 64.6869 0.0000 1.5907 0.0000
# 3 52.1045 64.6869 207.3869 0.0000 -50.4274 0.0000
# 4 0.0000 0.0000 0.0000 -4.0726 0.0000 3.2620
# 5 -2.2830 1.5907 -50.4274 0.0000 86.8154 0.0000
# 6 0.0000 0.0000 0.0000 3.2620 0.0000 33.9045
#
#
#
# Elastic Compliance Matrix: (Units=1/GPa)
#
#
# Indices 1 2 3 4 5 6 
#
# 1 0.004850 -0.001716 -0.000751 0.000000 -0.000277 0.000000
# 2 -0.001716 0.008924 -0.002798 0.000000 -0.001834 0.000000
# 3 -0.000751 -0.002798 0.006860 0.000000 0.004016 0.000000
# 4 0.000000 0.000000 0.000000 -0.227976 0.000000 0.021934
# 5 -0.000277 -0.001834 0.004016 0.000000 0.013878 0.000000
# 6 0.000000 0.000000 0.000000 0.021934 0.000000 0.027384
#
#
# Mechanical properties :
#
#
# Convention : Reuss Voigt Hill
#
# Bulk Modulus (GPa) = 98.97343 104.84596 101.90969
# Shear Modulus (GPa) = -32.85517 50.63695 8.89089
#
# Velocity S-wave (km/s) = -3.34163 4.14849 1.73832
# Velocity P-wave (km/s) = 4.33006 7.65380 6.21812
#
# Compressibility (1/GPa) = 0.01010372
#
# Stress axis : x y z
#
# Youngs Moduli (GPa) = 206.19301 112.06094 145.77563
#
# Poissons Ratio (x) = 0.19229 0.10942
# Poissons Ratio (y) = 0.35382 0.40792
# Poissons Ratio (z) = 0.15477 0.31358
#
# Static dielectric constant tensor:
#      x y z
#    x 2.370190 0.000000 0.390970 
#    y 0.000000 2.326420 0.000000 
#    z 0.390970 0.000000 3.083020 
# 
# From -- ./inp_files/916.got.cif
#   From: 2010.05.17/outbox.cif.g08.bks.cpg/sg15_1_cif.got.tgz:916.got - 2010.06.03 18:47:42.
