data_PCOD9298687
_publ_section_title
;
Structure prediction by ZEFSAII (Michael W. Deem and Ramdas Pophale) SiO2 
 PCOD9298687
Probable space group: C 2/C
;
_chemical_formula_sum "Si O2"
_cell_formula_units_Z 44
_cell_length_a 21.088306
_cell_length_b 8.444681
_cell_length_c 13.325310
_cell_angle_alpha 90.000000
_cell_angle_beta 121.398321
_cell_angle_gamma 90.000000
_cell_volume 2025.533382
_symmetry_space_group_name_H-M "C 2/C"
_symmetry_group_IT_number 15
_symmetry_cell_setting 'monoclinic'
loop_
_space_group_symop_operation_xyz
x,y,z
-x,y,1/2-z
-x,-y,-z
x,-y,1/2+z
1/2+x,1/2+y,z
1/2-x,1/2+y,1/2-z
1/2-x,1/2-y,-z
1/2+x,1/2-y,1/2+z
loop_
_atom_site_type_symbol
_atom_site_label
_atom_site_fract_x
_atom_site_fract_y
_atom_site_fract_z
Si Si1 0.653859 0.385943 0.093278
Si Si2 0.509290 0.250470 0.067642
Si Si3 0.099157 0.569855 0.667365
Si Si4 0.000000 0.951478 0.250000
Si Si5 0.141572 0.170066 0.351187
Si Si6 0.244122 0.597309 0.221573
O O1 0.570558 0.360824 0.063327
O O2 0.693833 0.552470 0.144851
O O3 0.704782 0.266677 0.200227
O O4 0.657908 0.330257 0.982253
O O5 0.478678 0.343626 0.137676
O O6 0.551069 0.090093 0.139549
O O7 0.448892 0.191196 0.938455
O O8 0.122223 0.658716 0.788362
O O9 0.173803 0.518619 0.671597
O O10 0.930415 0.059842 0.221600
O O11 0.209870 0.101052 0.343681
#
# Coordination Sequence:
#
# PCOD9298687 Si02
#       6
#     8   8   8   4   8   8
#     4  11  24  45  68  96 136 172 229 273 343 394
#     4  10  24  46  66  98 134 180 223 280 327 405
#     4  10  24  45  69  94 141 178 221 275 339 392
#     4  12  26  40  70 102 132 174 232 274 334 396
#     4  12  25  42  70 101 131 186 218 280 336 402
#     4  11  23  43  67 100 131 176 220 280 325 403
#
# _framework density 21.722674999999999
#
# number of rings (size 3 to 8) (size 9 to 14) (size 15 to 20)
#    0.000    1.091    3.636    1.636    2.545    6.545 
#    3.273    1.818    0.000    0.000    0.000    0.000 
#    0.000    0.000    0.000    0.000    0.000    0.000 
#
# Total GULP energy -123017.744420 kJ/mol
# GULP energy per Si atom -5591.715655 kJ/mol
# Density = 2.167323 g / cm^3
# Si number density = 21.722675 Si / 1000 Ang^3
#
#
#
# Elastic Constant Matrix: (Units=GPa)
#
#
# Indices 1 2 3 4 5 6 
#
# 1 88.1085 15.8698 -8.6188 0.0000 4.7267 0.0000
# 2 15.8698 55.9535 24.4118 0.0000 8.8998 0.0000
# 3 -8.6188 24.4118 70.5091 0.0000 -5.7877 0.0000
# 4 0.0000 0.0000 0.0000 21.6030 0.0000 7.0547
# 5 4.7267 8.8998 -5.7877 0.0000 34.2603 0.0000
# 6 0.0000 0.0000 0.0000 7.0547 0.0000 42.1240
#
#
#
# Elastic Compliance Matrix: (Units=1/GPa)
#
#
# Indices 1 2 3 4 5 6 
#
# 1 0.012568 -0.005017 0.003283 0.000000 0.000124 0.000000
# 2 -0.005017 0.024739 -0.009785 0.000000 -0.007387 0.000000
# 3 0.003283 -0.009785 0.018398 0.000000 0.005197 0.000000
# 4 0.000000 0.000000 0.000000 0.048968 0.000000 -0.008201
# 5 0.000124 -0.007387 0.005197 0.000000 0.031968 0.000000
# 6 0.000000 0.000000 0.000000 -0.008201 0.000000 0.025113
#
#
# Mechanical properties :
#
#
# Convention : Reuss Voigt Hill
#
# Bulk Modulus (GPa) = 30.61054 30.87742 30.74398
# Shear Modulus (GPa) = 25.55203 31.79137 28.67170
#
# Velocity S-wave (km/s) = 3.43342 3.82974 3.63698
# Velocity P-wave (km/s) = 5.46259 5.81387 5.64097
#
# Compressibility (1/GPa) = 0.03266848
#
# Stress axis : x y z
#
# Youngs Moduli (GPa) = 79.56866 40.42239 54.35330
#
# Poissons Ratio (x) = 0.20279 -0.17846
# Poissons Ratio (y) = 0.39917 0.53183
# Poissons Ratio (z) = -0.26125 0.39552
#
# Static dielectric constant tensor:
#      x y z
#    x 1.765770 0.000000 0.031450 
#    y 0.000000 1.858000 0.000000 
#    z 0.031450 0.000000 1.776770 
# 
# From -- ./inp_files/116852.got.cif
#   From: 2010.05.17/outbox.cif.g08.bks.cpg/sg15_59_cif.got.tgz:116852.got - 2010.06.03 18:47:42.
