data_PCOD9298562
_publ_section_title
;
Structure prediction by ZEFSAII (Michael W. Deem and Ramdas Pophale) SiO2 
 PCOD9298562
Probable space group: C 2/C
;
_chemical_formula_sum "Si O2"
_cell_formula_units_Z 44
_cell_length_a 13.500751
_cell_length_b 5.005567
_cell_length_c 25.368994
_cell_angle_alpha 90.000000
_cell_angle_beta 67.475872
_cell_angle_gamma 90.000000
_cell_volume 1583.631014
_symmetry_space_group_name_H-M "C 2/C"
_symmetry_group_IT_number 15
_symmetry_cell_setting 'monoclinic'
loop_
_space_group_symop_operation_xyz
x,y,z
-x,y,1/2-z
-x,-y,-z
x,-y,1/2+z
1/2+x,1/2+y,z
1/2-x,1/2+y,1/2-z
1/2-x,1/2-y,-z
1/2+x,1/2-y,1/2+z
loop_
_atom_site_type_symbol
_atom_site_label
_atom_site_fract_x
_atom_site_fract_y
_atom_site_fract_z
Si Si1 0.602329 0.803464 0.982868
Si Si2 0.262311 0.292083 0.780952
Si Si3 0.958875 0.076019 0.642682
Si Si4 0.660177 0.283863 0.911177
Si Si5 0.000000 0.877883 0.750000
Si Si6 0.163009 0.623497 0.059770
O O1 0.603084 0.505110 0.961453
O O2 0.674717 0.984989 0.929488
O O3 0.500000 0.000000 0.000000
O O4 0.638702 0.843274 0.035818
O O5 0.256111 0.601637 0.766114
O O6 0.155522 0.227055 0.834964
O O7 0.383508 0.233103 0.775217
O O8 0.993902 0.034627 0.695715
O O9 0.053278 0.216930 0.591188
O O10 0.916892 0.804849 0.623220
O O11 0.780775 0.392856 0.894708
O O12 0.250000 0.750000 0.000000
#
# Coordination Sequence:
#
# PCOD9298562 Si02
#       6
#     8   8   8   8   4   8
#     4  11  22  44  69  98 150 190 240 300 362 437
#     4  10  25  49  75 105 144 191 250 316 377 442
#     4  11  25  48  76 112 152 200 253 316 376 452
#     4  11  25  43  68 105 143 195 242 299 367 441
#     4  10  26  50  78 108 150 198 260 314 384 448
#     4  10  24  44  74 109 149 196 244 300 376 452
#
# _framework density 27.784248999999999
#
# number of rings (size 3 to 8) (size 9 to 14) (size 15 to 20)
#    0.000    1.455    1.818    1.091    2.545   16.000 
#    3.273    0.000    0.000    0.000    0.000    0.000 
#    0.000    0.000    0.000    0.000    0.000    0.000 
#
# Total GULP energy -122737.860668 kJ/mol
# GULP energy per Si atom -5578.993667 kJ/mol
# Density = 2.772101 g / cm^3
# Si number density = 27.784249 Si / 1000 Ang^3
#
#
#
# Elastic Constant Matrix: (Units=GPa)
#
#
# Indices 1 2 3 4 5 6 
#
# 1 195.2388 14.0885 61.3478 -0.0012 -14.1354 -0.0007
# 2 14.0885 105.1522 44.0459 -0.0049 -6.9979 -0.0094
# 3 61.3478 44.0459 125.5464 -0.0026 -14.6647 0.0006
# 4 -0.0012 -0.0049 -0.0026 35.8865 -0.0005 -12.9752
# 5 -14.1354 -6.9979 -14.6647 -0.0005 77.9607 -0.0011
# 6 -0.0007 -0.0094 0.0006 -12.9752 -0.0011 42.3695
#
#
#
# Elastic Compliance Matrix: (Units=1/GPa)
#
#
# Indices 1 2 3 4 5 6 
#
# 1 0.006098 0.000517 -0.003095 0.000000 0.000570 0.000000
# 2 0.000517 0.011198 -0.004144 0.000002 0.000319 0.000003
# 3 -0.003095 -0.004144 0.011065 0.000000 0.001148 -0.000001
# 4 0.000000 0.000002 0.000000 0.031335 0.000001 0.009596
# 5 0.000570 0.000319 0.001148 0.000001 0.013175 0.000001
# 6 0.000000 0.000003 -0.000001 0.009596 0.000001 0.026541
#
#
# Mechanical properties :
#
#
# Convention : Reuss Voigt Hill
#
# Bulk Modulus (GPa) = 67.03129 73.87797 70.45463
# Shear Modulus (GPa) = 42.43463 51.67368 47.05416
#
# Velocity S-wave (km/s) = 3.91230 4.31724 4.11975
# Velocity P-wave (km/s) = 6.67728 7.17628 6.93127
#
# Compressibility (1/GPa) = 0.01491841
#
# Stress axis : x y z
#
# Youngs Moduli (GPa) = 163.97942 89.30322 90.37153
#
# Poissons Ratio (x) = -0.04619 0.27968
# Poissons Ratio (y) = -0.08481 0.37450
# Poissons Ratio (z) = 0.50748 0.37007
#
# Static dielectric constant tensor:
#      x y z
#    x 2.334950 0.000000 -0.000350 
#    y 0.000000 2.236390 0.000000 
#    z -0.000350 0.000000 2.508360 
# 
# From -- ./inp_files/312023.got.cif
#   From: 2010.05.17/outbox.cif.g08.bks.cpg/sg15_157_cif.got.tgz:312023.got - 2010.06.03 18:47:42.
