data_PCOD9298144
_publ_section_title
;
Structure prediction by ZEFSAII (Michael W. Deem and Ramdas Pophale) SiO2 
 PCOD9298144
Probable space group: C 2/C
;
_chemical_formula_sum "Si O2"
_cell_formula_units_Z 40
_cell_length_a 18.525970
_cell_length_b 5.200428
_cell_length_c 17.651462
_cell_angle_alpha 90.000000
_cell_angle_beta 80.153665
_cell_angle_gamma 90.000000
_cell_volume 1675.544452
_symmetry_space_group_name_H-M "C 2/C"
_symmetry_group_IT_number 15
_symmetry_cell_setting 'monoclinic'
loop_
_space_group_symop_operation_xyz
x,y,z
-x,y,1/2-z
-x,-y,-z
x,-y,1/2+z
1/2+x,1/2+y,z
1/2-x,1/2+y,1/2-z
1/2-x,1/2-y,-z
1/2+x,1/2-y,1/2+z
loop_
_atom_site_type_symbol
_atom_site_label
_atom_site_fract_x
_atom_site_fract_y
_atom_site_fract_z
Si Si1 0.852215 0.043691 0.647744
Si Si2 0.110047 0.573409 0.565638
Si Si3 0.525560 0.428388 0.101006
Si Si4 0.358727 0.416318 0.818283
Si Si5 0.212226 0.546139 0.914817
O O1 0.836541 0.956682 0.736718
O O2 0.817840 0.824775 0.601180
O O3 0.819978 0.323413 0.634539
O O4 0.939464 0.048294 0.621157
O O5 0.055036 0.339244 0.564918
O O6 0.131870 0.628394 0.649545
O O7 0.181260 0.530537 0.502186
O O8 0.065110 0.832145 0.552036
O O9 0.563493 0.455675 0.176975
O O10 0.298688 0.537221 0.885728
#
# Coordination Sequence:
#
# PCOD9298144 Si02
#       5
#     8   8   8   8   8
#     4  12  26  43  67 101 133 175 215 284 326 389
#     4  10  24  43  71  95 130 178 221 268 324 402
#     4  10  24  43  70  91 134 172 228 259 334 392
#     4  10  26  45  68  96 133 180 221 267 327 405
#     4  12  26  42  70  98 137 167 225 274 336 378
#
# _framework density 23.872838999999999
#
# number of rings (size 3 to 8) (size 9 to 14) (size 15 to 20)
#    1.200    0.000    0.000    4.800    5.600    5.600 
#    3.600    0.000    0.000    0.000    0.000    0.000 
#    0.000    0.000    0.000    0.000    0.000    0.000 
#
# Total GULP energy -111895.250353 kJ/mol
# GULP energy per Si atom -5594.762518 kJ/mol
# Density = 2.381850 g / cm^3
# Si number density = 23.872839 Si / 1000 Ang^3
#
#
#
# Elastic Constant Matrix: (Units=GPa)
#
#
# Indices 1 2 3 4 5 6 
#
# 1 115.3346 29.5679 10.1087 0.0000 -29.9573 0.0000
# 2 29.5679 129.8539 15.0277 0.0000 -14.4350 0.0000
# 3 10.1087 15.0277 107.7348 0.0000 -8.0560 0.0000
# 4 0.0000 0.0000 0.0000 22.2801 0.0000 4.3480
# 5 -29.9573 -14.4350 -8.0560 0.0000 41.4820 0.0000
# 6 0.0000 0.0000 0.0000 4.3480 0.0000 32.3338
#
#
#
# Elastic Compliance Matrix: (Units=1/GPa)
#
#
# Indices 1 2 3 4 5 6 
#
# 1 0.011024 -0.001666 -0.000254 0.000000 0.007333 0.000000
# 2 -0.001666 0.008354 -0.000895 0.000000 0.001530 0.000000
# 3 -0.000254 -0.000895 0.009532 0.000000 0.001357 0.000000
# 4 0.000000 0.000000 0.000000 0.046093 0.000000 -0.006198
# 5 0.007333 0.001530 0.001357 0.000000 0.030198 0.000000
# 6 0.000000 0.000000 0.000000 -0.006198 0.000000 0.031761
#
#
# Mechanical properties :
#
#
# Convention : Reuss Voigt Hill
#
# Bulk Modulus (GPa) = 42.95137 51.37023 47.16080
# Shear Modulus (GPa) = 33.25554 39.10044 36.17799
#
# Velocity S-wave (km/s) = 3.73638 4.05144 3.89710
# Velocity P-wave (km/s) = 6.05350 6.59170 6.32832
#
# Compressibility (1/GPa) = 0.02328214
#
# Stress axis : x y z
#
# Youngs Moduli (GPa) = 90.70881 119.70458 104.90891
#
# Poissons Ratio (x) = 0.19940 0.02662
# Poissons Ratio (y) = 0.15110 0.09385
# Poissons Ratio (z) = 0.02302 0.10708
#
# Static dielectric constant tensor:
#      x y z
#    x 1.885430 0.000000 0.064310 
#    y 0.000000 1.909080 0.000000 
#    z 0.064310 0.000000 1.929250 
# 
# From -- ./inp_files/246201.got.cif
#   From: 2010.05.17/outbox.cif.g08.bks.cpg/sg15_124_cif.got.tgz:246201.got - 2010.06.03 18:47:42.
