data_PCOD9298164
_publ_section_title
;
Structure prediction by ZEFSAII (Michael W. Deem and Ramdas Pophale) SiO2 
 PCOD9298164
Probable space group: C 2/C
;
_chemical_formula_sum "Si O2"
_cell_formula_units_Z 48
_cell_length_a 9.284223
_cell_length_b 14.505321
_cell_length_c 25.666626
_cell_angle_alpha 90.000000
_cell_angle_beta 143.495987
_cell_angle_gamma 90.000000
_cell_volume 2056.223848
_symmetry_space_group_name_H-M "C 2/C"
_symmetry_group_IT_number 15
_symmetry_cell_setting 'monoclinic'
loop_
_space_group_symop_operation_xyz
x,y,z
-x,y,1/2-z
-x,-y,-z
x,-y,1/2+z
1/2+x,1/2+y,z
1/2-x,1/2+y,1/2-z
1/2-x,1/2-y,-z
1/2+x,1/2-y,1/2+z
loop_
_atom_site_type_symbol
_atom_site_label
_atom_site_fract_x
_atom_site_fract_y
_atom_site_fract_z
Si Si1 0.790695 0.309444 0.113314
Si Si2 0.541080 0.822962 0.039271
Si Si3 0.839217 0.473270 0.055265
Si Si4 0.013194 0.102429 0.890031
Si Si5 0.741083 0.744594 0.195846
Si Si6 0.341777 0.963182 0.755956
O O1 0.714124 0.391615 0.051795
O O2 0.685540 0.337230 0.137889
O O3 0.079532 0.302166 0.189333
O O4 0.669010 0.214704 0.058851
O O5 0.480555 0.918777 0.050534
O O6 0.788560 0.834383 0.079948
O O7 0.579788 0.749238 0.096750
O O8 0.011287 0.521268 0.148171
O O9 0.657536 0.542898 0.975180
O O10 0.889392 0.029357 0.815330
O O11 0.776641 0.643509 0.228976
O O12 0.000000 0.780403 0.250000
O O13 0.500000 0.986271 0.750000
#
# Coordination Sequence:
#
# PCOD9298164 Si02
#       6
#     8   8   8   8   8   8
#     4  11  23  45  69 101 139 187 236 293 358 431
#     4  11  25  43  70 103 147 188 231 298 361 426
#     4  11  24  45  73 100 138 192 238 289 357 424
#     4  12  25  42  72 106 146 181 246 293 357 430
#     4  10  24  43  71  93 140 185 242 289 365 411
#     4  11  24  44  70 101 136 188 248 299 348 430
#
# _framework density 23.343761000000001
#
# number of rings (size 3 to 8) (size 9 to 14) (size 15 to 20)
#    0.000    1.000    1.667    5.500    9.333    0.000 
#    0.000    0.000    0.000    0.000    0.000    0.000 
#    0.000    0.000    0.000    0.000    0.000    0.000 
#
# Total GULP energy -134285.414933 kJ/mol
# GULP energy per Si atom -5595.225622 kJ/mol
# Density = 2.329063 g / cm^3
# Si number density = 23.343761 Si / 1000 Ang^3
#
#
#
# Elastic Constant Matrix: (Units=GPa)
#
#
# Indices 1 2 3 4 5 6 
#
# 1 143.9117 48.0270 28.6792 0.0000 17.2072 0.0000
# 2 48.0270 90.3050 53.7639 0.0000 -6.5798 0.0000
# 3 28.6792 53.7639 132.4281 -0.0003 -12.1492 -0.0001
# 4 0.0000 0.0000 -0.0003 54.3164 0.0000 3.1949
# 5 17.2072 -6.5798 -12.1492 0.0000 29.1747 0.0000
# 6 0.0000 0.0000 -0.0001 3.1949 0.0000 18.4819
#
#
#
# Elastic Compliance Matrix: (Units=1/GPa)
#
#
# Indices 1 2 3 4 5 6 
#
# 1 0.009703 -0.005328 -0.000596 0.000000 -0.007173 0.000000
# 2 -0.005328 0.017550 -0.005531 0.000000 0.004797 0.000000
# 3 -0.000596 -0.005531 0.010235 0.000000 0.003366 0.000000
# 4 0.000000 0.000000 0.000000 0.018600 0.000000 -0.003215
# 5 -0.007173 0.004797 0.003366 0.000000 0.040991 0.000000
# 6 0.000000 0.000000 0.000000 -0.003215 0.000000 0.054663
#
#
# Mechanical properties :
#
#
# Convention : Reuss Voigt Hill
#
# Bulk Modulus (GPa) = 68.60133 69.73166 69.16649
# Shear Modulus (GPa) = 27.85347 36.13957 31.99652
#
# Velocity S-wave (km/s) = 3.45800 3.93892 3.70627
# Velocity P-wave (km/s) = 6.73758 7.11500 6.92886
#
# Compressibility (1/GPa) = 0.01457698
#
# Stress axis : x y z
#
# Youngs Moduli (GPa) = 103.05719 56.98105 97.70670
#
# Poissons Ratio (x) = 0.30360 0.05826
# Poissons Ratio (y) = 0.54911 0.54041
# Poissons Ratio (z) = 0.06145 0.31516
#
# Static dielectric constant tensor:
#      x y z
#    x 1.884950 0.000000 0.006960 
#    y 0.000000 1.860100 0.000000 
#    z 0.006960 0.000000 1.895990 
# 
# From -- ./inp_files/289106.got.cif
#   From: 2010.05.17/outbox.cif.g08.bks.cpg/sg15_145_cif.got.tgz:289106.got - 2010.06.03 18:47:42.
