data_PCOD9298920
_publ_section_title
;
Structure prediction by ZEFSAII (Michael W. Deem and Ramdas Pophale) SiO2 
 PCOD9298920
Probable space group: C 2/C
;
_chemical_formula_sum "Si O2"
_cell_formula_units_Z 32
_cell_length_a 26.699623
_cell_length_b 8.820382
_cell_length_c 9.813824
_cell_angle_alpha 90.000000
_cell_angle_beta 146.284709
_cell_angle_gamma 90.000000
_cell_volume 1282.849642
_symmetry_space_group_name_H-M "C 2/C"
_symmetry_group_IT_number 15
_symmetry_cell_setting 'monoclinic'
loop_
_space_group_symop_operation_xyz
x,y,z
-x,y,1/2-z
-x,-y,-z
x,-y,1/2+z
1/2+x,1/2+y,z
1/2-x,1/2+y,1/2-z
1/2-x,1/2-y,-z
1/2+x,1/2-y,1/2+z
loop_
_atom_site_type_symbol
_atom_site_label
_atom_site_fract_x
_atom_site_fract_y
_atom_site_fract_z
Si Si1 0.587358 0.473800 0.605412
Si Si2 0.887745 0.457179 0.140327
Si Si3 0.000000 0.711778 0.250000
Si Si4 0.729226 0.916193 0.886873
Si Si5 0.000000 0.779635 0.750000
O O1 0.500000 0.500000 0.500000
O O2 0.570140 0.320028 0.486409
O O3 0.579568 0.612381 0.481367
O O4 0.678381 0.489899 0.894087
O O5 0.809912 0.416726 0.853974
O O6 0.941204 0.606358 0.214220
O O7 0.843598 0.495782 0.184069
O O8 0.960877 0.324526 0.281900
O O9 0.750000 0.750000 0.000000
#
# Coordination Sequence:
#
# PCOD9298920 Si02
#       5
#     8   8   4   8   4
#     4  11  25  43  71 100 148 185 237 294 358 422
#     4  11  27  47  75 103 144 189 240 295 354 428
#     4  10  26  44  68 106 140 192 236 288 366 420
#     4  12  27  47  74 108 145 184 244 297 354 422
#     4  10  24  46  70 102 142 192 234 288 358 428
#
# _framework density 24.944465000000001
#
# number of rings (size 3 to 8) (size 9 to 14) (size 15 to 20)
#    0.000    1.000    2.500    1.500   14.000    3.000 
#    0.000    0.000    0.000    0.000    0.000    0.000 
#    0.000    0.000    0.000    0.000    0.000    0.000 
#
# Total GULP energy -89747.970357 kJ/mol
# GULP energy per Si atom -5609.248147 kJ/mol
# Density = 2.488769 g / cm^3
# Si number density = 24.944465 Si / 1000 Ang^3
#
#
#
# Elastic Constant Matrix: (Units=GPa)
#
#
# Indices 1 2 3 4 5 6 
#
# 1 81.2678 9.6911 -13.4426 0.0000 14.7813 0.0000
# 2 9.6911 133.8126 21.8945 0.0000 2.2983 0.0000
# 3 -13.4426 21.8945 133.6650 0.0000 0.0467 0.0000
# 4 0.0000 0.0000 0.0000 28.2132 0.0000 -0.4665
# 5 14.7813 2.2983 0.0467 0.0000 44.8409 0.0000
# 6 0.0000 0.0000 0.0000 -0.4665 0.0000 15.5469
#
#
#
# Elastic Compliance Matrix: (Units=1/GPa)
#
#
# Indices 1 2 3 4 5 6 
#
# 1 0.013498 -0.001155 0.001548 0.000000 -0.004392 0.000000
# 2 -0.001155 0.007785 -0.001391 0.000000 -0.000017 0.000000
# 3 0.001548 -0.001391 0.007865 0.000000 -0.000447 0.000000
# 4 0.000000 0.000000 0.000000 0.035462 0.000000 0.001064
# 5 -0.004392 -0.000017 -0.000447 0.000000 0.023750 0.000000
# 6 0.000000 0.000000 0.000000 0.001064 0.000000 0.064353
#
#
# Mechanical properties :
#
#
# Convention : Reuss Voigt Hill
#
# Bulk Modulus (GPa) = 36.83172 42.78128 39.80650
# Shear Modulus (GPa) = 30.53244 39.76036 35.14640
#
# Velocity S-wave (km/s) = 3.50239 3.99677 3.75772
# Velocity P-wave (km/s) = 5.58150 6.20377 5.90084
#
# Compressibility (1/GPa) = 0.02715051
#
# Stress axis : x y z
#
# Youngs Moduli (GPa) = 74.08683 128.45617 127.14305
#
# Poissons Ratio (x) = 0.14842 -0.19685
# Poissons Ratio (y) = 0.08560 0.17690
# Poissons Ratio (z) = -0.11470 0.17873
#
# Static dielectric constant tensor:
#      x y z
#    x 1.961270 0.000000 -0.068480 
#    y 0.000000 1.989670 0.000000 
#    z -0.068480 0.000000 2.012350 
# 
# From -- ./inp_files/93264.got.cif
#   From: 2010.05.17/outbox.cif.g08.bks.cpg/sg15_47_cif.got.tgz:93264.got - 2010.06.03 18:47:42.
