data_PCOD9298210
_publ_section_title
;
Structure prediction by ZEFSAII (Michael W. Deem and Ramdas Pophale) SiO2 
 PCOD9298210
Probable space group: C 2/C
;
_chemical_formula_sum "Si O2"
_cell_formula_units_Z 32
_cell_length_a 13.583706
_cell_length_b 10.294473
_cell_length_c 26.783368
_cell_angle_alpha 90.000000
_cell_angle_beta 160.362701
_cell_angle_gamma 90.000000
_cell_volume 1258.666191
_symmetry_space_group_name_H-M "C 2/C"
_symmetry_group_IT_number 15
_symmetry_cell_setting 'monoclinic'
loop_
_space_group_symop_operation_xyz
x,y,z
-x,y,1/2-z
-x,-y,-z
x,-y,1/2+z
1/2+x,1/2+y,z
1/2-x,1/2+y,1/2-z
1/2-x,1/2-y,-z
1/2+x,1/2-y,1/2+z
loop_
_atom_site_type_symbol
_atom_site_label
_atom_site_fract_x
_atom_site_fract_y
_atom_site_fract_z
Si Si1 0.551270 0.204006 0.167936
Si Si2 0.322479 0.629346 0.928086
Si Si3 0.018991 0.407113 0.379636
Si Si4 0.718325 0.150226 0.632018
O O1 0.796783 0.292283 0.259314
O O2 0.587154 0.250302 0.241785
O O3 0.580487 0.050929 0.181444
O O4 0.250000 0.250000 0.000000
O O5 0.000000 0.623796 0.750000
O O6 0.291943 0.626148 0.974559
O O7 0.500000 0.500000 0.000000
O O8 0.497239 0.759238 0.995538
O O9 0.999878 0.413916 0.431000
O O10 0.000000 0.062828 0.750000
#
# Coordination Sequence:
#
# PCOD9298210 Si02
#       4
#     8   8   8   8
#     4  10  24  43  76 100 147 188 237 293 366 419
#     4  12  25  41  73 105 139 184 255 291 350 419
#     4  10  25  43  72 105 144 183 241 289 366 416
#     4  10  24  44  72 105 145 182 243 295 358 431
#
# _framework density 25.423738
#
# number of rings (size 3 to 8) (size 9 to 14) (size 15 to 20)
#    1.500    0.000    0.000    4.500   10.500    0.000 
#    0.000    2.500    0.000    0.000    0.000    0.000 
#    0.000    0.000    0.000    0.000    0.000    0.000 
#
# Total GULP energy -89183.832598 kJ/mol
# GULP energy per Si atom -5573.989537 kJ/mol
# Density = 2.536587 g / cm^3
# Si number density = 25.423738 Si / 1000 Ang^3
#
#
#
# Elastic Constant Matrix: (Units=GPa)
#
#
# Indices 1 2 3 4 5 6 
#
# 1 104.8583 -5.6769 27.2556 0.0058 31.3680 0.0025
# 2 -5.6769 54.7348 9.3778 -0.0065 6.8786 0.0021
# 3 27.2556 9.3778 141.4368 -0.0086 4.4405 -0.0030
# 4 0.0058 -0.0065 -0.0086 32.2875 0.0009 13.4657
# 5 31.3680 6.8786 4.4405 0.0009 47.6902 0.0016
# 6 0.0025 0.0021 -0.0030 13.4657 0.0016 20.5973
#
#
#
# Elastic Compliance Matrix: (Units=1/GPa)
#
#
# Indices 1 2 3 4 5 6 
#
# 1 0.012912 0.002842 -0.002404 -0.000002 -0.008679 0.000000
# 2 0.002842 0.019422 -0.001694 0.000005 -0.004513 -0.000006
# 3 -0.002404 -0.001694 0.007611 0.000002 0.001117 0.000000
# 4 -0.000002 0.000005 0.000002 0.042582 0.000001 -0.027838
# 5 -0.008679 -0.004513 0.001117 0.000001 0.027224 -0.000001
# 6 0.000000 -0.000006 0.000000 -0.027838 -0.000001 0.066749
#
#
# Mechanical properties :
#
#
# Convention : Reuss Voigt Hill
#
# Bulk Modulus (GPa) = 26.71498 40.32698 33.52098
# Shear Modulus (GPa) = 26.11119 38.11991 32.11555
#
# Velocity S-wave (km/s) = 3.20822 3.87639 3.55802
# Velocity P-wave (km/s) = 4.92486 5.99429 5.48570
#
# Compressibility (1/GPa) = 0.03743219
#
# Stress axis : x y z
#
# Youngs Moduli (GPa) = 77.44987 51.48819 131.39219
#
# Poissons Ratio (x) = -0.14631 0.31588
# Poissons Ratio (y) = -0.22009 0.22254
# Poissons Ratio (z) = 0.18619 0.08720
#
# Static dielectric constant tensor:
#      x y z
#    x 2.329450 0.000000 0.078290 
#    y 0.000000 1.918620 0.000000 
#    z 0.078290 0.000000 2.026520 
# 
# From -- ./inp_files/313500.got.cif
#   From: 2010.05.17/outbox.cif.g08.bks.cpg/sg15_157_cif.got.tgz:313500.got - 2010.06.03 18:47:42.
