data_PCOD9298737
_publ_section_title
;
Structure prediction by ZEFSAII (Michael W. Deem and Ramdas Pophale) SiO2 
 PCOD9298737
Probable space group: C 2/C
;
_chemical_formula_sum "Si O2"
_cell_formula_units_Z 36
_cell_length_a 17.489715
_cell_length_b 5.918562
_cell_length_c 19.346939
_cell_angle_alpha 90.000000
_cell_angle_beta 140.374673
_cell_angle_gamma 90.000000
_cell_volume 1277.237187
_symmetry_space_group_name_H-M "C 2/C"
_symmetry_group_IT_number 15
_symmetry_cell_setting 'monoclinic'
loop_
_space_group_symop_operation_xyz
x,y,z
-x,y,1/2-z
-x,-y,-z
x,-y,1/2+z
1/2+x,1/2+y,z
1/2-x,1/2+y,1/2-z
1/2-x,1/2-y,-z
1/2+x,1/2-y,1/2+z
loop_
_atom_site_type_symbol
_atom_site_label
_atom_site_fract_x
_atom_site_fract_y
_atom_site_fract_z
Si Si1 0.500000 0.060319 0.250000
Si Si2 0.046419 0.061384 0.608026
Si Si3 0.291110 0.874197 0.851164
Si Si4 0.119864 0.238912 0.443264
Si Si5 0.200668 0.348703 0.793196
O O1 0.392292 0.197872 0.209823
O O2 0.540936 0.893918 0.339016
O O3 0.154986 0.921403 0.717688
O O4 0.122660 0.309366 0.663544
O O5 0.937050 0.010463 0.583731
O O6 0.000000 0.000000 0.500000
O O7 0.247138 0.598826 0.832575
O O8 0.298776 0.157566 0.862820
O O9 0.376497 0.850542 0.979686
O O10 0.250000 0.250000 0.500000
#
# Coordination Sequence:
#
# PCOD9298737 Si02
#       5
#     4   8   8   8   8
#     4  12  30  44  72 112 156 200 244 322 382 448
#     4   8  20  45  71 102 142 190 252 309 363 443
#     4   9  23  45  76 104 145 199 248 311 373 456
#     4  11  26  45  74 107 152 200 255 312 380 449
#     4  10  24  45  71 110 148 192 248 304 381 454
#
# _framework density 28.185838
#
# number of rings (size 3 to 8) (size 9 to 14) (size 15 to 20)
#    1.333    0.889    0.000    0.000    9.333    1.778 
#    4.000    0.000    0.000    0.000    0.000    0.000 
#    0.000    0.000    0.000    0.000    0.000    0.000 
#
# Total GULP energy -100216.516846 kJ/mol
# GULP energy per Si atom -5567.584269 kJ/mol
# Density = 2.812169 g / cm^3
# Si number density = 28.185838 Si / 1000 Ang^3
#
#
#
# Elastic Constant Matrix: (Units=GPa)
#
#
# Indices 1 2 3 4 5 6 
#
# 1 200.7135 59.1138 39.5043 0.0000 6.5224 0.0000
# 2 59.1138 186.2267 46.1208 0.0000 3.2131 0.0002
# 3 39.5043 46.1208 180.4426 0.0000 -33.3291 0.0000
# 4 0.0000 0.0000 0.0000 46.0684 0.0000 -1.0018
# 5 6.5224 3.2131 -33.3291 0.0000 60.1417 0.0000
# 6 0.0000 0.0002 0.0000 -1.0018 0.0000 47.0529
#
#
#
# Elastic Compliance Matrix: (Units=1/GPa)
#
#
# Indices 1 2 3 4 5 6 
#
# 1 0.005675 -0.001519 -0.001061 0.000000 -0.001123 0.000000
# 2 -0.001519 0.006224 -0.001436 0.000000 -0.000964 0.000000
# 3 -0.001061 -0.001436 0.006881 0.000000 0.004005 0.000000
# 4 0.000000 0.000000 0.000000 0.021717 0.000000 0.000462
# 5 -0.001123 -0.000964 0.004005 0.000000 0.019020 0.000000
# 6 0.000000 0.000000 0.000000 0.000462 0.000000 0.021263
#
#
# Mechanical properties :
#
#
# Convention : Reuss Voigt Hill
#
# Bulk Modulus (GPa) = 93.05227 95.20673 94.12950
# Shear Modulus (GPa) = 54.11452 58.82887 56.47170
#
# Velocity S-wave (km/s) = 4.38644 4.57352 4.48096
# Velocity P-wave (km/s) = 7.66420 7.85754 7.76148
#
# Compressibility (1/GPa) = 0.01074665
#
# Stress axis : x y z
#
# Youngs Moduli (GPa) = 176.20987 160.65841 145.32220
#
# Poissons Ratio (x) = 0.24407 0.15426
# Poissons Ratio (y) = 0.26769 0.20874
# Poissons Ratio (z) = 0.18704 0.23076
#
# Static dielectric constant tensor:
#      x y z
#    x 2.658190 0.000000 0.291290 
#    y 0.000000 1.536160 0.000000 
#    z 0.291290 0.000000 2.549600 
# 
# From -- ./inp_files/281293.got.cif
#   From: 2010.05.17/outbox.cif.g08.bks.cpg/sg15_141_cif.got.tgz:281293.got - 2010.06.03 18:47:42.
