data_PCOD9298465
_publ_section_title
;
Structure prediction by ZEFSAII (Michael W. Deem and Ramdas Pophale) SiO2 
 PCOD9298465
Probable space group: C 2/C
;
_chemical_formula_sum "Si O2"
_cell_formula_units_Z 40
_cell_length_a 27.065283
_cell_length_b 8.002663
_cell_length_c 12.939396
_cell_angle_alpha 90.000000
_cell_angle_beta 145.321563
_cell_angle_gamma 90.000000
_cell_volume 1594.595482
_symmetry_space_group_name_H-M "C 2/C"
_symmetry_group_IT_number 15
_symmetry_cell_setting 'monoclinic'
loop_
_space_group_symop_operation_xyz
x,y,z
-x,y,1/2-z
-x,-y,-z
x,-y,1/2+z
1/2+x,1/2+y,z
1/2-x,1/2+y,1/2-z
1/2-x,1/2-y,-z
1/2+x,1/2-y,1/2+z
loop_
_atom_site_type_symbol
_atom_site_label
_atom_site_fract_x
_atom_site_fract_y
_atom_site_fract_z
Si Si1 0.086379 0.386689 0.629667
Si Si2 0.746396 0.535900 0.213549
Si Si3 0.586529 0.720847 0.849407
Si Si4 0.810158 0.721949 0.504615
Si Si5 0.019814 0.112926 0.134678
O O1 0.171357 0.460618 0.722741
O O2 0.108982 0.311710 0.780999
O O3 0.000000 0.500000 0.500000
O O4 0.061268 0.236203 0.508015
O O5 0.782475 0.558777 0.391854
O O6 0.702327 0.364154 0.103619
O O7 0.671158 0.676787 0.063163
O O8 0.500000 0.806697 0.750000
O O9 0.550659 0.537509 0.758575
O O10 0.750000 0.750000 0.500000
O O11 0.903882 0.751749 0.715916
O O12 0.000000 0.000000 0.000000
#
# Coordination Sequence:
#
# PCOD9298465 Si02
#       5
#     8   8   8   8   8
#     4  11  24  44  68 106 143 179 240 311 374 425
#     4  11  27  44  72 103 146 194 243 306 372 438
#     4  10  24  44  70  97 138 195 244 290 361 450
#     4  11  26  47  72 107 146 192 249 303 367 444
#     4   9  22  42  70  94 136 185 237 284 356 440
#
# _framework density 25.084733
#
# number of rings (size 3 to 8) (size 9 to 14) (size 15 to 20)
#    0.000    1.600    0.000    1.800   14.000    6.400 
#    0.000    0.000    0.000    0.000    0.000    0.000 
#    0.000    0.000    0.000    0.000    0.000    0.000 
#
# Total GULP energy -111485.804672 kJ/mol
# GULP energy per Si atom -5574.290234 kJ/mol
# Density = 2.502764 g / cm^3
# Si number density = 25.084733 Si / 1000 Ang^3
#
#
#
# Elastic Constant Matrix: (Units=GPa)
#
#
# Indices 1 2 3 4 5 6 
#
# 1 131.1782 13.8864 56.8406 0.0000 5.3191 0.0000
# 2 13.8864 73.1547 37.6490 0.0000 -11.4792 0.0000
# 3 56.8406 37.6490 180.6621 0.0000 -12.3075 0.0000
# 4 0.0000 0.0000 0.0000 56.8142 0.0000 -10.0515
# 5 5.3191 -11.4792 -12.3075 0.0000 30.2999 0.0000
# 6 0.0000 0.0000 0.0000 -10.0515 0.0000 20.9961
#
#
#
# Elastic Compliance Matrix: (Units=1/GPa)
#
#
# Indices 1 2 3 4 5 6 
#
# 1 0.009086 -0.000700 -0.002920 0.000000 -0.003046 0.000000
# 2 -0.000700 0.016025 -0.002774 0.000000 0.005067 0.000000
# 3 -0.002920 -0.002774 0.007195 0.000000 0.002384 0.000000
# 4 0.000000 0.000000 0.000000 0.019230 0.000000 0.009206
# 5 -0.003046 0.005067 0.002384 0.000000 0.036426 0.000000
# 6 0.000000 0.000000 0.000000 0.009206 0.000000 0.052035
#
#
# Mechanical properties :
#
#
# Convention : Reuss Voigt Hill
#
# Bulk Modulus (GPa) = 51.23664 66.86076 59.04870
# Shear Modulus (GPa) = 31.38881 40.06331 35.72606
#
# Velocity S-wave (km/s) = 3.54123 4.00073 3.77797
# Velocity P-wave (km/s) = 6.09837 6.93203 6.52852
#
# Compressibility (1/GPa) = 0.01951728
#
# Stress axis : x y z
#
# Youngs Moduli (GPa) = 110.05579 62.40092 138.99326
#
# Poissons Ratio (x) = 0.04367 0.40593
# Poissons Ratio (y) = 0.07702 0.38560
# Poissons Ratio (z) = 0.32142 0.17311
#
# Static dielectric constant tensor:
#      x y z
#    x 0.849490 0.000000 0.242110 
#    y 0.000000 2.096510 0.000000 
#    z 0.242110 0.000000 1.720150 
# 
# From -- ./inp_files/181276.got.cif
#   From: 2010.05.17/outbox.cif.g08.bks.cpg/sg15_91_cif.got.tgz:181276.got - 2010.06.03 18:47:42.
