data_PCOD9298632
_publ_section_title
;
Structure prediction by ZEFSAII (Michael W. Deem and Ramdas Pophale) SiO2 
 PCOD9298632
Probable space group: C 2/C
;
_chemical_formula_sum "Si O2"
_cell_formula_units_Z 60
_cell_length_a 7.853951
_cell_length_b 11.820878
_cell_length_c 29.383871
_cell_angle_alpha 90.000000
_cell_angle_beta 105.682341
_cell_angle_gamma 90.000000
_cell_volume 2626.465992
_symmetry_space_group_name_H-M "C 2/C"
_symmetry_group_IT_number 15
_symmetry_cell_setting 'monoclinic'
loop_
_space_group_symop_operation_xyz
x,y,z
-x,y,1/2-z
-x,-y,-z
x,-y,1/2+z
1/2+x,1/2+y,z
1/2-x,1/2+y,1/2-z
1/2-x,1/2-y,-z
1/2+x,1/2-y,1/2+z
loop_
_atom_site_type_symbol
_atom_site_label
_atom_site_fract_x
_atom_site_fract_y
_atom_site_fract_z
Si Si1 0.500000 0.346291 0.750000
Si Si2 0.178798 0.479908 0.232774
Si Si3 0.230415 0.086063 0.460865
Si Si4 0.249633 0.811183 0.191357
Si Si5 0.412477 0.958727 0.134698
Si Si6 0.060070 0.665763 0.107943
Si Si7 0.832368 0.832401 0.043518
Si Si8 0.473565 0.812376 0.054756
O O1 0.671080 0.424059 0.753023
O O2 0.567112 0.260523 0.794095
O O3 0.266370 0.365635 0.259977
O O4 0.097596 0.465277 0.176440
O O5 0.000000 0.503263 0.250000
O O6 0.301964 0.097365 0.414012
O O7 0.390698 0.114987 0.507178
O O8 0.087927 0.184726 0.457188
O O9 0.153857 0.963500 0.466867
O O10 0.266975 0.921261 0.160640
O O11 0.117651 0.723087 0.159378
O O12 0.404805 0.861612 0.096771
O O13 0.403969 0.078021 0.108346
O O14 0.005738 0.770991 0.072801
O O15 0.682561 0.826977 0.071277
O O16 0.750000 0.750000 0.000000
#
# Coordination Sequence:
#
# PCOD9298632 Si02
#       8
#     4   8   8   8   8   8   8   8
#     4  12  22  48  78  90 144 190 216 294 366 400
#     4  10  24  45  67 105 136 176 232 287 346 423
#     4  11  24  44  66  95 137 177 232 274 339 414
#     4  11  24  45  68 102 137 177 227 292 345 410
#     4  11  21  42  69  93 134 175 222 280 342 403
#     4  12  24  42  70  99 132 178 228 278 338 416
#     4  12  25  42  66 100 137 179 226 284 339 404
#     4  11  23  42  68  96 132 187 219 282 346 403
#
# _framework density 22.844387000000001
#
# number of rings (size 3 to 8) (size 9 to 14) (size 15 to 20)
#    0.000    0.800    7.333    1.200    0.000    3.733 
#    6.000    0.000    0.000    0.000    0.000    0.000 
#    0.000    0.000    0.000    0.000    0.000    0.000 
#
# Total GULP energy -167419.372358 kJ/mol
# GULP energy per Si atom -5580.645745 kJ/mol
# Density = 2.279239 g / cm^3
# Si number density = 22.844387 Si / 1000 Ang^3
#
#
#
# Elastic Constant Matrix: (Units=GPa)
#
#
# Indices 1 2 3 4 5 6 
#
# 1 37.9732 17.4966 -2.1627 0.0000 1.3763 0.0000
# 2 17.4966 180.6936 31.8168 0.0000 6.1746 0.0000
# 3 -2.1627 31.8168 64.9714 0.0000 -1.2234 0.0000
# 4 0.0000 0.0000 0.0000 28.8621 0.0000 3.9622
# 5 1.3763 6.1746 -1.2234 0.0000 16.2369 0.0000
# 6 0.0000 0.0000 0.0000 3.9622 0.0000 36.5570
#
#
#
# Elastic Compliance Matrix: (Units=1/GPa)
#
#
# Indices 1 2 3 4 5 6 
#
# 1 0.027937 -0.003098 0.002428 0.000000 -0.001007 0.000000
# 2 -0.003098 0.006506 -0.003335 0.000000 -0.002463 0.000000
# 3 0.002428 -0.003335 0.017150 0.000000 0.002355 0.000000
# 4 0.000000 0.000000 0.000000 0.035171 0.000000 -0.003812
# 5 -0.001007 -0.002463 0.002355 0.000000 0.062787 0.000000
# 6 0.000000 0.000000 0.000000 -0.003812 0.000000 0.027768
#
#
# Mechanical properties :
#
#
# Convention : Reuss Voigt Hill
#
# Bulk Modulus (GPa) = 22.94557 41.99329 32.46943
# Shear Modulus (GPa) = 25.01802 32.09705 28.55753
#
# Velocity S-wave (km/s) = 3.31289 3.75244 3.53950
# Velocity P-wave (km/s) = 4.96989 6.09890 5.56311
#
# Compressibility (1/GPa) = 0.04358140
#
# Stress axis : x y z
#
# Youngs Moduli (GPa) = 35.79518 153.71167 58.30941
#
# Poissons Ratio (x) = 0.47624 -0.14159
# Poissons Ratio (y) = 0.11090 0.19448
# Poissons Ratio (z) = -0.08692 0.51269
#
# Static dielectric constant tensor:
#      x y z
#    x 1.900620 0.000000 -0.046360 
#    y 0.000000 1.888890 0.000000 
#    z -0.046360 0.000000 1.953640 
# 
# From -- ./inp_files/307176.got.cif
#   From: 2010.05.17/outbox.cif.g08.bks.cpg/sg15_154_cif.got.tgz:307176.got - 2010.06.03 18:47:42.
