data_PCOD9298994
_publ_section_title
;
Structure prediction by ZEFSAII (Michael W. Deem and Ramdas Pophale) SiO2 
 PCOD9298994
Probable space group: C 2/C
;
_chemical_formula_sum "Si O2"
_cell_formula_units_Z 36
_cell_length_a 12.343559
_cell_length_b 15.757565
_cell_length_c 7.409532
_cell_angle_alpha 90.000000
_cell_angle_beta 87.235427
_cell_angle_gamma 90.000000
_cell_volume 1439.509499
_symmetry_space_group_name_H-M "C 2/C"
_symmetry_group_IT_number 15
_symmetry_cell_setting 'monoclinic'
loop_
_space_group_symop_operation_xyz
x,y,z
-x,y,1/2-z
-x,-y,-z
x,-y,1/2+z
1/2+x,1/2+y,z
1/2-x,1/2+y,1/2-z
1/2-x,1/2-y,-z
1/2+x,1/2-y,1/2+z
loop_
_atom_site_type_symbol
_atom_site_label
_atom_site_fract_x
_atom_site_fract_y
_atom_site_fract_z
Si Si1 0.500000 0.504246 0.250000
Si Si2 0.905072 0.115212 0.986183
Si Si3 0.200659 0.579200 0.255813
Si Si4 0.922678 0.313220 0.009421
Si Si5 0.353929 0.108437 0.852199
O O1 0.497324 0.569941 0.415073
O O2 0.597440 0.437510 0.199676
O O3 0.805902 0.091815 0.123532
O O4 0.928309 0.213697 0.974506
O O5 0.219309 0.602338 0.463018
O O6 0.150217 0.485209 0.235987
O O7 0.117636 0.642875 0.167356
O O8 0.837584 0.329006 0.183172
O O9 0.031682 0.359566 0.070291
#
# Coordination Sequence:
#
# PCOD9298994 Si02
#       5
#     4   8   8   8   8
#     4  10  24  46  72  82 136 182 216 278 340 406
#     4  11  25  47  66  99 129 177 232 271 338 395
#     4  12  23  42  68 102 133 179 219 280 326 404
#     4  11  25  42  65 105 136 173 224 275 331 407
#     4  11  24  40  70  99 141 175 219 269 347 391
#
# _framework density 25.008517999999999
#
# number of rings (size 3 to 8) (size 9 to 14) (size 15 to 20)
#    0.000    0.889    2.222    4.667    6.222    0.889 
#    0.000    0.000    0.000    0.000    0.000    0.000 
#    0.000    0.000    0.000    0.000    0.000    0.000 
#
# Total GULP energy -100570.223431 kJ/mol
# GULP energy per Si atom -5587.234635 kJ/mol
# Density = 2.495160 g / cm^3
# Si number density = 25.008518 Si / 1000 Ang^3
#
#
#
# Elastic Constant Matrix: (Units=GPa)
#
#
# Indices 1 2 3 4 5 6 
#
# 1 47.1179 32.2208 14.6604 0.0000 -17.5449 0.0000
# 2 32.2208 204.2075 26.8702 0.0000 6.7474 0.0000
# 3 14.6604 26.8702 167.0762 0.0000 -5.3429 0.0000
# 4 0.0000 0.0000 0.0000 34.7406 0.0000 -7.9792
# 5 -17.5449 6.7474 -5.3429 0.0000 42.9130 0.0000
# 6 0.0000 0.0000 0.0000 -7.9792 0.0000 -8.0960
#
#
#
# Elastic Compliance Matrix: (Units=1/GPa)
#
#
# Indices 1 2 3 4 5 6 
#
# 1 0.029800 -0.004939 -0.001412 0.000000 0.012785 0.000000
# 2 -0.004939 0.005855 -0.000605 0.000000 -0.003015 0.000000
# 3 -0.001412 -0.000605 0.006216 0.000000 0.000292 0.000000
# 4 0.000000 0.000000 0.000000 0.023472 0.000000 -0.023133
# 5 0.012785 -0.003015 0.000292 0.000000 0.029040 0.000000
# 6 0.000000 0.000000 0.000000 -0.023133 0.000000 -0.100719
#
#
# Mechanical properties :
#
#
# Convention : Reuss Voigt Hill
#
# Bulk Modulus (GPa) = 35.76404 62.87827 49.32116
# Shear Modulus (GPa) = 295.93770 36.88821 166.41295
#
# Velocity S-wave (km/s) = 10.88998 3.84477 8.16621
# Velocity P-wave (km/s) = 13.13217 6.70127 10.42499
#
# Compressibility (1/GPa) = 0.02796105
#
# Stress axis : x y z
#
# Youngs Moduli (GPa) = 33.55663 170.78149 160.88122
#
# Poissons Ratio (x) = 0.84344 0.22713
# Poissons Ratio (y) = 0.16573 0.09730
# Poissons Ratio (z) = 0.04737 0.10328
#
# Static dielectric constant tensor:
#      x y z
#    x 2.176200 0.000000 0.026380 
#    y 0.000000 1.874370 0.000000 
#    z 0.026380 0.000000 2.197390 
# 
# From -- ./inp_files/45996.got.cif
#   From: 2010.05.17/outbox.cif.g08.bks.cpg/sg15_23_cif.got.tgz:45996.got - 2010.06.03 18:47:42.
