data_PCOD9298377
_publ_section_title
;
Structure prediction by ZEFSAII (Michael W. Deem and Ramdas Pophale) SiO2 
 PCOD9298377
Probable space group: C 2/C
;
_chemical_formula_sum "Si O2"
_cell_formula_units_Z 48
_cell_length_a 8.389030
_cell_length_b 27.590500
_cell_length_c 13.407271
_cell_angle_alpha 90.000000
_cell_angle_beta 46.188532
_cell_angle_gamma 90.000000
_cell_volume 2239.346393
_symmetry_space_group_name_H-M "C 2/C"
_symmetry_group_IT_number 15
_symmetry_cell_setting 'monoclinic'
loop_
_space_group_symop_operation_xyz
x,y,z
-x,y,1/2-z
-x,-y,-z
x,-y,1/2+z
1/2+x,1/2+y,z
1/2-x,1/2+y,1/2-z
1/2-x,1/2-y,-z
1/2+x,1/2-y,1/2+z
loop_
_atom_site_type_symbol
_atom_site_label
_atom_site_fract_x
_atom_site_fract_y
_atom_site_fract_z
Si Si1 0.827872 0.972888 0.645033
Si Si2 0.500000 0.408667 0.750000
Si Si3 0.500000 0.891358 0.750000
Si Si4 0.000000 0.289137 0.250000
Si Si5 0.500000 0.947915 0.250000
Si Si6 0.051804 0.234005 0.844326
Si Si7 0.661314 0.829339 0.499915
Si Si8 0.381449 0.133090 0.955048
O O1 0.914186 0.945502 0.703749
O O2 0.702119 0.928462 0.646872
O O3 0.657317 0.015776 0.742154
O O4 0.000000 0.000000 0.500000
O O5 0.685320 0.375383 0.618028
O O6 0.524948 0.857027 0.644239
O O7 0.807591 0.265247 0.266334
O O8 0.863277 0.322068 0.387734
O O9 0.610642 0.913404 0.120387
O O10 0.000000 0.245593 0.750000
O O11 0.941868 0.275527 0.959368
O O12 0.916943 0.182930 0.915309
O O13 0.605239 0.857306 0.422071
#
# Coordination Sequence:
#
# PCOD9298377 Si02
#       8
#     8   4   4   4   4   8   8   8
#     4  11  24  43  65  99 136 180 231 300 355 419
#     4  12  24  41  68  99 133 183 237 284 357 428
#     4  11  24  41  70  96 137 183 230 299 358 419
#     4  11  26  46  72 104 148 188 232 295 363 415
#     4  10  24  44  68  97 140 172 239 290 364 426
#     4  11  24  46  70 104 147 187 237 294 354 430
#     4  11  24  44  70 101 141 184 241 292 359 423
#     4  11  24  43  68 103 136 184 238 294 346 439
#
# _framework density 21.434826999999999
#
# number of rings (size 3 to 8) (size 9 to 14) (size 15 to 20)
#    0.000    1.000    5.833    0.000    2.333    3.333 
#    0.000    0.000    0.000    0.000    0.000    0.000 
#    0.000    0.000    0.000    0.000    0.000    0.000 
#
# Total GULP energy -133766.949072 kJ/mol
# GULP energy per Si atom -5573.622878 kJ/mol
# Density = 2.138604 g / cm^3
# Si number density = 21.434827 Si / 1000 Ang^3
#
#
#
# Elastic Constant Matrix: (Units=GPa)
#
#
# Indices 1 2 3 4 5 6 
#
# 1 113.4830 26.2796 25.0440 0.0000 -5.7244 0.0000
# 2 26.2796 63.5775 20.9933 0.0000 -4.7638 0.0000
# 3 25.0440 20.9933 95.6682 0.0000 -0.5195 0.0000
# 4 0.0000 0.0000 0.0000 81.1839 0.0000 -18.3320
# 5 -5.7244 -4.7638 -0.5195 0.0000 34.1444 0.0000
# 6 0.0000 0.0000 0.0000 -18.3320 0.0000 27.7853
#
#
#
# Elastic Compliance Matrix: (Units=1/GPa)
#
#
# Indices 1 2 3 4 5 6 
#
# 1 0.010087 -0.003462 -0.001874 0.000000 0.001180 0.000000
# 2 -0.003462 0.018330 -0.003106 0.000000 0.001930 0.000000
# 3 -0.001874 -0.003106 0.011622 0.000000 -0.000571 0.000000
# 4 0.000000 0.000000 0.000000 0.014474 0.000000 0.009550
# 5 0.001180 0.001930 -0.000571 0.000000 0.029746 0.000000
# 6 0.000000 0.000000 0.000000 0.009550 0.000000 0.042291
#
#
# Mechanical properties :
#
#
# Convention : Reuss Voigt Hill
#
# Bulk Modulus (GPa) = 43.18796 46.37361 44.78079
# Shear Modulus (GPa) = 33.07949 41.98352 37.53151
#
# Velocity S-wave (km/s) = 3.93270 4.43048 4.18899
# Velocity P-wave (km/s) = 6.38856 6.91765 6.65836
#
# Compressibility (1/GPa) = 0.02315460
#
# Stress axis : x y z
#
# Youngs Moduli (GPa) = 99.13991 54.55566 86.04487
#
# Poissons Ratio (x) = 0.18887 0.16128
# Poissons Ratio (y) = 0.34322 0.26721
# Poissons Ratio (z) = 0.18583 0.16942
#
# Static dielectric constant tensor:
#      x y z
#    x 2.038240 0.000000 -0.046530 
#    y 0.000000 1.740990 0.000000 
#    z -0.046530 0.000000 1.832410 
# 
# From -- ./inp_files/26208.got.cif
#   From: 2010.05.17/outbox.cif.g08.bks.cpg/sg15_14_cif.got.tgz:26208.got - 2010.06.03 18:47:42.
