data_PCOD9298965
_publ_section_title
;
Structure prediction by ZEFSAII (Michael W. Deem and Ramdas Pophale) SiO2 
 PCOD9298965
Probable space group: C 2/C
;
_chemical_formula_sum "Si O2"
_cell_formula_units_Z 52
_cell_length_a 8.793279
_cell_length_b 24.586973
_cell_length_c 11.059123
_cell_angle_alpha 90.000000
_cell_angle_beta 108.516340
_cell_angle_gamma 90.000000
_cell_volume 2267.209896
_symmetry_space_group_name_H-M "C 2/C"
_symmetry_group_IT_number 15
_symmetry_cell_setting 'monoclinic'
loop_
_space_group_symop_operation_xyz
x,y,z
-x,y,1/2-z
-x,-y,-z
x,-y,1/2+z
1/2+x,1/2+y,z
1/2-x,1/2+y,1/2-z
1/2-x,1/2-y,-z
1/2+x,1/2-y,1/2+z
loop_
_atom_site_type_symbol
_atom_site_label
_atom_site_fract_x
_atom_site_fract_y
_atom_site_fract_z
Si Si1 0.259858 0.886726 0.444295
Si Si2 0.822796 0.986489 0.904623
Si Si3 0.445773 0.825439 0.868133
Si Si4 0.133527 0.843472 0.932477
Si Si5 0.813531 0.599153 0.684875
Si Si6 0.081553 0.218052 0.970962
Si Si7 0.000000 0.062050 0.250000
O O1 0.245269 0.936967 0.532979
O O2 0.429653 0.855834 0.511038
O O3 0.242900 0.903336 0.301564
O O4 0.123131 0.841829 0.434935
O O5 0.854454 0.971511 0.771356
O O6 0.714922 0.040337 0.883417
O O7 0.000000 0.000000 0.000000
O O8 0.500000 0.844583 0.750000
O O9 0.265354 0.835639 0.862144
O O10 0.465425 0.760277 0.876848
O O11 0.045310 0.898058 0.870364
O O12 0.229036 0.855687 0.080328
O O13 0.006493 0.795382 0.924117
O O14 0.000000 0.610523 0.750000
O O15 0.250000 0.250000 0.000000
#
# Coordination Sequence:
#
# PCOD9298965 Si02
#       7
#     8   8   8   8   8   8   4
#     4  11  24  48  70 103 150 185 245 312 364 450
#     4  12  24  44  72 106 142 193 249 308 381 448
#     4  11  25  45  74 108 144 196 244 303 376 443
#     4  12  25  47  73 105 152 193 241 313 373 449
#     4  12  27  46  73 107 144 197 248 306 383 449
#     4  10  24  46  71 110 141 193 246 297 375 442
#     4  12  24  44  70 102 146 190 244 300 376 444
#
# _framework density 22.935679
#
# number of rings (size 3 to 8) (size 9 to 14) (size 15 to 20)
#    0.000    0.615    4.615    2.308    4.308    3.692 
#    0.000    0.000    0.000    0.000    0.000    0.000 
#    0.000    0.000    0.000    0.000    0.000    0.000 
#
# Total GULP energy -145276.269325 kJ/mol
# GULP energy per Si atom -5587.548820 kJ/mol
# Density = 2.288348 g / cm^3
# Si number density = 22.935679 Si / 1000 Ang^3
#
#
#
# Elastic Constant Matrix: (Units=GPa)
#
#
# Indices 1 2 3 4 5 6 
#
# 1 114.9754 23.9940 16.1199 0.0000 -18.0139 0.0000
# 2 23.9940 86.3741 18.9488 0.0000 -6.3235 0.0000
# 3 16.1199 18.9488 87.6783 0.0000 -13.8167 0.0000
# 4 0.0000 0.0000 0.0000 33.4411 0.0000 -6.5810
# 5 -18.0139 -6.3235 -13.8167 0.0000 44.0527 0.0000
# 6 0.0000 0.0000 0.0000 -6.5810 0.0000 32.6425
#
#
#
# Elastic Compliance Matrix: (Units=1/GPa)
#
#
# Indices 1 2 3 4 5 6 
#
# 1 0.009827 -0.002310 -0.000764 0.000000 0.003447 0.000000
# 2 -0.002310 0.012736 -0.002302 0.000000 0.000162 0.000000
# 3 -0.000764 -0.002302 0.012563 0.000000 0.003297 0.000000
# 4 0.000000 0.000000 0.000000 0.031139 0.000000 0.006278
# 5 0.003447 0.000162 0.003297 0.000000 0.025167 0.000000
# 6 0.000000 0.000000 0.000000 0.006278 0.000000 0.031901
#
#
# Mechanical properties :
#
#
# Convention : Reuss Voigt Hill
#
# Bulk Modulus (GPa) = 41.02895 45.23925 43.13410
# Shear Modulus (GPa) = 35.15940 37.35826 36.25883
#
# Velocity S-wave (km/s) = 3.91955 4.04025 3.98036
# Velocity P-wave (km/s) = 6.19769 6.44454 6.32232
#
# Compressibility (1/GPa) = 0.02437303
#
# Stress axis : x y z
#
# Youngs Moduli (GPa) = 101.76290 78.51692 79.59868
#
# Poissons Ratio (x) = 0.18136 0.06084
# Poissons Ratio (y) = 0.23505 0.18327
# Poissons Ratio (z) = 0.07778 0.18078
#
# Static dielectric constant tensor:
#      x y z
#    x 1.932300 0.000000 -0.064300 
#    y 0.000000 1.891570 0.000000 
#    z -0.064300 0.000000 1.926760 
# 
# From -- ./inp_files/80820.got.cif
#   From: 2010.05.17/outbox.cif.g08.bks.cpg/sg15_41_cif.got.tgz:80820.got - 2010.06.03 18:47:42.
