data_PCOD9298083
_publ_section_title
;
Structure prediction by ZEFSAII (Michael W. Deem and Ramdas Pophale) SiO2 
 PCOD9298083
Probable space group: C 2/C
;
_chemical_formula_sum "Si O2"
_cell_formula_units_Z 40
_cell_length_a 10.979703
_cell_length_b 20.882725
_cell_length_c 7.923667
_cell_angle_alpha 90.000000
_cell_angle_beta 68.416184
_cell_angle_gamma 90.000000
_cell_volume 1689.394538
_symmetry_space_group_name_H-M "C 2/C"
_symmetry_group_IT_number 15
_symmetry_cell_setting 'monoclinic'
loop_
_space_group_symop_operation_xyz
x,y,z
-x,y,1/2-z
-x,-y,-z
x,-y,1/2+z
1/2+x,1/2+y,z
1/2-x,1/2+y,1/2-z
1/2-x,1/2-y,-z
1/2+x,1/2-y,1/2+z
loop_
_atom_site_type_symbol
_atom_site_label
_atom_site_fract_x
_atom_site_fract_y
_atom_site_fract_z
Si Si1 0.764501 0.880263 0.250534
Si Si2 0.848375 0.605783 0.311862
Si Si3 0.000000 0.044902 0.750000
Si Si4 0.771391 0.236901 0.185375
Si Si5 0.500000 0.674264 0.250000
Si Si6 0.298560 0.437749 0.922981
O O1 0.707754 0.891410 0.468227
O O2 0.758328 0.804787 0.214141
O O3 0.911714 0.907990 0.185840
O O4 0.704830 0.922144 0.128504
O O5 0.822967 0.675917 0.239147
O O6 0.774555 0.559079 0.219080
O O7 0.000000 0.591626 0.250000
O O8 0.896045 0.997751 0.891921
O O9 0.919598 0.216598 0.156845
O O10 0.750000 0.250000 0.000000
O O11 0.610936 0.625399 0.132585
#
# Coordination Sequence:
#
# PCOD9298083 Si02
#       6
#     8   8   4   8   4   8
#     4  11  25  38  69 100 127 183 216 274 345 377
#     4  10  24  44  65 100 142 170 219 274 335 410
#     4  11  26  44  72 100 132 165 246 282 316 399
#     4   9  21  38  63 102 134 176 216 272 340 400
#     4   9  20  40  64  98 140 163 220 280 330 403
#     4  10  24  43  68 100 130 178 223 283 327 386
#
# _framework density 23.677122000000001
#
# number of rings (size 3 to 8) (size 9 to 14) (size 15 to 20)
#    0.000    2.000    0.000    0.600   15.400    8.800 
#    0.000    1.000    2.200    0.000    0.000    0.000 
#    0.000    0.000    0.000    0.000    0.000    0.000 
#
# Total GULP energy -111619.460067 kJ/mol
# GULP energy per Si atom -5580.973003 kJ/mol
# Density = 2.362323 g / cm^3
# Si number density = 23.677122 Si / 1000 Ang^3
#
#
#
# Elastic Constant Matrix: (Units=GPa)
#
#
# Indices 1 2 3 4 5 6 
#
# 1 150.8745 44.7203 47.5163 0.0000 14.8644 0.0000
# 2 44.7203 117.0708 34.8971 0.0000 -7.7508 0.0000
# 3 47.5163 34.8971 99.4181 0.0000 16.8471 0.0000
# 4 0.0000 0.0000 0.0000 18.9840 0.0000 0.2361
# 5 14.8644 -7.7508 16.8471 0.0000 19.5014 0.0000
# 6 0.0000 0.0000 0.0000 0.2361 0.0000 39.3587
#
#
#
# Elastic Compliance Matrix: (Units=1/GPa)
#
#
# Indices 1 2 3 4 5 6 
#
# 1 0.008827 -0.003172 -0.002052 0.000000 -0.006216 0.000000
# 2 -0.003172 0.011823 -0.004499 0.000000 0.011003 0.000000
# 3 -0.002052 -0.004499 0.014827 0.000000 -0.013033 0.000000
# 4 0.000000 0.000000 0.000000 0.052680 0.000000 -0.000316
# 5 -0.006216 0.011003 -0.013033 0.000000 0.071648 0.000000
# 6 0.000000 0.000000 0.000000 -0.000316 0.000000 0.025409
#
#
# Mechanical properties :
#
#
# Convention : Reuss Voigt Hill
#
# Bulk Modulus (GPa) = 62.37607 69.07008 65.72307
# Shear Modulus (GPa) = 23.80927 31.58413 27.69670
#
# Velocity S-wave (km/s) = 3.17453 3.65629 3.42390
# Velocity P-wave (km/s) = 6.31177 6.86000 6.59159
#
# Compressibility (1/GPa) = 0.01603179
#
# Stress axis : x y z
#
# Youngs Moduli (GPa) = 113.29146 84.58247 67.44499
#
# Poissons Ratio (x) = 0.26826 0.13841
# Poissons Ratio (y) = 0.35931 0.30341
# Poissons Ratio (z) = 0.23249 0.38050
#
# Static dielectric constant tensor:
#      x y z
#    x 1.870770 0.000000 0.056420 
#    y 0.000000 1.948740 0.000000 
#    z 0.056420 0.000000 2.071830 
# 
# From -- ./inp_files/30219.got.cif
#   From: 2010.05.17/outbox.cif.g08.bks.cpg/sg15_16_cif.got.tgz:30219.got - 2010.06.03 18:47:42.
