data_PCOD9298829
_publ_section_title
;
Structure prediction by ZEFSAII (Michael W. Deem and Ramdas Pophale) SiO2 
 PCOD9298829
Probable space group: C 2/C
;
_chemical_formula_sum "Si O2"
_cell_formula_units_Z 60
_cell_length_a 27.903119
_cell_length_b 11.865443
_cell_length_c 9.644351
_cell_angle_alpha 90.000000
_cell_angle_beta 55.263748
_cell_angle_gamma 90.000000
_cell_volume 2624.020543
_symmetry_space_group_name_H-M "C 2/C"
_symmetry_group_IT_number 15
_symmetry_cell_setting 'monoclinic'
loop_
_space_group_symop_operation_xyz
x,y,z
-x,y,1/2-z
-x,-y,-z
x,-y,1/2+z
1/2+x,1/2+y,z
1/2-x,1/2+y,1/2-z
1/2-x,1/2-y,-z
1/2+x,1/2-y,1/2+z
loop_
_atom_site_type_symbol
_atom_site_label
_atom_site_fract_x
_atom_site_fract_y
_atom_site_fract_z
Si Si1 0.873198 0.866882 0.914833
Si Si2 0.631327 0.615880 0.539834
Si Si3 0.266188 0.891676 0.396037
Si Si4 0.000000 0.482526 0.250000
Si Si5 0.615340 0.789301 0.353447
Si Si6 0.576193 0.951016 0.876618
Si Si7 0.839945 0.751740 0.240540
Si Si8 0.245872 0.605330 0.265667
O O1 0.900051 0.785492 0.755115
O O2 0.802949 0.869972 0.000959
O O3 0.876752 0.813273 0.060471
O O4 0.896094 0.995405 0.878075
O O5 0.597330 0.715706 0.517163
O O6 0.661586 0.666448 0.626567
O O7 0.684784 0.587736 0.348241
O O8 0.313927 0.804128 0.261836
O O9 0.278863 0.902289 0.538801
O O10 0.276379 0.001432 0.288466
O O11 0.038241 0.551131 0.298832
O O12 0.958051 0.416908 0.426033
O O13 0.592601 0.917119 0.375098
O O14 0.627949 0.863521 0.771735
O O15 0.778744 0.714980 0.273169
#
# Coordination Sequence:
#
# PCOD9298829 Si02
#       8
#     8   8   8   4   8   8   8   8
#     4  11  23  39  55  84 132 179 212 254 293 341
#     4  11  25  36  56  88 129 178 216 252 291 347
#     4  11  23  36  57  85 129 174 220 263 302 342
#     4  10  24  46  64 100 134 134 192 270 354 416
#     4  12  21  40  64  86 124 165 219 256 308 380
#     4  11  24  42  71 100 119 158 194 265 346 382
#     4  12  23  39  62  90 123 162 224 257 305 385
#     4  11  23  37  55  87 128 174 219 266 299 344
#
# _framework density 22.865676000000001
#
# number of rings (size 3 to 8) (size 9 to 14) (size 15 to 20)
#    0.000    0.800    4.000    4.000    7.467    0.000 
#    0.000    0.000    0.000    0.000    0.000   65.333 
#    0.000    0.000    0.000    0.000    0.000    0.000 
#
# Total GULP energy -167563.580208 kJ/mol
# GULP energy per Si atom -5585.452674 kJ/mol
# Density = 2.281363 g / cm^3
# Si number density = 22.865676 Si / 1000 Ang^3
#
#
#
# Elastic Constant Matrix: (Units=GPa)
#
#
# Indices 1 2 3 4 5 6 
#
# 1 51.4234 11.9974 11.7680 0.0000 16.5168 0.0000
# 2 11.9974 140.0733 21.2866 0.0000 17.6531 0.0000
# 3 11.7680 21.2866 68.5887 0.0000 29.9462 0.0000
# 4 0.0000 0.0000 0.0000 34.3699 0.0000 12.4194
# 5 16.5168 17.6531 29.9462 0.0000 31.3657 0.0000
# 6 0.0000 0.0000 0.0000 12.4194 0.0000 11.2143
#
#
#
# Elastic Compliance Matrix: (Units=1/GPa)
#
#
# Indices 1 2 3 4 5 6 
#
# 1 0.023669 -0.000574 0.002431 0.000000 -0.014462 0.000000
# 2 -0.000574 0.007727 -0.000914 0.000000 -0.003174 0.000000
# 3 0.002431 -0.000914 0.025346 0.000000 -0.024965 0.000000
# 4 0.000000 0.000000 0.000000 0.048506 0.000000 -0.053719
# 5 -0.014462 -0.003174 -0.024965 0.000000 0.065119 0.000000
# 6 0.000000 0.000000 0.000000 -0.053719 0.000000 0.148664
#
#
# Mechanical properties :
#
#
# Convention : Reuss Voigt Hill
#
# Bulk Modulus (GPa) = 17.05634 38.90992 27.98313
# Shear Modulus (GPa) = 14.85058 29.72554 22.28806
#
# Velocity S-wave (km/s) = 2.55124 3.60947 3.12547
# Velocity P-wave (km/s) = 4.01920 5.86726 5.02885
#
# Compressibility (1/GPa) = 0.05862923
#
# Stress axis : x y z
#
# Youngs Moduli (GPa) = 42.24930 129.41294 39.45412
#
# Poissons Ratio (x) = 0.07430 -0.09593
# Poissons Ratio (y) = 0.02426 0.03605
# Poissons Ratio (z) = -0.10273 0.11825
#
# Static dielectric constant tensor:
#      x y z
#    x 1.886830 0.000000 -0.016220 
#    y 0.000000 1.911010 0.000000 
#    z -0.016220 0.000000 1.834620 
# 
# From -- ./inp_files/69341.got.cif
#   From: 2010.05.17/outbox.cif.g08.bks.cpg/sg15_35_cif.got.tgz:69341.got - 2010.06.03 18:47:42.
