data_PCOD9298608
_publ_section_title
;
Structure prediction by ZEFSAII (Michael W. Deem and Ramdas Pophale) SiO2 
 PCOD9298608
Probable space group: C 2/C
;
_chemical_formula_sum "Si O2"
_cell_formula_units_Z 40
_cell_length_a 16.396628
_cell_length_b 13.544079
_cell_length_c 9.376366
_cell_angle_alpha 90.000000
_cell_angle_beta 48.958936
_cell_angle_gamma 90.000000
_cell_volume 1570.535170
_symmetry_space_group_name_H-M "C 2/C"
_symmetry_group_IT_number 15
_symmetry_cell_setting 'monoclinic'
loop_
_space_group_symop_operation_xyz
x,y,z
-x,y,1/2-z
-x,-y,-z
x,-y,1/2+z
1/2+x,1/2+y,z
1/2-x,1/2+y,1/2-z
1/2-x,1/2-y,-z
1/2+x,1/2-y,1/2+z
loop_
_atom_site_type_symbol
_atom_site_label
_atom_site_fract_x
_atom_site_fract_y
_atom_site_fract_z
Si Si1 0.334151 0.713597 0.697217
Si Si2 0.075338 0.556557 0.800655
Si Si3 0.381777 0.724943 0.321738
Si Si4 0.053840 0.898575 0.983975
Si Si5 0.254252 0.597981 0.031686
O O1 0.318125 0.728610 0.545496
O O2 0.457375 0.681743 0.593208
O O3 0.304231 0.812377 0.817049
O O4 0.262867 0.628409 0.855794
O O5 0.102607 0.672302 0.780428
O O6 0.184719 0.497490 0.644427
O O7 0.000000 0.553337 0.750000
O O8 0.000000 0.500000 0.000000
O O9 0.500000 0.699801 0.250000
O O10 0.362050 0.636822 0.234522
O O11 0.124891 0.909639 0.043689
O O12 0.000000 0.000000 0.000000
#
# Coordination Sequence:
#
# PCOD9298608 Si02
#       5
#     8   8   8   8   8
#     4  10  24  45  65 100 145 187 241 296 358 439
#     4  11  24  46  75 105 140 185 245 306 367 445
#     4   9  21  45  70  96 137 186 232 294 361 426
#     4  11  25  45  70 105 146 187 240 302 365 438
#     4  11  25  43  73 107 141 193 240 296 377 437
#
# _framework density 25.469025999999999
#
# number of rings (size 3 to 8) (size 9 to 14) (size 15 to 20)
#    0.000    1.600    0.000    4.200    0.000   16.800 
#    0.000    4.000    0.000    1.200    0.000    0.000 
#    0.000    0.000    0.000    0.000    0.000    0.000 
#
# Total GULP energy -111984.141184 kJ/mol
# GULP energy per Si atom -5599.207059 kJ/mol
# Density = 2.541106 g / cm^3
# Si number density = 25.469026 Si / 1000 Ang^3
#
#
#
# Elastic Constant Matrix: (Units=GPa)
#
#
# Indices 1 2 3 4 5 6 
#
# 1 95.7332 53.1755 39.4096 0.0000 1.9255 0.0000
# 2 53.1755 122.2944 55.1033 0.0000 15.0862 0.0000
# 3 39.4096 55.1033 147.5329 0.0000 23.7588 0.0000
# 4 0.0000 0.0000 0.0000 50.2476 0.0000 -13.1890
# 5 1.9255 15.0862 23.7588 0.0000 52.7764 0.0000
# 6 0.0000 0.0000 0.0000 -13.1890 0.0000 34.9915
#
#
#
# Elastic Compliance Matrix: (Units=1/GPa)
#
#
# Indices 1 2 3 4 5 6 
#
# 1 0.014343 -0.005545 -0.002082 0.000000 0.001999 0.000000
# 2 -0.005545 0.012052 -0.002693 0.000000 -0.002030 0.000000
# 3 -0.002082 -0.002693 0.008845 0.000000 -0.003136 0.000000
# 4 0.000000 0.000000 0.000000 0.022087 0.000000 0.008325
# 5 0.001999 -0.002030 -0.003136 0.000000 0.020867 0.000000
# 6 0.000000 0.000000 0.000000 0.008325 0.000000 0.031716
#
#
# Mechanical properties :
#
#
# Convention : Reuss Voigt Hill
#
# Bulk Modulus (GPa) = 68.49639 73.43747 70.96693
# Shear Modulus (GPa) = 36.92310 42.12790 39.52550
#
# Velocity S-wave (km/s) = 3.81166 4.07145 3.94370
# Velocity P-wave (km/s) = 6.80618 7.14136 6.97578
#
# Compressibility (1/GPa) = 0.01459931
#
# Stress axis : x y z
#
# Youngs Moduli (GPa) = 69.72275 82.97422 113.05397
#
# Poissons Ratio (x) = 0.46007 0.23540
# Poissons Ratio (y) = 0.38660 0.30449
# Poissons Ratio (z) = 0.14518 0.22347
#
# Static dielectric constant tensor:
#      x y z
#    x 1.992710 0.000000 -0.018450 
#    y 0.000000 2.053880 0.000000 
#    z -0.018450 0.000000 2.163160 
# 
# From -- ./inp_files/96002.got.cif
#   From: 2010.05.17/outbox.cif.g08.bks.cpg/sg15_49_cif.got.tgz:96002.got - 2010.06.03 18:47:42.
