data_PCOD9298082
_publ_section_title
;
Structure prediction by ZEFSAII (Michael W. Deem and Ramdas Pophale) SiO2 
 PCOD9298082
Probable space group: C 2/C
;
_chemical_formula_sum "Si O2"
_cell_formula_units_Z 56
_cell_length_a 10.972484
_cell_length_b 11.503528
_cell_length_c 20.208120
_cell_angle_alpha 90.000000
_cell_angle_beta 79.518696
_cell_angle_gamma 90.000000
_cell_volume 2508.154506
_symmetry_space_group_name_H-M "C 2/C"
_symmetry_group_IT_number 15
_symmetry_cell_setting 'monoclinic'
loop_
_space_group_symop_operation_xyz
x,y,z
-x,y,1/2-z
-x,-y,-z
x,-y,1/2+z
1/2+x,1/2+y,z
1/2-x,1/2+y,1/2-z
1/2-x,1/2-y,-z
1/2+x,1/2-y,1/2+z
loop_
_atom_site_type_symbol
_atom_site_label
_atom_site_fract_x
_atom_site_fract_y
_atom_site_fract_z
Si Si1 0.754569 0.735614 0.842454
Si Si2 0.535550 0.591210 0.440792
Si Si3 0.564418 0.923540 0.918995
Si Si4 0.296393 0.813134 0.927115
Si Si5 0.422511 0.852968 0.438196
Si Si6 0.854239 0.173068 0.786075
Si Si7 0.585855 0.554203 0.180920
O O1 0.650699 0.832404 0.871313
O O2 0.806770 0.659382 0.898717
O O3 0.715462 0.681251 0.777081
O O4 0.872462 0.815719 0.817381
O O5 0.500000 0.500000 0.500000
O O6 0.682166 0.602767 0.424325
O O7 0.475258 0.722244 0.448785
O O8 0.484787 0.535165 0.379276
O O9 0.427650 0.868099 0.931742
O O10 0.532270 0.058176 0.903652
O O11 0.617451 0.911210 0.988350
O O12 0.320288 0.751721 0.853147
O O13 0.250000 0.750000 0.000000
O O14 0.000000 0.195018 0.750000
O O15 0.816341 0.046954 0.819673
O O16 0.500000 0.530323 0.250000
#
# Coordination Sequence:
#
# PCOD9298082 Si02
#       7
#     8   8   8   8   8   8   8
#     4  11  24  46  69 100 147 193 243 308 375 444
#     4  11  24  43  72 104 139 188 239 294 363 432
#     4  11  24  44  71 107 146 188 248 302 380 440
#     4  12  24  43  73 104 144 186 244 303 366 447
#     4  10  25  43  69 106 145 191 238 303 370 441
#     4  11  24  44  70 101 142 186 245 301 362 441
#     4  10  24  43  67  99 137 186 237 293 361 435
#
# _framework density 22.327172000000001
#
# number of rings (size 3 to 8) (size 9 to 14) (size 15 to 20)
#    0.000    1.143    2.857    2.143    2.000    9.143 
#    0.000    0.000    0.000    0.000    0.000    0.000 
#    0.000    0.000    0.000    0.000    0.000    0.000 
#
# Total GULP energy -155960.962366 kJ/mol
# GULP energy per Si atom -5570.034370 kJ/mol
# Density = 2.227635 g / cm^3
# Si number density = 22.327172 Si / 1000 Ang^3
#
#
#
# Elastic Constant Matrix: (Units=GPa)
#
#
# Indices 1 2 3 4 5 6 
#
# 1 72.0560 28.0279 45.5775 0.0000 32.2209 0.0000
# 2 28.0279 99.4195 57.4796 0.0000 17.7232 0.0000
# 3 45.5775 57.4796 123.8577 0.0000 44.5929 0.0000
# 4 0.0000 0.0000 0.0000 38.8023 0.0000 -5.6427
# 5 32.2209 17.7232 44.5929 0.0000 54.3402 0.0000
# 6 0.0000 0.0000 0.0000 -5.6427 0.0000 20.0214
#
#
#
# Elastic Compliance Matrix: (Units=1/GPa)
#
#
# Indices 1 2 3 4 5 6 
#
# 1 0.020899 -0.002336 -0.003434 0.000000 -0.008812 0.000000
# 2 -0.002336 0.014051 -0.006401 0.000000 0.002055 0.000000
# 3 -0.003434 -0.006401 0.015362 0.000000 -0.008483 0.000000
# 4 0.000000 0.000000 0.000000 0.026873 0.000000 0.007574
# 5 -0.008812 0.002055 -0.008483 0.000000 0.029919 0.000000
# 6 0.000000 0.000000 0.000000 0.007574 0.000000 0.052081
#
#
# Mechanical properties :
#
#
# Convention : Reuss Voigt Hill
#
# Bulk Modulus (GPa) = 38.50429 61.94479 50.22454
# Shear Modulus (GPa) = 26.01664 33.58265 29.79965
#
# Velocity S-wave (km/s) = 3.41727 3.88250 3.65729
# Velocity P-wave (km/s) = 5.73178 6.92118 6.35437
#
# Compressibility (1/GPa) = 0.02597113
#
# Stress axis : x y z
#
# Youngs Moduli (GPa) = 47.84863 71.16696 65.09479
#
# Poissons Ratio (x) = 0.16621 0.22353
# Poissons Ratio (y) = 0.11175 0.41670
# Poissons Ratio (z) = 0.16431 0.45557
#
# Static dielectric constant tensor:
#      x y z
#    x 1.886100 0.000000 0.122110 
#    y 0.000000 2.009800 0.000000 
#    z 0.122110 0.000000 2.292870 
# 
# From -- ./inp_files/236992.got.cif
#   From: 2010.05.17/outbox.cif.g08.bks.cpg/sg15_119_cif.got.tgz:236992.got - 2010.06.03 18:47:42.
