data_PCOD9298670
_publ_section_title
;
Structure prediction by ZEFSAII (Michael W. Deem and Ramdas Pophale) SiO2 
 PCOD9298670
Probable space group: C 2/C
;
_chemical_formula_sum "Si O2"
_cell_formula_units_Z 48
_cell_length_a 28.441020
_cell_length_b 6.839745
_cell_length_c 13.224905
_cell_angle_alpha 90.000000
_cell_angle_beta 117.318448
_cell_angle_gamma 90.000000
_cell_volume 2285.704949
_symmetry_space_group_name_H-M "C 2/C"
_symmetry_group_IT_number 15
_symmetry_cell_setting 'monoclinic'
loop_
_space_group_symop_operation_xyz
x,y,z
-x,y,1/2-z
-x,-y,-z
x,-y,1/2+z
1/2+x,1/2+y,z
1/2-x,1/2+y,1/2-z
1/2-x,1/2-y,-z
1/2+x,1/2-y,1/2+z
loop_
_atom_site_type_symbol
_atom_site_label
_atom_site_fract_x
_atom_site_fract_y
_atom_site_fract_z
Si Si1 0.029483 0.202388 0.048678
Si Si2 0.664159 0.030942 0.182783
Si Si3 0.562889 0.962943 0.448692
Si Si4 0.759248 0.746778 0.846962
Si Si5 0.286909 0.560918 0.038145
Si Si6 0.612753 0.202533 0.798709
O O1 0.077831 0.197891 0.175989
O O2 0.986491 0.340542 0.060144
O O3 0.049365 0.312618 0.966178
O O4 0.000000 0.000000 0.000000
O O5 0.691522 0.838931 0.164207
O O6 0.645168 0.972285 0.275850
O O7 0.710533 0.188011 0.229780
O O8 0.614287 0.088536 0.066767
O O9 0.577231 0.899752 0.349664
O O10 0.735111 0.581627 0.896280
O O11 0.778913 0.932565 0.930065
O O12 0.345936 0.641273 0.115411
O O13 0.250000 0.750000 0.000000
#
# Coordination Sequence:
#
# PCOD9298670 Si02
#       6
#     8   8   8   8   8   8
#     4  10  24  48  72 100 131 177 233 283 352 416
#     4  11  24  41  68  96 141 183 227 279 344 401
#     4  10  24  45  68  98 139 169 224 294 343 407
#     4  11  25  41  64  99 141 189 229 278 338 415
#     4  11  23  43  65  97 140 180 236 281 337 409
#     4  11  23  43  70 101 135 180 229 291 345 406
#
# _framework density 21.000086
#
# number of rings (size 3 to 8) (size 9 to 14) (size 15 to 20)
#    0.000    1.333    1.667    2.500    7.000    2.667 
#    0.000    6.667    0.000    0.000    0.000    0.000 
#    0.000    0.000    0.000    0.000    0.000    0.000 
#
# Total GULP energy -134186.939674 kJ/mol
# GULP energy per Si atom -5591.122486 kJ/mol
# Density = 2.095229 g / cm^3
# Si number density = 21.000086 Si / 1000 Ang^3
#
#
#
# Elastic Constant Matrix: (Units=GPa)
#
#
# Indices 1 2 3 4 5 6 
#
# 1 97.7776 25.7964 27.1148 0.0000 -4.1332 0.0000
# 2 25.7964 105.9089 45.2157 0.0000 1.6274 0.0000
# 3 27.1148 45.2157 58.2994 0.0000 17.4199 0.0000
# 4 0.0000 0.0000 0.0000 35.9942 0.0000 9.8617
# 5 -4.1332 1.6274 17.4199 0.0000 52.7946 0.0000
# 6 0.0000 0.0000 0.0000 9.8617 0.0000 16.5688
#
#
#
# Elastic Compliance Matrix: (Units=1/GPa)
#
#
# Indices 1 2 3 4 5 6 
#
# 1 0.012198 -0.000308 -0.006349 0.000000 0.003059 0.000000
# 2 -0.000308 0.014741 -0.012366 0.000000 0.003602 0.000000
# 3 -0.006349 -0.012366 0.032983 0.000000 -0.010999 0.000000
# 4 0.000000 0.000000 0.000000 0.033195 0.000000 -0.019758
# 5 0.003059 0.003602 -0.010999 0.000000 0.022699 0.000000
# 6 0.000000 0.000000 0.000000 -0.019758 0.000000 0.072114
#
#
# Mechanical properties :
#
#
# Convention : Reuss Voigt Hill
#
# Bulk Modulus (GPa) = 45.70957 50.91552 48.31254
# Shear Modulus (GPa) = 21.43453 31.99544 26.71499
#
# Velocity S-wave (km/s) = 3.19829 3.90755 3.57057
# Velocity P-wave (km/s) = 5.95419 6.68256 6.32886
#
# Compressibility (1/GPa) = 0.02187726
#
# Stress axis : x y z
#
# Youngs Moduli (GPa) = 81.97782 67.83773 30.31877
#
# Poissons Ratio (x) = 0.02087 0.19249
# Poissons Ratio (y) = 0.02522 0.37492
# Poissons Ratio (z) = 0.52047 0.83888
#
# Static dielectric constant tensor:
#      x y z
#    x 1.751860 0.000000 -0.027030 
#    y 0.000000 1.739710 0.000000 
#    z -0.027030 0.000000 1.770380 
# 
# From -- ./inp_files/180223.got.cif
#   From: 2010.05.17/outbox.cif.g08.bks.cpg/sg15_91_cif.got.tgz:180223.got - 2010.06.03 18:47:42.
