data_PCOD9298941
_publ_section_title
;
Structure prediction by ZEFSAII (Michael W. Deem and Ramdas Pophale) SiO2 
 PCOD9298941
Probable space group: C 2/C
;
_chemical_formula_sum "Si O2"
_cell_formula_units_Z 56
_cell_length_a 13.564446
_cell_length_b 13.999232
_cell_length_c 20.999415
_cell_angle_alpha 90.000000
_cell_angle_beta 36.001233
_cell_angle_gamma 90.000000
_cell_volume 2343.932047
_symmetry_space_group_name_H-M "C 2/C"
_symmetry_group_IT_number 15
_symmetry_cell_setting 'monoclinic'
loop_
_space_group_symop_operation_xyz
x,y,z
-x,y,1/2-z
-x,-y,-z
x,-y,1/2+z
1/2+x,1/2+y,z
1/2-x,1/2+y,1/2-z
1/2-x,1/2-y,-z
1/2+x,1/2-y,1/2+z
loop_
_atom_site_type_symbol
_atom_site_label
_atom_site_fract_x
_atom_site_fract_y
_atom_site_fract_z
Si Si1 0.500000 0.441479 0.250000
Si Si2 0.000000 0.422101 0.250000
Si Si3 0.787656 0.150231 0.516277
Si Si4 0.171561 0.194212 0.339839
Si Si5 0.875402 0.147643 0.688807
Si Si6 0.351076 0.014450 0.205597
Si Si7 0.172545 0.495509 0.471756
Si Si8 0.344300 0.765717 0.016187
O O1 0.521806 0.373760 0.300084
O O2 0.330433 0.504908 0.340849
O O3 0.158968 0.361062 0.142524
O O4 0.048579 0.488739 0.283338
O O5 0.750000 0.250000 0.500000
O O6 0.750381 0.059226 0.489399
O O7 0.982182 0.157495 0.434317
O O8 0.201469 0.296924 0.292205
O O9 0.297240 0.123499 0.238095
O O10 0.226466 0.214530 0.383918
O O11 0.981402 0.210403 0.585535
O O12 0.820037 0.043747 0.697042
O O13 0.472455 0.982326 0.083723
O O14 0.152511 0.379990 0.480534
O O15 0.250000 0.750000 0.000000
#
# Coordination Sequence:
#
# PCOD9298941 Si02
#       8
#     4   4   8   8   8   8   8   8
#     4  12  24  44  70 102 144 188 234 308 366 426
#     4  10  24  46  70  98 136 184 234 292 358 422
#     4  11  26  49  70 100 145 191 241 292 358 439
#     4  12  25  42  74 103 138 192 233 297 373 426
#     4  12  24  45  66 106 142 181 246 300 363 434
#     4  11  26  43  73 101 142 182 242 299 358 441
#     4  11  24  47  68 106 141 190 239 299 360 433
#     4  12  25  43  72 104 145 183 240 300 364 433
#
# _framework density 23.891477999999999
#
# number of rings (size 3 to 8) (size 9 to 14) (size 15 to 20)
#    0.000    0.571    4.286    3.429    4.000    2.857 
#    2.571    0.000    0.000    0.000    0.000    0.000 
#    0.000    0.000    0.000    0.000    0.000    0.000 
#
# Total GULP energy -156143.679830 kJ/mol
# GULP energy per Si atom -5576.559994 kJ/mol
# Density = 2.383710 g / cm^3
# Si number density = 23.891478 Si / 1000 Ang^3
#
#
#
# Elastic Constant Matrix: (Units=GPa)
#
#
# Indices 1 2 3 4 5 6 
#
# 1 47.8993 17.4333 11.6884 0.0000 -15.4990 0.0000
# 2 17.4333 87.9855 22.1219 -0.0003 3.5454 0.0001
# 3 11.6884 22.1219 142.7234 -0.0014 -9.1218 0.0003
# 4 0.0000 -0.0003 -0.0014 42.9780 0.0002 -3.6259
# 5 -15.4990 3.5454 -9.1218 0.0002 34.8514 0.0000
# 6 0.0000 0.0001 0.0003 -3.6259 0.0000 31.9621
#
#
#
# Elastic Compliance Matrix: (Units=1/GPa)
#
#
# Indices 1 2 3 4 5 6 
#
# 1 0.027151 -0.005750 -0.000532 0.000000 0.012520 0.000000
# 2 -0.005750 0.013146 -0.001846 0.000000 -0.004378 0.000000
# 3 -0.000532 -0.001846 0.007458 0.000000 0.001903 0.000000
# 4 0.000000 0.000000 0.000000 0.023493 0.000000 0.002665
# 5 0.012520 -0.004378 0.001903 0.000000 0.035205 0.000000
# 6 0.000000 0.000000 0.000000 0.002665 0.000000 0.031589
#
#
# Mechanical properties :
#
#
# Convention : Reuss Voigt Hill
#
# Bulk Modulus (GPa) = 31.74918 42.34393 37.04656
# Shear Modulus (GPa) = 30.34019 37.11595 33.72807
#
# Velocity S-wave (km/s) = 3.56746 3.94575 3.76136
# Velocity P-wave (km/s) = 5.50334 6.20649 5.86546
#
# Compressibility (1/GPa) = 0.03149687
#
# Stress axis : x y z
#
# Youngs Moduli (GPa) = 36.83093 76.07145 134.08482
#
# Poissons Ratio (x) = 0.43744 0.07134
# Poissons Ratio (y) = 0.21179 0.24758
# Poissons Ratio (z) = 0.01960 0.14046
#
# Static dielectric constant tensor:
#      x y z
#    x 1.993180 0.000000 -0.019070 
#    y 0.000000 1.825320 0.000000 
#    z -0.019070 0.000000 1.984500 
# 
# From -- ./inp_files/274502.got.cif
#   From: 2010.05.17/outbox.cif.g08.bks.cpg/sg15_138_cif.got.tgz:274502.got - 2010.06.03 18:47:42.
