data_PCOD9298768
_publ_section_title
;
Structure prediction by ZEFSAII (Michael W. Deem and Ramdas Pophale) SiO2 
 PCOD9298768
Probable space group: C 2/C
;
_chemical_formula_sum "Si O2"
_cell_formula_units_Z 36
_cell_length_a 12.910126
_cell_length_b 5.172388
_cell_length_c 20.959512
_cell_angle_alpha 90.000000
_cell_angle_beta 86.068270
_cell_angle_gamma 90.000000
_cell_volume 1396.302157
_symmetry_space_group_name_H-M "C 2/C"
_symmetry_group_IT_number 15
_symmetry_cell_setting 'monoclinic'
loop_
_space_group_symop_operation_xyz
x,y,z
-x,y,1/2-z
-x,-y,-z
x,-y,1/2+z
1/2+x,1/2+y,z
1/2-x,1/2+y,1/2-z
1/2-x,1/2-y,-z
1/2+x,1/2-y,1/2+z
loop_
_atom_site_type_symbol
_atom_site_label
_atom_site_fract_x
_atom_site_fract_y
_atom_site_fract_z
Si Si1 0.280625 0.137678 0.785097
Si Si2 0.840386 0.577147 0.102929
Si Si3 0.031325 0.302138 0.143420
Si Si4 0.750000 0.750000 0.500000
Si Si5 0.454446 0.717012 0.937090
O O1 0.238146 0.345964 0.735959
O O2 0.216606 0.210864 0.851737
O O3 0.400648 0.196267 0.795929
O O4 0.912795 0.402951 0.146456
O O5 0.927057 0.703849 0.053113
O O6 0.757851 0.425681 0.064485
O O7 0.086042 0.527103 0.098463
O O8 0.037925 0.026247 0.109740
O O9 0.623718 0.694179 0.501639
#
# Coordination Sequence:
#
# PCOD9298768 Si02
#       5
#     8   8   8   4   8
#     4  12  27  49  78 105 145 199 252 312 369 436
#     4  10  27  47  76 109 152 191 250 301 377 443
#     4  10  24  49  70 106 146 187 245 301 361 439
#     4  12  22  50  78 114 150 202 234 310 370 456
#     4  10  24  45  73 108 147 192 239 293 368 441
#
# _framework density 25.782388000000001
#
# number of rings (size 3 to 8) (size 9 to 14) (size 15 to 20)
#    1.333    0.000    2.222    2.000    3.111    2.667 
#    0.000    0.000    0.000    0.000    0.000    0.000 
#    0.000    0.000    0.000    0.000    0.000    0.000 
#
# Total GULP energy -100221.637944 kJ/mol
# GULP energy per Si atom -5567.868775 kJ/mol
# Density = 2.572371 g / cm^3
# Si number density = 25.782388 Si / 1000 Ang^3
#
#
#
# Elastic Constant Matrix: (Units=GPa)
#
#
# Indices 1 2 3 4 5 6 
#
# 1 133.9864 22.0435 27.2730 0.0000 -5.9538 0.0000
# 2 22.0435 83.0147 8.3208 0.0000 16.2630 0.0000
# 3 27.2730 8.3208 40.0325 0.0000 3.2492 0.0000
# 4 0.0000 0.0000 0.0000 49.1437 0.0000 16.6169
# 5 -5.9538 16.2630 3.2492 0.0000 52.9823 0.0000
# 6 0.0000 0.0000 0.0000 16.6169 0.0000 27.7318
#
#
#
# Elastic Compliance Matrix: (Units=1/GPa)
#
#
# Indices 1 2 3 4 5 6 
#
# 1 0.009129 -0.002237 -0.005923 0.000000 0.002076 0.000000
# 2 -0.002237 0.013590 -0.000946 0.000000 -0.004365 0.000000
# 3 -0.005923 -0.000946 0.029388 0.000000 -0.002177 0.000000
# 4 0.000000 0.000000 0.000000 0.025519 0.000000 -0.015291
# 5 0.002076 -0.004365 -0.002177 0.000000 0.020581 0.000000
# 6 0.000000 0.000000 0.000000 -0.015291 0.000000 0.045222
#
#
# Mechanical properties :
#
#
# Convention : Reuss Voigt Hill
#
# Bulk Modulus (GPa) = 29.50318 41.36758 35.43538
# Shear Modulus (GPa) = 28.91166 39.26465 34.08815
#
# Velocity S-wave (km/s) = 3.35232 3.90670 3.64008
# Velocity P-wave (km/s) = 5.14316 6.03568 5.60721
#
# Compressibility (1/GPa) = 0.03389465
#
# Stress axis : x y z
#
# Youngs Moduli (GPa) = 109.53627 73.58317 34.02708
#
# Poissons Ratio (x) = 0.16462 0.20155
# Poissons Ratio (y) = 0.24505 0.03220
# Poissons Ratio (z) = 0.64879 0.06963
#
# Static dielectric constant tensor:
#      x y z
#    x 2.018010 0.000000 -0.057280 
#    y 0.000000 2.447310 0.000000 
#    z -0.057280 0.000000 2.160630 
# 
# From -- ./inp_files/241451.got.cif
#   From: 2010.05.17/outbox.cif.g08.bks.cpg/sg15_121_cif.got.tgz:241451.got - 2010.06.03 18:47:42.
