data_PCOD9298013
_publ_section_title
;
Structure prediction by ZEFSAII (Michael W. Deem and Ramdas Pophale) SiO2 
 PCOD9298013
Probable space group: C 2/C
;
_chemical_formula_sum "Si O2"
_cell_formula_units_Z 40
_cell_length_a 26.005015
_cell_length_b 11.705213
_cell_length_c 5.216148
_cell_angle_alpha 90.000000
_cell_angle_beta 104.596962
_cell_angle_gamma 90.000000
_cell_volume 1536.516361
_symmetry_space_group_name_H-M "C 2/C"
_symmetry_group_IT_number 15
_symmetry_cell_setting 'monoclinic'
loop_
_space_group_symop_operation_xyz
x,y,z
-x,y,1/2-z
-x,-y,-z
x,-y,1/2+z
1/2+x,1/2+y,z
1/2-x,1/2+y,1/2-z
1/2-x,1/2-y,-z
1/2+x,1/2-y,1/2+z
loop_
_atom_site_type_symbol
_atom_site_label
_atom_site_fract_x
_atom_site_fract_y
_atom_site_fract_z
Si Si1 0.195310 0.556239 0.392613
Si Si2 0.062386 0.575907 0.842391
Si Si3 0.359621 0.754077 0.348713
Si Si4 0.944130 0.922477 0.111155
Si Si5 0.813470 0.042144 0.070787
O O1 0.177231 0.537702 0.080266
O O2 0.175784 0.669535 0.504349
O O3 0.258312 0.527964 0.459875
O O4 0.070517 0.473402 0.641081
O O5 0.100197 0.676570 0.785098
O O6 0.000000 0.608929 0.750000
O O7 0.398439 0.672266 0.557274
O O8 0.317495 0.674634 0.142177
O O9 0.000000 0.862110 0.250000
O O10 0.943944 0.023139 0.324801
O O11 0.840655 0.976600 0.336308
#
# Coordination Sequence:
#
# PCOD9298013 Si02
#       5
#     8   8   8   8   8
#     4  10  24  43  64  98 137 176 229 285 335 403
#     4  10  24  44  65  96 134 171 224 283 331 398
#     4  12  24  42  74  98 134 190 228 272 354 410
#     4  10  24  44  65  96 134 171 224 283 331 398
#     4  10  24  43  64  98 137 176 229 285 335 403
#
# _framework density 26.032917000000001
#
# number of rings (size 3 to 8) (size 9 to 14) (size 15 to 20)
#    0.000    1.600    0.000    2.400    0.000   17.600 
#    0.000    0.000    0.000    0.000    0.000    0.000 
#    0.000    0.000    0.000    0.000    0.000    0.000 
#
# Total GULP energy -111778.145416 kJ/mol
# GULP energy per Si atom -5588.907271 kJ/mol
# Density = 2.597367 g / cm^3
# Si number density = 26.032917 Si / 1000 Ang^3
#
#
#
# Elastic Constant Matrix: (Units=GPa)
#
#
# Indices 1 2 3 4 5 6 
#
# 1 156.5340 58.8810 8.1783 0.0000 -1.6277 0.0000
# 2 58.8810 119.5024 29.2052 0.0000 1.0632 0.0000
# 3 8.1783 29.2052 163.4122 0.0000 -17.2652 0.0000
# 4 0.0000 0.0000 0.0000 38.8552 0.0000 -2.3872
# 5 -1.6277 1.0632 -17.2652 0.0000 36.9964 0.0000
# 6 0.0000 0.0000 0.0000 -2.3872 0.0000 52.0671
#
#
#
# Elastic Compliance Matrix: (Units=1/GPa)
#
#
# Indices 1 2 3 4 5 6 
#
# 1 0.007871 -0.003978 0.000385 0.000000 0.000640 0.000000
# 2 -0.003978 0.010798 -0.001874 0.000000 -0.001360 0.000000
# 3 0.000385 -0.001874 0.006777 0.000000 0.003233 0.000000
# 4 0.000000 0.000000 0.000000 0.025809 0.000000 0.001183
# 5 0.000640 -0.001360 0.003233 0.000000 0.028606 0.000000
# 6 0.000000 0.000000 0.000000 0.001183 0.000000 0.019260
#
#
# Mechanical properties :
#
#
# Convention : Reuss Voigt Hill
#
# Bulk Modulus (GPa) = 68.91456 70.21974 69.56715
# Shear Modulus (GPa) = 43.51818 48.46267 45.99043
#
# Velocity S-wave (km/s) = 4.09303 4.31930 4.20768
# Velocity P-wave (km/s) = 6.99047 7.20466 7.09837
#
# Compressibility (1/GPa) = 0.01451072
#
# Stress axis : x y z
#
# Youngs Moduli (GPa) = 127.04366 92.60718 147.56067
#
# Poissons Ratio (x) = 0.36840 -0.05676
# Poissons Ratio (y) = 0.50538 0.27660
# Poissons Ratio (z) = -0.04887 0.17359
#
# Static dielectric constant tensor:
#      x y z
#    x 2.326610 0.000000 0.071970 
#    y 0.000000 2.043760 0.000000 
#    z 0.071970 0.000000 2.088590 
# 
# From -- ./inp_files/18002.got.cif
#   From: 2010.05.17/outbox.cif.g08.bks.cpg/sg15_10_cif.got.tgz:18002.got - 2010.06.03 18:47:42.
