data_PCOD9298137
_publ_section_title
;
Structure prediction by ZEFSAII (Michael W. Deem and Ramdas Pophale) SiO2 
 PCOD9298137
Probable space group: C 2/C
;
_chemical_formula_sum "Si O2"
_cell_formula_units_Z 40
_cell_length_a 18.113204
_cell_length_b 10.973116
_cell_length_c 8.834058
_cell_angle_alpha 90.000000
_cell_angle_beta 94.876456
_cell_angle_gamma 90.000000
_cell_volume 1749.486648
_symmetry_space_group_name_H-M "C 2/C"
_symmetry_group_IT_number 15
_symmetry_cell_setting 'monoclinic'
loop_
_space_group_symop_operation_xyz
x,y,z
-x,y,1/2-z
-x,-y,-z
x,-y,1/2+z
1/2+x,1/2+y,z
1/2-x,1/2+y,1/2-z
1/2-x,1/2-y,-z
1/2+x,1/2-y,1/2+z
loop_
_atom_site_type_symbol
_atom_site_label
_atom_site_fract_x
_atom_site_fract_y
_atom_site_fract_z
Si Si1 0.308682 0.649233 0.171515
Si Si2 0.618129 0.489149 0.573195
Si Si3 0.859500 0.620247 0.337811
Si Si4 0.572139 0.326314 0.311508
Si Si5 0.585445 0.123421 0.819679
O O1 0.314180 0.569409 0.324942
O O2 0.223310 0.639999 0.111609
O O3 0.355094 0.771105 0.212552
O O4 0.354319 0.582574 0.047270
O O5 0.575995 0.381723 0.477887
O O6 0.573339 0.562382 0.691686
O O7 0.863856 0.734601 0.222926
O O8 0.911181 0.621596 0.496326
O O9 0.881834 0.500136 0.248458
O O10 0.500000 0.252488 0.250000
O O11 0.500000 0.143568 0.750000
#
# Coordination Sequence:
#
# PCOD9298137 Si02
#       5
#     8   8   8   8   8
#     4  11  25  46  74 103 141 183 240 289 354 415
#     4  10  24  43  70 101 137 180 230 289 353 411
#     4  12  27  46  72 102 143 188 236 291 347 427
#     4  11  24  42  68  99 141 178 233 284 355 414
#     4  12  28  47  73 103 146 188 239 288 356 417
#
# _framework density 22.863848999999998
#
# number of rings (size 3 to 8) (size 9 to 14) (size 15 to 20)
#    0.000    0.800    2.000    3.600   11.200    4.000 
#    0.000    0.000    0.000    0.000    0.000    0.000 
#    0.000    0.000    0.000    0.000    0.000    0.000 
#
# Total GULP energy -111643.678799 kJ/mol
# GULP energy per Si atom -5582.183940 kJ/mol
# Density = 2.281181 g / cm^3
# Si number density = 22.863849 Si / 1000 Ang^3
#
#
#
# Elastic Constant Matrix: (Units=GPa)
#
#
# Indices 1 2 3 4 5 6 
#
# 1 91.1161 23.5229 11.2790 0.0000 22.9767 0.0000
# 2 23.5229 105.4081 51.7337 0.0000 -0.1892 0.0000
# 3 11.2790 51.7337 95.3504 0.0000 18.4234 0.0000
# 4 0.0000 0.0000 0.0000 34.5086 0.0000 -7.8602
# 5 22.9767 -0.1892 18.4234 0.0000 35.9238 0.0000
# 6 0.0000 0.0000 0.0000 -7.8602 0.0000 26.0927
#
#
#
# Elastic Compliance Matrix: (Units=1/GPa)
#
#
# Indices 1 2 3 4 5 6 
#
# 1 0.014560 -0.004703 0.002923 0.000000 -0.010837 0.000000
# 2 -0.004703 0.015009 -0.009083 0.000000 0.007746 0.000000
# 3 0.002923 -0.009083 0.017139 0.000000 -0.010707 0.000000
# 4 0.000000 0.000000 0.000000 0.031113 0.000000 0.009373
# 5 -0.010837 0.007746 -0.010707 0.000000 0.040300 0.000000
# 6 0.000000 0.000000 0.000000 0.009373 0.000000 0.041148
#
#
# Mechanical properties :
#
#
# Convention : Reuss Voigt Hill
#
# Bulk Modulus (GPa) = 40.03074 51.66064 45.84569
# Shear Modulus (GPa) = 26.41000 32.99430 29.70215
#
# Velocity S-wave (km/s) = 3.40236 3.80291 3.60820
# Velocity P-wave (km/s) = 5.74291 6.47509 6.11996
#
# Compressibility (1/GPa) = 0.02498080
#
# Stress axis : x y z
#
# Youngs Moduli (GPa) = 68.68107 66.62883 58.34667
#
# Poissons Ratio (x) = 0.31339 -0.17057
# Poissons Ratio (y) = 0.32304 0.52998
# Poissons Ratio (z) = -0.20079 0.60521
#
# Static dielectric constant tensor:
#      x y z
#    x 1.987520 0.000000 0.079790 
#    y 0.000000 1.895740 0.000000 
#    z 0.079790 0.000000 1.832010 
# 
# From -- ./inp_files/46060.got.cif
#   From: 2010.05.17/outbox.cif.g08.bks.cpg/sg15_24_cif.got.tgz:46060.got - 2010.06.03 18:47:42.
