data_PCOD9298625
_publ_section_title
;
Structure prediction by ZEFSAII (Michael W. Deem and Ramdas Pophale) SiO2 
 PCOD9298625
Probable space group: C 2/C
;
_chemical_formula_sum "Si O2"
_cell_formula_units_Z 60
_cell_length_a 11.690617
_cell_length_b 9.166556
_cell_length_c 29.389521
_cell_angle_alpha 90.000000
_cell_angle_beta 74.709175
_cell_angle_gamma 90.000000
_cell_volume 3037.968326
_symmetry_space_group_name_H-M "C 2/C"
_symmetry_group_IT_number 15
_symmetry_cell_setting 'monoclinic'
loop_
_space_group_symop_operation_xyz
x,y,z
-x,y,1/2-z
-x,-y,-z
x,-y,1/2+z
1/2+x,1/2+y,z
1/2-x,1/2+y,1/2-z
1/2-x,1/2-y,-z
1/2+x,1/2-y,1/2+z
loop_
_atom_site_type_symbol
_atom_site_label
_atom_site_fract_x
_atom_site_fract_y
_atom_site_fract_z
Si Si1 0.453324 0.076256 0.078126
Si Si2 0.155977 0.617638 0.987785
Si Si3 0.296684 0.347882 0.113970
Si Si4 0.362384 0.454715 0.522351
Si Si5 0.671605 0.627623 0.787722
Si Si6 0.887821 0.196136 0.231166
Si Si7 0.470318 0.070377 0.836293
Si Si8 0.500000 0.845288 0.750000
O O1 0.350355 0.195823 0.091721
O O2 0.410133 0.957522 0.046800
O O3 0.481440 0.014372 0.124767
O O4 0.573459 0.132207 0.041428
O O5 0.166374 0.783359 0.969921
O O6 0.271096 0.520816 0.989666
O O7 0.325052 0.463102 0.071790
O O8 0.361062 0.372132 0.155720
O O9 0.156851 0.360913 0.138063
O O10 0.500000 0.500000 0.500000
O O11 0.799065 0.701475 0.768136
O O12 0.671347 0.457937 0.774271
O O13 0.591325 0.732734 0.764562
O O14 0.000000 0.157928 0.250000
O O15 0.939082 0.299407 0.186092
O O16 0.460546 0.955202 0.795078
#
# Coordination Sequence:
#
# PCOD9298625 Si02
#       8
#     8   8   8   8   8   8   8   4
#     4  11  24  43  68  99 132 178 235 281 347 421
#     4  10  24  45  66  96 136 177 228 290 350 408
#     4  12  24  42  68  99 135 181 232 280 346 423
#     4  11  23  43  66  96 135 180 224 287 350 412
#     4  12  26  46  72 103 139 185 236 287 351 422
#     4  12  25  46  69 100 139 185 232 286 351 415
#     4  12  24  45  68 102 141 185 229 292 351 415
#     4  12  24  48  76  98 150 186 224 298 356 410
#
# _framework density 19.750042000000001
#
# number of rings (size 3 to 8) (size 9 to 14) (size 15 to 20)
#    0.000    0.533    6.667    1.600    1.867    1.600 
#    0.000    0.000    0.000    0.000    0.000    0.000 
#    0.000    0.000    0.000    0.000    0.000    0.000 
#
# Total GULP energy -167303.977089 kJ/mol
# GULP energy per Si atom -5576.799236 kJ/mol
# Density = 1.970509 g / cm^3
# Si number density = 19.750042 Si / 1000 Ang^3
#
#
#
# Elastic Constant Matrix: (Units=GPa)
#
#
# Indices 1 2 3 4 5 6 
#
# 1 76.2040 19.5280 26.8937 0.0000 -0.9529 0.0000
# 2 19.5280 113.1493 47.1752 0.0000 -1.3223 0.0000
# 3 26.8937 47.1752 100.3806 0.0000 6.8628 0.0000
# 4 0.0000 0.0000 0.0000 24.7111 0.0000 2.4847
# 5 -0.9529 -1.3223 6.8628 0.0000 30.6734 0.0000
# 6 0.0000 0.0000 0.0000 2.4847 0.0000 35.8088
#
#
#
# Elastic Compliance Matrix: (Units=1/GPa)
#
#
# Indices 1 2 3 4 5 6 
#
# 1 0.014646 -0.001049 -0.003513 0.000000 0.001196 0.000000
# 2 -0.001049 0.011150 -0.005067 0.000000 0.001582 0.000000
# 3 -0.003513 -0.005067 0.013514 0.000000 -0.003351 0.000000
# 4 0.000000 0.000000 0.000000 0.040752 0.000000 -0.002828
# 5 0.001196 0.001582 -0.003351 0.000000 0.033457 0.000000
# 6 0.000000 0.000000 0.000000 -0.002828 0.000000 0.028122
#
#
# Mechanical properties :
#
#
# Convention : Reuss Voigt Hill
#
# Bulk Modulus (GPa) = 49.87061 52.99197 51.43129
# Shear Modulus (GPa) = 29.83600 31.31446 30.57523
#
# Velocity S-wave (km/s) = 3.89096 3.98620 3.93887
# Velocity P-wave (km/s) = 6.74476 6.93368 6.83988
#
# Compressibility (1/GPa) = 0.02005189
#
# Stress axis : x y z
#
# Youngs Moduli (GPa) = 68.27727 89.68522 73.99914
#
# Poissons Ratio (x) = 0.09410 0.25993
# Poissons Ratio (y) = 0.07164 0.37497
# Poissons Ratio (z) = 0.23983 0.45445
#
# Static dielectric constant tensor:
#      x y z
#    x 1.780450 0.000000 -0.005820 
#    y 0.000000 1.702200 0.000000 
#    z -0.005820 0.000000 1.694080 
# 
# From -- ./inp_files/310275.got.cif
#   From: 2010.05.17/outbox.cif.g08.bks.cpg/sg15_156_cif.got.tgz:310275.got - 2010.06.03 18:47:42.
