data_PCOD9298393
_publ_section_title
;
Structure prediction by ZEFSAII (Michael W. Deem and Ramdas Pophale) SiO2 
 PCOD9298393
Probable space group: C 2/C
;
_chemical_formula_sum "Si O2"
_cell_formula_units_Z 56
_cell_length_a 10.879852
_cell_length_b 20.374964
_cell_length_c 11.995938
_cell_angle_alpha 90.000000
_cell_angle_beta 71.587454
_cell_angle_gamma 90.000000
_cell_volume 2523.084941
_symmetry_space_group_name_H-M "C 2/C"
_symmetry_group_IT_number 15
_symmetry_cell_setting 'monoclinic'
loop_
_space_group_symop_operation_xyz
x,y,z
-x,y,1/2-z
-x,-y,-z
x,-y,1/2+z
1/2+x,1/2+y,z
1/2-x,1/2+y,1/2-z
1/2-x,1/2-y,-z
1/2+x,1/2-y,1/2+z
loop_
_atom_site_type_symbol
_atom_site_label
_atom_site_fract_x
_atom_site_fract_y
_atom_site_fract_z
Si Si1 0.103778 0.789822 0.532959
Si Si2 0.354625 0.981483 0.501496
Si Si3 0.639908 0.313920 0.266441
Si Si4 0.190541 0.376625 0.453134
Si Si5 0.436357 0.850786 0.388967
Si Si6 0.700788 0.307347 0.870994
Si Si7 0.647307 0.405260 0.699407
O O1 0.130351 0.816598 0.401659
O O2 0.135965 0.843394 0.617670
O O3 0.142384 0.714469 0.552828
O O4 0.946394 0.783510 0.580997
O O5 0.364650 0.921448 0.411124
O O6 0.257284 0.953422 0.622709
O O7 0.500000 0.000000 0.500000
O O8 0.300470 0.053203 0.489403
O O9 0.500000 0.312815 0.250000
O O10 0.721756 0.370936 0.182698
O O11 0.713788 0.246655 0.215471
O O12 0.046357 0.361341 0.451717
O O13 0.240666 0.323377 0.525827
O O14 0.500000 0.839149 0.250000
O O15 0.693477 0.373570 0.801077
O O16 0.500000 0.432536 0.750000
#
# Coordination Sequence:
#
# PCOD9298393 Si02
#       7
#     8   8   8   8   8   8   8
#     4  11  23  41  68 105 132 168 224 282 351 398
#     4  10  25  46  66  98 136 182 231 272 336 413
#     4  12  23  38  68  99 133 178 221 284 346 397
#     4  11  24  42  63  93 137 177 225 272 331 411
#     4  11  23  42  69 101 138 173 220 288 346 408
#     4  11  22  43  65  97 137 170 220 283 338 409
#     4  10  24  44  69 100 137 177 222 285 346 401
#
# _framework density 22.195050999999999
#
# number of rings (size 3 to 8) (size 9 to 14) (size 15 to 20)
#    0.000    1.143    2.857    3.429    2.000    5.143 
#    0.000    1.429    0.000    0.000    0.000    0.000 
#    0.000    0.000    0.000    0.000    0.000    0.000 
#
# Total GULP energy -156535.982678 kJ/mol
# GULP energy per Si atom -5590.570810 kJ/mol
# Density = 2.214453 g / cm^3
# Si number density = 22.195051 Si / 1000 Ang^3
#
#
#
# Elastic Constant Matrix: (Units=GPa)
#
#
# Indices 1 2 3 4 5 6 
#
# 1 87.7036 21.8696 13.2041 0.0000 4.0128 0.0000
# 2 21.8696 123.4169 28.9661 0.0000 -1.3216 0.0000
# 3 13.2041 28.9661 102.5891 0.0000 4.4856 0.0000
# 4 0.0000 0.0000 0.0000 35.3909 0.0000 -9.3526
# 5 4.0128 -1.3216 4.4856 0.0000 42.2190 0.0000
# 6 0.0000 0.0000 0.0000 -9.3526 0.0000 25.1001
#
#
#
# Elastic Compliance Matrix: (Units=1/GPa)
#
#
# Indices 1 2 3 4 5 6 
#
# 1 0.012078 -0.001926 -0.000962 0.000000 -0.001106 0.000000
# 2 -0.001926 0.008997 -0.002323 0.000000 0.000712 0.000000
# 3 -0.000962 -0.002323 0.010576 0.000000 -0.001105 0.000000
# 4 0.000000 0.000000 0.000000 0.031342 0.000000 0.011678
# 5 -0.001106 0.000712 -0.001105 0.000000 0.023931 0.000000
# 6 0.000000 0.000000 0.000000 0.011678 0.000000 0.044192
#
#
# Mechanical properties :
#
#
# Convention : Reuss Voigt Hill
#
# Bulk Modulus (GPa) = 47.11066 49.08768 48.09917
# Shear Modulus (GPa) = 33.64402 37.18666 35.41534
#
# Velocity S-wave (km/s) = 3.89760 4.09766 3.99888
# Velocity P-wave (km/s) = 6.44413 6.67475 6.56046
#
# Compressibility (1/GPa) = 0.02122662
#
# Stress axis : x y z
#
# Youngs Moduli (GPa) = 82.79625 111.14958 94.55528
#
# Poissons Ratio (x) = 0.21410 0.09099
# Poissons Ratio (y) = 0.15948 0.21970
# Poissons Ratio (z) = 0.07967 0.25825
#
# Static dielectric constant tensor:
#      x y z
#    x 1.879350 0.000000 -0.053450 
#    y 0.000000 1.898920 0.000000 
#    z -0.053450 0.000000 1.808550 
# 
# From -- ./inp_files/89549.got.cif
#   From: 2010.05.17/outbox.cif.g08.bks.cpg/sg15_45_cif.got.tgz:89549.got - 2010.06.03 18:47:42.
