data_PCOD9298498
_publ_section_title
;
Structure prediction by ZEFSAII (Michael W. Deem and Ramdas Pophale) SiO2 
 PCOD9298498
Probable space group: C 2/C
;
_chemical_formula_sum "Si O2"
_cell_formula_units_Z 28
_cell_length_a 11.913794
_cell_length_b 14.753644
_cell_length_c 7.908004
_cell_angle_alpha 90.000000
_cell_angle_beta 130.303767
_cell_angle_gamma 90.000000
_cell_volume 1060.053447
_symmetry_space_group_name_H-M "C 2/C"
_symmetry_group_IT_number 15
_symmetry_cell_setting 'monoclinic'
loop_
_space_group_symop_operation_xyz
x,y,z
-x,y,1/2-z
-x,-y,-z
x,-y,1/2+z
1/2+x,1/2+y,z
1/2-x,1/2+y,1/2-z
1/2-x,1/2-y,-z
1/2+x,1/2-y,1/2+z
loop_
_atom_site_type_symbol
_atom_site_label
_atom_site_fract_x
_atom_site_fract_y
_atom_site_fract_z
Si Si1 0.165876 0.752153 0.594333
Si Si2 0.776104 0.056753 0.304843
Si Si3 0.660933 0.628898 0.486331
Si Si4 0.000000 0.389735 0.750000
O O1 0.250000 0.750000 0.500000
O O2 0.120937 0.857267 0.548159
O O3 0.044898 0.676369 0.447800
O O4 0.265515 0.712808 0.843360
O O5 0.747467 0.088027 0.084130
O O6 0.634838 0.059554 0.291617
O O7 0.843433 0.957505 0.390919
O O8 0.500000 0.651171 0.250000
#
# Coordination Sequence:
#
# PCOD9298498 Si02
#       4
#     8   8   8   4
#     4  10  24  45  71 106 144 196 234 302 368 423
#     4  11  25  44  72 107 144 194 237 304 366 421
#     4  12  27  46  76 109 146 192 248 298 364 443
#     4  10  24  44  72 102 152 184 250 294 368 436
#
# _framework density 26.413761999999998
#
# number of rings (size 3 to 8) (size 9 to 14) (size 15 to 20)
#    0.000    1.143    0.000    5.143   10.000    5.714 
#    0.000    0.000    0.000    0.000    0.000    0.000 
#    0.000    0.000    0.000    0.000    0.000    0.000 
#
# Total GULP energy -78100.464756 kJ/mol
# GULP energy per Si atom -5578.604625 kJ/mol
# Density = 2.635364 g / cm^3
# Si number density = 26.413762 Si / 1000 Ang^3
#
#
#
# Elastic Constant Matrix: (Units=GPa)
#
#
# Indices 1 2 3 4 5 6 
#
# 1 129.5466 9.4536 28.2138 0.0000 -9.5587 0.0000
# 2 9.4536 137.1824 64.6501 0.0000 9.7239 0.0000
# 3 28.2138 64.6501 149.3697 0.0000 -0.6220 0.0000
# 4 0.0000 0.0000 0.0000 66.8632 0.0000 -8.2422
# 5 -9.5587 9.7239 -0.6220 0.0000 46.6220 0.0000
# 6 0.0000 0.0000 0.0000 -8.2422 0.0000 38.0516
#
#
#
# Elastic Compliance Matrix: (Units=1/GPa)
#
#
# Indices 1 2 3 4 5 6 
#
# 1 0.008177 0.000056 -0.001562 0.000000 0.001644 0.000000
# 2 0.000056 0.009341 -0.004062 0.000000 -0.001991 0.000000
# 3 -0.001562 -0.004062 0.008751 0.000000 0.000644 0.000000
# 4 0.000000 0.000000 0.000000 0.015366 0.000000 0.003328
# 5 0.001644 -0.001991 0.000644 0.000000 0.022210 0.000000
# 6 0.000000 0.000000 0.000000 0.003328 0.000000 0.027001
#
#
# Mechanical properties :
#
#
# Convention : Reuss Voigt Hill
#
# Bulk Modulus (GPa) = 66.08134 68.97042 67.52588
# Shear Modulus (GPa) = 46.71802 51.22610 48.97206
#
# Velocity S-wave (km/s) = 4.21015 4.40861 4.31052
# Velocity P-wave (km/s) = 6.97896 7.21683 7.09889
#
# Compressibility (1/GPa) = 0.01513286
#
# Stress axis : x y z
#
# Youngs Moduli (GPa) = 122.30035 107.05416 114.27850
#
# Poissons Ratio (x) = -0.00600 0.17849
# Poissons Ratio (y) = -0.00686 0.46418
# Poissons Ratio (z) = 0.19102 0.43484
#
# Static dielectric constant tensor:
#      x y z
#    x 2.166280 0.000000 -0.001190 
#    y 0.000000 2.095110 0.000000 
#    z -0.001190 0.000000 2.628760 
# 
# From -- ./inp_files/38126.got.cif
#   From: 2010.05.17/outbox.cif.g08.bks.cpg/sg15_20_cif.got.tgz:38126.got - 2010.06.03 18:47:42.
