data_PCOD9298800
_publ_section_title
;
Structure prediction by ZEFSAII (Michael W. Deem and Ramdas Pophale) SiO2 
 PCOD9298800
Probable space group: C 2/C
;
_chemical_formula_sum "Si O2"
_cell_formula_units_Z 48
_cell_length_a 28.056204
_cell_length_b 10.441292
_cell_length_c 21.991440
_cell_angle_alpha 90.000000
_cell_angle_beta 18.148094
_cell_angle_gamma 90.000000
_cell_volume 2006.591062
_symmetry_space_group_name_H-M "C 2/C"
_symmetry_group_IT_number 15
_symmetry_cell_setting 'monoclinic'
loop_
_space_group_symop_operation_xyz
x,y,z
-x,y,1/2-z
-x,-y,-z
x,-y,1/2+z
1/2+x,1/2+y,z
1/2-x,1/2+y,1/2-z
1/2-x,1/2-y,-z
1/2+x,1/2-y,1/2+z
loop_
_atom_site_type_symbol
_atom_site_label
_atom_site_fract_x
_atom_site_fract_y
_atom_site_fract_z
Si Si1 0.449179 0.898073 0.877287
Si Si2 0.835444 0.477819 0.227044
Si Si3 0.087890 0.917198 0.705146
Si Si4 0.042384 0.042537 0.515856
Si Si5 0.092926 0.363041 0.242897
Si Si6 0.143036 0.260188 0.731424
O O1 0.500000 0.940664 0.750000
O O2 0.578749 0.798232 0.743296
O O3 0.463355 0.027204 0.899582
O O4 0.285476 0.832052 0.071251
O O5 0.706214 0.482192 0.333001
O O6 0.841705 0.361406 0.267430
O O7 0.804720 0.605580 0.303707
O O8 0.000000 0.500000 0.000000
O O9 0.039720 0.772649 0.782212
O O10 0.265147 0.908226 0.471223
O O11 0.000000 0.958901 0.750000
O O12 0.053727 0.998604 0.807118
O O13 0.000000 0.000000 0.500000
O O14 0.008749 0.195047 0.555636
#
# Coordination Sequence:
#
# PCOD9298800 Si02
#       6
#     8   8   8   8   8   8
#     4  11  22  42  71 106 142 186 236 300 366 435
#     4  11  26  50  72 102 150 195 245 307 372 438
#     4  11  23  48  76 106 152 190 252 309 372 445
#     4  12  28  46  73 110 144 194 247 304 370 446
#     4  10  24  45  75 111 141 195 247 305 369 441
#     4  11  25  46  68 103 144 186 247 295 366 442
#
# _framework density 23.921168000000002
#
# number of rings (size 3 to 8) (size 9 to 14) (size 15 to 20)
#    0.000    1.000    3.333    2.000    7.000    3.333 
#    0.000    0.000    0.000    0.000    0.000    0.000 
#    0.000    0.000    0.000    0.000    0.000    0.000 
#
# Total GULP energy -134054.505788 kJ/mol
# GULP energy per Si atom -5585.604408 kJ/mol
# Density = 2.386672 g / cm^3
# Si number density = 23.921168 Si / 1000 Ang^3
#
#
#
# Elastic Constant Matrix: (Units=GPa)
#
#
# Indices 1 2 3 4 5 6 
#
# 1 191.9546 21.2252 36.7416 -0.0003 -16.6224 0.0003
# 2 21.2252 51.0369 -5.0248 -0.0004 -7.2099 0.0004
# 3 36.7416 -5.0248 76.9544 -0.0009 -11.1784 0.0011
# 4 -0.0003 -0.0004 -0.0009 29.9035 0.0004 -11.3787
# 5 -16.6224 -7.2099 -11.1784 0.0004 40.2072 -0.0004
# 6 0.0003 0.0004 0.0011 -11.3787 -0.0004 17.5420
#
#
#
# Elastic Compliance Matrix: (Units=1/GPa)
#
#
# Indices 1 2 3 4 5 6 
#
# 1 0.006178 -0.002682 -0.002942 0.000000 0.001255 0.000000
# 2 -0.002682 0.021541 0.003217 0.000000 0.003648 -0.000001
# 3 -0.002942 0.003217 0.015128 0.000000 0.003566 -0.000001
# 4 0.000000 0.000000 0.000000 0.044400 0.000000 0.028800
# 5 0.001255 0.003648 0.003566 0.000000 0.027036 0.000000
# 6 0.000000 -0.000001 -0.000001 0.028800 0.000000 0.075687
#
#
# Mechanical properties :
#
#
# Convention : Reuss Voigt Hill
#
# Bulk Modulus (GPa) = 26.29357 47.31444 36.80400
# Shear Modulus (GPa) = 24.10087 35.33080 29.71583
#
# Velocity S-wave (km/s) = 3.17758 3.84730 3.52837
# Velocity P-wave (km/s) = 4.94755 6.28951 5.65845
#
# Compressibility (1/GPa) = 0.03803212
#
# Stress axis : x y z
#
# Youngs Moduli (GPa) = 161.86510 46.42305 66.10420
#
# Poissons Ratio (x) = 0.12449 0.19451
# Poissons Ratio (y) = 0.43407 -0.21265
# Poissons Ratio (z) = 0.47628 -0.14934
#
# Static dielectric constant tensor:
#      x y z
#    x 1.965400 0.000000 -0.009290 
#    y 0.000000 1.979260 0.000000 
#    z -0.009290 0.000000 1.941690 
# 
# From -- ./inp_files/257570.got.cif
#   From: 2010.05.17/outbox.cif.g08.bks.cpg/sg15_129_cif.got.tgz:257570.got - 2010.06.03 18:47:42.
