data_PCOD9298908
_publ_section_title
;
Structure prediction by ZEFSAII (Michael W. Deem and Ramdas Pophale) SiO2 
 PCOD9298908
Probable space group: C 2/C
;
_chemical_formula_sum "Si O2"
_cell_formula_units_Z 52
_cell_length_a 13.387655
_cell_length_b 9.567161
_cell_length_c 20.497798
_cell_angle_alpha 90.000000
_cell_angle_beta 96.308779
_cell_angle_gamma 90.000000
_cell_volume 2609.496849
_symmetry_space_group_name_H-M "C 2/C"
_symmetry_group_IT_number 15
_symmetry_cell_setting 'monoclinic'
loop_
_space_group_symop_operation_xyz
x,y,z
-x,y,1/2-z
-x,-y,-z
x,-y,1/2+z
1/2+x,1/2+y,z
1/2-x,1/2+y,1/2-z
1/2-x,1/2-y,-z
1/2+x,1/2-y,1/2+z
loop_
_atom_site_type_symbol
_atom_site_label
_atom_site_fract_x
_atom_site_fract_y
_atom_site_fract_z
Si Si1 0.005373 0.146962 0.536150
Si Si2 0.500000 0.802685 0.750000
Si Si3 0.891227 0.322288 0.049398
Si Si4 0.706494 0.281797 0.425648
Si Si5 0.845077 0.182094 0.838216
Si Si6 0.739822 0.910075 0.584262
Si Si7 0.165366 0.522236 0.340547
O O1 0.011671 0.267234 0.481331
O O2 0.103338 0.138908 0.589248
O O3 0.911618 0.186779 0.573702
O O4 0.000000 0.000000 0.500000
O O5 0.431697 0.704403 0.791558
O O6 0.418883 0.903757 0.709220
O O7 0.838202 0.180761 0.072335
O O8 0.891797 0.430424 0.108273
O O9 0.826546 0.389332 0.985904
O O10 0.750000 0.250000 0.500000
O O11 0.748872 0.427298 0.402944
O O12 0.721608 0.149484 0.380917
O O13 0.803353 0.334330 0.855185
O O14 0.751913 0.078736 0.816768
#
# Coordination Sequence:
#
# PCOD9298908 Si02
#       7
#     8   4   8   8   8   8   8
#     4  11  20  36  65 100 134 168 213 275 344 406
#     4  12  26  48  68  94 136 186 236 272 338 404
#     4   9  18  36  60  92 131 168 204 261 342 394
#     4  12  21  34  62 103 136 167 219 274 336 409
#     4  10  24  46  69  90 131 182 220 278 343 395
#     4   9  18  35  63  93 131 166 199 271 343 383
#     4  11  24  43  68  95 131 176 228 277 332 412
#
# _framework density 19.927212999999998
#
# number of rings (size 3 to 8) (size 9 to 14) (size 15 to 20)
#    0.000    1.538    4.615    1.846    0.000    3.077 
#    0.000    1.538    0.000    1.846    0.000    0.000 
#    0.000    0.000    0.000    0.000    0.000    0.000 
#
# Total GULP energy -145024.859064 kJ/mol
# GULP energy per Si atom -5577.879195 kJ/mol
# Density = 1.988186 g / cm^3
# Si number density = 19.927213 Si / 1000 Ang^3
#
#
#
# Elastic Constant Matrix: (Units=GPa)
#
#
# Indices 1 2 3 4 5 6 
#
# 1 67.7714 32.3942 33.0657 0.0000 -10.0721 0.0000
# 2 32.3942 141.6191 43.1212 0.0000 -6.9303 0.0000
# 3 33.0657 43.1212 70.7103 0.0000 -8.3032 0.0000
# 4 0.0000 0.0000 0.0000 17.6296 0.0000 7.6379
# 5 -10.0721 -6.9303 -8.3032 0.0000 42.4843 0.0000
# 6 0.0000 0.0000 0.0000 7.6379 0.0000 28.2080
#
#
#
# Elastic Compliance Matrix: (Units=1/GPa)
#
#
# Indices 1 2 3 4 5 6 
#
# 1 0.019941 -0.002068 -0.007726 0.000000 0.002880 0.000000
# 2 -0.002068 0.008892 -0.004445 0.000000 0.000092 0.000000
# 3 -0.007726 -0.004445 0.020639 0.000000 0.001477 0.000000
# 4 0.000000 0.000000 0.000000 0.064261 0.000000 -0.017400
# 5 0.002880 0.000092 0.001477 0.000000 0.024525 0.000000
# 6 0.000000 0.000000 0.000000 -0.017400 0.000000 0.040162
#
#
# Mechanical properties :
#
#
# Convention : Reuss Voigt Hill
#
# Bulk Modulus (GPa) = 47.62964 55.25146 51.44055
# Shear Modulus (GPa) = 23.37579 29.09903 26.23741
#
# Velocity S-wave (km/s) = 3.42871 3.82549 3.63252
# Velocity P-wave (km/s) = 6.29511 6.87745 6.59271
#
# Compressibility (1/GPa) = 0.02099533
#
# Stress axis : x y z
#
# Youngs Moduli (GPa) = 50.14673 112.45891 48.45212
#
# Poissons Ratio (x) = 0.23258 0.37432
# Poissons Ratio (y) = 0.10371 0.21536
# Poissons Ratio (z) = 0.38742 0.49986
#
# Static dielectric constant tensor:
#      x y z
#    x 1.694860 0.000000 -0.003690 
#    y 0.000000 1.678440 0.000000 
#    z -0.003690 0.000000 1.706060 
# 
# From -- ./inp_files/242476.got.cif
#   From: 2010.05.17/outbox.cif.g08.bks.cpg/sg15_122_cif.got.tgz:242476.got - 2010.06.03 18:47:42.
