data_PCOD9298649
_publ_section_title
;
Structure prediction by ZEFSAII (Michael W. Deem and Ramdas Pophale) SiO2 
 PCOD9298649
Probable space group: C 2/C
;
_chemical_formula_sum "Si O2"
_cell_formula_units_Z 64
_cell_length_a 9.401106
_cell_length_b 24.736638
_cell_length_c 18.428910
_cell_angle_alpha 90.000000
_cell_angle_beta 41.705148
_cell_angle_gamma 90.000000
_cell_volume 2851.248847
_symmetry_space_group_name_H-M "C 2/C"
_symmetry_group_IT_number 15
_symmetry_cell_setting 'monoclinic'
loop_
_space_group_symop_operation_xyz
x,y,z
-x,y,1/2-z
-x,-y,-z
x,-y,1/2+z
1/2+x,1/2+y,z
1/2-x,1/2+y,1/2-z
1/2-x,1/2-y,-z
1/2+x,1/2-y,1/2+z
loop_
_atom_site_type_symbol
_atom_site_label
_atom_site_fract_x
_atom_site_fract_y
_atom_site_fract_z
Si Si1 0.094453 0.348695 0.068112
Si Si2 0.717914 0.937558 0.126157
Si Si3 0.278155 0.601706 0.877232
Si Si4 0.848042 0.261251 0.238923
Si Si5 0.176591 0.965136 0.009680
Si Si6 0.382793 0.304865 0.452320
Si Si7 0.025592 0.142211 0.321606
Si Si8 0.769324 0.376259 0.862247
O O1 0.917289 0.388217 0.101756
O O2 0.972813 0.292723 0.128428
O O3 0.179578 0.377560 0.109053
O O4 0.291590 0.341980 0.939157
O O5 0.500000 0.953153 0.250000
O O6 0.774704 0.975098 0.035697
O O7 0.926816 0.946750 0.096718
O O8 0.500000 0.599187 0.750000
O O9 0.294747 0.651828 0.927577
O O10 0.250789 0.549330 0.937852
O O11 0.623942 0.289782 0.339399
O O12 0.000000 0.266847 0.250000
O O13 0.833209 0.197110 0.232992
O O14 0.294027 0.927082 0.906046
O O15 0.250000 0.250000 0.500000
O O16 0.353165 0.331663 0.542865
O O17 0.000000 0.120454 0.250000
O O18 0.136352 0.107042 0.341682
O O19 0.000000 0.356187 0.750000
#
# Coordination Sequence:
#
# PCOD9298649 Si02
#       8
#     8   8   8   8   8   8   8   8
#     4  12  24  42  68  95 135 175 222 277 334 393
#     4  11  23  44  75  98 127 171 223 276 335 406
#     4  11  24  42  66  99 136 172 218 277 337 400
#     4  11  24  40  66  94 133 179 230 275 327 394
#     4  10  24  45  68 102 130 167 223 272 337 407
#     4  11  25  40  64  98 133 180 230 275 328 397
#     4  11  26  42  61  97 137 180 222 278 332 391
#     4  11  23  42  68  93 133 176 220 276 330 401
#
# _framework density 22.446303
#
# number of rings (size 3 to 8) (size 9 to 14) (size 15 to 20)
#    0.000    1.000    2.500    3.375   12.250    1.000 
#    0.000    0.625    0.000    0.000    0.000    0.000 
#    0.000    0.000    0.000    0.000    0.000    0.000 
#
# Total GULP energy -179050.392647 kJ/mol
# GULP energy per Si atom -5595.324770 kJ/mol
# Density = 2.239521 g / cm^3
# Si number density = 22.446303 Si / 1000 Ang^3
#
#
#
# Elastic Constant Matrix: (Units=GPa)
#
#
# Indices 1 2 3 4 5 6 
#
# 1 66.7502 -9.4792 22.0393 0.0000 1.3212 0.0000
# 2 -9.4792 43.1341 -6.6006 0.0000 4.9593 0.0000
# 3 22.0393 -6.6006 122.8945 -0.0003 -7.9063 0.0003
# 4 0.0000 0.0000 -0.0003 21.3229 0.0000 2.0876
# 5 1.3212 4.9593 -7.9063 0.0000 38.1405 -0.0001
# 6 0.0000 0.0000 0.0003 2.0876 -0.0001 22.5005
#
#
#
# Elastic Compliance Matrix: (Units=1/GPa)
#
#
# Indices 1 2 3 4 5 6 
#
# 1 0.016437 0.003357 -0.002870 0.000000 -0.001601 0.000000
# 2 0.003357 0.024364 0.000502 0.000000 -0.003180 0.000000
# 3 -0.002870 0.000502 0.008798 0.000000 0.001858 0.000000
# 4 0.000000 0.000000 0.000000 0.047328 0.000000 -0.004391
# 5 -0.001601 -0.003180 0.001858 0.000000 0.027073 0.000000
# 6 0.000000 0.000000 0.000000 -0.004391 0.000000 0.044851
#
#
# Mechanical properties :
#
#
# Convention : Reuss Voigt Hill
#
# Bulk Modulus (GPa) = 19.38865 27.18864 23.28864
# Shear Modulus (GPa) = 27.16413 31.51406 29.33910
#
# Velocity S-wave (km/s) = 3.48254 3.75103 3.61928
# Velocity P-wave (km/s) = 4.98270 5.55872 5.27857
#
# Compressibility (1/GPa) = 0.05157657
#
# Stress axis : x y z
#
# Youngs Moduli (GPa) = 60.83674 41.04465 113.65790
#
# Poissons Ratio (x) = -0.13779 0.32625
# Poissons Ratio (y) = -0.20424 -0.05705
# Poissons Ratio (z) = 0.17463 -0.02060
#
# Static dielectric constant tensor:
#      x y z
#    x 1.828860 0.000000 0.011700 
#    y 0.000000 1.882570 0.000000 
#    z 0.011700 0.000000 1.810800 
# 
# From -- ./inp_files/194226.got.cif
#   From: 2010.05.17/outbox.cif.g08.bks.cpg/sg15_98_cif.got.tgz:194226.got - 2010.06.03 18:47:42.
