data_PCOD9298222
_publ_section_title
;
Structure prediction by ZEFSAII (Michael W. Deem and Ramdas Pophale) SiO2 
 PCOD9298222
Probable space group: C 2/C
;
_chemical_formula_sum "Si O2"
_cell_formula_units_Z 36
_cell_length_a 14.780325
_cell_length_b 19.075117
_cell_length_c 8.886617
_cell_angle_alpha 90.000000
_cell_angle_beta 41.712578
_cell_angle_gamma 90.000000
_cell_volume 1667.119373
_symmetry_space_group_name_H-M "C 2/C"
_symmetry_group_IT_number 15
_symmetry_cell_setting 'monoclinic'
loop_
_space_group_symop_operation_xyz
x,y,z
-x,y,1/2-z
-x,-y,-z
x,-y,1/2+z
1/2+x,1/2+y,z
1/2-x,1/2+y,1/2-z
1/2-x,1/2-y,-z
1/2+x,1/2-y,1/2+z
loop_
_atom_site_type_symbol
_atom_site_label
_atom_site_fract_x
_atom_site_fract_y
_atom_site_fract_z
Si Si1 0.703663 0.127125 0.421815
Si Si2 0.645647 0.631812 0.557646
Si Si3 0.592869 0.143790 0.860036
Si Si4 0.000000 0.738392 0.250000
Si Si5 0.843462 0.532505 0.493293
O O1 0.691034 0.163886 0.599823
O O2 0.556515 0.135029 0.525518
O O3 0.721721 0.043744 0.421725
O O4 0.814441 0.149898 0.162991
O O5 0.500000 0.593366 0.750000
O O6 0.610725 0.706449 0.678636
O O7 0.761732 0.585248 0.486869
O O8 0.648533 0.070232 0.855195
O O9 0.568199 0.192440 0.035488
O O10 0.000000 0.525572 0.250000
#
# Coordination Sequence:
#
# PCOD9298222 Si02
#       5
#     8   8   8   4   8
#     4  11  22  38  67 103 121 155 222 274 316 353
#     4  10  25  44  60  93 136 175 200 250 329 392
#     4  11  21  36  67  98 123 161 215 277 296 367
#     4  10  24  44  58  88 136 184 202 238 328 394
#     4  12  20  40  71  97 123 161 216 271 319 364
#
# _framework density 21.594135000000001
#
# number of rings (size 3 to 8) (size 9 to 14) (size 15 to 20)
#    0.667    0.444    5.556    2.000    0.000    5.333 
#    0.000    3.333    0.000    0.000    0.000    0.000 
#    0.000    0.000    0.000    0.000    0.000    0.000 
#
# Total GULP energy -100434.993718 kJ/mol
# GULP energy per Si atom -5579.721873 kJ/mol
# Density = 2.154499 g / cm^3
# Si number density = 21.594135 Si / 1000 Ang^3
#
#
#
# Elastic Constant Matrix: (Units=GPa)
#
#
# Indices 1 2 3 4 5 6 
#
# 1 42.0402 11.5440 27.9217 0.0000 9.6489 0.0000
# 2 11.5440 86.3275 14.1531 0.0000 1.2384 0.0000
# 3 27.9217 14.1531 143.2578 0.0000 12.8658 0.0000
# 4 0.0000 0.0000 0.0000 17.4734 0.0000 1.1970
# 5 9.6489 1.2384 12.8658 0.0000 27.7836 0.0000
# 6 0.0000 0.0000 0.0000 1.1970 0.0000 20.1173
#
#
#
# Elastic Compliance Matrix: (Units=1/GPa)
#
#
# Indices 1 2 3 4 5 6 
#
# 1 0.029610 -0.003066 -0.004755 0.000000 -0.007945 0.000000
# 2 -0.003066 0.012092 -0.000672 0.000000 0.000837 0.000000
# 3 -0.004755 -0.000672 0.008162 0.000000 -0.002098 0.000000
# 4 0.000000 0.000000 0.000000 0.057464 0.000000 -0.003419
# 5 -0.007945 0.000837 -0.002098 0.000000 0.039686 0.000000
# 6 0.000000 0.000000 0.000000 -0.003419 0.000000 0.049912
#
#
# Mechanical properties :
#
#
# Convention : Reuss Voigt Hill
#
# Bulk Modulus (GPa) = 30.41545 42.09590 36.25567
# Shear Modulus (GPa) = 22.23495 27.60866 24.92180
#
# Velocity S-wave (km/s) = 3.21234 3.57953 3.40089
# Velocity P-wave (km/s) = 5.27962 6.05149 5.67868
#
# Compressibility (1/GPa) = 0.03287803
#
# Stress axis : x y z
#
# Youngs Moduli (GPa) = 33.77231 82.69934 122.51886
#
# Poissons Ratio (x) = 0.25356 0.58254
# Poissons Ratio (y) = 0.10355 0.08236
# Poissons Ratio (z) = 0.16058 0.05559
#
# Static dielectric constant tensor:
#      x y z
#    x 1.823590 0.000000 0.027530 
#    y 0.000000 1.799360 0.000000 
#    z 0.027530 0.000000 1.822260 
# 
# From -- ./inp_files/41167.got.cif
#   From: 2010.05.17/outbox.cif.g08.bks.cpg/sg15_21_cif.got.tgz:41167.got - 2010.06.03 18:47:42.
