data_PCOD9298359
_publ_section_title
;
Structure prediction by ZEFSAII (Michael W. Deem and Ramdas Pophale) SiO2 
 PCOD9298359
Probable space group: C 2/C
;
_chemical_formula_sum "Si O2"
_cell_formula_units_Z 36
_cell_length_a 5.019253
_cell_length_b 18.266233
_cell_length_c 17.218335
_cell_angle_alpha 90.000000
_cell_angle_beta 95.447739
_cell_angle_gamma 90.000000
_cell_volume 1571.495610
_symmetry_space_group_name_H-M "C 2/C"
_symmetry_group_IT_number 15
_symmetry_cell_setting 'monoclinic'
loop_
_space_group_symop_operation_xyz
x,y,z
-x,y,1/2-z
-x,-y,-z
x,-y,1/2+z
1/2+x,1/2+y,z
1/2-x,1/2+y,1/2-z
1/2-x,1/2-y,-z
1/2+x,1/2-y,1/2+z
loop_
_atom_site_type_symbol
_atom_site_label
_atom_site_fract_x
_atom_site_fract_y
_atom_site_fract_z
Si Si1 0.500000 0.256790 0.750000
Si Si2 0.589793 0.642115 0.379875
Si Si3 0.769057 0.008254 0.557588
Si Si4 0.431010 0.780513 0.573400
Si Si5 0.358144 0.647172 0.666809
O O1 0.327275 0.315220 0.696265
O O2 0.630447 0.201462 0.692759
O O3 0.660474 0.557442 0.381325
O O4 0.282255 0.663926 0.389686
O O5 0.805577 0.676196 0.445746
O O6 0.500000 0.000000 0.500000
O O7 0.773951 0.082896 0.607041
O O8 0.000000 0.000000 0.500000
O O9 0.250000 0.750000 0.500000
O O10 0.521204 0.707510 0.622526
O O11 0.500000 0.620217 0.750000
#
# Coordination Sequence:
#
# PCOD9298359 Si02
#       5
#     4   8   8   8   8
#     4  10  24  44  68 106 132 182 234 292 346 404
#     4  11  23  42  66  95 135 173 225 274 337 407
#     4  12  28  47  69 104 144 188 230 286 358 424
#     4  11  22  41  69  98 131 177 224 279 337 407
#     4  11  24  44  70 102 142 178 239 292 351 415
#
# _framework density 22.908111999999999
#
# number of rings (size 3 to 8) (size 9 to 14) (size 15 to 20)
#    0.000    0.889    2.222    4.667    4.667    1.778 
#    0.000    0.000    0.000    0.000    0.000    0.000 
#    0.000    0.000    0.000    0.000    0.000    0.000 
#
# Total GULP energy -100373.345150 kJ/mol
# GULP energy per Si atom -5576.296953 kJ/mol
# Density = 2.285597 g / cm^3
# Si number density = 22.908112 Si / 1000 Ang^3
#
#
#
# Elastic Constant Matrix: (Units=GPa)
#
#
# Indices 1 2 3 4 5 6 
#
# 1 105.4966 33.2507 21.6445 0.0000 14.4286 0.0000
# 2 33.2507 185.7019 54.9887 0.0000 3.5089 0.0000
# 3 21.6445 54.9887 93.0279 0.0000 11.8162 0.0000
# 4 0.0000 0.0000 0.0000 55.6304 0.0000 1.7035
# 5 14.4286 3.5089 11.8162 0.0000 31.4703 0.0000
# 6 0.0000 0.0000 0.0000 1.7035 0.0000 23.6428
#
#
#
# Elastic Compliance Matrix: (Units=1/GPa)
#
#
# Indices 1 2 3 4 5 6 
#
# 1 0.010776 -0.001538 -0.001042 0.000000 -0.004378 0.000000
# 2 -0.001538 0.006764 -0.003816 0.000000 0.001384 0.000000
# 3 -0.001042 -0.003816 0.013791 0.000000 -0.004275 0.000000
# 4 0.000000 0.000000 0.000000 0.018016 0.000000 -0.001298
# 5 -0.004378 0.001384 -0.004275 0.000000 0.035234 0.000000
# 6 0.000000 0.000000 0.000000 -0.001298 0.000000 0.042390
#
#
# Mechanical properties :
#
#
# Convention : Reuss Voigt Hill
#
# Bulk Modulus (GPa) = 53.94215 67.11045 60.52630
# Shear Modulus (GPa) = 34.25996 40.43820 37.34908
#
# Velocity S-wave (km/s) = 3.87141 4.20603 4.04219
# Velocity P-wave (km/s) = 6.60167 7.27645 6.94726
#
# Compressibility (1/GPa) = 0.01853838
#
# Stress axis : x y z
#
# Youngs Moduli (GPa) = 92.79555 147.83482 72.51290
#
# Poissons Ratio (x) = 0.22742 0.07555
# Poissons Ratio (y) = 0.14275 0.27673
# Poissons Ratio (z) = 0.09669 0.56418
#
# Static dielectric constant tensor:
#      x y z
#    x 1.714900 0.000000 -0.310430 
#    y 0.000000 1.806710 0.000000 
#    z -0.310430 0.000000 1.554940 
# 
# From -- ./inp_files/184403.got.cif
#   From: 2010.05.17/outbox.cif.g08.bks.cpg/sg15_93_cif.got.tgz:184403.got - 2010.06.03 18:47:42.
