data_PCOD9298887
_publ_section_title
;
Structure prediction by ZEFSAII (Michael W. Deem and Ramdas Pophale) SiO2 
 PCOD9298887
Probable space group: C 2/C
;
_chemical_formula_sum "Si O2"
_cell_formula_units_Z 56
_cell_length_a 18.139007
_cell_length_b 22.358076
_cell_length_c 8.566291
_cell_angle_alpha 90.000000
_cell_angle_beta 129.548408
_cell_angle_gamma 90.000000
_cell_volume 2678.823402
_symmetry_space_group_name_H-M "C 2/C"
_symmetry_group_IT_number 15
_symmetry_cell_setting 'monoclinic'
loop_
_space_group_symop_operation_xyz
x,y,z
-x,y,1/2-z
-x,-y,-z
x,-y,1/2+z
1/2+x,1/2+y,z
1/2-x,1/2+y,1/2-z
1/2-x,1/2-y,-z
1/2+x,1/2-y,1/2+z
loop_
_atom_site_type_symbol
_atom_site_label
_atom_site_fract_x
_atom_site_fract_y
_atom_site_fract_z
Si Si1 0.500000 0.504349 0.750000
Si Si2 0.565737 0.585813 0.120625
Si Si3 0.292852 0.650550 0.390327
Si Si4 0.000000 0.496451 0.250000
Si Si5 0.105793 0.827558 0.147945
Si Si6 0.097487 0.583063 0.134435
Si Si7 0.993034 0.706704 0.930732
Si Si8 0.226191 0.727435 0.794969
O O1 0.453128 0.545074 0.556375
O O2 0.422475 0.460867 0.724889
O O3 0.649733 0.629672 0.185692
O O4 0.470552 0.624765 0.016659
O O5 0.359926 0.654494 0.632677
O O6 0.206262 0.604732 0.297379
O O7 0.259564 0.717523 0.305720
O O8 0.061147 0.539586 0.221148
O O9 0.071369 0.453804 0.443161
O O10 0.198603 0.821604 0.163107
O O11 0.050316 0.764161 0.071875
O O12 0.038674 0.644842 0.047949
O O13 0.000000 0.709525 0.750000
O O14 0.884289 0.709030 0.844807
O O15 0.250000 0.750000 0.000000
#
# Coordination Sequence:
#
# PCOD9298887 Si02
#       8
#     4   8   8   4   8   8   8   8
#     4  10  24  46  68  96 132 194 228 274 346 408
#     4  11  24  46  71  99 143 181 230 289 343 413
#     4  12  25  44  69 105 140 178 231 289 347 428
#     4  10  26  50  70  96 136 188 234 294 336 402
#     4  12  25  44  69 107 143 180 227 292 358 415
#     4  11  25  48  72  98 138 179 237 285 347 410
#     4  12  24  44  73 102 145 181 225 297 357 413
#     4  12  26  41  68 106 137 184 231 278 359 428
#
# _framework density 20.904699999999998
#
# number of rings (size 3 to 8) (size 9 to 14) (size 15 to 20)
#    0.000    0.571    6.429    0.429    5.000    1.143 
#    0.000    0.000    0.000    0.000    0.000    0.000 
#    0.000    0.000    0.000    0.000    0.000    0.000 
#
# Total GULP energy -156601.670180 kJ/mol
# GULP energy per Si atom -5592.916792 kJ/mol
# Density = 2.085712 g / cm^3
# Si number density = 20.904700 Si / 1000 Ang^3
#
#
#
# Elastic Constant Matrix: (Units=GPa)
#
#
# Indices 1 2 3 4 5 6 
#
# 1 109.2745 39.1055 22.2895 0.0000 24.5457 0.0000
# 2 39.1055 121.2712 44.0037 0.0000 6.0023 0.0000
# 3 22.2895 44.0037 51.7852 0.0000 13.8569 0.0000
# 4 0.0000 0.0000 0.0000 19.3381 0.0000 -8.2051
# 5 24.5457 6.0023 13.8569 0.0000 34.4973 0.0000
# 6 0.0000 0.0000 0.0000 -8.2051 0.0000 52.7948
#
#
#
# Elastic Compliance Matrix: (Units=1/GPa)
#
#
# Indices 1 2 3 4 5 6 
#
# 1 0.012238 -0.003495 -0.000146 0.000000 -0.008041 0.000000
# 2 -0.003495 0.013076 -0.010827 0.000000 0.004561 0.000000
# 3 -0.000146 -0.010827 0.031419 0.000000 -0.010633 0.000000
# 4 0.000000 0.000000 0.000000 0.055362 0.000000 0.008604
# 5 -0.008041 0.004561 -0.010633 0.000000 0.038187 0.000000
# 6 0.000000 0.000000 0.000000 0.008604 0.000000 0.020278
#
#
# Mechanical properties :
#
#
# Convention : Reuss Voigt Hill
#
# Bulk Modulus (GPa) = 35.97611 54.79200 45.38406
# Shear Modulus (GPa) = 23.95077 33.12154 28.53616
#
# Velocity S-wave (km/s) = 3.38851 3.98478 3.69868
# Velocity P-wave (km/s) = 5.70581 6.88757 6.32435
#
# Compressibility (1/GPa) = 0.02779622
#
# Stress axis : x y z
#
# Youngs Moduli (GPa) = 81.71205 76.47565 31.82833
#
# Poissons Ratio (x) = 0.26732 0.00464
# Poissons Ratio (y) = 0.28562 0.34461
# Poissons Ratio (z) = 0.01190 0.82801
#
# Static dielectric constant tensor:
#      x y z
#    x 1.777490 0.000000 -0.005580 
#    y 0.000000 1.726900 0.000000 
#    z -0.005580 0.000000 1.747390 
# 
# From -- ./inp_files/51618.got.cif
#   From: 2010.05.17/outbox.cif.g08.bks.cpg/sg15_26_cif.got.tgz:51618.got - 2010.06.03 18:47:42.
