data_PCOD9298982
_publ_section_title
;
Structure prediction by ZEFSAII (Michael W. Deem and Ramdas Pophale) SiO2 
 PCOD9298982
Probable space group: C 2/C
;
_chemical_formula_sum "Si O2"
_cell_formula_units_Z 36
_cell_length_a 9.802488
_cell_length_b 17.155068
_cell_length_c 18.590916
_cell_angle_alpha 90.000000
_cell_angle_beta 28.997515
_cell_angle_gamma 90.000000
_cell_volume 1515.537888
_symmetry_space_group_name_H-M "C 2/C"
_symmetry_group_IT_number 15
_symmetry_cell_setting 'monoclinic'
loop_
_space_group_symop_operation_xyz
x,y,z
-x,y,1/2-z
-x,-y,-z
x,-y,1/2+z
1/2+x,1/2+y,z
1/2-x,1/2+y,1/2-z
1/2-x,1/2-y,-z
1/2+x,1/2-y,1/2+z
loop_
_atom_site_type_symbol
_atom_site_label
_atom_site_fract_x
_atom_site_fract_y
_atom_site_fract_z
Si Si1 0.000000 0.672865 0.750000
Si Si2 0.443090 0.315198 0.860392
Si Si3 0.536494 0.573864 0.535018
Si Si4 0.724099 0.479015 0.583974
Si Si5 0.049049 0.710974 0.153119
O O1 0.851895 0.725213 0.883629
O O2 0.754859 0.621297 0.829330
O O3 0.500000 0.333020 0.750000
O O4 0.273768 0.393937 0.955982
O O5 0.745112 0.308684 0.759719
O O6 0.500000 0.500000 0.500000
O O7 0.638287 0.541054 0.563840
O O8 0.775364 0.635321 0.403219
O O9 0.500000 0.483772 0.750000
O O10 0.000000 0.500000 0.500000
O O11 0.000000 0.758530 0.250000
O O12 0.250000 0.750000 0.000000
#
# Coordination Sequence:
#
# PCOD9298982 Si02
#       5
#     4   8   8   8   8
#     4  10  24  46  72 104 152 204 264 308 406 464
#     4   9  20  47  71 101 153 204 253 311 388 469
#     4  12  27  44  75 111 151 200 263 315 396 471
#     4  11  25  46  76 110 154 204 261 333 393 458
#     4  12  25  49  76 113 154 207 259 324 392 475
#
# _framework density 23.753941999999999
#
# number of rings (size 3 to 8) (size 9 to 14) (size 15 to 20)
#    0.667    0.444    2.222    4.000    7.778    0.889 
#    0.000   12.222    0.000    0.000    0.000    0.000 
#    0.000    0.000    0.000    0.000    0.000    0.000 
#
# Total GULP energy -100405.668668 kJ/mol
# GULP energy per Si atom -5578.092704 kJ/mol
# Density = 2.369988 g / cm^3
# Si number density = 23.753942 Si / 1000 Ang^3
#
#
#
# Elastic Constant Matrix: (Units=GPa)
#
#
# Indices 1 2 3 4 5 6 
#
# 1 173.8120 44.3283 65.7072 0.0349 -35.6070 0.1262
# 2 44.3283 116.2257 70.8806 0.0383 -20.0174 0.0817
# 3 65.7072 70.8806 111.1332 -0.0528 -35.4020 0.1216
# 4 0.0349 0.0383 -0.0528 9.9749 -0.0229 19.7825
# 5 -35.6070 -20.0174 -35.4020 -0.0229 59.4917 -0.1894
# 6 0.1262 0.0817 0.1216 19.7825 -0.1894 20.2799
#
#
#
# Elastic Compliance Matrix: (Units=1/GPa)
#
#
# Indices 1 2 3 4 5 6 
#
# 1 0.007672 -0.000346 -0.003565 0.000035 0.002353 -0.000037
# 2 -0.000346 0.014124 -0.009076 0.000093 -0.000856 -0.000099
# 3 -0.003565 -0.009076 0.018807 -0.000168 0.006005 0.000165
# 4 0.000035 0.000093 -0.000168 -0.107262 0.000244 0.104634
# 5 0.002353 -0.000856 0.006005 0.000244 0.021503 -0.000085
# 6 -0.000037 -0.000099 0.000165 0.104634 -0.000085 -0.052759
#
#
# Mechanical properties :
#
#
# Convention : Reuss Voigt Hill
#
# Bulk Modulus (GPa) = 68.36347 84.77812 76.57080
# Shear Modulus (GPa) = -74.55438 32.63296 -20.96071
#
# Velocity S-wave (km/s) = -5.60841 3.71049 -2.97376
# Velocity P-wave (km/s) = 3.61893 7.35694 4.52923
#
# Compressibility (1/GPa) = 0.01462769
#
# Stress axis : x y z
#
# Youngs Moduli (GPa) = 130.35149 70.80392 53.17143
#
# Poissons Ratio (x) = 0.02452 0.18956
# Poissons Ratio (y) = 0.04515 0.48257
# Poissons Ratio (z) = 0.46472 0.64260
#
# Static dielectric constant tensor:
#      x y z
#    x 1.910560 -0.000190 0.150670 
#    y -0.000190 2.544540 0.000370 
#    z 0.150670 0.000370 1.971700 
# 
# From -- ./inp_files/232982.got.cif
#   From: 2010.05.17/outbox.cif.g08.bks.cpg/sg15_117_cif.got.tgz:232982.got - 2010.06.03 18:47:42.
