data_PCOD9298581
_publ_section_title
;
Structure prediction by ZEFSAII (Michael W. Deem and Ramdas Pophale) SiO2 
 PCOD9298581
Probable space group: C 2/C
;
_chemical_formula_sum "Si O2"
_cell_formula_units_Z 36
_cell_length_a 22.245582
_cell_length_b 12.035104
_cell_length_c 9.499150
_cell_angle_alpha 90.000000
_cell_angle_beta 145.049532
_cell_angle_gamma 90.000000
_cell_volume 1456.910860
_symmetry_space_group_name_H-M "C 2/C"
_symmetry_group_IT_number 15
_symmetry_cell_setting 'monoclinic'
loop_
_space_group_symop_operation_xyz
x,y,z
-x,y,1/2-z
-x,-y,-z
x,-y,1/2+z
1/2+x,1/2+y,z
1/2-x,1/2+y,1/2-z
1/2-x,1/2-y,-z
1/2+x,1/2-y,1/2+z
loop_
_atom_site_type_symbol
_atom_site_label
_atom_site_fract_x
_atom_site_fract_y
_atom_site_fract_z
Si Si1 0.664533 0.846343 0.866838
Si Si2 0.000000 0.771589 0.250000
Si Si3 0.065854 0.936745 0.743496
Si Si4 0.129998 0.739943 0.725087
Si Si5 0.195932 0.522080 0.715337
O O1 0.562488 0.789970 0.742423
O O2 0.649774 0.907666 0.688351
O O3 0.750000 0.750000 0.000000
O O4 0.696580 0.936636 0.052868
O O5 0.099321 0.815110 0.529340
O O6 0.068205 0.803696 0.727047
O O7 0.000000 0.965726 0.750000
O O8 0.185619 0.973740 0.996693
O O9 0.000000 0.000000 0.500000
O O10 0.126700 0.615109 0.662949
O O11 0.250000 0.750000 0.000000
#
# Coordination Sequence:
#
# PCOD9298581 Si02
#       5
#     8   4   8   8   8
#     4  11  26  46  76 110 155 204 267 327 390 483
#     4  10  24  44  76 100 146 208 260 316 400 468
#     4  11  24  38  67 105 145 195 255 315 394 459
#     4   9  22  44  66 100 147 189 253 317 380 466
#     4  10  24  47  68 105 153 200 248 327 390 461
#
# _framework density 24.709817000000001
#
# number of rings (size 3 to 8) (size 9 to 14) (size 15 to 20)
#    0.000    1.778    0.000    1.333    7.778   14.222 
#    2.000    0.000    0.000    0.000    0.000    0.000 
#    0.000    0.000    0.000    0.000    0.000    0.000 
#
# Total GULP energy -100203.892690 kJ/mol
# GULP energy per Si atom -5566.882927 kJ/mol
# Density = 2.465358 g / cm^3
# Si number density = 24.709817 Si / 1000 Ang^3
#
#
#
# Elastic Constant Matrix: (Units=GPa)
#
#
# Indices 1 2 3 4 5 6 
#
# 1 130.7011 38.1185 16.7633 0.0000 0.0770 0.0000
# 2 38.1185 91.0357 -15.1771 0.0000 -4.5266 0.0000
# 3 16.7633 -15.1771 116.3650 0.0000 -6.4902 0.0000
# 4 0.0000 0.0000 0.0000 36.7966 0.0000 -2.7367
# 5 0.0770 -4.5266 -6.4902 0.0000 40.2032 0.0000
# 6 0.0000 0.0000 0.0000 -2.7367 0.0000 52.1085
#
#
#
# Elastic Compliance Matrix: (Units=1/GPa)
#
#
# Indices 1 2 3 4 5 6 
#
# 1 0.009112 -0.004172 -0.001901 0.000000 -0.000794 0.000000
# 2 -0.004172 0.013231 0.002432 0.000000 0.001890 0.000000
# 3 -0.001901 0.002432 0.009284 0.000000 0.001776 0.000000
# 4 0.000000 0.000000 0.000000 0.027283 0.000000 0.001433
# 5 -0.000794 0.001890 0.001776 0.000000 0.025375 0.000000
# 6 0.000000 0.000000 0.000000 0.001433 0.000000 0.019266
#
#
# Mechanical properties :
#
#
# Convention : Reuss Voigt Hill
#
# Bulk Modulus (GPa) = 41.07582 46.39013 43.73298
# Shear Modulus (GPa) = 42.03545 45.71479 43.87512
#
# Velocity S-wave (km/s) = 4.12899 4.30591 4.21838
# Velocity P-wave (km/s) = 6.27621 6.59817 6.43920
#
# Compressibility (1/GPa) = 0.02434522
#
# Stress axis : x y z
#
# Youngs Moduli (GPa) = 109.74498 75.58020 107.71464
#
# Poissons Ratio (x) = 0.31531 0.20477
# Poissons Ratio (y) = 0.45784 -0.26197
# Poissons Ratio (z) = 0.20863 -0.18382
#
# Static dielectric constant tensor:
#      x y z
#    x 1.923460 0.000000 -0.035640 
#    y 0.000000 2.269820 0.000000 
#    z -0.035640 0.000000 2.152200 
# 
# From -- ./inp_files/55703.got.cif
#   From: 2010.05.17/outbox.cif.g08.bks.cpg/sg15_28_cif.got.tgz:55703.got - 2010.06.03 18:47:42.
