data_PCOD9298726
_publ_section_title
;
Structure prediction by ZEFSAII (Michael W. Deem and Ramdas Pophale) SiO2 
 PCOD9298726
Probable space group: C 2/C
;
_chemical_formula_sum "Si O2"
_cell_formula_units_Z 32
_cell_length_a 20.134883
_cell_length_b 9.999888
_cell_length_c 8.083396
_cell_angle_alpha 90.000000
_cell_angle_beta 57.663015
_cell_angle_gamma 90.000000
_cell_volume 1375.156131
_symmetry_space_group_name_H-M "C 2/C"
_symmetry_group_IT_number 15
_symmetry_cell_setting 'monoclinic'
loop_
_space_group_symop_operation_xyz
x,y,z
-x,y,1/2-z
-x,-y,-z
x,-y,1/2+z
1/2+x,1/2+y,z
1/2-x,1/2+y,1/2-z
1/2-x,1/2-y,-z
1/2+x,1/2-y,1/2+z
loop_
_atom_site_type_symbol
_atom_site_label
_atom_site_fract_x
_atom_site_fract_y
_atom_site_fract_z
Si Si1 0.537746 0.364207 0.880164
Si Si2 0.724863 0.370780 0.646883
Si Si3 0.432824 0.108471 0.450277
Si Si4 0.176821 0.585989 0.178174
O O1 0.500000 0.341905 0.750000
O O2 0.631731 0.384699 0.761996
O O3 0.500000 0.500000 0.000000
O O4 0.528384 0.229258 0.000328
O O5 0.750000 0.250000 0.500000
O O6 0.766079 0.497935 0.510971
O O7 0.766838 0.344255 0.765880
O O8 0.500000 0.036980 0.250000
O O9 0.374196 0.165838 0.387505
O O10 0.383009 0.009919 0.635443
#
# Coordination Sequence:
#
# PCOD9298726 Si02
#       4
#     8   8   8   8
#     4  12  27  47  70 105 148 188 235 294 368 435
#     4  11  23  47  73 101 141 185 240 298 354 433
#     4  11  24  42  71 103 139 186 235 303 356 426
#     4  10  24  45  71 102 134 187 246 295 358 425
#
# _framework density 23.270085000000002
#
# number of rings (size 3 to 8) (size 9 to 14) (size 15 to 20)
#    0.000    1.000    2.500    3.000    3.500    2.000 
#    4.500    0.000    0.000    0.000    0.000    0.000 
#    0.000    0.000    0.000    0.000    0.000    0.000 
#
# Total GULP energy -89467.125623 kJ/mol
# GULP energy per Si atom -5591.695351 kJ/mol
# Density = 2.321712 g / cm^3
# Si number density = 23.270085 Si / 1000 Ang^3
#
#
#
# Elastic Constant Matrix: (Units=GPa)
#
#
# Indices 1 2 3 4 5 6 
#
# 1 234.3951 55.3183 62.9137 0.0000 44.0949 0.0000
# 2 55.3183 71.3078 28.4186 0.0000 8.1891 0.0000
# 3 62.9137 28.4186 97.4465 0.0000 -13.0101 0.0000
# 4 0.0000 0.0000 0.0000 29.3267 0.0000 4.4724
# 5 44.0949 8.1891 -13.0101 0.0000 72.5334 0.0000
# 6 0.0000 0.0000 0.0000 4.4724 0.0000 41.9949
#
#
#
# Elastic Compliance Matrix: (Units=1/GPa)
#
#
# Indices 1 2 3 4 5 6 
#
# 1 0.007046 -0.003245 -0.004227 0.000000 -0.004675 0.000000
# 2 -0.003245 0.017890 -0.003206 0.000000 -0.000622 0.000000
# 3 -0.004227 -0.003206 0.014669 0.000000 0.005563 0.000000
# 4 0.000000 0.000000 0.000000 0.034662 0.000000 -0.003691
# 5 -0.004675 -0.000622 0.005563 0.000000 0.017697 0.000000
# 6 0.000000 0.000000 0.000000 -0.003691 0.000000 0.024206
#
#
# Mechanical properties :
#
#
# Convention : Reuss Voigt Hill
#
# Bulk Modulus (GPa) = 54.79435 77.38340 66.08887
# Shear Modulus (GPa) = 34.81728 45.87094 40.34411
#
# Velocity S-wave (km/s) = 3.87230 4.44468 4.16833
# Velocity P-wave (km/s) = 6.60236 7.72444 7.18534
#
# Compressibility (1/GPa) = 0.01825006
#
# Stress axis : x y z
#
# Youngs Moduli (GPa) = 141.92031 55.89794 68.17218
#
# Poissons Ratio (x) = 0.18137 0.28818
# Poissons Ratio (y) = 0.46047 0.21853
# Poissons Ratio (z) = 0.59992 0.17918
#
# Static dielectric constant tensor:
#      x y z
#    x 1.762760 0.000000 -0.298000 
#    y 0.000000 1.873420 0.000000 
#    z -0.298000 0.000000 1.223000 
# 
# From -- ./inp_files/45839.got.cif
#   From: 2010.05.17/outbox.cif.g08.bks.cpg/sg15_23_cif.got.tgz:45839.got - 2010.06.03 18:47:42.
