data_PCOD9298814
_publ_section_title
;
Structure prediction by ZEFSAII (Michael W. Deem and Ramdas Pophale) SiO2 
 PCOD9298814
Probable space group: C 2/C
;
_chemical_formula_sum "Si O2"
_cell_formula_units_Z 56
_cell_length_a 21.223916
_cell_length_b 5.180621
_cell_length_c 25.913697
_cell_angle_alpha 90.000000
_cell_angle_beta 128.409845
_cell_angle_gamma 90.000000
_cell_volume 2232.666113
_symmetry_space_group_name_H-M "C 2/C"
_symmetry_group_IT_number 15
_symmetry_cell_setting 'monoclinic'
loop_
_space_group_symop_operation_xyz
x,y,z
-x,y,1/2-z
-x,-y,-z
x,-y,1/2+z
1/2+x,1/2+y,z
1/2-x,1/2+y,1/2-z
1/2-x,1/2-y,-z
1/2+x,1/2-y,1/2+z
loop_
_atom_site_type_symbol
_atom_site_label
_atom_site_fract_x
_atom_site_fract_y
_atom_site_fract_z
Si Si1 0.805011 0.013880 0.626484
Si Si2 0.000000 0.661029 0.750000
Si Si3 0.933694 0.687398 0.140981
Si Si4 0.421141 0.485103 0.902050
Si Si5 0.700530 0.498685 0.566943
Si Si6 0.000000 0.500000 0.500000
Si Si7 0.419603 0.843188 0.036163
Si Si8 0.904441 0.035055 0.776057
O O1 0.884116 0.059041 0.631155
O O2 0.748230 0.243087 0.577985
O O3 0.831249 0.069874 0.699350
O O4 0.762371 0.739866 0.600401
O O5 0.930788 0.486952 0.690264
O O6 0.957772 0.821990 0.773403
O O7 0.910133 0.515486 0.080636
O O8 0.028716 0.742015 0.184313
O O9 0.347746 0.472718 0.904088
O O10 0.487838 0.243540 0.936922
O O11 0.387582 0.473988 0.826860
O O12 0.472019 0.737529 0.944493
O O13 0.634100 0.591657 0.491526
O O14 0.091932 0.502615 0.521736
#
# Coordination Sequence:
#
# PCOD9298814 Si02
#       8
#     8   4   8   8   8   4   8   8
#     4  12  28  48  74 109 167 207 250 313 406 484
#     4  12  18  48  70 110 150 188 260 340 394 454
#     4  12  25  44  79 112 148 206 272 336 392 477
#     4  10  24  45  80 110 146 198 271 326 388 458
#     4  12  28  49  72 110 163 212 242 323 397 488
#     4   8  20  46  74 112 140 190 252 340 382 446
#     4  10  24  45  77 112 143 202 271 328 390 460
#     4  12  25  43  79 113 141 205 266 332 389 472
#
# _framework density 25.082118000000001
#
# number of rings (size 3 to 8) (size 9 to 14) (size 15 to 20)
#    0.857    0.000    4.286    2.143    2.000    3.429 
#    0.000    0.000    0.000    0.000    0.000    0.000 
#    0.000    0.000    0.000    0.000    0.000    0.000 
#
# Total GULP energy -156206.708347 kJ/mol
# GULP energy per Si atom -5578.811012 kJ/mol
# Density = 2.502503 g / cm^3
# Si number density = 25.082118 Si / 1000 Ang^3
#
#
#
# Elastic Constant Matrix: (Units=GPa)
#
#
# Indices 1 2 3 4 5 6 
#
# 1 73.9822 36.9114 35.7615 0.0013 -9.8855 -0.0011
# 2 36.9114 132.6175 27.1181 0.0068 4.6625 -0.0110
# 3 35.7615 27.1181 93.3585 0.0002 -31.4576 -0.0001
# 4 0.0013 0.0068 0.0002 47.6563 -0.0006 11.1006
# 5 -9.8855 4.6625 -31.4576 -0.0006 51.7777 0.0013
# 6 -0.0011 -0.0110 -0.0001 11.1006 0.0013 36.1450
#
#
#
# Elastic Compliance Matrix: (Units=1/GPa)
#
#
# Indices 1 2 3 4 5 6 
#
# 1 0.018305 -0.003932 -0.005750 0.000000 0.000355 -0.000001
# 2 -0.003932 0.009170 -0.002123 -0.000002 -0.002866 0.000003
# 3 -0.005750 -0.002123 0.016630 0.000001 0.009197 -0.000001
# 4 0.000000 -0.000002 0.000001 0.022600 0.000001 -0.006941
# 5 0.000355 -0.002866 0.009197 0.000001 0.025227 -0.000002
# 6 -0.000001 0.000003 -0.000001 -0.006941 -0.000002 0.029798
#
#
# Mechanical properties :
#
#
# Convention : Reuss Voigt Hill
#
# Bulk Modulus (GPa) = 48.79374 55.50448 52.14911
# Shear Modulus (GPa) = 32.85761 40.46028 36.65895
#
# Velocity S-wave (km/s) = 3.62332 4.02071 3.82718
# Velocity P-wave (km/s) = 6.08280 6.61302 6.35344
#
# Compressibility (1/GPa) = 0.02049443
#
# Stress axis : x y z
#
# Youngs Moduli (GPa) = 54.62890 109.05435 60.13329
#
# Poissons Ratio (x) = 0.42876 0.34578
# Poissons Ratio (y) = 0.21478 0.12769
# Poissons Ratio (z) = 0.31413 0.23157
#
# Static dielectric constant tensor:
#      x y z
#    x 2.058430 0.000000 -0.023360 
#    y 0.000000 2.261610 0.000000 
#    z -0.023360 0.000000 2.115600 
# 
# From -- ./inp_files/301727.got.cif
#   From: 2010.05.17/outbox.cif.g08.bks.cpg/sg15_151_cif.got.tgz:301727.got - 2010.06.03 18:47:42.
