data_PCOD9298357
_publ_section_title
;
Structure prediction by ZEFSAII (Michael W. Deem and Ramdas Pophale) SiO2 
 PCOD9298357
Probable space group: C 2/C
;
_chemical_formula_sum "Si O2"
_cell_formula_units_Z 60
_cell_length_a 11.547930
_cell_length_b 8.294569
_cell_length_c 31.085689
_cell_angle_alpha 90.000000
_cell_angle_beta 98.625081
_cell_angle_gamma 90.000000
_cell_volume 2943.872318
_symmetry_space_group_name_H-M "C 2/C"
_symmetry_group_IT_number 15
_symmetry_cell_setting 'monoclinic'
loop_
_space_group_symop_operation_xyz
x,y,z
-x,y,1/2-z
-x,-y,-z
x,-y,1/2+z
1/2+x,1/2+y,z
1/2-x,1/2+y,1/2-z
1/2-x,1/2-y,-z
1/2+x,1/2-y,1/2+z
loop_
_atom_site_type_symbol
_atom_site_label
_atom_site_fract_x
_atom_site_fract_y
_atom_site_fract_z
Si Si1 0.055436 0.395306 0.941640
Si Si2 0.368590 0.315932 0.889911
Si Si3 0.326084 0.935050 0.461602
Si Si4 0.321638 0.395479 0.671107
Si Si5 0.910235 0.562431 0.815767
Si Si6 0.650499 0.960200 0.364410
Si Si7 0.591295 0.541586 0.909552
Si Si8 0.000000 0.217678 0.250000
O O1 0.106029 0.525747 0.911063
O O2 0.055224 0.223893 0.918058
O O3 0.925489 0.444675 0.949111
O O4 0.136618 0.391405 0.988273
O O5 0.332076 0.219753 0.930625
O O6 0.399991 0.189532 0.854429
O O7 0.262195 0.425680 0.867676
O O8 0.480397 0.425780 0.906114
O O9 0.195935 0.002984 0.448236
O O10 0.198312 0.443612 0.685110
O O11 0.317839 0.219938 0.648480
O O12 0.355313 0.519954 0.635239
O O13 0.423248 0.384174 0.712374
O O14 0.038820 0.485648 0.829597
O O15 0.914637 0.665829 0.772571
#
# Coordination Sequence:
#
# PCOD9298357 Si02
#       8
#     8   8   8   8   8   8   8   4
#     4  11  23  43  67  95 140 174 228 272 324 378
#     4  12  24  39  69  96 135 177 221 264 330 388
#     4  11  24  44  62  99 139 176 223 281 313 386
#     4  11  23  46  73  94 137 172 216 270 339 394
#     4  11  23  47  67  97 135 170 214 273 329 399
#     4  11  23  41  66  97 131 182 215 265 323 389
#     4  12  23  41  68  97 130 182 214 270 329 390
#     4  10  24  44  68 104 132 160 216 280 332 400
#
# _framework density 20.381319999999999
#
# number of rings (size 3 to 8) (size 9 to 14) (size 15 to 20)
#    0.000    0.800    6.667    0.400    3.733    2.667 
#    0.000    2.000    0.000    0.800    0.000    0.000 
#    0.000    0.000    0.000    0.000    0.000    0.000 
#
# Total GULP energy -167775.340405 kJ/mol
# GULP energy per Si atom -5592.511347 kJ/mol
# Density = 2.033493 g / cm^3
# Si number density = 20.381320 Si / 1000 Ang^3
#
#
#
# Elastic Constant Matrix: (Units=GPa)
#
#
# Indices 1 2 3 4 5 6 
#
# 1 106.7090 42.8980 8.6591 0.0000 23.9787 0.0000
# 2 42.8980 77.9371 43.3566 0.0000 16.6865 0.0000
# 3 8.6591 43.3566 81.5248 0.0000 11.9963 0.0000
# 4 0.0000 0.0000 0.0000 27.4700 0.0000 -2.1875
# 5 23.9787 16.6865 11.9963 0.0000 31.1583 0.0000
# 6 0.0000 0.0000 0.0000 -2.1875 0.0000 37.1405
#
#
#
# Elastic Compliance Matrix: (Units=1/GPa)
#
#
# Indices 1 2 3 4 5 6 
#
# 1 0.014224 -0.008416 0.004147 0.000000 -0.008036 0.000000
# 2 -0.008416 0.024486 -0.011821 0.000000 -0.002085 0.000000
# 3 0.004147 -0.011821 0.018711 0.000000 -0.004065 0.000000
# 4 0.000000 0.000000 0.000000 0.036575 0.000000 0.002154
# 5 -0.008036 -0.002085 -0.004065 0.000000 0.040960 0.000000
# 6 0.000000 0.000000 0.000000 0.002154 0.000000 0.027052
#
#
# Mechanical properties :
#
#
# Convention : Reuss Voigt Hill
#
# Bulk Modulus (GPa) = 39.61828 50.66650 45.14239
# Shear Modulus (GPa) = 24.67922 30.57090 27.62506
#
# Velocity S-wave (km/s) = 3.48354 3.87712 3.68558
# Velocity P-wave (km/s) = 5.97166 6.70492 6.34889
#
# Compressibility (1/GPa) = 0.02524087
#
# Stress axis : x y z
#
# Youngs Moduli (GPa) = 70.30523 40.84032 53.44552
#
# Poissons Ratio (x) = 0.34370 -0.22166
# Poissons Ratio (y) = 0.59166 0.63179
# Poissons Ratio (z) = -0.29158 0.48278
#
# Static dielectric constant tensor:
#      x y z
#    x 1.758090 0.000000 -0.001240 
#    y 0.000000 1.719950 0.000000 
#    z -0.001240 0.000000 1.715340 
# 
# From -- ./inp_files/310017.got.cif
#   From: 2010.05.17/outbox.cif.g08.bks.cpg/sg15_156_cif.got.tgz:310017.got - 2010.06.03 18:47:42.
