data_PCOD9298545
_publ_section_title
;
Structure prediction by ZEFSAII (Michael W. Deem and Ramdas Pophale) SiO2 
 PCOD9298545
Probable space group: C 2/C
;
_chemical_formula_sum "Si O2"
_cell_formula_units_Z 56
_cell_length_a 15.157395
_cell_length_b 16.717095
_cell_length_c 11.889254
_cell_angle_alpha 90.000000
_cell_angle_beta 57.217607
_cell_angle_gamma 90.000000
_cell_volume 2532.783654
_symmetry_space_group_name_H-M "C 2/C"
_symmetry_group_IT_number 15
_symmetry_cell_setting 'monoclinic'
loop_
_space_group_symop_operation_xyz
x,y,z
-x,y,1/2-z
-x,-y,-z
x,-y,1/2+z
1/2+x,1/2+y,z
1/2-x,1/2+y,1/2-z
1/2-x,1/2-y,-z
1/2+x,1/2-y,1/2+z
loop_
_atom_site_type_symbol
_atom_site_label
_atom_site_fract_x
_atom_site_fract_y
_atom_site_fract_z
Si Si1 0.522184 0.906231 0.490988
Si Si2 0.834007 0.596135 0.392054
Si Si3 0.337422 0.537154 0.821671
Si Si4 0.386829 0.780793 0.673420
Si Si5 0.682654 0.683530 0.982124
Si Si6 0.000000 0.176604 0.750000
Si Si7 0.000000 0.895194 0.750000
Si Si8 0.816977 0.558037 0.781859
O O1 0.587167 0.891058 0.559992
O O2 0.420707 0.851737 0.566982
O O3 0.594441 0.886536 0.334542
O O4 0.500000 0.000000 0.500000
O O5 0.730808 0.558105 0.520307
O O6 0.827633 0.675410 0.318456
O O7 0.870031 0.522613 0.289981
O O8 0.409949 0.615395 0.776251
O O9 0.410943 0.458166 0.766779
O O10 0.261525 0.535561 0.766252
O O11 0.328829 0.717056 0.636692
O O12 0.490397 0.737258 0.651999
O O13 0.752778 0.604324 0.920910
O O14 0.750000 0.750000 0.000000
O O15 0.570203 0.659154 0.115877
#
# Coordination Sequence:
#
# PCOD9298545 Si02
#       8
#     8   8   8   8   8   4   4   8
#     4  11  24  40  68 100 135 183 229 280 344 424
#     4  11  23  42  69 101 138 180 231 284 347 421
#     4  10  24  44  74 101 134 182 235 294 341 425
#     4  12  25  45  68 101 141 183 231 291 350 421
#     4  12  30  48  68 103 146 187 233 298 364 422
#     4  11  22  44  66 105 132 168 234 283 350 404
#     4  11  26  50  72 101 138 188 244 285 358 430
#     4  11  24  43  67 101 137 181 229 281 356 413
#
# _framework density 22.110061999999999
#
# number of rings (size 3 to 8) (size 9 to 14) (size 15 to 20)
#    0.000    0.857    5.714    0.000    6.000    3.429 
#    0.000    0.000    0.000    0.000    0.000    0.000 
#    0.000    0.000    0.000    0.000    0.000    0.000 
#
# Total GULP energy -156068.286259 kJ/mol
# GULP energy per Si atom -5573.867366 kJ/mol
# Density = 2.205974 g / cm^3
# Si number density = 22.110062 Si / 1000 Ang^3
#
#
#
# Elastic Constant Matrix: (Units=GPa)
#
#
# Indices 1 2 3 4 5 6 
#
# 1 27.7505 14.6601 13.1571 0.0000 2.3663 0.0000
# 2 14.6601 109.5665 29.6702 0.0000 -1.4168 0.0000
# 3 13.1571 29.6702 101.4440 0.0000 -11.8347 0.0000
# 4 0.0000 0.0000 0.0000 40.3934 0.0000 3.3847
# 5 2.3663 -1.4168 -11.8347 0.0000 31.5603 0.0000
# 6 0.0000 0.0000 0.0000 3.3847 0.0000 -14.5179
#
#
#
# Elastic Compliance Matrix: (Units=1/GPa)
#
#
# Indices 1 2 3 4 5 6 
#
# 1 0.040924 -0.004284 -0.004638 0.000000 -0.005000 0.000000
# 2 -0.004284 0.010374 -0.002496 0.000000 -0.000149 0.000000
# 3 -0.004638 -0.002496 0.011730 0.000000 0.004634 0.000000
# 4 0.000000 0.000000 0.000000 0.024282 0.000000 0.005661
# 5 -0.005000 -0.000149 0.004634 0.000000 0.033791 0.000000
# 6 0.000000 0.000000 0.000000 0.005661 0.000000 -0.067561
#
#
# Mechanical properties :
#
#
# Convention : Reuss Voigt Hill
#
# Bulk Modulus (GPa) = 24.88093 39.30395 32.09244
# Shear Modulus (GPa) = 55.69532 23.57208 39.63370
#
# Velocity S-wave (km/s) = 5.02441 3.26870 4.23846
# Velocity P-wave (km/s) = 6.70353 5.66224 6.20477
#
# Compressibility (1/GPa) = 0.04019142
#
# Stress axis : x y z
#
# Youngs Moduli (GPa) = 24.43556 96.39406 85.25279
#
# Poissons Ratio (x) = 0.41299 0.39540
# Poissons Ratio (y) = 0.10469 0.21278
# Poissons Ratio (z) = 0.11333 0.24059
#
# Static dielectric constant tensor:
#      x y z
#    x 1.852460 0.000000 -0.091390 
#    y 0.000000 1.831510 0.000000 
#    z -0.091390 0.000000 1.989470 
# 
# From -- ./inp_files/105676.got.cif
#   From: 2010.05.17/outbox.cif.g08.bks.cpg/sg15_53_cif.got.tgz:105676.got - 2010.06.03 18:47:42.
