data_PCOD9298577
_publ_section_title
;
Structure prediction by ZEFSAII (Michael W. Deem and Ramdas Pophale) SiO2 
 PCOD9298577
Probable space group: C 2/C
;
_chemical_formula_sum "Si O2"
_cell_formula_units_Z 40
_cell_length_a 14.392775
_cell_length_b 12.247774
_cell_length_c 11.583581
_cell_angle_alpha 90.000000
_cell_angle_beta 62.471681
_cell_angle_gamma 90.000000
_cell_volume 1810.763179
_symmetry_space_group_name_H-M "C 2/C"
_symmetry_group_IT_number 15
_symmetry_cell_setting 'monoclinic'
loop_
_space_group_symop_operation_xyz
x,y,z
-x,y,1/2-z
-x,-y,-z
x,-y,1/2+z
1/2+x,1/2+y,z
1/2-x,1/2+y,1/2-z
1/2-x,1/2-y,-z
1/2+x,1/2-y,1/2+z
loop_
_atom_site_type_symbol
_atom_site_label
_atom_site_fract_x
_atom_site_fract_y
_atom_site_fract_z
Si Si1 0.029252 0.745443 0.524680
Si Si2 0.096072 0.036585 0.115340
Si Si3 0.835008 0.811147 0.527570
Si Si4 0.450777 0.031039 0.655740
Si Si5 0.227198 0.619660 0.314008
O O1 0.050676 0.864217 0.565092
O O2 0.138693 0.693816 0.423693
O O3 0.948273 0.754271 0.465044
O O4 0.971199 0.660646 0.643103
O O5 0.189594 0.080247 0.140909
O O6 0.000000 0.997594 0.250000
O O7 0.142736 0.935364 0.019665
O O8 0.750000 0.750000 0.500000
O O9 0.788200 0.813780 0.682303
O O10 0.500000 0.990335 0.750000
O O11 0.334628 0.981857 0.710089
O O12 0.500000 0.000000 0.500000
#
# Coordination Sequence:
#
# PCOD9298577 Si02
#       5
#     8   8   8   8   8
#     4  11  25  48  74 109 143 202 252 313 376 463
#     4  12  26  49  71 109 147 194 250 314 384 460
#     4  12  29  45  73 109 149 197 250 314 389 454
#     4  10  24  44  75 107 150 194 255 314 375 459
#     4  11  27  45  74 105 148 197 250 312 387 454
#
# _framework density 22.090135
#
# number of rings (size 3 to 8) (size 9 to 14) (size 15 to 20)
#    0.000    0.800    2.000    3.000   14.000    1.600 
#    0.000    0.000    0.000    0.000    0.000    0.000 
#    0.000    0.000    0.000    0.000    0.000    0.000 
#
# Total GULP energy -111766.474150 kJ/mol
# GULP energy per Si atom -5588.323707 kJ/mol
# Density = 2.203986 g / cm^3
# Si number density = 22.090135 Si / 1000 Ang^3
#
#
#
# Elastic Constant Matrix: (Units=GPa)
#
#
# Indices 1 2 3 4 5 6 
#
# 1 174.2614 26.5149 29.6738 0.0000 15.8259 0.0000
# 2 26.5149 80.8991 11.5452 0.0000 7.8398 0.0000
# 3 29.6738 11.5452 58.3017 0.0000 3.3709 0.0000
# 4 0.0000 0.0000 0.0000 240.9398 0.0000 100.1566
# 5 15.8259 7.8398 3.3709 0.0000 41.5168 0.0000
# 6 0.0000 0.0000 0.0000 100.1566 0.0000 88.2204
#
#
#
# Elastic Compliance Matrix: (Units=1/GPa)
#
#
# Indices 1 2 3 4 5 6 
#
# 1 0.006664 -0.001567 -0.002966 0.000000 -0.002004 0.000000
# 2 -0.001567 0.013294 -0.001733 0.000000 -0.001772 0.000000
# 3 -0.002966 -0.001733 0.019010 0.000000 -0.000086 0.000000
# 4 0.000000 0.000000 0.000000 0.007860 0.000000 -0.008923
# 5 -0.002004 -0.001772 -0.000086 0.000000 0.025192 0.000000
# 6 0.000000 0.000000 0.000000 -0.008923 0.000000 0.021466
#
#
# Mechanical properties :
#
#
# Convention : Reuss Voigt Hill
#
# Bulk Modulus (GPa) = 37.82540 49.88110 43.85325
# Shear Modulus (GPa) = 43.54395 90.51729 67.03062
#
# Velocity S-wave (km/s) = 4.44463 6.40822 5.51453
# Velocity P-wave (km/s) = 6.59546 8.79679 7.77443
#
# Compressibility (1/GPa) = 0.02643726
#
# Stress axis : x y z
#
# Youngs Moduli (GPa) = 150.06366 75.22429 52.60494
#
# Poissons Ratio (x) = 0.11785 0.15601
# Poissons Ratio (y) = 0.23511 0.09114
# Poissons Ratio (z) = 0.44503 0.13033
#
# Static dielectric constant tensor:
#      x y z
#    x 1.834520 0.000000 0.023430 
#    y 0.000000 1.888200 0.000000 
#    z 0.023430 0.000000 1.802740 
# 
# From -- ./inp_files/94904.got.cif
#   From: 2010.05.17/outbox.cif.g08.bks.cpg/sg15_48_cif.got.tgz:94904.got - 2010.06.03 18:47:42.
