data_PCOD9298100
_publ_section_title
;
Structure prediction by ZEFSAII (Michael W. Deem and Ramdas Pophale) SiO2 
 PCOD9298100
Probable space group: C 2/C
;
_chemical_formula_sum "Si O2"
_cell_formula_units_Z 32
_cell_length_a 8.151858
_cell_length_b 7.170687
_cell_length_c 28.117901
_cell_angle_alpha 90.000000
_cell_angle_beta 131.670126
_cell_angle_gamma 90.000000
_cell_volume 1227.756129
_symmetry_space_group_name_H-M "C 2/C"
_symmetry_group_IT_number 15
_symmetry_cell_setting 'monoclinic'
loop_
_space_group_symop_operation_xyz
x,y,z
-x,y,1/2-z
-x,-y,-z
x,-y,1/2+z
1/2+x,1/2+y,z
1/2-x,1/2+y,1/2-z
1/2-x,1/2-y,-z
1/2+x,1/2-y,1/2+z
loop_
_atom_site_type_symbol
_atom_site_label
_atom_site_fract_x
_atom_site_fract_y
_atom_site_fract_z
Si Si1 0.913694 0.506412 0.537714
Si Si2 0.522141 0.414733 0.585537
Si Si3 0.008176 0.452598 0.805859
Si Si4 0.796645 0.745799 0.340674
O O1 0.650993 0.479480 0.481891
O O2 0.934500 0.704906 0.569136
O O3 0.000000 0.500000 0.500000
O O4 0.075214 0.365911 0.594714
O O5 0.778918 0.386045 0.622473
O O6 0.565339 0.557189 0.637963
O O7 0.064650 0.671196 0.812572
O O8 0.000000 0.381722 0.750000
O O9 0.805520 0.383613 0.796751
#
# Coordination Sequence:
#
# PCOD9298100 Si02
#       4
#     8   8   8   8
#     4  11  22  38  66 106 139 181 240 296 377 442
#     4   9  23  38  68  97 138 178 233 290 369 426
#     4  10  24  47  68  99 136 194 246 300 369 435
#     4  10  24  43  68  93 143 180 236 305 363 432
#
# _framework density 26.063808000000002
#
# number of rings (size 3 to 8) (size 9 to 14) (size 15 to 20)
#    1.500    0.500    0.000    2.250    7.000    4.000 
#    0.000    1.250    0.000    0.000    0.000    0.000 
#    0.000    0.000    0.000    0.000    0.000    0.000 
#
# Total GULP energy -89075.765434 kJ/mol
# GULP energy per Si atom -5567.235340 kJ/mol
# Density = 2.600449 g / cm^3
# Si number density = 26.063808 Si / 1000 Ang^3
#
#
#
# Elastic Constant Matrix: (Units=GPa)
#
#
# Indices 1 2 3 4 5 6 
#
# 1 90.0452 43.9929 47.8284 0.0000 -15.8495 0.0000
# 2 43.9929 126.2469 37.8416 0.0000 -11.1252 0.0000
# 3 47.8284 37.8416 104.4052 0.0000 0.9180 0.0000
# 4 0.0000 0.0000 0.0000 41.4914 0.0000 5.6679
# 5 -15.8495 -11.1252 0.9180 0.0000 57.0555 0.0000
# 6 0.0000 0.0000 0.0000 5.6679 0.0000 49.2366
#
#
#
# Elastic Compliance Matrix: (Units=1/GPa)
#
#
# Indices 1 2 3 4 5 6 
#
# 1 0.017085 -0.003625 -0.006549 0.000000 0.004144 0.000000
# 2 -0.003625 0.009841 -0.001914 0.000000 0.000943 0.000000
# 3 -0.006549 -0.001914 0.013293 0.000000 -0.002406 0.000000
# 4 0.000000 0.000000 0.000000 0.024486 0.000000 -0.002819
# 5 0.004144 0.000943 -0.002406 0.000000 0.018901 0.000000
# 6 0.000000 0.000000 0.000000 -0.002819 0.000000 0.020635
#
#
# Mechanical properties :
#
#
# Convention : Reuss Voigt Hill
#
# Bulk Modulus (GPa) = 62.33768 64.44703 63.39235
# Shear Modulus (GPa) = 37.37878 42.29233 39.83555
#
# Velocity S-wave (km/s) = 3.79109 4.03258 3.91370
# Velocity P-wave (km/s) = 6.56753 6.81635 6.69309
#
# Compressibility (1/GPa) = 0.01604166
#
# Stress axis : x y z
#
# Youngs Moduli (GPa) = 58.53153 101.61383 75.22590
#
# Poissons Ratio (x) = 0.36837 0.49266
# Poissons Ratio (y) = 0.21219 0.14402
# Poissons Ratio (z) = 0.38333 0.19454
#
# Static dielectric constant tensor:
#      x y z
#    x 2.107950 0.000000 0.000460 
#    y 0.000000 2.107160 0.000000 
#    z 0.000460 0.000000 2.046870 
# 
# From -- ./inp_files/229227.got.cif
#   From: 2010.05.17/outbox.cif.g08.bks.cpg/sg15_115_cif.got.tgz:229227.got - 2010.06.03 18:47:42.
