data_PCOD9298438
_publ_section_title
;
Structure prediction by ZEFSAII (Michael W. Deem and Ramdas Pophale) SiO2 
 PCOD9298438
Probable space group: C 2/C
;
_chemical_formula_sum "Si O2"
_cell_formula_units_Z 52
_cell_length_a 5.053186
_cell_length_b 19.766126
_cell_length_c 20.980988
_cell_angle_alpha 90.000000
_cell_angle_beta 88.285313
_cell_angle_gamma 90.000000
_cell_volume 2094.682808
_symmetry_space_group_name_H-M "C 2/C"
_symmetry_group_IT_number 15
_symmetry_cell_setting 'monoclinic'
loop_
_space_group_symop_operation_xyz
x,y,z
-x,y,1/2-z
-x,-y,-z
x,-y,1/2+z
1/2+x,1/2+y,z
1/2-x,1/2+y,1/2-z
1/2-x,1/2-y,-z
1/2+x,1/2-y,1/2+z
loop_
_atom_site_type_symbol
_atom_site_label
_atom_site_fract_x
_atom_site_fract_y
_atom_site_fract_z
Si Si1 0.250000 0.750000 0.000000
Si Si2 0.695140 0.540983 0.190333
Si Si3 0.813131 0.017248 0.443320
Si Si4 0.000000 0.342233 0.750000
Si Si5 0.000000 0.425344 0.250000
Si Si6 0.542652 0.111290 0.534325
Si Si7 0.817487 0.753195 0.648649
Si Si8 0.319947 0.665169 0.653717
O O1 0.378567 0.821465 0.022065
O O2 0.274575 0.722377 0.076202
O O3 0.500000 0.539498 0.250000
O O4 0.552892 0.533736 0.124189
O O5 0.861137 0.608745 0.199398
O O6 0.876938 0.475623 0.199029
O O7 0.661800 0.084019 0.467647
O O8 0.622766 0.952529 0.439302
O O9 0.000000 0.000000 0.500000
O O10 0.789238 0.300214 0.793474
O O11 0.216414 0.381033 0.211570
O O12 0.762702 0.130625 0.585602
O O13 0.621672 0.687914 0.656490
O O14 0.121161 0.729991 0.655447
#
# Coordination Sequence:
#
# PCOD9298438 Si02
#       8
#     4   8   8   4   4   8   8   8
#     4  10  24  46  70 110 148 198 252 318 382 468
#     4  11  27  43  72 103 144 199 248 318 374 461
#     4  11  25  45  72 105 148 201 256 322 390 469
#     4  11  26  50  68 106 152 197 260 308 398 463
#     4  11  24  42  70 100 148 177 262 304 384 441
#     4  10  24  44  70 102 147 194 255 310 391 453
#     4  11  26  45  75 105 152 195 248 310 386 461
#     4  11  25  44  75 109 142 198 247 315 377 458
#
# _framework density 24.824759
#
# number of rings (size 3 to 8) (size 9 to 14) (size 15 to 20)
#    0.000    1.231    1.538    1.846   10.769    4.923 
#    2.769    0.000    0.000    0.000    0.000    0.000 
#    0.000    0.000    0.000    0.000    0.000    0.000 
#
# Total GULP energy -145144.645008 kJ/mol
# GULP energy per Si atom -5582.486346 kJ/mol
# Density = 2.476826 g / cm^3
# Si number density = 24.824759 Si / 1000 Ang^3
#
#
#
# Elastic Constant Matrix: (Units=GPa)
#
#
# Indices 1 2 3 4 5 6 
#
# 1 43.0240 8.7917 16.3137 0.0000 1.9533 0.0000
# 2 8.7917 71.2568 53.1073 0.0000 12.7757 0.0000
# 3 16.3137 53.1073 172.1470 0.0000 9.6976 0.0000
# 4 0.0000 0.0000 0.0000 -742.6970 0.0000 -329.5581
# 5 1.9533 12.7757 9.6976 0.0000 30.9473 0.0000
# 6 0.0000 0.0000 0.0000 -329.5581 0.0000 -118.9141
#
#
#
# Elastic Compliance Matrix: (Units=1/GPa)
#
#
# Indices 1 2 3 4 5 6 
#
# 1 0.024262 -0.001607 -0.001786 0.000000 -0.000308 0.000000
# 2 -0.001607 0.019440 -0.005495 0.000000 -0.006202 0.000000
# 3 -0.001786 -0.005495 0.007675 0.000000 -0.000024 0.000000
# 4 0.000000 0.000000 0.000000 0.005860 0.000000 -0.016241
# 5 -0.000308 -0.006202 -0.000024 0.000000 0.034900 0.000000
# 6 0.000000 0.000000 0.000000 -0.016241 0.000000 0.036602
#
#
# Mechanical properties :
#
#
# Convention : Reuss Voigt Hill
#
# Bulk Modulus (GPa) = 29.76209 49.20591 39.48400
# Shear Modulus (GPa) = 31.70248 -152.25174 -60.27463
#
# Velocity S-wave (km/s) = 3.57746 -7.83988 -4.93282
# Velocity P-wave (km/s) = 5.39251 7.87955 4.06252
#
# Compressibility (1/GPa) = 0.03359979
#
# Stress axis : x y z
#
# Youngs Moduli (GPa) = 41.21593 51.44111 130.29416
#
# Poissons Ratio (x) = 0.08267 0.23272
# Poissons Ratio (y) = 0.06624 0.71603
# Poissons Ratio (z) = 0.07362 0.28269
#
# Static dielectric constant tensor:
#      x y z
#    x 2.001700 0.000000 0.039300 
#    y 0.000000 1.983430 0.000000 
#    z 0.039300 0.000000 2.096410 
# 
# From -- ./inp_files/227511.got.cif
#   From: 2010.05.17/outbox.cif.g08.bks.cpg/sg15_114_cif.got.tgz:227511.got - 2010.06.03 18:47:42.
