data_PCOD9298388
_publ_section_title
;
Structure prediction by ZEFSAII (Michael W. Deem and Ramdas Pophale) SiO2 
 PCOD9298388
Probable space group: C 2/C
;
_chemical_formula_sum "Si O2"
_cell_formula_units_Z 44
_cell_length_a 11.787227
_cell_length_b 14.409846
_cell_length_c 12.893362
_cell_angle_alpha 90.000000
_cell_angle_beta 106.967427
_cell_angle_gamma 90.000000
_cell_volume 2094.637559
_symmetry_space_group_name_H-M "C 2/C"
_symmetry_group_IT_number 15
_symmetry_cell_setting 'monoclinic'
loop_
_space_group_symop_operation_xyz
x,y,z
-x,y,1/2-z
-x,-y,-z
x,-y,1/2+z
1/2+x,1/2+y,z
1/2-x,1/2+y,1/2-z
1/2-x,1/2-y,-z
1/2+x,1/2-y,1/2+z
loop_
_atom_site_type_symbol
_atom_site_label
_atom_site_fract_x
_atom_site_fract_y
_atom_site_fract_z
Si Si1 0.800033 0.900152 0.685878
Si Si2 0.891268 0.540642 0.536939
Si Si3 0.386800 0.753168 0.071726
Si Si4 0.000000 0.953370 0.250000
Si Si5 0.308948 0.138473 0.129361
Si Si6 0.568386 0.691173 0.943905
O O1 0.716386 0.939071 0.571858
O O2 0.881883 0.816853 0.665880
O O3 0.718657 0.862067 0.756508
O O4 0.887038 0.982137 0.744374
O O5 0.920547 0.639570 0.597027
O O6 0.854157 0.462367 0.608057
O O7 0.000000 0.500000 0.500000
O O8 0.250000 0.750000 0.000000
O O9 0.469316 0.714896 0.002221
O O10 0.028268 0.889116 0.355653
O O11 0.398781 0.217559 0.114226
O O12 0.186215 0.159629 0.036448
#
# Coordination Sequence:
#
# PCOD9298388 Si02
#       6
#     8   8   8   4   8   8
#     4  11  26  43  69 106 135 190 231 288 351 420
#     4  11  23  47  70 101 140 185 228 295 348 420
#     4  10  24  44  68  98 140 181 231 280 353 410
#     4  12  26  42  74 102 140 184 240 280 370 406
#     4  11  25  46  70 105 142 177 247 285 355 422
#     4  11  25  44  72 101 142 185 230 303 342 425
#
# _framework density 21.006021
#
# number of rings (size 3 to 8) (size 9 to 14) (size 15 to 20)
#    0.000    1.091    3.636    1.091   10.182    2.182 
#    0.000    1.818    0.000    0.000    0.000    0.000 
#    0.000    0.000    0.000    0.000    0.000    0.000 
#
# Total GULP energy -123094.510951 kJ/mol
# GULP energy per Si atom -5595.205043 kJ/mol
# Density = 2.095821 g / cm^3
# Si number density = 21.006021 Si / 1000 Ang^3
#
#
#
# Elastic Constant Matrix: (Units=GPa)
#
#
# Indices 1 2 3 4 5 6 
#
# 1 115.9719 49.7159 24.8568 0.0000 -34.8589 0.0000
# 2 49.7159 158.1192 38.4706 0.0000 -29.7606 0.0000
# 3 24.8568 38.4706 63.7004 0.0000 -27.6104 0.0000
# 4 0.0000 0.0000 0.0000 26.9788 0.0000 -13.1645
# 5 -34.8589 -29.7606 -27.6104 0.0000 52.2197 0.0000
# 6 0.0000 0.0000 0.0000 -13.1645 0.0000 39.2982
#
#
#
# Elastic Compliance Matrix: (Units=1/GPa)
#
#
# Indices 1 2 3 4 5 6 
#
# 1 0.011583 -0.002383 -0.000412 0.000000 0.006156 0.000000
# 2 -0.002383 0.008145 -0.003460 0.000000 0.001222 0.000000
# 3 -0.000412 -0.003460 0.022022 0.000000 0.009397 0.000000
# 4 0.000000 0.000000 0.000000 0.044309 0.000000 0.014843
# 5 0.006156 0.001222 0.009397 0.000000 0.028924 0.000000
# 6 0.000000 0.000000 0.000000 0.014843 0.000000 0.030419
#
#
# Mechanical properties :
#
#
# Convention : Reuss Voigt Hill
#
# Bulk Modulus (GPa) = 34.19957 62.65313 48.42635
# Shear Modulus (GPa) = 29.82247 38.68256 34.25251
#
# Velocity S-wave (km/s) = 3.77199 4.29592 4.04246
# Velocity P-wave (km/s) = 5.94027 7.38225 6.70016
#
# Compressibility (1/GPa) = 0.02924013
#
# Stress axis : x y z
#
# Youngs Moduli (GPa) = 86.33249 122.76939 45.40970
#
# Poissons Ratio (x) = 0.29255 0.01873
# Poissons Ratio (y) = 0.20573 0.15710
# Poissons Ratio (z) = 0.03561 0.42474
#
# Static dielectric constant tensor:
#      x y z
#    x 1.723970 0.000000 0.033440 
#    y 0.000000 1.748690 0.000000 
#    z 0.033440 0.000000 1.721940 
# 
# From -- ./inp_files/86142.got.cif
#   From: 2010.05.17/outbox.cif.g08.bks.cpg/sg15_44_cif.got.tgz:86142.got - 2010.06.03 18:47:42.
