data_PCOD9298418
_publ_section_title
;
Structure prediction by ZEFSAII (Michael W. Deem and Ramdas Pophale) SiO2 
 PCOD9298418
Probable space group: C 2/C
;
_chemical_formula_sum "Si O2"
_cell_formula_units_Z 48
_cell_length_a 16.198319
_cell_length_b 24.164760
_cell_length_c 11.261149
_cell_angle_alpha 90.000000
_cell_angle_beta 31.645023
_cell_angle_gamma 90.000000
_cell_volume 2312.645043
_symmetry_space_group_name_H-M "C 2/C"
_symmetry_group_IT_number 15
_symmetry_cell_setting 'monoclinic'
loop_
_space_group_symop_operation_xyz
x,y,z
-x,y,1/2-z
-x,-y,-z
x,-y,1/2+z
1/2+x,1/2+y,z
1/2-x,1/2+y,1/2-z
1/2-x,1/2-y,-z
1/2+x,1/2-y,1/2+z
loop_
_atom_site_type_symbol
_atom_site_label
_atom_site_fract_x
_atom_site_fract_y
_atom_site_fract_z
Si Si1 0.286710 0.090222 0.825642
Si Si2 0.325637 0.664407 0.910203
Si Si3 0.000000 0.535461 0.750000
Si Si4 0.332549 0.241929 0.209629
Si Si5 0.500000 0.486382 0.750000
Si Si6 0.654283 0.218729 0.719131
Si Si7 0.223978 0.050503 0.634843
O O1 0.443613 0.070160 0.703761
O O2 0.284149 0.155991 0.848175
O O3 0.258823 0.074682 0.722603
O O4 0.145054 0.054782 0.054114
O O5 0.500000 0.659636 0.750000
O O6 0.348853 0.700862 0.762636
O O7 0.257151 0.603924 0.971327
O O8 0.207770 0.696518 0.142286
O O9 0.145516 0.496221 0.540747
O O10 0.183762 0.251634 0.308781
O O11 0.465865 0.223316 0.952140
O O12 0.556809 0.524179 0.793086
O O13 0.750000 0.250000 0.500000
#
# Coordination Sequence:
#
# PCOD9298418 Si02
#       7
#     8   8   4   8   4   8   8
#     4  11  25  45  66  96 135 178 226 280 338 397
#     4  11  22  42  72 104 137 169 223 288 352 399
#     4  10  26  44  63  99 134 172 230 278 332 410
#     4  11  25  44  67 102 137 177 223 283 341 414
#     4  10  24  44  69  97 132 176 232 282 334 410
#     4  12  27  44  68  98 139 184 227 272 342 413
#     4  11  22  43  72  98 131 176 224 281 348 395
#
# _framework density 20.755455999999999
#
# number of rings (size 3 to 8) (size 9 to 14) (size 15 to 20)
#    0.000    1.000    4.167    1.500    7.000    0.000 
#    0.000    0.000    0.000    0.000    0.000    0.000 
#    0.000    0.000    0.000    0.000    0.000    0.000 
#
# Total GULP energy -133737.777210 kJ/mol
# GULP energy per Si atom -5572.407384 kJ/mol
# Density = 2.070822 g / cm^3
# Si number density = 20.755456 Si / 1000 Ang^3
#
#
#
# Elastic Constant Matrix: (Units=GPa)
#
#
# Indices 1 2 3 4 5 6 
#
# 1 94.8192 16.5547 24.5592 -0.0019 -5.8214 0.0050
# 2 16.5547 106.3949 39.9771 -0.0014 9.8371 0.0032
# 3 24.5592 39.9771 51.6294 -0.0033 -0.1451 0.0050
# 4 -0.0019 -0.0014 -0.0033 20.9396 0.0015 -2.2070
# 5 -5.8214 9.8371 -0.1451 0.0015 28.8846 -0.0025
# 6 0.0050 0.0032 0.0050 -2.2070 -0.0025 36.8721
#
#
#
# Elastic Compliance Matrix: (Units=1/GPa)
#
#
# Indices 1 2 3 4 5 6 
#
# 1 0.012197 0.000081 -0.005858 0.000000 0.002401 -0.000001
# 2 0.000081 0.013887 -0.010805 0.000000 -0.004767 0.000000
# 3 -0.005858 -0.010805 0.030529 0.000003 0.002653 -0.000002
# 4 0.000000 0.000000 0.000003 0.048060 -0.000002 0.002877
# 5 0.002401 -0.004767 0.002653 -0.000002 0.036741 0.000002
# 6 -0.000001 0.000000 -0.000002 0.002877 0.000002 0.027293
#
#
# Mechanical properties :
#
#
# Convention : Reuss Voigt Hill
#
# Bulk Modulus (GPa) = 42.64439 46.11398 44.37918
# Shear Modulus (GPa) = 23.84510 28.78942 26.31726
#
# Velocity S-wave (km/s) = 3.39316 3.72839 3.56472
# Velocity P-wave (km/s) = 5.99517 6.38753 6.19446
#
# Compressibility (1/GPa) = 0.02344974
#
# Stress axis : x y z
#
# Youngs Moduli (GPa) = 81.98802 72.01026 32.75558
#
# Poissons Ratio (x) = -0.00586 0.19189
# Poissons Ratio (y) = -0.00667 0.35392
# Poissons Ratio (z) = 0.48029 0.77806
#
# Static dielectric constant tensor:
#      x y z
#    x 1.788490 0.000000 0.029750 
#    y 0.000000 1.718440 0.000000 
#    z 0.029750 0.000000 1.769090 
# 
# From -- ./inp_files/108065.got.cif
#   From: 2010.05.17/outbox.cif.g08.bks.cpg/sg15_55_cif.got.tgz:108065.got - 2010.06.03 18:47:42.
