data_PCOD9298680
_publ_section_title
;
Structure prediction by ZEFSAII (Michael W. Deem and Ramdas Pophale) SiO2 
 PCOD9298680
Probable space group: C 2/C
;
_chemical_formula_sum "Si O2"
_cell_formula_units_Z 64
_cell_length_a 17.073322
_cell_length_b 23.196660
_cell_length_c 12.171005
_cell_angle_alpha 90.000000
_cell_angle_beta 149.177493
_cell_angle_gamma 90.000000
_cell_volume 2469.802946
_symmetry_space_group_name_H-M "C 2/C"
_symmetry_group_IT_number 15
_symmetry_cell_setting 'monoclinic'
loop_
_space_group_symop_operation_xyz
x,y,z
-x,y,1/2-z
-x,-y,-z
x,-y,1/2+z
1/2+x,1/2+y,z
1/2-x,1/2+y,1/2-z
1/2-x,1/2-y,-z
1/2+x,1/2-y,1/2+z
loop_
_atom_site_type_symbol
_atom_site_label
_atom_site_fract_x
_atom_site_fract_y
_atom_site_fract_z
Si Si1 0.703946 0.564868 0.149164
Si Si2 0.322955 0.807855 0.476737
Si Si3 0.326698 0.088925 0.537510
Si Si4 0.294465 0.683257 0.419102
Si Si5 0.974742 0.423980 0.593840
Si Si6 0.215820 0.290342 0.592969
Si Si7 0.178761 0.057267 0.586341
Si Si8 0.433120 0.683223 0.007539
O O1 0.744244 0.571876 0.325518
O O2 0.623582 0.622974 0.008039
O O3 0.610817 0.506556 0.016082
O O4 0.868537 0.564678 0.283310
O O5 0.383510 0.743640 0.527735
O O6 0.281907 0.818398 0.553681
O O7 0.428356 0.856905 0.553023
O O8 0.165780 0.810622 0.220996
O O9 0.500000 0.068596 0.750000
O O10 0.334853 0.158863 0.548184
O O11 0.242614 0.064944 0.541451
O O12 0.181152 0.689218 0.177041
O O13 0.825302 0.445313 0.346640
O O14 0.000000 0.444271 0.750000
O O15 0.398253 0.293123 0.805014
O O16 0.149352 0.226275 0.504791
O O17 0.078236 0.114924 0.481491
#
# Coordination Sequence:
#
# PCOD9298680 Si02
#       8
#     8   8   8   8   8   8   8   8
#     4  11  23  40  66 100 145 184 236 288 354 421
#     4   9  19  35  62  96 142 180 231 290 351 421
#     4  11  25  43  68 105 139 185 237 295 354 422
#     4   9  19  37  58  97 133 187 228 283 349 411
#     4  11  21  36  63 103 141 181 227 297 350 405
#     4  10  24  45  72  99 144 182 240 301 358 421
#     4  11  26  41  66 102 144 188 234 288 356 429
#     4  10  24  45  69 105 139 188 237 295 363 422
#
# _framework density 25.912998000000002
#
# number of rings (size 3 to 8) (size 9 to 14) (size 15 to 20)
#    0.000    1.750    2.500    0.375    3.500    7.500 
#    0.000    2.500    0.000    3.000    0.000    0.000 
#    0.000    0.000    0.000    0.000    0.000    0.000 
#
# Total GULP energy -179120.016178 kJ/mol
# GULP energy per Si atom -5597.500506 kJ/mol
# Density = 2.585402 g / cm^3
# Si number density = 25.912998 Si / 1000 Ang^3
#
#
#
# Elastic Constant Matrix: (Units=GPa)
#
#
# Indices 1 2 3 4 5 6 
#
# 1 116.6508 46.6337 46.1459 0.0000 -7.6611 0.0000
# 2 46.6337 254.1603 26.9295 0.0000 -5.6860 0.0000
# 3 46.1459 26.9295 116.7709 0.0000 -20.7185 0.0000
# 4 0.0000 0.0000 0.0000 9.8216 0.0000 -13.6911
# 5 -7.6611 -5.6860 -20.7185 0.0000 52.2987 0.0000
# 6 0.0000 0.0000 0.0000 -13.6911 0.0000 20.6299
#
#
#
# Elastic Compliance Matrix: (Units=1/GPa)
#
#
# Indices 1 2 3 4 5 6 
#
# 1 0.010732 -0.001558 -0.003907 0.000000 -0.000145 0.000000
# 2 -0.001558 0.004260 -0.000349 0.000000 0.000096 0.000000
# 3 -0.003907 -0.000349 0.010842 0.000000 0.003685 0.000000
# 4 0.000000 0.000000 0.000000 1.359834 0.000000 0.902461
# 5 -0.000145 0.000096 0.003685 0.000000 0.020570 0.000000
# 6 0.000000 0.000000 0.000000 0.902461 0.000000 0.647396
#
#
# Mechanical properties :
#
#
# Convention : Reuss Voigt Hill
#
# Bulk Modulus (GPa) = 70.40574 80.77781 75.59177
# Shear Modulus (GPa) = 2.41546 41.07488 21.74517
#
# Velocity S-wave (km/s) = 0.96652 3.98566 2.89997
# Velocity P-wave (km/s) = 5.33616 7.24024 6.35986
#
# Compressibility (1/GPa) = 0.01420339
#
# Stress axis : x y z
#
# Youngs Moduli (GPa) = 93.18131 234.76227 92.23122
#
# Poissons Ratio (x) = 0.36583 0.36039
# Poissons Ratio (y) = 0.14521 0.03223
# Poissons Ratio (z) = 0.36410 0.08203
#
# Static dielectric constant tensor:
#      x y z
#    x 2.020100 0.000000 0.018760 
#    y 0.000000 2.104530 0.000000 
#    z 0.018760 0.000000 2.048380 
# 
# From -- ./inp_files/119616.got.cif
#   From: 2010.05.17/outbox.cif.g08.bks.cpg/sg15_60_cif.got.tgz:119616.got - 2010.06.03 18:47:42.
