data_PCOD9298535
_publ_section_title
;
Structure prediction by ZEFSAII (Michael W. Deem and Ramdas Pophale) SiO2 
 PCOD9298535
Probable space group: C 2/C
;
_chemical_formula_sum "Si O2"
_cell_formula_units_Z 40
_cell_length_a 14.173349
_cell_length_b 5.709066
_cell_length_c 19.953550
_cell_angle_alpha 90.000000
_cell_angle_beta 105.918571
_cell_angle_gamma 90.000000
_cell_volume 1552.658218
_symmetry_space_group_name_H-M "C 2/C"
_symmetry_group_IT_number 15
_symmetry_cell_setting 'monoclinic'
loop_
_space_group_symop_operation_xyz
x,y,z
-x,y,1/2-z
-x,-y,-z
x,-y,1/2+z
1/2+x,1/2+y,z
1/2-x,1/2+y,1/2-z
1/2-x,1/2-y,-z
1/2+x,1/2-y,1/2+z
loop_
_atom_site_type_symbol
_atom_site_label
_atom_site_fract_x
_atom_site_fract_y
_atom_site_fract_z
Si Si1 0.774579 0.898980 0.791764
Si Si2 0.002010 0.966282 0.823066
Si Si3 0.038037 0.204105 0.961527
Si Si4 0.345509 0.041100 0.460808
Si Si5 0.826729 0.344954 0.114346
O O1 0.747987 0.644501 0.754162
O O2 0.892241 0.902808 0.823725
O O3 0.717653 0.946190 0.850238
O O4 0.050832 0.127202 0.888622
O O5 0.000000 0.080851 0.750000
O O6 0.073118 0.742710 0.832914
O O7 0.138562 0.272344 0.018112
O O8 0.946742 0.384916 0.944304
O O9 0.000000 0.000000 0.000000
O O10 0.256640 0.142501 0.402261
O O11 0.346236 0.129724 0.538525
#
# Coordination Sequence:
#
# PCOD9298535 Si02
#       5
#     8   8   8   8   8
#     4  12  29  52  78 112 160 212 263 329 406 487
#     4  12  26  48  73 116 152 209 259 328 406 477
#     4  11  23  45  73 105 151 201 261 320 393 473
#     4  10  24  44  73 109 147 201 262 327 387 471
#     4  11  24  49  74 114 150 201 266 326 398 471
#
# _framework density 25.762269
#
# number of rings (size 3 to 8) (size 9 to 14) (size 15 to 20)
#    0.000    0.800    6.000    0.000    2.800    4.000 
#    0.000    0.000    0.000    0.000    0.000    0.000 
#    0.000    0.000    0.000    0.000    0.000    0.000 
#
# Total GULP energy -111839.088981 kJ/mol
# GULP energy per Si atom -5591.954449 kJ/mol
# Density = 2.570363 g / cm^3
# Si number density = 25.762269 Si / 1000 Ang^3
#
#
#
# Elastic Constant Matrix: (Units=GPa)
#
#
# Indices 1 2 3 4 5 6 
#
# 1 132.2480 21.3732 20.3689 0.0000 9.9610 0.0000
# 2 21.3732 74.4734 43.0623 0.0000 11.9355 0.0000
# 3 20.3689 43.0623 118.7718 0.0000 -18.0924 0.0000
# 4 0.0000 0.0000 0.0000 39.3360 0.0000 -3.4379
# 5 9.9610 11.9355 -18.0924 0.0000 50.1677 0.0000
# 6 0.0000 0.0000 0.0000 -3.4379 0.0000 42.3741
#
#
#
# Elastic Compliance Matrix: (Units=1/GPa)
#
#
# Indices 1 2 3 4 5 6 
#
# 1 0.008089 -0.001393 -0.001139 0.000000 -0.001686 0.000000
# 2 -0.001393 0.019603 -0.007975 0.000000 -0.007263 0.000000
# 3 -0.001139 -0.007975 0.012517 0.000000 0.006638 0.000000
# 4 0.000000 0.000000 0.000000 0.025604 0.000000 0.002077
# 5 -0.001686 -0.007263 0.006638 0.000000 0.024390 0.000000
# 6 0.000000 0.000000 0.000000 0.002077 0.000000 0.023768
#
#
# Mechanical properties :
#
#
# Convention : Reuss Voigt Hill
#
# Bulk Modulus (GPa) = 52.09442 55.01132 53.55287
# Shear Modulus (GPa) = 35.36536 42.42151 38.89343
#
# Velocity S-wave (km/s) = 3.70909 4.06230 3.88971
# Velocity P-wave (km/s) = 6.21356 6.58808 6.40356
#
# Compressibility (1/GPa) = 0.01919591
#
# Stress axis : x y z
#
# Youngs Moduli (GPa) = 123.62427 51.01388 79.88955
#
# Poissons Ratio (x) = 0.07105 0.09100
# Poissons Ratio (y) = 0.17217 0.63709
# Poissons Ratio (z) = 0.14081 0.40682
#
# Static dielectric constant tensor:
#      x y z
#    x 2.177860 0.000000 -0.023460 
#    y 0.000000 2.487290 0.000000 
#    z -0.023460 0.000000 1.998330 
# 
# From -- ./inp_files/271975.got.cif
#   From: 2010.05.17/outbox.cif.g08.bks.cpg/sg15_136_cif.got.tgz:271975.got - 2010.06.03 18:47:42.
