data_PCOD9298292
_publ_section_title
;
Structure prediction by ZEFSAII (Michael W. Deem and Ramdas Pophale) SiO2 
 PCOD9298292
Probable space group: C 2/C
;
_chemical_formula_sum "Si O2"
_cell_formula_units_Z 52
_cell_length_a 16.862307
_cell_length_b 17.753556
_cell_length_c 9.657453
_cell_angle_alpha 90.000000
_cell_angle_beta 118.256600
_cell_angle_gamma 90.000000
_cell_volume 2546.596331
_symmetry_space_group_name_H-M "C 2/C"
_symmetry_group_IT_number 15
_symmetry_cell_setting 'monoclinic'
loop_
_space_group_symop_operation_xyz
x,y,z
-x,y,1/2-z
-x,-y,-z
x,-y,1/2+z
1/2+x,1/2+y,z
1/2-x,1/2+y,1/2-z
1/2-x,1/2-y,-z
1/2+x,1/2-y,1/2+z
loop_
_atom_site_type_symbol
_atom_site_label
_atom_site_fract_x
_atom_site_fract_y
_atom_site_fract_z
Si Si1 0.483464 0.934992 0.090931
Si Si2 0.703114 0.146027 0.100663
Si Si3 0.726049 0.277084 0.327955
Si Si4 0.000000 0.828671 0.750000
Si Si5 0.627288 0.197220 0.767955
Si Si6 0.111290 0.932570 0.653764
Si Si7 0.899244 0.087103 0.682633
O O1 0.500000 0.974686 0.250000
O O2 0.551400 0.864039 0.164726
O O3 0.384215 0.906315 0.975652
O O4 0.500000 0.000000 0.000000
O O5 0.683442 0.212806 0.194055
O O6 0.795977 0.105728 0.216622
O O7 0.702579 0.170914 0.939787
O O8 0.750000 0.250000 0.500000
O O9 0.820808 0.287947 0.329422
O O10 0.666337 0.351447 0.302526
O O11 0.918135 0.768769 0.693927
O O12 0.973801 0.883052 0.857926
O O13 0.121374 0.934725 0.495341
O O14 0.101049 0.013382 0.719661
O O15 0.000000 0.119082 0.750000
#
# Coordination Sequence:
#
# PCOD9298292 Si02
#       7
#     8   8   8   4   8   8   8
#     4  10  24  44  66 102 139 181 234 280 355 414
#     4  11  24  43  71 102 137 184 234 289 350 418
#     4  12  26  46  70 105 141 179 244 290 349 420
#     4  12  22  46  74  98 148 174 254 278 354 428
#     4  11  24  43  72 105 136 190 231 287 352 421
#     4  12  28  45  72 106 141 187 238 296 355 427
#     4  12  29  48  71 105 145 188 235 295 365 418
#
# _framework density 20.419412000000001
#
# number of rings (size 3 to 8) (size 9 to 14) (size 15 to 20)
#    0.000    0.615    6.154    0.923    6.462    3.692 
#    0.000    0.000    0.000    0.000    0.000    0.000 
#    0.000    0.000    0.000    0.000    0.000    0.000 
#
# Total GULP energy -144913.704974 kJ/mol
# GULP energy per Si atom -5573.604037 kJ/mol
# Density = 2.037294 g / cm^3
# Si number density = 20.419412 Si / 1000 Ang^3
#
#
#
# Elastic Constant Matrix: (Units=GPa)
#
#
# Indices 1 2 3 4 5 6 
#
# 1 117.8417 40.8120 56.1218 0.0000 -10.4350 0.0000
# 2 40.8120 90.3380 30.8324 0.0000 -7.9681 0.0000
# 3 56.1218 30.8324 94.0613 0.0000 -20.9373 0.0000
# 4 0.0000 0.0000 0.0000 13.1660 0.0000 -16.8390
# 5 -10.4350 -7.9681 -20.9373 0.0000 39.8009 0.0000
# 6 0.0000 0.0000 0.0000 -16.8390 0.0000 36.1181
#
#
#
# Elastic Compliance Matrix: (Units=1/GPa)
#
#
# Indices 1 2 3 4 5 6 
#
# 1 0.012831 -0.003597 -0.006669 0.000000 -0.000864 0.000000
# 2 -0.003597 0.013478 -0.002131 0.000000 0.000634 0.000000
# 3 -0.006669 -0.002131 0.016791 0.000000 0.006658 0.000000
# 4 0.000000 0.000000 0.000000 0.188136 0.000000 0.087713
# 5 -0.000864 0.000634 0.006658 0.000000 0.028528 0.000000
# 6 0.000000 0.000000 0.000000 0.087713 0.000000 0.068581
#
#
# Mechanical properties :
#
#
# Convention : Reuss Voigt Hill
#
# Bulk Modulus (GPa) = 54.62506 61.97483 58.29994
# Shear Modulus (GPa) = 13.91828 29.44865 21.68346
#
# Velocity S-wave (km/s) = 2.61362 3.80174 3.26222
# Velocity P-wave (km/s) = 5.99313 7.04895 6.54238
#
# Compressibility (1/GPa) = 0.01830662
#
# Stress axis : x y z
#
# Youngs Moduli (GPa) = 77.93439 74.19717 59.55606
#
# Poissons Ratio (x) = 0.26688 0.39719
# Poissons Ratio (y) = 0.28032 0.12689
# Poissons Ratio (z) = 0.51976 0.15808
#
# Static dielectric constant tensor:
#      x y z
#    x 1.713520 0.000000 0.005930 
#    y 0.000000 1.680970 0.000000 
#    z 0.005930 0.000000 1.708430 
# 
# From -- ./inp_files/49214.got.cif
#   From: 2010.05.17/outbox.cif.g08.bks.cpg/sg15_25_cif.got.tgz:49214.got - 2010.06.03 18:47:42.
