data_PCOD9298546
_publ_section_title
;
Structure prediction by ZEFSAII (Michael W. Deem and Ramdas Pophale) SiO2 
 PCOD9298546
Probable space group: C 2/C
;
_chemical_formula_sum "Si O2"
_cell_formula_units_Z 52
_cell_length_a 9.394529
_cell_length_b 10.231729
_cell_length_c 28.399779
_cell_angle_alpha 90.000000
_cell_angle_beta 127.772217
_cell_angle_gamma 90.000000
_cell_volume 2157.816799
_symmetry_space_group_name_H-M "C 2/C"
_symmetry_group_IT_number 15
_symmetry_cell_setting 'monoclinic'
loop_
_space_group_symop_operation_xyz
x,y,z
-x,y,1/2-z
-x,-y,-z
x,-y,1/2+z
1/2+x,1/2+y,z
1/2-x,1/2+y,1/2-z
1/2-x,1/2-y,-z
1/2+x,1/2-y,1/2+z
loop_
_atom_site_type_symbol
_atom_site_label
_atom_site_fract_x
_atom_site_fract_y
_atom_site_fract_z
Si Si1 0.000000 0.585192 0.250000
Si Si2 0.858769 0.114961 0.277670
Si Si3 0.604604 0.374009 0.364602
Si Si4 0.590008 0.122609 0.841653
Si Si5 0.344612 0.807258 0.855911
Si Si6 0.495475 0.170104 0.578836
Si Si7 0.235240 0.403834 0.554800
O O1 0.192148 0.647601 0.279144
O O2 0.995288 0.489782 0.204910
O O3 0.983368 0.241860 0.311170
O O4 0.783848 0.123360 0.208860
O O5 0.965266 0.978619 0.311228
O O6 0.520249 0.236116 0.362739
O O7 0.790038 0.341162 0.374824
O O8 0.678669 0.454083 0.424570
O O9 0.777543 0.160528 0.856442
O O10 0.587153 0.085621 0.895305
O O11 0.334638 0.873738 0.905604
O O12 0.397445 0.308018 0.570538
O O13 0.422112 0.121248 0.514077
#
# Coordination Sequence:
#
# PCOD9298546 Si02
#       7
#     4   8   8   8   8   8   8
#     4  12  26  42  68  98 136 180 224 276 350 412
#     4  12  24  42  68  97 141 174 224 287 342 402
#     4  12  24  44  72 101 133 187 231 274 352 420
#     4  11  22  45  63  96 137 172 219 282 333 408
#     4  11  24  44  67  99 139 173 227 284 341 405
#     4  10  24  44  74 102 135 183 239 276 349 412
#     4  10  24  50  68  98 146 179 224 305 332 398
#
# _framework density 24.098431000000001
#
# number of rings (size 3 to 8) (size 9 to 14) (size 15 to 20)
#    0.000    0.923    6.154    0.462    4.308    0.615 
#    2.769    8.462    0.000    0.000    0.000    0.000 
#    0.000    0.000    0.000    0.000    0.000    0.000 
#
# Total GULP energy -145068.401835 kJ/mol
# GULP energy per Si atom -5579.553917 kJ/mol
# Density = 2.404358 g / cm^3
# Si number density = 24.098431 Si / 1000 Ang^3
#
#
#
# Elastic Constant Matrix: (Units=GPa)
#
#
# Indices 1 2 3 4 5 6 
#
# 1 123.6041 39.7447 54.1958 0.0000 9.3651 0.0000
# 2 39.7447 84.5473 37.1102 0.0000 -2.8899 0.0000
# 3 54.1958 37.1102 147.2037 0.0000 -26.7822 0.0000
# 4 0.0000 0.0000 0.0000 30.1094 0.0000 0.0496
# 5 9.3651 -2.8899 -26.7822 0.0000 32.2017 0.0000
# 6 0.0000 0.0000 0.0000 0.0496 0.0000 24.5263
#
#
#
# Elastic Compliance Matrix: (Units=1/GPa)
#
#
# Indices 1 2 3 4 5 6 
#
# 1 0.012075 -0.003780 -0.004941 0.000000 -0.007961 0.000000
# 2 -0.003780 0.014580 -0.002175 0.000000 0.000599 0.000000
# 3 -0.004941 -0.002175 0.011060 0.000000 0.010441 0.000000
# 4 0.000000 0.000000 0.000000 0.033212 0.000000 -0.000067
# 5 -0.007961 0.000599 0.010441 0.000000 0.042107 0.000000
# 6 0.000000 0.000000 0.000000 -0.000067 0.000000 0.040773
#
#
# Mechanical properties :
#
#
# Convention : Reuss Voigt Hill
#
# Bulk Modulus (GPa) = 62.80057 68.60627 65.70342
# Shear Modulus (GPa) = 27.63844 32.32110 29.97977
#
# Velocity S-wave (km/s) = 3.39026 3.66623 3.53094
# Velocity P-wave (km/s) = 6.43753 6.81562 6.62927
#
# Compressibility (1/GPa) = 0.01592342
#
# Stress axis : x y z
#
# Youngs Moduli (GPa) = 82.81256 68.58867 90.41203
#
# Poissons Ratio (x) = 0.25925 0.44675
# Poissons Ratio (y) = 0.31301 0.19665
# Poissons Ratio (z) = 0.40920 0.14918
#
# Static dielectric constant tensor:
#      x y z
#    x 2.076930 0.000000 0.051440 
#    y 0.000000 1.970550 0.000000 
#    z 0.051440 0.000000 1.956300 
# 
# From -- ./inp_files/307302.got.cif
#   From: 2010.05.17/outbox.cif.g08.bks.cpg/sg15_154_cif.got.tgz:307302.got - 2010.06.03 18:47:42.
