data_PCOD9298674
_publ_section_title
;
Structure prediction by ZEFSAII (Michael W. Deem and Ramdas Pophale) SiO2 
 PCOD9298674
Probable space group: C 2/C
;
_chemical_formula_sum "Si O2"
_cell_formula_units_Z 44
_cell_length_a 11.414236
_cell_length_b 8.187985
_cell_length_c 20.478910
_cell_angle_alpha 90.000000
_cell_angle_beta 115.043464
_cell_angle_gamma 90.000000
_cell_volume 1734.014230
_symmetry_space_group_name_H-M "C 2/C"
_symmetry_group_IT_number 15
_symmetry_cell_setting 'monoclinic'
loop_
_space_group_symop_operation_xyz
x,y,z
-x,y,1/2-z
-x,-y,-z
x,-y,1/2+z
1/2+x,1/2+y,z
1/2-x,1/2+y,1/2-z
1/2-x,1/2-y,-z
1/2+x,1/2-y,1/2+z
loop_
_atom_site_type_symbol
_atom_site_label
_atom_site_fract_x
_atom_site_fract_y
_atom_site_fract_z
Si Si1 0.972017 0.965890 0.130784
Si Si2 0.175510 0.722915 0.862847
Si Si3 0.547549 0.739283 0.537088
Si Si4 0.719465 0.685952 0.222469
Si Si5 0.549058 0.081272 0.613216
Si Si6 0.000000 0.295411 0.750000
O O1 0.964492 0.891411 0.057086
O O2 0.964093 0.821058 0.180742
O O3 0.110280 0.053758 0.177789
O O4 0.866256 0.101934 0.118608
O O5 0.307108 0.671599 0.928679
O O6 0.198661 0.757729 0.792073
O O7 0.058637 0.603110 0.855444
O O8 0.495842 0.798478 0.455951
O O9 0.553901 0.902495 0.583921
O O10 0.682570 0.845812 0.171217
O O11 0.863788 0.626944 0.240440
#
# Coordination Sequence:
#
# PCOD9298674 Si02
#       6
#     8   8   8   8   8   4
#     4  11  23  43  68  98 132 175 221 281 331 398
#     4  11  22  45  69  98 137 175 225 280 334 399
#     4  11  24  44  68 103 137 176 227 270 342 400
#     4  11  24  43  70 101 136 176 227 278 340 396
#     4  10  24  45  69 101 140 179 220 281 331 406
#     4  12  22  42  66 100 134 172 220 282 332 394
#
# _framework density 25.374649000000002
#
# number of rings (size 3 to 8) (size 9 to 14) (size 15 to 20)
#    0.000    1.091    3.636    3.273    0.000    4.364 
#    3.273    8.182    0.000    0.000    0.000    0.000 
#    0.000    0.000    0.000    0.000    0.000    0.000 
#
# Total GULP energy -123413.015262 kJ/mol
# GULP energy per Si atom -5609.682512 kJ/mol
# Density = 2.531689 g / cm^3
# Si number density = 25.374649 Si / 1000 Ang^3
#
#
#
# Elastic Constant Matrix: (Units=GPa)
#
#
# Indices 1 2 3 4 5 6 
#
# 1 143.0328 34.4501 53.1847 0.0000 -20.4895 0.0000
# 2 34.4501 66.9198 29.2060 0.0000 -7.0840 0.0000
# 3 53.1847 29.2060 139.7166 0.0000 -14.6254 0.0000
# 4 0.0000 0.0000 0.0000 42.8969 0.0000 -8.0059
# 5 -20.4895 -7.0840 -14.6254 0.0000 30.0526 0.0000
# 6 0.0000 0.0000 0.0000 -8.0059 0.0000 42.4552
#
#
#
# Elastic Compliance Matrix: (Units=1/GPa)
#
#
# Indices 1 2 3 4 5 6 
#
# 1 0.009302 -0.003277 -0.002395 0.000000 0.004404 0.000000
# 2 -0.003277 0.017753 -0.002381 0.000000 0.000792 0.000000
# 3 -0.002395 -0.002381 0.008784 0.000000 0.002081 0.000000
# 4 0.000000 0.000000 0.000000 0.024162 0.000000 0.004556
# 5 0.004404 0.000792 0.002081 0.000000 0.037477 0.000000
# 6 0.000000 0.000000 0.000000 0.004556 0.000000 0.024413
#
#
# Mechanical properties :
#
#
# Convention : Reuss Voigt Hill
#
# Bulk Modulus (GPa) = 50.67353 64.81674 57.74514
# Shear Modulus (GPa) = 34.58385 38.60283 36.59334
#
# Velocity S-wave (km/s) = 3.69579 3.90464 3.80165
# Velocity P-wave (km/s) = 6.18266 6.77699 6.48664
#
# Compressibility (1/GPa) = 0.01973417
#
# Stress axis : x y z
#
# Youngs Moduli (GPa) = 107.50214 56.32778 113.83714
#
# Poissons Ratio (x) = 0.18460 0.27263
# Poissons Ratio (y) = 0.35232 0.27101
# Poissons Ratio (z) = 0.25745 0.13410
#
# Static dielectric constant tensor:
#      x y z
#    x 1.963990 0.000000 -0.029400 
#    y 0.000000 2.035310 0.000000 
#    z -0.029400 0.000000 1.963940 
# 
# From -- ./inp_files/236175.got.cif
#   From: 2010.05.17/outbox.cif.g08.bks.cpg/sg15_119_cif.got.tgz:236175.got - 2010.06.03 18:47:42.
