data_PCOD9298532
_publ_section_title
;
Structure prediction by ZEFSAII (Michael W. Deem and Ramdas Pophale) SiO2 
 PCOD9298532
Probable space group: C 2/C
;
_chemical_formula_sum "Si O2"
_cell_formula_units_Z 48
_cell_length_a 22.547812
_cell_length_b 7.128860
_cell_length_c 15.702601
_cell_angle_alpha 90.000000
_cell_angle_beta 47.850216
_cell_angle_gamma 90.000000
_cell_volume 1871.305034
_symmetry_space_group_name_H-M "C 2/C"
_symmetry_group_IT_number 15
_symmetry_cell_setting 'monoclinic'
loop_
_space_group_symop_operation_xyz
x,y,z
-x,y,1/2-z
-x,-y,-z
x,-y,1/2+z
1/2+x,1/2+y,z
1/2-x,1/2+y,1/2-z
1/2-x,1/2-y,-z
1/2+x,1/2-y,1/2+z
loop_
_atom_site_type_symbol
_atom_site_label
_atom_site_fract_x
_atom_site_fract_y
_atom_site_fract_z
Si Si1 0.085098 0.160515 0.074011
Si Si2 0.727393 0.499920 0.697282
Si Si3 0.666312 0.838240 0.158865
Si Si4 0.494412 0.996585 0.650212
Si Si5 0.722400 0.388935 0.891440
Si Si6 0.537787 0.581547 0.876832
O O1 0.131136 0.231073 0.112535
O O2 0.062449 0.359996 0.052299
O O3 0.140558 0.000163 0.981254
O O4 0.999985 0.053924 0.158687
O O5 0.725006 0.306888 0.648324
O O6 0.752655 0.449446 0.768491
O O7 0.634085 0.568608 0.785664
O O8 0.779727 0.666008 0.607932
O O9 0.590161 0.903291 0.286730
O O10 0.716537 0.028110 0.097855
O O11 0.500000 0.984310 0.750000
O O12 0.491086 0.791560 0.614458
O O13 0.500000 0.500000 0.000000
#
# Coordination Sequence:
#
# PCOD9298532 Si02
#       6
#     8   8   8   8   8   8
#     4  11  26  44  71 109 142 185 250 306 354 442
#     4  12  25  43  71 101 143 195 236 297 373 436
#     4  11  24  45  73 101 145 190 239 297 365 441
#     4  10  24  44  73 104 144 192 237 300 368 430
#     4  12  25  46  68 102 146 187 238 300 375 432
#     4  12  25  44  70 106 145 187 253 304 360 428
#
# _framework density 25.650549999999999
#
# number of rings (size 3 to 8) (size 9 to 14) (size 15 to 20)
#    0.000    0.667    6.667    0.500    2.333    2.667 
#    3.000    0.000    0.000    0.000    0.000    0.000 
#    0.000    0.000    0.000    0.000    0.000    0.000 
#
# Total GULP energy -134333.554219 kJ/mol
# GULP energy per Si atom -5597.231426 kJ/mol
# Density = 2.559217 g / cm^3
# Si number density = 25.650550 Si / 1000 Ang^3
#
#
#
# Elastic Constant Matrix: (Units=GPa)
#
#
# Indices 1 2 3 4 5 6 
#
# 1 110.6416 31.5403 13.6153 -0.0017 6.5430 0.0011
# 2 31.5403 189.7451 31.1225 -0.0076 4.5059 0.0068
# 3 13.6153 31.1225 58.9348 -0.0051 -5.9587 0.0027
# 4 -0.0017 -0.0076 -0.0051 44.8947 0.0040 -7.3161
# 5 6.5430 4.5059 -5.9587 0.0040 34.5113 -0.0015
# 6 0.0011 0.0068 0.0027 -7.3161 -0.0015 54.8052
#
#
#
# Elastic Compliance Matrix: (Units=1/GPa)
#
#
# Indices 1 2 3 4 5 6 
#
# 1 0.009739 -0.001281 -0.001774 0.000000 -0.001986 0.000000
# 2 -0.001281 0.005996 -0.002977 0.000001 -0.001054 -0.000001
# 3 -0.001774 -0.002977 0.019361 0.000001 0.004068 0.000000
# 4 0.000000 0.000001 0.000001 0.022770 -0.000002 0.003040
# 5 -0.001986 -0.001054 0.004068 -0.000002 0.030193 0.000000
# 6 0.000000 -0.000001 0.000000 0.003040 0.000000 0.018652
#
#
# Mechanical properties :
#
#
# Convention : Reuss Voigt Hill
#
# Bulk Modulus (GPa) = 43.41767 56.87529 50.14648
# Shear Modulus (GPa) = 39.54020 45.71181 42.62601
#
# Velocity S-wave (km/s) = 3.93045 4.22607 4.08094
# Velocity P-wave (km/s) = 6.12872 6.78485 6.46511
#
# Compressibility (1/GPa) = 0.02303210
#
# Stress axis : x y z
#
# Youngs Moduli (GPa) = 102.67943 166.76400 51.64909
#
# Poissons Ratio (x) = 0.21357 0.09165
# Poissons Ratio (y) = 0.13150 0.15378
# Poissons Ratio (z) = 0.18219 0.49652
#
# Static dielectric constant tensor:
#      x y z
#    x 2.043220 0.000000 0.024840 
#    y 0.000000 1.943260 0.000000 
#    z 0.024840 0.000000 2.109730 
# 
# From -- ./inp_files/254251.got.cif
#   From: 2010.05.17/outbox.cif.g08.bks.cpg/sg15_128_cif.got.tgz:254251.got - 2010.06.03 18:47:42.
