data_PCOD9298490
_publ_section_title
;
Structure prediction by ZEFSAII (Michael W. Deem and Ramdas Pophale) SiO2 
 PCOD9298490
Probable space group: C 2/C
;
_chemical_formula_sum "Si O2"
_cell_formula_units_Z 48
_cell_length_a 6.108197
_cell_length_b 14.540344
_cell_length_c 26.501903
_cell_angle_alpha 90.000000
_cell_angle_beta 83.382063
_cell_angle_gamma 90.000000
_cell_volume 2338.090263
_symmetry_space_group_name_H-M "C 2/C"
_symmetry_group_IT_number 15
_symmetry_cell_setting 'monoclinic'
loop_
_space_group_symop_operation_xyz
x,y,z
-x,y,1/2-z
-x,-y,-z
x,-y,1/2+z
1/2+x,1/2+y,z
1/2-x,1/2+y,1/2-z
1/2-x,1/2-y,-z
1/2+x,1/2-y,1/2+z
loop_
_atom_site_type_symbol
_atom_site_label
_atom_site_fract_x
_atom_site_fract_y
_atom_site_fract_z
Si Si1 0.732101 0.269804 0.441328
Si Si2 0.569856 0.125001 0.110285
Si Si3 0.066694 0.222194 0.349504
Si Si4 0.333807 0.527802 0.349505
Si Si5 0.000000 0.914765 0.250000
Si Si6 0.500000 0.164770 0.750000
Si Si7 0.423424 0.519804 0.558672
O O1 0.750000 0.250000 0.500000
O O2 0.573840 0.189754 0.422720
O O3 0.656881 0.375000 0.436248
O O4 0.957472 0.260014 0.403637
O O5 0.682777 0.197123 0.145178
O O6 0.422037 0.052877 0.145177
O O7 0.746560 0.060248 0.077280
O O8 0.021570 0.282927 0.302560
O O9 0.954101 0.124997 0.341812
O O10 0.425867 0.467068 0.302560
O O11 0.388895 0.489983 0.403637
O O12 0.245334 0.874998 0.259332
O O13 0.500000 0.500000 0.500000
#
# Coordination Sequence:
#
# PCOD9298490 Si02
#       7
#     8   8   8   8   4   4   8
#     4  11  24  42  68 102 141 184 243 299 367 443
#     4  10  24  44  71  98 138 190 236 298 372 436
#     4  10  24  45  68  99 139 187 239 299 366 438
#     4  10  24  45  68  99 139 187 239 299 366 438
#     4  12  29  46  73 110 144 190 248 305 374 443
#     4  12  29  46  73 110 144 190 248 305 374 443
#     4  11  24  42  68 102 141 184 243 299 367 443
#
# _framework density 20.529575999999999
#
# number of rings (size 3 to 8) (size 9 to 14) (size 15 to 20)
#    0.000    1.333    0.000    4.500   14.000    5.333 
#    0.000    0.000    0.000    0.000    0.000    0.000 
#    0.000    0.000    0.000    0.000    0.000    0.000 
#
# Total GULP energy -133752.584161 kJ/mol
# GULP energy per Si atom -5573.024340 kJ/mol
# Density = 2.048285 g / cm^3
# Si number density = 20.529576 Si / 1000 Ang^3
#
#
#
# Elastic Constant Matrix: (Units=GPa)
#
#
# Indices 1 2 3 4 5 6 
#
# 1 124.2167 48.5672 76.3192 0.0000 1.7880 0.0000
# 2 48.5672 96.8998 45.4566 0.0000 0.1792 0.0000
# 3 76.3192 45.4566 173.9957 0.0000 -4.6166 0.0000
# 4 0.0000 0.0000 0.0000 16.5932 0.0000 0.6975
# 5 1.7880 0.1792 -4.6166 0.0000 8.6274 0.0000
# 6 0.0000 0.0000 0.0000 0.6975 0.0000 28.8828
#
#
#
# Elastic Compliance Matrix: (Units=1/GPa)
#
#
# Indices 1 2 3 4 5 6 
#
# 1 0.012534 -0.004140 -0.004548 0.000000 -0.004945 0.000000
# 2 -0.004140 0.013160 -0.001630 0.000000 -0.000287 0.000000
# 3 -0.004548 -0.001630 0.008312 0.000000 0.005424 0.000000
# 4 0.000000 0.000000 0.000000 0.060327 0.000000 -0.001457
# 5 -0.004945 -0.000287 0.005424 0.000000 0.119843 0.000000
# 6 0.000000 0.000000 0.000000 -0.001457 0.000000 0.034658
#
#
# Mechanical properties :
#
#
# Convention : Reuss Voigt Hill
#
# Bulk Modulus (GPa) = 74.78629 81.75536 78.27082
# Shear Modulus (GPa) = 18.25317 25.80530 22.02924
#
# Velocity S-wave (km/s) = 2.98504 3.54924 3.27930
# Velocity P-wave (km/s) = 6.95617 7.53033 7.24893
#
# Compressibility (1/GPa) = 0.01337143
#
# Stress axis : x y z
#
# Youngs Moduli (GPa) = 79.78110 75.98789 120.31313
#
# Poissons Ratio (x) = 0.31458 0.54713
# Poissons Ratio (y) = 0.33029 0.19609
# Poissons Ratio (z) = 0.36281 0.12385
#
# Static dielectric constant tensor:
#      x y z
#    x 1.906870 0.000000 0.011590 
#    y 0.000000 1.773090 0.000000 
#    z 0.011590 0.000000 1.703360 
# 
# From -- ./inp_files/285596.got.cif
#   From: 2010.05.17/outbox.cif.g08.bks.cpg/sg15_143_cif.got.tgz:285596.got - 2010.06.03 18:47:42.
