data_PCOD9298175
_publ_section_title
;
Structure prediction by ZEFSAII (Michael W. Deem and Ramdas Pophale) SiO2 
 PCOD9298175
Probable space group: C 2/C
;
_chemical_formula_sum "Si O2"
_cell_formula_units_Z 40
_cell_length_a 20.582640
_cell_length_b 7.534767
_cell_length_c 11.882221
_cell_angle_alpha 90.000000
_cell_angle_beta 86.673566
_cell_angle_gamma 90.000000
_cell_volume 1839.654189
_symmetry_space_group_name_H-M "C 2/C"
_symmetry_group_IT_number 15
_symmetry_cell_setting 'monoclinic'
loop_
_space_group_symop_operation_xyz
x,y,z
-x,y,1/2-z
-x,-y,-z
x,-y,1/2+z
1/2+x,1/2+y,z
1/2-x,1/2+y,1/2-z
1/2-x,1/2-y,-z
1/2+x,1/2-y,1/2+z
loop_
_atom_site_type_symbol
_atom_site_label
_atom_site_fract_x
_atom_site_fract_y
_atom_site_fract_z
Si Si1 0.605959 0.441953 0.541836
Si Si2 0.545934 0.914908 0.333124
Si Si3 0.483524 0.263290 0.435689
Si Si4 0.273657 0.618318 0.095464
Si Si5 0.672993 0.161159 0.701327
O O1 0.549807 0.356133 0.470230
O O2 0.567122 0.598288 0.611897
O O3 0.662209 0.522157 0.458299
O O4 0.638050 0.298184 0.620376
O O5 0.500000 0.810724 0.250000
O O6 0.551712 0.808148 0.447910
O O7 0.615552 0.944272 0.271043
O O8 0.505623 0.091524 0.365958
O O9 0.289100 0.728635 0.206880
O O10 0.219706 0.471468 0.130432
O O11 0.250000 0.750000 0.000000
#
# Coordination Sequence:
#
# PCOD9298175 Si02
#       5
#     8   8   8   8   8
#     4  11  24  46  70 103 141 180 236 295 358 419
#     4  11  23  43  71 102 137 181 234 287 356 426
#     4  10  24  43  72 103 139 178 225 303 353 413
#     4  12  29  47  70 101 142 190 240 296 347 422
#     4  12  27  46  73 102 142 192 242 286 362 424
#
# _framework density 21.743217000000001
#
# number of rings (size 3 to 8) (size 9 to 14) (size 15 to 20)
#    0.000    0.800    4.000    1.800    8.400    1.600 
#    0.000    0.000    0.000    0.000    0.000    0.000 
#    0.000    0.000    0.000    0.000    0.000    0.000 
#
# Total GULP energy -111914.226704 kJ/mol
# GULP energy per Si atom -5595.711335 kJ/mol
# Density = 2.169373 g / cm^3
# Si number density = 21.743217 Si / 1000 Ang^3
#
#
#
# Elastic Constant Matrix: (Units=GPa)
#
#
# Indices 1 2 3 4 5 6 
#
# 1 155.7880 81.1568 65.3043 0.0000 -23.7433 0.0000
# 2 81.1568 114.8877 64.8669 0.0000 -15.6131 0.0000
# 3 65.3043 64.8669 99.2213 0.0000 -4.3808 0.0000
# 4 0.0000 0.0000 0.0000 27.7244 0.0000 2.7187
# 5 -23.7433 -15.6131 -4.3808 0.0000 35.3402 0.0000
# 6 0.0000 0.0000 0.0000 2.7187 0.0000 47.1257
#
#
#
# Elastic Compliance Matrix: (Units=1/GPa)
#
#
# Indices 1 2 3 4 5 6 
#
# 1 0.011580 -0.005273 -0.003955 0.000000 0.004960 0.000000
# 2 -0.005273 0.017138 -0.007598 0.000000 0.003087 0.000000
# 3 -0.003955 -0.007598 0.017479 0.000000 -0.003847 0.000000
# 4 0.000000 0.000000 0.000000 0.036275 0.000000 -0.002093
# 5 0.004960 0.003087 -0.003847 0.000000 0.032516 0.000000
# 6 0.000000 0.000000 0.000000 -0.002093 0.000000 0.021341
#
#
# Mechanical properties :
#
#
# Convention : Reuss Voigt Hill
#
# Bulk Modulus (GPa) = 79.70982 88.06144 83.88563
# Shear Modulus (GPa) = 28.70917 32.60932 30.65925
#
# Velocity S-wave (km/s) = 3.63764 3.87686 3.75915
# Velocity P-wave (km/s) = 7.37444 7.78644 7.58324
#
# Compressibility (1/GPa) = 0.01254551
#
# Stress axis : x y z
#
# Youngs Moduli (GPa) = 86.35789 58.35014 57.21192
#
# Poissons Ratio (x) = 0.30766 0.22630
# Poissons Ratio (y) = 0.45533 0.43467
# Poissons Ratio (z) = 0.34158 0.44332
#
# Static dielectric constant tensor:
#      x y z
#    x 1.688810 0.000000 -0.120120 
#    y 0.000000 1.846400 0.000000 
#    z -0.120120 0.000000 1.556910 
# 
# From -- ./inp_files/102785.got.cif
#   From: 2010.05.17/outbox.cif.g08.bks.cpg/sg15_52_cif.got.tgz:102785.got - 2010.06.03 18:47:42.
