data_PCOD9298114
_publ_section_title
;
Structure prediction by ZEFSAII (Michael W. Deem and Ramdas Pophale) SiO2 
 PCOD9298114
Probable space group: C 2/C
;
_chemical_formula_sum "Si O2"
_cell_formula_units_Z 56
_cell_length_a 21.859657
_cell_length_b 14.053507
_cell_length_c 18.052699
_cell_angle_alpha 90.000000
_cell_angle_beta 27.223030
_cell_angle_gamma 90.000000
_cell_volume 2536.991125
_symmetry_space_group_name_H-M "C 2/C"
_symmetry_group_IT_number 15
_symmetry_cell_setting 'monoclinic'
loop_
_space_group_symop_operation_xyz
x,y,z
-x,y,1/2-z
-x,-y,-z
x,-y,1/2+z
1/2+x,1/2+y,z
1/2-x,1/2+y,1/2-z
1/2-x,1/2-y,-z
1/2+x,1/2-y,1/2+z
loop_
_atom_site_type_symbol
_atom_site_label
_atom_site_fract_x
_atom_site_fract_y
_atom_site_fract_z
Si Si1 0.036497 0.788373 0.492190
Si Si2 0.341978 0.169048 0.435240
Si Si3 0.853165 0.666155 0.898362
Si Si4 0.565995 0.862661 0.505961
Si Si5 0.745073 0.349769 0.667963
Si Si6 0.173565 0.486102 0.667600
Si Si7 0.710265 0.529032 0.812255
O O1 0.148516 0.723629 0.411177
O O2 0.096335 0.893920 0.418139
O O3 0.997516 0.733285 0.458691
O O4 0.898222 0.798488 0.686113
O O5 0.500000 0.187469 0.250000
O O6 0.250000 0.250000 0.500000
O O7 0.336518 0.158256 0.529628
O O8 0.302022 0.075665 0.432148
O O9 0.856894 0.591090 0.828334
O O10 0.000000 0.706791 0.750000
O O11 0.750000 0.750000 0.000000
O O12 0.807003 0.615952 0.024227
O O13 0.450495 0.933007 0.659195
O O14 0.651313 0.913682 0.350574
O O15 0.718714 0.438278 0.750268
O O16 0.290127 0.493417 0.602701
#
# Coordination Sequence:
#
# PCOD9298114 Si02
#       7
#     8   8   8   8   8   8   8
#     4  12  26  45  73 110 147 189 248 305 365 439
#     4  10  24  43  69 101 138 183 230 287 358 428
#     4  12  26  46  72  99 143 187 239 293 355 433
#     4  11  24  44  75 102 146 193 243 296 366 443
#     4  12  26  47  72 109 144 193 242 302 372 432
#     4  11  24  46  68 109 136 187 240 291 361 437
#     4  12  25  43  74 106 146 186 246 304 366 431
#
# _framework density 22.073391999999998
#
# number of rings (size 3 to 8) (size 9 to 14) (size 15 to 20)
#    0.000    0.571    2.857    5.571    8.000    0.000 
#    0.000    0.714    0.000    0.000    0.000    0.000 
#    0.000    0.000    0.000    0.000    0.000    0.000 
#
# Total GULP energy -156693.400662 kJ/mol
# GULP energy per Si atom -5596.192881 kJ/mol
# Density = 2.202315 g / cm^3
# Si number density = 22.073392 Si / 1000 Ang^3
#
#
#
# Elastic Constant Matrix: (Units=GPa)
#
#
# Indices 1 2 3 4 5 6 
#
# 1 110.5955 51.8059 41.6310 0.0000 1.8126 0.0000
# 2 51.8059 116.5209 44.6780 0.0000 -22.0076 0.0000
# 3 41.6310 44.6780 90.7954 0.0000 -11.0142 0.0000
# 4 0.0000 0.0000 0.0000 27.6670 0.0000 -0.5108
# 5 1.8126 -22.0076 -11.0142 0.0000 27.4500 0.0000
# 6 0.0000 0.0000 0.0000 -0.5108 0.0000 48.7991
#
#
#
# Elastic Compliance Matrix: (Units=1/GPa)
#
#
# Indices 1 2 3 4 5 6 
#
# 1 0.013414 -0.005698 -0.004214 0.000000 -0.007145 0.000000
# 2 -0.005698 0.014325 -0.003151 0.000000 0.010597 0.000000
# 3 -0.004214 -0.003151 0.014951 0.000000 0.003751 0.000000
# 4 0.000000 0.000000 0.000000 0.036151 0.000000 0.000378
# 5 -0.007145 0.010597 0.003751 0.000000 0.046903 0.000000
# 6 0.000000 0.000000 0.000000 0.000378 0.000000 0.020496
#
#
# Mechanical properties :
#
#
# Convention : Reuss Voigt Hill
#
# Bulk Modulus (GPa) = 60.36509 66.01573 63.19041
# Shear Modulus (GPa) = 28.10774 32.76968 30.43871
#
# Velocity S-wave (km/s) = 3.57231 3.85720 3.71749
# Velocity P-wave (km/s) = 6.66499 7.05760 6.86410
#
# Compressibility (1/GPa) = 0.01656587
#
# Stress axis : x y z
#
# Youngs Moduli (GPa) = 74.54813 69.80762 66.88384
#
# Poissons Ratio (x) = 0.39775 0.28182
# Poissons Ratio (y) = 0.42476 0.21075
# Poissons Ratio (z) = 0.31411 0.21996
#
# Static dielectric constant tensor:
#      x y z
#    x 1.887700 0.000000 0.031420 
#    y 0.000000 1.748580 0.000000 
#    z 0.031420 0.000000 1.799700 
# 
# From -- ./inp_files/215721.got.cif
#   From: 2010.05.17/outbox.cif.g08.bks.cpg/sg15_108_cif.got.tgz:215721.got - 2010.06.03 18:47:42.
