data_PCOD9298054
_publ_section_title
;
Structure prediction by ZEFSAII (Michael W. Deem and Ramdas Pophale) SiO2 
 PCOD9298054
Probable space group: C 2/C
;
_chemical_formula_sum "Si O2"
_cell_formula_units_Z 48
_cell_length_a 21.536656
_cell_length_b 11.579074
_cell_length_c 8.614268
_cell_angle_alpha 90.000000
_cell_angle_beta 99.766202
_cell_angle_gamma 90.000000
_cell_volume 2117.047935
_symmetry_space_group_name_H-M "C 2/C"
_symmetry_group_IT_number 15
_symmetry_cell_setting 'monoclinic'
loop_
_space_group_symop_operation_xyz
x,y,z
-x,y,1/2-z
-x,-y,-z
x,-y,1/2+z
1/2+x,1/2+y,z
1/2-x,1/2+y,1/2-z
1/2-x,1/2-y,-z
1/2+x,1/2-y,1/2+z
loop_
_atom_site_type_symbol
_atom_site_label
_atom_site_fract_x
_atom_site_fract_y
_atom_site_fract_z
Si Si1 0.728348 0.374600 0.237272
Si Si2 0.421888 0.727249 0.370350
Si Si3 0.657006 0.538920 0.003646
Si Si4 0.849550 0.663665 0.329859
Si Si5 0.561681 0.327718 0.972889
Si Si6 0.853011 0.576371 0.980932
O O1 0.716108 0.467806 0.097689
O O2 0.677001 0.411682 0.346282
O O3 0.710664 0.246894 0.172495
O O4 0.794418 0.381223 0.350840
O O5 0.364916 0.645569 0.401121
O O6 0.424216 0.732395 0.186343
O O7 0.486753 0.667791 0.453732
O O8 0.412458 0.852903 0.439580
O O9 0.599363 0.448007 0.978338
O O10 0.908212 0.749408 0.380789
O O11 0.855438 0.559608 0.452814
O O12 0.846460 0.611743 0.156634
#
# Coordination Sequence:
#
# PCOD9298054 Si02
#       6
#     8   8   8   8   8   8
#     4  11  24  41  69 100 138 170 225 275 341 402
#     4  11  23  42  67  96 134 177 221 276 336 395
#     4  11  21  42  67 101 133 173 218 281 340 396
#     4  11  25  44  64  98 132 177 230 271 336 391
#     4  10  24  43  66  97 132 175 228 276 331 402
#     4  12  25  42  68  95 138 181 222 275 333 405
#
# _framework density 22.673079999999999
#
# number of rings (size 3 to 8) (size 9 to 14) (size 15 to 20)
#    0.000    1.000    3.333    3.000    2.333    1.333 
#    0.000    4.167    0.000    0.000    0.000    0.000 
#    0.000    0.000    0.000    0.000    0.000    0.000 
#
# Total GULP energy -134334.019666 kJ/mol
# GULP energy per Si atom -5597.250819 kJ/mol
# Density = 2.262148 g / cm^3
# Si number density = 22.673080 Si / 1000 Ang^3
#
#
#
# Elastic Constant Matrix: (Units=GPa)
#
#
# Indices 1 2 3 4 5 6 
#
# 1 52.9009 23.0222 4.7925 0.0000 12.5299 0.0000
# 2 23.0222 108.1599 20.2954 0.0000 -5.6761 0.0000
# 3 4.7925 20.2954 71.0533 0.0000 15.0417 0.0000
# 4 0.0000 0.0000 0.0000 45.7810 0.0000 3.4668
# 5 12.5299 -5.6761 15.0417 0.0000 26.6011 0.0000
# 6 0.0000 0.0000 0.0000 3.4668 0.0000 23.5588
#
#
#
# Elastic Compliance Matrix: (Units=1/GPa)
#
#
# Indices 1 2 3 4 5 6 
#
# 1 0.025172 -0.006813 0.003483 0.000000 -0.015280 0.000000
# 2 -0.006813 0.012036 -0.004773 0.000000 0.008476 0.000000
# 3 0.003483 -0.004773 0.017909 0.000000 -0.012786 0.000000
# 4 0.000000 0.000000 0.000000 0.022089 0.000000 -0.003251
# 5 -0.015280 0.008476 -0.012786 0.000000 0.053828 0.000000
# 6 0.000000 0.000000 0.000000 -0.003251 0.000000 0.042925
#
#
# Mechanical properties :
#
#
# Convention : Reuss Voigt Hill
#
# Bulk Modulus (GPa) = 25.69971 36.48159 31.09065
# Shear Modulus (GPa) = 24.61390 31.45511 28.03450
#
# Velocity S-wave (km/s) = 3.29842 3.72873 3.52016
# Velocity P-wave (km/s) = 5.08582 5.88754 5.50131
#
# Compressibility (1/GPa) = 0.03891094
#
# Stress axis : x y z
#
# Youngs Moduli (GPa) = 39.72653 83.08223 55.83775
#
# Poissons Ratio (x) = 0.56608 -0.19449
# Poissons Ratio (y) = 0.27067 0.26651
# Poissons Ratio (z) = -0.13837 0.39654
#
# Static dielectric constant tensor:
#      x y z
#    x 1.828740 0.000000 0.018990 
#    y 0.000000 1.835380 0.000000 
#    z 0.018990 0.000000 1.824910 
# 
# From -- ./inp_files/60889.got.cif
#   From: 2010.05.17/outbox.cif.g08.bks.cpg/sg15_31_cif.got.tgz:60889.got - 2010.06.03 18:47:42.
