data_PCOD9298102
_publ_section_title
;
Structure prediction by ZEFSAII (Michael W. Deem and Ramdas Pophale) SiO2 
 PCOD9298102
Probable space group: C 2/C
;
_chemical_formula_sum "Si O2"
_cell_formula_units_Z 40
_cell_length_a 15.419618
_cell_length_b 11.662900
_cell_length_c 18.020920
_cell_angle_alpha 90.000000
_cell_angle_beta 33.298928
_cell_angle_gamma 90.000000
_cell_volume 1779.242524
_symmetry_space_group_name_H-M "C 2/C"
_symmetry_group_IT_number 15
_symmetry_cell_setting 'monoclinic'
loop_
_space_group_symop_operation_xyz
x,y,z
-x,y,1/2-z
-x,-y,-z
x,-y,1/2+z
1/2+x,1/2+y,z
1/2-x,1/2+y,1/2-z
1/2-x,1/2-y,-z
1/2+x,1/2-y,1/2+z
loop_
_atom_site_type_symbol
_atom_site_label
_atom_site_fract_x
_atom_site_fract_y
_atom_site_fract_z
Si Si1 0.593383 0.852797 0.500446
Si Si2 0.671505 0.939257 0.600906
Si Si3 0.601856 0.615891 0.428934
Si Si4 0.709887 0.049647 0.339659
Si Si5 0.820461 0.141640 0.408382
O O1 0.642638 0.853795 0.551407
O O2 0.531829 0.735624 0.507752
O O3 0.446945 0.939676 0.597164
O O4 0.726314 0.916081 0.353787
O O5 0.500000 0.984135 0.750000
O O6 0.754485 0.891231 0.614725
O O7 0.790936 0.034384 0.483809
O O8 0.500000 0.500000 0.500000
O O9 0.662479 0.613931 0.301734
O O10 0.710484 0.115252 0.416546
O O11 0.750000 0.250000 0.500000
O O12 0.000000 0.150605 0.250000
#
# Coordination Sequence:
#
# PCOD9298102 Si02
#       5
#     8   8   8   8   8
#     4  10  24  46  66  99 141 179 229 291 353 433
#     4  11  23  46  69 101 138 190 231 287 369 425
#     4  12  26  41  73 106 134 181 241 295 348 430
#     4  10  24  43  68  96 136 183 229 286 362 415
#     4  11  25  43  66 100 142 185 236 301 358 425
#
# _framework density 22.481477999999999
#
# number of rings (size 3 to 8) (size 9 to 14) (size 15 to 20)
#    0.000    1.200    2.000    2.400    8.400    0.000 
#    0.000    1.000    0.000    0.000    0.000    0.000 
#    0.000    0.000    0.000    0.000    0.000    0.000 
#
# Total GULP energy -111443.991105 kJ/mol
# GULP energy per Si atom -5572.199555 kJ/mol
# Density = 2.243031 g / cm^3
# Si number density = 22.481478 Si / 1000 Ang^3
#
#
#
# Elastic Constant Matrix: (Units=GPa)
#
#
# Indices 1 2 3 4 5 6 
#
# 1 100.9158 17.3380 5.7138 -0.0001 13.5099 0.0000
# 2 17.3380 91.1692 31.5388 -0.0003 13.1341 0.0001
# 3 5.7138 31.5388 94.2632 -0.0003 9.6757 0.0002
# 4 -0.0001 -0.0003 -0.0003 23.0740 0.0002 2.9904
# 5 13.5099 13.1341 9.6757 0.0002 44.2188 -0.0001
# 6 0.0000 0.0001 0.0002 2.9904 -0.0001 34.4108
#
#
#
# Elastic Compliance Matrix: (Units=1/GPa)
#
#
# Indices 1 2 3 4 5 6 
#
# 1 0.010557 -0.001680 0.000207 0.000000 -0.002772 0.000000
# 2 -0.001680 0.013030 -0.004003 0.000000 -0.002481 0.000000
# 3 0.000207 -0.004003 0.012091 0.000000 -0.001520 0.000000
# 4 0.000000 0.000000 0.000000 0.043833 0.000000 -0.003809
# 5 -0.002772 -0.002481 -0.001520 0.000000 0.024531 0.000000
# 6 0.000000 0.000000 0.000000 -0.003809 0.000000 0.029392
#
#
# Mechanical properties :
#
#
# Convention : Reuss Voigt Hill
#
# Bulk Modulus (GPa) = 40.44304 43.94770 42.19537
# Shear Modulus (GPa) = 32.75907 35.79123 34.27515
#
# Velocity S-wave (km/s) = 3.82142 3.99436 3.90884
# Velocity P-wave (km/s) = 6.12368 6.39250 6.25953
#
# Compressibility (1/GPa) = 0.02472614
#
# Stress axis : x y z
#
# Youngs Moduli (GPa) = 94.72185 76.74367 82.70281
#
# Poissons Ratio (x) = 0.12892 -0.01709
# Poissons Ratio (y) = 0.15912 0.33108
# Poissons Ratio (z) = -0.01957 0.30722
#
# Static dielectric constant tensor:
#      x y z
#    x 1.800440 0.000000 -0.045470 
#    y 0.000000 1.942080 0.000000 
#    z -0.045470 0.000000 1.943530 
# 
# From -- ./inp_files/210753.got.cif
#   From: 2010.05.17/outbox.cif.g08.bks.cpg/sg15_106_cif.got.tgz:210753.got - 2010.06.03 18:47:42.
