data_PCOD9298880
_publ_section_title
;
Structure prediction by ZEFSAII (Michael W. Deem and Ramdas Pophale) SiO2 
 PCOD9298880
Probable space group: C 2/C
;
_chemical_formula_sum "Si O2"
_cell_formula_units_Z 60
_cell_length_a 7.581503
_cell_length_b 25.584103
_cell_length_c 14.169261
_cell_angle_alpha 90.000000
_cell_angle_beta 76.356473
_cell_angle_gamma 90.000000
_cell_volume 2670.801397
_symmetry_space_group_name_H-M "C 2/C"
_symmetry_group_IT_number 15
_symmetry_cell_setting 'monoclinic'
loop_
_space_group_symop_operation_xyz
x,y,z
-x,y,1/2-z
-x,-y,-z
x,-y,1/2+z
1/2+x,1/2+y,z
1/2-x,1/2+y,1/2-z
1/2-x,1/2-y,-z
1/2+x,1/2-y,1/2+z
loop_
_atom_site_type_symbol
_atom_site_label
_atom_site_fract_x
_atom_site_fract_y
_atom_site_fract_z
Si Si1 0.394415 0.234525 0.620157
Si Si2 0.500000 0.935977 0.250000
Si Si3 0.623999 0.028777 0.350703
Si Si4 0.222111 0.414486 0.647957
Si Si5 0.695910 0.849117 0.129211
Si Si6 0.751932 0.320470 0.724512
Si Si7 0.509190 0.734759 0.902409
Si Si8 0.866279 0.099894 0.424584
O O1 0.513836 0.185311 0.637007
O O2 0.363349 0.276835 0.705413
O O3 0.497786 0.259648 0.517145
O O4 0.191594 0.222361 0.609247
O O5 0.661385 0.897625 0.201307
O O6 0.554389 0.971453 0.333310
O O7 0.446608 0.065195 0.391694
O O8 0.712963 0.046807 0.239497
O O9 0.769484 0.045224 0.409517
O O10 0.185988 0.358492 0.699027
O O11 0.422666 0.410764 0.581331
O O12 0.850965 0.809971 0.143736
O O13 0.763579 0.872818 0.022453
O O14 0.906600 0.287962 0.650356
O O15 0.657391 0.359968 0.661251
#
# Coordination Sequence:
#
# PCOD9298880 Si02
#       8
#     8   4   8   8   8   8   8   8
#     4  11  25  40  59  89 137 173 217 259 314 380
#     4  10  24  46  68  88 130 174 210 264 336 396
#     4   9  21  43  64  94 123 158 216 270 326 386
#     4   9  20  35  62  96 123 154 205 266 328 369
#     4  12  25  44  61  92 133 175 213 263 320 391
#     4  11  21  35  61  89 123 170 209 263 314 369
#     4  11  25  39  57  93 130 170 225 252 307 393
#     4  11  23  38  67  97 123 158 222 270 322 380
#
# _framework density 22.465167999999998
#
# number of rings (size 3 to 8) (size 9 to 14) (size 15 to 20)
#    0.000    1.600    1.333    4.000   11.200    1.600 
#    0.000    8.000    0.000    0.000    0.000    0.000 
#    0.000    0.000    0.000    0.000    0.000    0.000 
#
# Total GULP energy -167718.456110 kJ/mol
# GULP energy per Si atom -5590.615204 kJ/mol
# Density = 2.241404 g / cm^3
# Si number density = 22.465168 Si / 1000 Ang^3
#
#
#
# Elastic Constant Matrix: (Units=GPa)
#
#
# Indices 1 2 3 4 5 6 
#
# 1 92.3372 32.5034 29.9285 0.0000 -25.2892 0.0000
# 2 32.5034 91.7873 27.3797 0.0000 -18.2569 0.0000
# 3 29.9285 27.3797 71.1322 0.0000 -16.4091 0.0000
# 4 0.0000 0.0000 0.0000 10.2188 0.0000 -8.3741
# 5 -25.2892 -18.2569 -16.4091 0.0000 26.1746 0.0000
# 6 0.0000 0.0000 0.0000 -8.3741 0.0000 25.6886
#
#
#
# Elastic Compliance Matrix: (Units=1/GPa)
#
#
# Indices 1 2 3 4 5 6 
#
# 1 0.015878 -0.002370 -0.003052 0.000000 0.011774 0.000000
# 2 -0.002370 0.013709 -0.003042 0.000000 0.005365 0.000000
# 3 -0.003052 -0.003042 0.017938 0.000000 0.006175 0.000000
# 4 0.000000 0.000000 0.000000 0.133531 0.000000 0.043529
# 5 0.011774 0.005365 0.006175 0.000000 0.057194 0.000000
# 6 0.000000 0.000000 0.000000 0.043529 0.000000 0.053118
#
#
# Mechanical properties :
#
#
# Convention : Reuss Voigt Hill
#
# Bulk Modulus (GPa) = 32.68391 48.31998 40.50194
# Shear Modulus (GPa) = 15.69886 23.44607 19.57247
#
# Velocity S-wave (km/s) = 2.64637 3.23408 2.95487
# Velocity P-wave (km/s) = 4.89060 5.95829 5.45065
#
# Compressibility (1/GPa) = 0.03059610
#
# Stress axis : x y z
#
# Youngs Moduli (GPa) = 62.97914 72.94726 55.74841
#
# Poissons Ratio (x) = 0.17291 0.17015
# Poissons Ratio (y) = 0.14928 0.16957
# Poissons Ratio (z) = 0.19222 0.22189
#
# Static dielectric constant tensor:
#      x y z
#    x 1.911730 0.000000 0.014780 
#    y 0.000000 1.844700 0.000000 
#    z 0.014780 0.000000 1.864660 
# 
# From -- ./inp_files/192075.got.cif
#   From: 2010.05.17/outbox.cif.g08.bks.cpg/sg15_97_cif.got.tgz:192075.got - 2010.06.03 18:47:42.
