data_PCOD9298582
_publ_section_title
;
Structure prediction by ZEFSAII (Michael W. Deem and Ramdas Pophale) SiO2 
 PCOD9298582
Probable space group: C 2/C
;
_chemical_formula_sum "Si O2"
_cell_formula_units_Z 28
_cell_length_a 10.524171
_cell_length_b 13.163884
_cell_length_c 10.281469
_cell_angle_alpha 90.000000
_cell_angle_beta 121.869709
_cell_angle_gamma 90.000000
_cell_volume 1209.659528
_symmetry_space_group_name_H-M "C 2/C"
_symmetry_group_IT_number 15
_symmetry_cell_setting 'monoclinic'
loop_
_space_group_symop_operation_xyz
x,y,z
-x,y,1/2-z
-x,-y,-z
x,-y,1/2+z
1/2+x,1/2+y,z
1/2-x,1/2+y,1/2-z
1/2-x,1/2-y,-z
1/2+x,1/2-y,1/2+z
loop_
_atom_site_type_symbol
_atom_site_label
_atom_site_fract_x
_atom_site_fract_y
_atom_site_fract_z
Si Si1 0.500000 0.850036 0.250000
Si Si2 0.395178 0.347398 0.810323
Si Si3 0.162496 0.466266 0.542728
Si Si4 0.363192 0.343911 0.082797
O O1 0.574519 0.772954 0.187038
O O2 0.630259 0.914477 0.386317
O O3 0.500000 0.389956 0.750000
O O4 0.232308 0.383808 0.678291
O O5 0.424607 0.376107 0.973636
O O6 0.270207 0.562109 0.589805
O O7 0.000000 0.500000 0.500000
O O8 0.500000 0.316318 0.250000
O O9 0.250000 0.250000 0.000000
#
# Coordination Sequence:
#
# PCOD9298582 Si02
#       4
#     4   8   8   8
#     4  10  24  44  76 104 148 198 250 304 378 454
#     4  10  26  47  77 108 152 200 256 309 385 452
#     4  12  25  46  77 114 154 200 255 317 384 453
#     4  12  30  49  78 113 157 200 258 319 382 456
#
# _framework density 23.147009000000001
#
# number of rings (size 3 to 8) (size 9 to 14) (size 15 to 20)
#    0.857    0.000    0.000    5.143   10.000    6.857 
#    0.000    0.000    0.000    0.000    0.000    0.000 
#    0.000    0.000    0.000    0.000    0.000    0.000 
#
# Total GULP energy -78315.203522 kJ/mol
# GULP energy per Si atom -5593.943109 kJ/mol
# Density = 2.309433 g / cm^3
# Si number density = 23.147009 Si / 1000 Ang^3
#
#
#
# Elastic Constant Matrix: (Units=GPa)
#
#
# Indices 1 2 3 4 5 6 
#
# 1 106.8971 28.5126 52.0243 0.0000 4.2529 0.0000
# 2 28.5126 94.2386 20.0270 0.0000 29.7238 0.0000
# 3 52.0243 20.0270 168.8927 0.0000 25.3142 0.0000
# 4 0.0000 0.0000 0.0000 5.6196 0.0000 33.8545
# 5 4.2529 29.7238 25.3142 0.0000 51.3163 0.0000
# 6 0.0000 0.0000 0.0000 33.8545 0.0000 25.3797
#
#
#
# Elastic Compliance Matrix: (Units=1/GPa)
#
#
# Indices 1 2 3 4 5 6 
#
# 1 0.012063 -0.003821 -0.003720 0.000000 0.003048 0.000000
# 2 -0.003821 0.014225 0.000732 0.000000 -0.008284 0.000000
# 3 -0.003720 0.000732 0.007556 0.000000 -0.003843 0.000000
# 4 0.000000 0.000000 0.000000 -0.025291 0.000000 0.033736
# 5 0.003048 -0.008284 -0.003843 0.000000 0.025928 0.000000
# 6 0.000000 0.000000 0.000000 0.033736 0.000000 -0.005600
#
#
# Mechanical properties :
#
#
# Convention : Reuss Voigt Hill
#
# Bulk Modulus (GPa) = 49.44059 63.46178 56.45119
# Shear Modulus (GPa) = 101.54486 34.42743 67.98614
#
# Velocity S-wave (km/s) = 6.63059 3.86079 5.42542
# Velocity P-wave (km/s) = 8.94569 6.88118 7.98048
#
# Compressibility (1/GPa) = 0.02022630
#
# Stress axis : x y z
#
# Youngs Moduli (GPa) = 82.89943 70.30096 132.34744
#
# Poissons Ratio (x) = 0.26860 0.49227
# Poissons Ratio (y) = 0.31673 -0.09684
# Poissons Ratio (z) = 0.30835 -0.05144
#
# Static dielectric constant tensor:
#      x y z
#    x 1.936850 0.000000 -0.102780 
#    y 0.000000 1.901850 0.000000 
#    z -0.102780 0.000000 2.001110 
# 
# From -- ./inp_files/27783.got.cif
#   From: 2010.05.17/outbox.cif.g08.bks.cpg/sg15_14_cif.got.tgz:27783.got - 2010.06.03 18:47:42.
