data_PCOD9298548
_publ_section_title
;
Structure prediction by ZEFSAII (Michael W. Deem and Ramdas Pophale) SiO2 
 PCOD9298548
Probable space group: C 2/C
;
_chemical_formula_sum "Si O2"
_cell_formula_units_Z 36
_cell_length_a 8.636294
_cell_length_b 20.229200
_cell_length_c 9.015027
_cell_angle_alpha 90.000000
_cell_angle_beta 112.959145
_cell_angle_gamma 90.000000
_cell_volume 1450.208880
_symmetry_space_group_name_H-M "C 2/C"
_symmetry_group_IT_number 15
_symmetry_cell_setting 'monoclinic'
loop_
_space_group_symop_operation_xyz
x,y,z
-x,y,1/2-z
-x,-y,-z
x,-y,1/2+z
1/2+x,1/2+y,z
1/2-x,1/2+y,1/2-z
1/2-x,1/2-y,-z
1/2+x,1/2-y,1/2+z
loop_
_atom_site_type_symbol
_atom_site_label
_atom_site_fract_x
_atom_site_fract_y
_atom_site_fract_z
Si Si1 0.000000 0.755880 0.750000
Si Si2 0.138460 0.630524 0.918834
Si Si3 0.703746 0.198019 0.352585
Si Si4 0.665185 0.938805 0.738178
Si Si5 0.591767 0.447411 0.142202
O O1 0.908285 0.707401 0.598091
O O2 0.845022 0.789707 0.776925
O O3 0.317520 0.609205 0.919011
O O4 0.000000 0.605812 0.750000
O O5 0.122740 0.599525 0.072609
O O6 0.500000 0.206083 0.250000
O O7 0.750000 0.250000 0.500000
O O8 0.728204 0.118069 0.377307
O O9 0.500000 0.966051 0.750000
O O10 0.778524 0.000158 0.738502
O O11 0.500000 0.417757 0.250000
O O12 0.500000 0.500000 0.000000
#
# Coordination Sequence:
#
# PCOD9298548 Si02
#       5
#     4   8   8   8   8
#     4  10  24  44  74 102 144 188 238 304 368 432
#     4  10  25  46  66 103 137 191 231 290 370 424
#     4  11  26  47  75 110 145 191 249 303 365 441
#     4  11  25  45  71  97 143 189 233 291 365 427
#     4  12  26  42  68 105 141 186 243 302 355 430
#
# _framework density 24.824009
#
# number of rings (size 3 to 8) (size 9 to 14) (size 15 to 20)
#    0.667    0.444    2.222    3.333    4.667    8.000 
#    0.000    0.000    0.000    0.000    0.000    0.000 
#    0.000    0.000    0.000    0.000    0.000    0.000 
#
# Total GULP energy -100459.778809 kJ/mol
# GULP energy per Si atom -5581.098823 kJ/mol
# Density = 2.476751 g / cm^3
# Si number density = 24.824009 Si / 1000 Ang^3
#
#
#
# Elastic Constant Matrix: (Units=GPa)
#
#
# Indices 1 2 3 4 5 6 
#
# 1 163.7089 19.9606 30.1079 0.0000 -27.6153 0.0000
# 2 19.9606 70.8172 -12.1160 0.0000 7.2727 0.0000
# 3 30.1079 -12.1160 67.4802 0.0000 -9.5684 0.0000
# 4 0.0000 0.0000 0.0000 4.8835 0.0000 -28.6846
# 5 -27.6153 7.2727 -9.5684 0.0000 37.3840 0.0000
# 6 0.0000 0.0000 0.0000 -28.6846 0.0000 15.2775
#
#
#
# Elastic Compliance Matrix: (Units=1/GPa)
#
#
# Indices 1 2 3 4 5 6 
#
# 1 0.008145 -0.003481 -0.003435 0.000000 0.005815 0.000000
# 2 -0.003481 0.016240 0.003794 0.000000 -0.004759 0.000000
# 3 -0.003435 0.003794 0.017192 0.000000 0.001125 0.000000
# 4 0.000000 0.000000 0.000000 -0.020419 0.000000 -0.038338
# 5 0.005815 -0.004759 0.001125 0.000000 0.032259 0.000000
# 6 0.000000 0.000000 0.000000 -0.038338 0.000000 -0.006527
#
#
# Mechanical properties :
#
#
# Convention : Reuss Voigt Hill
#
# Bulk Modulus (GPa) = 28.30071 41.99014 35.14543
# Shear Modulus (GPa) = 77.02811 29.11258 53.07034
#
# Velocity S-wave (km/s) = 5.57647 3.42827 4.62872
# Velocity P-wave (km/s) = 7.27241 5.71162 6.53875
#
# Compressibility (1/GPa) = 0.03533480
#
# Stress axis : x y z
#
# Youngs Moduli (GPa) = 122.76921 61.57707 58.16538
#
# Poissons Ratio (x) = 0.21433 0.19978
# Poissons Ratio (y) = 0.42732 -0.22068
# Poissons Ratio (z) = 0.42167 -0.23362
#
# Static dielectric constant tensor:
#      x y z
#    x 1.984300 0.000000 0.091610 
#    y 0.000000 1.948820 0.000000 
#    z 0.091610 0.000000 2.023130 
# 
# From -- ./inp_files/23868.got.cif
#   From: 2010.05.17/outbox.cif.g08.bks.cpg/sg15_12_cif.got.tgz:23868.got - 2010.06.03 18:47:42.
