data_PCOD9298188
_publ_section_title
;
Structure prediction by ZEFSAII (Michael W. Deem and Ramdas Pophale) SiO2 
 PCOD9298188
Probable space group: C 2/C
;
_chemical_formula_sum "Si O2"
_cell_formula_units_Z 36
_cell_length_a 14.206372
_cell_length_b 10.617612
_cell_length_c 12.599585
_cell_angle_alpha 90.000000
_cell_angle_beta 34.993745
_cell_angle_gamma 90.000000
_cell_volume 1089.908040
_symmetry_space_group_name_H-M "C 2/C"
_symmetry_group_IT_number 15
_symmetry_cell_setting 'monoclinic'
loop_
_space_group_symop_operation_xyz
x,y,z
-x,y,1/2-z
-x,-y,-z
x,-y,1/2+z
1/2+x,1/2+y,z
1/2-x,1/2+y,1/2-z
1/2-x,1/2-y,-z
1/2+x,1/2-y,1/2+z
loop_
_atom_site_type_symbol
_atom_site_label
_atom_site_fract_x
_atom_site_fract_y
_atom_site_fract_z
Si Si1 0.048429 0.623238 0.826192
Si Si2 0.625045 0.855646 0.795621
Si Si3 0.141182 0.110825 0.903363
Si Si4 0.000000 0.929725 0.750000
Si Si5 0.254320 0.348500 0.428481
O O1 0.918883 0.622093 0.037882
O O2 0.191783 0.712740 0.728985
O O3 0.000000 0.612437 0.750000
O O4 0.194065 0.508042 0.720788
O O5 0.435515 0.873275 0.925581
O O6 0.733760 0.813572 0.582409
O O7 0.131493 0.186954 0.793824
O O8 0.000000 0.000000 0.000000
O O9 0.060731 0.146513 0.093084
O O10 0.148408 0.022295 0.643167
#
# Coordination Sequence:
#
# PCOD9298188 Si02
#       5
#     8   8   8   4   8
#     4  11  24  46  74 107 146 198 251 316 377 453
#     4   9  25  42  66 104 144 194 249 305 375 455
#     4  10  26  46  70 109 149 196 257 308 383 456
#     4  12  24  44  78 110 152 198 258 320 376 448
#     4  10  24  43  73 104 149 204 249 309 379 455
#
# _framework density 33.030309000000003
#
# number of rings (size 3 to 8) (size 9 to 14) (size 15 to 20)
#    1.333    0.444    0.000    2.000    6.222    6.222 
#    0.000    0.000    0.000    0.000    0.000    0.000 
#    0.000    0.000    0.000    0.000    0.000    0.000 
#
# Total GULP energy -100425.037351 kJ/mol
# GULP energy per Si atom -5579.168742 kJ/mol
# Density = 3.295513 g / cm^3
# Si number density = 33.030309 Si / 1000 Ang^3
#
#
#
# Elastic Constant Matrix: (Units=GPa)
#
#
# Indices 1 2 3 4 5 6 
#
# 1 169.0649 52.6167 18.4915 0.0000 -15.4983 0.0000
# 2 52.6167 161.1501 95.0862 0.0000 -0.0256 0.0000
# 3 18.4915 95.0862 241.1630 0.0000 64.7553 0.0000
# 4 0.0000 0.0000 0.0000 59.5451 0.0000 -31.4871
# 5 -15.4983 -0.0256 64.7553 0.0000 128.2548 0.0000
# 6 0.0000 0.0000 0.0000 -31.4871 0.0000 61.5236
#
#
#
# Elastic Compliance Matrix: (Units=1/GPa)
#
#
# Indices 1 2 3 4 5 6 
#
# 1 0.006673 -0.002301 0.000207 0.000000 0.000701 0.000000
# 2 -0.002301 0.009285 -0.003945 0.000000 0.001716 0.000000
# 3 0.000207 -0.003945 0.006570 0.000000 -0.003293 0.000000
# 4 0.000000 0.000000 0.000000 0.023025 0.000000 0.011784
# 5 0.000701 0.001716 -0.003293 0.000000 0.009545 0.000000
# 6 0.000000 0.000000 0.000000 0.011784 0.000000 0.022285
#
#
# Mechanical properties :
#
#
# Convention : Reuss Voigt Hill
#
# Bulk Modulus (GPa) = 95.68997 100.41853 98.05425
# Shear Modulus (GPa) = 53.79629 76.87695 65.33662
#
# Velocity S-wave (km/s) = 4.04009 4.82962 4.45239
# Velocity P-wave (km/s) = 7.12715 7.84654 7.49548
#
# Compressibility (1/GPa) = 0.01045042
#
# Stress axis : x y z
#
# Youngs Moduli (GPa) = 149.86733 107.70452 152.19842
#
# Poissons Ratio (x) = 0.24781 -0.03155
# Poissons Ratio (y) = 0.34482 0.60043
# Poissons Ratio (z) = -0.03106 0.42490
#
# Static dielectric constant tensor:
#      x y z
#    x 2.720070 0.000000 -0.007540 
#    y 0.000000 3.852310 0.000000 
#    z -0.007540 0.000000 2.553410 
# 
# From -- ./inp_files/37645.got.cif
#   From: 2010.05.17/outbox.cif.g08.bks.cpg/sg15_19_cif.got.tgz:37645.got - 2010.06.03 18:47:42.
