data_PCOD9298530
_publ_section_title
;
Structure prediction by ZEFSAII (Michael W. Deem and Ramdas Pophale) SiO2 
 PCOD9298530
Probable space group: C 2/C
;
_chemical_formula_sum "Si O2"
_cell_formula_units_Z 40
_cell_length_a 16.346533
_cell_length_b 10.459226
_cell_length_c 9.538568
_cell_angle_alpha 90.000000
_cell_angle_beta 92.676520
_cell_angle_gamma 90.000000
_cell_volume 1629.049761
_symmetry_space_group_name_H-M "C 2/C"
_symmetry_group_IT_number 15
_symmetry_cell_setting 'monoclinic'
loop_
_space_group_symop_operation_xyz
x,y,z
-x,y,1/2-z
-x,-y,-z
x,-y,1/2+z
1/2+x,1/2+y,z
1/2-x,1/2+y,1/2-z
1/2-x,1/2-y,-z
1/2+x,1/2-y,1/2+z
loop_
_atom_site_type_symbol
_atom_site_label
_atom_site_fract_x
_atom_site_fract_y
_atom_site_fract_z
Si Si1 0.951453 0.096176 0.600631
Si Si2 0.141542 0.637154 0.027305
Si Si3 0.591539 0.024349 0.748715
Si Si4 0.836223 0.255190 0.426439
Si Si5 0.328088 0.381770 0.638783
O O1 0.916664 0.223676 0.525024
O O2 0.000000 0.111202 0.750000
O O3 0.867585 0.018361 0.621945
O O4 0.000000 0.000000 0.500000
O O5 0.090400 0.606898 0.162221
O O6 0.235265 0.629956 0.081723
O O7 0.125089 0.530293 0.907620
O O8 0.125772 0.772361 0.949723
O O9 0.500000 0.077248 0.750000
O O10 0.649167 0.116083 0.661102
O O11 0.750000 0.250000 0.500000
O O12 0.833507 0.150274 0.302604
#
# Coordination Sequence:
#
# PCOD9298530 Si02
#       5
#     8   8   8   8   8
#     4  12  26  46  77 107 145 192 239 307 369 429
#     4  10  24  44  73 100 143 193 237 294 365 437
#     4  11  25  46  71 102 145 187 239 309 361 428
#     4  11  26  47  75 105 145 193 245 298 363 445
#     4  10  24  46  71 102 147 188 243 300 359 438
#
# _framework density 24.554192
#
# number of rings (size 3 to 8) (size 9 to 14) (size 15 to 20)
#    0.000    1.200    2.000    1.800   11.200    4.800 
#    0.000    0.000    0.000    0.000    0.000    0.000 
#    0.000    0.000    0.000    0.000    0.000    0.000 
#
# Total GULP energy -111987.177748 kJ/mol
# GULP energy per Si atom -5599.358887 kJ/mol
# Density = 2.449831 g / cm^3
# Si number density = 24.554192 Si / 1000 Ang^3
#
#
#
# Elastic Constant Matrix: (Units=GPa)
#
#
# Indices 1 2 3 4 5 6 
#
# 1 78.5059 -4.5924 12.6254 0.0000 9.2039 0.0000
# 2 -4.5924 36.5959 5.6345 0.0000 -1.5907 0.0000
# 3 12.6254 5.6345 138.7919 0.0000 36.6892 0.0000
# 4 0.0000 0.0000 0.0000 41.5062 0.0000 -9.4733
# 5 9.2039 -1.5907 36.6892 0.0000 41.6251 0.0000
# 6 0.0000 0.0000 0.0000 -9.4733 0.0000 83.3859
#
#
#
# Elastic Compliance Matrix: (Units=1/GPa)
#
#
# Indices 1 2 3 4 5 6 
#
# 1 0.013209 0.001662 -0.000670 0.000000 -0.002267 0.000000
# 2 0.001662 0.027933 -0.001917 0.000000 0.002389 0.000000
# 3 -0.000670 -0.001917 0.009549 0.000000 -0.008342 0.000000
# 4 0.000000 0.000000 0.000000 0.024734 0.000000 0.002810
# 5 -0.002267 0.002389 -0.008342 0.000000 0.031969 0.000000
# 6 0.000000 0.000000 0.000000 0.002810 0.000000 0.012312
#
#
# Mechanical properties :
#
#
# Convention : Reuss Voigt Hill
#
# Bulk Modulus (GPa) = 20.47440 31.24764 25.86102
# Shear Modulus (GPa) = 36.27527 49.31851 42.79689
#
# Velocity S-wave (km/s) = 3.84781 4.48656 4.17940
# Velocity P-wave (km/s) = 5.30070 6.29226 5.81764
#
# Compressibility (1/GPa) = 0.04884148
#
# Stress axis : x y z
#
# Youngs Moduli (GPa) = 75.70834 35.79988 104.72417
#
# Poissons Ratio (x) = -0.05950 0.07015
# Poissons Ratio (y) = -0.12584 0.20074
# Poissons Ratio (z) = 0.05071 0.06862
#
# Static dielectric constant tensor:
#      x y z
#    x 1.904640 0.000000 -0.030920 
#    y 0.000000 2.011490 0.000000 
#    z -0.030920 0.000000 1.946710 
# 
# From -- ./inp_files/46237.got.cif
#   From: 2010.05.17/outbox.cif.g08.bks.cpg/sg15_24_cif.got.tgz:46237.got - 2010.06.03 18:47:42.
