data_PCOD9298567
_publ_section_title
;
Structure prediction by ZEFSAII (Michael W. Deem and Ramdas Pophale) SiO2 
 PCOD9298567
Probable space group: C 2/C
;
_chemical_formula_sum "Si O2"
_cell_formula_units_Z 28
_cell_length_a 7.711886
_cell_length_b 18.815637
_cell_length_c 13.986562
_cell_angle_alpha 90.000000
_cell_angle_beta 35.897267
_cell_angle_gamma 90.000000
_cell_volume 1189.968241
_symmetry_space_group_name_H-M "C 2/C"
_symmetry_group_IT_number 15
_symmetry_cell_setting 'monoclinic'
loop_
_space_group_symop_operation_xyz
x,y,z
-x,y,1/2-z
-x,-y,-z
x,-y,1/2+z
1/2+x,1/2+y,z
1/2-x,1/2+y,1/2-z
1/2-x,1/2-y,-z
1/2+x,1/2-y,1/2+z
loop_
_atom_site_type_symbol
_atom_site_label
_atom_site_fract_x
_atom_site_fract_y
_atom_site_fract_z
Si Si1 0.500000 0.270178 0.250000
Si Si2 0.133451 0.967563 0.789840
Si Si3 0.103384 0.654653 0.057702
Si Si4 0.311058 0.602551 0.600766
O O1 0.777264 0.318749 0.097105
O O2 0.556727 0.218425 0.314515
O O3 0.406568 0.915321 0.647014
O O4 0.000000 0.993486 0.750000
O O5 0.221557 0.032418 0.818137
O O6 0.893134 0.922682 0.957687
O O7 0.400336 0.640632 0.986576
O O8 0.000000 0.642059 0.750000
#
# Coordination Sequence:
#
# PCOD9298567 Si02
#       4
#     4   8   8   8
#     4  10  24  44  74  86 136 190 218 264 322 394
#     4  11  24  42  68 101 136 171 219 277 340 394
#     4  11  23  48  67  98 133 178 225 268 328 397
#     4  11  24  41  67 103 136 168 218 282 336 393
#
# _framework density 23.530038000000001
#
# number of rings (size 3 to 8) (size 9 to 14) (size 15 to 20)
#    0.000    1.143    2.857    3.429    6.000    2.286 
#    0.000    8.571    0.000    0.000    0.000    0.000 
#    0.000    0.000    0.000    0.000    0.000    0.000 
#
# Total GULP energy -78379.709395 kJ/mol
# GULP energy per Si atom -5598.550671 kJ/mol
# Density = 2.347648 g / cm^3
# Si number density = 23.530038 Si / 1000 Ang^3
#
#
#
# Elastic Constant Matrix: (Units=GPa)
#
#
# Indices 1 2 3 4 5 6 
#
# 1 78.7900 -1.9726 41.6327 0.0005 6.3778 -0.0004
# 2 -1.9726 76.1829 37.9519 0.0007 9.5536 0.0001
# 3 41.6327 37.9519 151.7390 0.0105 8.2262 -0.0038
# 4 0.0005 0.0007 0.0105 57.8736 -0.0034 0.9590
# 5 6.3778 9.5536 8.2262 -0.0034 32.7350 0.0013
# 6 -0.0004 0.0001 -0.0038 0.9590 0.0013 6.0048
#
#
#
# Elastic Compliance Matrix: (Units=1/GPa)
#
#
# Indices 1 2 3 4 5 6 
#
# 1 0.015600 0.003205 -0.004934 0.000001 -0.002735 -0.000002
# 2 0.003205 0.016055 -0.004671 0.000000 -0.004136 -0.000002
# 3 -0.004934 -0.004671 0.009110 -0.000002 0.000035 0.000006
# 4 0.000001 0.000000 -0.000002 0.017325 0.000002 -0.002767
# 5 -0.002735 -0.004136 0.000035 0.000002 0.032280 -0.000007
# 6 -0.000002 -0.000002 0.000006 -0.002767 -0.000007 0.166975
#
#
# Mechanical properties :
#
#
# Convention : Reuss Voigt Hill
#
# Bulk Modulus (GPa) = 35.75707 51.32619 43.54163
# Shear Modulus (GPa) = 17.89128 34.59600 26.24364
#
# Velocity S-wave (km/s) = 2.76045 3.83860 3.34327
# Velocity P-wave (km/s) = 5.03880 6.44258 5.78344
#
# Compressibility (1/GPa) = 0.02796650
#
# Stress axis : x y z
#
# Youngs Moduli (GPa) = 64.10056 62.28709 109.76768
#
# Poissons Ratio (x) = -0.19961 0.54155
# Poissons Ratio (y) = -0.20542 0.51267
# Poissons Ratio (z) = 0.31624 0.29091
#
# Static dielectric constant tensor:
#      x y z
#    x 1.855250 0.000000 0.008450 
#    y 0.000000 1.893790 0.000000 
#    z 0.008450 0.000000 1.935720 
# 
# From -- ./inp_files/21901.got.cif
#   From: 2010.05.17/outbox.cif.g08.bks.cpg/sg15_11_cif.got.tgz:21901.got - 2010.06.03 18:47:42.
