data_PCOD9298515
_publ_section_title
;
Structure prediction by ZEFSAII (Michael W. Deem and Ramdas Pophale) SiO2 
 PCOD9298515
Probable space group: C 2/C
;
_chemical_formula_sum "Si O2"
_cell_formula_units_Z 44
_cell_length_a 19.560737
_cell_length_b 11.745620
_cell_length_c 8.698776
_cell_angle_alpha 90.000000
_cell_angle_beta 66.350999
_cell_angle_gamma 90.000000
_cell_volume 1830.729863
_symmetry_space_group_name_H-M "C 2/C"
_symmetry_group_IT_number 15
_symmetry_cell_setting 'monoclinic'
loop_
_space_group_symop_operation_xyz
x,y,z
-x,y,1/2-z
-x,-y,-z
x,-y,1/2+z
1/2+x,1/2+y,z
1/2-x,1/2+y,1/2-z
1/2-x,1/2-y,-z
1/2+x,1/2-y,1/2+z
loop_
_atom_site_type_symbol
_atom_site_label
_atom_site_fract_x
_atom_site_fract_y
_atom_site_fract_z
Si Si1 0.152817 0.754651 0.387570
Si Si2 0.552526 0.556451 0.826164
Si Si3 0.500000 0.860877 0.250000
Si Si4 0.915014 0.411282 0.800404
Si Si5 0.198431 0.280552 0.401883
Si Si6 0.596624 0.686534 0.265862
O O1 0.122961 0.643043 0.319181
O O2 0.239380 0.787211 0.286255
O O3 0.133418 0.753223 0.584439
O O4 0.110569 0.857563 0.341996
O O5 0.500000 0.614490 0.750000
O O6 0.587590 0.442848 0.722049
O O7 0.500000 0.500000 0.000000
O O8 0.522469 0.764852 0.358011
O O9 0.566440 0.953954 0.213961
O O10 0.000000 0.365871 0.750000
O O11 0.857104 0.378723 0.988291
O O12 0.250000 0.250000 0.500000
O O13 0.142748 0.187430 0.381218
#
# Coordination Sequence:
#
# PCOD9298515 Si02
#       6
#     8   8   4   8   8   8
#     4  11  24  46  70 103 142 187 237 290 354 422
#     4  12  25  43  72 105 136 185 240 298 351 414
#     4  10  24  44  72 110 138 176 236 290 354 412
#     4   9  23  43  74 103 140 185 228 288 352 427
#     4  10  25  47  69 100 142 187 229 286 356 424
#     4  12  25  45  71 104 145 180 243 291 351 422
#
# _framework density 24.034130000000001
#
# number of rings (size 3 to 8) (size 9 to 14) (size 15 to 20)
#    0.545    0.727    2.727    1.091   10.182    2.909 
#   13.091    0.000    0.000    0.000    0.000    0.000 
#    0.000    0.000    0.000    0.000    0.000    0.000 
#
# Total GULP energy -122537.303552 kJ/mol
# GULP energy per Si atom -5569.877434 kJ/mol
# Density = 2.397943 g / cm^3
# Si number density = 24.034130 Si / 1000 Ang^3
#
#
#
# Elastic Constant Matrix: (Units=GPa)
#
#
# Indices 1 2 3 4 5 6 
#
# 1 137.7746 42.3582 18.9630 0.0000 10.9763 0.0000
# 2 42.3582 154.2535 8.5225 0.0000 0.6614 0.0000
# 3 18.9630 8.5225 77.2265 0.0000 -1.4068 0.0000
# 4 0.0000 0.0000 0.0000 25.3284 0.0000 8.0140
# 5 10.9763 0.6614 -1.4068 0.0000 44.7407 0.0000
# 6 0.0000 0.0000 0.0000 8.0140 0.0000 -0.8410
#
#
#
# Elastic Compliance Matrix: (Units=1/GPa)
#
#
# Indices 1 2 3 4 5 6 
#
# 1 0.008348 -0.002182 -0.001847 0.000000 -0.002074 0.000000
# 2 -0.002182 0.007093 -0.000239 0.000000 0.000423 0.000000
# 3 -0.001847 -0.000239 0.013445 0.000000 0.000879 0.000000
# 4 0.000000 0.000000 0.000000 0.009834 0.000000 0.093702
# 5 -0.002074 0.000423 0.000879 0.000000 0.022881 0.000000
# 6 0.000000 0.000000 0.000000 0.093702 0.000000 -0.296147
#
#
# Mechanical properties :
#
#
# Convention : Reuss Voigt Hill
#
# Bulk Modulus (GPa) = 49.13834 56.54910 52.84372
# Shear Modulus (GPa) = -22.80756 33.80632 5.49938
#
# Velocity S-wave (km/s) = -3.08387 3.75453 1.51431
# Velocity P-wave (km/s) = 2.79451 6.50961 5.00921
#
# Compressibility (1/GPa) = 0.02035071
#
# Stress axis : x y z
#
# Youngs Moduli (GPa) = 119.78372 140.97809 74.37770
#
# Poissons Ratio (x) = 0.30755 0.13737
# Poissons Ratio (y) = 0.26131 0.01781
# Poissons Ratio (z) = 0.22124 0.03375
#
# Static dielectric constant tensor:
#      x y z
#    x 2.089380 0.000000 -0.133300 
#    y 0.000000 2.063170 0.000000 
#    z -0.133300 0.000000 2.062950 
# 
# From -- ./inp_files/54349.got.cif
#   From: 2010.05.17/outbox.cif.g08.bks.cpg/sg15_28_cif.got.tgz:54349.got - 2010.06.03 18:47:42.
