data_PCOD9298962
_publ_section_title
;
Structure prediction by ZEFSAII (Michael W. Deem and Ramdas Pophale) SiO2 
 PCOD9298962
Probable space group: C 2/C
;
_chemical_formula_sum "Si O2"
_cell_formula_units_Z 56
_cell_length_a 27.108816
_cell_length_b 9.533395
_cell_length_c 18.509233
_cell_angle_alpha 90.000000
_cell_angle_beta 150.652515
_cell_angle_gamma 90.000000
_cell_volume 2344.421622
_symmetry_space_group_name_H-M "C 2/C"
_symmetry_group_IT_number 15
_symmetry_cell_setting 'monoclinic'
loop_
_space_group_symop_operation_xyz
x,y,z
-x,y,1/2-z
-x,-y,-z
x,-y,1/2+z
1/2+x,1/2+y,z
1/2-x,1/2+y,1/2-z
1/2-x,1/2-y,-z
1/2+x,1/2-y,1/2+z
loop_
_atom_site_type_symbol
_atom_site_label
_atom_site_fract_x
_atom_site_fract_y
_atom_site_fract_z
Si Si1 0.836246 0.433924 0.418677
Si Si2 0.789801 0.767978 0.131617
Si Si3 0.976676 0.114490 0.409222
Si Si4 0.434784 0.567999 0.734067
Si Si5 0.752046 0.538495 0.594434
Si Si6 0.223848 0.214122 0.277679
Si Si7 0.984385 0.426079 0.402076
O O1 0.777605 0.380654 0.413615
O O2 0.827426 0.307562 0.350187
O O3 0.781918 0.577625 0.324696
O O4 0.950329 0.484110 0.570667
O O5 0.900798 0.822773 0.253432
O O6 0.772477 0.620317 0.148701
O O7 0.750000 0.750000 0.000000
O O8 0.860446 0.150062 0.277024
O O9 0.024465 0.268468 0.468019
O O10 0.996942 0.044990 0.358101
O O11 0.000000 0.000000 0.500000
O O12 0.500000 0.624135 0.750000
O O13 0.335134 0.489087 0.575764
O O14 0.718498 0.665104 0.603545
O O15 0.869017 0.577585 0.726853
O O16 0.000000 0.500000 0.500000
#
# Coordination Sequence:
#
# PCOD9298962 Si02
#       7
#     8   8   8   8   8   8   8
#     4  12  24  43  72 110 152 192 248 301 379 428
#     4  10  24  46  71 105 143 197 243 303 361 443
#     4  11  26  46  74 107 142 195 249 307 361 443
#     4  11  26  48  73 107 147 198 249 304 372 438
#     4  10  24  48  71 104 151 187 246 298 367 443
#     4  11  25  42  74 110 146 197 238 310 366 443
#     4  11  25  45  69 113 148 192 239 309 369 435
#
# _framework density 23.886488
#
# number of rings (size 3 to 8) (size 9 to 14) (size 15 to 20)
#    0.000    1.143    4.286    0.857    6.000    6.857 
#    0.000    2.143    0.000    0.000    0.000    0.000 
#    0.000    0.000    0.000    0.000    0.000    0.000 
#
# Total GULP energy -156126.032916 kJ/mol
# GULP energy per Si atom -5575.929747 kJ/mol
# Density = 2.383212 g / cm^3
# Si number density = 23.886488 Si / 1000 Ang^3
#
#
#
# Elastic Constant Matrix: (Units=GPa)
#
#
# Indices 1 2 3 4 5 6 
#
# 1 104.1779 31.4372 9.6383 0.0000 5.8164 0.0000
# 2 31.4372 154.0866 23.1309 0.0000 -1.2151 0.0000
# 3 9.6383 23.1309 50.4291 0.0000 4.9967 0.0000
# 4 0.0000 0.0000 0.0000 26.9635 0.0000 -2.7368
# 5 5.8164 -1.2151 4.9967 0.0000 29.8407 0.0000
# 6 0.0000 0.0000 0.0000 -2.7368 0.0000 26.9521
#
#
#
# Elastic Compliance Matrix: (Units=1/GPa)
#
#
# Indices 1 2 3 4 5 6 
#
# 1 0.010394 -0.002005 -0.000873 0.000000 -0.001962 0.000000
# 2 -0.002005 0.007377 -0.003121 0.000000 0.001214 0.000000
# 3 -0.000873 -0.003121 0.021785 0.000000 -0.003605 0.000000
# 4 0.000000 0.000000 0.000000 0.037473 0.000000 0.003805
# 5 -0.001962 0.001214 -0.003605 0.000000 0.034547 0.000000
# 6 0.000000 0.000000 0.000000 0.003805 0.000000 0.037489
#
#
# Mechanical properties :
#
#
# Convention : Reuss Voigt Hill
#
# Bulk Modulus (GPa) = 36.28492 48.56739 42.42615
# Shear Modulus (GPa) = 29.36870 33.05039 31.20955
#
# Velocity S-wave (km/s) = 3.51024 3.72377 3.61858
# Velocity P-wave (km/s) = 5.62607 6.23421 5.93793
#
# Compressibility (1/GPa) = 0.02755966
#
# Stress axis : x y z
#
# Youngs Moduli (GPa) = 96.20669 135.55647 45.90273
#
# Poissons Ratio (x) = 0.27181 0.04005
# Poissons Ratio (y) = 0.19291 0.14325
# Poissons Ratio (z) = 0.08394 0.42303
#
# Static dielectric constant tensor:
#      x y z
#    x 2.082940 0.000000 0.295390 
#    y 0.000000 1.987980 0.000000 
#    z 0.295390 0.000000 2.381410 
# 
# From -- ./inp_files/259019.got.cif
#   From: 2010.05.17/outbox.cif.g08.bks.cpg/sg15_130_cif.got.tgz:259019.got - 2010.06.03 18:47:42.
