data_PCOD9298183
_publ_section_title
;
Structure prediction by ZEFSAII (Michael W. Deem and Ramdas Pophale) SiO2 
 PCOD9298183
Probable space group: C 2/C
;
_chemical_formula_sum "Si O2"
_cell_formula_units_Z 44
_cell_length_a 24.933821
_cell_length_b 5.277465
_cell_length_c 21.228028
_cell_angle_alpha 90.000000
_cell_angle_beta 141.247211
_cell_angle_gamma 90.000000
_cell_volume 1748.523316
_symmetry_space_group_name_H-M "C 2/C"
_symmetry_group_IT_number 15
_symmetry_cell_setting 'monoclinic'
loop_
_space_group_symop_operation_xyz
x,y,z
-x,y,1/2-z
-x,-y,-z
x,-y,1/2+z
1/2+x,1/2+y,z
1/2-x,1/2+y,1/2-z
1/2-x,1/2-y,-z
1/2+x,1/2-y,1/2+z
loop_
_atom_site_type_symbol
_atom_site_label
_atom_site_fract_x
_atom_site_fract_y
_atom_site_fract_z
Si Si1 0.324745 0.131762 0.023399
Si Si2 0.000000 0.271564 0.750000
Si Si3 0.023817 0.696774 0.574705
Si Si4 0.724896 0.391126 0.092633
Si Si5 0.866782 0.921066 0.371194
Si Si6 0.902206 0.352000 0.771143
O O1 0.415650 0.098357 0.141823
O O2 0.205085 0.632395 0.036298
O O3 0.250000 0.250000 0.000000
O O4 0.331772 0.364722 0.980329
O O5 0.948940 0.163017 0.764857
O O6 0.028717 0.562908 0.645443
O O7 0.000000 0.500000 0.500000
O O8 0.947007 0.890374 0.494003
O O9 0.115989 0.800337 0.638932
O O10 0.709367 0.350513 0.152862
O O11 0.821048 0.493784 0.171565
O O12 0.874427 0.772063 0.312108
#
# Coordination Sequence:
#
# PCOD9298183 Si02
#       6
#     8   4   8   8   8   8
#     4  12  29  56  78 118 159 212 270 329 399 487
#     4  12  28  52  80 110 162 212 268 324 406 486
#     4   9  21  42  68 104 149 197 264 316 398 463
#     4  12  29  49  82 114 160 203 268 334 397 473
#     4  10  24  43  72 112 152 201 261 333 396 474
#     4  11  26  45  74 110 155 209 258 326 400 472
#
# _framework density 25.164089000000001
#
# number of rings (size 3 to 8) (size 9 to 14) (size 15 to 20)
#    0.000    1.091    1.818    1.636   17.818    0.727 
#    0.000    0.000    0.000    0.000    0.000    0.000 
#    0.000    0.000    0.000    0.000    0.000    0.000 
#
# Total GULP energy -122500.354897 kJ/mol
# GULP energy per Si atom -5568.197950 kJ/mol
# Density = 2.510681 g / cm^3
# Si number density = 25.164089 Si / 1000 Ang^3
#
#
#
# Elastic Constant Matrix: (Units=GPa)
#
#
# Indices 1 2 3 4 5 6 
#
# 1 189.3805 36.2888 51.0501 -0.0014 -11.5711 -0.0037
# 2 36.2888 129.4869 54.6151 0.0016 -8.2578 0.0041
# 3 51.0501 54.6151 147.8273 0.0001 13.9848 -0.0006
# 4 -0.0014 0.0016 0.0001 11.8134 0.0000 -2.1352
# 5 -11.5711 -8.2578 13.9848 0.0000 34.7774 -0.0003
# 6 -0.0037 0.0041 -0.0006 -2.1352 -0.0003 28.2272
#
#
#
# Elastic Compliance Matrix: (Units=1/GPa)
#
#
# Indices 1 2 3 4 5 6 
#
# 1 0.006151 -0.000642 -0.002148 0.000001 0.002758 0.000001
# 2 -0.000642 0.009690 -0.003696 -0.000002 0.003573 -0.000002
# 3 -0.002148 -0.003696 0.009379 0.000000 -0.005364 0.000000
# 4 0.000001 -0.000002 0.000000 0.085823 0.000000 0.006492
# 5 0.002758 0.003573 -0.005364 0.000000 0.032677 0.000000
# 6 0.000001 -0.000002 0.000000 0.006492 0.000000 0.035918
#
#
# Mechanical properties :
#
#
# Convention : Reuss Voigt Hill
#
# Bulk Modulus (GPa) = 81.64729 83.40029 82.52379
# Shear Modulus (GPa) = 25.42035 36.61297 31.01666
#
# Velocity S-wave (km/s) = 3.18179 3.81854 3.51462
# Velocity P-wave (km/s) = 6.78342 7.25646 7.02392
#
# Compressibility (1/GPa) = 0.01224780
#
# Stress axis : x y z
#
# Youngs Moduli (GPa) = 162.57869 103.20354 106.61688
#
# Poissons Ratio (x) = 0.06626 0.22899
# Poissons Ratio (y) = 0.10438 0.39408
# Poissons Ratio (z) = 0.34919 0.38146
#
# Static dielectric constant tensor:
#      x y z
#    x 2.165610 0.000000 -0.001170 
#    y 0.000000 2.118210 0.000000 
#    z -0.001170 0.000000 2.099890 
# 
# From -- ./inp_files/254145.got.cif
#   From: 2010.05.17/outbox.cif.g08.bks.cpg/sg15_128_cif.got.tgz:254145.got - 2010.06.03 18:47:42.
