data_PCOD9298839
_publ_section_title
;
Structure prediction by ZEFSAII (Michael W. Deem and Ramdas Pophale) SiO2 
 PCOD9298839
Probable space group: C 2/C
;
_chemical_formula_sum "Si O2"
_cell_formula_units_Z 40
_cell_length_a 12.692543
_cell_length_b 8.067325
_cell_length_c 18.948399
_cell_angle_alpha 90.000000
_cell_angle_beta 105.957591
_cell_angle_gamma 90.000000
_cell_volume 1865.453388
_symmetry_space_group_name_H-M "C 2/C"
_symmetry_group_IT_number 15
_symmetry_cell_setting 'monoclinic'
loop_
_space_group_symop_operation_xyz
x,y,z
-x,y,1/2-z
-x,-y,-z
x,-y,1/2+z
1/2+x,1/2+y,z
1/2-x,1/2+y,1/2-z
1/2-x,1/2-y,-z
1/2+x,1/2-y,1/2+z
loop_
_atom_site_type_symbol
_atom_site_label
_atom_site_fract_x
_atom_site_fract_y
_atom_site_fract_z
Si Si1 0.014058 0.946671 0.336662
Si Si2 0.986054 0.359689 0.440809
Si Si3 0.817747 0.114411 0.387124
Si Si4 0.069244 0.429301 0.830946
Si Si5 0.158047 0.106742 0.475944
O O1 0.027251 0.749581 0.350509
O O2 0.000000 0.975074 0.250000
O O3 0.119410 0.035826 0.392834
O O4 0.906019 0.015997 0.355933
O O5 0.863893 0.301138 0.400735
O O6 0.000000 0.500000 0.500000
O O7 0.048164 0.427421 0.383651
O O8 0.047405 0.197903 0.481192
O O9 0.696097 0.095586 0.335782
O O10 0.812964 0.038869 0.465052
O O11 0.000000 0.472727 0.750000
O O12 0.250000 0.250000 0.500000
#
# Coordination Sequence:
#
# PCOD9298839 Si02
#       5
#     8   8   8   8   8
#     4  10  24  46  65  98 137 173 221 277 336 401
#     4  11  23  40  67 100 125 172 226 273 331 404
#     4  11  24  45  66  96 138 175 218 281 335 392
#     4  11  25  44  64  98 134 175 227 273 336 403
#     4  11  22  42  68  96 132 175 219 276 331 395
#
# _framework density 21.442509999999999
#
# number of rings (size 3 to 8) (size 9 to 14) (size 15 to 20)
#    0.000    1.200    2.000    4.800    2.800    8.000 
#    7.200    0.000    0.000    0.000    0.000    0.000 
#    0.000    0.000    0.000    0.000    0.000    0.000 
#
# Total GULP energy -111730.559109 kJ/mol
# GULP energy per Si atom -5586.527955 kJ/mol
# Density = 2.139371 g / cm^3
# Si number density = 21.442510 Si / 1000 Ang^3
#
#
#
# Elastic Constant Matrix: (Units=GPa)
#
#
# Indices 1 2 3 4 5 6 
#
# 1 131.3479 17.1156 41.3719 0.0000 22.6644 0.0000
# 2 17.1156 62.3455 17.6364 0.0000 -2.2370 0.0000
# 3 41.3719 17.6364 96.2007 0.0000 17.1376 0.0000
# 4 0.0000 0.0000 0.0000 25.2666 0.0000 5.3095
# 5 22.6644 -2.2370 17.1376 0.0000 29.3768 0.0000
# 6 0.0000 0.0000 0.0000 5.3095 0.0000 41.3258
#
#
#
# Elastic Compliance Matrix: (Units=1/GPa)
#
#
# Indices 1 2 3 4 5 6 
#
# 1 0.009813 -0.002141 -0.002734 0.000000 -0.006139 0.000000
# 2 -0.002141 0.017704 -0.003191 0.000000 0.004861 0.000000
# 3 -0.002734 -0.003191 0.013195 0.000000 -0.005831 0.000000
# 4 0.000000 0.000000 0.000000 0.040676 0.000000 -0.005226
# 5 -0.006139 0.004861 -0.005831 0.000000 0.042548 0.000000
# 6 0.000000 0.000000 0.000000 -0.005226 0.000000 0.024869
#
#
# Mechanical properties :
#
#
# Convention : Reuss Voigt Hill
#
# Bulk Modulus (GPa) = 40.68358 49.12687 44.90522
# Shear Modulus (GPa) = 28.87992 33.44518 31.16255
#
# Velocity S-wave (km/s) = 3.67393 3.95366 3.81636
# Velocity P-wave (km/s) = 6.08371 6.61836 6.35666
#
# Compressibility (1/GPa) = 0.02457994
#
# Stress axis : x y z
#
# Youngs Moduli (GPa) = 101.90850 56.48291 75.78913
#
# Poissons Ratio (x) = 0.12091 0.20721
# Poissons Ratio (y) = 0.21816 0.24185
# Poissons Ratio (z) = 0.27862 0.18024
#
# Static dielectric constant tensor:
#      x y z
#    x 1.739780 0.000000 0.180440 
#    y 0.000000 1.797490 0.000000 
#    z 0.180440 0.000000 1.468600 
# 
# From -- ./inp_files/195226.got.cif
#   From: 2010.05.17/outbox.cif.g08.bks.cpg/sg15_98_cif.got.tgz:195226.got - 2010.06.03 18:47:42.
