data_PCOD9298643
_publ_section_title
;
Structure prediction by ZEFSAII (Michael W. Deem and Ramdas Pophale) SiO2 
 PCOD9298643
Probable space group: C 2/C
;
_chemical_formula_sum "Si O2"
_cell_formula_units_Z 64
_cell_length_a 16.852361
_cell_length_b 15.504663
_cell_length_c 16.143315
_cell_angle_alpha 90.000000
_cell_angle_beta 136.781723
_cell_angle_gamma 90.000000
_cell_volume 2888.461776
_symmetry_space_group_name_H-M "C 2/C"
_symmetry_group_IT_number 15
_symmetry_cell_setting 'monoclinic'
loop_
_space_group_symop_operation_xyz
x,y,z
-x,y,1/2-z
-x,-y,-z
x,-y,1/2+z
1/2+x,1/2+y,z
1/2-x,1/2+y,1/2-z
1/2-x,1/2-y,-z
1/2+x,1/2-y,1/2+z
loop_
_atom_site_type_symbol
_atom_site_label
_atom_site_fract_x
_atom_site_fract_y
_atom_site_fract_z
Si Si1 0.018405 0.644978 0.478409
Si Si2 0.836982 0.902268 0.753284
Si Si3 0.301083 0.051347 0.620220
Si Si4 0.109097 0.367734 0.773814
Si Si5 0.041144 0.015168 0.936917
Si Si6 0.385149 0.960805 0.996890
Si Si7 0.143917 0.261870 0.348304
Si Si8 0.646804 0.680280 0.052244
O O1 0.067040 0.556694 0.476650
O O2 0.104423 0.724502 0.539533
O O3 0.916705 0.668774 0.336786
O O4 0.970515 0.614782 0.530480
O O5 0.721898 0.955153 0.647364
O O6 0.836567 0.819559 0.694872
O O7 0.841152 0.868790 0.850377
O O8 0.944749 0.963777 0.813397
O O9 0.345010 0.053984 0.559172
O O10 0.325901 0.146680 0.671275
O O11 0.367011 0.970855 0.711512
O O12 0.165890 0.028622 0.520106
O O13 0.228276 0.325882 0.895812
O O14 0.000000 0.351539 0.750000
O O15 0.057967 0.117397 0.935930
O O16 0.000000 0.000000 0.000000
O O17 0.250000 0.250000 0.500000
O O18 0.000000 0.263591 0.250000
#
# Coordination Sequence:
#
# PCOD9298643 Si02
#       8
#     8   8   8   8   8   8   8   8
#     4  11  25  43  69  99 136 174 237 294 355 422
#     4  11  23  42  66 100 140 181 229 280 364 432
#     4  11  23  42  69 102 136 190 230 287 371 425
#     4  11  22  44  69  93 131 182 233 292 350 420
#     4   9  22  45  69  93 143 187 233 288 354 427
#     4  11  24  42  68  99 140 173 230 294 363 426
#     4  12  26  40  68 107 149 185 233 290 355 448
#     4  10  24  45  68 100 132 185 236 288 353 426
#
# _framework density 22.157122999999999
#
# number of rings (size 3 to 8) (size 9 to 14) (size 15 to 20)
#    0.000    1.250    3.750    1.125    1.750    4.500 
#    0.000    0.000    0.000    0.000    0.000    0.000 
#    0.000    0.000    0.000    0.000    0.000    0.000 
#
# Total GULP energy -178654.425338 kJ/mol
# GULP energy per Si atom -5582.950792 kJ/mol
# Density = 2.210669 g / cm^3
# Si number density = 22.157123 Si / 1000 Ang^3
#
#
#
# Elastic Constant Matrix: (Units=GPa)
#
#
# Indices 1 2 3 4 5 6 
#
# 1 97.3146 52.6620 22.3030 0.0000 27.3115 0.0000
# 2 52.6620 113.6535 41.1704 0.0000 23.2527 0.0000
# 3 22.3030 41.1704 81.2156 0.0000 15.8390 0.0000
# 4 0.0000 0.0000 0.0000 34.2174 0.0000 8.8599
# 5 27.3115 23.2527 15.8390 0.0000 37.2384 0.0000
# 6 0.0000 0.0000 0.0000 8.8599 0.0000 17.5995
#
#
#
# Elastic Compliance Matrix: (Units=1/GPa)
#
#
# Indices 1 2 3 4 5 6 
#
# 1 0.015507 -0.005611 0.000132 0.000000 -0.007925 0.000000
# 2 -0.005611 0.013659 -0.004931 0.000000 -0.002316 0.000000
# 3 0.000132 -0.004931 0.015479 0.000000 -0.003601 0.000000
# 4 0.000000 0.000000 0.000000 0.033605 0.000000 -0.016918
# 5 -0.007925 -0.002316 -0.003601 0.000000 0.035644 0.000000
# 6 0.000000 0.000000 0.000000 -0.016918 0.000000 0.065336
#
#
# Mechanical properties :
#
#
# Convention : Reuss Voigt Hill
#
# Bulk Modulus (GPa) = 41.97744 58.27273 50.12509
# Shear Modulus (GPa) = 24.03926 29.54762 26.79344
#
# Velocity S-wave (km/s) = 3.29742 3.65574 3.48120
# Velocity P-wave (km/s) = 5.78652 6.64651 6.23137
#
# Compressibility (1/GPa) = 0.02382232
#
# Stress axis : x y z
#
# Youngs Moduli (GPa) = 64.48904 73.21199 64.60400
#
# Poissons Ratio (x) = 0.41082 -0.00852
# Poissons Ratio (y) = 0.36187 0.31859
# Poissons Ratio (z) = -0.00850 0.36104
#
# Static dielectric constant tensor:
#      x y z
#    x 1.854710 0.000000 -0.009950 
#    y 0.000000 1.771540 0.000000 
#    z -0.009950 0.000000 1.932540 
# 
# From -- ./inp_files/211417.got.cif
#   From: 2010.05.17/outbox.cif.g08.bks.cpg/sg15_106_cif.got.tgz:211417.got - 2010.06.03 18:47:42.
