data_PCOD9298349
_publ_section_title
;
Structure prediction by ZEFSAII (Michael W. Deem and Ramdas Pophale) SiO2 
 PCOD9298349
Probable space group: C 2/C
;
_chemical_formula_sum "Si O2"
_cell_formula_units_Z 36
_cell_length_a 29.957859
_cell_length_b 5.329895
_cell_length_c 27.015322
_cell_angle_alpha 90.000000
_cell_angle_beta 161.332512
_cell_angle_gamma 90.000000
_cell_volume 1380.676530
_symmetry_space_group_name_H-M "C 2/C"
_symmetry_group_IT_number 15
_symmetry_cell_setting 'monoclinic'
loop_
_space_group_symop_operation_xyz
x,y,z
-x,y,1/2-z
-x,-y,-z
x,-y,1/2+z
1/2+x,1/2+y,z
1/2-x,1/2+y,1/2-z
1/2-x,1/2-y,-z
1/2+x,1/2-y,1/2+z
loop_
_atom_site_type_symbol
_atom_site_label
_atom_site_fract_x
_atom_site_fract_y
_atom_site_fract_z
Si Si1 0.441176 0.932471 0.116429
Si Si2 0.189084 0.732883 0.372117
Si Si3 0.831472 0.755900 0.824821
Si Si4 0.461056 0.939033 0.878496
Si Si5 0.000000 0.964559 0.750000
O O1 0.407996 0.696582 0.114336
O O2 0.606982 0.976997 0.300248
O O3 0.434319 0.922526 0.050110
O O4 0.345794 0.166533 0.032648
O O5 0.130944 0.736367 0.254311
O O6 0.111453 0.906722 0.330479
O O7 0.725464 0.536436 0.731719
O O8 0.877388 0.652644 0.819639
O O9 0.958575 0.722800 0.996660
#
# Coordination Sequence:
#
# PCOD9298349 Si02
#       5
#     8   8   8   8   4
#     4  10  24  44  68 102 138 193 237 299 369 429
#     4  10  24  46  66 100 148 181 248 298 363 443
#     4  11  24  45  77 108 149 191 250 307 377 447
#     4   9  24  45  69 106 146 191 240 305 376 440
#     4  12  24  40  76 102 142 192 248 306 366 440
#
# _framework density 26.074172999999998
#
# number of rings (size 3 to 8) (size 9 to 14) (size 15 to 20)
#    1.333    0.444    0.000    2.667    0.000   14.222 
#    0.000    0.000    0.000    0.000    0.000    0.000 
#    0.000    0.000    0.000    0.000    0.000    0.000 
#
# Total GULP energy -100407.305274 kJ/mol
# GULP energy per Si atom -5578.183626 kJ/mol
# Density = 2.601483 g / cm^3
# Si number density = 26.074173 Si / 1000 Ang^3
#
#
#
# Elastic Constant Matrix: (Units=GPa)
#
#
# Indices 1 2 3 4 5 6 
#
# 1 195.3431 33.9808 44.4002 -0.0011 11.2930 -0.0001
# 2 33.9808 41.6536 -3.7504 -0.0232 8.8338 -0.0069
# 3 44.4002 -3.7504 81.1207 -0.0129 26.5039 -0.0048
# 4 -0.0011 -0.0232 -0.0129 32.0391 0.0022 4.9649
# 5 11.2930 8.8338 26.5039 0.0022 29.8266 0.0030
# 6 -0.0001 -0.0069 -0.0048 4.9649 0.0030 32.0904
#
#
#
# Elastic Compliance Matrix: (Units=1/GPa)
#
#
# Indices 1 2 3 4 5 6 
#
# 1 0.007569 -0.007747 -0.006079 -0.000008 0.004831 -0.000002
# 2 -0.007747 0.035177 0.011712 0.000030 -0.017893 0.000006
# 3 -0.006079 0.011712 0.023359 0.000018 -0.021924 0.000005
# 4 -0.000008 0.000030 0.000018 0.031979 -0.000024 -0.004948
# 5 0.004831 -0.017893 -0.021924 -0.000024 0.056479 -0.000009
# 6 -0.000002 0.000006 0.000005 -0.004948 -0.000009 0.031927
#
#
# Mechanical properties :
#
#
# Convention : Reuss Voigt Hill
#
# Bulk Modulus (GPa) = 16.16091 51.93093 34.04592
# Shear Modulus (GPa) = 23.65808 35.02369 29.34088
#
# Velocity S-wave (km/s) = 3.01547 3.66899 3.35817
# Velocity P-wave (km/s) = 4.28201 6.15699 5.30302
#
# Compressibility (1/GPa) = 0.06187770
#
# Stress axis : x y z
#
# Youngs Moduli (GPa) = 132.11188 28.42795 42.80932
#
# Poissons Ratio (x) = 0.22023 0.26025
# Poissons Ratio (y) = 1.02346 -0.50140
# Poissons Ratio (z) = 0.80316 -0.33296
#
# Static dielectric constant tensor:
#      x y z
#    x 2.040130 0.000000 -0.006660 
#    y 0.000000 2.087380 0.000000 
#    z -0.006660 0.000000 2.132960 
# 
# From -- ./inp_files/320023.got.cif
#   From: 2010.05.17/outbox.cif.g08.bks.cpg/sg15_161_cif.got.tgz:320023.got - 2010.06.03 18:47:42.
