data_PCOD9298373
_publ_section_title
;
Structure prediction by ZEFSAII (Michael W. Deem and Ramdas Pophale) SiO2 
 PCOD9298373
Probable space group: C 2/C
;
_chemical_formula_sum "Si O2"
_cell_formula_units_Z 28
_cell_length_a 15.582370
_cell_length_b 17.686144
_cell_length_c 5.477539
_cell_angle_alpha 90.000000
_cell_angle_beta 62.444469
_cell_angle_gamma 90.000000
_cell_volume 1338.325325
_symmetry_space_group_name_H-M "C 2/C"
_symmetry_group_IT_number 15
_symmetry_cell_setting 'monoclinic'
loop_
_space_group_symop_operation_xyz
x,y,z
-x,y,1/2-z
-x,-y,-z
x,-y,1/2+z
1/2+x,1/2+y,z
1/2-x,1/2+y,1/2-z
1/2-x,1/2-y,-z
1/2+x,1/2-y,1/2+z
loop_
_atom_site_type_symbol
_atom_site_label
_atom_site_fract_x
_atom_site_fract_y
_atom_site_fract_z
Si Si1 0.431436 0.072307 0.529861
Si Si2 0.946890 0.159136 0.564268
Si Si3 0.287060 0.542948 0.804033
Si Si4 0.500000 0.807599 0.250000
O O1 0.500000 0.115115 0.250000
O O2 0.329197 0.049725 0.555654
O O3 0.419950 0.132907 0.759829
O O4 0.500000 0.000000 0.500000
O O5 0.841295 0.122787 0.716556
O O6 0.000000 0.142704 0.750000
O O7 0.952891 0.248632 0.501830
O O8 0.000000 0.126440 0.250000
O O9 0.314109 0.496045 0.524761
#
# Coordination Sequence:
#
# PCOD9298373 Si02
#       4
#     8   8   8   4
#     4  12  22  43  69  99 137 170 225 285 336 391
#     4  10  24  47  66 100 138 180 221 274 337 394
#     4  12  25  42  73 104 132 177 228 275 338 397
#     4  10  24  44  68  94 142 178 220 278 338 400
#
# _framework density 20.921669000000001
#
# number of rings (size 3 to 8) (size 9 to 14) (size 15 to 20)
#    0.857    0.000    4.286    2.571    0.000    4.571 
#    0.000    2.857    0.000    0.000    0.000    0.000 
#    0.000    0.000    0.000    0.000    0.000    0.000 
#
# Total GULP energy -77956.828798 kJ/mol
# GULP energy per Si atom -5568.344914 kJ/mol
# Density = 2.087405 g / cm^3
# Si number density = 20.921669 Si / 1000 Ang^3
#
#
#
# Elastic Constant Matrix: (Units=GPa)
#
#
# Indices 1 2 3 4 5 6 
#
# 1 77.2939 50.2640 41.2677 0.0000 -0.8851 0.0000
# 2 50.2640 107.4601 38.2525 0.0000 -11.4351 0.0000
# 3 41.2677 38.2525 100.1906 0.0000 22.5553 0.0000
# 4 0.0000 0.0000 0.0000 14.1742 0.0000 2.0290
# 5 -0.8851 -11.4351 22.5553 0.0000 35.0480 0.0000
# 6 0.0000 0.0000 0.0000 2.0290 0.0000 20.6055
#
#
#
# Elastic Compliance Matrix: (Units=1/GPa)
#
#
# Indices 1 2 3 4 5 6 
#
# 1 0.021195 -0.007390 -0.006415 0.000000 0.002253 0.000000
# 2 -0.007390 0.015164 -0.004464 0.000000 0.007634 0.000000
# 3 -0.006415 -0.004464 0.017181 0.000000 -0.012676 0.000000
# 4 0.000000 0.000000 0.000000 0.071559 0.000000 -0.007046
# 5 0.002253 0.007634 -0.012676 0.000000 0.039237 0.000000
# 6 0.000000 0.000000 0.000000 -0.007046 0.000000 0.049225
#
#
# Mechanical properties :
#
#
# Convention : Reuss Voigt Hill
#
# Bulk Modulus (GPa) = 58.82236 60.50143 59.66190
# Shear Modulus (GPa) = 19.54899 24.30956 21.92928
#
# Velocity S-wave (km/s) = 3.06010 3.41241 3.24104
# Velocity P-wave (km/s) = 6.37669 6.67135 6.52568
#
# Compressibility (1/GPa) = 0.01700034
#
# Stress axis : x y z
#
# Youngs Moduli (GPa) = 47.18201 65.94587 58.20234
#
# Poissons Ratio (x) = 0.48735 0.37339
# Poissons Ratio (y) = 0.34869 0.25982
# Poissons Ratio (z) = 0.30269 0.29439
#
# Static dielectric constant tensor:
#      x y z
#    x 1.796550 0.000000 0.164380 
#    y 0.000000 1.715940 0.000000 
#    z 0.164380 0.000000 2.046990 
# 
# From -- ./inp_files/6338.got.cif
#   From: 2010.05.17/outbox.cif.g08.bks.cpg/sg15_4_cif.got.tgz:6338.got - 2010.06.03 18:47:42.
