data_PCOD9298208
_publ_section_title
;
Structure prediction by ZEFSAII (Michael W. Deem and Ramdas Pophale) SiO2 
 PCOD9298208
Probable space group: C 2/C
;
_chemical_formula_sum "Si O2"
_cell_formula_units_Z 48
_cell_length_a 12.005608
_cell_length_b 10.955149
_cell_length_c 21.534973
_cell_angle_alpha 90.000000
_cell_angle_beta 129.830977
_cell_angle_gamma 90.000000
_cell_volume 2175.066612
_symmetry_space_group_name_H-M "C 2/C"
_symmetry_group_IT_number 15
_symmetry_cell_setting 'monoclinic'
loop_
_space_group_symop_operation_xyz
x,y,z
-x,y,1/2-z
-x,-y,-z
x,-y,1/2+z
1/2+x,1/2+y,z
1/2-x,1/2+y,1/2-z
1/2-x,1/2-y,-z
1/2+x,1/2-y,1/2+z
loop_
_atom_site_type_symbol
_atom_site_label
_atom_site_fract_x
_atom_site_fract_y
_atom_site_fract_z
Si Si1 0.889069 0.647248 0.383165
Si Si2 0.651439 0.172931 0.274465
Si Si3 0.883338 0.101966 0.435232
Si Si4 0.775136 0.423833 0.510757
Si Si5 0.840790 0.060152 0.666268
Si Si6 0.328619 0.322062 0.475239
O O1 0.864841 0.687030 0.304037
O O2 0.783969 0.533228 0.358380
O O3 0.837677 0.754219 0.412010
O O4 0.058711 0.604382 0.446976
O O5 0.500000 0.133760 0.250000
O O6 0.769608 0.076809 0.340748
O O7 0.686083 0.304882 0.316338
O O8 0.801976 0.162315 0.465323
O O9 0.002254 0.186494 0.445571
O O10 0.000000 0.000000 0.500000
O O11 0.674639 0.435977 0.414248
O O12 0.752617 0.546820 0.545489
O O13 0.000000 0.024521 0.750000
O O14 0.250000 0.250000 0.500000
#
# Coordination Sequence:
#
# PCOD9298208 Si02
#       6
#     8   8   8   8   8   8
#     4  12  26  46  75 104 149 194 240 309 375 440
#     4  11  25  46  70 107 144 188 247 301 372 441
#     4  10  24  43  75 100 143 188 245 302 356 443
#     4  11  24  48  74 104 141 198 245 301 370 445
#     4  11  27  44  70 104 148 186 242 305 371 435
#     4  11  25  43  73 106 137 188 250 292 368 443
#
# _framework density 22.068290999999999
#
# number of rings (size 3 to 8) (size 9 to 14) (size 15 to 20)
#    0.000    1.000    3.333    1.500   11.667    2.667 
#    0.000    0.000    0.000    0.000    0.000    0.000 
#    0.000    0.000    0.000    0.000    0.000    0.000 
#
# Total GULP energy -133738.459495 kJ/mol
# GULP energy per Si atom -5572.435812 kJ/mol
# Density = 2.201806 g / cm^3
# Si number density = 22.068291 Si / 1000 Ang^3
#
#
#
# Elastic Constant Matrix: (Units=GPa)
#
#
# Indices 1 2 3 4 5 6 
#
# 1 170.2020 42.9790 83.6053 0.0000 -1.2112 0.0000
# 2 42.9790 53.9686 52.2355 0.0000 13.0675 0.0000
# 3 83.6053 52.2355 179.5175 0.0000 -6.5975 0.0000
# 4 0.0000 0.0000 0.0000 26.3054 0.0000 -11.3364
# 5 -1.2112 13.0675 -6.5975 0.0000 49.4618 0.0000
# 6 0.0000 0.0000 0.0000 -11.3364 0.0000 26.1013
#
#
#
# Elastic Compliance Matrix: (Units=1/GPa)
#
#
# Indices 1 2 3 4 5 6 
#
# 1 0.008221 -0.004347 -0.002527 0.000000 0.001013 0.000000
# 2 -0.004347 0.031533 -0.007498 0.000000 -0.009437 0.000000
# 3 -0.002527 -0.007498 0.009044 0.000000 0.003125 0.000000
# 4 0.000000 0.000000 0.000000 0.046769 0.000000 0.020313
# 5 0.001013 -0.009437 0.003125 0.000000 0.023153 0.000000
# 6 0.000000 0.000000 0.000000 0.020313 0.000000 0.047135
#
#
# Mechanical properties :
#
#
# Convention : Reuss Voigt Hill
#
# Bulk Modulus (GPa) = 49.86194 84.59198 67.22696
# Shear Modulus (GPa) = 24.84070 35.36493 30.10282
#
# Velocity S-wave (km/s) = 3.35868 4.00749 3.69735
# Velocity P-wave (km/s) = 6.13876 7.73489 6.98258
#
# Compressibility (1/GPa) = 0.02005538
#
# Stress axis : x y z
#
# Youngs Moduli (GPa) = 121.63292 31.71273 110.57211
#
# Poissons Ratio (x) = 0.13785 0.27940
# Poissons Ratio (y) = 0.52871 0.82905
# Poissons Ratio (z) = 0.30735 0.23778
#
# Static dielectric constant tensor:
#      x y z
#    x 1.971120 0.000000 -0.073950 
#    y 0.000000 2.347640 0.000000 
#    z -0.073950 0.000000 1.925200 
# 
# From -- ./inp_files/237721.got.cif
#   From: 2010.05.17/outbox.cif.g08.bks.cpg/sg15_119_cif.got.tgz:237721.got - 2010.06.03 18:47:42.
