data_PCOD9298372
_publ_section_title
;
Structure prediction by ZEFSAII (Michael W. Deem and Ramdas Pophale) SiO2 
 PCOD9298372
Probable space group: C 2/C
;
_chemical_formula_sum "Si O2"
_cell_formula_units_Z 44
_cell_length_a 17.707849
_cell_length_b 18.152967
_cell_length_c 9.677212
_cell_angle_alpha 90.000000
_cell_angle_beta 46.590374
_cell_angle_gamma 90.000000
_cell_volume 2259.825616
_symmetry_space_group_name_H-M "C 2/C"
_symmetry_group_IT_number 15
_symmetry_cell_setting 'monoclinic'
loop_
_space_group_symop_operation_xyz
x,y,z
-x,y,1/2-z
-x,-y,-z
x,-y,1/2+z
1/2+x,1/2+y,z
1/2-x,1/2+y,1/2-z
1/2-x,1/2-y,-z
1/2+x,1/2-y,1/2+z
loop_
_atom_site_type_symbol
_atom_site_label
_atom_site_fract_x
_atom_site_fract_y
_atom_site_fract_z
Si Si1 0.508418 0.205347 0.001656
Si Si2 0.386751 0.453103 0.937500
Si Si3 0.165898 0.693515 0.042157
Si Si4 0.258831 0.469261 0.368184
Si Si5 0.555715 0.950364 0.039684
Si Si6 0.500000 0.688468 0.250000
O O1 0.616867 0.208983 0.951206
O O2 0.424727 0.203270 0.230544
O O3 0.476808 0.131817 0.958583
O O4 0.504166 0.266793 0.887646
O O5 0.500000 0.484817 0.750000
O O6 0.302276 0.491958 0.949362
O O7 0.401779 0.366972 0.882531
O O8 0.351416 0.459537 0.140152
O O9 0.250000 0.750000 0.000000
O O10 0.209420 0.609881 0.971881
O O11 0.174189 0.524159 0.406706
O O12 0.500000 0.970186 0.250000
O O13 0.500000 0.000000 0.000000
#
# Coordination Sequence:
#
# PCOD9298372 Si02
#       6
#     8   8   8   8   8   4
#     4  11  23  45  65 100 139 179 221 289 341 405
#     4  10  25  44  68  98 136 177 227 287 330 413
#     4  11  25  43  68  97 139 181 229 277 346 415
#     4  12  23  44  70 104 128 178 232 277 354 403
#     4  12  23  40  68 101 135 171 217 286 341 406
#     4  10  24  44  68  94 142 176 226 274 352 396
#
# _framework density 19.470528000000002
#
# number of rings (size 3 to 8) (size 9 to 14) (size 15 to 20)
#    0.545    0.364    2.727    4.909    0.000    2.909 
#    3.273    2.727    0.000    0.000    0.000    0.000 
#    0.000    0.000    0.000    0.000    0.000    0.000 
#
# Total GULP energy -122581.500202 kJ/mol
# GULP energy per Si atom -5571.886373 kJ/mol
# Density = 1.942621 g / cm^3
# Si number density = 19.470528 Si / 1000 Ang^3
#
#
#
# Elastic Constant Matrix: (Units=GPa)
#
#
# Indices 1 2 3 4 5 6 
#
# 1 133.9448 61.2282 24.9540 0.0000 16.4462 0.0000
# 2 61.2282 103.5199 26.5317 0.0000 17.7408 0.0000
# 3 24.9540 26.5317 107.2617 0.0000 22.8415 0.0000
# 4 0.0000 0.0000 0.0000 37.3612 0.0000 3.5811
# 5 16.4462 17.7408 22.8415 0.0000 36.6573 0.0000
# 6 0.0000 0.0000 0.0000 3.5811 0.0000 39.8347
#
#
#
# Elastic Compliance Matrix: (Units=1/GPa)
#
#
# Indices 1 2 3 4 5 6 
#
# 1 0.010387 -0.005716 -0.000691 0.000000 -0.001463 0.000000
# 2 -0.005716 0.013972 -0.001421 0.000000 -0.003312 0.000000
# 3 -0.000691 -0.001421 0.011095 0.000000 -0.005916 0.000000
# 4 0.000000 0.000000 0.000000 0.026998 0.000000 -0.002427
# 5 -0.001463 -0.003312 -0.005916 0.000000 0.033225 0.000000
# 6 0.000000 0.000000 0.000000 -0.002427 0.000000 0.025322
#
#
# Mechanical properties :
#
#
# Convention : Reuss Voigt Hill
#
# Bulk Modulus (GPa) = 50.50794 63.35046 56.92920
# Shear Modulus (GPa) = 34.90284 38.23815 36.57050
#
# Velocity S-wave (km/s) = 4.23850 4.43640 4.33858
# Velocity P-wave (km/s) = 7.06755 7.67134 7.37562
#
# Compressibility (1/GPa) = 0.01979887
#
# Stress axis : x y z
#
# Youngs Moduli (GPa) = 96.27575 71.56980 90.13061
#
# Poissons Ratio (x) = 0.40906 0.06229
# Poissons Ratio (y) = 0.55027 0.12808
# Poissons Ratio (z) = 0.06653 0.10171
#
# Static dielectric constant tensor:
#      x y z
#    x 1.655430 0.000000 -0.074150 
#    y 0.000000 1.542580 0.000000 
#    z -0.074150 0.000000 1.709540 
# 
# From -- ./inp_files/39531.got.cif
#   From: 2010.05.17/outbox.cif.g08.bks.cpg/sg15_20_cif.got.tgz:39531.got - 2010.06.03 18:47:42.
