data_PCOD9298864
_publ_section_title
;
Structure prediction by ZEFSAII (Michael W. Deem and Ramdas Pophale) SiO2 
 PCOD9298864
Probable space group: C 2/C
;
_chemical_formula_sum "Si O2"
_cell_formula_units_Z 40
_cell_length_a 10.561243
_cell_length_b 10.621371
_cell_length_c 16.612838
_cell_angle_alpha 90.000000
_cell_angle_beta 100.821167
_cell_angle_gamma 90.000000
_cell_volume 1830.405511
_symmetry_space_group_name_H-M "C 2/C"
_symmetry_group_IT_number 15
_symmetry_cell_setting 'monoclinic'
loop_
_space_group_symop_operation_xyz
x,y,z
-x,y,1/2-z
-x,-y,-z
x,-y,1/2+z
1/2+x,1/2+y,z
1/2-x,1/2+y,1/2-z
1/2-x,1/2-y,-z
1/2+x,1/2-y,1/2+z
loop_
_atom_site_type_symbol
_atom_site_label
_atom_site_fract_x
_atom_site_fract_y
_atom_site_fract_z
Si Si1 0.780076 0.276322 0.114196
Si Si2 0.625329 0.928475 0.227210
Si Si3 0.373403 0.525065 0.183693
Si Si4 0.009966 0.365108 0.043003
Si Si5 0.507544 0.375232 0.443609
O O1 0.845478 0.320486 0.205433
O O2 0.636169 0.327952 0.096141
O O3 0.864563 0.332903 0.052800
O O4 0.810541 0.129377 0.118505
O O5 0.500000 0.998661 0.250000
O O6 0.758776 0.000285 0.232724
O O7 0.589397 0.879726 0.134706
O O8 0.500000 0.561013 0.250000
O O9 0.416771 0.413158 0.128583
O O10 0.000000 0.500000 0.000000
O O11 0.061413 0.247524 0.997058
O O12 0.500000 0.500000 0.500000
#
# Coordination Sequence:
#
# PCOD9298864 Si02
#       5
#     8   8   8   8   8
#     4  11  24  47  71 101 151 196 245 309 372 447
#     4  10  24  46  68 101 143 197 241 303 374 448
#     4  12  24  48  77 108 146 199 256 308 378 455
#     4  11  24  45  69 105 151 197 237 315 380 437
#     4  12  26  44  73 111 143 192 253 307 375 446
#
# _framework density 21.853081
#
# number of rings (size 3 to 8) (size 9 to 14) (size 15 to 20)
#    0.000    0.800    4.000    3.600    2.800    0.800 
#   10.800    0.000    0.000    0.000    0.000    0.000 
#    0.000    0.000    0.000    0.000    0.000    0.000 
#
# Total GULP energy -111689.328141 kJ/mol
# GULP energy per Si atom -5584.466407 kJ/mol
# Density = 2.180334 g / cm^3
# Si number density = 21.853081 Si / 1000 Ang^3
#
#
#
# Elastic Constant Matrix: (Units=GPa)
#
#
# Indices 1 2 3 4 5 6 
#
# 1 158.7189 38.1562 21.3323 0.0000 -4.9826 0.0000
# 2 38.1562 123.0284 42.8737 0.0000 -10.4865 0.0000
# 3 21.3323 42.8737 108.5277 0.0000 8.2179 0.0000
# 4 0.0000 0.0000 0.0000 38.3467 0.0000 -6.7528
# 5 -4.9826 -10.4865 8.2179 0.0000 40.3580 0.0000
# 6 0.0000 0.0000 0.0000 -6.7528 0.0000 30.4012
#
#
#
# Elastic Compliance Matrix: (Units=1/GPa)
#
#
# Indices 1 2 3 4 5 6 
#
# 1 0.006850 -0.001855 -0.000651 0.000000 0.000496 0.000000
# 2 -0.001855 0.010370 -0.003980 0.000000 0.003276 0.000000
# 3 -0.000651 -0.003980 0.011171 0.000000 -0.003389 0.000000
# 4 0.000000 0.000000 0.000000 0.027139 0.000000 0.006028
# 5 0.000496 0.003276 -0.003389 0.000000 0.026381 0.000000
# 6 0.000000 0.000000 0.000000 0.006028 0.000000 0.034233
#
#
# Mechanical properties :
#
#
# Convention : Reuss Voigt Hill
#
# Bulk Modulus (GPa) = 64.85891 66.11105 65.48498
# Shear Modulus (GPa) = 37.24262 41.01536 39.12899
#
# Velocity S-wave (km/s) = 4.13271 4.33698 4.23608
# Velocity P-wave (km/s) = 7.24681 7.44294 7.34553
#
# Compressibility (1/GPa) = 0.01541808
#
# Stress axis : x y z
#
# Youngs Moduli (GPa) = 145.99594 96.43451 89.51659
#
# Poissons Ratio (x) = 0.17890 0.05828
# Poissons Ratio (y) = 0.27084 0.35627
# Poissons Ratio (z) = 0.09505 0.38380
#
# Static dielectric constant tensor:
#      x y z
#    x 1.889660 0.000000 -0.068170 
#    y 0.000000 1.916760 0.000000 
#    z -0.068170 0.000000 1.960090 
# 
# From -- ./inp_files/195243.got.cif
#   From: 2010.05.17/outbox.cif.g08.bks.cpg/sg15_98_cif.got.tgz:195243.got - 2010.06.03 18:47:42.
