data_PCOD9298812
_publ_section_title
;
Structure prediction by ZEFSAII (Michael W. Deem and Ramdas Pophale) SiO2 
 PCOD9298812
Probable space group: C 2/C
;
_chemical_formula_sum "Si O2"
_cell_formula_units_Z 32
_cell_length_a 23.827195
_cell_length_b 4.885736
_cell_length_c 10.426511
_cell_angle_alpha 90.000000
_cell_angle_beta 105.190535
_cell_angle_gamma 90.000000
_cell_volume 1171.375520
_symmetry_space_group_name_H-M "C 2/C"
_symmetry_group_IT_number 15
_symmetry_cell_setting 'monoclinic'
loop_
_space_group_symop_operation_xyz
x,y,z
-x,y,1/2-z
-x,-y,-z
x,-y,1/2+z
1/2+x,1/2+y,z
1/2-x,1/2+y,1/2-z
1/2-x,1/2-y,-z
1/2+x,1/2-y,1/2+z
loop_
_atom_site_type_symbol
_atom_site_label
_atom_site_fract_x
_atom_site_fract_y
_atom_site_fract_z
Si Si1 0.598933 0.265313 0.393640
Si Si2 0.310363 0.590684 0.892372
Si Si3 0.179212 0.592588 0.776041
Si Si4 0.000000 0.115712 0.250000
Si Si5 0.500000 0.000000 0.500000
O O1 0.647328 0.474003 0.475349
O O2 0.629333 0.019207 0.336757
O O3 0.554952 0.414637 0.269726
O O4 0.558323 0.170777 0.486222
O O5 0.242111 0.551848 0.880155
O O6 0.320614 0.897914 0.850321
O O7 0.322673 0.398607 0.776599
O O8 0.006749 0.299988 0.378536
#
# Coordination Sequence:
#
# PCOD9298812 Si02
#       5
#     8   8   8   4   4
#     4  12  27  46  75 108 159 210 268 333 400 489
#     4  10  24  45  77 110 154 203 265 335 405 478
#     4  10  24  46  73 115 151 202 265 335 407 477
#     4  12  30  52  74 116 156 216 274 332 400 486
#     4  12  30  50  78 112 158 212 276 328 400 482
#
# _framework density 27.31831
#
# number of rings (size 3 to 8) (size 9 to 14) (size 15 to 20)
#    0.000    1.000    0.000    3.750   14.000    0.000 
#    0.000    7.500    0.000    0.000    0.000    0.000 
#    0.000    0.000    0.000    0.000    0.000    0.000 
#
# Total GULP energy -89489.927395 kJ/mol
# GULP energy per Si atom -5593.120462 kJ/mol
# Density = 2.725613 g / cm^3
# Si number density = 27.318310 Si / 1000 Ang^3
#
#
#
# Elastic Constant Matrix: (Units=GPa)
#
#
# Indices 1 2 3 4 5 6 
#
# 1 135.9921 31.8167 44.2036 0.0000 -7.5330 0.0000
# 2 31.8167 95.2439 28.9175 0.0000 -0.2359 0.0000
# 3 44.2036 28.9175 66.0677 0.0000 12.4375 0.0000
# 4 0.0000 0.0000 0.0000 45.1326 0.0000 7.4407
# 5 -7.5330 -0.2359 12.4375 0.0000 63.6347 0.0000
# 6 0.0000 0.0000 0.0000 7.4407 0.0000 21.1692
#
#
#
# Elastic Compliance Matrix: (Units=1/GPa)
#
#
# Indices 1 2 3 4 5 6 
#
# 1 0.009917 -0.001329 -0.006513 0.000000 0.002442 0.000000
# 2 -0.001329 0.012364 -0.004673 0.000000 0.000802 0.000000
# 3 -0.006513 -0.004673 0.022516 0.000000 -0.005189 0.000000
# 4 0.000000 0.000000 0.000000 0.023520 0.000000 -0.008267
# 5 0.002442 0.000802 -0.005189 0.000000 0.017021 0.000000
# 6 0.000000 0.000000 0.000000 -0.008267 0.000000 0.050144
#
#
# Mechanical properties :
#
#
# Convention : Reuss Voigt Hill
#
# Bulk Modulus (GPa) = 50.59210 56.35323 53.47266
# Shear Modulus (GPa) = 29.92204 38.81169 34.36687
#
# Velocity S-wave (km/s) = 3.31314 3.77333 3.55070
# Velocity P-wave (km/s) = 5.76156 6.29740 6.03543
#
# Compressibility (1/GPa) = 0.01976593
#
# Stress axis : x y z
#
# Youngs Moduli (GPa) = 100.84153 80.87795 44.41332
#
# Poissons Ratio (x) = 0.10751 0.28925
# Poissons Ratio (y) = 0.13405 0.20756
# Poissons Ratio (z) = 0.65675 0.37797
#
# Static dielectric constant tensor:
#      x y z
#    x 2.056890 0.000000 0.017760 
#    y 0.000000 2.098420 0.000000 
#    z 0.017760 0.000000 2.152940 
# 
# From -- ./inp_files/109069.got.cif
#   From: 2010.05.17/outbox.cif.g08.bks.cpg/sg15_55_cif.got.tgz:109069.got - 2010.06.03 18:47:42.
