data_PCOD9298807
_publ_section_title
;
Structure prediction by ZEFSAII (Michael W. Deem and Ramdas Pophale) SiO2 
 PCOD9298807
Probable space group: C 2/C
;
_chemical_formula_sum "Si O2"
_cell_formula_units_Z 48
_cell_length_a 9.472472
_cell_length_b 10.260025
_cell_length_c 18.519996
_cell_angle_alpha 90.000000
_cell_angle_beta 77.879080
_cell_angle_gamma 90.000000
_cell_volume 1759.791437
_symmetry_space_group_name_H-M "C 2/C"
_symmetry_group_IT_number 15
_symmetry_cell_setting 'monoclinic'
loop_
_space_group_symop_operation_xyz
x,y,z
-x,y,1/2-z
-x,-y,-z
x,-y,1/2+z
1/2+x,1/2+y,z
1/2-x,1/2+y,1/2-z
1/2-x,1/2-y,-z
1/2+x,1/2-y,1/2+z
loop_
_atom_site_type_symbol
_atom_site_label
_atom_site_fract_x
_atom_site_fract_y
_atom_site_fract_z
Si Si1 0.097223 0.970848 0.167533
Si Si2 0.166664 0.576930 0.753531
Si Si3 0.402394 0.703099 0.430272
Si Si4 0.647021 0.970754 0.028572
Si Si5 0.054590 0.732284 0.064352
Si Si6 0.134501 0.310469 0.786101
O O1 0.262556 0.933644 0.173119
O O2 0.071082 0.864194 0.108341
O O3 0.000000 0.964653 0.250000
O O4 0.055712 0.112194 0.140252
O O5 0.117797 0.644323 0.589801
O O6 0.205150 0.426800 0.732202
O O7 0.000000 0.587527 0.750000
O O8 0.268515 0.611533 0.472690
O O9 0.243920 0.804689 0.286326
O O10 0.500060 0.722980 0.008556
O O11 0.679524 0.120398 0.047642
O O12 0.500000 0.000000 0.000000
O O13 0.934699 0.660391 0.128540
O O14 0.000000 0.278600 0.750000
#
# Coordination Sequence:
#
# PCOD9298807 Si02
#       6
#     8   8   8   8   8   8
#     4  12  25  52  76 112 166 204 261 335 391 477
#     4  11  26  48  76 109 154 213 268 329 396 469
#     4  10  24  45  76 117 152 203 267 321 393 473
#     4   9  22  45  74 111 161 202 254 330 389 468
#     4  11  22  48  79 107 159 207 252 329 397 467
#     4  11  24  50  73 111 161 206 265 332 398 469
#
# _framework density 27.275960999999999
#
# number of rings (size 3 to 8) (size 9 to 14) (size 15 to 20)
#    0.000    1.333    3.333    0.500    7.000    4.667 
#    3.000    0.833    0.000    0.000    0.000    0.000 
#    0.000    0.000    0.000    0.000    0.000    0.000 
#
# Total GULP energy -133699.136298 kJ/mol
# GULP energy per Si atom -5570.797346 kJ/mol
# Density = 2.721388 g / cm^3
# Si number density = 27.275961 Si / 1000 Ang^3
#
#
#
# Elastic Constant Matrix: (Units=GPa)
#
#
# Indices 1 2 3 4 5 6 
#
# 1 151.5874 73.6200 51.0184 0.0000 19.6165 0.0000
# 2 73.6200 219.5151 53.9755 0.0000 1.4713 0.0000
# 3 51.0184 53.9755 111.9550 0.0000 21.0625 0.0000
# 4 0.0000 0.0000 0.0000 41.1519 0.0000 -0.0751
# 5 19.6165 1.4713 21.0625 0.0000 42.5853 0.0000
# 6 0.0000 0.0000 0.0000 -0.0751 0.0000 46.7621
#
#
#
# Elastic Compliance Matrix: (Units=1/GPa)
#
#
# Indices 1 2 3 4 5 6 
#
# 1 0.008928 -0.002390 -0.002379 0.000000 -0.002853 0.000000
# 2 -0.002390 0.005861 -0.002101 0.000000 0.001938 0.000000
# 3 -0.002379 -0.002101 0.011918 0.000000 -0.004726 0.000000
# 4 0.000000 0.000000 0.000000 0.024300 0.000000 0.000039
# 5 -0.002853 0.001938 -0.004726 0.000000 0.027067 0.000000
# 6 0.000000 0.000000 0.000000 0.000039 0.000000 0.021385
#
#
# Mechanical properties :
#
#
# Convention : Reuss Voigt Hill
#
# Bulk Modulus (GPa) = 77.12327 93.36506 85.24417
# Shear Modulus (GPa) = 42.54546 46.39611 44.47079
#
# Velocity S-wave (km/s) = 3.95373 4.12878 4.04220
# Velocity P-wave (km/s) = 7.01279 7.55203 7.28740
#
# Compressibility (1/GPa) = 0.01296626
#
# Stress axis : x y z
#
# Youngs Moduli (GPa) = 112.01306 170.63074 83.90322
#
# Poissons Ratio (x) = 0.40779 0.19964
# Poissons Ratio (y) = 0.26770 0.17627
# Poissons Ratio (z) = 0.26652 0.35848
#
# Static dielectric constant tensor:
#      x y z
#    x 2.329540 0.000000 -0.112490 
#    y 0.000000 2.451040 0.000000 
#    z -0.112490 0.000000 2.289020 
# 
# From -- ./inp_files/268244.got.cif
#   From: 2010.05.17/outbox.cif.g08.bks.cpg/sg15_135_cif.got.tgz:268244.got - 2010.06.03 18:47:42.
