data_PCOD9298944
_publ_section_title
;
Structure prediction by ZEFSAII (Michael W. Deem and Ramdas Pophale) SiO2 
 PCOD9298944
Probable space group: C 2/C
;
_chemical_formula_sum "Si O2"
_cell_formula_units_Z 52
_cell_length_a 8.084914
_cell_length_b 16.040305
_cell_length_c 21.656010
_cell_angle_alpha 90.000000
_cell_angle_beta 124.448934
_cell_angle_gamma 90.000000
_cell_volume 2315.932831
_symmetry_space_group_name_H-M "C 2/C"
_symmetry_group_IT_number 15
_symmetry_cell_setting 'monoclinic'
loop_
_space_group_symop_operation_xyz
x,y,z
-x,y,1/2-z
-x,-y,-z
x,-y,1/2+z
1/2+x,1/2+y,z
1/2-x,1/2+y,1/2-z
1/2-x,1/2-y,-z
1/2+x,1/2-y,1/2+z
loop_
_atom_site_type_symbol
_atom_site_label
_atom_site_fract_x
_atom_site_fract_y
_atom_site_fract_z
Si Si1 0.500000 0.480574 0.250000
Si Si2 0.181740 0.474567 0.907397
Si Si3 0.192368 0.654206 0.685249
Si Si4 0.424886 0.370421 0.512043
Si Si5 0.000000 0.703392 0.250000
Si Si6 0.689328 0.113248 0.178013
Si Si7 0.500000 0.065892 0.750000
Si Si8 0.202765 0.758221 0.901181
O O1 0.336290 0.417119 0.185117
O O2 0.344560 0.549534 0.243518
O O3 0.291047 0.548758 0.967321
O O4 0.977421 0.439453 0.895296
O O5 0.106510 0.514040 0.826575
O O6 0.349842 0.404005 0.934417
O O7 0.313634 0.737153 0.699831
O O8 0.168144 0.621315 0.750605
O O9 0.967279 0.686523 0.626276
O O10 0.400841 0.296719 0.456032
O O11 0.342622 0.326641 0.556220
O O12 0.055938 0.651714 0.202883
O O13 0.787703 0.187715 0.159335
#
# Coordination Sequence:
#
# PCOD9298944 Si02
#       8
#     4   8   8   8   4   8   4   8
#     4  11  24  39  65 103 142 172 228 283 354 411
#     4  11  24  43  70 103 139 187 234 289 347 420
#     4  11  23  42  66 101 137 182 228 285 351 417
#     4  10  24  46  70  98 139 193 232 286 346 419
#     4  11  25  40  62 104 148 178 226 297 355 418
#     4  12  24  41  67 104 142 188 232 289 355 415
#     4  12  21  41  75  97 140 174 232 296 345 417
#     4  11  23  44  71  97 141 186 235 286 346 425
#
# _framework density 22.453157000000001
#
# number of rings (size 3 to 8) (size 9 to 14) (size 15 to 20)
#    0.000    0.923    3.077    3.231    2.154    1.231 
#    0.000    0.000    0.000    0.000    0.000    0.000 
#    0.000    0.000    0.000    0.000    0.000    0.000 
#
# Total GULP energy -144811.638974 kJ/mol
# GULP energy per Si atom -5569.678422 kJ/mol
# Density = 2.240205 g / cm^3
# Si number density = 22.453157 Si / 1000 Ang^3
#
#
#
# Elastic Constant Matrix: (Units=GPa)
#
#
# Indices 1 2 3 4 5 6 
#
# 1 96.7597 60.1021 38.2577 0.0000 24.2636 0.0000
# 2 60.1021 144.9947 44.9958 0.0000 11.0335 0.0000
# 3 38.2577 44.9958 58.2370 0.0000 11.1853 0.0000
# 4 0.0000 0.0000 0.0000 29.6903 0.0000 10.5191
# 5 24.2636 11.0335 11.1853 0.0000 30.3949 0.0000
# 6 0.0000 0.0000 0.0000 10.5191 0.0000 63.9042
#
#
#
# Elastic Compliance Matrix: (Units=1/GPa)
#
#
# Indices 1 2 3 4 5 6 
#
# 1 0.018589 -0.004918 -0.006354 0.000000 -0.010716 0.000000
# 2 -0.004918 0.010390 -0.005193 0.000000 0.002066 0.000000
# 3 -0.006354 -0.005193 0.025848 0.000000 -0.002555 0.000000
# 4 0.000000 0.000000 0.000000 0.035767 0.000000 -0.005888
# 5 -0.010716 0.002066 -0.002555 0.000000 0.041645 0.000000
# 6 0.000000 0.000000 0.000000 -0.005888 0.000000 0.016618
#
#
# Mechanical properties :
#
#
# Convention : Reuss Voigt Hill
#
# Bulk Modulus (GPa) = 45.66856 65.18919 55.42888
# Shear Modulus (GPa) = 26.44295 35.24028 30.84162
#
# Velocity S-wave (km/s) = 3.43548 3.96599 3.71023
# Velocity P-wave (km/s) = 6.01002 7.07592 6.56464
#
# Compressibility (1/GPa) = 0.02189690
#
# Stress axis : x y z
#
# Youngs Moduli (GPa) = 53.79495 96.24683 38.68711
#
# Poissons Ratio (x) = 0.47337 0.24580
# Poissons Ratio (y) = 0.26458 0.20092
# Poissons Ratio (z) = 0.34179 0.49985
#
# Static dielectric constant tensor:
#      x y z
#    x 1.888450 0.000000 0.070110 
#    y 0.000000 1.916370 0.000000 
#    z 0.070110 0.000000 1.923250 
# 
# From -- ./inp_files/264480.got.cif
#   From: 2010.05.17/outbox.cif.g08.bks.cpg/sg15_133_cif.got.tgz:264480.got - 2010.06.03 18:47:42.
