data_PCOD9298825
_publ_section_title
;
Structure prediction by ZEFSAII (Michael W. Deem and Ramdas Pophale) SiO2 
 PCOD9298825
Probable space group: C 2/C
;
_chemical_formula_sum "Si O2"
_cell_formula_units_Z 52
_cell_length_a 9.659644
_cell_length_b 11.921291
_cell_length_c 21.981118
_cell_angle_alpha 90.000000
_cell_angle_beta 57.782571
_cell_angle_gamma 90.000000
_cell_volume 2141.511840
_symmetry_space_group_name_H-M "C 2/C"
_symmetry_group_IT_number 15
_symmetry_cell_setting 'monoclinic'
loop_
_space_group_symop_operation_xyz
x,y,z
-x,y,1/2-z
-x,-y,-z
x,-y,1/2+z
1/2+x,1/2+y,z
1/2-x,1/2+y,1/2-z
1/2-x,1/2-y,-z
1/2+x,1/2-y,1/2+z
loop_
_atom_site_type_symbol
_atom_site_label
_atom_site_fract_x
_atom_site_fract_y
_atom_site_fract_z
Si Si1 0.961414 0.204634 0.687926
Si Si2 0.500000 0.655682 0.250000
Si Si3 0.385555 0.183874 0.688164
Si Si4 0.170216 0.129119 0.526912
Si Si5 0.694218 0.911206 0.966813
Si Si6 0.486594 0.303090 0.556975
Si Si7 0.145910 0.434166 0.835325
O O1 0.768476 0.178258 0.730891
O O2 0.962321 0.335881 0.668871
O O3 0.000000 0.184729 0.750000
O O4 0.063808 0.135444 0.614134
O O5 0.476126 0.743490 0.310991
O O6 0.661204 0.584033 0.228503
O O7 0.348636 0.256893 0.635754
O O8 0.421824 0.056149 0.664659
O O9 0.250000 0.250000 0.500000
O O10 0.067961 0.126047 0.488483
O O11 0.306393 0.033463 0.502225
O O12 0.878876 0.874943 0.939442
O O13 0.661594 0.922924 0.903690
O O14 0.577172 0.812706 0.017396
#
# Coordination Sequence:
#
# PCOD9298825 Si02
#       7
#     8   4   8   8   8   8   8
#     4  11  25  44  63 104 137 176 239 279 340 418
#     4  10  24  46  62 106 136 174 232 276 342 414
#     4  11  25  42  74  94 140 182 228 282 347 406
#     4  12  26  43  69 101 140 180 233 281 345 409
#     4  11  24  43  73  95 141 181 225 290 337 413
#     4  11  24  47  66 108 133 180 236 278 346 408
#     4  11  23  43  71  97 137 188 217 290 342 404
#
# _framework density 24.281911000000001
#
# number of rings (size 3 to 8) (size 9 to 14) (size 15 to 20)
#    0.000    0.923    3.077    3.231    6.462    1.231 
#    0.000    1.538    0.000    0.000    0.000    0.000 
#    0.000    0.000    0.000    0.000    0.000    0.000 
#
# Total GULP energy -145381.627975 kJ/mol
# GULP energy per Si atom -5591.601076 kJ/mol
# Density = 2.422664 g / cm^3
# Si number density = 24.281911 Si / 1000 Ang^3
#
#
#
# Elastic Constant Matrix: (Units=GPa)
#
#
# Indices 1 2 3 4 5 6 
#
# 1 60.0472 -4.7514 30.1227 0.0000 14.1183 0.0000
# 2 -4.7514 107.9376 23.1098 0.0000 16.7361 0.0000
# 3 30.1227 23.1098 113.0167 0.0000 16.8803 0.0000
# 4 0.0000 0.0000 0.0000 31.8715 0.0000 6.6614
# 5 14.1183 16.7361 16.8803 0.0000 41.5910 0.0000
# 6 0.0000 0.0000 0.0000 6.6614 0.0000 23.0742
#
#
#
# Elastic Compliance Matrix: (Units=1/GPa)
#
#
# Indices 1 2 3 4 5 6 
#
# 1 0.021003 0.003018 -0.005289 0.000000 -0.006197 0.000000
# 2 0.003018 0.010566 -0.002317 0.000000 -0.004336 0.000000
# 3 -0.005289 -0.002317 0.010991 0.000000 -0.001733 0.000000
# 4 0.000000 0.000000 0.000000 0.033391 0.000000 -0.009640
# 5 -0.006197 -0.004336 -0.001733 0.000000 0.028595 0.000000
# 6 0.000000 0.000000 0.000000 -0.009640 0.000000 0.046121
#
#
# Mechanical properties :
#
#
# Convention : Reuss Voigt Hill
#
# Bulk Modulus (GPa) = 29.95652 41.99598 35.97625
# Shear Modulus (GPa) = 29.24458 34.80869 32.02664
#
# Velocity S-wave (km/s) = 3.47418 3.79030 3.63568
# Velocity P-wave (km/s) = 5.33451 6.04052 5.69846
#
# Compressibility (1/GPa) = 0.03338171
#
# Stress axis : x y z
#
# Youngs Moduli (GPa) = 47.61251 94.64450 90.98587
#
# Poissons Ratio (x) = -0.28563 0.48127
# Poissons Ratio (y) = -0.14369 0.21084
# Poissons Ratio (z) = 0.25184 0.21932
#
# Static dielectric constant tensor:
#      x y z
#    x 2.044260 0.000000 0.015220 
#    y 0.000000 1.942780 0.000000 
#    z 0.015220 0.000000 1.996670 
# 
# From -- ./inp_files/236879.got.cif
#   From: 2010.05.17/outbox.cif.g08.bks.cpg/sg15_119_cif.got.tgz:236879.got - 2010.06.03 18:47:42.
