data_PCOD9298955
_publ_section_title
;
Structure prediction by ZEFSAII (Michael W. Deem and Ramdas Pophale) SiO2 
 PCOD9298955
Probable space group: C 2/C
;
_chemical_formula_sum "Si O2"
_cell_formula_units_Z 40
_cell_length_a 16.239863
_cell_length_b 9.386587
_cell_length_c 10.394304
_cell_angle_alpha 90.000000
_cell_angle_beta 83.009869
_cell_angle_gamma 90.000000
_cell_volume 1572.698142
_symmetry_space_group_name_H-M "C 2/C"
_symmetry_group_IT_number 15
_symmetry_cell_setting 'monoclinic'
loop_
_space_group_symop_operation_xyz
x,y,z
-x,y,1/2-z
-x,-y,-z
x,-y,1/2+z
1/2+x,1/2+y,z
1/2-x,1/2+y,1/2-z
1/2-x,1/2-y,-z
1/2+x,1/2-y,1/2+z
loop_
_atom_site_type_symbol
_atom_site_label
_atom_site_fract_x
_atom_site_fract_y
_atom_site_fract_z
Si Si1 0.500000 0.334460 0.250000
Si Si2 0.000000 0.645057 0.750000
Si Si3 0.232158 0.762955 0.818095
Si Si4 0.880379 0.404349 0.671777
Si Si5 0.350438 0.568066 0.952354
Si Si6 0.858153 0.746746 0.931944
O O1 0.564003 0.414676 0.143794
O O2 0.557523 0.229052 0.321943
O O3 0.066463 0.542892 0.808177
O O4 0.048564 0.736782 0.637939
O O5 0.276333 0.627032 0.874414
O O6 0.198188 0.733000 0.683563
O O7 0.306360 0.877249 0.785871
O O8 0.161316 0.830789 0.921422
O O9 0.848358 0.381304 0.533924
O O10 0.342348 0.403465 0.990549
#
# Coordination Sequence:
#
# PCOD9298955 Si02
#       6
#     4   4   8   8   8   8
#     4   9  21  44  72 104 145 191 236 318 374 437
#     4  11  27  48  70 114 153 195 252 312 380 425
#     4  10  25  46  72 110 154 197 239 321 372 448
#     4  10  24  46  71 102 153 197 245 308 375 442
#     4  10  24  46  74 107 152 190 253 308 379 440
#     4  12  26  43  78 108 141 203 252 304 367 462
#
# _framework density 25.433999
#
# number of rings (size 3 to 8) (size 9 to 14) (size 15 to 20)
#    0.000    1.600    0.000    1.800   11.200    2.400 
#    3.600    0.000    0.000    0.000    0.000    0.000 
#    0.000    0.000    0.000    0.000    0.000    0.000 
#
# Total GULP energy -112090.866803 kJ/mol
# GULP energy per Si atom -5604.543340 kJ/mol
# Density = 2.537611 g / cm^3
# Si number density = 25.433999 Si / 1000 Ang^3
#
#
#
# Elastic Constant Matrix: (Units=GPa)
#
#
# Indices 1 2 3 4 5 6 
#
# 1 97.9382 49.4737 52.6395 0.0000 -11.7222 0.0000
# 2 49.4737 122.9538 39.3057 0.0000 -5.1856 0.0000
# 3 52.6395 39.3057 125.8436 0.0000 -20.7236 0.0000
# 4 0.0000 0.0000 0.0000 32.7129 0.0000 -19.2080
# 5 -11.7222 -5.1856 -20.7236 0.0000 63.5871 0.0000
# 6 0.0000 0.0000 0.0000 -19.2080 0.0000 24.9328
#
#
#
# Elastic Compliance Matrix: (Units=1/GPa)
#
#
# Indices 1 2 3 4 5 6 
#
# 1 0.015183 -0.004541 -0.004789 0.000000 0.000868 0.000000
# 2 -0.004541 0.010396 -0.001422 0.000000 -0.000453 0.000000
# 3 -0.004789 -0.001422 0.010810 0.000000 0.002524 0.000000
# 4 0.000000 0.000000 0.000000 0.055818 0.000000 0.043002
# 5 0.000868 -0.000453 0.002524 0.000000 0.016672 0.000000
# 6 0.000000 0.000000 0.000000 0.043002 0.000000 0.073236
#
#
# Mechanical properties :
#
#
# Convention : Reuss Voigt Hill
#
# Bulk Modulus (GPa) = 67.19329 69.95261 68.57295
# Shear Modulus (GPa) = 23.97146 37.93433 30.95289
#
# Velocity S-wave (km/s) = 3.07334 3.86616 3.49232
# Velocity P-wave (km/s) = 6.25060 6.89151 6.57886
#
# Compressibility (1/GPa) = 0.01488244
#
# Stress axis : x y z
#
# Youngs Moduli (GPa) = 65.86431 96.19093 92.51070
#
# Poissons Ratio (x) = 0.43685 0.44308
# Poissons Ratio (y) = 0.29912 0.13155
# Poissons Ratio (z) = 0.31546 0.13678
#
# Static dielectric constant tensor:
#      x y z
#    x 2.036700 0.000000 0.014530 
#    y 0.000000 1.929240 0.000000 
#    z 0.014530 0.000000 2.027920 
# 
# From -- ./inp_files/165391.got.cif
#   From: 2010.05.17/outbox.cif.g08.bks.cpg/sg15_83_cif.got.tgz:165391.got - 2010.06.03 18:47:42.
