data_PCOD9298868
_publ_section_title
;
Structure prediction by ZEFSAII (Michael W. Deem and Ramdas Pophale) SiO2 
 PCOD9298868
Probable space group: C 2/C
;
_chemical_formula_sum "Si O2"
_cell_formula_units_Z 64
_cell_length_a 15.679747
_cell_length_b 19.946300
_cell_length_c 23.339114
_cell_angle_alpha 90.000000
_cell_angle_beta 23.561986
_cell_angle_gamma 90.000000
_cell_volume 2917.859798
_symmetry_space_group_name_H-M "C 2/C"
_symmetry_group_IT_number 15
_symmetry_cell_setting 'monoclinic'
loop_
_space_group_symop_operation_xyz
x,y,z
-x,y,1/2-z
-x,-y,-z
x,-y,1/2+z
1/2+x,1/2+y,z
1/2-x,1/2+y,1/2-z
1/2-x,1/2-y,-z
1/2+x,1/2-y,1/2+z
loop_
_atom_site_type_symbol
_atom_site_label
_atom_site_fract_x
_atom_site_fract_y
_atom_site_fract_z
Si Si1 0.637191 0.003207 0.268057
Si Si2 0.232040 0.150252 0.119012
Si Si3 0.748291 0.897312 0.106628
Si Si4 0.528638 0.729038 0.444420
Si Si5 0.281499 0.036734 0.657803
Si Si6 0.745282 0.324626 0.112784
Si Si7 0.332386 0.461246 0.936109
Si Si8 0.332875 0.859353 0.691245
O O1 0.739672 0.963894 0.151742
O O2 0.691762 0.960156 0.290668
O O3 0.379414 0.005163 0.421667
O O4 0.711542 0.077186 0.240521
O O5 0.273922 0.131280 0.159966
O O6 0.000000 0.180629 0.250000
O O7 0.771558 0.086334 0.420352
O O8 0.398830 0.207471 0.001031
O O9 0.500000 0.879300 0.250000
O O10 0.847964 0.916184 0.983628
O O11 0.873853 0.833375 0.053591
O O12 0.657818 0.758450 0.418206
O O13 0.696058 0.702806 0.295605
O O14 0.263239 0.110093 0.642514
O O15 0.500000 0.000000 0.500000
O O16 0.052368 0.000317 0.788685
O O17 0.500000 0.315691 0.250000
O O18 0.915728 0.343662 0.959060
#
# Coordination Sequence:
#
# PCOD9298868 Si02
#       8
#     8   8   8   8   8   8   8   8
#     4  11  23  43  70 101 141 178 228 285 352 410
#     4  11  24  39  69 102 139 180 223 290 354 414
#     4  10  24  46  68 104 140 184 227 284 349 421
#     4  11  25  44  66  98 140 186 237 276 341 417
#     4  12  25  40  68 105 134 172 224 291 350 404
#     4  11  26  46  67  95 136 180 231 287 342 414
#     4  11  26  42  71 101 139 176 229 291 351 413
#     4  11  24  43  67 101 137 181 231 290 346 412
#
# _framework density 21.933883999999999
#
# number of rings (size 3 to 8) (size 9 to 14) (size 15 to 20)
#    0.000    1.000    1.250    4.875    3.500   10.500 
#    0.000    3.125    0.000    0.000    0.000    0.000 
#    0.000    0.000    0.000    0.000    0.000    0.000 
#
# Total GULP energy -178840.956790 kJ/mol
# GULP energy per Si atom -5588.779900 kJ/mol
# Density = 2.188396 g / cm^3
# Si number density = 21.933884 Si / 1000 Ang^3
#
#
#
# Elastic Constant Matrix: (Units=GPa)
#
#
# Indices 1 2 3 4 5 6 
#
# 1 78.0480 49.0111 33.0675 0.0099 -7.7758 -0.0226
# 2 49.0111 119.8325 56.1211 -0.0632 -6.2065 0.0167
# 3 33.0675 56.1211 108.1375 -0.0298 -19.9809 -0.0746
# 4 0.0099 -0.0632 -0.0298 39.1150 0.0169 -2.7051
# 5 -7.7758 -6.2065 -19.9809 0.0169 48.1630 0.0304
# 6 -0.0226 0.0167 -0.0746 -2.7051 0.0304 35.3539
#
#
#
# Elastic Compliance Matrix: (Units=1/GPa)
#
#
# Indices 1 2 3 4 5 6 
#
# 1 0.017689 -0.006269 -0.001925 -0.000016 0.001249 0.000008
# 2 -0.006269 0.013294 -0.005256 0.000018 -0.001479 -0.000019
# 3 -0.001925 -0.005256 0.013409 0.000002 0.004575 0.000026
# 4 -0.000016 0.000018 0.000002 0.025702 -0.000010 0.001967
# 5 0.001249 -0.001479 0.004575 -0.000010 0.022672 -0.000009
# 6 0.000008 -0.000019 0.000026 0.001967 -0.000009 0.028436
#
#
# Mechanical properties :
#
#
# Convention : Reuss Voigt Hill
#
# Bulk Modulus (GPa) = 57.16462 64.71303 60.93882
# Shear Modulus (GPa) = 32.48221 35.71427 34.09824
#
# Velocity S-wave (km/s) = 3.85244 4.03956 3.94711
# Velocity P-wave (km/s) = 6.77549 7.16416 6.97253
#
# Compressibility (1/GPa) = 0.01749334
#
# Stress axis : x y z
#
# Youngs Moduli (GPa) = 56.53198 75.22471 74.57683
#
# Poissons Ratio (x) = 0.47155 0.14357
# Poissons Ratio (y) = 0.35437 0.39194
# Poissons Ratio (z) = 0.10883 0.39535
#
# Static dielectric constant tensor:
#      x y z
#    x 1.849920 0.000020 -0.031700 
#    y 0.000020 1.808630 0.000000 
#    z -0.031700 0.000000 1.873460 
# 
# From -- ./inp_files/299495.got.cif
#   From: 2010.05.17/outbox.cif.g08.bks.cpg/sg15_150_cif.got.tgz:299495.got - 2010.06.03 18:47:42.
