data_PCOD9298688
_publ_section_title
;
Structure prediction by ZEFSAII (Michael W. Deem and Ramdas Pophale) SiO2 
 PCOD9298688
Probable space group: C 2/C
;
_chemical_formula_sum "Si O2"
_cell_formula_units_Z 28
_cell_length_a 7.240957
_cell_length_b 12.264119
_cell_length_c 14.777479
_cell_angle_alpha 90.000000
_cell_angle_beta 110.833982
_cell_angle_gamma 90.000000
_cell_volume 1226.493851
_symmetry_space_group_name_H-M "C 2/C"
_symmetry_group_IT_number 15
_symmetry_cell_setting 'monoclinic'
loop_
_space_group_symop_operation_xyz
x,y,z
-x,y,1/2-z
-x,-y,-z
x,-y,1/2+z
1/2+x,1/2+y,z
1/2-x,1/2+y,1/2-z
1/2-x,1/2-y,-z
1/2+x,1/2-y,1/2+z
loop_
_atom_site_type_symbol
_atom_site_label
_atom_site_fract_x
_atom_site_fract_y
_atom_site_fract_z
Si Si1 0.276218 0.860558 0.448256
Si Si2 0.299624 0.261615 0.662453
Si Si3 0.500000 0.726894 0.750000
Si Si4 0.237399 0.408287 0.486569
O O1 0.250000 0.750000 0.500000
O O2 0.503537 0.882996 0.460589
O O3 0.148532 0.845857 0.335383
O O4 0.219926 0.964692 0.499104
O O5 0.500000 0.238873 0.750000
O O6 0.132734 0.297127 0.704447
O O7 0.336247 0.347902 0.589230
O O8 0.215819 0.153930 0.597762
#
# Coordination Sequence:
#
# PCOD9298688 Si02
#       4
#     8   8   4   8
#     4  11  23  46  66 101 137 178 231 280 348 413
#     4  11  23  45  68 102 135 174 232 280 342 417
#     4  12  24  42  70 100 132 182 226 282 346 404
#     4  10  24  45  69  96 142 181 220 291 346 407
#
# _framework density 22.829301000000001
#
# number of rings (size 3 to 8) (size 9 to 14) (size 15 to 20)
#    0.000    1.143    5.714    0.000    2.000    1.143 
#    7.714    0.000    0.000    0.000    0.000    0.000 
#    0.000    0.000    0.000    0.000    0.000    0.000 
#
# Total GULP energy -78358.249616 kJ/mol
# GULP energy per Si atom -5597.017830 kJ/mol
# Density = 2.277734 g / cm^3
# Si number density = 22.829301 Si / 1000 Ang^3
#
#
#
# Elastic Constant Matrix: (Units=GPa)
#
#
# Indices 1 2 3 4 5 6 
#
# 1 64.8664 4.8595 29.1595 0.0000 -11.9838 0.0000
# 2 4.8595 153.2445 58.0947 0.0000 7.3703 0.0000
# 3 29.1595 58.0947 163.2552 0.0000 14.6184 0.0000
# 4 0.0000 0.0000 0.0000 8.3229 0.0000 2.3397
# 5 -11.9838 7.3703 14.6184 0.0000 32.1750 0.0000
# 6 0.0000 0.0000 0.0000 2.3397 0.0000 22.2211
#
#
#
# Elastic Compliance Matrix: (Units=1/GPa)
#
#
# Indices 1 2 3 4 5 6 
#
# 1 0.019010 0.000645 -0.004426 0.000000 0.008943 0.000000
# 2 0.000645 0.007574 -0.002790 0.000000 -0.000227 0.000000
# 3 -0.004426 -0.002790 0.008338 0.000000 -0.004798 0.000000
# 4 0.000000 0.000000 0.000000 0.123816 0.000000 -0.013037
# 5 0.008943 -0.000227 -0.004798 0.000000 0.036643 0.000000
# 6 0.000000 0.000000 0.000000 -0.013037 0.000000 0.046375
#
#
# Mechanical properties :
#
#
# Convention : Reuss Voigt Hill
#
# Bulk Modulus (GPa) = 45.91350 62.84371 54.37861
# Shear Modulus (GPa) = 19.07257 31.82729 25.44993
#
# Velocity S-wave (km/s) = 2.89354 3.73787 3.34247
# Velocity P-wave (km/s) = 5.59631 6.79826 6.22636
#
# Compressibility (1/GPa) = 0.02178008
#
# Stress axis : x y z
#
# Youngs Moduli (GPa) = 52.60475 132.03664 119.92916
#
# Poissons Ratio (x) = -0.08514 0.53076
# Poissons Ratio (y) = -0.03392 0.33459
# Poissons Ratio (z) = 0.23281 0.36837
#
# Static dielectric constant tensor:
#      x y z
#    x 1.957950 0.000000 -0.028960 
#    y 0.000000 1.830730 0.000000 
#    z -0.028960 0.000000 1.834570 
# 
# From -- ./inp_files/131582.got.cif
#   From: 2010.05.17/outbox.cif.g08.bks.cpg/sg15_66_cif.got.tgz:131582.got - 2010.06.03 18:47:42.
