data_PCOD9298051
_publ_section_title
;
Structure prediction by ZEFSAII (Michael W. Deem and Ramdas Pophale) SiO2 
 PCOD9298051
Probable space group: C 2/C
;
_chemical_formula_sum "Si O2"
_cell_formula_units_Z 60
_cell_length_a 18.515010
_cell_length_b 11.246060
_cell_length_c 15.902928
_cell_angle_alpha 90.000000
_cell_angle_beta 63.941295
_cell_angle_gamma 90.000000
_cell_volume 2974.707820
_symmetry_space_group_name_H-M "C 2/C"
_symmetry_group_IT_number 15
_symmetry_cell_setting 'monoclinic'
loop_
_space_group_symop_operation_xyz
x,y,z
-x,y,1/2-z
-x,-y,-z
x,-y,1/2+z
1/2+x,1/2+y,z
1/2-x,1/2+y,1/2-z
1/2-x,1/2-y,-z
1/2+x,1/2-y,1/2+z
loop_
_atom_site_type_symbol
_atom_site_label
_atom_site_fract_x
_atom_site_fract_y
_atom_site_fract_z
Si Si1 0.334515 0.759264 0.573293
Si Si2 0.579958 0.134160 0.759921
Si Si3 0.708634 0.885040 0.066709
Si Si4 0.000000 0.245606 0.750000
Si Si5 0.504883 0.323953 0.924228
Si Si6 0.434401 0.423691 0.429502
Si Si7 0.245890 0.128263 0.451628
Si Si8 0.848414 0.619917 0.245956
O O1 0.286292 0.836175 0.529478
O O2 0.286748 0.635302 0.585928
O O3 0.425025 0.744688 0.495138
O O4 0.335730 0.817227 0.663285
O O5 0.500000 0.096255 0.750000
O O6 0.638925 0.178005 0.655728
O O7 0.556099 0.236421 0.838499
O O8 0.626279 0.019451 0.774929
O O9 0.689694 0.024072 0.063228
O O10 0.968788 0.163866 0.841855
O O11 0.924325 0.320357 0.754504
O O12 0.474668 0.447068 0.897834
O O13 0.547380 0.368373 0.987835
O O14 0.338447 0.426672 0.476437
O O15 0.250000 0.250000 0.500000
O O16 0.267872 0.144203 0.342267
#
# Coordination Sequence:
#
# PCOD9298051 Si02
#       8
#     8   8   8   4   8   8   8   8
#     4  11  22  44  66  93 134 168 220 276 334 391
#     4  11  23  42  67  96 131 171 230 277 334 401
#     4  10  24  43  66  96 132 176 217 275 329 403
#     4  12  22  42  66  98 140 166 218 272 336 392
#     4  11  24  43  68  95 130 175 225 281 328 396
#     4  11  25  43  65 100 132 176 224 273 332 406
#     4  11  23  44  67  93 139 176 220 266 336 400
#     4  11  25  42  65 101 131 177 219 280 331 398
#
# _framework density 20.170047
#
# number of rings (size 3 to 8) (size 9 to 14) (size 15 to 20)
#    0.000    1.067    6.000    0.000    2.800    1.600 
#    2.400    0.000    0.000    0.000    0.000    0.000 
#    0.000    0.000    0.000    0.000    0.000    0.000 
#
# Total GULP energy -167217.480738 kJ/mol
# GULP energy per Si atom -5573.916025 kJ/mol
# Density = 2.012414 g / cm^3
# Si number density = 20.170047 Si / 1000 Ang^3
#
#
#
# Elastic Constant Matrix: (Units=GPa)
#
#
# Indices 1 2 3 4 5 6 
#
# 1 26.5882 12.2876 14.9047 0.0000 -4.0116 0.0000
# 2 12.2876 125.3845 71.1445 0.0000 6.3816 0.0000
# 3 14.9047 71.1445 113.0296 0.0000 -13.2787 0.0000
# 4 0.0000 0.0000 0.0000 38.7087 0.0000 -1.2959
# 5 -4.0116 6.3816 -13.2787 0.0000 38.9630 0.0000
# 6 0.0000 0.0000 0.0000 -1.2959 0.0000 17.0141
#
#
#
# Elastic Compliance Matrix: (Units=1/GPa)
#
#
# Indices 1 2 3 4 5 6 
#
# 1 0.041163 -0.002090 -0.003724 0.000000 0.003311 0.000000
# 2 -0.002090 0.013476 -0.008845 0.000000 -0.005437 0.000000
# 3 -0.003724 -0.008845 0.015658 0.000000 0.006402 0.000000
# 4 0.000000 0.000000 0.000000 0.025900 0.000000 0.001973
# 5 0.003311 -0.005437 0.006402 0.000000 0.029078 0.000000
# 6 0.000000 0.000000 0.000000 0.001973 0.000000 0.058925
#
#
# Mechanical properties :
#
#
# Convention : Reuss Voigt Hill
#
# Bulk Modulus (GPa) = 24.40230 51.29734 37.84982
# Shear Modulus (GPa) = 22.00918 30.04820 26.02869
#
# Velocity S-wave (km/s) = 3.30689 3.86391 3.59620
# Velocity P-wave (km/s) = 5.16771 6.73751 6.00413
#
# Compressibility (1/GPa) = 0.04097974
#
# Stress axis : x y z
#
# Youngs Moduli (GPa) = 24.29344 74.20650 63.86565
#
# Poissons Ratio (x) = 0.15507 0.23782
# Poissons Ratio (y) = 0.05076 0.56491
# Poissons Ratio (z) = 0.09046 0.65638
#
# Static dielectric constant tensor:
#      x y z
#    x 1.779660 0.000000 -0.027070 
#    y 0.000000 1.797380 0.000000 
#    z -0.027070 0.000000 1.714810 
# 
# From -- ./inp_files/161315.got.cif
#   From: 2010.05.17/outbox.cif.g08.bks.cpg/sg15_81_cif.got.tgz:161315.got - 2010.06.03 18:47:42.
