data_PCOD9298386
_publ_section_title
;
Structure prediction by ZEFSAII (Michael W. Deem and Ramdas Pophale) SiO2 
 PCOD9298386
Probable space group: C 2/C
;
_chemical_formula_sum "Si O2"
_cell_formula_units_Z 52
_cell_length_a 11.711660
_cell_length_b 18.453324
_cell_length_c 11.652576
_cell_angle_alpha 90.000000
_cell_angle_beta 70.819891
_cell_angle_gamma 90.000000
_cell_volume 2378.551689
_symmetry_space_group_name_H-M "C 2/C"
_symmetry_group_IT_number 15
_symmetry_cell_setting 'monoclinic'
loop_
_space_group_symop_operation_xyz
x,y,z
-x,y,1/2-z
-x,-y,-z
x,-y,1/2+z
1/2+x,1/2+y,z
1/2-x,1/2+y,1/2-z
1/2-x,1/2-y,-z
1/2+x,1/2-y,1/2+z
loop_
_atom_site_type_symbol
_atom_site_label
_atom_site_fract_x
_atom_site_fract_y
_atom_site_fract_z
Si Si1 0.146088 0.425080 0.015933
Si Si2 0.127760 0.418235 0.418045
Si Si3 0.000000 0.154611 0.250000
Si Si4 0.198229 0.869269 0.335387
Si Si5 0.233094 0.294436 0.828871
Si Si6 0.969454 0.915571 0.513431
Si Si7 0.778254 0.326052 0.927523
O O1 0.161712 0.499939 0.941682
O O2 0.180923 0.356907 0.926047
O O3 0.232673 0.420784 0.096898
O O4 0.004537 0.419772 0.094849
O O5 0.230162 0.382143 0.305500
O O6 0.121320 0.369335 0.534378
O O7 0.878298 0.200094 0.280165
O O8 0.992703 0.109699 0.370584
O O9 0.205334 0.786706 0.374620
O O10 0.057274 0.885441 0.385769
O O11 0.189238 0.308080 0.713696
O O12 0.837021 0.881295 0.538143
O O13 0.000000 0.000000 0.500000
O O14 0.750000 0.250000 0.000000
#
# Coordination Sequence:
#
# PCOD9298386 Si02
#       7
#     8   8   4   8   8   8   8
#     4  11  26  45  72 101 133 185 230 285 341 412
#     4  11  27  46  68 100 144 178 230 280 347 420
#     4  10  24  44  68  98 138 176 226 288 342 404
#     4  12  25  44  74 101 134 180 234 287 337 410
#     4  11  25  43  74 100 136 180 231 286 343 408
#     4  11  26  43  73 102 138 182 232 285 351 415
#     4  11  25  47  66 102 146 185 220 286 353 416
#
# _framework density 21.862043
#
# number of rings (size 3 to 8) (size 9 to 14) (size 15 to 20)
#    0.000    0.923    3.077    1.846   10.769    1.231 
#    0.000    0.000    0.000    0.000    0.000    0.000 
#    0.000    0.000    0.000    0.000    0.000    0.000 
#
# Total GULP energy -145386.626498 kJ/mol
# GULP energy per Si atom -5591.793327 kJ/mol
# Density = 2.181228 g / cm^3
# Si number density = 21.862043 Si / 1000 Ang^3
#
#
#
# Elastic Constant Matrix: (Units=GPa)
#
#
# Indices 1 2 3 4 5 6 
#
# 1 38.9752 -5.5888 -8.0968 0.0000 3.3575 0.0000
# 2 -5.5888 117.1457 -13.3674 0.0000 -11.3755 0.0000
# 3 -8.0968 -13.3674 49.8090 0.0000 4.3611 0.0000
# 4 0.0000 0.0000 0.0000 27.1228 0.0000 -1.3698
# 5 3.3575 -11.3755 4.3611 0.0000 32.3941 0.0000
# 6 0.0000 0.0000 0.0000 -1.3698 0.0000 16.8621
#
#
#
# Elastic Compliance Matrix: (Units=1/GPa)
#
#
# Indices 1 2 3 4 5 6 
#
# 1 0.027201 0.001594 0.005108 0.000000 -0.002947 0.000000
# 2 0.001594 0.009159 0.002479 0.000000 0.002717 0.000000
# 3 0.005108 0.002479 0.021799 0.000000 -0.002594 0.000000
# 4 0.000000 0.000000 0.000000 0.037021 0.000000 0.003007
# 5 -0.002947 0.002717 -0.002594 0.000000 0.032479 0.000000
# 6 0.000000 0.000000 0.000000 0.003007 0.000000 0.059549
#
#
# Mechanical properties :
#
#
# Convention : Reuss Voigt Hill
#
# Bulk Modulus (GPa) = 13.06810 16.86931 14.96870
# Shear Modulus (GPa) = 25.72638 30.80800 28.26719
#
# Velocity S-wave (km/s) = 3.43411 3.75800 3.59970
# Velocity P-wave (km/s) = 4.65990 5.15394 4.91314
#
# Compressibility (1/GPa) = 0.07652223
#
# Stress axis : x y z
#
# Youngs Moduli (GPa) = 36.76348 109.17956 45.87274
#
# Poissons Ratio (x) = -0.17407 -0.23430
# Poissons Ratio (y) = -0.05861 -0.11373
# Poissons Ratio (z) = -0.18777 -0.27069
#
# Static dielectric constant tensor:
#      x y z
#    x 1.801560 0.000000 0.001210 
#    y 0.000000 1.750300 0.000000 
#    z 0.001210 0.000000 1.789360 
# 
# From -- ./inp_files/88839.got.cif
#   From: 2010.05.17/outbox.cif.g08.bks.cpg/sg15_45_cif.got.tgz:88839.got - 2010.06.03 18:47:42.
