data_PCOD9298174
_publ_section_title
;
Structure prediction by ZEFSAII (Michael W. Deem and Ramdas Pophale) SiO2 
 PCOD9298174
Probable space group: C 2/C
;
_chemical_formula_sum "Si O2"
_cell_formula_units_Z 32
_cell_length_a 21.378337
_cell_length_b 7.874643
_cell_length_c 24.654568
_cell_angle_alpha 90.000000
_cell_angle_beta 159.766511
_cell_angle_gamma 90.000000
_cell_volume 1435.442514
_symmetry_space_group_name_H-M "C 2/C"
_symmetry_group_IT_number 15
_symmetry_cell_setting 'monoclinic'
loop_
_space_group_symop_operation_xyz
x,y,z
-x,y,1/2-z
-x,-y,-z
x,-y,1/2+z
1/2+x,1/2+y,z
1/2-x,1/2+y,1/2-z
1/2-x,1/2-y,-z
1/2+x,1/2-y,1/2+z
loop_
_atom_site_type_symbol
_atom_site_label
_atom_site_fract_x
_atom_site_fract_y
_atom_site_fract_z
Si Si1 0.903029 0.191758 0.765751
Si Si2 0.289720 0.153149 0.596935
Si Si3 0.098746 0.046365 0.025415
Si Si4 0.281678 0.971720 0.485859
O O1 0.716218 0.285091 0.628967
O O2 0.855345 0.098504 0.670663
O O3 0.959435 0.078502 0.862843
O O4 0.052504 0.340136 0.878160
O O5 0.500000 0.176433 0.750000
O O6 0.225755 0.004772 0.503019
O O7 0.189239 0.331576 0.507265
O O8 0.241307 0.090296 0.617236
O O9 0.000000 0.000000 0.000000
#
# Coordination Sequence:
#
# PCOD9298174 Si02
#       4
#     8   8   8   8
#     4  10  24  46  69 103 136 179 226 290 331 406
#     4  11  24  44  70 102 137 177 230 282 339 404
#     4  11  26  45  69 100 139 182 225 276 344 407
#     4  10  24  43  72 102 134 178 229 282 344 390
#
# _framework density 22.292778999999999
#
# number of rings (size 3 to 8) (size 9 to 14) (size 15 to 20)
#    0.000    1.500    2.500    0.000    7.000   10.000 
#    0.000    5.000    0.000    0.000    0.000    0.000 
#    0.000    0.000    0.000    0.000    0.000    0.000 
#
# Total GULP energy -89359.767531 kJ/mol
# GULP energy per Si atom -5584.985471 kJ/mol
# Density = 2.224204 g / cm^3
# Si number density = 22.292779 Si / 1000 Ang^3
#
#
#
# Elastic Constant Matrix: (Units=GPa)
#
#
# Indices 1 2 3 4 5 6 
#
# 1 197.0833 67.2785 63.0644 -0.0024 13.8598 -0.0006
# 2 67.2785 97.9701 43.2581 -0.0001 0.4758 0.0015
# 3 63.0644 43.2581 113.8337 0.0034 -23.4437 0.0023
# 4 -0.0024 -0.0001 0.0034 33.1321 0.0000 -14.2762
# 5 13.8598 0.4758 -23.4437 0.0000 35.9834 0.0004
# 6 -0.0006 0.0015 0.0023 -14.2762 0.0004 36.7029
#
#
#
# Elastic Compliance Matrix: (Units=1/GPa)
#
#
# Indices 1 2 3 4 5 6 
#
# 1 0.008114 -0.003632 -0.004330 0.000002 -0.005898 0.000001
# 2 -0.003632 0.014331 -0.003679 0.000000 -0.001187 0.000000
# 3 -0.004330 -0.003679 0.014939 -0.000003 0.011450 -0.000002
# 4 0.000002 0.000000 -0.000003 0.036259 -0.000003 0.014104
# 5 -0.005898 -0.001187 0.011450 -0.000003 0.037538 -0.000002
# 6 0.000001 0.000000 -0.000002 0.014104 -0.000002 0.032732
#
#
# Mechanical properties :
#
#
# Convention : Reuss Voigt Hill
#
# Bulk Modulus (GPa) = 70.89971 84.00990 77.45480
# Shear Modulus (GPa) = 29.08753 36.84943 32.96848
#
# Velocity S-wave (km/s) = 3.61611 4.07009 3.84980
# Velocity P-wave (km/s) = 7.02196 7.73655 7.38790
#
# Compressibility (1/GPa) = 0.01410443
#
# Stress axis : x y z
#
# Youngs Moduli (GPa) = 123.24333 69.77807 66.93694
#
# Poissons Ratio (x) = 0.25341 0.28983
# Poissons Ratio (y) = 0.44757 0.24623
# Poissons Ratio (z) = 0.53363 0.25668
#
# Static dielectric constant tensor:
#      x y z
#    x 1.804680 0.000000 -0.025230 
#    y 0.000000 1.844700 0.000000 
#    z -0.025230 0.000000 1.926100 
# 
# From -- ./inp_files/300593.got.cif
#   From: 2010.05.17/outbox.cif.g08.bks.cpg/sg15_151_cif.got.tgz:300593.got - 2010.06.03 18:47:42.
