data_PCOD9298810
_publ_section_title
;
Structure prediction by ZEFSAII (Michael W. Deem and Ramdas Pophale) SiO2 
 PCOD9298810
Probable space group: C 2/C
;
_chemical_formula_sum "Si O2"
_cell_formula_units_Z 56
_cell_length_a 5.408473
_cell_length_b 19.416482
_cell_length_c 24.660303
_cell_angle_alpha 90.000000
_cell_angle_beta 65.066925
_cell_angle_gamma 90.000000
_cell_volume 2348.310498
_symmetry_space_group_name_H-M "C 2/C"
_symmetry_group_IT_number 15
_symmetry_cell_setting 'monoclinic'
loop_
_space_group_symop_operation_xyz
x,y,z
-x,y,1/2-z
-x,-y,-z
x,-y,1/2+z
1/2+x,1/2+y,z
1/2-x,1/2+y,1/2-z
1/2-x,1/2-y,-z
1/2+x,1/2-y,1/2+z
loop_
_atom_site_type_symbol
_atom_site_label
_atom_site_fract_x
_atom_site_fract_y
_atom_site_fract_z
Si Si1 0.324259 0.423450 0.850133
Si Si2 0.778198 0.171040 0.984819
Si Si3 0.291199 0.467455 0.196817
Si Si4 0.371065 0.658638 0.853199
Si Si5 0.588757 0.949782 0.099240
Si Si6 0.829429 0.701408 0.212180
Si Si7 0.693318 0.601167 0.026056
O O1 0.582612 0.459656 0.798304
O O2 0.193661 0.359898 0.830101
O O3 0.124919 0.488466 0.875690
O O4 0.409206 0.406881 0.903610
O O5 0.915216 0.160218 0.913810
O O6 0.479295 0.139390 0.009060
O O7 0.962056 0.140083 0.014550
O O8 0.750000 0.250000 0.000000
O O9 0.460819 0.399354 0.194041
O O10 0.279818 0.463267 0.132557
O O11 0.000000 0.460820 0.250000
O O12 0.485201 0.732576 0.823094
O O13 0.063757 0.624819 0.878515
O O14 0.720005 0.955582 0.027304
O O15 0.500000 0.719933 0.250000
O O16 0.000000 0.677962 0.250000
#
# Coordination Sequence:
#
# PCOD9298810 Si02
#       7
#     8   8   8   8   8   8   8
#     4  11  28  46  73 113 154 200 245 312 384 456
#     4  11  23  42  72 106 149 192 242 304 380 448
#     4  11  25  45  79 105 151 200 263 310 375 446
#     4  10  24  47  71 111 143 198 257 317 368 446
#     4  10  24  45  77 109 148 199 252 312 373 450
#     4  12  31  49  74 107 155 201 255 313 387 456
#     4  11  24  45  73 111 148 192 248 307 374 454
#
# _framework density 23.846931999999999
#
# number of rings (size 3 to 8) (size 9 to 14) (size 15 to 20)
#    0.000    1.143    1.429    2.143   10.000    2.857 
#    0.000    0.000    0.000    0.000    0.000    0.000 
#    0.000    0.000    0.000    0.000    0.000    0.000 
#
# Total GULP energy -156355.676843 kJ/mol
# GULP energy per Si atom -5584.131316 kJ/mol
# Density = 2.379266 g / cm^3
# Si number density = 23.846932 Si / 1000 Ang^3
#
#
#
# Elastic Constant Matrix: (Units=GPa)
#
#
# Indices 1 2 3 4 5 6 
#
# 1 132.0123 58.7038 54.7682 0.0000 20.2878 0.0000
# 2 58.7038 135.1849 56.7838 0.0000 6.1449 0.0000
# 3 54.7682 56.7838 137.1961 0.0000 26.1220 0.0000
# 4 0.0000 0.0000 0.0000 774.3558 0.0000 85.8084
# 5 20.2878 6.1449 26.1220 0.0000 52.4929 0.0000
# 6 0.0000 0.0000 0.0000 85.8084 0.0000 55.8804
#
#
#
# Elastic Compliance Matrix: (Units=1/GPa)
#
#
# Indices 1 2 3 4 5 6 
#
# 1 0.010439 -0.003473 -0.002252 0.000000 -0.002507 0.000000
# 2 -0.003473 0.010146 -0.003140 0.000000 0.001717 0.000000
# 3 -0.002252 -0.003140 0.010220 0.000000 -0.003848 0.000000
# 4 0.000000 0.000000 0.000000 0.001556 0.000000 -0.002390
# 5 -0.002507 0.001717 -0.003848 0.000000 0.021733 0.000000
# 6 0.000000 0.000000 0.000000 -0.002390 0.000000 0.021565
#
#
# Mechanical properties :
#
#
# Convention : Reuss Voigt Hill
#
# Bulk Modulus (GPa) = 76.48313 82.76721 79.62517
# Shear Modulus (GPa) = 51.15136 192.15500 121.65318
#
# Velocity S-wave (km/s) = 4.63642 8.98629 7.15017
# Velocity P-wave (km/s) = 7.79770 11.93542 10.08113
#
# Compressibility (1/GPa) = 0.01307478
#
# Stress axis : x y z
#
# Youngs Moduli (GPa) = 95.79189 98.55779 97.84549
#
# Poissons Ratio (x) = 0.34230 0.22039
# Poissons Ratio (y) = 0.33270 0.30723
# Poissons Ratio (z) = 0.21577 0.30946
#
# Static dielectric constant tensor:
#      x y z
#    x 1.933860 0.000000 -0.036230 
#    y 0.000000 1.859380 0.000000 
#    z -0.036230 0.000000 1.969790 
# 
# From -- ./inp_files/261343.got.cif
#   From: 2010.05.17/outbox.cif.g08.bks.cpg/sg15_131_cif.got.tgz:261343.got - 2010.06.03 18:47:42.
