data_PCOD9298133
_publ_section_title
;
Structure prediction by ZEFSAII (Michael W. Deem and Ramdas Pophale) SiO2 
 PCOD9298133
Probable space group: C 2/C
;
_chemical_formula_sum "Si O2"
_cell_formula_units_Z 56
_cell_length_a 18.618912
_cell_length_b 12.994810
_cell_length_c 14.147951
_cell_angle_alpha 90.000000
_cell_angle_beta 135.807100
_cell_angle_gamma 90.000000
_cell_volume 2386.151819
_symmetry_space_group_name_H-M "C 2/C"
_symmetry_group_IT_number 15
_symmetry_cell_setting 'monoclinic'
loop_
_space_group_symop_operation_xyz
x,y,z
-x,y,1/2-z
-x,-y,-z
x,-y,1/2+z
1/2+x,1/2+y,z
1/2-x,1/2+y,1/2-z
1/2-x,1/2-y,-z
1/2+x,1/2-y,1/2+z
loop_
_atom_site_type_symbol
_atom_site_label
_atom_site_fract_x
_atom_site_fract_y
_atom_site_fract_z
Si Si1 0.773665 0.068850 0.434245
Si Si2 0.188685 0.253405 0.164407
Si Si3 0.670853 0.611816 0.807664
Si Si4 0.962529 0.257588 0.323888
Si Si5 0.559053 0.019358 0.706060
Si Si6 0.989345 0.704018 0.353001
Si Si7 0.490227 0.466719 0.596844
O O1 0.760753 0.152497 0.337529
O O2 0.770382 0.119063 0.536261
O O3 0.681835 0.986299 0.340476
O O4 0.887094 0.019881 0.536656
O O5 0.248691 0.360512 0.199752
O O6 0.152090 0.237862 0.238206
O O7 0.087480 0.260515 0.003559
O O8 0.592213 0.704946 0.717280
O O9 0.598182 0.510415 0.741106
O O10 0.977910 0.374027 0.374021
O O11 0.020699 0.155667 0.411569
O O12 0.000000 0.261127 0.250000
O O13 0.500000 0.017067 0.750000
O O14 0.535624 0.910781 0.636438
O O15 0.000000 0.696073 0.250000
O O16 0.500000 0.500000 0.500000
#
# Coordination Sequence:
#
# PCOD9298133 Si02
#       7
#     8   8   8   8   8   8   8
#     4  12  22  43  74 111 140 182 237 306 366 416
#     4  12  24  39  72 109 140 184 236 295 370 427
#     4  12  22  39  72 112 142 173 236 309 363 408
#     4  11  26  50  66  93 145 193 241 284 346 435
#     4  10  24  43  69  98 151 192 229 285 360 438
#     4  11  19  38  66 105 147 176 225 298 357 415
#     4  12  25  46  75 103 140 186 246 301 352 427
#
# _framework density 23.468748999999999
#
# number of rings (size 3 to 8) (size 9 to 14) (size 15 to 20)
#    0.000    0.571    5.714    3.429    2.000    0.571 
#    0.000    7.857    0.000    0.000    0.000    0.000 
#    0.000    0.000    0.000    0.000    0.000    0.000 
#
# Total GULP energy -156055.767094 kJ/mol
# GULP energy per Si atom -5573.420253 kJ/mol
# Density = 2.341533 g / cm^3
# Si number density = 23.468749 Si / 1000 Ang^3
#
#
#
# Elastic Constant Matrix: (Units=GPa)
#
#
# Indices 1 2 3 4 5 6 
#
# 1 146.4397 13.6317 41.2304 0.0000 -14.1270 0.0000
# 2 13.6317 143.2214 25.5948 0.0000 0.4863 0.0000
# 3 41.2304 25.5948 51.5023 0.0000 -13.3973 0.0000
# 4 0.0000 0.0000 0.0000 -9.6062 0.0000 -3.7733
# 5 -14.1270 0.4863 -13.3973 0.0000 31.0654 0.0000
# 6 0.0000 0.0000 0.0000 -3.7733 0.0000 37.2673
#
#
#
# Elastic Compliance Matrix: (Units=1/GPa)
#
#
# Indices 1 2 3 4 5 6 
#
# 1 0.008870 0.000412 -0.007049 0.000000 0.000987 0.000000
# 2 0.000412 0.007792 -0.004714 0.000000 -0.001968 0.000000
# 3 -0.007049 -0.004714 0.029948 0.000000 0.009783 0.000000
# 4 0.000000 0.000000 0.000000 -0.100118 0.000000 -0.010137
# 5 0.000987 -0.001968 0.009783 0.000000 0.036889 0.000000
# 6 0.000000 0.000000 0.000000 -0.010137 0.000000 0.025807
#
#
# Mechanical properties :
#
#
# Convention : Reuss Voigt Hill
#
# Bulk Modulus (GPa) = 41.82771 55.78637 48.80704
# Shear Modulus (GPa) = 125.44047 29.12574 77.28311
#
# Velocity S-wave (km/s) = 7.31888 3.52667 5.74471
# Velocity P-wave (km/s) = 9.44896 6.35651 8.05258
#
# Compressibility (1/GPa) = 0.02390760
#
# Stress axis : x y z
#
# Youngs Moduli (GPa) = 112.73525 128.33496 33.39172
#
# Poissons Ratio (x) = -0.05289 0.23538
# Poissons Ratio (y) = -0.04646 0.15741
# Poissons Ratio (z) = 0.79469 0.60499
#
# Static dielectric constant tensor:
#      x y z
#    x 1.966140 0.000000 -0.030590 
#    y 0.000000 1.932950 0.000000 
#    z -0.030590 0.000000 1.922880 
# 
# From -- ./inp_files/162320.got.cif
#   From: 2010.05.17/outbox.cif.g08.bks.cpg/sg15_82_cif.got.tgz:162320.got - 2010.06.03 18:47:42.
