data_PCOD9298897
_publ_section_title
;
Structure prediction by ZEFSAII (Michael W. Deem and Ramdas Pophale) SiO2 
 PCOD9298897
Probable space group: C 2/C
;
_chemical_formula_sum "Si O2"
_cell_formula_units_Z 40
_cell_length_a 10.302244
_cell_length_b 33.418935
_cell_length_c 5.301870
_cell_angle_alpha 90.000000
_cell_angle_beta 79.268168
_cell_angle_gamma 90.000000
_cell_volume 1793.454105
_symmetry_space_group_name_H-M "C 2/C"
_symmetry_group_IT_number 15
_symmetry_cell_setting 'monoclinic'
loop_
_space_group_symop_operation_xyz
x,y,z
-x,y,1/2-z
-x,-y,-z
x,-y,1/2+z
1/2+x,1/2+y,z
1/2-x,1/2+y,1/2-z
1/2-x,1/2-y,-z
1/2+x,1/2-y,1/2+z
loop_
_atom_site_type_symbol
_atom_site_label
_atom_site_fract_x
_atom_site_fract_y
_atom_site_fract_z
Si Si1 0.275935 0.828356 0.679411
Si Si2 0.500000 0.858814 0.250000
Si Si3 0.500000 0.026589 0.250000
Si Si4 0.000000 0.782568 0.750000
Si Si5 0.818088 0.407114 0.953782
Si Si6 0.655795 0.525417 0.728923
Si Si7 0.500000 0.771423 0.750000
O O1 0.374353 0.834948 0.405507
O O2 0.369757 0.799318 0.810749
O O3 0.134642 0.808395 0.688277
O O4 0.255431 0.871508 0.816263
O O5 0.438755 0.886441 0.056532
O O6 0.377562 0.056743 0.272169
O O7 0.500000 0.000000 0.500000
O O8 0.001362 0.755520 0.498861
O O9 0.724665 0.431483 0.177324
O O10 0.500000 0.531900 0.750000
O O11 0.687485 0.495799 0.482196
#
# Coordination Sequence:
#
# PCOD9298897 Si02
#       7
#     8   4   4   4   8   8   4
#     4  12  27  49  77 113 151 199 250 308 381 451
#     4  12  24  46  74 105 158 192 256 302 387 428
#     4  12  24  40  65 104 138 184 248 298 355 420
#     4  12  31  48  83 116 146 198 250 308 375 468
#     4  12  25  43  72 104 143 200 242 313 361 443
#     4  10  24  46  69 101 145 197 246 306 377 438
#     4  12  25  54  78 113 154 194 242 312 381 456
#
# _framework density 22.303329999999999
#
# number of rings (size 3 to 8) (size 9 to 14) (size 15 to 20)
#    0.000    0.400    4.000    3.600    5.600    1.600 
#    1.800    0.000    0.000    0.000    0.000    0.000 
#    0.000    0.000    0.000    0.000    0.000    0.000 
#
# Total GULP energy -111886.639547 kJ/mol
# GULP energy per Si atom -5594.331977 kJ/mol
# Density = 2.225257 g / cm^3
# Si number density = 22.303330 Si / 1000 Ang^3
#
#
#
# Elastic Constant Matrix: (Units=GPa)
#
#
# Indices 1 2 3 4 5 6 
#
# 1 145.3462 82.0697 42.9251 0.0000 -16.6074 0.0000
# 2 82.0697 166.1695 80.1887 0.0000 -8.4740 0.0000
# 3 42.9251 80.1887 139.1801 0.0000 5.3507 0.0000
# 4 0.0000 0.0000 0.0000 26.3179 0.0000 -18.1682
# 5 -16.6074 -8.4740 5.3507 0.0000 33.3461 0.0000
# 6 0.0000 0.0000 0.0000 -18.1682 0.0000 8.9762
#
#
#
# Elastic Compliance Matrix: (Units=1/GPa)
#
#
# Indices 1 2 3 4 5 6 
#
# 1 0.010036 -0.004412 -0.000707 0.000000 0.003990 0.000000
# 2 -0.004412 0.010565 -0.004774 0.000000 0.001253 0.000000
# 3 -0.000707 -0.004774 0.010277 0.000000 -0.003214 0.000000
# 4 0.000000 0.000000 0.000000 -0.095644 0.000000 -0.193588
# 5 0.003990 0.001253 -0.003214 0.000000 0.032810 0.000000
# 6 0.000000 0.000000 0.000000 -0.193588 0.000000 -0.280425
#
#
# Mechanical properties :
#
#
# Convention : Reuss Voigt Hill
#
# Bulk Modulus (GPa) = 90.15637 95.67365 92.91501
# Shear Modulus (GPa) = -17.30722 30.09550 6.39414
#
# Velocity S-wave (km/s) = -2.78869 3.67737 1.69503
# Velocity P-wave (km/s) = 5.49013 7.81156 6.75137
#
# Compressibility (1/GPa) = 0.01109184
#
# Stress axis : x y z
#
# Youngs Moduli (GPa) = 99.63975 94.65130 97.30264
#
# Poissons Ratio (x) = 0.41763 0.06875
# Poissons Ratio (y) = 0.43964 0.46457
# Poissons Ratio (z) = 0.07040 0.45191
#
# Static dielectric constant tensor:
#      x y z
#    x 1.823860 0.000000 -0.046550 
#    y 0.000000 1.816510 0.000000 
#    z -0.046550 0.000000 1.846930 
# 
# From -- ./inp_files/4992.got.cif
#   From: 2010.05.17/outbox.cif.g08.bks.cpg/sg15_3_cif.got.tgz:4992.got - 2010.06.03 18:47:42.
