data_PCOD9298227
_publ_section_title
;
Structure prediction by ZEFSAII (Michael W. Deem and Ramdas Pophale) SiO2 
 PCOD9298227
Probable space group: C 2/C
;
_chemical_formula_sum "Si O2"
_cell_formula_units_Z 52
_cell_length_a 31.426742
_cell_length_b 13.425771
_cell_length_c 8.809693
_cell_angle_alpha 90.000000
_cell_angle_beta 38.041830
_cell_angle_gamma 90.000000
_cell_volume 2290.587409
_symmetry_space_group_name_H-M "C 2/C"
_symmetry_group_IT_number 15
_symmetry_cell_setting 'monoclinic'
loop_
_space_group_symop_operation_xyz
x,y,z
-x,y,1/2-z
-x,-y,-z
x,-y,1/2+z
1/2+x,1/2+y,z
1/2-x,1/2+y,1/2-z
1/2-x,1/2-y,-z
1/2+x,1/2-y,1/2+z
loop_
_atom_site_type_symbol
_atom_site_label
_atom_site_fract_x
_atom_site_fract_y
_atom_site_fract_z
Si Si1 0.452307 0.940740 0.522819
Si Si2 0.184307 0.451195 0.058907
Si Si3 0.142923 0.261260 0.988391
Si Si4 0.879440 0.754949 0.302943
Si Si5 0.021431 0.140656 0.423502
Si Si6 0.764156 0.639762 0.779249
Si Si7 0.000000 0.977965 0.250000
O O1 0.500000 0.911007 0.250000
O O2 0.423051 0.845896 0.689897
O O3 0.500000 0.000000 0.500000
O O4 0.386615 0.008641 0.665833
O O5 0.226557 0.399150 0.075691
O O6 0.164986 0.369806 0.984845
O O7 0.218707 0.546669 0.880994
O O8 0.149107 0.244792 0.790029
O O9 0.189945 0.182205 0.944596
O O10 0.064482 0.236292 0.254991
O O11 0.816738 0.732038 0.593077
O O12 0.938475 0.838843 0.158626
O O13 0.043136 0.095692 0.523270
O O14 0.037512 0.054127 0.257151
#
# Coordination Sequence:
#
# PCOD9298227 Si02
#       7
#     8   8   8   8   8   8   4
#     4  11  20  35  63  96 126 164 202 265 334 392
#     4  11  24  44  63  96 134 167 224 272 332 407
#     4  12  24  44  69  95 131 179 224 273 331 399
#     4  11  22  42  65  97 132 172 215 275 331 399
#     4  11  23  44  68  96 133 170 226 273 335 388
#     4  11  26  44  65  97 133 175 221 275 335 399
#     4  10  24  44  62 100 132 174 220 280 324 394
#
# _framework density 22.701599000000002
#
# number of rings (size 3 to 8) (size 9 to 14) (size 15 to 20)
#    0.000    0.923    1.538    7.385    2.154    1.231 
#    6.923    0.000    0.000    0.000    0.000    0.000 
#    0.000    0.000    0.000    0.000    0.000    0.000 
#
# Total GULP energy -145317.530371 kJ/mol
# GULP energy per Si atom -5589.135784 kJ/mol
# Density = 2.264993 g / cm^3
# Si number density = 22.701599 Si / 1000 Ang^3
#
#
#
# Elastic Constant Matrix: (Units=GPa)
#
#
# Indices 1 2 3 4 5 6 
#
# 1 97.8116 37.6600 23.8442 0.0000 3.8535 0.0000
# 2 37.6600 87.4829 17.6384 0.0000 -1.1834 0.0000
# 3 23.8442 17.6384 55.3596 0.0000 3.1695 0.0000
# 4 0.0000 0.0000 0.0000 25.5277 0.0000 9.0406
# 5 3.8535 -1.1834 3.1695 0.0000 27.5560 0.0000
# 6 0.0000 0.0000 0.0000 9.0406 0.0000 39.8884
#
#
#
# Elastic Compliance Matrix: (Units=1/GPa)
#
#
# Indices 1 2 3 4 5 6 
#
# 1 0.013140 -0.004868 -0.004018 0.000000 -0.001584 0.000000
# 2 -0.004868 0.014045 -0.002468 0.000000 0.001568 0.000000
# 3 -0.004018 -0.002468 0.020691 0.000000 -0.001924 0.000000
# 4 0.000000 0.000000 0.000000 0.042592 0.000000 -0.009653
# 5 -0.001584 0.001568 -0.001924 0.000000 0.036800 0.000000
# 6 0.000000 0.000000 0.000000 -0.009653 0.000000 0.027258
#
#
# Mechanical properties :
#
#
# Convention : Reuss Voigt Hill
#
# Bulk Modulus (GPa) = 39.73267 44.32660 42.02963
# Shear Modulus (GPa) = 26.93639 29.36183 28.14911
#
# Velocity S-wave (km/s) = 3.44836 3.60026 3.52513
# Velocity P-wave (km/s) = 5.77884 6.07048 5.92645
#
# Compressibility (1/GPa) = 0.02516820
#
# Stress axis : x y z
#
# Youngs Moduli (GPa) = 76.10424 71.19879 48.33070
#
# Poissons Ratio (x) = 0.34659 0.19419
# Poissons Ratio (y) = 0.37047 0.11929
# Poissons Ratio (z) = 0.30578 0.17573
#
# Static dielectric constant tensor:
#      x y z
#    x 1.282800 0.000000 -0.291920 
#    y 0.000000 1.798140 0.000000 
#    z -0.291920 0.000000 1.730950 
# 
# From -- ./inp_files/70097.got.cif
#   From: 2010.05.17/outbox.cif.g08.bks.cpg/sg15_36_cif.got.tgz:70097.got - 2010.06.03 18:47:42.
