data_PCOD9298035
_publ_section_title
;
Structure prediction by ZEFSAII (Michael W. Deem and Ramdas Pophale) SiO2 
 PCOD9298035
Probable space group: C 2/C
;
_chemical_formula_sum "Si O2"
_cell_formula_units_Z 24
_cell_length_a 12.483856
_cell_length_b 7.194619
_cell_length_c 12.902521
_cell_angle_alpha 90.000000
_cell_angle_beta 122.120590
_cell_angle_gamma 90.000000
_cell_volume 981.474690
_symmetry_space_group_name_H-M "C 2/C"
_symmetry_group_IT_number 15
_symmetry_cell_setting 'monoclinic'
loop_
_space_group_symop_operation_xyz
x,y,z
-x,y,1/2-z
-x,-y,-z
x,-y,1/2+z
1/2+x,1/2+y,z
1/2-x,1/2+y,1/2-z
1/2-x,1/2-y,-z
1/2+x,1/2-y,1/2+z
loop_
_atom_site_type_symbol
_atom_site_label
_atom_site_fract_x
_atom_site_fract_y
_atom_site_fract_z
Si Si1 0.871881 0.334639 0.701860
Si Si2 0.161789 0.007803 0.459971
Si Si3 0.604112 0.836801 0.549077
O O1 0.745392 0.433827 0.598974
O O2 0.864118 0.282049 0.817172
O O3 0.000000 0.454409 0.750000
O O4 0.890886 0.165950 0.630289
O O5 0.266554 0.091964 0.436300
O O6 0.067982 0.161372 0.458217
O O7 0.500000 0.000000 0.500000
#
# Coordination Sequence:
#
# PCOD9298035 Si02
#       3
#     8   8   8
#     4  11  22  43  66 100 142 185 238 292 356 427
#     4  10  24  43  66 101 143 185 236 295 357 424
#     4  11  22  44  69 100 137 188 237 295 359 423
#
# _framework density 24.452998999999998
#
# number of rings (size 3 to 8) (size 9 to 14) (size 15 to 20)
#    0.000    1.333    3.333    2.000    0.000    1.333 
#   18.000    0.000    0.000    0.000    0.000    0.000 
#    0.000    0.000    0.000    0.000    0.000    0.000 
#
# Total GULP energy -67115.072642 kJ/mol
# GULP energy per Si atom -5592.922720 kJ/mol
# Density = 2.439734 g / cm^3
# Si number density = 24.452999 Si / 1000 Ang^3
#
#
#
# Elastic Constant Matrix: (Units=GPa)
#
#
# Indices 1 2 3 4 5 6 
#
# 1 100.0593 48.7469 50.3134 0.0000 -17.5010 0.0000
# 2 48.7469 112.8656 52.3272 0.0000 -12.4433 0.0000
# 3 50.3134 52.3272 139.2025 0.0000 -30.1711 0.0000
# 4 0.0000 0.0000 0.0000 7.6447 0.0000 -13.8600
# 5 -17.5010 -12.4433 -30.1711 0.0000 41.8517 0.0000
# 6 0.0000 0.0000 0.0000 -13.8600 0.0000 26.7673
#
#
#
# Elastic Compliance Matrix: (Units=1/GPa)
#
#
# Indices 1 2 3 4 5 6 
#
# 1 0.014041 -0.004465 -0.002858 0.000000 0.002483 0.000000
# 2 -0.004465 0.012154 -0.003053 0.000000 -0.000455 0.000000
# 3 -0.002858 -0.003053 0.010559 0.000000 0.005509 0.000000
# 4 0.000000 0.000000 0.000000 2.136302 0.000000 1.106164
# 5 0.002483 -0.000455 0.005509 0.000000 0.028768 0.000000
# 6 0.000000 0.000000 0.000000 1.106164 0.000000 0.610123
#
#
# Mechanical properties :
#
#
# Convention : Reuss Voigt Hill
#
# Bulk Modulus (GPa) = 62.50083 72.76694 67.63389
# Shear Modulus (GPa) = 1.76178 28.63540 15.19859
#
# Velocity S-wave (km/s) = 0.84973 3.42576 2.49578
# Velocity P-wave (km/s) = 5.15536 6.74316 6.00200
#
# Compressibility (1/GPa) = 0.01599979
#
# Stress axis : x y z
#
# Youngs Moduli (GPa) = 71.21939 82.27570 94.70923
#
# Poissons Ratio (x) = 0.36740 0.27069
# Poissons Ratio (y) = 0.31803 0.28919
# Poissons Ratio (z) = 0.20356 0.25123
#
# Static dielectric constant tensor:
#      x y z
#    x 1.979120 0.000000 0.064110 
#    y 0.000000 2.071140 0.000000 
#    z 0.064110 0.000000 1.931300 
# 
# From -- ./inp_files/83050.got.cif
#   From: 2010.05.17/outbox.cif.g08.bks.cpg/sg15_42_cif.got.tgz:83050.got - 2010.06.03 18:47:42.
