data_PCOD9298850
_publ_section_title
;
Structure prediction by ZEFSAII (Michael W. Deem and Ramdas Pophale) SiO2 
 PCOD9298850
Probable space group: C 2/C
;
_chemical_formula_sum "Si O2"
_cell_formula_units_Z 60
_cell_length_a 18.982279
_cell_length_b 5.052522
_cell_length_c 26.793601
_cell_angle_alpha 90.000000
_cell_angle_beta 89.523851
_cell_angle_gamma 90.000000
_cell_volume 2569.642192
_symmetry_space_group_name_H-M "C 2/C"
_symmetry_group_IT_number 15
_symmetry_cell_setting 'monoclinic'
loop_
_space_group_symop_operation_xyz
x,y,z
-x,y,1/2-z
-x,-y,-z
x,-y,1/2+z
1/2+x,1/2+y,z
1/2-x,1/2+y,1/2-z
1/2-x,1/2-y,-z
1/2+x,1/2-y,1/2+z
loop_
_atom_site_type_symbol
_atom_site_label
_atom_site_fract_x
_atom_site_fract_y
_atom_site_fract_z
Si Si1 0.509536 0.350030 0.854870
Si Si2 0.300912 0.996517 0.506631
Si Si3 0.343272 0.091215 0.617372
Si Si4 0.203605 0.082906 0.242640
Si Si5 0.000000 0.430863 0.250000
Si Si6 0.691006 0.671250 0.636678
Si Si7 0.373382 0.827452 0.409134
Si Si8 0.100106 0.214819 0.805688
O O1 0.449346 0.287557 0.894392
O O2 0.532590 0.647364 0.840734
O O3 0.583148 0.235708 0.874616
O O4 0.489203 0.234334 0.800632
O O5 0.250000 0.750000 0.500000
O O6 0.336197 0.999029 0.560666
O O7 0.359089 0.958226 0.462930
O O8 0.250000 0.250000 0.500000
O O9 0.345007 0.860967 0.658904
O O10 0.272369 0.253793 0.629143
O O11 0.265897 0.877884 0.258447
O O12 0.180219 0.969880 0.189546
O O13 0.138886 0.034854 0.280684
O O14 0.931943 0.609076 0.238075
O O15 0.675807 0.430933 0.598371
O O16 0.645345 0.931070 0.627927
#
# Coordination Sequence:
#
# PCOD9298850 Si02
#       8
#     8   8   8   8   4   8   8   8
#     4  11  27  44  74 103 149 194 241 303 366 439
#     4  12  25  48  78 107 142 189 243 307 378 434
#     4  11  25  46  73 104 143 189 242 302 368 434
#     4  12  25  40  66 102 138 184 238 297 355 424
#     4  10  24  46  66  98 142 200 238 282 368 440
#     4  12  25  45  73 104 145 187 245 303 359 432
#     4  12  27  47  73 109 141 188 247 304 364 435
#     4  11  25  44  68 101 150 190 247 293 372 437
#
# _framework density 23.349554000000001
#
# number of rings (size 3 to 8) (size 9 to 14) (size 15 to 20)
#    0.000    0.533    4.000    2.800   13.067    0.533 
#    0.000    0.667    0.000    0.000    0.000    0.000 
#    0.000    0.000    0.000    0.000    0.000    0.000 
#
# Total GULP energy -167949.942795 kJ/mol
# GULP energy per Si atom -5598.331426 kJ/mol
# Density = 2.329641 g / cm^3
# Si number density = 23.349554 Si / 1000 Ang^3
#
#
#
# Elastic Constant Matrix: (Units=GPa)
#
#
# Indices 1 2 3 4 5 6 
#
# 1 105.9648 15.0823 40.9137 0.0000 -11.7967 0.0000
# 2 15.0823 81.8348 -5.3246 0.0000 12.6204 0.0000
# 3 40.9137 -5.3246 107.3451 0.0000 10.0438 0.0000
# 4 0.0000 0.0000 0.0000 21.2197 0.0000 -4.7772
# 5 -11.7967 12.6204 10.0438 0.0000 46.3923 0.0000
# 6 0.0000 0.0000 0.0000 -4.7772 0.0000 32.3399
#
#
#
# Elastic Compliance Matrix: (Units=1/GPa)
#
#
# Indices 1 2 3 4 5 6 
#
# 1 0.012660 -0.003519 -0.005502 0.000000 0.005368 0.000000
# 2 -0.003519 0.013834 0.002514 0.000000 -0.005203 0.000000
# 3 -0.005502 0.002514 0.011975 0.000000 -0.004676 0.000000
# 4 0.000000 0.000000 0.000000 0.048747 0.000000 0.007201
# 5 0.005368 -0.005203 -0.004676 0.000000 0.025348 0.000000
# 6 0.000000 0.000000 0.000000 0.007201 0.000000 0.031985
#
#
# Mechanical properties :
#
#
# Convention : Reuss Voigt Hill
#
# Bulk Modulus (GPa) = 39.28417 44.05416 41.66916
# Shear Modulus (GPa) = 30.11179 36.28862 33.20021
#
# Velocity S-wave (km/s) = 3.59501 3.94654 3.77487
# Velocity P-wave (km/s) = 5.83892 6.29882 6.07323
#
# Compressibility (1/GPa) = 0.02545555
#
# Stress axis : x y z
#
# Youngs Moduli (GPa) = 78.98960 72.28452 83.50749
#
# Poissons Ratio (x) = 0.25437 0.45946
# Poissons Ratio (y) = 0.27797 -0.20996
# Poissons Ratio (z) = 0.43460 -0.18174
#
# Static dielectric constant tensor:
#      x y z
#    x 1.897150 0.000000 -0.031170 
#    y 0.000000 1.900380 0.000000 
#    z -0.031170 0.000000 1.897960 
# 
# From -- ./inp_files/297768.got.cif
#   From: 2010.05.17/outbox.cif.g08.bks.cpg/sg15_149_cif.got.tgz:297768.got - 2010.06.03 18:47:42.
