data_PCOD9298004
_publ_section_title
;
Structure prediction by ZEFSAII (Michael W. Deem and Ramdas Pophale) SiO2 
 PCOD9298004
Probable space group: C 2/C
;
_chemical_formula_sum "Si O2"
_cell_formula_units_Z 56
_cell_length_a 23.000580
_cell_length_b 7.318485
_cell_length_c 22.111158
_cell_angle_alpha 90.000000
_cell_angle_beta 133.267625
_cell_angle_gamma 90.000000
_cell_volume 2710.181511
_symmetry_space_group_name_H-M "C 2/C"
_symmetry_group_IT_number 15
_symmetry_cell_setting 'monoclinic'
loop_
_space_group_symop_operation_xyz
x,y,z
-x,y,1/2-z
-x,-y,-z
x,-y,1/2+z
1/2+x,1/2+y,z
1/2-x,1/2+y,1/2-z
1/2-x,1/2-y,-z
1/2+x,1/2-y,1/2+z
loop_
_atom_site_type_symbol
_atom_site_label
_atom_site_fract_x
_atom_site_fract_y
_atom_site_fract_z
Si Si1 0.704390 0.757712 0.220548
Si Si2 0.690628 0.421952 0.386819
Si Si3 0.589915 0.938752 0.582175
Si Si4 0.779661 0.243537 0.903793
Si Si5 0.165099 0.138449 0.002431
Si Si6 0.002756 0.112587 0.940571
Si Si7 0.868326 0.889352 0.289136
O O1 0.726625 0.792234 0.306425
O O2 0.787376 0.757973 0.243650
O O3 0.668116 0.555870 0.194899
O O4 0.641181 0.902250 0.148707
O O5 0.729670 0.623665 0.411281
O O6 0.765797 0.284259 0.440074
O O7 0.646647 0.383172 0.418405
O O8 0.641983 0.393272 0.291237
O O9 0.641769 0.851340 0.565513
O O10 0.571908 0.762730 0.614585
O O11 0.500000 0.000000 0.500000
O O12 0.807207 0.057227 0.953231
O O13 0.087388 0.192392 0.985909
O O14 0.962344 0.014590 0.856696
O O15 0.000000 0.000000 0.000000
#
# Coordination Sequence:
#
# PCOD9298004 Si02
#       7
#     8   8   8   8   8   8   8
#     4  11  21  37  60  93 124 164 204 263 319 380
#     4  10  24  43  64  93 122 175 218 255 309 388
#     4  12  23  36  60  98 131 157 204 273 325 380
#     4  11  22  40  67  93 126 169 214 263 316 391
#     4  11  24  42  66  89 130 170 214 264 314 380
#     4  12  23  38  61  96 125 161 204 265 328 375
#     4  11  22  37  62  90 128 163 210 256 320 384
#
# _framework density 20.662821999999998
#
# number of rings (size 3 to 8) (size 9 to 14) (size 15 to 20)
#    0.000    0.857    5.714    2.143    6.000    0.571 
#    0.000    0.000    0.000    0.000    0.000    0.000 
#    0.000    0.000    0.000    0.000    0.000    0.000 
#
# Total GULP energy -155949.713819 kJ/mol
# GULP energy per Si atom -5569.632636 kJ/mol
# Density = 2.061579 g / cm^3
# Si number density = 20.662822 Si / 1000 Ang^3
#
#
#
# Elastic Constant Matrix: (Units=GPa)
#
#
# Indices 1 2 3 4 5 6 
#
# 1 75.7402 11.5664 44.2321 0.0000 5.2741 0.0000
# 2 11.5664 81.0749 31.7179 -0.0001 4.1229 0.0001
# 3 44.2321 31.7179 145.3297 0.0000 6.5976 0.0000
# 4 0.0000 -0.0001 0.0000 34.2789 0.0000 0.0347
# 5 5.2741 4.1229 6.5976 0.0000 34.3893 0.0000
# 6 0.0000 0.0001 0.0000 0.0347 0.0000 24.5017
#
#
#
# Elastic Compliance Matrix: (Units=1/GPa)
#
#
# Indices 1 2 3 4 5 6 
#
# 1 0.016148 -0.000362 -0.004767 0.000000 -0.001519 0.000000
# 2 -0.000362 0.013532 -0.002797 0.000000 -0.001030 0.000000
# 3 -0.004767 -0.002797 0.008972 0.000000 -0.000655 0.000000
# 4 0.000000 0.000000 0.000000 0.029173 0.000000 -0.000041
# 5 -0.001519 -0.001030 -0.000655 0.000000 0.029561 0.000000
# 6 0.000000 0.000000 0.000000 -0.000041 0.000000 0.040813
#
#
# Mechanical properties :
#
#
# Convention : Reuss Voigt Hill
#
# Bulk Modulus (GPa) = 43.85593 53.01973 48.43783
# Shear Modulus (GPa) = 30.93112 32.94254 31.93683
#
# Velocity S-wave (km/s) = 3.87324 3.99719 3.93570
# Velocity P-wave (km/s) = 6.42443 6.85701 6.64424
#
# Compressibility (1/GPa) = 0.02280193
#
# Stress axis : x y z
#
# Youngs Moduli (GPa) = 61.92788 73.89708 111.46027
#
# Poissons Ratio (x) = 0.02672 0.53131
# Poissons Ratio (y) = 0.02239 0.31171
# Poissons Ratio (z) = 0.29520 0.20666
#
# Static dielectric constant tensor:
#      x y z
#    x 1.842740 0.000000 0.065940 
#    y 0.000000 1.900960 0.000000 
#    z 0.065940 0.000000 1.848010 
# 
# From -- ./inp_files/251972.got.cif
#   From: 2010.05.17/outbox.cif.g08.bks.cpg/sg15_126_cif.got.tgz:251972.got - 2010.06.03 18:47:42.
