data_PCOD9298587
_publ_section_title
;
Structure prediction by ZEFSAII (Michael W. Deem and Ramdas Pophale) SiO2 
 PCOD9298587
Probable space group: C 2/C
;
_chemical_formula_sum "Si O2"
_cell_formula_units_Z 28
_cell_length_a 16.609576
_cell_length_b 9.373337
_cell_length_c 7.762476
_cell_angle_alpha 90.000000
_cell_angle_beta 62.527146
_cell_angle_gamma 90.000000
_cell_volume 1072.232640
_symmetry_space_group_name_H-M "C 2/C"
_symmetry_group_IT_number 15
_symmetry_cell_setting 'monoclinic'
loop_
_space_group_symop_operation_xyz
x,y,z
-x,y,1/2-z
-x,-y,-z
x,-y,1/2+z
1/2+x,1/2+y,z
1/2-x,1/2+y,1/2-z
1/2-x,1/2-y,-z
1/2+x,1/2-y,1/2+z
loop_
_atom_site_type_symbol
_atom_site_label
_atom_site_fract_x
_atom_site_fract_y
_atom_site_fract_z
Si Si1 0.500000 0.399705 0.750000
Si Si2 0.699425 0.873713 0.945228
Si Si3 0.873416 0.117890 0.083420
Si Si4 0.106167 0.358309 0.693722
O O1 0.568930 0.502123 0.577763
O O2 0.561353 0.322176 0.829819
O O3 0.783606 0.944817 0.758230
O O4 0.629722 0.820877 0.867184
O O5 0.750000 0.750000 0.000000
O O6 0.647580 0.987668 0.111586
O O7 0.849325 0.243398 0.977443
O O8 0.000000 0.355951 0.750000
#
# Coordination Sequence:
#
# PCOD9298587 Si02
#       4
#     4   8   8   8
#     4  10  24  44  76 112 156 210 256 326 388 464
#     4  12  28  48  79 114 159 202 261 325 400 463
#     4  11  24  46  77 111 159 204 267 315 395 459
#     4  12  27  52  80 116 158 208 267 324 392 473
#
# _framework density 26.113734999999998
#
# number of rings (size 3 to 8) (size 9 to 14) (size 15 to 20)
#    0.000    0.571    1.429    5.143    4.000    2.286 
#    2.571    0.000    0.000    0.000    0.000    0.000 
#    0.000    0.000    0.000    0.000    0.000    0.000 
#
# Total GULP energy -78604.780985 kJ/mol
# GULP energy per Si atom -5614.627213 kJ/mol
# Density = 2.605430 g / cm^3
# Si number density = 26.113735 Si / 1000 Ang^3
#
#
#
# Elastic Constant Matrix: (Units=GPa)
#
#
# Indices 1 2 3 4 5 6 
#
# 1 238.7841 43.4583 51.8398 0.0000 36.4964 0.0000
# 2 43.4583 93.8250 23.1617 0.0000 18.7622 0.0000
# 3 51.8398 23.1617 87.8887 0.0000 -7.7519 0.0000
# 4 0.0000 0.0000 0.0000 -666.7081 0.0000 130.9380
# 5 36.4964 18.7622 -7.7519 0.0000 77.5672 0.0000
# 6 0.0000 0.0000 0.0000 130.9380 0.0000 24.0195
#
#
#
# Elastic Compliance Matrix: (Units=1/GPa)
#
#
# Indices 1 2 3 4 5 6 
#
# 1 0.005494 -0.001250 -0.003140 0.000000 -0.002596 0.000000
# 2 -0.001250 0.012466 -0.002786 0.000000 -0.002705 0.000000
# 3 -0.003140 -0.002786 0.014280 0.000000 0.003579 0.000000
# 4 0.000000 0.000000 0.000000 -0.000724 0.000000 0.003949
# 5 -0.002596 -0.002705 0.003579 0.000000 0.015126 0.000000
# 6 0.000000 0.000000 0.000000 0.003949 0.000000 0.020107
#
#
# Mechanical properties :
#
#
# Convention : Reuss Voigt Hill
#
# Bulk Modulus (GPa) = 55.90763 73.04637 64.47700
# Shear Modulus (GPa) = 57.42911 -92.88842 -17.72966
#
# Velocity S-wave (km/s) = 4.69464 -5.97059 -2.60847
# Velocity P-wave (km/s) = 7.13036 4.41559 3.95882
#
# Compressibility (1/GPa) = 0.01788664
#
# Stress axis : x y z
#
# Youngs Moduli (GPa) = 182.01741 80.21714 70.02775
#
# Poissons Ratio (x) = 0.10030 0.21989
# Poissons Ratio (y) = 0.22759 0.19512
# Poissons Ratio (z) = 0.57154 0.22351
#
# Static dielectric constant tensor:
#      x y z
#    x 2.057270 0.000000 0.011990 
#    y 0.000000 1.973600 0.000000 
#    z 0.011990 0.000000 2.071340 
# 
# From -- ./inp_files/36478.got.cif
#   From: 2010.05.17/outbox.cif.g08.bks.cpg/sg15_19_cif.got.tgz:36478.got - 2010.06.03 18:47:42.
