data_PCOD9298802
_publ_section_title
;
Structure prediction by ZEFSAII (Michael W. Deem and Ramdas Pophale) SiO2 
 PCOD9298802
Probable space group: C 2/C
;
_chemical_formula_sum "Si O2"
_cell_formula_units_Z 52
_cell_length_a 16.517935
_cell_length_b 5.746024
_cell_length_c 29.016117
_cell_angle_alpha 90.000000
_cell_angle_beta 115.838164
_cell_angle_gamma 90.000000
_cell_volume 2478.670659
_symmetry_space_group_name_H-M "C 2/C"
_symmetry_group_IT_number 15
_symmetry_cell_setting 'monoclinic'
loop_
_space_group_symop_operation_xyz
x,y,z
-x,y,1/2-z
-x,-y,-z
x,-y,1/2+z
1/2+x,1/2+y,z
1/2-x,1/2+y,1/2-z
1/2-x,1/2-y,-z
1/2+x,1/2-y,1/2+z
loop_
_atom_site_type_symbol
_atom_site_label
_atom_site_fract_x
_atom_site_fract_y
_atom_site_fract_z
Si Si1 0.824746 0.500538 0.065007
Si Si2 0.348801 0.579090 0.326602
Si Si3 0.183495 0.072397 0.784787
Si Si4 0.481724 0.052007 0.842729
Si Si5 0.000000 0.314684 0.750000
Si Si6 0.171232 0.335466 0.631293
Si Si7 0.274155 0.003641 0.947713
O O1 0.778314 0.747550 0.068542
O O2 0.923116 0.494870 0.111141
O O3 0.780130 0.246549 0.065955
O O4 0.823992 0.509767 0.009116
O O5 0.264345 0.748139 0.312375
O O6 0.325346 0.458162 0.272080
O O7 0.446099 0.686987 0.340194
O O8 0.350904 0.435133 0.374175
O O9 0.088453 0.158188 0.779903
O O10 0.227420 0.854289 0.822362
O O11 0.481831 0.972402 0.790037
O O12 0.402623 0.920064 0.850385
O O13 0.165582 0.472475 0.582692
#
# Coordination Sequence:
#
# PCOD9298802 Si02
#       7
#     8   8   8   8   4   8   8
#     4  10  24  48  69 103 133 174 222 287 337 407
#     4  11  22  41  59  91 128 181 218 274 336 408
#     4  11  22  40  61  88 135 168 225 272 335 404
#     4  11  26  39  63  95 136 169 228 278 336 399
#     4  12  24  40  58  98 126 174 218 280 336 400
#     4  11  24  41  67  94 128 181 220 277 334 409
#     4  10  24  45  75  97 134 176 225 274 351 402
#
# _framework density 20.978988000000001
#
# number of rings (size 3 to 8) (size 9 to 14) (size 15 to 20)
#    0.000    1.231    3.077    1.846    8.615    2.462 
#    0.000    0.769    0.000    0.000    0.000    0.000 
#    0.000    0.000    0.000    0.000    0.000    0.000 
#
# Total GULP energy -144924.318758 kJ/mol
# GULP energy per Si atom -5574.012260 kJ/mol
# Density = 2.093124 g / cm^3
# Si number density = 20.978988 Si / 1000 Ang^3
#
#
#
# Elastic Constant Matrix: (Units=GPa)
#
#
# Indices 1 2 3 4 5 6 
#
# 1 100.9242 34.3679 54.5497 0.0000 -13.4538 0.0000
# 2 34.3679 81.9766 32.1857 0.0000 -7.1870 0.0001
# 3 54.5497 32.1857 89.6431 0.0000 -9.7379 0.0000
# 4 0.0000 0.0000 0.0000 25.5753 0.0000 -4.4654
# 5 -13.4538 -7.1870 -9.7379 0.0000 27.8941 0.0000
# 6 0.0000 0.0001 0.0000 -4.4654 0.0000 -9.9417
#
#
#
# Elastic Compliance Matrix: (Units=1/GPa)
#
#
# Indices 1 2 3 4 5 6 
#
# 1 0.015895 -0.003125 -0.008112 0.000000 0.004029 0.000000
# 2 -0.003125 0.014918 -0.003327 0.000000 0.001175 0.000000
# 3 -0.008112 -0.003327 0.017429 0.000000 0.001315 0.000000
# 4 0.000000 0.000000 0.000000 0.036257 0.000000 -0.016285
# 5 0.004029 0.001175 0.001315 0.000000 0.038555 0.000000
# 6 0.000000 0.000000 0.000000 -0.016285 0.000000 -0.093272
#
#
# Mechanical properties :
#
#
# Convention : Reuss Voigt Hill
#
# Bulk Modulus (GPa) = 52.32092 57.19449 54.75771
# Shear Modulus (GPa) = 76.59156 18.80158 47.69657
#
# Velocity S-wave (km/s) = 6.04880 2.99692 4.77334
# Velocity P-wave (km/s) = 8.58940 6.26876 7.51915
#
# Compressibility (1/GPa) = 0.01911282
#
# Stress axis : x y z
#
# Youngs Moduli (GPa) = 62.91479 67.03307 57.37518
#
# Poissons Ratio (x) = 0.20950 0.46545
# Poissons Ratio (y) = 0.19663 0.19087
# Poissons Ratio (z) = 0.51039 0.22300
#
# Static dielectric constant tensor:
#      x y z
#    x 1.718930 0.000000 -0.043890 
#    y 0.000000 2.076380 0.000000 
#    z -0.043890 0.000000 1.811460 
# 
# From -- ./inp_files/312287.got.cif
#   From: 2010.05.17/outbox.cif.g08.bks.cpg/sg15_157_cif.got.tgz:312287.got - 2010.06.03 18:47:42.
