data_PCOD9298509
_publ_section_title
;
Structure prediction by ZEFSAII (Michael W. Deem and Ramdas Pophale) SiO2 
 PCOD9298509
Probable space group: C 2/C
;
_chemical_formula_sum "Si O2"
_cell_formula_units_Z 40
_cell_length_a 16.388739
_cell_length_b 9.855360
_cell_length_c 11.093477
_cell_angle_alpha 90.000000
_cell_angle_beta 116.662762
_cell_angle_gamma 90.000000
_cell_volume 1601.251705
_symmetry_space_group_name_H-M "C 2/C"
_symmetry_group_IT_number 15
_symmetry_cell_setting 'monoclinic'
loop_
_space_group_symop_operation_xyz
x,y,z
-x,y,1/2-z
-x,-y,-z
x,-y,1/2+z
1/2+x,1/2+y,z
1/2-x,1/2+y,1/2-z
1/2-x,1/2-y,-z
1/2+x,1/2-y,1/2+z
loop_
_atom_site_type_symbol
_atom_site_label
_atom_site_fract_x
_atom_site_fract_y
_atom_site_fract_z
Si Si1 0.649231 0.475512 0.391633
Si Si2 0.510857 0.327218 0.925888
Si Si3 0.547734 0.029095 0.659104
Si Si4 0.809892 0.903228 0.832164
Si Si5 0.145575 0.263861 0.729465
O O1 0.570468 0.582579 0.373700
O O2 0.711761 0.465902 0.550817
O O3 0.698723 0.527414 0.303713
O O4 0.619485 0.323573 0.329958
O O5 0.461894 0.191082 0.842663
O O6 0.579001 0.600938 0.081674
O O7 0.582951 0.289086 0.079184
O O8 0.500000 0.979895 0.750000
O O9 0.632995 0.927189 0.716731
O O10 0.500000 0.000000 0.500000
O O11 0.755468 0.760970 0.788608
#
# Coordination Sequence:
#
# PCOD9298509 Si02
#       5
#     8   8   8   8   8
#     4  12  26  50  76 115 157 213 270 326 403 483
#     4  11  26  49  80 115 159 213 269 328 411 475
#     4  10  24  44  72 105 150 202 258 323 394 467
#     4  12  28  45  81 115 161 208 273 330 402 472
#     4  11  28  48  78 117 159 210 270 336 396 480
#
# _framework density 24.980457999999999
#
# number of rings (size 3 to 8) (size 9 to 14) (size 15 to 20)
#    0.000    0.800    2.000    3.000   11.200    4.000 
#    0.000    0.000    0.000    0.000    0.000    0.000 
#    0.000    0.000    0.000    0.000    0.000    0.000 
#
# Total GULP energy -111441.556333 kJ/mol
# GULP energy per Si atom -5572.077817 kJ/mol
# Density = 2.492360 g / cm^3
# Si number density = 24.980458 Si / 1000 Ang^3
#
#
#
# Elastic Constant Matrix: (Units=GPa)
#
#
# Indices 1 2 3 4 5 6 
#
# 1 85.3497 44.6579 59.5744 0.0000 8.0312 0.0000
# 2 44.6579 162.0125 51.6711 0.0000 -2.1760 0.0000
# 3 59.5744 51.6711 201.7428 0.0000 -9.5151 0.0000
# 4 0.0000 0.0000 0.0000 41.7317 0.0000 -6.3630
# 5 8.0312 -2.1760 -9.5151 0.0000 34.7502 0.0000
# 6 0.0000 0.0000 0.0000 -6.3630 0.0000 23.1248
#
#
#
# Elastic Compliance Matrix: (Units=1/GPa)
#
#
# Indices 1 2 3 4 5 6 
#
# 1 0.017078 -0.003365 -0.004435 0.000000 -0.005372 0.000000
# 2 -0.003365 0.007385 -0.000850 0.000000 0.001007 0.000000
# 3 -0.004435 -0.000850 0.006615 0.000000 0.002783 0.000000
# 4 0.000000 0.000000 0.000000 0.025012 0.000000 0.006882
# 5 -0.005372 0.001007 0.002783 0.000000 0.030843 0.000000
# 6 0.000000 0.000000 0.000000 0.006882 0.000000 0.045137
#
#
# Mechanical properties :
#
#
# Convention : Reuss Voigt Hill
#
# Bulk Modulus (GPa) = 72.57873 84.54576 78.56225
# Shear Modulus (GPa) = 32.47519 39.46811 35.97165
#
# Velocity S-wave (km/s) = 3.60950 3.97918 3.79884
# Velocity P-wave (km/s) = 6.81825 7.41823 7.12456
#
# Compressibility (1/GPa) = 0.01377814
#
# Stress axis : x y z
#
# Youngs Moduli (GPa) = 58.55415 135.41595 151.16409
#
# Poissons Ratio (x) = 0.45572 0.67035
# Poissons Ratio (y) = 0.19705 0.12850
# Poissons Ratio (z) = 0.25966 0.11512
#
# Static dielectric constant tensor:
#      x y z
#    x 2.158850 0.000000 0.019650 
#    y 0.000000 2.163270 0.000000 
#    z 0.019650 0.000000 1.972270 
# 
# From -- ./inp_files/115982.got.cif
#   From: 2010.05.17/outbox.cif.g08.bks.cpg/sg15_58_cif.got.tgz:115982.got - 2010.06.03 18:47:42.
