data_PCOD9298734
_publ_section_title
;
Structure prediction by ZEFSAII (Michael W. Deem and Ramdas Pophale) SiO2 
 PCOD9298734
Probable space group: C 2/C
;
_chemical_formula_sum "Si O2"
_cell_formula_units_Z 32
_cell_length_a 24.387900
_cell_length_b 6.039564
_cell_length_c 16.509686
_cell_angle_alpha 90.000000
_cell_angle_beta 149.997725
_cell_angle_gamma 90.000000
_cell_volume 1215.958289
_symmetry_space_group_name_H-M "C 2/C"
_symmetry_group_IT_number 15
_symmetry_cell_setting 'monoclinic'
loop_
_space_group_symop_operation_xyz
x,y,z
-x,y,1/2-z
-x,-y,-z
x,-y,1/2+z
1/2+x,1/2+y,z
1/2-x,1/2+y,1/2-z
1/2-x,1/2-y,-z
1/2+x,1/2-y,1/2+z
loop_
_atom_site_type_symbol
_atom_site_label
_atom_site_fract_x
_atom_site_fract_y
_atom_site_fract_z
Si Si1 0.741655 0.269568 0.155019
Si Si2 0.838554 0.388742 0.560903
Si Si3 0.086008 0.097290 0.992755
Si Si4 0.420568 0.912859 0.827725
O O1 0.821394 0.183724 0.326666
O O2 0.620241 0.343112 0.027538
O O3 0.803684 0.491769 0.205434
O O4 0.723821 0.083244 0.065748
O O5 0.750000 0.250000 0.500000
O O6 0.894854 0.228159 0.566969
O O7 0.919685 0.490921 0.732640
O O8 0.966490 0.161913 0.874077
O O9 0.500000 0.000000 0.000000
#
# Coordination Sequence:
#
# PCOD9298734 Si02
#       4
#     8   8   8   8
#     4  11  23  47  75 105 150 198 239 314 370 431
#     4  12  24  44  75 106 147 192 250 299 379 440
#     4  11  23  45  71 106 147 194 251 301 368 445
#     4  10  24  45  71 105 146 187 249 301 360 439
#
# _framework density 26.316690000000001
#
# number of rings (size 3 to 8) (size 9 to 14) (size 15 to 20)
#    0.000    1.000    5.000    1.500    0.000    0.000 
#    4.500    6.250    0.000    0.000    0.000    0.000 
#    0.000    0.000    0.000    0.000    0.000    0.000 
#
# Total GULP energy -89331.663094 kJ/mol
# GULP energy per Si atom -5583.228943 kJ/mol
# Density = 2.625679 g / cm^3
# Si number density = 26.316690 Si / 1000 Ang^3
#
#
#
# Elastic Constant Matrix: (Units=GPa)
#
#
# Indices 1 2 3 4 5 6 
#
# 1 93.8357 63.9912 49.6541 0.0000 -16.3539 0.0000
# 2 63.9912 92.0687 48.8993 0.0000 17.1957 0.0000
# 3 49.6541 48.8993 178.4899 0.0000 -43.9258 0.0000
# 4 0.0000 0.0000 0.0000 41.8680 0.0000 -4.8876
# 5 -16.3539 17.1957 -43.9258 0.0000 50.2543 0.0000
# 6 0.0000 0.0000 0.0000 -4.8876 0.0000 58.9897
#
#
#
# Elastic Compliance Matrix: (Units=1/GPa)
#
#
# Indices 1 2 3 4 5 6 
#
# 1 0.033927 -0.031808 0.005952 0.000000 0.027127 0.000000
# 2 -0.031808 0.047362 -0.013584 0.000000 -0.038431 0.000000
# 3 0.005952 -0.013584 0.011835 0.000000 0.016929 0.000000
# 4 0.000000 0.000000 0.000000 0.024118 0.000000 0.001998
# 5 0.027127 -0.038431 0.016929 0.000000 0.056674 0.000000
# 6 0.000000 0.000000 0.000000 0.001998 0.000000 0.017118
#
#
# Mechanical properties :
#
#
# Convention : Reuss Voigt Hill
#
# Bulk Modulus (GPa) = 70.21311 76.60927 73.41119
# Shear Modulus (GPa) = 18.20428 43.67902 30.94165
#
# Velocity S-wave (km/s) = 2.63295 4.07842 3.43263
# Velocity P-wave (km/s) = 5.99843 7.16601 6.60806
#
# Compressibility (1/GPa) = 0.01424236
#
# Stress axis : x y z
#
# Youngs Moduli (GPa) = 29.47548 21.11406 84.49740
#
# Poissons Ratio (x) = 0.67159 -0.50292
# Poissons Ratio (y) = 0.93755 1.14784
# Poissons Ratio (z) = -0.17544 0.28682
#
# Static dielectric constant tensor:
#      x y z
#    x 2.131550 0.000000 0.036410 
#    y 0.000000 2.073320 0.000000 
#    z 0.036410 0.000000 2.095830 
# 
# From -- ./inp_files/223986.got.cif
#   From: 2010.05.17/outbox.cif.g08.bks.cpg/sg15_112_cif.got.tgz:223986.got - 2010.06.03 18:47:42.
