data_PCOD9298056
_publ_section_title
;
Structure prediction by ZEFSAII (Michael W. Deem and Ramdas Pophale) SiO2 
 PCOD9298056
Probable space group: C 2/C
;
_chemical_formula_sum "Si O2"
_cell_formula_units_Z 36
_cell_length_a 7.348040
_cell_length_b 16.430930
_cell_length_c 17.751636
_cell_angle_alpha 90.000000
_cell_angle_beta 127.295646
_cell_angle_gamma 90.000000
_cell_volume 1704.994124
_symmetry_space_group_name_H-M "C 2/C"
_symmetry_group_IT_number 15
_symmetry_cell_setting 'monoclinic'
loop_
_space_group_symop_operation_xyz
x,y,z
-x,y,1/2-z
-x,-y,-z
x,-y,1/2+z
1/2+x,1/2+y,z
1/2-x,1/2+y,1/2-z
1/2-x,1/2-y,-z
1/2+x,1/2-y,1/2+z
loop_
_atom_site_type_symbol
_atom_site_label
_atom_site_fract_x
_atom_site_fract_y
_atom_site_fract_z
Si Si1 0.712463 0.346418 0.497033
Si Si2 0.374004 0.914043 0.797555
Si Si3 0.500000 0.290460 0.750000
Si Si4 0.130034 0.445417 0.095352
Si Si5 0.268516 0.818351 0.068208
O O1 0.750000 0.250000 0.500000
O O2 0.703557 0.389898 0.413378
O O3 0.474909 0.360060 0.479699
O O4 0.926788 0.379177 0.598178
O O5 0.500000 0.929981 0.750000
O O6 0.168259 0.848569 0.743547
O O7 0.283759 0.994323 0.818012
O O8 0.653608 0.231742 0.839295
O O9 0.951922 0.384463 0.089339
O O10 0.000000 0.500000 0.000000
O O11 0.250000 0.750000 0.000000
#
# Coordination Sequence:
#
# PCOD9298056 Si02
#       5
#     8   8   4   8   8
#     4  11  21  44  72  96 128 179 225 275 332 402
#     4  11  25  43  65  99 140 174 222 279 341 396
#     4  12  26  42  68 100 134 178 228 282 330 402
#     4  10  24  43  66  98 133 174 220 274 344 403
#     4  12  23  42  74  99 133 175 230 278 333 397
#
# _framework density 21.114442
#
# number of rings (size 3 to 8) (size 9 to 14) (size 15 to 20)
#    0.000    0.889    4.444    2.667    1.556    5.333 
#    0.000    0.000    0.000    0.000    0.000    0.000 
#    0.000    0.000    0.000    0.000    0.000    0.000 
#
# Total GULP energy -100619.764717 kJ/mol
# GULP energy per Si atom -5589.986929 kJ/mol
# Density = 2.106639 g / cm^3
# Si number density = 21.114442 Si / 1000 Ang^3
#
#
#
# Elastic Constant Matrix: (Units=GPa)
#
#
# Indices 1 2 3 4 5 6 
#
# 1 120.7051 23.1592 0.2336 0.0000 -5.4049 0.0000
# 2 23.1592 102.1105 13.1783 0.0000 -12.9748 0.0000
# 3 0.2336 13.1783 41.2303 0.0000 -8.3832 0.0000
# 4 0.0000 0.0000 0.0000 18.3722 0.0000 -11.1829
# 5 -5.4049 -12.9748 -8.3832 0.0000 36.4446 0.0000
# 6 0.0000 0.0000 0.0000 -11.1829 0.0000 46.3692
#
#
#
# Elastic Compliance Matrix: (Units=1/GPa)
#
#
# Indices 1 2 3 4 5 6 
#
# 1 0.008695 -0.001971 0.000735 0.000000 0.000757 0.000000
# 2 -0.001971 0.010990 -0.002901 0.000000 0.002953 0.000000
# 3 0.000735 -0.002901 0.026215 0.000000 0.005106 0.000000
# 4 0.000000 0.000000 0.000000 0.063795 0.000000 0.015385
# 5 0.000757 0.002953 0.005106 0.000000 0.029777 0.000000
# 6 0.000000 0.000000 0.000000 0.015385 0.000000 0.025277
#
#
# Mechanical properties :
#
#
# Convention : Reuss Voigt Hill
#
# Bulk Modulus (GPa) = 26.57740 37.46535 32.02138
# Shear Modulus (GPa) = 26.94463 35.40218 31.17340
#
# Velocity S-wave (km/s) = 3.57616 4.09917 3.84657
# Velocity P-wave (km/s) = 5.44670 6.33930 5.90988
#
# Compressibility (1/GPa) = 0.03762595
#
# Stress axis : x y z
#
# Youngs Moduli (GPa) = 115.00532 90.99247 38.14554
#
# Poissons Ratio (x) = 0.17932 -0.02802
# Poissons Ratio (y) = 0.22665 0.11066
# Poissons Ratio (z) = -0.08448 0.26398
#
# Static dielectric constant tensor:
#      x y z
#    x 1.770330 0.000000 0.006900 
#    y 0.000000 1.758440 0.000000 
#    z 0.006900 0.000000 1.744040 
# 
# From -- ./inp_files/184442.got.cif
#   From: 2010.05.17/outbox.cif.g08.bks.cpg/sg15_93_cif.got.tgz:184442.got - 2010.06.03 18:47:42.
