data_PCOD9298455
_publ_section_title
;
Structure prediction by ZEFSAII (Michael W. Deem and Ramdas Pophale) SiO2 
 PCOD9298455
Probable space group: C 2/C
;
_chemical_formula_sum "Si O2"
_cell_formula_units_Z 40
_cell_length_a 27.855750
_cell_length_b 11.889781
_cell_length_c 9.767578
_cell_angle_alpha 90.000000
_cell_angle_beta 29.155270
_cell_angle_gamma 90.000000
_cell_volume 1576.025706
_symmetry_space_group_name_H-M "C 2/C"
_symmetry_group_IT_number 15
_symmetry_cell_setting 'monoclinic'
loop_
_space_group_symop_operation_xyz
x,y,z
-x,y,1/2-z
-x,-y,-z
x,-y,1/2+z
1/2+x,1/2+y,z
1/2-x,1/2+y,1/2-z
1/2-x,1/2-y,-z
1/2+x,1/2-y,1/2+z
loop_
_atom_site_type_symbol
_atom_site_label
_atom_site_fract_x
_atom_site_fract_y
_atom_site_fract_z
Si Si1 0.889252 0.155088 0.983455
Si Si2 0.387495 0.962478 0.778784
Si Si3 0.395936 0.285363 0.161944
Si Si4 0.708663 0.879255 0.197398
Si Si5 0.388978 0.397686 0.922626
O O1 0.861755 0.170644 0.892477
O O2 0.000000 0.191511 0.750000
O O3 0.891669 0.020271 0.984854
O O4 0.822125 0.248423 0.222942
O O5 0.391795 0.847586 0.682004
O O6 0.500000 0.000000 0.500000
O O7 0.323991 0.055900 0.857497
O O8 0.348700 0.935152 0.028166
O O9 0.340935 0.322905 0.162092
O O10 0.505860 0.341264 0.874746
O O11 0.822134 0.898100 0.955457
#
# Coordination Sequence:
#
# PCOD9298455 Si02
#       5
#     8   8   8   8   8
#     4  11  23  45  66  96 138 180 227 279 345 412
#     4  11  25  47  72 100 142 184 231 279 355 414
#     4  10  24  44  70  92 142 185 224 274 359 413
#     4  11  27  42  72 105 138 178 234 294 334 411
#     4  11  25  41  70 101 130 184 227 283 339 413
#
# _framework density 25.380296000000001
#
# number of rings (size 3 to 8) (size 9 to 14) (size 15 to 20)
#    0.000    1.200    2.000    3.600   11.200    1.600 
#    0.000    3.000    0.000    0.000    0.000    0.000 
#    0.000    0.000    0.000    0.000    0.000    0.000 
#
# Total GULP energy -112028.265169 kJ/mol
# GULP energy per Si atom -5601.413258 kJ/mol
# Density = 2.532253 g / cm^3
# Si number density = 25.380296 Si / 1000 Ang^3
#
#
#
# Elastic Constant Matrix: (Units=GPa)
#
#
# Indices 1 2 3 4 5 6 
#
# 1 88.4114 12.1507 11.7558 0.0000 0.5013 0.0000
# 2 12.1507 162.0175 20.3595 0.0000 7.7921 0.0000
# 3 11.7558 20.3595 97.0994 0.0000 -8.3780 0.0000
# 4 0.0000 0.0000 0.0000 18.8063 0.0000 -1.4954
# 5 0.5013 7.7921 -8.3780 0.0000 53.9747 0.0000
# 6 0.0000 0.0000 0.0000 -1.4954 0.0000 53.3327
#
#
#
# Elastic Compliance Matrix: (Units=1/GPa)
#
#
# Indices 1 2 3 4 5 6 
#
# 1 0.011577 -0.000698 -0.001273 0.000000 -0.000204 0.000000
# 2 -0.000698 0.006451 -0.001366 0.000000 -0.001137 0.000000
# 3 -0.001273 -0.001366 0.010903 0.000000 0.001901 0.000000
# 4 0.000000 0.000000 0.000000 0.053293 0.000000 0.001494
# 5 -0.000204 -0.001137 0.001901 0.000000 0.018988 0.000000
# 6 0.000000 0.000000 0.000000 0.001494 0.000000 0.018792
#
#
# Mechanical properties :
#
#
# Convention : Reuss Voigt Hill
#
# Bulk Modulus (GPa) = 44.93059 48.45114 46.69086
# Shear Modulus (GPa) = 37.28611 45.44022 41.36316
#
# Velocity S-wave (km/s) = 3.83704 4.23587 4.04138
# Velocity P-wave (km/s) = 6.11325 6.56163 6.34140
#
# Compressibility (1/GPa) = 0.02225655
#
# Stress axis : x y z
#
# Youngs Moduli (GPa) = 86.37700 155.01709 91.71505
#
# Poissons Ratio (x) = 0.10827 0.11674
# Poissons Ratio (y) = 0.06033 0.12529
# Poissons Ratio (z) = 0.10994 0.21177
#
# Static dielectric constant tensor:
#      x y z
#    x 1.972020 0.000000 0.045210 
#    y 0.000000 1.981120 0.000000 
#    z 0.045210 0.000000 2.087980 
# 
# From -- ./inp_files/126365.got.cif
#   From: 2010.05.17/outbox.cif.g08.bks.cpg/sg15_64_cif.got.tgz:126365.got - 2010.06.03 18:47:42.
