data_PCOD9298145
_publ_section_title
;
Structure prediction by ZEFSAII (Michael W. Deem and Ramdas Pophale) SiO2 
 PCOD9298145
Probable space group: C 2/C
;
_chemical_formula_sum "Si O2"
_cell_formula_units_Z 44
_cell_length_a 29.057103
_cell_length_b 9.247799
_cell_length_c 23.034090
_cell_angle_alpha 90.000000
_cell_angle_beta 18.028621
_cell_angle_gamma 90.000000
_cell_volume 1915.628257
_symmetry_space_group_name_H-M "C 2/C"
_symmetry_group_IT_number 15
_symmetry_cell_setting 'monoclinic'
loop_
_space_group_symop_operation_xyz
x,y,z
-x,y,1/2-z
-x,-y,-z
x,-y,1/2+z
1/2+x,1/2+y,z
1/2-x,1/2+y,1/2-z
1/2-x,1/2-y,-z
1/2+x,1/2-y,1/2+z
loop_
_atom_site_type_symbol
_atom_site_label
_atom_site_fract_x
_atom_site_fract_y
_atom_site_fract_z
Si Si1 0.423306 0.867789 0.253614
Si Si2 0.045740 0.676754 0.486915
Si Si3 0.124402 0.045390 0.178518
Si Si4 0.000000 0.805179 0.250000
Si Si5 0.687934 0.869972 0.323383
Si Si6 0.314633 0.083774 0.538400
O O1 0.273876 0.929070 0.460974
O O2 0.450162 0.701000 0.237049
O O3 0.556222 0.965198 0.116228
O O4 0.429421 0.870899 0.176383
O O5 0.152192 0.802816 0.383246
O O6 0.154699 0.537900 0.347820
O O7 0.948088 0.708808 0.547011
O O8 0.037296 0.911535 0.257488
O O9 0.171624 0.000973 0.186790
O O10 0.862963 0.705860 0.434609
O O11 0.687640 0.857420 0.393638
#
# Coordination Sequence:
#
# PCOD9298145 Si02
#       6
#     8   8   8   4   8   8
#     4  10  24  43  70  93 136 173 231 270 331 397
#     4  10  24  45  68 101 133 183 222 286 329 408
#     4  11  25  41  69 100 131 177 223 277 338 399
#     4  12  26  38  68 102 136 176 214 274 354 396
#     4  10  25  43  70  97 138 176 229 275 343 395
#     4  11  24  45  65  97 140 170 221 282 333 408
#
# _framework density 22.968966999999999
#
# number of rings (size 3 to 8) (size 9 to 14) (size 15 to 20)
#    0.000    1.455    1.818    0.545   12.727    5.091 
#    0.000    0.000    0.000    0.000    0.000    0.000 
#    0.000    0.000    0.000    0.000    0.000    0.000 
#
# Total GULP energy -122952.635842 kJ/mol
# GULP energy per Si atom -5588.756175 kJ/mol
# Density = 2.291669 g / cm^3
# Si number density = 22.968967 Si / 1000 Ang^3
#
#
#
# Elastic Constant Matrix: (Units=GPa)
#
#
# Indices 1 2 3 4 5 6 
#
# 1 85.7618 9.4747 19.8238 -0.0001 4.3322 0.0000
# 2 9.4747 81.6214 11.8594 -0.0004 -3.3085 0.0001
# 3 19.8238 11.8594 41.8639 -0.0004 -0.2002 0.0000
# 4 -0.0001 -0.0004 -0.0004 3.4035 0.0003 -4.5827
# 5 4.3322 -3.3085 -0.2002 0.0003 15.8595 -0.0001
# 6 0.0000 0.0001 0.0000 -4.5827 -0.0001 4.0589
#
#
#
# Elastic Compliance Matrix: (Units=1/GPa)
#
#
# Indices 1 2 3 4 5 6 
#
# 1 0.013361 -0.000821 -0.006113 0.000000 -0.003898 0.000000
# 2 -0.000821 0.012938 -0.003263 -0.000001 0.002882 -0.000001
# 3 -0.006113 -0.003263 0.027712 -0.000004 0.001339 -0.000005
# 4 0.000000 -0.000001 -0.000004 -0.564778 0.000006 -0.637661
# 5 -0.003898 0.002882 0.001339 0.000006 0.064737 0.000008
# 6 0.000000 -0.000001 -0.000005 -0.637661 0.000008 -0.473579
#
#
# Mechanical properties :
#
#
# Convention : Reuss Voigt Hill
#
# Bulk Modulus (GPa) = 29.74573 32.39590 31.07081
# Shear Modulus (GPa) = -5.63056 15.87032 5.11988
#
# Velocity S-wave (km/s) = -1.56739 2.63144 1.49462
# Velocity P-wave (km/s) = 3.11495 4.83399 4.06635
#
# Compressibility (1/GPa) = 0.03361827
#
# Stress axis : x y z
#
# Youngs Moduli (GPa) = 74.84595 77.29264 36.08510
#
# Poissons Ratio (x) = 0.06344 0.22058
# Poissons Ratio (y) = 0.06143 0.11773
# Poissons Ratio (z) = 0.45752 0.25218
#
# Static dielectric constant tensor:
#      x y z
#    x 1.914760 0.000000 0.046400 
#    y 0.000000 1.832080 0.000000 
#    z 0.046400 0.000000 1.859820 
# 
# From -- ./inp_files/284386.got.cif
#   From: 2010.05.17/outbox.cif.g08.bks.cpg/sg15_143_cif.got.tgz:284386.got - 2010.06.03 18:47:42.
