data_PCOD9298247
_publ_section_title
;
Structure prediction by ZEFSAII (Michael W. Deem and Ramdas Pophale) SiO2 
 PCOD9298247
Probable space group: C 2/C
;
_chemical_formula_sum "Si O2"
_cell_formula_units_Z 56
_cell_length_a 28.164562
_cell_length_b 8.793417
_cell_length_c 12.493158
_cell_angle_alpha 90.000000
_cell_angle_beta 64.031832
_cell_angle_gamma 90.000000
_cell_volume 2781.702547
_symmetry_space_group_name_H-M "C 2/C"
_symmetry_group_IT_number 15
_symmetry_cell_setting 'monoclinic'
loop_
_space_group_symop_operation_xyz
x,y,z
-x,y,1/2-z
-x,-y,-z
x,-y,1/2+z
1/2+x,1/2+y,z
1/2-x,1/2+y,1/2-z
1/2-x,1/2-y,-z
1/2+x,1/2-y,1/2+z
loop_
_atom_site_type_symbol
_atom_site_label
_atom_site_fract_x
_atom_site_fract_y
_atom_site_fract_z
Si Si1 0.757917 0.494512 0.488864
Si Si2 0.022665 0.872932 0.556158
Si Si3 0.577052 0.578127 0.213037
Si Si4 0.073735 0.735371 0.161189
Si Si5 0.979416 0.372092 0.600865
Si Si6 0.815693 0.764579 0.813844
Si Si7 0.687161 0.733053 0.439838
O O1 0.801684 0.400375 0.378300
O O2 0.729233 0.375279 0.594758
O O3 0.715705 0.578381 0.452445
O O4 0.780974 0.626895 0.540471
O O5 0.067860 0.912066 0.595196
O O6 0.970801 0.837961 0.678433
O O7 0.044450 0.742578 0.460713
O O8 0.000000 0.000000 0.500000
O O9 0.569648 0.395180 0.230912
O O10 0.630133 0.656341 0.200205
O O11 0.028822 0.705947 0.115520
O O12 0.062376 0.604730 0.261631
O O13 0.129169 0.747499 0.047734
O O14 0.000000 0.500000 0.500000
O O15 0.814877 0.759920 0.686228
#
# Coordination Sequence:
#
# PCOD9298247 Si02
#       7
#     8   8   8   8   8   8   8
#     4  10  24  44  64 100 129 168 228 284 336 425
#     4  11  20  38  63  88 128 167 214 258 318 389
#     4  11  22  37  65  98 122 168 221 271 310 408
#     4  11  22  41  63  94 130 166 223 263 327 406
#     4  11  24  40  63  92 134 174 207 273 332 393
#     4  11  23  42  69  95 130 170 226 281 345 401
#     4  11  23  42  69  92 135 176 213 285 352 395
#
# _framework density 20.131556
#
# number of rings (size 3 to 8) (size 9 to 14) (size 15 to 20)
#    0.000    1.143    4.286    2.571    0.000    5.714 
#    0.000    1.429    0.000    0.000    0.000    0.000 
#    0.000    0.000    0.000    0.000    0.000    0.000 
#
# Total GULP energy -156051.241992 kJ/mol
# GULP energy per Si atom -5573.258643 kJ/mol
# Density = 2.008574 g / cm^3
# Si number density = 20.131556 Si / 1000 Ang^3
#
#
#
# Elastic Constant Matrix: (Units=GPa)
#
#
# Indices 1 2 3 4 5 6 
#
# 1 101.1856 26.9713 59.0300 0.0000 9.0996 0.0000
# 2 26.9713 71.8825 50.0118 0.0000 12.6532 0.0000
# 3 59.0300 50.0118 156.0719 0.0000 19.2721 0.0000
# 4 0.0000 0.0000 0.0000 31.5758 0.0000 -1.8869
# 5 9.0996 12.6532 19.2721 0.0000 35.5357 0.0000
# 6 0.0000 0.0000 0.0000 -1.8869 0.0000 24.8258
#
#
#
# Elastic Compliance Matrix: (Units=1/GPa)
#
#
# Indices 1 2 3 4 5 6 
#
# 1 0.012874 -0.001816 -0.004244 0.000000 -0.000348 0.000000
# 2 -0.001816 0.018574 -0.004829 0.000000 -0.003530 0.000000
# 3 -0.004244 -0.004829 0.009875 0.000000 -0.002549 0.000000
# 4 0.000000 0.000000 0.000000 0.031814 0.000000 0.002418
# 5 -0.000348 -0.003530 -0.002549 0.000000 0.030869 0.000000
# 6 0.000000 0.000000 0.000000 0.002418 0.000000 0.040464
#
#
# Mechanical properties :
#
#
# Convention : Reuss Voigt Hill
#
# Bulk Modulus (GPa) = 51.16720 66.79624 58.98172
# Shear Modulus (GPa) = 28.94095 31.26258 30.10176
#
# Velocity S-wave (km/s) = 3.79567 3.94498 3.87104
# Velocity P-wave (km/s) = 6.68439 7.34863 7.02437
#
# Compressibility (1/GPa) = 0.01954377
#
# Stress axis : x y z
#
# Youngs Moduli (GPa) = 77.67366 53.83802 101.26767
#
# Poissons Ratio (x) = 0.09779 0.42982
# Poissons Ratio (y) = 0.14109 0.48903
# Poissons Ratio (z) = 0.32967 0.25999
#
# Static dielectric constant tensor:
#      x y z
#    x 1.703910 0.000000 -0.024490 
#    y 0.000000 1.992380 0.000000 
#    z -0.024490 0.000000 1.903950 
# 
# From -- ./inp_files/121885.got.cif
#   From: 2010.05.17/outbox.cif.g08.bks.cpg/sg15_61_cif.got.tgz:121885.got - 2010.06.03 18:47:42.
