data_PCOD9298573
_publ_section_title
;
Structure prediction by ZEFSAII (Michael W. Deem and Ramdas Pophale) SiO2 
 PCOD9298573
Probable space group: C 2/C
;
_chemical_formula_sum "Si O2"
_cell_formula_units_Z 40
_cell_length_a 11.324384
_cell_length_b 21.609024
_cell_length_c 11.535794
_cell_angle_alpha 90.000000
_cell_angle_beta 34.888920
_cell_angle_gamma 90.000000
_cell_volume 1614.669296
_symmetry_space_group_name_H-M "C 2/C"
_symmetry_group_IT_number 15
_symmetry_cell_setting 'monoclinic'
loop_
_space_group_symop_operation_xyz
x,y,z
-x,y,1/2-z
-x,-y,-z
x,-y,1/2+z
1/2+x,1/2+y,z
1/2-x,1/2+y,1/2-z
1/2-x,1/2-y,-z
1/2+x,1/2-y,1/2+z
loop_
_atom_site_type_symbol
_atom_site_label
_atom_site_fract_x
_atom_site_fract_y
_atom_site_fract_z
Si Si1 0.516248 0.611221 0.871645
Si Si2 0.688149 0.334906 0.781244
Si Si3 0.314363 0.982159 0.065594
Si Si4 0.886867 0.304000 0.077145
Si Si5 0.500000 0.580799 0.250000
Si Si6 0.500000 0.128848 0.250000
O O1 0.500000 0.623943 0.750000
O O2 0.621058 0.544810 0.796992
O O3 0.685077 0.659725 0.779251
O O4 0.297099 0.625858 0.109123
O O5 0.636256 0.265854 0.861250
O O6 0.527173 0.374186 0.837592
O O7 0.902682 0.332748 0.541023
O O8 0.204020 0.037719 0.085685
O O9 0.500000 0.000000 0.000000
O O10 0.392924 0.926884 0.921340
O O11 0.929077 0.315957 0.906664
#
# Coordination Sequence:
#
# PCOD9298573 Si02
#       6
#     8   8   8   8   4   4
#     4  11  24  45  74 107 143 198 253 318 375 433
#     4  12  26  46  71 109 150 196 251 311 376 466
#     4  11  25  48  73 112 152 196 252 310 383 462
#     4  11  24  46  70 109 142 194 257 314 379 432
#     4  12  28  46  73 111 152 208 238 300 398 458
#     4  10  24  44  75 105 142 192 252 320 370 434
#
# _framework density 24.772873000000001
#
# number of rings (size 3 to 8) (size 9 to 14) (size 15 to 20)
#    0.000    0.800    3.000    4.800    4.200    3.200 
#    0.000    0.000    0.000    0.000    0.000    0.000 
#    0.000    0.000    0.000    0.000    0.000    0.000 
#
# Total GULP energy -111469.884533 kJ/mol
# GULP energy per Si atom -5573.494227 kJ/mol
# Density = 2.471649 g / cm^3
# Si number density = 24.772873 Si / 1000 Ang^3
#
#
#
# Elastic Constant Matrix: (Units=GPa)
#
#
# Indices 1 2 3 4 5 6 
#
# 1 103.6152 78.7432 16.7805 -0.0002 -17.0426 0.0001
# 2 78.7432 163.3310 43.0815 -0.0001 -13.5002 0.0000
# 3 16.7805 43.0815 110.9492 -0.0003 -26.8893 0.0002
# 4 -0.0002 -0.0001 -0.0003 49.9048 0.0001 -3.4591
# 5 -17.0426 -13.5002 -26.8893 0.0001 28.6117 -0.0001
# 6 0.0001 0.0000 0.0002 -3.4591 -0.0001 47.0255
#
#
#
# Elastic Compliance Matrix: (Units=1/GPa)
#
#
# Indices 1 2 3 4 5 6 
#
# 1 0.016800 -0.008095 0.002722 0.000000 0.008746 0.000000
# 2 -0.008095 0.010741 -0.003738 0.000000 -0.003267 0.000000
# 3 0.002722 -0.003738 0.012973 0.000000 0.012050 0.000000
# 4 0.000000 0.000000 0.000000 0.020141 0.000000 0.001482
# 5 0.008746 -0.003267 0.012050 0.000000 0.049943 0.000000
# 6 0.000000 0.000000 0.000000 0.001482 0.000000 0.021374
#
#
# Mechanical properties :
#
#
# Convention : Reuss Voigt Hill
#
# Bulk Modulus (GPa) = 44.85779 72.78951 58.82365
# Shear Modulus (GPa) = 31.72073 41.06109 36.39091
#
# Velocity S-wave (km/s) = 3.58224 4.07566 3.83689
# Velocity P-wave (km/s) = 5.93775 7.18293 6.58982
#
# Compressibility (1/GPa) = 0.02229267
#
# Stress axis : x y z
#
# Youngs Moduli (GPa) = 59.52257 93.10108 77.08111
#
# Poissons Ratio (x) = 0.75362 -0.20979
# Poissons Ratio (y) = 0.48181 0.28814
# Poissons Ratio (z) = -0.16200 0.34803
#
# Static dielectric constant tensor:
#      x y z
#    x 1.830280 0.000000 -0.024330 
#    y 0.000000 1.945160 0.000000 
#    z -0.024330 0.000000 2.027530 
# 
# From -- ./inp_files/89338.got.cif
#   From: 2010.05.17/outbox.cif.g08.bks.cpg/sg15_45_cif.got.tgz:89338.got - 2010.06.03 18:47:42.
