data_PCOD9298027
_publ_section_title
;
Structure prediction by ZEFSAII (Michael W. Deem and Ramdas Pophale) SiO2 
 PCOD9298027
Probable space group: C 2/C
;
_chemical_formula_sum "Si O2"
_cell_formula_units_Z 48
_cell_length_a 9.323152
_cell_length_b 27.971805
_cell_length_c 12.922115
_cell_angle_alpha 90.000000
_cell_angle_beta 45.339015
_cell_angle_gamma 90.000000
_cell_volume 2396.935816
_symmetry_space_group_name_H-M "C 2/C"
_symmetry_group_IT_number 15
_symmetry_cell_setting 'monoclinic'
loop_
_space_group_symop_operation_xyz
x,y,z
-x,y,1/2-z
-x,-y,-z
x,-y,1/2+z
1/2+x,1/2+y,z
1/2-x,1/2+y,1/2-z
1/2-x,1/2-y,-z
1/2+x,1/2-y,1/2+z
loop_
_atom_site_type_symbol
_atom_site_label
_atom_site_fract_x
_atom_site_fract_y
_atom_site_fract_z
Si Si1 0.301981 0.104098 0.922296
Si Si2 0.630361 0.114831 0.087743
Si Si3 0.771886 0.791580 0.404671
Si Si4 0.918968 0.051507 0.071818
Si Si5 0.865405 0.453216 0.588562
Si Si6 0.418560 0.790959 0.408332
O O1 0.500000 0.098474 0.750000
O O2 0.316698 0.156483 0.965298
O O3 0.295886 0.063861 0.012595
O O4 0.091204 0.092418 0.974578
O O5 0.500000 0.135117 0.250000
O O6 0.751879 0.071371 0.078068
O O7 0.497957 0.089792 0.067481
O O8 0.746511 0.157728 0.975097
O O9 0.750000 0.750000 0.500000
O O10 0.599569 0.787283 0.401479
O O11 0.000000 0.788585 0.250000
O O12 0.814088 0.043757 0.236899
O O13 0.000000 0.000000 0.000000
O O14 0.000000 0.500000 0.500000
O O15 0.500000 0.788106 0.250000
O O16 0.250000 0.750000 0.500000
#
# Coordination Sequence:
#
# PCOD9298027 Si02
#       6
#     8   8   8   8   8   8
#     4  11  24  42  65  96 135 175 229 275 338 407
#     4  10  24  43  65  96 134 173 225 277 338 403
#     4  12  26  45  73 103 136 178 228 281 345 413
#     4  11  24  40  66 100 133 181 227 281 344 404
#     4  11  22  42  66  94 134 175 224 283 340 406
#     4  11  26  46  70 101 138 180 225 282 347 412
#
# _framework density 20.025568
#
# number of rings (size 3 to 8) (size 9 to 14) (size 15 to 20)
#    0.000    1.000    1.667    4.000    7.000    4.000 
#    0.000    0.000    0.000    0.000    0.000    0.000 
#    0.000    0.000    0.000    0.000    0.000    0.000 
#
# Total GULP energy -133973.236637 kJ/mol
# GULP energy per Si atom -5582.218193 kJ/mol
# Density = 1.997999 g / cm^3
# Si number density = 20.025568 Si / 1000 Ang^3
#
#
#
# Elastic Constant Matrix: (Units=GPa)
#
#
# Indices 1 2 3 4 5 6 
#
# 1 79.9070 19.4534 17.7619 0.0000 -2.0591 0.0000
# 2 19.4534 124.7367 70.7885 0.0000 -0.7724 0.0000
# 3 17.7619 70.7885 125.6511 0.0000 -7.2554 0.0000
# 4 0.0000 0.0000 0.0000 42.8988 0.0000 -8.6094
# 5 -2.0591 -0.7724 -7.2554 0.0000 30.8037 0.0000
# 6 0.0000 0.0000 0.0000 -8.6094 0.0000 14.5839
#
#
#
# Elastic Compliance Matrix: (Units=1/GPa)
#
#
# Indices 1 2 3 4 5 6 
#
# 1 0.013110 -0.001483 -0.000982 0.000000 0.000608 0.000000
# 2 -0.001483 0.012003 -0.006631 0.000000 -0.001360 0.000000
# 3 -0.000982 -0.006631 0.011983 0.000000 0.002590 0.000000
# 4 0.000000 0.000000 0.000000 0.026444 0.000000 0.015610
# 5 0.000608 -0.001360 0.002590 0.000000 0.033080 0.000000
# 6 0.000000 0.000000 0.000000 0.015610 0.000000 0.077784
#
#
# Mechanical properties :
#
#
# Convention : Reuss Voigt Hill
#
# Bulk Modulus (GPa) = 52.90453 60.70025 56.80239
# Shear Modulus (GPa) = 25.13864 32.47668 28.80766
#
# Velocity S-wave (km/s) = 3.54690 4.03148 3.79693
# Velocity P-wave (km/s) = 6.57646 7.21440 6.90281
#
# Compressibility (1/GPa) = 0.01890197
#
# Stress axis : x y z
#
# Youngs Moduli (GPa) = 76.27952 83.31327 83.45343
#
# Poissons Ratio (x) = 0.12357 0.08199
# Poissons Ratio (y) = 0.11314 0.55338
# Poissons Ratio (z) = 0.07494 0.55245
#
# Static dielectric constant tensor:
#      x y z
#    x 1.616870 0.000000 0.303860 
#    y 0.000000 3.464840 0.000000 
#    z 0.303860 0.000000 1.332190 
# 
# From -- ./inp_files/138873.got.cif
#   From: 2010.05.17/outbox.cif.g08.bks.cpg/sg15_70_cif.got.tgz:138873.got - 2010.06.03 18:47:42.
