data_PCOD9298572
_publ_section_title
;
Structure prediction by ZEFSAII (Michael W. Deem and Ramdas Pophale) SiO2 
 PCOD9298572
Probable space group: C 2/C
;
_chemical_formula_sum "Si O2"
_cell_formula_units_Z 40
_cell_length_a 18.626647
_cell_length_b 11.296522
_cell_length_c 10.726340
_cell_angle_alpha 90.000000
_cell_angle_beta 44.904941
_cell_angle_gamma 90.000000
_cell_volume 1593.287930
_symmetry_space_group_name_H-M "C 2/C"
_symmetry_group_IT_number 15
_symmetry_cell_setting 'monoclinic'
loop_
_space_group_symop_operation_xyz
x,y,z
-x,y,1/2-z
-x,-y,-z
x,-y,1/2+z
1/2+x,1/2+y,z
1/2-x,1/2+y,1/2-z
1/2-x,1/2-y,-z
1/2+x,1/2-y,1/2+z
loop_
_atom_site_type_symbol
_atom_site_label
_atom_site_fract_x
_atom_site_fract_y
_atom_site_fract_z
Si Si1 0.747921 0.012234 0.822264
Si Si2 0.388055 0.713756 0.740548
Si Si3 0.067085 0.148076 0.340128
Si Si4 0.875964 0.491543 0.776031
Si Si5 0.500000 0.447606 0.250000
Si Si6 0.000000 0.341130 0.250000
O O1 0.800580 0.140034 0.779943
O O2 0.833164 0.908814 0.722558
O O3 0.687150 0.022284 0.768967
O O4 0.679946 0.977629 0.025227
O O5 0.490795 0.703452 0.533183
O O6 0.377115 0.850276 0.777768
O O7 0.405570 0.638887 0.845300
O O8 0.079465 0.242284 0.210624
O O9 0.006287 0.036321 0.356867
O O10 0.982268 0.562764 0.659273
#
# Coordination Sequence:
#
# PCOD9298572 Si02
#       6
#     8   8   8   8   4   4
#     4  11  27  45  77 111 151 191 267 313 384 441
#     4  11  24  43  72 104 151 194 249 315 391 450
#     4  10  24  44  75 104 146 206 247 313 378 476
#     4  12  28  48  73 112 154 203 250 329 378 463
#     4   9  19  38  68 100 133 191 254 290 366 459
#     4  11  27  48  74 100 157 203 254 292 410 451
#
# _framework density 25.105319000000001
#
# number of rings (size 3 to 8) (size 9 to 14) (size 15 to 20)
#    0.000    1.200    0.000    4.800   16.800    5.600 
#    0.000    0.000    0.000    0.000    0.000    0.000 
#    0.000    0.000    0.000    0.000    0.000    0.000 
#
# Total GULP energy -111586.072347 kJ/mol
# GULP energy per Si atom -5579.303617 kJ/mol
# Density = 2.504818 g / cm^3
# Si number density = 25.105319 Si / 1000 Ang^3
#
#
#
# Elastic Constant Matrix: (Units=GPa)
#
#
# Indices 1 2 3 4 5 6 
#
# 1 229.9770 84.6598 49.3835 0.0000 36.5919 0.0000
# 2 84.6598 181.7102 16.0386 0.0000 7.1607 0.0000
# 3 49.3835 16.0386 105.5046 0.0000 4.2540 0.0000
# 4 0.0000 0.0000 0.0000 -16.8467 0.0000 -35.4908
# 5 36.5919 7.1607 4.2540 0.0000 32.4729 0.0000
# 6 0.0000 0.0000 0.0000 -35.4908 0.0000 -6.3539
#
#
#
# Elastic Compliance Matrix: (Units=1/GPa)
#
#
# Indices 1 2 3 4 5 6 
#
# 1 0.007036 -0.002775 -0.002590 0.000000 -0.006977 0.000000
# 2 -0.002775 0.006713 0.000213 0.000000 0.001618 0.000000
# 3 -0.002590 0.000213 0.010599 0.000000 0.001483 0.000000
# 4 0.000000 0.000000 0.000000 0.005513 0.000000 -0.030793
# 5 -0.006977 0.001618 0.001483 0.000000 0.038106 0.000000
# 6 0.000000 0.000000 0.000000 -0.030793 0.000000 0.014617
#
#
# Mechanical properties :
#
#
# Convention : Reuss Voigt Hill
#
# Bulk Modulus (GPa) = 71.20427 90.81730 81.01078
# Shear Modulus (GPa) = 51.24585 26.32845 38.78715
#
# Velocity S-wave (km/s) = 4.52290 3.24191 3.93488
# Velocity P-wave (km/s) = 7.46320 7.08988 7.27893
#
# Compressibility (1/GPa) = 0.01404410
#
# Stress axis : x y z
#
# Youngs Moduli (GPa) = 142.12598 148.95629 94.35297
#
# Poissons Ratio (x) = 0.41328 0.24440
# Poissons Ratio (y) = 0.39433 -0.02009
# Poissons Ratio (z) = 0.36814 -0.03171
#
# Static dielectric constant tensor:
#      x y z
#    x 2.011100 0.000000 -0.013170 
#    y 0.000000 1.983070 0.000000 
#    z -0.013170 0.000000 2.168870 
# 
# From -- ./inp_files/110468.got.cif
#   From: 2010.05.17/outbox.cif.g08.bks.cpg/sg15_56_cif.got.tgz:110468.got - 2010.06.03 18:47:42.
