data_PCOD9298342
_publ_section_title
;
Structure prediction by ZEFSAII (Michael W. Deem and Ramdas Pophale) SiO2 
 PCOD9298342
Probable space group: C 2/C
;
_chemical_formula_sum "Si O2"
_cell_formula_units_Z 44
_cell_length_a 15.033620
_cell_length_b 16.423091
_cell_length_c 11.052600
_cell_angle_alpha 90.000000
_cell_angle_beta 131.696159
_cell_angle_gamma 90.000000
_cell_volume 2037.600575
_symmetry_space_group_name_H-M "C 2/C"
_symmetry_group_IT_number 15
_symmetry_cell_setting 'monoclinic'
loop_
_space_group_symop_operation_xyz
x,y,z
-x,y,1/2-z
-x,-y,-z
x,-y,1/2+z
1/2+x,1/2+y,z
1/2-x,1/2+y,1/2-z
1/2-x,1/2-y,-z
1/2+x,1/2-y,1/2+z
loop_
_atom_site_type_symbol
_atom_site_label
_atom_site_fract_x
_atom_site_fract_y
_atom_site_fract_z
Si Si1 0.347545 0.681032 0.826791
Si Si2 0.193714 0.588797 0.342815
Si Si3 0.663654 0.903411 0.330610
Si Si4 0.584207 0.156071 0.001714
Si Si5 0.750000 0.750000 0.000000
Si Si6 0.027336 0.052107 0.905031
O O1 0.274180 0.620667 0.846319
O O2 0.416260 0.749112 0.964992
O O3 0.264962 0.729377 0.658139
O O4 0.439086 0.629166 0.829656
O O5 0.156399 0.499288 0.351304
O O6 0.134334 0.605822 0.160122
O O7 0.171168 0.664994 0.409315
O O8 0.337837 0.583557 0.466796
O O9 0.668629 0.857327 0.462435
O O10 0.544685 0.875300 0.154531
O O11 0.000000 0.010559 0.750000
O O12 0.000000 0.000000 0.000000
#
# Coordination Sequence:
#
# PCOD9298342 Si02
#       6
#     8   8   8   8   4   8
#     4  11  24  45  70 100 143 189 233 300 346 431
#     4  11  24  45  71 101 142 184 236 292 356 424
#     4  11  24  46  70 101 143 182 243 289 366 427
#     4  10  26  44  68 106 137 191 235 293 361 432
#     4  10  24  44  68 100 138 180 236 288 346 416
#     4  12  26  45  71 107 142 188 244 294 361 426
#
# _framework density 21.594024999999998
#
# number of rings (size 3 to 8) (size 9 to 14) (size 15 to 20)
#    0.000    1.091    3.636    1.091   10.182    0.000 
#    3.273    0.000    0.000    0.000    0.000    0.000 
#    0.000    0.000    0.000    0.000    0.000    0.000 
#
# Total GULP energy -122470.146609 kJ/mol
# GULP energy per Si atom -5566.824846 kJ/mol
# Density = 2.154488 g / cm^3
# Si number density = 21.594025 Si / 1000 Ang^3
#
#
#
# Elastic Constant Matrix: (Units=GPa)
#
#
# Indices 1 2 3 4 5 6 
#
# 1 48.1545 -1.1244 9.3101 0.0000 -0.3962 0.0000
# 2 -1.1244 96.3093 32.9530 0.0000 -13.0463 0.0000
# 3 9.3101 32.9530 71.0755 0.0000 -11.0857 0.0000
# 4 0.0000 0.0000 0.0000 33.6165 0.0000 -3.6142
# 5 -0.3962 -13.0463 -11.0857 0.0000 24.3363 0.0000
# 6 0.0000 0.0000 0.0000 -3.6142 0.0000 11.4765
#
#
#
# Elastic Compliance Matrix: (Units=1/GPa)
#
#
# Indices 1 2 3 4 5 6 
#
# 1 0.021479 0.001392 -0.003539 0.000000 -0.000516 0.000000
# 2 0.001392 0.012867 -0.005456 0.000000 0.004435 0.000000
# 3 -0.003539 -0.005456 0.017867 0.000000 0.005156 0.000000
# 4 0.000000 0.000000 0.000000 0.030790 0.000000 0.009696
# 5 -0.000516 0.004435 0.005156 0.000000 0.045809 0.000000
# 6 0.000000 0.000000 0.000000 0.009696 0.000000 0.090188
#
#
# Mechanical properties :
#
#
# Convention : Reuss Voigt Hill
#
# Bulk Modulus (GPa) = 27.02283 33.09075 30.05679
# Shear Modulus (GPa) = 20.28045 25.51256 22.89651
#
# Velocity S-wave (km/s) = 3.06791 3.44097 3.25978
# Velocity P-wave (km/s) = 5.00906 5.58071 5.30259
#
# Compressibility (1/GPa) = 0.03700575
#
# Stress axis : x y z
#
# Youngs Moduli (GPa) = 46.55704 77.71731 55.96896
#
# Poissons Ratio (x) = -0.10817 0.19809
# Poissons Ratio (y) = -0.06480 0.30538
# Poissons Ratio (z) = 0.16478 0.42404
#
# Static dielectric constant tensor:
#      x y z
#    x 1.814270 0.000000 0.002440 
#    y 0.000000 1.830600 0.000000 
#    z 0.002440 0.000000 1.743420 
# 
# From -- ./inp_files/39733.got.cif
#   From: 2010.05.17/outbox.cif.g08.bks.cpg/sg15_20_cif.got.tgz:39733.got - 2010.06.03 18:47:42.
