data_PCOD9298356
_publ_section_title
;
Structure prediction by ZEFSAII (Michael W. Deem and Ramdas Pophale) SiO2 
 PCOD9298356
Probable space group: C 2/C
;
_chemical_formula_sum "Si O2"
_cell_formula_units_Z 28
_cell_length_a 9.639205
_cell_length_b 12.961951
_cell_length_c 24.048311
_cell_angle_alpha 90.000000
_cell_angle_beta 155.373867
_cell_angle_gamma 90.000000
_cell_volume 1252.030585
_symmetry_space_group_name_H-M "C 2/C"
_symmetry_group_IT_number 15
_symmetry_cell_setting 'monoclinic'
loop_
_space_group_symop_operation_xyz
x,y,z
-x,y,1/2-z
-x,-y,-z
x,-y,1/2+z
1/2+x,1/2+y,z
1/2-x,1/2+y,1/2-z
1/2-x,1/2-y,-z
1/2+x,1/2-y,1/2+z
loop_
_atom_site_type_symbol
_atom_site_label
_atom_site_fract_x
_atom_site_fract_y
_atom_site_fract_z
Si Si1 0.117957 0.506426 0.881872
Si Si2 0.664951 0.274835 0.032678
Si Si3 0.500000 0.130894 0.250000
Si Si4 0.636204 0.926566 0.597238
O O1 0.082020 0.629679 0.864993
O O2 0.868544 0.446781 0.749635
O O3 0.085890 0.449540 0.929181
O O4 0.500000 0.500000 0.000000
O O5 0.675464 0.186173 0.083024
O O6 0.750000 0.250000 0.000000
O O7 0.277192 0.306079 0.883527
O O8 0.000000 0.960001 0.750000
O O9 0.500000 0.000000 0.500000
#
# Coordination Sequence:
#
# PCOD9298356 Si02
#       4
#     8   8   4   8
#     4  10  24  45  70 104 149 191 245 307 376 442
#     4  11  23  45  71 105 143 192 244 304 376 449
#     4  10  24  44  68 102 144 184 242 310 370 440
#     4  12  27  46  75 110 148 198 251 310 382 453
#
# _framework density 22.363669999999999
#
# number of rings (size 3 to 8) (size 9 to 14) (size 15 to 20)
#    0.000    1.143    2.857    1.714    8.000    4.571 
#    0.000    0.000    0.000    0.000    0.000    0.000 
#    0.000    0.000    0.000    0.000    0.000    0.000 
#
# Total GULP energy -77984.277690 kJ/mol
# GULP energy per Si atom -5570.305549 kJ/mol
# Density = 2.231277 g / cm^3
# Si number density = 22.363670 Si / 1000 Ang^3
#
#
#
# Elastic Constant Matrix: (Units=GPa)
#
#
# Indices 1 2 3 4 5 6 
#
# 1 162.5729 45.3818 22.0284 0.0009 -24.4631 -0.0001
# 2 45.3818 104.4241 22.2792 0.0020 -21.0953 0.0003
# 3 22.0284 22.2792 113.2278 0.0092 -16.6161 0.0013
# 4 0.0009 0.0020 0.0092 48.1709 0.0004 -23.9968
# 5 -24.4631 -21.0953 -16.6161 0.0004 42.9802 -0.0002
# 6 -0.0001 0.0003 0.0013 -23.9968 -0.0002 45.5257
#
#
#
# Elastic Compliance Matrix: (Units=1/GPa)
#
#
# Indices 1 2 3 4 5 6 
#
# 1 0.007339 -0.002524 -0.000530 0.000000 0.002733 0.000000
# 2 -0.002524 0.011714 -0.001252 0.000000 0.003829 0.000000
# 3 -0.000530 -0.001252 0.009591 -0.000003 0.002792 -0.000002
# 4 0.000000 0.000000 -0.000003 0.028152 -0.000001 0.014839
# 5 0.002733 0.003829 0.002792 -0.000001 0.027781 -0.000001
# 6 0.000000 0.000000 -0.000002 0.014839 -0.000001 0.029787
#
#
# Mechanical properties :
#
#
# Convention : Reuss Voigt Hill
#
# Bulk Modulus (GPa) = 49.92171 62.17818 56.04994
# Shear Modulus (GPa) = 38.56475 46.70440 42.63458
#
# Velocity S-wave (km/s) = 4.15714 4.57486 4.37100
# Velocity P-wave (km/s) = 6.73896 7.46789 7.11277
#
# Compressibility (1/GPa) = 0.02003137
#
# Stress axis : x y z
#
# Youngs Moduli (GPa) = 136.26226 85.36899 104.26573
#
# Poissons Ratio (x) = 0.21548 0.05526
# Poissons Ratio (y) = 0.34394 0.13054
# Poissons Ratio (z) = 0.07222 0.10688
#
# Static dielectric constant tensor:
#      x y z
#    x 1.853400 0.000000 0.015980 
#    y 0.000000 2.094190 0.000000 
#    z 0.015980 0.000000 1.898000 
# 
# From -- ./inp_files/75437.got.cif
#   From: 2010.05.17/outbox.cif.g08.bks.cpg/sg15_38_cif.got.tgz:75437.got - 2010.06.03 18:47:42.
