data_PCOD9298796
_publ_section_title
;
Structure prediction by ZEFSAII (Michael W. Deem and Ramdas Pophale) SiO2 
 PCOD9298796
Probable space group: C 2/C
;
_chemical_formula_sum "Si O2"
_cell_formula_units_Z 40
_cell_length_a 17.871186
_cell_length_b 18.670110
_cell_length_c 11.522472
_cell_angle_alpha 90.000000
_cell_angle_beta 152.634995
_cell_angle_gamma 90.000000
_cell_volume 1767.177640
_symmetry_space_group_name_H-M "C 2/C"
_symmetry_group_IT_number 15
_symmetry_cell_setting 'monoclinic'
loop_
_space_group_symop_operation_xyz
x,y,z
-x,y,1/2-z
-x,-y,-z
x,-y,1/2+z
1/2+x,1/2+y,z
1/2-x,1/2+y,1/2-z
1/2-x,1/2-y,-z
1/2+x,1/2-y,1/2+z
loop_
_atom_site_type_symbol
_atom_site_label
_atom_site_fract_x
_atom_site_fract_y
_atom_site_fract_z
Si Si1 0.500000 0.136536 0.250000
Si Si2 0.369696 0.787215 0.764662
Si Si3 0.792547 0.030028 0.639898
Si Si4 0.500000 0.443441 0.750000
Si Si5 0.335754 0.885106 0.945226
Si Si6 0.509444 0.644655 0.464179
O O1 0.482299 0.184878 0.111837
O O2 0.651132 0.087013 0.426615
O O3 0.250000 0.750000 0.500000
O O4 0.333030 0.849203 0.811732
O O5 0.418122 0.719469 0.905561
O O6 0.715733 0.969869 0.620207
O O7 0.864004 0.988714 0.628206
O O8 0.943854 0.080241 0.884191
O O9 0.414524 0.389499 0.544735
O O10 0.184513 0.849135 0.804360
O O11 0.500000 0.877441 0.250000
#
# Coordination Sequence:
#
# PCOD9298796 Si02
#       6
#     4   8   8   4   8   8
#     4  12  26  43  73 114 150 194 256 310 380 443
#     4  12  27  48  74 109 156 200 254 312 380 464
#     4  11  25  47  75 114 143 201 253 311 386 438
#     4  10  24  45  75 106 146 196 250 310 366 461
#     4  11  26  48  74 111 152 198 256 318 376 451
#     4  11  26  46  77 107 150 205 252 305 394 441
#
# _framework density 22.634962999999999
#
# number of rings (size 3 to 8) (size 9 to 14) (size 15 to 20)
#    0.000    0.800    3.000    3.600    7.000    5.600 
#    0.000    0.000    0.000    0.000    0.000    0.000 
#    0.000    0.000    0.000    0.000    0.000    0.000 
#
# Total GULP energy -111378.859816 kJ/mol
# GULP energy per Si atom -5568.942991 kJ/mol
# Density = 2.258345 g / cm^3
# Si number density = 22.634963 Si / 1000 Ang^3
#
#
#
# Elastic Constant Matrix: (Units=GPa)
#
#
# Indices 1 2 3 4 5 6 
#
# 1 147.8195 72.2613 24.2455 0.0000 -3.2475 0.0000
# 2 72.2613 132.7794 24.3992 0.0000 2.8295 0.0000
# 3 24.2455 24.3992 111.0183 0.0000 22.4387 0.0000
# 4 0.0000 0.0000 0.0000 23.5356 0.0000 -13.6867
# 5 -3.2475 2.8295 22.4387 0.0000 17.3912 0.0000
# 6 0.0000 0.0000 0.0000 -13.6867 0.0000 65.8557
#
#
#
# Elastic Compliance Matrix: (Units=1/GPa)
#
#
# Indices 1 2 3 4 5 6 
#
# 1 0.009662 -0.004988 -0.002087 0.000000 0.005308 0.000000
# 2 -0.004988 0.010445 -0.000912 0.000000 -0.001454 0.000000
# 3 -0.002087 -0.000912 0.013139 0.000000 -0.017193 0.000000
# 4 0.000000 0.000000 0.000000 0.048330 0.000000 0.010044
# 5 0.005308 -0.001454 -0.017193 0.000000 0.080912 0.000000
# 6 0.000000 0.000000 0.000000 0.010044 0.000000 0.017272
#
#
# Mechanical properties :
#
#
# Convention : Reuss Voigt Hill
#
# Bulk Modulus (GPa) = 57.89939 70.38103 64.14021
# Shear Modulus (GPa) = 24.81501 39.40391 32.10946
#
# Velocity S-wave (km/s) = 3.31465 4.17687 3.77049
# Velocity P-wave (km/s) = 6.34700 7.37720 6.88141
#
# Compressibility (1/GPa) = 0.01727134
#
# Stress axis : x y z
#
# Youngs Moduli (GPa) = 103.49480 95.74394 76.11004
#
# Poissons Ratio (x) = 0.47758 0.15883
# Poissons Ratio (y) = 0.51624 0.06944
# Poissons Ratio (z) = 0.21597 0.08735
#
# Static dielectric constant tensor:
#      x y z
#    x 1.743150 0.000000 0.109110 
#    y 0.000000 1.862330 0.000000 
#    z 0.109110 0.000000 1.738960 
# 
# From -- ./inp_files/106920.got.cif
#   From: 2010.05.17/outbox.cif.g08.bks.cpg/sg15_54_cif.got.tgz:106920.got - 2010.06.03 18:47:42.
