data_PCOD9298524
_publ_section_title
;
Structure prediction by ZEFSAII (Michael W. Deem and Ramdas Pophale) SiO2 
 PCOD9298524
Probable space group: C 2/C
;
_chemical_formula_sum "Si O2"
_cell_formula_units_Z 44
_cell_length_a 14.329335
_cell_length_b 16.707910
_cell_length_c 9.120445
_cell_angle_alpha 90.000000
_cell_angle_beta 70.028050
_cell_angle_gamma 90.000000
_cell_volume 2052.236158
_symmetry_space_group_name_H-M "C 2/C"
_symmetry_group_IT_number 15
_symmetry_cell_setting 'monoclinic'
loop_
_space_group_symop_operation_xyz
x,y,z
-x,y,1/2-z
-x,-y,-z
x,-y,1/2+z
1/2+x,1/2+y,z
1/2-x,1/2+y,1/2-z
1/2-x,1/2-y,-z
1/2+x,1/2-y,1/2+z
loop_
_atom_site_type_symbol
_atom_site_label
_atom_site_fract_x
_atom_site_fract_y
_atom_site_fract_z
Si Si1 0.809347 0.117621 0.502974
Si Si2 0.194674 0.543182 0.059625
Si Si3 0.000000 0.559855 0.750000
Si Si4 0.842335 0.346599 0.185071
Si Si5 0.498489 0.413791 0.076656
Si Si6 0.687560 0.665875 0.333899
O O1 0.712817 0.155936 0.629219
O O2 0.901631 0.129568 0.561848
O O3 0.827806 0.148762 0.330373
O O4 0.779817 0.023981 0.516599
O O5 0.218020 0.613575 0.163586
O O6 0.090364 0.497231 0.146407
O O7 0.199500 0.585113 0.899161
O O8 0.046804 0.620643 0.844721
O O9 0.818021 0.260270 0.133316
O O10 0.500000 0.420900 0.250000
O O11 0.500000 0.500000 0.000000
O O12 0.595564 0.368726 0.972064
#
# Coordination Sequence:
#
# PCOD9298524 Si02
#       6
#     8   8   4   8   8   8
#     4  11  23  43  69  97 138 183 228 273 348 418
#     4  11  23  45  70  97 133 186 232 280 339 420
#     4  10  24  44  72  96 138 184 240 270 350 416
#     4  11  25  44  68 102 138 174 234 291 344 402
#     4  12  25  42  69 100 136 180 228 279 341 423
#     4  12  25  43  70 102 140 174 228 295 349 396
#
# _framework density 21.440028000000002
#
# number of rings (size 3 to 8) (size 9 to 14) (size 15 to 20)
#    0.000    0.727    1.818    6.545    2.545    1.455 
#    4.909    0.000    0.000    0.000    0.000    0.000 
#    0.000    0.000    0.000    0.000    0.000    0.000 
#
# Total GULP energy -122917.459988 kJ/mol
# GULP energy per Si atom -5587.157272 kJ/mol
# Density = 2.139123 g / cm^3
# Si number density = 21.440028 Si / 1000 Ang^3
#
#
#
# Elastic Constant Matrix: (Units=GPa)
#
#
# Indices 1 2 3 4 5 6 
#
# 1 88.9433 5.3578 20.1196 0.0000 -2.0738 0.0000
# 2 5.3578 100.8279 8.1794 0.0000 -15.6660 0.0000
# 3 20.1196 8.1794 122.0548 0.0000 4.8151 0.0000
# 4 0.0000 0.0000 0.0000 19.8620 0.0000 10.9509
# 5 -2.0738 -15.6660 4.8151 0.0000 38.9941 0.0000
# 6 0.0000 0.0000 0.0000 10.9509 0.0000 16.8125
#
#
#
# Elastic Compliance Matrix: (Units=1/GPa)
#
#
# Indices 1 2 3 4 5 6 
#
# 1 0.011719 -0.000354 -0.001937 0.000000 0.000720 0.000000
# 2 -0.000354 0.010684 -0.000830 0.000000 0.004376 0.000000
# 3 -0.001937 -0.000830 0.008627 0.000000 -0.001502 0.000000
# 4 0.000000 0.000000 0.000000 0.078560 0.000000 -0.051171
# 5 0.000720 0.004376 -0.001502 0.000000 0.027627 0.000000
# 6 0.000000 0.000000 0.000000 -0.051171 0.000000 0.092810
#
#
# Mechanical properties :
#
#
# Convention : Reuss Voigt Hill
#
# Bulk Modulus (GPa) = 40.34004 42.12663 41.23333
# Shear Modulus (GPa) = 20.44726 33.67834 27.06280
#
# Velocity S-wave (km/s) = 3.09155 3.96765 3.55668
# Velocity P-wave (km/s) = 5.62136 6.37816 6.01168
#
# Compressibility (1/GPa) = 0.02478927
#
# Stress axis : x y z
#
# Youngs Moduli (GPa) = 85.32955 93.59825 115.91318
#
# Poissons Ratio (x) = 0.03311 0.22447
# Poissons Ratio (y) = 0.03018 0.09624
# Poissons Ratio (z) = 0.16524 0.07771
#
# Static dielectric constant tensor:
#      x y z
#    x 1.836590 0.000000 0.010200 
#    y 0.000000 1.807810 0.000000 
#    z 0.010200 0.000000 1.749470 
# 
# From -- ./inp_files/39087.got.cif
#   From: 2010.05.17/outbox.cif.g08.bks.cpg/sg15_20_cif.got.tgz:39087.got - 2010.06.03 18:47:42.
