data_PCOD9298601
_publ_section_title
;
Structure prediction by ZEFSAII (Michael W. Deem and Ramdas Pophale) SiO2 
 PCOD9298601
Probable space group: C 2/C
;
_chemical_formula_sum "Si O2"
_cell_formula_units_Z 56
_cell_length_a 14.225599
_cell_length_b 17.360918
_cell_length_c 13.090402
_cell_angle_alpha 90.000000
_cell_angle_beta 65.169458
_cell_angle_gamma 90.000000
_cell_volume 2934.057299
_symmetry_space_group_name_H-M "C 2/C"
_symmetry_group_IT_number 15
_symmetry_cell_setting 'monoclinic'
loop_
_space_group_symop_operation_xyz
x,y,z
-x,y,1/2-z
-x,-y,-z
x,-y,1/2+z
1/2+x,1/2+y,z
1/2-x,1/2+y,1/2-z
1/2-x,1/2-y,-z
1/2+x,1/2-y,1/2+z
loop_
_atom_site_type_symbol
_atom_site_label
_atom_site_fract_x
_atom_site_fract_y
_atom_site_fract_z
Si Si1 0.744485 0.058694 0.942961
Si Si2 0.618319 0.310011 0.214220
Si Si3 0.381249 0.725047 0.342311
Si Si4 0.683434 0.680935 0.906206
Si Si5 0.621425 0.495802 0.435752
Si Si6 0.235434 0.918645 0.710822
Si Si7 0.880383 0.639213 0.329865
O O1 0.797772 0.125242 0.851124
O O2 0.720214 0.982340 0.888132
O O3 0.652602 0.092759 0.054110
O O4 0.829607 0.037254 0.989182
O O5 0.500000 0.336461 0.250000
O O6 0.631052 0.289199 0.327138
O O7 0.637502 0.230559 0.145313
O O8 0.500000 0.730680 0.250000
O O9 0.371793 0.715565 0.468680
O O10 0.304472 0.795716 0.350532
O O11 0.322300 0.650795 0.320926
O O12 0.665884 0.590034 0.915935
O O13 0.500000 0.500000 0.500000
O O14 0.651861 0.536391 0.316886
O O15 0.315289 0.888053 0.760091
O O16 0.000000 0.628523 0.250000
#
# Coordination Sequence:
#
# PCOD9298601 Si02
#       7
#     8   8   8   8   8   8   8
#     4  11  23  38  64  94 126 163 213 265 318 379
#     4  11  22  41  66  94 127 163 208 268 323 380
#     4  11  24  42  65  91 131 173 209 260 321 380
#     4  11  22  42  62  93 132 163 218 261 313 390
#     4  11  22  37  63  94 129 163 205 268 320 368
#     4  11  22  39  65  93 126 163 212 267 311 378
#     4  10  24  45  62  89 128 173 214 261 324 383
#
# _framework density 19.086199000000001
#
# number of rings (size 3 to 8) (size 9 to 14) (size 15 to 20)
#    0.000    1.143    4.286    2.143    0.000    1.714 
#    5.143    2.857    0.000    0.000    0.000    0.000 
#    0.000    0.000    0.000    0.000    0.000    0.000 
#
# Total GULP energy -156331.392229 kJ/mol
# GULP energy per Si atom -5583.264008 kJ/mol
# Density = 1.904276 g / cm^3
# Si number density = 19.086199 Si / 1000 Ang^3
#
#
#
# Elastic Constant Matrix: (Units=GPa)
#
#
# Indices 1 2 3 4 5 6 
#
# 1 69.7675 31.9305 41.3772 0.0000 -22.8286 0.0000
# 2 31.9305 103.3841 35.0940 0.0000 -21.8784 0.0000
# 3 41.3772 35.0940 86.0011 0.0000 -6.0292 0.0000
# 4 0.0000 0.0000 0.0000 24.7675 0.0000 3.1836
# 5 -22.8286 -21.8784 -6.0292 0.0000 32.3002 0.0000
# 6 0.0000 0.0000 0.0000 3.1836 0.0000 8.2686
#
#
#
# Elastic Compliance Matrix: (Units=1/GPa)
#
#
# Indices 1 2 3 4 5 6 
#
# 1 0.026815 -0.001009 -0.011357 0.000000 0.016148 0.000000
# 2 -0.001009 0.012985 -0.004303 0.000000 0.007279 0.000000
# 3 -0.011357 -0.004303 0.018321 0.000000 -0.007522 0.000000
# 4 0.000000 0.000000 0.000000 0.042478 0.000000 -0.016355
# 5 0.016148 0.007279 -0.007522 0.000000 0.045899 0.000000
# 6 0.000000 0.000000 0.000000 -0.016355 0.000000 0.127236
#
#
# Mechanical properties :
#
#
# Convention : Reuss Voigt Hill
#
# Bulk Modulus (GPa) = 40.35234 52.88400 46.61817
# Shear Modulus (GPa) = 15.85625 23.11733 19.48679
#
# Velocity S-wave (km/s) = 2.88544 3.48401 3.19876
# Velocity P-wave (km/s) = 5.68234 6.62968 6.17421
#
# Compressibility (1/GPa) = 0.02478171
#
# Stress axis : x y z
#
# Youngs Moduli (GPa) = 37.29288 77.00906 54.58336
#
# Poissons Ratio (x) = 0.07772 0.61992
# Poissons Ratio (y) = 0.03764 0.23487
# Poissons Ratio (z) = 0.42355 0.33137
#
# Static dielectric constant tensor:
#      x y z
#    x 1.635340 0.000000 0.021850 
#    y 0.000000 1.738790 0.000000 
#    z 0.021850 0.000000 1.656410 
# 
# From -- ./inp_files/98677.got.cif
#   From: 2010.05.17/outbox.cif.g08.bks.cpg/sg15_50_cif.got.tgz:98677.got - 2010.06.03 18:47:42.
