data_PCOD9298809
_publ_section_title
;
Structure prediction by ZEFSAII (Michael W. Deem and Ramdas Pophale) SiO2 
 PCOD9298809
Probable space group: C 2/C
;
_chemical_formula_sum "Si O2"
_cell_formula_units_Z 56
_cell_length_a 11.885784
_cell_length_b 20.527261
_cell_length_c 9.819996
_cell_angle_alpha 90.000000
_cell_angle_beta 95.556689
_cell_angle_gamma 90.000000
_cell_volume 2384.649403
_symmetry_space_group_name_H-M "C 2/C"
_symmetry_group_IT_number 15
_symmetry_cell_setting 'monoclinic'
loop_
_space_group_symop_operation_xyz
x,y,z
-x,y,1/2-z
-x,-y,-z
x,-y,1/2+z
1/2+x,1/2+y,z
1/2-x,1/2+y,1/2-z
1/2-x,1/2-y,-z
1/2+x,1/2-y,1/2+z
loop_
_atom_site_type_symbol
_atom_site_label
_atom_site_fract_x
_atom_site_fract_y
_atom_site_fract_z
Si Si1 0.640019 0.294447 0.014806
Si Si2 0.818807 0.056385 0.331270
Si Si3 0.798089 0.057144 0.015163
Si Si4 0.585618 0.878473 0.877891
Si Si5 0.675948 0.736163 0.819624
Si Si6 0.462721 0.060767 0.589744
Si Si7 0.897802 0.196721 0.402905
O O1 0.656961 0.369689 0.981572
O O2 0.625499 0.290414 0.175489
O O3 0.750000 0.250000 0.000000
O O4 0.524068 0.276188 0.926006
O O5 0.697640 0.078237 0.379313
O O6 0.890630 0.123217 0.345104
O O7 0.859081 0.996022 0.427241
O O8 0.799938 0.035688 0.172951
O O9 0.671086 0.065221 0.942711
O O10 0.500000 0.900925 0.750000
O O11 0.620336 0.805664 0.845211
O O12 0.526038 0.881602 0.016508
O O13 0.808612 0.754702 0.821230
O O14 0.651289 0.692522 0.947910
O O15 0.500000 0.056244 0.750000
O O16 0.500000 0.000000 0.500000
#
# Coordination Sequence:
#
# PCOD9298809 Si02
#       7
#     8   8   8   8   8   8   8
#     4  12  27  47  73 108 148 187 250 310 365 438
#     4  11  25  44  71 101 143 192 244 299 365 436
#     4  12  27  44  69 107 145 191 244 304 367 432
#     4  11  20  39  72 100 147 190 235 298 366 428
#     4  10  24  45  77 104 139 196 243 294 362 441
#     4  12  24  40  65 106 145 189 241 301 362 432
#     4  10  24  47  73 103 141 192 242 296 366 436
#
# _framework density 23.483536000000001
#
# number of rings (size 3 to 8) (size 9 to 14) (size 15 to 20)
#    0.000    0.857    2.857    4.286    4.000    5.143 
#    0.000    0.000    0.000    0.000    0.000    0.000 
#    0.000    0.000    0.000    0.000    0.000    0.000 
#
# Total GULP energy -156790.019936 kJ/mol
# GULP energy per Si atom -5599.643569 kJ/mol
# Density = 2.343009 g / cm^3
# Si number density = 23.483536 Si / 1000 Ang^3
#
#
#
# Elastic Constant Matrix: (Units=GPa)
#
#
# Indices 1 2 3 4 5 6 
#
# 1 132.0911 23.5793 29.3684 0.0000 21.9568 0.0000
# 2 23.5793 85.8014 33.7796 0.0000 -0.5544 0.0000
# 3 29.3684 33.7796 166.6073 0.0000 12.0790 0.0000
# 4 0.0000 0.0000 0.0000 38.2774 0.0000 -2.7290
# 5 21.9568 -0.5544 12.0790 0.0000 29.6309 0.0000
# 6 0.0000 0.0000 0.0000 -2.7290 0.0000 16.0612
#
#
#
# Elastic Compliance Matrix: (Units=1/GPa)
#
#
# Indices 1 2 3 4 5 6 
#
# 1 0.009233 -0.002312 -0.000680 0.000000 -0.006608 0.000000
# 2 -0.002312 0.013296 -0.002504 0.000000 0.002983 0.000000
# 3 -0.000680 -0.002504 0.006797 0.000000 -0.002314 0.000000
# 4 0.000000 0.000000 0.000000 0.026445 0.000000 0.004493
# 5 -0.006608 0.002983 -0.002314 0.000000 0.039644 0.000000
# 6 0.000000 0.000000 0.000000 0.004493 0.000000 0.063025
#
#
# Mechanical properties :
#
#
# Convention : Reuss Voigt Hill
#
# Bulk Modulus (GPa) = 54.54615 61.99496 58.27056
# Shear Modulus (GPa) = 28.48279 36.64539 32.56409
#
# Velocity S-wave (km/s) = 3.48643 3.95457 3.72785
# Velocity P-wave (km/s) = 6.28369 6.87809 6.58759
#
# Compressibility (1/GPa) = 0.01833310
#
# Stress axis : x y z
#
# Youngs Moduli (GPa) = 108.30955 75.21330 147.11363
#
# Poissons Ratio (x) = 0.17393 0.09998
# Poissons Ratio (y) = 0.25046 0.36842
# Poissons Ratio (z) = 0.07361 0.18836
#
# Static dielectric constant tensor:
#      x y z
#    x 1.934220 0.000000 -0.022800 
#    y 0.000000 1.931820 0.000000 
#    z -0.022800 0.000000 1.874540 
# 
# From -- ./inp_files/49698.got.cif
#   From: 2010.05.17/outbox.cif.g08.bks.cpg/sg15_25_cif.got.tgz:49698.got - 2010.06.03 18:47:42.
