data_PCOD9298086
_publ_section_title
;
Structure prediction by ZEFSAII (Michael W. Deem and Ramdas Pophale) SiO2 
 PCOD9298086
Probable space group: C 2/C
;
_chemical_formula_sum "Si O2"
_cell_formula_units_Z 56
_cell_length_a 19.640566
_cell_length_b 19.196044
_cell_length_c 14.347184
_cell_angle_alpha 90.000000
_cell_angle_beta 152.133805
_cell_angle_gamma 90.000000
_cell_volume 2528.301296
_symmetry_space_group_name_H-M "C 2/C"
_symmetry_group_IT_number 15
_symmetry_cell_setting 'monoclinic'
loop_
_space_group_symop_operation_xyz
x,y,z
-x,y,1/2-z
-x,-y,-z
x,-y,1/2+z
1/2+x,1/2+y,z
1/2-x,1/2+y,1/2-z
1/2-x,1/2-y,-z
1/2+x,1/2-y,1/2+z
loop_
_atom_site_type_symbol
_atom_site_label
_atom_site_fract_x
_atom_site_fract_y
_atom_site_fract_z
Si Si1 0.565978 0.196999 0.432956
Si Si2 0.172791 0.316288 0.452562
Si Si3 0.355074 0.431532 0.132994
Si Si4 0.143505 0.416499 0.586072
Si Si5 0.735143 0.826448 0.857811
Si Si6 0.770072 0.934108 0.226311
Si Si7 0.798169 0.558372 0.649778
O O1 0.500000 0.188314 0.250000
O O2 0.426511 0.203402 0.329968
O O3 0.660294 0.266544 0.551115
O O4 0.658821 0.129329 0.572973
O O5 0.250000 0.250000 0.500000
O O6 0.190905 0.353361 0.575325
O O7 0.222094 0.377051 0.442613
O O8 0.000000 0.301820 0.250000
O O9 0.500000 0.444593 0.250000
O O10 0.384051 0.428819 0.278961
O O11 0.294749 0.356251 0.027521
O O12 0.240691 0.490124 0.958398
O O13 0.216183 0.393912 0.770344
O O14 0.201652 0.490483 0.624211
O O15 0.969728 0.431426 0.384245
O O16 0.796058 0.935368 0.369115
#
# Coordination Sequence:
#
# PCOD9298086 Si02
#       7
#     8   8   8   8   8   8   8
#     4  12  26  43  71 104 144 194 233 290 362 428
#     4  10  24  43  68 100 139 182 235 291 351 421
#     4  12  27  45  68 102 148 186 237 302 358 429
#     4  11  23  44  74 103 135 183 242 300 348 426
#     4  12  26  45  68 105 147 186 238 290 356 434
#     4  12  24  43  73 104 133 187 240 293 365 417
#     4  11  23  45  71 102 136 182 243 292 358 428
#
# _framework density 22.149259000000001
#
# number of rings (size 3 to 8) (size 9 to 14) (size 15 to 20)
#    0.000    0.571    5.714    2.143    4.000    1.143 
#    0.000    0.000    0.000    0.000    0.000    0.000 
#    0.000    0.000    0.000    0.000    0.000    0.000 
#
# Total GULP energy -156259.097321 kJ/mol
# GULP energy per Si atom -5580.682047 kJ/mol
# Density = 2.209885 g / cm^3
# Si number density = 22.149259 Si / 1000 Ang^3
#
#
#
# Elastic Constant Matrix: (Units=GPa)
#
#
# Indices 1 2 3 4 5 6 
#
# 1 139.5975 10.1023 14.9308 0.0000 7.3594 0.0000
# 2 10.1023 120.0256 18.4239 0.0000 19.9994 0.0000
# 3 14.9308 18.4239 12.3630 0.0000 5.3740 0.0000
# 4 0.0000 0.0000 0.0000 17.3508 0.0000 -1.5896
# 5 7.3594 19.9994 5.3740 0.0000 22.3584 0.0000
# 6 0.0000 0.0000 0.0000 -1.5896 0.0000 40.0829
#
#
#
# Elastic Compliance Matrix: (Units=1/GPa)
#
#
# Indices 1 2 3 4 5 6 
#
# 1 0.008358 0.001240 -0.011461 0.000000 -0.001105 0.000000
# 2 0.001240 0.011895 -0.016104 0.000000 -0.007177 0.000000
# 3 -0.011461 -0.016104 0.123757 0.000000 -0.011568 0.000000
# 4 0.000000 0.000000 0.000000 0.057844 0.000000 0.002294
# 5 -0.001105 -0.007177 -0.011568 0.000000 0.054291 0.000000
# 6 0.000000 0.000000 0.000000 0.002294 0.000000 0.025039
#
#
# Mechanical properties :
#
#
# Convention : Reuss Voigt Hill
#
# Bulk Modulus (GPa) = 10.94590 39.87780 25.41185
# Shear Modulus (GPa) = 13.72541 31.19369 22.45955
#
# Velocity S-wave (km/s) = 2.49203 3.75686 3.18781
# Velocity P-wave (km/s) = 3.63771 6.07140 5.00474
#
# Compressibility (1/GPa) = 0.09135841
#
# Stress axis : x y z
#
# Youngs Moduli (GPa) = 119.64815 84.06786 8.08038
#
# Poissons Ratio (x) = -0.10425 0.09261
# Poissons Ratio (y) = -0.14837 0.13013
# Poissons Ratio (z) = 1.37132 1.35386
#
# Static dielectric constant tensor:
#      x y z
#    x 1.887300 0.000000 0.005300 
#    y 0.000000 1.831280 0.000000 
#    z 0.005300 0.000000 1.809730 
# 
# From -- ./inp_files/163820.got.cif
#   From: 2010.05.17/outbox.cif.g08.bks.cpg/sg15_82_cif.got.tgz:163820.got - 2010.06.03 18:47:42.
