data_PCOD9298754
_publ_section_title
;
Structure prediction by ZEFSAII (Michael W. Deem and Ramdas Pophale) SiO2 
 PCOD9298754
Probable space group: C 2/C
;
_chemical_formula_sum "Si O2"
_cell_formula_units_Z 40
_cell_length_a 20.357238
_cell_length_b 8.603489
_cell_length_c 9.022040
_cell_angle_alpha 90.000000
_cell_angle_beta 94.097204
_cell_angle_gamma 90.000000
_cell_volume 1576.111182
_symmetry_space_group_name_H-M "C 2/C"
_symmetry_group_IT_number 15
_symmetry_cell_setting 'monoclinic'
loop_
_space_group_symop_operation_xyz
x,y,z
-x,y,1/2-z
-x,-y,-z
x,-y,1/2+z
1/2+x,1/2+y,z
1/2-x,1/2+y,1/2-z
1/2-x,1/2-y,-z
1/2+x,1/2-y,1/2+z
loop_
_atom_site_type_symbol
_atom_site_label
_atom_site_fract_x
_atom_site_fract_y
_atom_site_fract_z
Si Si1 0.417144 0.189030 0.346882
Si Si2 0.208200 0.309525 0.153365
Si Si3 0.342046 0.509066 0.720444
Si Si4 0.860233 0.502720 0.095930
Si Si5 0.034030 0.865668 0.912968
O O1 0.390373 0.359087 0.297398
O O2 0.418787 0.079563 0.203854
O O3 0.474525 0.222796 0.474274
O O4 0.369041 0.107095 0.455705
O O5 0.280079 0.388789 0.159354
O O6 0.177461 0.401111 0.289229
O O7 0.190679 0.129485 0.186256
O O8 0.175162 0.355974 0.992703
O O9 0.391345 0.419200 0.615633
O O10 0.000000 0.835353 0.750000
O O11 0.000000 0.000000 0.000000
#
# Coordination Sequence:
#
# PCOD9298754 Si02
#       5
#     8   8   8   8   8
#     4  11  25  48  78 111 153 207 262 324 382 475
#     4  11  25  41  75 118 160 202 250 328 392 482
#     4  12  27  46  81 116 160 203 265 317 406 463
#     4  10  24  45  72 116 162 199 247 319 409 464
#     4  12  27  50  81 110 152 212 271 317 375 466
#
# _framework density 25.378919
#
# number of rings (size 3 to 8) (size 9 to 14) (size 15 to 20)
#    0.000    0.800    4.000    2.400    5.600    3.200 
#    0.000    1.000    0.000    0.000    0.000    0.000 
#    0.000    0.000    0.000    0.000    0.000    0.000 
#
# Total GULP energy -111499.206722 kJ/mol
# GULP energy per Si atom -5574.960336 kJ/mol
# Density = 2.532116 g / cm^3
# Si number density = 25.378919 Si / 1000 Ang^3
#
#
#
# Elastic Constant Matrix: (Units=GPa)
#
#
# Indices 1 2 3 4 5 6 
#
# 1 61.3706 10.0181 15.5036 0.0000 -27.6725 0.0000
# 2 10.0181 129.2333 30.3659 0.0000 -26.1839 0.0000
# 3 15.5036 30.3659 119.2956 0.0000 -8.8687 0.0000
# 4 0.0000 0.0000 0.0000 53.2386 0.0000 5.8810
# 5 -27.6725 -26.1839 -8.8687 0.0000 34.6253 0.0000
# 6 0.0000 0.0000 0.0000 5.8810 0.0000 25.6750
#
#
#
# Elastic Compliance Matrix: (Units=1/GPa)
#
#
# Indices 1 2 3 4 5 6 
#
# 1 0.026932 0.003245 -0.002593 0.000000 0.023314 0.000000
# 2 0.003245 0.009947 -0.002244 0.000000 0.009540 0.000000
# 3 -0.002593 -0.002244 0.009185 0.000000 -0.001417 0.000000
# 4 0.000000 0.000000 0.000000 0.019271 0.000000 -0.004414
# 5 0.023314 0.009540 -0.001417 0.000000 0.054365 0.000000
# 6 0.000000 0.000000 0.000000 -0.004414 0.000000 0.039960
#
#
# Mechanical properties :
#
#
# Convention : Reuss Voigt Hill
#
# Bulk Modulus (GPa) = 23.32081 46.85277 35.08679
# Shear Modulus (GPa) = 28.22668 39.64190 33.93429
#
# Velocity S-wave (km/s) = 3.33860 3.95650 3.66061
# Velocity P-wave (km/s) = 4.90619 6.27481 5.63223
#
# Compressibility (1/GPa) = 0.04288015
#
# Stress axis : x y z
#
# Youngs Moduli (GPa) = 37.13022 100.53571 108.86752
#
# Poissons Ratio (x) = -0.32625 0.28228
# Poissons Ratio (y) = -0.12049 0.24434
# Poissons Ratio (z) = 0.09628 0.22564
#
# Static dielectric constant tensor:
#      x y z
#    x 1.987530 0.000000 0.112150 
#    y 0.000000 2.403260 0.000000 
#    z 0.112150 0.000000 1.949070 
# 
# From -- ./inp_files/60021.got.cif
#   From: 2010.05.17/outbox.cif.g08.bks.cpg/sg15_31_cif.got.tgz:60021.got - 2010.06.03 18:47:42.
