data_PCOD9298061
_publ_section_title
;
Structure prediction by ZEFSAII (Michael W. Deem and Ramdas Pophale) SiO2 
 PCOD9298061
Probable space group: C 2/C
;
_chemical_formula_sum "Si O2"
_cell_formula_units_Z 36
_cell_length_a 5.271330
_cell_length_b 8.561430
_cell_length_c 30.051969
_cell_angle_alpha 90.000000
_cell_angle_beta 103.792531
_cell_angle_gamma 90.000000
_cell_volume 1317.142107
_symmetry_space_group_name_H-M "C 2/C"
_symmetry_group_IT_number 15
_symmetry_cell_setting 'monoclinic'
loop_
_space_group_symop_operation_xyz
x,y,z
-x,y,1/2-z
-x,-y,-z
x,-y,1/2+z
1/2+x,1/2+y,z
1/2-x,1/2+y,1/2-z
1/2-x,1/2-y,-z
1/2+x,1/2-y,1/2+z
loop_
_atom_site_type_symbol
_atom_site_label
_atom_site_fract_x
_atom_site_fract_y
_atom_site_fract_z
Si Si1 0.859786 0.113947 0.074725
Si Si2 0.088615 0.371766 0.024316
Si Si3 0.500000 0.642441 0.250000
Si Si4 0.091979 0.253305 0.887376
Si Si5 0.295410 0.344869 0.206009
O O1 0.669309 0.162275 0.107657
O O2 0.898113 0.289928 0.051002
O O3 0.175943 0.117698 0.098700
O O4 0.647025 0.063585 0.023838
O O5 0.341176 0.395710 0.076381
O O6 0.250000 0.250000 0.000000
O O7 0.283897 0.520928 0.222603
O O8 0.543045 0.750767 0.209170
O O9 0.109477 0.181210 0.839437
O O10 0.500000 0.275418 0.250000
#
# Coordination Sequence:
#
# PCOD9298061 Si02
#       5
#     8   8   4   8   8
#     4  10  25  40  67  95 139 173 231 278 346 411
#     4  10  24  43  67 100 136 182 228 285 345 415
#     4  10  26  44  66 104 132 186 232 296 354 430
#     4  10  26  43  69 100 135 182 227 289 349 421
#     4  10  26  42  71  96 141 180 236 290 359 425
#
# _framework density 27.331906
#
# number of rings (size 3 to 8) (size 9 to 14) (size 15 to 20)
#    2.000    0.000    0.000    0.667   10.889    1.778 
#    0.000    0.000    0.000    0.000    0.000    0.000 
#    0.000    0.000    0.000    0.000    0.000    0.000 
#
# Total GULP energy -100417.379281 kJ/mol
# GULP energy per Si atom -5578.743293 kJ/mol
# Density = 2.726970 g / cm^3
# Si number density = 27.331906 Si / 1000 Ang^3
#
#
#
# Elastic Constant Matrix: (Units=GPa)
#
#
# Indices 1 2 3 4 5 6 
#
# 1 167.3464 85.7931 37.9592 0.0000 -28.6158 0.0000
# 2 85.7931 191.3806 43.3262 0.0000 -21.9967 0.0000
# 3 37.9592 43.3262 176.8095 0.0000 -31.6746 0.0000
# 4 0.0000 0.0000 0.0000 22.3416 0.0000 -13.4898
# 5 -28.6158 -21.9967 -31.6746 0.0000 51.7420 0.0000
# 6 0.0000 0.0000 0.0000 -13.4898 0.0000 32.0267
#
#
#
# Elastic Compliance Matrix: (Units=1/GPa)
#
#
# Indices 1 2 3 4 5 6 
#
# 1 0.008245 -0.003261 -0.000452 0.000000 0.002897 0.000000
# 2 -0.003261 0.006960 -0.000897 0.000000 0.000606 0.000000
# 3 -0.000452 -0.000897 0.006581 0.000000 0.003398 0.000000
# 4 0.000000 0.000000 0.000000 0.060025 0.000000 0.025283
# 5 0.002897 0.000606 0.003398 0.000000 0.023266 0.000000
# 6 0.000000 0.000000 0.000000 0.025283 0.000000 0.041873
#
#
# Mechanical properties :
#
#
# Convention : Reuss Voigt Hill
#
# Bulk Modulus (GPa) = 79.57516 96.63260 88.10388
# Shear Modulus (GPa) = 31.17983 45.78593 38.48288
#
# Velocity S-wave (km/s) = 3.38121 4.09734 3.75638
# Velocity P-wave (km/s) = 6.66491 7.60370 7.14973
#
# Compressibility (1/GPa) = 0.01256674
#
# Stress axis : x y z
#
# Youngs Moduli (GPa) = 121.28060 143.68402 151.94640
#
# Poissons Ratio (x) = 0.46854 0.06870
# Poissons Ratio (y) = 0.39549 0.13625
# Poissons Ratio (z) = 0.05483 0.12885
#
# Static dielectric constant tensor:
#      x y z
#    x 3.517420 0.000000 0.398830 
#    y 0.000000 2.199820 0.000000 
#    z 0.398830 0.000000 2.301510 
# 
# From -- ./inp_files/304738.got.cif
#   From: 2010.05.17/outbox.cif.g08.bks.cpg/sg15_153_cif.got.tgz:304738.got - 2010.06.03 18:47:42.
