data_PCOD9298422
_publ_section_title
;
Structure prediction by ZEFSAII (Michael W. Deem and Ramdas Pophale) SiO2 
 PCOD9298422
Probable space group: C 2/C
;
_chemical_formula_sum "Si O2"
_cell_formula_units_Z 32
_cell_length_a 13.860808
_cell_length_b 10.702093
_cell_length_c 10.075840
_cell_angle_alpha 90.000000
_cell_angle_beta 116.666742
_cell_angle_gamma 90.000000
_cell_volume 1335.664143
_symmetry_space_group_name_H-M "C 2/C"
_symmetry_group_IT_number 15
_symmetry_cell_setting 'monoclinic'
loop_
_space_group_symop_operation_xyz
x,y,z
-x,y,1/2-z
-x,-y,-z
x,-y,1/2+z
1/2+x,1/2+y,z
1/2-x,1/2+y,1/2-z
1/2-x,1/2-y,-z
1/2+x,1/2-y,1/2+z
loop_
_atom_site_type_symbol
_atom_site_label
_atom_site_fract_x
_atom_site_fract_y
_atom_site_fract_z
Si Si1 0.714933 0.117152 0.041928
Si Si2 0.973804 0.318578 0.378490
Si Si3 0.250123 0.037175 0.701168
Si Si4 0.024945 0.883645 0.111406
O O1 0.762108 0.082824 0.213213
O O2 0.750000 0.250000 0.000000
O O3 0.585751 0.107508 0.968708
O O4 0.756464 0.016245 0.960216
O O5 0.967074 0.229944 0.501221
O O6 0.000000 0.253916 0.250000
O O7 0.866725 0.400080 0.296827
O O8 0.154289 0.131334 0.679630
O O9 0.000000 0.900303 0.250000
O O10 0.000000 0.000000 0.000000
#
# Coordination Sequence:
#
# PCOD9298422 Si02
#       4
#     8   8   8   8
#     4  11  23  46  72 103 141 184 234 293 360 422
#     4  10  24  44  69  99 139 187 229 292 354 421
#     4  11  25  44  70 100 139 186 236 290 356 421
#     4  12  26  40  66 101 139 186 240 291 352 425
#
# _framework density 23.958117999999999
#
# number of rings (size 3 to 8) (size 9 to 14) (size 15 to 20)
#    0.000    1.000    2.500    3.000    7.000    3.000 
#    0.000    0.000    0.000    0.000    0.000    0.000 
#    0.000    0.000    0.000    0.000    0.000    0.000 
#
# Total GULP energy -89436.482121 kJ/mol
# GULP energy per Si atom -5589.780133 kJ/mol
# Density = 2.390359 g / cm^3
# Si number density = 23.958118 Si / 1000 Ang^3
#
#
#
# Elastic Constant Matrix: (Units=GPa)
#
#
# Indices 1 2 3 4 5 6 
#
# 1 123.3563 9.5063 35.2406 0.0000 -2.1711 0.0000
# 2 9.5063 55.3659 46.4364 0.0000 -21.1516 0.0000
# 3 35.2406 46.4364 159.0824 0.0000 -40.4385 0.0000
# 4 0.0000 0.0000 0.0000 49.1314 0.0000 -1.1449
# 5 -2.1711 -21.1516 -40.4385 0.0000 53.9023 0.0000
# 6 0.0000 0.0000 0.0000 -1.1449 0.0000 20.9485
#
#
#
# Elastic Compliance Matrix: (Units=1/GPa)
#
#
# Indices 1 2 3 4 5 6 
#
# 1 0.008735 -0.000148 -0.002245 0.000000 -0.001391 0.000000
# 2 -0.000148 0.025123 -0.005926 0.000000 0.005406 0.000000
# 3 -0.002245 -0.005926 0.009761 0.000000 0.004907 0.000000
# 4 0.000000 0.000000 0.000000 0.020380 0.000000 0.001114
# 5 -0.001391 0.005406 0.004907 0.000000 0.024299 0.000000
# 6 0.000000 0.000000 0.000000 0.001114 0.000000 0.047797
#
#
# Mechanical properties :
#
#
# Convention : Reuss Voigt Hill
#
# Bulk Modulus (GPa) = 37.06533 57.79679 47.43106
# Shear Modulus (GPa) = 30.91646 41.23786 36.07716
#
# Velocity S-wave (km/s) = 3.59616 4.15329 3.88473
# Velocity P-wave (km/s) = 5.72256 6.86850 6.32155
#
# Compressibility (1/GPa) = 0.02697939
#
# Stress axis : x y z
#
# Youngs Moduli (GPa) = 114.48231 39.80412 102.45238
#
# Poissons Ratio (x) = 0.00589 0.23004
# Poissons Ratio (y) = 0.01693 0.60717
# Poissons Ratio (z) = 0.25705 0.23590
#
# Static dielectric constant tensor:
#      x y z
#    x 1.927690 0.000000 0.002220 
#    y 0.000000 1.962500 0.000000 
#    z 0.002220 0.000000 1.962920 
# 
# From -- ./inp_files/36751.got.cif
#   From: 2010.05.17/outbox.cif.g08.bks.cpg/sg15_19_cif.got.tgz:36751.got - 2010.06.03 18:47:42.
