data_PCOD9298614
_publ_section_title
;
Structure prediction by ZEFSAII (Michael W. Deem and Ramdas Pophale) SiO2 
 PCOD9298614
Probable space group: C 2/C
;
_chemical_formula_sum "Si O2"
_cell_formula_units_Z 56
_cell_length_a 18.384225
_cell_length_b 23.615212
_cell_length_c 8.784149
_cell_angle_alpha 90.000000
_cell_angle_beta 140.928108
_cell_angle_gamma 90.000000
_cell_volume 2403.702668
_symmetry_space_group_name_H-M "C 2/C"
_symmetry_group_IT_number 15
_symmetry_cell_setting 'monoclinic'
loop_
_space_group_symop_operation_xyz
x,y,z
-x,y,1/2-z
-x,-y,-z
x,-y,1/2+z
1/2+x,1/2+y,z
1/2-x,1/2+y,1/2-z
1/2-x,1/2-y,-z
1/2+x,1/2-y,1/2+z
loop_
_atom_site_type_symbol
_atom_site_label
_atom_site_fract_x
_atom_site_fract_y
_atom_site_fract_z
Si Si1 0.999076 0.715160 0.071809
Si Si2 0.757233 0.714971 0.664580
Si Si3 0.406663 0.453397 0.388654
Si Si4 0.580204 0.330588 0.090212
Si Si5 0.763033 0.324743 0.662984
Si Si6 0.257617 0.006094 0.613776
Si Si7 0.364764 0.077303 0.519920
O O1 0.003268 0.774936 0.988679
O O2 0.111512 0.680648 0.210683
O O3 0.000000 0.728914 0.250000
O O4 0.879102 0.683361 0.850346
O O5 0.750000 0.750000 0.500000
O O6 0.653090 0.677143 0.553742
O O7 0.761707 0.764195 0.800213
O O8 0.500000 0.500000 0.500000
O O9 0.469724 0.393039 0.491205
O O10 0.339520 0.466323 0.435567
O O11 0.307996 0.460231 0.099196
O O12 0.668255 0.331760 0.377814
O O13 0.782526 0.372157 0.823583
O O14 0.317318 0.051290 0.599959
O O15 0.347266 0.972816 0.866804
O O16 0.500000 0.093717 0.750000
#
# Coordination Sequence:
#
# PCOD9298614 Si02
#       7
#     8   8   8   8   8   8   8
#     4  11  21  41  68  94 132 180 226 273 342 424
#     4  11  25  42  64 100 140 173 226 289 335 412
#     4  11  24  44  67  97 134 178 234 282 347 418
#     4  11  23  43  67  96 135 183 225 275 349 415
#     4  11  23  41  66  99 130 174 227 274 345 416
#     4  10  24  45  65  93 133 174 224 293 340 409
#     4  11  24  43  69  97 131 174 228 285 350 413
#
# _framework density 23.29739
#
# number of rings (size 3 to 8) (size 9 to 14) (size 15 to 20)
#    0.000    1.143    4.286    1.714    4.000    5.143 
#    2.571    0.714    0.000    0.000    0.000    0.000 
#    0.000    0.000    0.000    0.000    0.000    0.000 
#
# Total GULP energy -156612.370431 kJ/mol
# GULP energy per Si atom -5593.298944 kJ/mol
# Density = 2.324436 g / cm^3
# Si number density = 23.297390 Si / 1000 Ang^3
#
#
#
# Elastic Constant Matrix: (Units=GPa)
#
#
# Indices 1 2 3 4 5 6 
#
# 1 98.2376 4.3282 18.9731 0.0000 -7.6945 0.0000
# 2 4.3282 85.0415 -7.6990 0.0000 -8.5585 0.0000
# 3 18.9731 -7.6990 62.3160 0.0000 -4.6142 0.0000
# 4 0.0000 0.0000 0.0000 31.6827 0.0000 -2.3389
# 5 -7.6945 -8.5585 -4.6142 0.0000 29.5547 0.0000
# 6 0.0000 0.0000 0.0000 -2.3389 0.0000 20.5000
#
#
#
# Elastic Compliance Matrix: (Units=1/GPa)
#
#
# Indices 1 2 3 4 5 6 
#
# 1 0.011009 -0.000638 -0.003270 0.000000 0.002171 0.000000
# 2 -0.000638 0.012346 0.001995 0.000000 0.003721 0.000000
# 3 -0.003270 0.001995 0.017471 0.000000 0.002454 0.000000
# 4 0.000000 0.000000 0.000000 0.031831 0.000000 0.003632
# 5 0.002171 0.003721 0.002454 0.000000 0.035861 0.000000
# 6 0.000000 0.000000 0.000000 0.003632 0.000000 0.049195
#
#
# Mechanical properties :
#
#
# Convention : Reuss Voigt Hill
#
# Bulk Modulus (GPa) = 27.02619 30.75553 28.89086
# Shear Modulus (GPa) = 28.75663 31.68033 30.21848
#
# Velocity S-wave (km/s) = 3.51711 3.69158 3.60540
# Velocity P-wave (km/s) = 5.30275 5.60359 5.45525
#
# Compressibility (1/GPa) = 0.03700115
#
# Stress axis : x y z
#
# Youngs Moduli (GPa) = 90.83400 80.99464 57.23762
#
# Poissons Ratio (x) = 0.05166 0.18716
# Poissons Ratio (y) = 0.05794 -0.11419
# Poissons Ratio (z) = 0.29702 -0.16159
#
# Static dielectric constant tensor:
#      x y z
#    x 1.877700 0.000000 0.033690 
#    y 0.000000 1.892980 0.000000 
#    z 0.033690 0.000000 1.987710 
# 
# From -- ./inp_files/42757.got.cif
#   From: 2010.05.17/outbox.cif.g08.bks.cpg/sg15_22_cif.got.tgz:42757.got - 2010.06.03 18:47:42.
