data_PCOD9298147
_publ_section_title
;
Structure prediction by ZEFSAII (Michael W. Deem and Ramdas Pophale) SiO2 
 PCOD9298147
Probable space group: C 2/C
;
_chemical_formula_sum "Si O2"
_cell_formula_units_Z 48
_cell_length_a 10.336167
_cell_length_b 11.714915
_cell_length_c 18.144839
_cell_angle_alpha 90.000000
_cell_angle_beta 73.808675
_cell_angle_gamma 90.000000
_cell_volume 2109.963536
_symmetry_space_group_name_H-M "C 2/C"
_symmetry_group_IT_number 15
_symmetry_cell_setting 'monoclinic'
loop_
_space_group_symop_operation_xyz
x,y,z
-x,y,1/2-z
-x,-y,-z
x,-y,1/2+z
1/2+x,1/2+y,z
1/2-x,1/2+y,1/2-z
1/2-x,1/2-y,-z
1/2+x,1/2-y,1/2+z
loop_
_atom_site_type_symbol
_atom_site_label
_atom_site_fract_x
_atom_site_fract_y
_atom_site_fract_z
Si Si1 0.234769 0.921736 0.645374
Si Si2 0.885982 0.678924 0.827811
Si Si3 0.526701 0.988160 0.581858
Si Si4 0.788514 0.159566 0.082819
Si Si5 0.357393 0.476228 0.188355
Si Si6 0.373315 0.626810 0.910609
O O1 0.187253 0.794758 0.638848
O O2 0.156315 0.976637 0.727160
O O3 0.392941 0.930393 0.636430
O O4 0.197487 0.003702 0.583541
O O5 0.777141 0.593845 0.809064
O O6 0.000000 0.704574 0.750000
O O7 0.950521 0.611425 0.885570
O O8 0.500000 0.000000 0.500000
O O9 0.655874 0.911998 0.580297
O O10 0.860987 0.087735 0.134724
O O11 0.726541 0.282731 0.112922
O O12 0.879227 0.166388 0.994736
O O13 0.482026 0.393533 0.149087
#
# Coordination Sequence:
#
# PCOD9298147 Si02
#       6
#     8   8   8   8   8   8
#     4  12  25  42  71 100 134 179 225 285 345 408
#     4  11  24  44  68 100 134 179 229 284 345 410
#     4  11  23  47  68  98 135 179 231 281 343 408
#     4  10  24  43  70  95 135 182 219 281 340 407
#     4  11  24  43  67  99 137 175 230 280 340 412
#     4  11  23  44  64 100 135 174 227 272 345 410
#
# _framework density 22.749206999999998
#
# number of rings (size 3 to 8) (size 9 to 14) (size 15 to 20)
#    0.000    1.000    3.333    3.000    2.333    2.000 
#    6.000    0.000    0.000    0.000    0.000    0.000 
#    0.000    0.000    0.000    0.000    0.000    0.000 
#
# Total GULP energy -134371.496919 kJ/mol
# GULP energy per Si atom -5598.812372 kJ/mol
# Density = 2.269743 g / cm^3
# Si number density = 22.749207 Si / 1000 Ang^3
#
#
#
# Elastic Constant Matrix: (Units=GPa)
#
#
# Indices 1 2 3 4 5 6 
#
# 1 70.6877 20.7449 31.7390 0.0000 -9.8888 0.0000
# 2 20.7449 147.3087 26.3991 0.0000 7.8456 0.0000
# 3 31.7390 26.3991 85.3374 0.0000 -14.0048 0.0000
# 4 0.0000 0.0000 0.0000 11.3567 0.0000 -2.0703
# 5 -9.8888 7.8456 -14.0048 0.0000 35.3254 0.0000
# 6 0.0000 0.0000 0.0000 -2.0703 0.0000 37.1042
#
#
#
# Elastic Compliance Matrix: (Units=1/GPa)
#
#
# Indices 1 2 3 4 5 6 
#
# 1 0.017534 -0.001648 -0.005504 0.000000 0.003092 0.000000
# 2 -0.001648 0.007581 -0.002230 0.000000 -0.003029 0.000000
# 3 -0.005504 -0.002230 0.015277 0.000000 0.005011 0.000000
# 4 0.000000 0.000000 0.000000 0.088959 0.000000 0.004964
# 5 0.003092 -0.003029 0.005011 0.000000 0.031833 0.000000
# 6 0.000000 0.000000 0.000000 0.004964 0.000000 0.027228
#
#
# Mechanical properties :
#
#
# Convention : Reuss Voigt Hill
#
# Bulk Modulus (GPa) = 46.23161 51.23330 48.73245
# Shear Modulus (GPa) = 23.32241 31.72064 27.52153
#
# Velocity S-wave (km/s) = 3.20534 3.73817 3.48196
# Velocity P-wave (km/s) = 5.83656 6.41885 6.13462
#
# Compressibility (1/GPa) = 0.02163022
#
# Stress axis : x y z
#
# Youngs Moduli (GPa) = 57.03123 131.90234 65.45583
#
# Poissons Ratio (x) = 0.21732 0.36029
# Poissons Ratio (y) = 0.09396 0.14594
# Poissons Ratio (z) = 0.31392 0.29409
#
# Static dielectric constant tensor:
#      x y z
#    x 1.898260 0.000000 -0.026110 
#    y 0.000000 1.839030 0.000000 
#    z -0.026110 0.000000 1.836090 
# 
# From -- ./inp_files/236832.got.cif
#   From: 2010.05.17/outbox.cif.g08.bks.cpg/sg15_119_cif.got.tgz:236832.got - 2010.06.03 18:47:42.
