data_PCOD9298382
_publ_section_title
;
Structure prediction by ZEFSAII (Michael W. Deem and Ramdas Pophale) SiO2 
 PCOD9298382
Probable space group: C 2/C
;
_chemical_formula_sum "Si O2"
_cell_formula_units_Z 64
_cell_length_a 11.717347
_cell_length_b 26.756307
_cell_length_c 15.152609
_cell_angle_alpha 90.000000
_cell_angle_beta 38.177838
_cell_angle_gamma 90.000000
_cell_volume 2936.328899
_symmetry_space_group_name_H-M "C 2/C"
_symmetry_group_IT_number 15
_symmetry_cell_setting 'monoclinic'
loop_
_space_group_symop_operation_xyz
x,y,z
-x,y,1/2-z
-x,-y,-z
x,-y,1/2+z
1/2+x,1/2+y,z
1/2-x,1/2+y,1/2-z
1/2-x,1/2-y,-z
1/2+x,1/2-y,1/2+z
loop_
_atom_site_type_symbol
_atom_site_label
_atom_site_fract_x
_atom_site_fract_y
_atom_site_fract_z
Si Si1 0.294178 0.273344 0.351900
Si Si2 0.807319 0.115702 0.915587
Si Si3 0.961825 0.859993 0.922868
Si Si4 0.720587 0.834989 0.897871
Si Si5 0.239003 0.499621 0.750887
Si Si6 0.406565 0.271208 0.087010
Si Si7 0.995457 0.428599 0.494364
Si Si8 0.577418 0.563366 0.490352
O O1 0.500000 0.254332 0.250000
O O2 0.267279 0.327039 0.414615
O O3 0.296889 0.278597 0.244205
O O4 0.120873 0.239177 0.480234
O O5 0.844455 0.106730 0.995590
O O6 0.000000 0.104437 0.750000
O O7 0.651684 0.077881 0.974636
O O8 0.835720 0.851853 0.913491
O O9 0.163769 0.847283 0.761128
O O10 0.896648 0.819335 0.032586
O O11 0.974835 0.912105 0.967830
O O12 0.666654 0.777241 0.921957
O O13 0.550257 0.872336 0.002599
O O14 0.180660 0.458955 0.860832
O O15 0.434514 0.529033 0.632185
O O16 0.257093 0.469711 0.648987
O O17 0.083216 0.541122 0.860368
#
# Coordination Sequence:
#
# PCOD9298382 Si02
#       8
#     8   8   8   8   8   8   8   8
#     4  11  24  40  67 102 139 181 220 279 343 407
#     4  11  22  42  72  95 139 184 216 280 358 400
#     4  11  24  45  70  97 138 185 228 279 342 408
#     4  11  24  45  69 100 137 184 225 284 346 400
#     4  10  24  44  68  98 134 174 233 280 341 409
#     4  12  23  45  69 102 142 173 239 275 338 420
#     4  11  22  47  67 102 137 175 231 284 347 409
#     4  11  23  47  68 103 136 180 234 282 347 412
#
# _framework density 21.795922999999998
#
# number of rings (size 3 to 8) (size 9 to 14) (size 15 to 20)
#    0.000    1.000    5.000    2.250    0.000    0.500 
#   13.500    1.250    0.000    0.000    0.000    0.000 
#    0.000    0.000    0.000    0.000    0.000    0.000 
#
# Total GULP energy -178682.493540 kJ/mol
# GULP energy per Si atom -5583.827923 kJ/mol
# Density = 2.174631 g / cm^3
# Si number density = 21.795923 Si / 1000 Ang^3
#
#
#
# Elastic Constant Matrix: (Units=GPa)
#
#
# Indices 1 2 3 4 5 6 
#
# 1 61.5601 18.4544 11.1828 0.0000 9.7179 0.0000
# 2 18.4544 73.3673 28.1854 0.0000 8.9704 0.0000
# 3 11.1828 28.1854 108.1888 0.0000 13.8715 0.0000
# 4 0.0000 0.0000 0.0000 34.5199 0.0000 3.4780
# 5 9.7179 8.9704 13.8715 0.0000 29.2444 0.0000
# 6 0.0000 0.0000 0.0000 3.4780 0.0000 13.5784
#
#
#
# Elastic Compliance Matrix: (Units=1/GPa)
#
#
# Indices 1 2 3 4 5 6 
#
# 1 0.018208 -0.003902 -0.000259 0.000000 -0.004731 0.000000
# 2 -0.003902 0.016226 -0.003569 0.000000 -0.001988 0.000000
# 3 -0.000259 -0.003569 0.010699 0.000000 -0.003894 0.000000
# 4 0.000000 0.000000 0.000000 0.029736 0.000000 -0.007617
# 5 -0.004731 -0.001988 -0.003894 0.000000 0.038223 0.000000
# 6 0.000000 0.000000 0.000000 -0.007617 0.000000 0.075597
#
#
# Mechanical properties :
#
#
# Convention : Reuss Voigt Hill
#
# Bulk Modulus (GPa) = 33.70108 39.86236 36.78172
# Shear Modulus (GPa) = 23.36015 27.82146 25.59081
#
# Velocity S-wave (km/s) = 3.27734 3.57662 3.43025
# Velocity P-wave (km/s) = 5.46049 5.94852 5.70972
#
# Compressibility (1/GPa) = 0.02967264
#
# Stress axis : x y z
#
# Youngs Moduli (GPa) = 54.92139 61.63090 93.46732
#
# Poissons Ratio (x) = 0.24048 0.02420
# Poissons Ratio (y) = 0.21430 0.33358
# Poissons Ratio (z) = 0.01422 0.21996
#
# Static dielectric constant tensor:
#      x y z
#    x 1.823720 0.000000 -0.019820 
#    y 0.000000 1.813260 0.000000 
#    z -0.019820 0.000000 1.782400 
# 
# From -- ./inp_files/148752.got.cif
#   From: 2010.05.17/outbox.cif.g08.bks.cpg/sg15_75_cif.got.tgz:148752.got - 2010.06.03 18:47:42.
