data_PCOD9298315
_publ_section_title
;
Structure prediction by ZEFSAII (Michael W. Deem and Ramdas Pophale) SiO2 
 PCOD9298315
Probable space group: C 2/C
;
_chemical_formula_sum "Si O2"
_cell_formula_units_Z 56
_cell_length_a 30.104591
_cell_length_b 11.299884
_cell_length_c 8.729413
_cell_angle_alpha 90.000000
_cell_angle_beta 118.353194
_cell_angle_gamma 90.000000
_cell_volume 2613.320067
_symmetry_space_group_name_H-M "C 2/C"
_symmetry_group_IT_number 15
_symmetry_cell_setting 'monoclinic'
loop_
_space_group_symop_operation_xyz
x,y,z
-x,y,1/2-z
-x,-y,-z
x,-y,1/2+z
1/2+x,1/2+y,z
1/2-x,1/2+y,1/2-z
1/2-x,1/2-y,-z
1/2+x,1/2-y,1/2+z
loop_
_atom_site_type_symbol
_atom_site_label
_atom_site_fract_x
_atom_site_fract_y
_atom_site_fract_z
Si Si1 0.550178 0.924026 0.581061
Si Si2 0.042139 0.099763 0.067898
Si Si3 0.710069 0.949909 0.053510
Si Si4 0.284747 0.453994 0.935101
Si Si5 0.348847 0.380331 0.763965
Si Si6 0.000000 0.727670 0.250000
Si Si7 0.000000 0.734005 0.750000
Si Si8 0.855918 0.393494 0.278074
O O1 0.541052 0.846841 0.719479
O O2 0.539828 0.841981 0.415832
O O3 0.500000 0.000000 0.500000
O O4 0.597092 0.014130 0.651084
O O5 0.098288 0.050215 0.150952
O O6 0.033002 0.181011 0.199209
O O7 0.031690 0.188249 0.911855
O O8 0.000000 0.000000 0.000000
O O9 0.666330 0.893009 0.085130
O O10 0.747833 0.994122 0.246086
O O11 0.747309 0.887219 0.992148
O O12 0.683715 0.052361 0.909452
O O13 0.324632 0.385672 0.894245
O O14 0.312426 0.556146 0.080533
O O15 0.362264 0.244249 0.747701
#
# Coordination Sequence:
#
# PCOD9298315 Si02
#       8
#     8   8   8   8   8   4   4   8
#     4  11  24  40  65  99 142 170 218 263 337 407
#     4  11  25  43  68 100 136 180 231 266 321 401
#     4   9  22  43  69 101 132 169 221 293 332 412
#     4   9  22  47  65  95 135 172 229 285 341 399
#     4  11  25  42  72  96 132 185 221 278 342 396
#     4  10  24  44  66  94 150 177 209 284 334 382
#     4  10  24  44  66  94 146 179 205 282 334 378
#     4  11  24  41  73 101 132 178 225 275 341 412
#
# _framework density 21.42868
#
# number of rings (size 3 to 8) (size 9 to 14) (size 15 to 20)
#    0.000    1.714    0.000    2.571   12.000    5.714 
#    0.000    4.286    0.000    0.000    0.000    0.000 
#    0.000    0.000    0.000    0.000    0.000    0.000 
#
# Total GULP energy -156127.240360 kJ/mol
# GULP energy per Si atom -5575.972870 kJ/mol
# Density = 2.137991 g / cm^3
# Si number density = 21.428680 Si / 1000 Ang^3
#
#
#
# Elastic Constant Matrix: (Units=GPa)
#
#
# Indices 1 2 3 4 5 6 
#
# 1 136.4855 59.2259 86.3935 0.0000 12.7156 0.0000
# 2 59.2259 115.6598 47.3551 0.0000 -4.2284 0.0000
# 3 86.3935 47.3551 104.6923 0.0000 -19.3976 0.0000
# 4 0.0000 0.0000 0.0000 43.3066 0.0000 -20.8136
# 5 12.7156 -4.2284 -19.3976 0.0000 35.4680 0.0000
# 6 0.0000 0.0000 0.0000 -20.8136 0.0000 5.7534
#
#
#
# Elastic Compliance Matrix: (Units=1/GPa)
#
#
# Indices 1 2 3 4 5 6 
#
# 1 0.027355 -0.004692 -0.024895 0.000000 -0.023981 0.000000
# 2 -0.004692 0.011489 -0.000846 0.000000 0.002589 0.000000
# 3 -0.024895 -0.000846 0.035734 0.000000 0.028367 0.000000
# 4 0.000000 0.000000 0.000000 -0.031261 0.000000 -0.113091
# 5 -0.023981 0.002589 0.028367 0.000000 0.052615 0.000000
# 6 0.000000 0.000000 0.000000 -0.113091 0.000000 -0.235306
#
#
# Mechanical properties :
#
#
# Convention : Reuss Voigt Hill
#
# Bulk Modulus (GPa) = 72.91860 82.53184 77.72522
# Shear Modulus (GPa) = -67.62364 27.82981 -19.89691
#
# Velocity S-wave (km/s) = -5.62370 3.60768 -3.05047
# Velocity P-wave (km/s) = 2.84001 7.48011 4.89318
#
# Compressibility (1/GPa) = 0.01371392
#
# Stress axis : x y z
#
# Youngs Moduli (GPa) = 36.55643 87.03709 27.98466
#
# Poissons Ratio (x) = 0.40834 0.69668
# Poissons Ratio (y) = 0.17151 0.02367
# Poissons Ratio (z) = 0.91007 0.07361
#
# Static dielectric constant tensor:
#      x y z
#    x 1.821840 0.000000 0.015190 
#    y 0.000000 0.788550 0.000000 
#    z 0.015190 0.000000 1.722160 
# 
# From -- ./inp_files/69480.got.cif
#   From: 2010.05.17/outbox.cif.g08.bks.cpg/sg15_35_cif.got.tgz:69480.got - 2010.06.03 18:47:42.
