data_PCOD9298451
_publ_section_title
;
Structure prediction by ZEFSAII (Michael W. Deem and Ramdas Pophale) SiO2 
 PCOD9298451
Probable space group: C 2/C
;
_chemical_formula_sum "Si O2"
_cell_formula_units_Z 36
_cell_length_a 8.691958
_cell_length_b 20.008112
_cell_length_c 13.937096
_cell_angle_alpha 90.000000
_cell_angle_beta 134.837346
_cell_angle_gamma 90.000000
_cell_volume 1718.740953
_symmetry_space_group_name_H-M "C 2/C"
_symmetry_group_IT_number 15
_symmetry_cell_setting 'monoclinic'
loop_
_space_group_symop_operation_xyz
x,y,z
-x,y,1/2-z
-x,-y,-z
x,-y,1/2+z
1/2+x,1/2+y,z
1/2-x,1/2+y,1/2-z
1/2-x,1/2-y,-z
1/2+x,1/2-y,1/2+z
loop_
_atom_site_type_symbol
_atom_site_label
_atom_site_fract_x
_atom_site_fract_y
_atom_site_fract_z
Si Si1 0.268797 0.738340 0.621775
Si Si2 0.104430 0.478694 0.648594
Si Si3 0.500000 0.091022 0.750000
Si Si4 0.660741 0.177857 0.980840
Si Si5 0.500000 0.592702 0.250000
Si Si6 0.000000 0.631784 0.250000
O O1 0.500000 0.705965 0.750000
O O2 0.250000 0.750000 0.500000
O O3 0.301674 0.814852 0.677012
O O4 0.075291 0.693573 0.577560
O O5 0.351316 0.454471 0.749399
O O6 0.000000 0.500000 0.500000
O O7 0.099605 0.542743 0.714428
O O8 0.982207 0.417608 0.650670
O O9 0.345505 0.138553 0.621654
O O10 0.821154 0.137846 0.119757
O O11 0.750000 0.250000 0.000000
#
# Coordination Sequence:
#
# PCOD9298451 Si02
#       6
#     8   8   4   8   4   4
#     4  10  24  44  70 109 147 192 234 298 372 437
#     4  11  23  49  70 104 144 192 247 307 358 435
#     4  11  27  46  72 104 147 195 254 288 378 443
#     4  12  26  45  72 110 150 190 245 302 376 443
#     4  12  25  46  78 100 151 192 246 316 364 434
#     4   9  22  44  76 102 146 187 240 298 368 431
#
# _framework density 20.945564000000001
#
# number of rings (size 3 to 8) (size 9 to 14) (size 15 to 20)
#    0.667    0.444    2.222    3.333    6.222    0.889 
#    6.000    0.000    0.000    0.000    0.000    0.000 
#    0.000    0.000    0.000    0.000    0.000    0.000 
#
# Total GULP energy -100420.414621 kJ/mol
# GULP energy per Si atom -5578.911923 kJ/mol
# Density = 2.089789 g / cm^3
# Si number density = 20.945564 Si / 1000 Ang^3
#
#
#
# Elastic Constant Matrix: (Units=GPa)
#
#
# Indices 1 2 3 4 5 6 
#
# 1 92.3324 42.7426 64.0661 -0.0001 1.7318 -0.0001
# 2 42.7426 142.8383 57.2855 0.0000 -9.4398 0.0000
# 3 64.0661 57.2855 147.6895 -0.0003 -6.8415 -0.0003
# 4 -0.0001 0.0000 -0.0003 38.4729 -0.0001 -11.2523
# 5 1.7318 -9.4398 -6.8415 -0.0001 42.4285 -0.0001
# 6 -0.0001 0.0000 -0.0003 -11.2523 -0.0001 74.9600
#
#
#
# Elastic Compliance Matrix: (Units=1/GPa)
#
#
# Indices 1 2 3 4 5 6 
#
# 1 0.016365 -0.002553 -0.006212 0.000000 -0.002238 0.000000
# 2 -0.002553 0.008765 -0.002213 0.000000 0.001697 0.000000
# 3 -0.006212 -0.002213 0.010391 0.000000 0.001437 0.000000
# 4 0.000000 0.000000 0.000000 0.027186 0.000000 0.004081
# 5 -0.002238 0.001697 0.001437 0.000000 0.024270 0.000000
# 6 0.000000 0.000000 0.000000 0.004081 0.000000 0.013953
#
#
# Mechanical properties :
#
#
# Convention : Reuss Voigt Hill
#
# Bulk Modulus (GPa) = 73.73270 79.00541 76.36905
# Shear Modulus (GPa) = 39.24405 45.75668 42.50037
#
# Velocity S-wave (km/s) = 4.33323 4.67899 4.50943
# Velocity P-wave (km/s) = 7.76623 8.18486 7.97829
#
# Compressibility (1/GPa) = 0.01356250
#
# Stress axis : x y z
#
# Youngs Moduli (GPa) = 61.10671 114.09164 96.23914
#
# Poissons Ratio (x) = 0.29133 0.59785
# Poissons Ratio (y) = 0.15604 0.21302
# Poissons Ratio (z) = 0.37960 0.25253
#
# Static dielectric constant tensor:
#      x y z
#    x 1.819960 0.000000 -0.001860 
#    y 0.000000 1.954600 0.000000 
#    z -0.001860 0.000000 1.743350 
# 
# From -- ./inp_files/137045.got.cif
#   From: 2010.05.17/outbox.cif.g08.bks.cpg/sg15_69_cif.got.tgz:137045.got - 2010.06.03 18:47:42.
