data_PCOD9298506
_publ_section_title
;
Structure prediction by ZEFSAII (Michael W. Deem and Ramdas Pophale) SiO2 
 PCOD9298506
Probable space group: C 2/C
;
_chemical_formula_sum "Si O2"
_cell_formula_units_Z 48
_cell_length_a 21.557217
_cell_length_b 14.474292
_cell_length_c 11.082443
_cell_angle_alpha 90.000000
_cell_angle_beta 146.155461
_cell_angle_gamma 90.000000
_cell_volume 1925.905810
_symmetry_space_group_name_H-M "C 2/C"
_symmetry_group_IT_number 15
_symmetry_cell_setting 'monoclinic'
loop_
_space_group_symop_operation_xyz
x,y,z
-x,y,1/2-z
-x,-y,-z
x,-y,1/2+z
1/2+x,1/2+y,z
1/2-x,1/2+y,1/2-z
1/2-x,1/2-y,-z
1/2+x,1/2-y,1/2+z
loop_
_atom_site_type_symbol
_atom_site_label
_atom_site_fract_x
_atom_site_fract_y
_atom_site_fract_z
Si Si1 0.910587 0.577552 0.382184
Si Si2 0.983225 0.144740 0.849327
Si Si3 0.789920 0.930982 0.780055
Si Si4 0.934386 0.730748 0.802211
Si Si5 0.760945 0.785520 0.339913
Si Si6 0.251825 0.897558 0.430344
O O1 0.799113 0.538571 0.263492
O O2 0.000000 0.500000 0.500000
O O3 0.972497 0.652928 0.564784
O O4 0.864315 0.623707 0.184688
O O5 0.854362 0.123057 0.657811
O O6 0.000000 0.198198 0.750000
O O7 0.076346 0.063082 0.986963
O O8 0.014576 0.196742 0.021862
O O9 0.767536 0.822036 0.730953
O O10 0.755794 0.994177 0.613071
O O11 0.832610 0.684453 0.714207
O O12 0.121918 0.782440 0.900753
O O13 0.758003 0.841716 0.211065
#
# Coordination Sequence:
#
# PCOD9298506 Si02
#       6
#     8   8   8   8   8   8
#     4  12  26  43  71 110 149 189 243 305 373 442
#     4  11  24  46  71 103 144 196 248 307 364 439
#     4  11  25  45  70 103 149 189 245 308 361 436
#     4  10  24  44  72 104 150 190 243 302 365 436
#     4  10  24  47  72 107 148 197 244 297 370 444
#     4  12  26  45  76 109 145 200 248 300 375 444
#
# _framework density 24.923337
#
# number of rings (size 3 to 8) (size 9 to 14) (size 15 to 20)
#    0.000    1.000    1.667    3.500    4.667   10.000 
#    3.000    0.000    0.000    0.000    0.000    0.000 
#    0.000    0.000    0.000    0.000    0.000    0.000 
#
# Total GULP energy -134278.912297 kJ/mol
# GULP energy per Si atom -5594.954679 kJ/mol
# Density = 2.486661 g / cm^3
# Si number density = 24.923337 Si / 1000 Ang^3
#
#
#
# Elastic Constant Matrix: (Units=GPa)
#
#
# Indices 1 2 3 4 5 6 
#
# 1 114.9016 32.6647 53.1978 0.0000 -1.4691 0.0000
# 2 32.6647 70.8955 34.3517 0.0000 -0.2980 0.0000
# 3 53.1978 34.3517 190.0261 0.0000 -10.6874 0.0000
# 4 0.0000 0.0000 0.0000 31.3896 0.0000 -7.9207
# 5 -1.4691 -0.2980 -10.6874 0.0000 52.4851 0.0000
# 6 0.0000 0.0000 0.0000 -7.9207 0.0000 37.2861
#
#
#
# Elastic Compliance Matrix: (Units=1/GPa)
#
#
# Indices 1 2 3 4 5 6 
#
# 1 0.010896 -0.003877 -0.002360 0.000000 -0.000198 0.000000
# 2 -0.003877 0.016851 -0.001984 0.000000 -0.000417 0.000000
# 3 -0.002360 -0.001984 0.006350 0.000000 0.001216 0.000000
# 4 0.000000 0.000000 0.000000 0.033662 0.000000 0.007151
# 5 -0.000198 -0.000417 0.001216 0.000000 0.019293 0.000000
# 6 0.000000 0.000000 0.000000 0.007151 0.000000 0.028339
#
#
# Mechanical properties :
#
#
# Convention : Reuss Voigt Hill
#
# Bulk Modulus (GPa) = 56.64621 68.47241 62.55931
# Shear Modulus (GPa) = 36.30573 41.27275 38.78924
#
# Velocity S-wave (km/s) = 3.82081 4.07380 3.94933
# Velocity P-wave (km/s) = 6.49941 7.04703 6.77875
#
# Compressibility (1/GPa) = 0.01765343
#
# Stress axis : x y z
#
# Youngs Moduli (GPa) = 91.77961 59.34224 157.47207
#
# Poissons Ratio (x) = 0.23008 0.37171
# Poissons Ratio (y) = 0.35585 0.31247
# Poissons Ratio (z) = 0.21664 0.11775
#
# Static dielectric constant tensor:
#      x y z
#    x 2.034860 0.000000 0.006630 
#    y 0.000000 1.966280 0.000000 
#    z 0.006630 0.000000 2.022250 
# 
# From -- ./inp_files/173712.got.cif
#   From: 2010.05.17/outbox.cif.g08.bks.cpg/sg15_87_cif.got.tgz:173712.got - 2010.06.03 18:47:42.
