data_PCOD9298391
_publ_section_title
;
Structure prediction by ZEFSAII (Michael W. Deem and Ramdas Pophale) SiO2 
 PCOD9298391
Probable space group: C 2/C
;
_chemical_formula_sum "Si O2"
_cell_formula_units_Z 32
_cell_length_a 15.732730
_cell_length_b 4.780717
_cell_length_c 16.166768
_cell_angle_alpha 90.000000
_cell_angle_beta 77.238177
_cell_angle_gamma 90.000000
_cell_volume 1185.924694
_symmetry_space_group_name_H-M "C 2/C"
_symmetry_group_IT_number 15
_symmetry_cell_setting 'monoclinic'
loop_
_space_group_symop_operation_xyz
x,y,z
-x,y,1/2-z
-x,-y,-z
x,-y,1/2+z
1/2+x,1/2+y,z
1/2-x,1/2+y,1/2-z
1/2-x,1/2-y,-z
1/2+x,1/2-y,1/2+z
loop_
_atom_site_type_symbol
_atom_site_label
_atom_site_fract_x
_atom_site_fract_y
_atom_site_fract_z
Si Si1 0.258263 0.362556 0.191002
Si Si2 0.126797 0.712711 0.103346
Si Si3 0.489532 0.744454 0.343218
Si Si4 0.899070 0.973861 0.553882
O O1 0.225292 0.070176 0.234783
O O2 0.191939 0.548115 0.149505
O O3 0.339058 0.297911 0.111900
O O4 0.064374 0.458757 0.089917
O O5 0.064974 0.956082 0.155067
O O6 0.154949 0.853903 0.011263
O O7 0.500000 0.867680 0.250000
O O8 0.580344 0.709564 0.369461
O O9 0.000000 0.000000 0.500000
#
# Coordination Sequence:
#
# PCOD9298391 Si02
#       4
#     8   8   8   8
#     4  12  26  45  68  97 132 174 220 269 324 387
#     4  11  23  41  64  94 130 172 216 268 323 385
#     4  11  22  40  65  96 130 170 216 268 325 386
#     4  10  24  44  68  99 133 172 217 269 326 388
#
# _framework density 26.983162
#
# number of rings (size 3 to 8) (size 9 to 14) (size 15 to 20)
#    0.000    1.000    0.000    6.750    0.000   10.000 
#    0.000    8.750    0.000    0.000    0.000    0.000 
#    0.000    0.000    0.000    0.000    0.000    0.000 
#
# Total GULP energy -89284.679807 kJ/mol
# GULP energy per Si atom -5580.292488 kJ/mol
# Density = 2.692175 g / cm^3
# Si number density = 26.983162 Si / 1000 Ang^3
#
#
#
# Elastic Constant Matrix: (Units=GPa)
#
#
# Indices 1 2 3 4 5 6 
#
# 1 75.7577 8.8903 18.1968 0.0000 -3.6564 0.0000
# 2 8.8903 114.2707 -7.3471 0.0000 -12.0663 0.0000
# 3 18.1968 -7.3471 89.9607 0.0000 -4.7370 0.0000
# 4 0.0000 0.0000 0.0000 25.1921 0.0000 1.7882
# 5 -3.6564 -12.0663 -4.7370 0.0000 57.2850 0.0000
# 6 0.0000 0.0000 0.0000 1.7882 0.0000 34.5476
#
#
#
# Elastic Compliance Matrix: (Units=1/GPa)
#
#
# Indices 1 2 3 4 5 6 
#
# 1 0.014067 -0.001241 -0.002926 0.000000 0.000395 0.000000
# 2 -0.001241 0.009122 0.001098 0.000000 0.001933 0.000000
# 3 -0.002926 0.001098 0.011851 0.000000 0.001025 0.000000
# 4 0.000000 0.000000 0.000000 0.039841 0.000000 -0.002062
# 5 0.000395 0.001933 0.001025 0.000000 0.017974 0.000000
# 6 0.000000 0.000000 0.000000 -0.002062 0.000000 0.029052
#
#
# Mechanical properties :
#
#
# Convention : Reuss Voigt Hill
#
# Bulk Modulus (GPa) = 34.59851 35.49657 35.04754
# Shear Modulus (GPa) = 36.31577 40.75490 38.53534
#
# Velocity S-wave (km/s) = 3.67259 3.89058 3.78315
# Velocity P-wave (km/s) = 5.55283 5.77631 5.66568
#
# Compressibility (1/GPa) = 0.02890298
#
# Stress axis : x y z
#
# Youngs Moduli (GPa) = 71.08597 109.62030 84.37790
#
# Poissons Ratio (x) = 0.13603 0.24690
# Poissons Ratio (y) = 0.08821 -0.09263
# Poissons Ratio (z) = 0.20800 -0.12034
#
# Static dielectric constant tensor:
#      x y z
#    x 2.271030 0.000000 -0.070900 
#    y 0.000000 2.115050 0.000000 
#    z -0.070900 0.000000 2.214770 
# 
# From -- ./inp_files/158195.got.cif
#   From: 2010.05.17/outbox.cif.g08.bks.cpg/sg15_80_cif.got.tgz:158195.got - 2010.06.03 18:47:42.
