data_PCOD9298006
_publ_section_title
;
Structure prediction by ZEFSAII (Michael W. Deem and Ramdas Pophale) SiO2 
 PCOD9298006
Probable space group: C 2/C
;
_chemical_formula_sum "Si O2"
_cell_formula_units_Z 56
_cell_length_a 15.548855
_cell_length_b 7.508783
_cell_length_c 23.966248
_cell_angle_alpha 90.000000
_cell_angle_beta 120.223105
_cell_angle_gamma 90.000000
_cell_volume 2417.786178
_symmetry_space_group_name_H-M "C 2/C"
_symmetry_group_IT_number 15
_symmetry_cell_setting 'monoclinic'
loop_
_space_group_symop_operation_xyz
x,y,z
-x,y,1/2-z
-x,-y,-z
x,-y,1/2+z
1/2+x,1/2+y,z
1/2-x,1/2+y,1/2-z
1/2-x,1/2-y,-z
1/2+x,1/2-y,1/2+z
loop_
_atom_site_type_symbol
_atom_site_label
_atom_site_fract_x
_atom_site_fract_y
_atom_site_fract_z
Si Si1 0.946163 0.862789 0.671474
Si Si2 0.275459 0.228340 0.429899
Si Si3 0.351459 0.264369 0.810968
Si Si4 0.317954 0.142110 0.321429
Si Si5 0.121877 0.065195 0.071256
Si Si6 0.995818 0.836879 0.113558
Si Si7 0.839931 0.365569 0.502919
O O1 0.841276 0.768897 0.624434
O O2 0.000000 0.863886 0.750000
O O3 0.032093 0.785672 0.660256
O O4 0.933829 0.058775 0.640199
O O5 0.327218 0.167703 0.389758
O O6 0.322369 0.424522 0.450760
O O7 0.305806 0.069936 0.482104
O O8 0.289985 0.314187 0.736589
O O9 0.318116 0.386855 0.852043
O O10 0.333773 0.060733 0.815001
O O11 0.401727 0.272644 0.324564
O O12 0.026210 0.962507 0.069133
O O13 0.122932 0.256003 0.040322
O O14 0.934355 0.665720 0.073706
O O15 0.750000 0.250000 0.500000
#
# Coordination Sequence:
#
# PCOD9298006 Si02
#       7
#     8   8   8   8   8   8   8
#     4  11  22  40  64  94 133 168 208 276 337 387
#     4  11  23  43  67  96 132 172 216 271 327 388
#     4  11  22  41  67  94 134 169 215 272 329 400
#     4  11  22  41  67  98 126 173 222 266 326 394
#     4  10  24  43  68  94 129 175 221 267 329 383
#     4  10  24  43  64  96 129 173 224 265 324 392
#     4  12  24  44  67  95 135 174 222 271 326 383
#
# _framework density 23.161684999999999
#
# number of rings (size 3 to 8) (size 9 to 14) (size 15 to 20)
#    0.000    1.143    4.286    3.000    0.000    4.000 
#    5.143    0.714    0.000    0.000    0.000    0.000 
#    0.000    0.000    0.000    0.000    0.000    0.000 
#
# Total GULP energy -156125.484850 kJ/mol
# GULP energy per Si atom -5575.910173 kJ/mol
# Density = 2.310897 g / cm^3
# Si number density = 23.161685 Si / 1000 Ang^3
#
#
#
# Elastic Constant Matrix: (Units=GPa)
#
#
# Indices 1 2 3 4 5 6 
#
# 1 62.7590 8.8610 11.0977 0.0000 16.2400 0.0000
# 2 8.8610 89.7176 14.7048 0.0000 6.5003 0.0000
# 3 11.0977 14.7048 43.2591 0.0000 16.1182 0.0000
# 4 0.0000 0.0000 0.0000 16.5718 0.0000 17.4748
# 5 16.2400 6.5003 16.1182 0.0000 35.5742 0.0000
# 6 0.0000 0.0000 0.0000 17.4748 0.0000 15.4314
#
#
#
# Elastic Compliance Matrix: (Units=1/GPa)
#
#
# Indices 1 2 3 4 5 6 
#
# 1 0.018282 -0.001008 -0.001572 0.000000 -0.007450 0.000000
# 2 -0.001008 0.011864 -0.003775 0.000000 0.000003 0.000000
# 3 -0.001572 -0.003775 0.029210 0.000000 -0.011827 0.000000
# 4 0.000000 0.000000 0.000000 -0.310851 0.000000 0.352013
# 5 -0.007450 0.000003 -0.011827 0.000000 0.036869 0.000000
# 6 0.000000 0.000000 0.000000 0.352013 0.000000 -0.333823
#
#
# Mechanical properties :
#
#
# Convention : Reuss Voigt Hill
#
# Bulk Modulus (GPa) = 21.43833 29.45142 25.44487
# Shear Modulus (GPa) = -9.61188 24.25362 7.32087
#
# Velocity S-wave (km/s) = -2.03934 3.23947 1.77978
# Velocity P-wave (km/s) = 1.93153 5.17063 3.90296
#
# Compressibility (1/GPa) = 0.04664543
#
# Stress axis : x y z
#
# Youngs Moduli (GPa) = 54.69871 84.28687 34.23505
#
# Poissons Ratio (x) = 0.08499 0.05380
# Poissons Ratio (y) = 0.05515 0.12925
# Poissons Ratio (z) = 0.08597 0.31822
#
# Static dielectric constant tensor:
#      x y z
#    x 1.899790 0.000000 -0.040010 
#    y 0.000000 1.939270 0.000000 
#    z -0.040010 0.000000 2.190120 
# 
# From -- ./inp_files/273229.got.cif
#   From: 2010.05.17/outbox.cif.g08.bks.cpg/sg15_137_cif.got.tgz:273229.got - 2010.06.03 18:47:42.
