data_PCOD9298400
_publ_section_title
;
Structure prediction by ZEFSAII (Michael W. Deem and Ramdas Pophale) SiO2 
 PCOD9298400
Probable space group: C 2/C
;
_chemical_formula_sum "Si O2"
_cell_formula_units_Z 56
_cell_length_a 23.790195
_cell_length_b 8.682591
_cell_length_c 14.667357
_cell_angle_alpha 90.000000
_cell_angle_beta 56.756691
_cell_angle_gamma 90.000000
_cell_volume 2533.887697
_symmetry_space_group_name_H-M "C 2/C"
_symmetry_group_IT_number 15
_symmetry_cell_setting 'monoclinic'
loop_
_space_group_symop_operation_xyz
x,y,z
-x,y,1/2-z
-x,-y,-z
x,-y,1/2+z
1/2+x,1/2+y,z
1/2-x,1/2+y,1/2-z
1/2-x,1/2-y,-z
1/2+x,1/2-y,1/2+z
loop_
_atom_site_type_symbol
_atom_site_label
_atom_site_fract_x
_atom_site_fract_y
_atom_site_fract_z
Si Si1 0.723244 0.044234 0.378879
Si Si2 0.968889 0.447716 0.680228
Si Si3 0.796791 0.890174 0.154685
Si Si4 0.410300 0.128851 0.565032
Si Si5 0.217325 0.912661 0.002379
Si Si6 0.076336 0.125147 0.717520
Si Si7 0.577161 0.477517 0.906773
O O1 0.726570 0.220658 0.347144
O O2 0.773517 0.941101 0.274639
O O3 0.651059 0.969375 0.420679
O O4 0.746386 0.029974 0.461557
O O5 0.930949 0.565444 0.646927
O O6 0.922410 0.301171 0.746514
O O7 0.000000 0.503424 0.750000
O O8 0.029220 0.387687 0.561485
O O9 0.877466 0.897216 0.082200
O O10 0.770924 0.019912 0.107973
O O11 0.396815 0.309399 0.588967
O O12 0.137458 0.900442 0.093837
O O13 0.250000 0.750000 0.000000
O O14 0.000000 0.107454 0.750000
O O15 0.084332 0.008028 0.793478
O O16 0.500000 0.500000 0.000000
#
# Coordination Sequence:
#
# PCOD9298400 Si02
#       7
#     8   8   8   8   8   8   8
#     4  12  27  47  74 103 145 185 242 300 361 429
#     4  10  24  44  69 101 142 181 235 282 355 418
#     4  12  27  48  71 104 141 188 239 297 359 430
#     4  11  25  43  71 105 137 188 233 293 353 422
#     4  12  27  46  74 107 142 190 237 295 362 427
#     4  11  24  45  70 104 142 184 234 291 356 429
#     4  12  23  44  71 100 143 180 236 291 353 427
#
# _framework density 22.100428000000001
#
# number of rings (size 3 to 8) (size 9 to 14) (size 15 to 20)
#    0.000    0.571    2.857    4.714   10.000    0.571 
#    2.571    0.000    0.000    0.000    0.000    0.000 
#    0.000    0.000    0.000    0.000    0.000    0.000 
#
# Total GULP energy -156680.034120 kJ/mol
# GULP energy per Si atom -5595.715504 kJ/mol
# Density = 2.205013 g / cm^3
# Si number density = 22.100428 Si / 1000 Ang^3
#
#
#
# Elastic Constant Matrix: (Units=GPa)
#
#
# Indices 1 2 3 4 5 6 
#
# 1 73.1188 10.4076 -2.1520 0.0000 9.3251 0.0000
# 2 10.4076 73.1117 -12.0341 0.0000 -1.8178 0.0000
# 3 -2.1520 -12.0341 39.9326 0.0000 12.2147 0.0000
# 4 0.0000 0.0000 0.0000 27.4207 0.0000 12.3814
# 5 9.3251 -1.8178 12.2147 0.0000 41.1082 0.0000
# 6 0.0000 0.0000 0.0000 12.3814 0.0000 25.1915
#
#
#
# Elastic Compliance Matrix: (Units=1/GPa)
#
#
# Indices 1 2 3 4 5 6 
#
# 1 0.014472 -0.001931 0.001351 0.000000 -0.003770 0.000000
# 2 -0.001931 0.014669 0.004382 0.000000 -0.000215 0.000000
# 3 0.001351 0.004382 0.029117 0.000000 -0.008764 0.000000
# 4 0.000000 0.000000 0.000000 0.046871 0.000000 -0.023037
# 5 -0.003770 -0.000215 -0.008764 0.000000 0.027776 0.000000
# 6 0.000000 0.000000 0.000000 -0.023037 0.000000 0.051018
#
#
# Mechanical properties :
#
#
# Convention : Reuss Voigt Hill
#
# Bulk Modulus (GPa) = 15.18361 19.84511 17.51436
# Shear Modulus (GPa) = 25.21794 31.40684 28.31239
#
# Velocity S-wave (km/s) = 3.38162 3.77383 3.58310
# Velocity P-wave (km/s) = 4.70450 5.29038 5.00602
#
# Compressibility (1/GPa) = 0.06586051
#
# Stress axis : x y z
#
# Youngs Moduli (GPa) = 69.09984 68.17267 34.34478
#
# Poissons Ratio (x) = 0.13167 -0.04640
# Poissons Ratio (y) = 0.13346 -0.15051
# Poissons Ratio (z) = -0.09335 -0.29876
#
# Static dielectric constant tensor:
#      x y z
#    x 1.873540 0.000000 -0.039450 
#    y 0.000000 1.791830 0.000000 
#    z -0.039450 0.000000 1.808000 
# 
# From -- ./inp_files/172256.got.cif
#   From: 2010.05.17/outbox.cif.g08.bks.cpg/sg15_87_cif.got.tgz:172256.got - 2010.06.03 18:47:42.
