data_PCOD9298116
_publ_section_title
;
Structure prediction by ZEFSAII (Michael W. Deem and Ramdas Pophale) SiO2 
 PCOD9298116
Probable space group: C 2/C
;
_chemical_formula_sum "Si O2"
_cell_formula_units_Z 48
_cell_length_a 16.904480
_cell_length_b 16.030963
_cell_length_c 8.916086
_cell_angle_alpha 90.000000
_cell_angle_beta 123.631815
_cell_angle_gamma 90.000000
_cell_volume 2011.774483
_symmetry_space_group_name_H-M "C 2/C"
_symmetry_group_IT_number 15
_symmetry_cell_setting 'monoclinic'
loop_
_space_group_symop_operation_xyz
x,y,z
-x,y,1/2-z
-x,-y,-z
x,-y,1/2+z
1/2+x,1/2+y,z
1/2-x,1/2+y,1/2-z
1/2-x,1/2-y,-z
1/2+x,1/2-y,1/2+z
loop_
_atom_site_type_symbol
_atom_site_label
_atom_site_fract_x
_atom_site_fract_y
_atom_site_fract_z
Si Si1 0.607394 0.046251 0.921176
Si Si2 0.025731 0.798132 0.605428
Si Si3 0.410469 0.584374 0.571642
Si Si4 0.704460 0.813554 0.331611
Si Si5 0.194842 0.413545 0.834291
Si Si6 0.846258 0.775639 0.234102
O O1 0.500000 0.060345 0.750000
O O2 0.673295 0.105020 0.887429
O O3 0.638502 0.952861 0.913265
O O4 0.634982 0.064924 0.121441
O O5 0.935585 0.756280 0.433893
O O6 0.000000 0.812521 0.750000
O O7 0.052662 0.883250 0.549281
O O8 0.112225 0.735106 0.679286
O O9 0.500000 0.540917 0.750000
O O10 0.303074 0.550428 0.441101
O O11 0.389848 0.666821 0.651199
O O12 0.750000 0.750000 0.500000
O O13 0.774948 0.826020 0.267201
O O14 0.198329 0.313330 0.853742
#
# Coordination Sequence:
#
# PCOD9298116 Si02
#       6
#     8   8   8   8   8   8
#     4  12  28  45  69 104 147 182 230 283 355 423
#     4  11  20  36  66 103 133 170 232 292 339 402
#     4  10  24  43  69 102 137 175 241 294 340 408
#     4  12  21  40  70 100 135 177 236 289 336 413
#     4  12  25  47  66 101 142 190 226 280 359 416
#     4  11  23  40  71 101 135 182 235 291 348 404
#
# _framework density 23.859534
#
# number of rings (size 3 to 8) (size 9 to 14) (size 15 to 20)
#    0.000    0.667    5.000    2.500    2.333    2.000 
#    0.000    0.833    3.667    0.000    0.000    0.000 
#    0.000    0.000    0.000    0.000    0.000    0.000 
#
# Total GULP energy -134345.726228 kJ/mol
# GULP energy per Si atom -5597.738593 kJ/mol
# Density = 2.380523 g / cm^3
# Si number density = 23.859534 Si / 1000 Ang^3
#
#
#
# Elastic Constant Matrix: (Units=GPa)
#
#
# Indices 1 2 3 4 5 6 
#
# 1 107.0192 11.4004 30.8284 0.0000 16.8511 0.0000
# 2 11.4004 54.3273 12.6512 0.0000 -2.2920 0.0000
# 3 30.8284 12.6512 116.6024 0.0000 25.6694 0.0000
# 4 0.0000 0.0000 0.0000 16.2501 0.0000 -7.8409
# 5 16.8511 -2.2920 25.6694 0.0000 55.2691 0.0000
# 6 0.0000 0.0000 0.0000 -7.8409 0.0000 40.0818
#
#
#
# Elastic Compliance Matrix: (Units=1/GPa)
#
#
# Indices 1 2 3 4 5 6 
#
# 1 0.010498 -0.001819 -0.002069 0.000000 -0.002316 0.000000
# 2 -0.001819 0.019386 -0.002140 0.000000 0.002353 0.000000
# 3 -0.002069 -0.002140 0.010288 0.000000 -0.004236 0.000000
# 4 0.000000 0.000000 0.000000 0.067952 0.000000 0.013293
# 5 -0.002316 0.002353 -0.004236 0.000000 0.020864 0.000000
# 6 0.000000 0.000000 0.000000 0.013293 0.000000 0.027549
#
#
# Mechanical properties :
#
#
# Convention : Reuss Voigt Hill
#
# Bulk Modulus (GPa) = 35.56605 43.07875 39.32240
# Shear Modulus (GPa) = 28.09519 37.19148 32.64333
#
# Velocity S-wave (km/s) = 3.43523 3.95241 3.70286
# Velocity P-wave (km/s) = 5.53834 6.23883 5.89899
#
# Compressibility (1/GPa) = 0.02811670
#
# Stress axis : x y z
#
# Youngs Moduli (GPa) = 95.25291 51.58261 97.20196
#
# Poissons Ratio (x) = 0.09383 0.20106
# Poissons Ratio (y) = 0.17327 0.20805
# Poissons Ratio (z) = 0.19703 0.11041
#
# Static dielectric constant tensor:
#      x y z
#    x 1.897500 0.000000 0.032420 
#    y 0.000000 1.920800 0.000000 
#    z 0.032420 0.000000 1.942050 
# 
# From -- ./inp_files/48713.got.cif
#   From: 2010.05.17/outbox.cif.g08.bks.cpg/sg15_25_cif.got.tgz:48713.got - 2010.06.03 18:47:42.
