data_PCOD9298263
_publ_section_title
;
Structure prediction by ZEFSAII (Michael W. Deem and Ramdas Pophale) SiO2 
 PCOD9298263
Probable space group: C 2/C
;
_chemical_formula_sum "Si O2"
_cell_formula_units_Z 56
_cell_length_a 26.839829
_cell_length_b 12.313048
_cell_length_c 14.791088
_cell_angle_alpha 90.000000
_cell_angle_beta 28.750671
_cell_angle_gamma 90.000000
_cell_volume 2351.200386
_symmetry_space_group_name_H-M "C 2/C"
_symmetry_group_IT_number 15
_symmetry_cell_setting 'monoclinic'
loop_
_space_group_symop_operation_xyz
x,y,z
-x,y,1/2-z
-x,-y,-z
x,-y,1/2+z
1/2+x,1/2+y,z
1/2-x,1/2+y,1/2-z
1/2-x,1/2-y,-z
1/2+x,1/2-y,1/2+z
loop_
_atom_site_type_symbol
_atom_site_label
_atom_site_fract_x
_atom_site_fract_y
_atom_site_fract_z
Si Si1 0.230801 0.598663 0.925682
Si Si2 0.328596 0.413087 0.864005
Si Si3 0.064094 0.750764 0.235686
Si Si4 0.539456 0.635994 0.965128
Si Si5 0.090095 0.566249 0.983638
Si Si6 0.743180 0.725381 0.867925
Si Si7 0.437986 0.832087 0.444285
O O1 0.254216 0.517401 0.971366
O O2 0.342960 0.603074 0.699146
O O3 0.150193 0.548998 0.983091
O O4 0.182209 0.716678 0.025646
O O5 0.443983 0.439565 0.646446
O O6 0.285733 0.320369 0.864785
O O7 0.327167 0.359091 0.964100
O O8 0.046233 0.825591 0.350233
O O9 0.000000 0.791242 0.250000
O O10 0.013731 0.634037 0.338227
O O11 0.514135 0.742522 0.066145
O O12 0.164144 0.649627 0.813664
O O13 0.067040 0.444190 0.992333
O O14 0.675457 0.787439 0.901668
O O15 0.500000 0.843544 0.250000
#
# Coordination Sequence:
#
# PCOD9298263 Si02
#       7
#     8   8   8   8   8   8   8
#     4  11  23  42  66  94 132 179 222 274 328 400
#     4  11  24  42  66  96 135 176 222 271 338 404
#     4  10  24  44  64  95 134 172 229 278 329 395
#     4  12  24  42  68  97 136 176 222 278 336 394
#     4  11  23  42  69  95 132 172 221 276 333 390
#     4  11  23  43  65  97 136 174 215 277 340 401
#     4  12  24  42  70 102 134 176 225 278 334 398
#
# _framework density 23.817620000000002
#
# number of rings (size 3 to 8) (size 9 to 14) (size 15 to 20)
#    0.000    0.857    5.714    2.143    2.000    0.571 
#    0.000    0.000    0.000    0.000    0.000    0.000 
#    0.000    0.000    0.000    0.000    0.000    0.000 
#
# Total GULP energy -156493.553605 kJ/mol
# GULP energy per Si atom -5589.055486 kJ/mol
# Density = 2.376341 g / cm^3
# Si number density = 23.817620 Si / 1000 Ang^3
#
#
#
# Elastic Constant Matrix: (Units=GPa)
#
#
# Indices 1 2 3 4 5 6 
#
# 1 37.3025 10.8854 -9.9428 0.0000 -5.5182 0.0000
# 2 10.8854 82.6084 8.1397 0.0000 1.7783 0.0000
# 3 -9.9428 8.1397 96.3825 0.0000 -10.3216 0.0000
# 4 0.0000 0.0000 0.0000 34.9658 0.0000 -3.3097
# 5 -5.5182 1.7783 -10.3216 0.0000 31.6204 0.0000
# 6 0.0000 0.0000 0.0000 -3.3097 0.0000 32.6301
#
#
#
# Elastic Compliance Matrix: (Units=1/GPa)
#
#
# Indices 1 2 3 4 5 6 
#
# 1 0.030298 -0.004561 0.004253 0.000000 0.006932 0.000000
# 2 -0.004561 0.012928 -0.001788 0.000000 -0.002107 0.000000
# 3 0.004253 -0.001788 0.011456 0.000000 0.004582 0.000000
# 4 0.000000 0.000000 0.000000 0.028877 0.000000 0.002929
# 5 0.006932 -0.002107 0.004582 0.000000 0.034449 0.000000
# 6 0.000000 0.000000 0.000000 0.002929 0.000000 0.030944
#
#
# Mechanical properties :
#
#
# Convention : Reuss Voigt Hill
#
# Bulk Modulus (GPa) = 19.80572 26.05088 22.92830
# Shear Modulus (GPa) = 29.41663 33.65734 31.53698
#
# Velocity S-wave (km/s) = 3.51818 3.76324 3.64277
# Velocity P-wave (km/s) = 4.98368 5.46297 5.22882
#
# Compressibility (1/GPa) = 0.05049047
#
# Stress axis : x y z
#
# Youngs Moduli (GPa) = 33.00561 77.35279 87.29234
#
# Poissons Ratio (x) = 0.35278 -0.37126
# Poissons Ratio (y) = 0.15053 0.15607
# Poissons Ratio (z) = -0.14037 0.13829
#
# Static dielectric constant tensor:
#      x y z
#    x 1.890880 0.000000 0.016150 
#    y 0.000000 1.923790 0.000000 
#    z 0.016150 0.000000 1.976150 
# 
# From -- ./inp_files/181892.got.cif
#   From: 2010.05.17/outbox.cif.g08.bks.cpg/sg15_91_cif.got.tgz:181892.got - 2010.06.03 18:47:42.
