data_PCOD9298682
_publ_section_title
;
Structure prediction by ZEFSAII (Michael W. Deem and Ramdas Pophale) SiO2 
 PCOD9298682
Probable space group: C 2/C
;
_chemical_formula_sum "Si O2"
_cell_formula_units_Z 48
_cell_length_a 6.745769
_cell_length_b 13.582570
_cell_length_c 25.277056
_cell_angle_alpha 90.000000
_cell_angle_beta 49.190119
_cell_angle_gamma 90.000000
_cell_volume 1752.945001
_symmetry_space_group_name_H-M "C 2/C"
_symmetry_group_IT_number 15
_symmetry_cell_setting 'monoclinic'
loop_
_space_group_symop_operation_xyz
x,y,z
-x,y,1/2-z
-x,-y,-z
x,-y,1/2+z
1/2+x,1/2+y,z
1/2-x,1/2+y,1/2-z
1/2-x,1/2-y,-z
1/2+x,1/2-y,1/2+z
loop_
_atom_site_type_symbol
_atom_site_label
_atom_site_fract_x
_atom_site_fract_y
_atom_site_fract_z
Si Si1 0.685717 0.576856 0.014600
Si Si2 0.353280 0.530006 0.228594
Si Si3 0.109778 0.816035 0.627950
Si Si4 0.064146 0.598718 0.641840
Si Si5 0.614432 0.600588 0.606357
Si Si6 0.185491 0.306982 0.566012
O O1 0.720940 0.666332 0.049584
O O2 0.730378 0.480087 0.044163
O O3 0.392232 0.605991 0.043320
O O4 0.872911 0.576604 0.930939
O O5 0.500000 0.585792 0.250000
O O6 0.375925 0.605265 0.176645
O O7 0.553125 0.445927 0.173827
O O8 0.099061 0.479829 0.296072
O O9 0.979177 0.711662 0.660531
O O10 0.378862 0.835364 0.614556
O O11 0.336037 0.608576 0.625804
O O12 0.712669 0.711131 0.598200
O O13 0.250000 0.250000 0.500000
#
# Coordination Sequence:
#
# PCOD9298682 Si02
#       6
#     8   8   8   8   8   8
#     4  11  23  45  77 109 149 190 241 326 381 438
#     4  11  27  44  65 103 144 197 240 299 371 450
#     4  10  25  46  71 109 146 187 252 309 369 463
#     4  11  23  46  73 100 145 188 241 301 374 442
#     4  10  24  45  69 107 142 190 249 305 369 459
#     4  11  23  41  77 110 141 190 247 309 391 438
#
# _framework density 27.382491000000002
#
# number of rings (size 3 to 8) (size 9 to 14) (size 15 to 20)
#    0.000    1.333    3.333    1.500    4.667    2.667 
#    0.000    3.333    0.000    0.000    0.000    0.000 
#    0.000    0.000    0.000    0.000    0.000    0.000 
#
# Total GULP energy -134050.857418 kJ/mol
# GULP energy per Si atom -5585.452392 kJ/mol
# Density = 2.732017 g / cm^3
# Si number density = 27.382491 Si / 1000 Ang^3
#
#
#
# Elastic Constant Matrix: (Units=GPa)
#
#
# Indices 1 2 3 4 5 6 
#
# 1 84.2493 4.9810 31.9800 0.0025 -10.0182 0.0015
# 2 4.9810 131.9410 67.2981 0.0016 -29.5027 0.0004
# 3 31.9800 67.2981 171.6054 0.0032 -18.0056 -0.0009
# 4 0.0025 0.0016 0.0032 49.7929 -0.0033 0.2203
# 5 -10.0182 -29.5027 -18.0056 -0.0033 33.1664 -0.0012
# 6 0.0015 0.0004 -0.0009 0.2203 -0.0012 26.2675
#
#
#
# Elastic Compliance Matrix: (Units=1/GPa)
#
#
# Indices 1 2 3 4 5 6 
#
# 1 0.013304 0.001836 -0.002764 0.000000 0.004151 -0.000001
# 2 0.001836 0.011433 -0.003924 0.000000 0.008594 0.000000
# 3 -0.002764 -0.003924 0.007876 0.000000 -0.000050 0.000000
# 4 0.000000 0.000000 0.000000 0.020084 0.000002 -0.000168
# 5 0.004151 0.008594 -0.000050 0.000002 0.039023 0.000001
# 6 -0.000001 0.000000 0.000000 -0.000168 0.000001 0.038071
#
#
# Mechanical properties :
#
#
# Convention : Reuss Voigt Hill
#
# Bulk Modulus (GPa) = 43.65168 66.25712 54.95440
# Shear Modulus (GPa) = 33.98336 40.74782 37.36559
#
# Velocity S-wave (km/s) = 3.52669 3.86177 3.69803
# Velocity P-wave (km/s) = 5.70609 6.64333 6.19247
#
# Compressibility (1/GPa) = 0.02290862
#
# Stress axis : x y z
#
# Youngs Moduli (GPa) = 75.16763 87.46576 126.96812
#
# Poissons Ratio (x) = -0.16054 0.35088
# Poissons Ratio (y) = -0.13797 0.49822
# Poissons Ratio (z) = 0.20773 0.34321
#
# Static dielectric constant tensor:
#      x y z
#    x 2.337760 0.000000 0.018460 
#    y 0.000000 2.248440 0.000000 
#    z 0.018460 0.000000 2.197290 
# 
# From -- ./inp_files/307904.got.cif
#   From: 2010.05.17/outbox.cif.g08.bks.cpg/sg15_154_cif.got.tgz:307904.got - 2010.06.03 18:47:42.
