data_PCOD9298296
_publ_section_title
;
Structure prediction by ZEFSAII (Michael W. Deem and Ramdas Pophale) SiO2 
 PCOD9298296
Probable space group: C 2/C
;
_chemical_formula_sum "Si O2"
_cell_formula_units_Z 40
_cell_length_a 28.163962
_cell_length_b 4.936031
_cell_length_c 10.265587
_cell_angle_alpha 90.000000
_cell_angle_beta 90.418176
_cell_angle_gamma 90.000000
_cell_volume 1427.065309
_symmetry_space_group_name_H-M "C 2/C"
_symmetry_group_IT_number 15
_symmetry_cell_setting 'monoclinic'
loop_
_space_group_symop_operation_xyz
x,y,z
-x,y,1/2-z
-x,-y,-z
x,-y,1/2+z
1/2+x,1/2+y,z
1/2-x,1/2+y,1/2-z
1/2-x,1/2-y,-z
1/2+x,1/2-y,1/2+z
loop_
_atom_site_type_symbol
_atom_site_label
_atom_site_fract_x
_atom_site_fract_y
_atom_site_fract_z
Si Si1 0.055423 0.621685 0.647788
Si Si2 0.628269 0.680448 0.965337
Si Si3 0.042413 0.796788 0.922778
Si Si4 0.205371 0.919381 0.127399
Si Si5 0.310283 0.076650 0.694080
O O1 0.105723 0.729908 0.602747
O O2 0.050592 0.590050 0.800676
O O3 0.048766 0.360880 0.557710
O O4 0.014270 0.834478 0.600768
O O5 0.583566 0.518445 0.902972
O O6 0.647485 0.936009 0.885609
O O7 0.672217 0.489695 0.005266
O O8 0.261543 0.957383 0.110194
O O9 0.190648 0.126178 0.243205
O O10 0.196181 0.621928 0.181664
#
# Coordination Sequence:
#
# PCOD9298296 Si02
#       5
#     8   8   8   8   8
#     4  10  24  44  71  99 152 186 250 302 381 436
#     4  12  24  38  73 102 140 186 259 300 369 439
#     4  10  24  46  67 108 141 200 234 316 366 454
#     4  10  24  44  67 101 149 194 240 305 367 442
#     4  10  24  44  66 102 149 193 241 302 373 436
#
# _framework density 28.02955
#
# number of rings (size 3 to 8) (size 9 to 14) (size 15 to 20)
#    0.000    1.600    0.000    2.400    8.400    1.600 
#    0.000   10.000    0.000    0.000    0.000    0.000 
#    0.000    0.000    0.000    0.000    0.000    0.000 
#
# Total GULP energy -112147.664414 kJ/mol
# GULP energy per Si atom -5607.383221 kJ/mol
# Density = 2.796575 g / cm^3
# Si number density = 28.029550 Si / 1000 Ang^3
#
#
#
# Elastic Constant Matrix: (Units=GPa)
#
#
# Indices 1 2 3 4 5 6 
#
# 1 205.3148 19.6046 35.2580 0.0000 9.3249 0.0000
# 2 19.6046 97.5625 34.7886 0.0000 11.9412 0.0000
# 3 35.2580 34.7886 70.8958 0.0000 -19.2194 0.0000
# 4 0.0000 0.0000 0.0000 30.4775 0.0000 3.5394
# 5 9.3249 11.9412 -19.2194 0.0000 47.4497 0.0000
# 6 0.0000 0.0000 0.0000 3.5394 0.0000 53.7043
#
#
#
# Elastic Compliance Matrix: (Units=1/GPa)
#
#
# Indices 1 2 3 4 5 6 
#
# 1 0.005600 0.000583 -0.003829 0.000000 -0.002798 0.000000
# 2 0.000583 0.014412 -0.009410 0.000000 -0.007553 0.000000
# 3 -0.003829 -0.009410 0.024121 0.000000 0.012891 0.000000
# 4 0.000000 0.000000 0.000000 0.033064 0.000000 -0.002179
# 5 -0.002798 -0.007553 0.012891 0.000000 0.028747 0.000000
# 6 0.000000 0.000000 0.000000 -0.002179 0.000000 0.018764
#
#
# Mechanical properties :
#
#
# Convention : Reuss Voigt Hill
#
# Bulk Modulus (GPa) = 53.13123 61.45284 57.29204
# Shear Modulus (GPa) = 31.99082 45.26774 38.62928
#
# Velocity S-wave (km/s) = 3.38201 4.02307 3.71639
# Velocity P-wave (km/s) = 5.85212 6.59939 6.23696
#
# Compressibility (1/GPa) = 0.01882132
#
# Stress axis : x y z
#
# Youngs Moduli (GPa) = 178.58402 69.38464 41.45681
#
# Poissons Ratio (x) = -0.04043 0.15875
# Poissons Ratio (y) = -0.10406 0.39009
# Poissons Ratio (z) = 0.68385 0.65288
#
# Static dielectric constant tensor:
#      x y z
#    x 2.175230 0.000000 -0.000170 
#    y 0.000000 2.225880 0.000000 
#    z -0.000170 0.000000 2.194540 
# 
# From -- ./inp_files/124790.got.cif
#   From: 2010.05.17/outbox.cif.g08.bks.cpg/sg15_63_cif.got.tgz:124790.got - 2010.06.03 18:47:42.
