data_PCOD9298241
_publ_section_title
;
Structure prediction by ZEFSAII (Michael W. Deem and Ramdas Pophale) SiO2 
 PCOD9298241
Probable space group: C 2/C
;
_chemical_formula_sum "Si O2"
_cell_formula_units_Z 52
_cell_length_a 24.893230
_cell_length_b 14.067906
_cell_length_c 8.729471
_cell_angle_alpha 90.000000
_cell_angle_beta 50.453066
_cell_angle_gamma 90.000000
_cell_volume 2357.280079
_symmetry_space_group_name_H-M "C 2/C"
_symmetry_group_IT_number 15
_symmetry_cell_setting 'monoclinic'
loop_
_space_group_symop_operation_xyz
x,y,z
-x,y,1/2-z
-x,-y,-z
x,-y,1/2+z
1/2+x,1/2+y,z
1/2-x,1/2+y,1/2-z
1/2-x,1/2-y,-z
1/2+x,1/2-y,1/2+z
loop_
_atom_site_type_symbol
_atom_site_label
_atom_site_fract_x
_atom_site_fract_y
_atom_site_fract_z
Si Si1 0.875566 0.041376 0.025002
Si Si2 0.183791 0.589671 0.837421
Si Si3 0.500000 0.402407 0.750000
Si Si4 0.905480 0.239700 0.016225
Si Si5 0.541577 0.755764 0.923847
Si Si6 0.446864 0.950665 0.479303
Si Si7 0.227244 0.959998 0.042246
O O1 0.906261 0.130297 0.060561
O O2 0.817914 0.085067 0.012741
O O3 0.831654 0.984106 0.227673
O O4 0.934918 0.975417 0.841440
O O5 0.235466 0.547085 0.615066
O O6 0.215440 0.586893 0.951446
O O7 0.162109 0.696907 0.840550
O O8 0.115306 0.521463 0.955874
O O9 0.529306 0.330893 0.564047
O O10 0.925337 0.233383 0.800881
O O11 0.964613 0.288891 0.010832
O O12 0.580980 0.848075 0.916183
O O13 0.500000 0.925330 0.250000
O O14 0.500000 0.000000 0.500000
#
# Coordination Sequence:
#
# PCOD9298241 Si02
#       7
#     8   8   4   8   8   8   8
#     4  11  24  44  67  93 125 170 222 278 319 382
#     4  11  23  41  65  93 135 173 207 262 324 397
#     4  12  24  44  70  94 128 164 222 284 330 370
#     4  11  23  39  64  95 130 171 217 264 329 383
#     4  11  23  38  62 103 130 163 211 271 333 383
#     4  12  22  39  65  98 133 164 206 265 316 382
#     4  10  24  44  63  90 129 176 216 261 326 389
#
# _framework density 22.059321000000001
#
# number of rings (size 3 to 8) (size 9 to 14) (size 15 to 20)
#    0.000    0.923    2.308    5.538    0.000    3.077 
#    0.000    6.154    0.000    0.000    0.000    0.000 
#    0.000    0.000    0.000    0.000    0.000    0.000 
#
# Total GULP energy -144914.684802 kJ/mol
# GULP energy per Si atom -5573.641723 kJ/mol
# Density = 2.200911 g / cm^3
# Si number density = 22.059321 Si / 1000 Ang^3
#
#
#
# Elastic Constant Matrix: (Units=GPa)
#
#
# Indices 1 2 3 4 5 6 
#
# 1 75.0459 23.9979 14.9576 0.0000 -0.4464 0.0000
# 2 23.9979 100.9935 2.2818 0.0000 -11.9308 0.0000
# 3 14.9576 2.2818 52.0067 0.0000 -15.9975 0.0000
# 4 0.0000 0.0000 0.0000 85.6738 0.0000 -10.4077
# 5 -0.4464 -11.9308 -15.9975 0.0000 20.7393 0.0000
# 6 0.0000 0.0000 0.0000 -10.4077 0.0000 27.1920
#
#
#
# Elastic Compliance Matrix: (Units=1/GPa)
#
#
# Indices 1 2 3 4 5 6 
#
# 1 0.016073 -0.004548 -0.006715 0.000000 -0.007450 0.000000
# 2 -0.004548 0.012048 0.003778 0.000000 0.009747 0.000000
# 3 -0.006715 0.003778 0.028343 0.000000 0.023891 0.000000
# 4 0.000000 0.000000 0.000000 0.012241 0.000000 0.004685
# 5 -0.007450 0.009747 0.023891 0.000000 0.072093 0.000000
# 6 0.000000 0.000000 0.000000 0.004685 0.000000 0.038569
#
#
# Mechanical properties :
#
#
# Convention : Reuss Voigt Hill
#
# Bulk Modulus (GPa) = 24.09955 34.50229 29.30092
# Shear Modulus (GPa) = 24.01883 39.17493 31.59688
#
# Velocity S-wave (km/s) = 3.30332 4.21870 3.78876
# Velocity P-wave (km/s) = 5.04954 6.27731 5.69660
#
# Compressibility (1/GPa) = 0.04149454
#
# Stress axis : x y z
#
# Youngs Moduli (GPa) = 62.21423 82.99880 35.28225
#
# Poissons Ratio (x) = 0.37746 0.23692
# Poissons Ratio (y) = 0.28293 -0.13328
# Poissons Ratio (z) = 0.41777 -0.31354
#
# Static dielectric constant tensor:
#      x y z
#    x 1.844620 0.000000 -0.032080 
#    y 0.000000 1.760200 0.000000 
#    z -0.032080 0.000000 1.678800 
# 
# From -- ./inp_files/66118.got.cif
#   From: 2010.05.17/outbox.cif.g08.bks.cpg/sg15_34_cif.got.tgz:66118.got - 2010.06.03 18:47:42.
