data_PCOD9298881
_publ_section_title
;
Structure prediction by ZEFSAII (Michael W. Deem and Ramdas Pophale) SiO2 
 PCOD9298881
Probable space group: C 2/C
;
_chemical_formula_sum "Si O2"
_cell_formula_units_Z 52
_cell_length_a 9.561183
_cell_length_b 13.395913
_cell_length_c 29.029675
_cell_angle_alpha 90.000000
_cell_angle_beta 135.775946
_cell_angle_gamma 90.000000
_cell_volume 2593.278588
_symmetry_space_group_name_H-M "C 2/C"
_symmetry_group_IT_number 15
_symmetry_cell_setting 'monoclinic'
loop_
_space_group_symop_operation_xyz
x,y,z
-x,y,1/2-z
-x,-y,-z
x,-y,1/2+z
1/2+x,1/2+y,z
1/2-x,1/2+y,1/2-z
1/2-x,1/2-y,-z
1/2+x,1/2-y,1/2+z
loop_
_atom_site_type_symbol
_atom_site_label
_atom_site_fract_x
_atom_site_fract_y
_atom_site_fract_z
Si Si1 0.000000 0.799309 0.750000
Si Si2 0.313986 0.631748 0.449258
Si Si3 0.307068 0.032815 0.425452
Si Si4 0.875931 0.445573 0.838146
Si Si5 0.977410 0.973903 0.415616
Si Si6 0.825576 0.249687 0.966006
Si Si7 0.415473 0.124731 0.660807
O O1 0.811304 0.872634 0.713962
O O2 0.990210 0.722593 0.704592
O O3 0.409516 0.571318 0.428657
O O4 0.384377 0.582544 0.514033
O O5 0.434173 0.734686 0.477585
O O6 0.077288 0.622112 0.388985
O O7 0.338900 0.008048 0.379912
O O8 0.284298 0.151397 0.427538
O O9 0.500000 0.000000 0.500000
O O10 0.109524 0.989223 0.402122
O O11 0.929930 0.536835 0.816271
O O12 0.769980 0.920207 0.354040
O O13 0.705104 0.159315 0.913514
O O14 0.750000 0.250000 0.000000
#
# Coordination Sequence:
#
# PCOD9298881 Si02
#       7
#     4   8   8   8   8   8   8
#     4  12  26  48  68  94 136 186 240 284 334 400
#     4   9  18  36  60  93 128 172 212 262 336 412
#     4  12  21  34  62 104 139 168 213 280 347 401
#     4  11  24  43  69  96 132 176 232 280 334 414
#     4   9  18  35  63  91 130 169 207 267 345 397
#     4  11  20  36  65 100 139 165 209 278 348 408
#     4  10  24  46  68  89 130 183 224 276 342 403
#
# _framework density 20.051838
#
# number of rings (size 3 to 8) (size 9 to 14) (size 15 to 20)
#    0.000    1.538    4.615    1.846    0.000    3.077 
#    0.000    1.538    0.000    0.000    0.000    0.000 
#    0.000    0.000    0.000    0.000    0.000    0.000 
#
# Total GULP energy -145037.034338 kJ/mol
# GULP energy per Si atom -5578.347475 kJ/mol
# Density = 2.000620 g / cm^3
# Si number density = 20.051838 Si / 1000 Ang^3
#
#
#
# Elastic Constant Matrix: (Units=GPa)
#
#
# Indices 1 2 3 4 5 6 
#
# 1 141.2873 42.1678 51.7290 0.0000 30.0268 0.0000
# 2 42.1678 83.3503 48.9217 0.0000 22.7692 0.0000
# 3 51.7290 48.9217 84.4197 0.0000 24.8840 0.0000
# 4 0.0000 0.0000 0.0000 42.7555 0.0000 4.0995
# 5 30.0268 22.7692 24.8840 0.0000 29.3713 0.0000
# 6 0.0000 0.0000 0.0000 4.0995 0.0000 26.4226
#
#
#
# Elastic Compliance Matrix: (Units=1/GPa)
#
#
# Indices 1 2 3 4 5 6 
#
# 1 0.010117 -0.001286 -0.003598 0.000000 -0.006298 0.000000
# 2 -0.001286 0.019455 -0.008568 0.000000 -0.006508 0.000000
# 3 -0.003598 -0.008568 0.021290 0.000000 -0.007718 0.000000
# 4 0.000000 0.000000 0.000000 0.023742 0.000000 -0.003684
# 5 -0.006298 -0.006508 -0.007718 0.000000 0.052069 0.000000
# 6 0.000000 0.000000 0.000000 -0.003684 0.000000 0.038418
#
#
# Mechanical properties :
#
#
# Convention : Reuss Voigt Hill
#
# Bulk Modulus (GPa) = 41.73830 66.07715 53.90773
# Shear Modulus (GPa) = 25.00242 30.79245 27.89744
#
# Velocity S-wave (km/s) = 3.53496 3.92298 3.73401
# Velocity P-wave (km/s) = 6.12549 7.31740 6.74782
#
# Compressibility (1/GPa) = 0.02395881
#
# Stress axis : x y z
#
# Youngs Moduli (GPa) = 98.84014 51.40099 46.97060
#
# Poissons Ratio (x) = 0.06613 0.16898
# Poissons Ratio (y) = 0.12716 0.40243
# Poissons Ratio (z) = 0.35558 0.44038
#
# Static dielectric constant tensor:
#      x y z
#    x 1.088870 0.000000 0.013390 
#    y 0.000000 1.711620 0.000000 
#    z 0.013390 0.000000 1.721560 
# 
# From -- ./inp_files/231318.got.cif
#   From: 2010.05.17/outbox.cif.g08.bks.cpg/sg15_116_cif.got.tgz:231318.got - 2010.06.03 18:47:42.
