data_PCOD9298713
_publ_section_title
;
Structure prediction by ZEFSAII (Michael W. Deem and Ramdas Pophale) SiO2 
 PCOD9298713
Probable space group: C 2/C
;
_chemical_formula_sum "Si O2"
_cell_formula_units_Z 32
_cell_length_a 7.936727
_cell_length_b 21.605366
_cell_length_c 10.136743
_cell_angle_alpha 90.000000
_cell_angle_beta 129.544269
_cell_angle_gamma 90.000000
_cell_volume 1340.388628
_symmetry_space_group_name_H-M "C 2/C"
_symmetry_group_IT_number 15
_symmetry_cell_setting 'monoclinic'
loop_
_space_group_symop_operation_xyz
x,y,z
-x,y,1/2-z
-x,-y,-z
x,-y,1/2+z
1/2+x,1/2+y,z
1/2-x,1/2+y,1/2-z
1/2-x,1/2-y,-z
1/2+x,1/2-y,1/2+z
loop_
_atom_site_type_symbol
_atom_site_label
_atom_site_fract_x
_atom_site_fract_y
_atom_site_fract_z
Si Si1 0.586728 0.828844 0.007108
Si Si2 0.500000 0.254448 0.250000
Si Si3 0.297216 0.954894 0.560270
Si Si4 0.500000 0.152206 0.750000
Si Si5 0.916188 0.081315 0.071082
O O1 0.824188 0.800058 0.099900
O O2 0.539737 0.813019 0.133869
O O3 0.427270 0.793485 0.827713
O O4 0.610029 0.901694 0.989963
O O5 0.500000 0.976167 0.750000
O O6 0.115649 0.927267 0.569183
O O7 0.185477 0.014292 0.439786
O O8 0.279847 0.114563 0.604442
O O9 0.000000 0.110760 0.250000
#
# Coordination Sequence:
#
# PCOD9298713 Si02
#       5
#     8   4   8   4   8
#     4  11  24  44  69  98 132 182 228 284 342 399
#     4  10  24  45  70  94 130 181 234 284 344 400
#     4  11  23  43  68  97 143 185 222 278 341 410
#     4  12  26  45  70 106 142 177 226 284 342 412
#     4  11  26  40  67 107 140 183 227 270 340 422
#
# _framework density 23.873673
#
# number of rings (size 3 to 8) (size 9 to 14) (size 15 to 20)
#    0.000    1.000    2.500    3.000    8.750    3.000 
#    0.000    0.000    0.000    0.000    0.000    0.000 
#    0.000    0.000    0.000    0.000    0.000    0.000 
#
# Total GULP energy -89420.564832 kJ/mol
# GULP energy per Si atom -5588.785302 kJ/mol
# Density = 2.381934 g / cm^3
# Si number density = 23.873673 Si / 1000 Ang^3
#
#
#
# Elastic Constant Matrix: (Units=GPa)
#
#
# Indices 1 2 3 4 5 6 
#
# 1 50.2578 2.9262 18.5191 0.0000 -1.8676 0.0000
# 2 2.9262 38.6973 12.8804 0.0000 -11.4553 0.0000
# 3 18.5191 12.8804 146.4819 0.0000 -4.6222 0.0000
# 4 0.0000 0.0000 0.0000 -17.5002 0.0000 -7.0922
# 5 -1.8676 -11.4553 -4.6222 0.0000 55.5673 0.0000
# 6 0.0000 0.0000 0.0000 -7.0922 0.0000 4.9098
#
#
#
# Elastic Compliance Matrix: (Units=1/GPa)
#
#
# Indices 1 2 3 4 5 6 
#
# 1 0.020896 -0.000616 -0.002576 0.000000 0.000361 0.000000
# 2 -0.000616 0.028297 -0.002233 0.000000 0.005627 0.000000
# 3 -0.002576 -0.002233 0.007351 0.000000 0.000065 0.000000
# 4 0.000000 0.000000 0.000000 -0.036043 0.000000 -0.052063
# 5 0.000361 0.005627 0.000065 0.000000 0.019174 0.000000
# 6 0.000000 0.000000 0.000000 -0.052063 0.000000 0.128469
#
#
# Mechanical properties :
#
#
# Convention : Reuss Voigt Hill
#
# Bulk Modulus (GPa) = 21.88455 33.78762 27.83609
# Shear Modulus (GPa) = 25.74343 22.00282 23.87312
#
# Velocity S-wave (km/s) = 3.28734 3.03914 3.16567
# Velocity P-wave (km/s) = 4.85752 5.14767 5.00470
#
# Compressibility (1/GPa) = 0.04569433
#
# Stress axis : x y z
#
# Youngs Moduli (GPa) = 47.85612 35.33934 136.03856
#
# Poissons Ratio (x) = 0.02176 0.35047
# Poissons Ratio (y) = 0.02947 0.30375
# Poissons Ratio (z) = 0.12329 0.07891
#
# Static dielectric constant tensor:
#      x y z
#    x 1.959430 0.000000 -0.013950 
#    y 0.000000 1.920110 0.000000 
#    z -0.013950 0.000000 1.919660 
# 
# From -- ./inp_files/23265.got.cif
#   From: 2010.05.17/outbox.cif.g08.bks.cpg/sg15_12_cif.got.tgz:23265.got - 2010.06.03 18:47:42.
