data_PCOD9298517
_publ_section_title
;
Structure prediction by ZEFSAII (Michael W. Deem and Ramdas Pophale) SiO2 
 PCOD9298517
Probable space group: C 2/C
;
_chemical_formula_sum "Si O2"
_cell_formula_units_Z 32
_cell_length_a 16.457850
_cell_length_b 7.215352
_cell_length_c 18.352766
_cell_angle_alpha 90.000000
_cell_angle_beta 30.220912
_cell_angle_gamma 90.000000
_cell_volume 1096.956966
_symmetry_space_group_name_H-M "C 2/C"
_symmetry_group_IT_number 15
_symmetry_cell_setting 'monoclinic'
loop_
_space_group_symop_operation_xyz
x,y,z
-x,y,1/2-z
-x,-y,-z
x,-y,1/2+z
1/2+x,1/2+y,z
1/2-x,1/2+y,1/2-z
1/2-x,1/2-y,-z
1/2+x,1/2-y,1/2+z
loop_
_atom_site_type_symbol
_atom_site_label
_atom_site_fract_x
_atom_site_fract_y
_atom_site_fract_z
Si Si1 0.729001 0.504884 0.964907
Si Si2 0.000000 0.000000 0.000000
Si Si3 0.717339 0.141734 0.307544
Si Si4 0.500000 0.716719 0.250000
Si Si5 0.606367 0.130732 0.017065
O O1 0.644213 0.352561 0.978463
O O2 0.584710 0.596030 0.122500
O O3 0.839730 0.410123 0.942394
O O4 0.852768 0.654596 0.838320
O O5 0.893986 0.137166 0.138230
O O6 0.854486 0.842241 0.117533
O O7 0.703092 0.996090 0.385580
O O8 0.578539 0.091557 0.355240
#
# Coordination Sequence:
#
# PCOD9298517 Si02
#       5
#     8   4   8   4   8
#     4  10  24  45  72 110 159 211 278 345 420 507
#     4  12  28  52  80 122 166 216 280 354 426 512
#     4  11  26  48  80 116 161 214 276 348 427 506
#     4  10  24  44  72 110 156 216 274 342 420 502
#     4  10  24  48  76 112 159 218 277 346 424 510
#
# _framework density 29.171610000000001
#
# number of rings (size 3 to 8) (size 9 to 14) (size 15 to 20)
#    0.000    1.500    0.000    3.000    0.000   20.000 
#    0.000    2.500    0.000    3.000    0.000    0.000 
#    0.000    0.000    0.000    0.000    0.000    0.000 
#
# Total GULP energy -89561.349315 kJ/mol
# GULP energy per Si atom -5597.584332 kJ/mol
# Density = 2.910521 g / cm^3
# Si number density = 29.171610 Si / 1000 Ang^3
#
#
#
# Elastic Constant Matrix: (Units=GPa)
#
#
# Indices 1 2 3 4 5 6 
#
# 1 114.3176 35.2629 32.1861 0.0000 -32.5193 0.0000
# 2 35.2629 220.4195 69.1388 -0.0004 25.5036 0.0003
# 3 32.1861 69.1388 208.3585 -0.0001 16.3406 0.0001
# 4 0.0000 -0.0004 -0.0001 58.1360 0.0000 -11.8697
# 5 -32.5193 25.5036 16.3406 0.0000 44.2557 0.0000
# 6 0.0000 0.0003 0.0001 -11.8697 0.0000 47.4812
#
#
#
# Elastic Compliance Matrix: (Units=1/GPa)
#
#
# Indices 1 2 3 4 5 6 
#
# 1 0.013918 -0.003031 -0.002145 0.000000 0.012766 0.000000
# 2 -0.003031 0.005976 -0.001102 0.000000 -0.005264 0.000000
# 3 -0.002145 -0.001102 0.005736 0.000000 -0.003059 0.000000
# 4 0.000000 0.000000 0.000000 0.018126 0.000000 0.004531
# 5 0.012766 -0.005264 -0.003059 0.000000 0.036139 0.000000
# 6 0.000000 0.000000 0.000000 0.004531 0.000000 0.022194
#
#
# Mechanical properties :
#
#
# Convention : Reuss Voigt Hill
#
# Bulk Modulus (GPa) = 76.48621 90.69679 83.59150
# Shear Modulus (GPa) = 42.01520 57.07510 49.54515
#
# Velocity S-wave (km/s) = 3.79922 4.42807 4.12564
# Velocity P-wave (km/s) = 6.74698 7.56981 7.17020
#
# Compressibility (1/GPa) = 0.01307425
#
# Stress axis : x y z
#
# Youngs Moduli (GPa) = 71.85053 167.32383 174.32249
#
# Poissons Ratio (x) = 0.50710 0.37400
# Poissons Ratio (y) = 0.21775 0.19213
# Poissons Ratio (z) = 0.15415 0.18441
#
# Static dielectric constant tensor:
#      x y z
#    x 1.773050 0.000000 0.282220 
#    y 0.000000 2.208350 0.000000 
#    z 0.282220 0.000000 1.831060 
# 
# From -- ./inp_files/38268.got.cif
#   From: 2010.05.17/outbox.cif.g08.bks.cpg/sg15_20_cif.got.tgz:38268.got - 2010.06.03 18:47:42.
