data_PCOD9298336
_publ_section_title
;
Structure prediction by ZEFSAII (Michael W. Deem and Ramdas Pophale) SiO2 
 PCOD9298336
Probable space group: C 2/C
;
_chemical_formula_sum "Si O2"
_cell_formula_units_Z 40
_cell_length_a 10.584840
_cell_length_b 10.173430
_cell_length_c 25.654403
_cell_angle_alpha 90.000000
_cell_angle_beta 41.501184
_cell_angle_gamma 90.000000
_cell_volume 1830.578372
_symmetry_space_group_name_H-M "C 2/C"
_symmetry_group_IT_number 15
_symmetry_cell_setting 'monoclinic'
loop_
_space_group_symop_operation_xyz
x,y,z
-x,y,1/2-z
-x,-y,-z
x,-y,1/2+z
1/2+x,1/2+y,z
1/2-x,1/2+y,1/2-z
1/2-x,1/2-y,-z
1/2+x,1/2-y,1/2+z
loop_
_atom_site_type_symbol
_atom_site_label
_atom_site_fract_x
_atom_site_fract_y
_atom_site_fract_z
Si Si1 0.766584 0.612584 0.715654
Si Si2 0.073438 0.653914 0.330862
Si Si3 0.285182 0.294218 0.618663
Si Si4 0.397696 0.716469 0.408019
Si Si5 0.543679 0.860809 0.960349
O O1 0.765675 0.458181 0.723815
O O2 0.656199 0.703609 0.790409
O O3 0.715685 0.666065 0.673365
O O4 0.989931 0.656282 0.647371
O O5 0.102137 0.631529 0.154338
O O6 0.005026 0.645335 0.411309
O O7 0.431223 0.360650 0.614841
O O8 0.412872 0.244221 0.531197
O O9 0.250000 0.750000 0.500000
O O10 0.267489 0.660172 0.403069
O O11 0.500000 0.000000 0.000000
#
# Coordination Sequence:
#
# PCOD9298336 Si02
#       5
#     8   8   8   8   8
#     4  10  24  44  67  96 144 173 224 289 337 409
#     4  12  23  44  70 103 132 182 228 278 353 403
#     4   9  21  44  66  91 134 175 226 278 334 407
#     4   8  18  41  62  92 130 172 215 280 332 392
#     4  11  20  41  71  96 133 179 229 280 342 404
#
# _framework density 21.851016000000001
#
# number of rings (size 3 to 8) (size 9 to 14) (size 15 to 20)
#    1.200    0.800    2.000    1.200    0.000    2.400 
#   10.800   11.000    0.000    0.000    0.000    0.000 
#    0.000    0.000    0.000    0.000    0.000    0.000 
#
# Total GULP energy -111396.710024 kJ/mol
# GULP energy per Si atom -5569.835501 kJ/mol
# Density = 2.180128 g / cm^3
# Si number density = 21.851016 Si / 1000 Ang^3
#
#
#
# Elastic Constant Matrix: (Units=GPa)
#
#
# Indices 1 2 3 4 5 6 
#
# 1 119.5895 17.0707 13.3448 0.0000 14.3162 0.0000
# 2 17.0707 48.4245 15.5571 0.0000 12.7787 0.0000
# 3 13.3448 15.5571 93.3752 0.0000 14.1755 0.0000
# 4 0.0000 0.0000 0.0000 35.1869 0.0000 -3.2408
# 5 14.3162 12.7787 14.1755 0.0000 29.0863 0.0000
# 6 0.0000 0.0000 0.0000 -3.2408 0.0000 22.5577
#
#
#
# Elastic Compliance Matrix: (Units=1/GPa)
#
#
# Indices 1 2 3 4 5 6 
#
# 1 0.009121 -0.002202 -0.000434 0.000000 -0.003310 0.000000
# 2 -0.002202 0.024453 -0.002476 0.000000 -0.008452 0.000000
# 3 -0.000434 -0.002476 0.011864 0.000000 -0.004481 0.000000
# 4 0.000000 0.000000 0.000000 0.028801 0.000000 0.004138
# 5 -0.003310 -0.008452 -0.004481 0.000000 0.041907 0.000000
# 6 0.000000 0.000000 0.000000 0.004138 0.000000 0.044925
#
#
# Mechanical properties :
#
#
# Convention : Reuss Voigt Hill
#
# Bulk Modulus (GPa) = 28.39846 39.25939 33.82892
# Shear Modulus (GPa) = 27.31729 31.72729 29.52229
#
# Velocity S-wave (km/s) = 3.53960 3.81462 3.67968
# Velocity P-wave (km/s) = 5.45249 6.11618 5.79384
#
# Compressibility (1/GPa) = 0.03521318
#
# Stress axis : x y z
#
# Youngs Moduli (GPa) = 109.63682 40.89457 84.28656
#
# Poissons Ratio (x) = 0.09007 0.03659
# Poissons Ratio (y) = 0.24146 0.20871
# Poissons Ratio (z) = 0.04759 0.10126
#
# Static dielectric constant tensor:
#      x y z
#    x 1.830650 0.000000 -0.036780 
#    y 0.000000 1.848260 0.000000 
#    z -0.036780 0.000000 1.830870 
# 
# From -- ./inp_files/273400.got.cif
#   From: 2010.05.17/outbox.cif.g08.bks.cpg/sg15_137_cif.got.tgz:273400.got - 2010.06.03 18:47:42.
