data_PCOD9298983
_publ_section_title
;
Structure prediction by ZEFSAII (Michael W. Deem and Ramdas Pophale) SiO2 
 PCOD9298983
Probable space group: C 2/C
;
_chemical_formula_sum "Si O2"
_cell_formula_units_Z 36
_cell_length_a 19.829221
_cell_length_b 5.265421
_cell_length_c 24.723180
_cell_angle_alpha 90.000000
_cell_angle_beta 147.040279
_cell_angle_gamma 90.000000
_cell_volume 1404.369381
_symmetry_space_group_name_H-M "C 2/C"
_symmetry_group_IT_number 15
_symmetry_cell_setting 'monoclinic'
loop_
_space_group_symop_operation_xyz
x,y,z
-x,y,1/2-z
-x,-y,-z
x,-y,1/2+z
1/2+x,1/2+y,z
1/2-x,1/2+y,1/2-z
1/2-x,1/2-y,-z
1/2+x,1/2-y,1/2+z
loop_
_atom_site_type_symbol
_atom_site_label
_atom_site_fract_x
_atom_site_fract_y
_atom_site_fract_z
Si Si1 0.751472 0.402773 0.112902
Si Si2 0.811972 0.128212 0.315452
Si Si3 0.000000 0.683180 0.250000
Si Si4 0.055715 0.424399 0.479438
Si Si5 0.383050 0.337859 0.066945
O O1 0.703383 0.562727 0.131546
O O2 0.886433 0.497809 0.189296
O O3 0.702797 0.122316 0.092296
O O4 0.664470 0.432153 0.001337
O O5 0.729342 0.368581 0.241862
O O6 0.951771 0.209237 0.395465
O O7 0.966786 0.856644 0.176194
O O8 0.056904 0.632473 0.433047
O O9 0.000000 0.500000 0.500000
O O10 0.250000 0.250000 0.000000
#
# Coordination Sequence:
#
# PCOD9298983 Si02
#       5
#     8   8   4   8   8
#     4  11  25  46  76 107 159 206 264 332 405 478
#     4  12  27  45  79 122 162 206 269 338 405 486
#     4  10  24  46  72 106 150 206 270 314 406 490
#     4  12  25  46  79 115 156 211 267 340 410 479
#     4  10  24  47  71 107 155 202 260 321 400 478
#
# _framework density 25.634283
#
# number of rings (size 3 to 8) (size 9 to 14) (size 15 to 20)
#    0.000    0.889    2.222    3.333    6.222    3.556 
#    0.000    5.556    0.000    0.000    0.000    0.000 
#    0.000    0.000    0.000    0.000    0.000    0.000 
#
# Total GULP energy -100543.266278 kJ/mol
# GULP energy per Si atom -5585.737015 kJ/mol
# Density = 2.557594 g / cm^3
# Si number density = 25.634283 Si / 1000 Ang^3
#
#
#
# Elastic Constant Matrix: (Units=GPa)
#
#
# Indices 1 2 3 4 5 6 
#
# 1 108.2760 -14.8002 30.8372 -0.0007 -8.0680 0.0069
# 2 -14.8002 53.0875 5.0665 0.0003 -20.5947 0.0220
# 3 30.8372 5.0665 117.2863 -0.0004 -14.2123 0.0058
# 4 -0.0007 0.0003 -0.0004 49.1939 -0.0009 20.1737
# 5 -8.0680 -20.5947 -14.2123 -0.0009 65.8295 0.0037
# 6 0.0069 0.0220 0.0058 20.1737 0.0037 -27.3089
#
#
#
# Elastic Compliance Matrix: (Units=1/GPa)
#
#
# Indices 1 2 3 4 5 6 
#
# 1 0.010715 0.004016 -0.002751 -0.000002 0.001976 0.000004
# 2 0.004016 0.022946 -0.001148 -0.000006 0.007423 0.000016
# 3 -0.002751 -0.001148 0.009462 0.000000 0.001347 0.000000
# 4 -0.000002 -0.000006 0.000000 0.015601 -0.000003 0.011525
# 5 0.001976 0.007423 0.001347 -0.000003 0.018046 0.000007
# 6 0.000004 0.000016 0.000000 0.011525 0.000007 -0.028104
#
#
# Mechanical properties :
#
#
# Convention : Reuss Voigt Hill
#
# Bulk Modulus (GPa) = 23.06371 35.65075 29.35723
# Shear Modulus (GPa) = 79.51032 34.71264 57.11148
#
# Velocity S-wave (km/s) = 5.57535 3.68387 4.72522
# Velocity P-wave (km/s) = 7.10372 5.65970 6.42242
#
# Compressibility (1/GPa) = 0.04335816
#
# Stress axis : x y z
#
# Youngs Moduli (GPa) = 93.32276 43.58101 105.68244
#
# Poissons Ratio (x) = -0.17504 0.29078
# Poissons Ratio (y) = -0.37483 0.12129
# Poissons Ratio (z) = 0.25677 0.05002
#
# Static dielectric constant tensor:
#      x y z
#    x 1.678760 -0.000050 -0.289660 
#    y -0.000050 4.624590 -0.000020 
#    z -0.289660 -0.000020 1.934720 
# 
# From -- ./inp_files/300176.got.cif
#   From: 2010.05.17/outbox.cif.g08.bks.cpg/sg15_151_cif.got.tgz:300176.got - 2010.06.03 18:47:42.
