data_PCOD9298092
_publ_section_title
;
Structure prediction by ZEFSAII (Michael W. Deem and Ramdas Pophale) SiO2 
 PCOD9298092
Probable space group: C 2/C
;
_chemical_formula_sum "Si O2"
_cell_formula_units_Z 56
_cell_length_a 12.494417
_cell_length_b 24.043966
_cell_length_c 9.254046
_cell_angle_alpha 90.000000
_cell_angle_beta 62.095122
_cell_angle_gamma 90.000000
_cell_volume 2456.808377
_symmetry_space_group_name_H-M "C 2/C"
_symmetry_group_IT_number 15
_symmetry_cell_setting 'monoclinic'
loop_
_space_group_symop_operation_xyz
x,y,z
-x,y,1/2-z
-x,-y,-z
x,-y,1/2+z
1/2+x,1/2+y,z
1/2-x,1/2+y,1/2-z
1/2-x,1/2-y,-z
1/2+x,1/2-y,1/2+z
loop_
_atom_site_type_symbol
_atom_site_label
_atom_site_fract_x
_atom_site_fract_y
_atom_site_fract_z
Si Si1 0.000000 0.864477 0.750000
Si Si2 0.241198 0.697618 0.403732
Si Si3 0.135574 0.048389 0.981653
Si Si4 0.344180 0.901100 0.858213
Si Si5 0.000000 0.493228 0.250000
Si Si6 0.877768 0.936608 0.342646
Si Si7 0.864514 0.277433 0.843835
Si Si8 0.872748 0.589723 0.997125
O O1 0.124132 0.829964 0.698920
O O2 0.038730 0.905107 0.592907
O O3 0.250000 0.750000 0.500000
O O4 0.186902 0.715107 0.284866
O O5 0.145696 0.653748 0.534230
O O6 0.162002 0.047261 0.794222
O O7 0.261156 0.061127 0.984510
O O8 0.093697 0.990222 0.075881
O O9 0.390594 0.841200 0.882446
O O10 0.349012 0.907120 0.682580
O O11 0.402674 0.960388 0.862535
O O12 0.214233 0.901926 0.008374
O O13 0.990400 0.446964 0.384575
O O14 0.000000 0.902924 0.250000
O O15 0.000000 0.250754 0.750000
O O16 0.750000 0.250000 0.000000
#
# Coordination Sequence:
#
# PCOD9298092 Si02
#       8
#     4   8   8   8   4   8   8   8
#     4  10  24  43  72  96 147 184 244 302 358 446
#     4  10  25  48  76 103 144 195 252 312 380 445
#     4  11  23  40  60  99 138 186 233 289 347 428
#     4  11  25  46  69 107 144 192 238 306 376 443
#     4  12  22  41  76 104 151 186 242 294 384 448
#     4  12  25  37  67  95 142 185 237 279 360 434
#     4  11  27  51  78 108 149 192 253 321 379 450
#     4  10  24  43  68 103 142 184 242 299 367 445
#
# _framework density 22.793800999999998
#
# number of rings (size 3 to 8) (size 9 to 14) (size 15 to 20)
#    0.000    1.143    2.857    1.714    8.000    4.571 
#    2.571    0.000    0.000    0.000    0.000    0.000 
#    0.000    0.000    0.000    0.000    0.000    0.000 
#
# Total GULP energy -155999.122067 kJ/mol
# GULP energy per Si atom -5571.397217 kJ/mol
# Density = 2.274192 g / cm^3
# Si number density = 22.793801 Si / 1000 Ang^3
#
#
#
# Elastic Constant Matrix: (Units=GPa)
#
#
# Indices 1 2 3 4 5 6 
#
# 1 80.9169 25.7217 24.6690 0.0000 -18.6738 0.0000
# 2 25.7217 121.9154 38.6009 0.0000 -12.4415 0.0000
# 3 24.6690 38.6009 102.0453 0.0000 -17.7090 0.0000
# 4 0.0000 0.0000 0.0000 29.9376 0.0000 1.9600
# 5 -18.6738 -12.4415 -17.7090 0.0000 45.3868 0.0000
# 6 0.0000 0.0000 0.0000 1.9600 0.0000 -20.6959
#
#
#
# Elastic Compliance Matrix: (Units=1/GPa)
#
#
# Indices 1 2 3 4 5 6 
#
# 1 0.014684 -0.001990 -0.001977 0.000000 0.004725 0.000000
# 2 -0.001990 0.009656 -0.003062 0.000000 0.000634 0.000000
# 3 -0.001977 -0.003062 0.011959 0.000000 0.003013 0.000000
# 4 0.000000 0.000000 0.000000 0.033197 0.000000 0.003144
# 5 0.004725 0.000634 0.003013 0.000000 0.025326 0.000000
# 6 0.000000 0.000000 0.000000 0.003144 0.000000 -0.048021
#
#
# Mechanical properties :
#
#
# Convention : Reuss Voigt Hill
#
# Bulk Modulus (GPa) = 44.96111 53.65123 49.30617
# Shear Modulus (GPa) = 73.23598 25.31809 49.27703
#
# Velocity S-wave (km/s) = 5.67446 3.33640 4.65463
# Velocity P-wave (km/s) = 7.91838 6.19926 7.11096
#
# Compressibility (1/GPa) = 0.02224145
#
# Stress axis : x y z
#
# Youngs Moduli (GPa) = 68.10126 103.55941 83.62176
#
# Poissons Ratio (x) = 0.20607 0.16533
# Poissons Ratio (y) = 0.13551 0.25602
# Poissons Ratio (z) = 0.13465 0.31707
#
# Static dielectric constant tensor:
#      x y z
#    x 2.009610 0.000000 -0.061340 
#    y 0.000000 1.896840 0.000000 
#    z -0.061340 0.000000 1.833700 
# 
# From -- ./inp_files/42574.got.cif
#   From: 2010.05.17/outbox.cif.g08.bks.cpg/sg15_22_cif.got.tgz:42574.got - 2010.06.03 18:47:42.
