data_PCOD9298469
_publ_section_title
;
Structure prediction by ZEFSAII (Michael W. Deem and Ramdas Pophale) SiO2 
 PCOD9298469
Probable space group: C 2/C
;
_chemical_formula_sum "Si O2"
_cell_formula_units_Z 36
_cell_length_a 15.541747
_cell_length_b 10.719954
_cell_length_c 10.580638
_cell_angle_alpha 90.000000
_cell_angle_beta 61.007559
_cell_angle_gamma 90.000000
_cell_volume 1541.897933
_symmetry_space_group_name_H-M "C 2/C"
_symmetry_group_IT_number 15
_symmetry_cell_setting 'monoclinic'
loop_
_space_group_symop_operation_xyz
x,y,z
-x,y,1/2-z
-x,-y,-z
x,-y,1/2+z
1/2+x,1/2+y,z
1/2-x,1/2+y,1/2-z
1/2-x,1/2-y,-z
1/2+x,1/2-y,1/2+z
loop_
_atom_site_type_symbol
_atom_site_label
_atom_site_fract_x
_atom_site_fract_y
_atom_site_fract_z
Si Si1 0.940406 0.465922 0.416558
Si Si2 0.961994 0.156475 0.647745
Si Si3 0.312338 0.151738 0.374916
Si Si4 0.500000 0.725107 0.250000
Si Si5 0.871055 0.093326 0.146172
O O1 0.842222 0.543088 0.454172
O O2 0.945618 0.317089 0.390293
O O3 0.000000 0.508141 0.250000
O O4 0.000000 0.500000 0.500000
O O5 0.898608 0.272832 0.740523
O O6 0.000000 0.095494 0.750000
O O7 0.062147 0.173904 0.499019
O O8 0.900381 0.052014 0.618185
O O9 0.250000 0.250000 0.500000
O O10 0.241153 0.103429 0.314306
O O11 0.412142 0.648613 0.247588
#
# Coordination Sequence:
#
# PCOD9298469 Si02
#       5
#     8   8   8   4   8
#     4  10  25  43  70 101 140 180 229 293 357 412
#     4  11  24  46  69  96 143 184 228 287 365 419
#     4  12  25  41  75 100 136 185 245 287 356 436
#     4  10  24  44  70  98 144 176 236 292 358 414
#     4  11  25  46  68 104 141 189 231 297 357 431
#
# _framework density 23.347850000000001
#
# number of rings (size 3 to 8) (size 9 to 14) (size 15 to 20)
#    0.667    0.444    3.333    2.000    6.222    0.000 
#    0.000    1.111    0.000    0.000    0.000    0.000 
#    0.000    0.000    0.000    0.000    0.000    0.000 
#
# Total GULP energy -100343.109083 kJ/mol
# GULP energy per Si atom -5574.617171 kJ/mol
# Density = 2.329471 g / cm^3
# Si number density = 23.347850 Si / 1000 Ang^3
#
#
#
# Elastic Constant Matrix: (Units=GPa)
#
#
# Indices 1 2 3 4 5 6 
#
# 1 184.9029 69.6887 13.6585 0.0000 27.1598 0.0000
# 2 69.6887 90.8354 -1.1244 0.0000 -2.4188 0.0000
# 3 13.6585 -1.1244 57.8893 0.0000 17.0113 0.0000
# 4 0.0000 0.0000 0.0000 -0.9373 0.0000 5.7609
# 5 27.1598 -2.4188 17.0113 0.0000 34.6830 0.0000
# 6 0.0000 0.0000 0.0000 5.7609 0.0000 45.7503
#
#
#
# Elastic Compliance Matrix: (Units=1/GPa)
#
#
# Indices 1 2 3 4 5 6 
#
# 1 0.009336 -0.007371 -0.000054 0.000000 -0.007798 0.000000
# 2 -0.007371 0.016849 0.000029 0.000000 0.006933 0.000000
# 3 -0.000054 0.000029 0.020184 0.000000 -0.009855 0.000000
# 4 0.000000 0.000000 0.000000 -0.601441 0.000000 0.075733
# 5 -0.007798 0.006933 -0.009855 0.000000 0.040256 0.000000
# 6 0.000000 0.000000 0.000000 0.075733 0.000000 0.012321
#
#
# Mechanical properties :
#
#
# Convention : Reuss Voigt Hill
#
# Bulk Modulus (GPa) = 31.66926 55.34145 43.50536
# Shear Modulus (GPa) = -10.47827 32.65951 11.09062
#
# Velocity S-wave (km/s) = -2.12076 3.74414 2.18185
# Velocity P-wave (km/s) = 2.75621 6.51505 5.00213
#
# Compressibility (1/GPa) = 0.03157636
#
# Stress axis : x y z
#
# Youngs Moduli (GPa) = 107.11691 59.35223 49.54477
#
# Poissons Ratio (x) = 0.43746 0.00269
# Poissons Ratio (y) = 0.78951 -0.00144
# Poissons Ratio (z) = 0.00582 -0.00173
#
# Static dielectric constant tensor:
#      x y z
#    x 1.425810 0.000000 0.313870 
#    y 0.000000 1.915290 0.000000 
#    z 0.313870 0.000000 1.726590 
# 
# From -- ./inp_files/94387.got.cif
#   From: 2010.05.17/outbox.cif.g08.bks.cpg/sg15_48_cif.got.tgz:94387.got - 2010.06.03 18:47:42.
