data_PCOD9298651
_publ_section_title
;
Structure prediction by ZEFSAII (Michael W. Deem and Ramdas Pophale) SiO2 
 PCOD9298651
Probable space group: C 2/C
;
_chemical_formula_sum "Si O2"
_cell_formula_units_Z 36
_cell_length_a 7.930150
_cell_length_b 26.470634
_cell_length_c 8.319502
_cell_angle_alpha 90.000000
_cell_angle_beta 77.580063
_cell_angle_gamma 90.000000
_cell_volume 1705.527331
_symmetry_space_group_name_H-M "C 2/C"
_symmetry_group_IT_number 15
_symmetry_cell_setting 'monoclinic'
loop_
_space_group_symop_operation_xyz
x,y,z
-x,y,1/2-z
-x,-y,-z
x,-y,1/2+z
1/2+x,1/2+y,z
1/2-x,1/2+y,1/2-z
1/2-x,1/2-y,-z
1/2+x,1/2-y,1/2+z
loop_
_atom_site_type_symbol
_atom_site_label
_atom_site_fract_x
_atom_site_fract_y
_atom_site_fract_z
Si Si1 0.425215 0.386863 0.089036
Si Si2 0.271621 0.074490 0.403635
Si Si3 0.691249 0.024582 0.767430
Si Si4 0.000000 0.341479 0.750000
Si Si5 0.185625 0.797939 0.615981
O O1 0.500000 0.370308 0.250000
O O2 0.320917 0.438349 0.146370
O O3 0.586747 0.400240 0.944704
O O4 0.328104 0.343562 0.010985
O O5 0.286661 0.038613 0.553079
O O6 0.410873 0.118751 0.389570
O O7 0.286856 0.035458 0.255454
O O8 0.500000 0.037077 0.750000
O O9 0.842207 0.310843 0.706184
O O10 0.250000 0.750000 0.500000
O O11 0.000000 0.791798 0.750000
#
# Coordination Sequence:
#
# PCOD9298651 Si02
#       5
#     8   8   8   4   8
#     4  10  24  45  68 102 144 188 239 293 349 420
#     4  11  23  40  66 101 147 188 232 285 340 428
#     4  11  22  36  64 103 143 192 235 278 342 417
#     4  12  26  48  76 104 140 186 238 290 368 420
#     4  12  29  50  79 106 139 186 241 312 366 434
#
# _framework density 21.107841000000001
#
# number of rings (size 3 to 8) (size 9 to 14) (size 15 to 20)
#    0.000    0.889    3.333    2.667    4.667    5.333 
#    0.000    0.000    0.000    0.000    0.000    0.000 
#    0.000    0.000    0.000    0.000    0.000    0.000 
#
# Total GULP energy -100540.838548 kJ/mol
# GULP energy per Si atom -5585.602142 kJ/mol
# Density = 2.105980 g / cm^3
# Si number density = 21.107841 Si / 1000 Ang^3
#
#
#
# Elastic Constant Matrix: (Units=GPa)
#
#
# Indices 1 2 3 4 5 6 
#
# 1 139.7946 58.1661 39.1527 0.0000 -5.1090 0.0000
# 2 58.1661 99.8691 42.3479 0.0000 6.6740 0.0000
# 3 39.1527 42.3479 52.6810 0.0000 -5.3681 0.0000
# 4 0.0000 0.0000 0.0000 65.3424 0.0000 -37.3722
# 5 -5.1090 6.6740 -5.3681 0.0000 38.5610 0.0000
# 6 0.0000 0.0000 0.0000 -37.3722 0.0000 51.2034
#
#
#
# Elastic Compliance Matrix: (Units=1/GPa)
#
#
# Indices 1 2 3 4 5 6 
#
# 1 0.010100 -0.004355 -0.003847 0.000000 0.001556 0.000000
# 2 -0.004355 0.017840 -0.011642 0.000000 -0.005285 0.000000
# 3 -0.003847 -0.011642 0.031804 0.000000 0.005933 0.000000
# 4 0.000000 0.000000 0.000000 0.026271 0.000000 0.019174
# 5 0.001556 -0.005285 0.005933 0.000000 0.027880 0.000000
# 6 0.000000 0.000000 0.000000 0.019174 0.000000 0.033525
#
#
# Mechanical properties :
#
#
# Convention : Reuss Voigt Hill
#
# Bulk Modulus (GPa) = 49.86175 63.51980 56.69078
# Shear Modulus (GPa) = 25.80086 41.19988 33.50037
#
# Velocity S-wave (km/s) = 3.49998 4.42280 3.98817
# Velocity P-wave (km/s) = 6.32510 7.49932 6.93710
#
# Compressibility (1/GPa) = 0.02005545
#
# Stress axis : x y z
#
# Youngs Moduli (GPa) = 99.01298 56.05508 31.44245
#
# Poissons Ratio (x) = 0.24413 0.12094
# Poissons Ratio (y) = 0.43123 0.36606
# Poissons Ratio (z) = 0.38086 0.65260
#
# Static dielectric constant tensor:
#      x y z
#    x 1.827460 0.000000 -0.002050 
#    y 0.000000 1.779670 0.000000 
#    z -0.002050 0.000000 1.823830 
# 
# From -- ./inp_files/23319.got.cif
#   From: 2010.05.17/outbox.cif.g08.bks.cpg/sg15_12_cif.got.tgz:23319.got - 2010.06.03 18:47:42.
