data_PCOD9298992
_publ_section_title
;
Structure prediction by ZEFSAII (Michael W. Deem and Ramdas Pophale) SiO2 
 PCOD9298992
Probable space group: C 2/C
;
_chemical_formula_sum "Si O2"
_cell_formula_units_Z 32
_cell_length_a 12.207827
_cell_length_b 13.450664
_cell_length_c 10.382329
_cell_angle_alpha 90.000000
_cell_angle_beta 50.183059
_cell_angle_gamma 90.000000
_cell_volume 1309.457408
_symmetry_space_group_name_H-M "C 2/C"
_symmetry_group_IT_number 15
_symmetry_cell_setting 'monoclinic'
loop_
_space_group_symop_operation_xyz
x,y,z
-x,y,1/2-z
-x,-y,-z
x,-y,1/2+z
1/2+x,1/2+y,z
1/2-x,1/2+y,1/2-z
1/2-x,1/2-y,-z
1/2+x,1/2-y,1/2+z
loop_
_atom_site_type_symbol
_atom_site_label
_atom_site_fract_x
_atom_site_fract_y
_atom_site_fract_z
Si Si1 0.548145 0.564357 0.347346
Si Si2 0.313601 0.817628 0.062147
Si Si3 0.390799 0.753483 0.553334
Si Si4 0.352366 0.037910 0.048782
O O1 0.500000 0.516281 0.250000
O O2 0.500000 0.500000 0.500000
O O3 0.459377 0.665560 0.420232
O O4 0.717950 0.569470 0.237358
O O5 0.231853 0.792136 0.259772
O O6 0.301212 0.933355 0.028448
O O7 0.250000 0.750000 0.000000
O O8 0.479859 0.790551 0.952998
O O9 0.369591 0.851343 0.476921
O O10 0.500000 0.000000 0.000000
#
# Coordination Sequence:
#
# PCOD9298992 Si02
#       4
#     8   8   8   8
#     4  12  27  47  78 111 148 204 261 320 390 463
#     4  11  23  41  73 108 148 201 259 318 381 458
#     4  11  23  45  68 105 153 193 259 317 388 457
#     4  10  24  46  72 110 155 200 254 324 391 460
#
# _framework density 24.437601999999998
#
# number of rings (size 3 to 8) (size 9 to 14) (size 15 to 20)
#    0.000    1.000    5.000    0.750    3.500    1.000 
#    0.000    6.250    0.000    0.000    0.000    0.000 
#    0.000    0.000    0.000    0.000    0.000    0.000 
#
# Total GULP energy -89142.527457 kJ/mol
# GULP energy per Si atom -5571.407966 kJ/mol
# Density = 2.438198 g / cm^3
# Si number density = 24.437602 Si / 1000 Ang^3
#
#
#
# Elastic Constant Matrix: (Units=GPa)
#
#
# Indices 1 2 3 4 5 6 
#
# 1 49.7254 38.6694 34.0013 0.0000 -4.4191 0.0000
# 2 38.6694 169.3164 30.3278 0.0000 6.1050 0.0000
# 3 34.0013 30.3278 106.7981 0.0000 -16.6793 0.0000
# 4 0.0000 0.0000 0.0000 36.6916 0.0000 -9.9150
# 5 -4.4191 6.1050 -16.6793 0.0000 49.8700 0.0000
# 6 0.0000 0.0000 0.0000 -9.9150 0.0000 30.0996
#
#
#
# Elastic Compliance Matrix: (Units=1/GPa)
#
#
# Indices 1 2 3 4 5 6 
#
# 1 0.029729 -0.005413 -0.007821 0.000000 0.000681 0.000000
# 2 -0.005413 0.007306 -0.000597 0.000000 -0.001574 0.000000
# 3 -0.007821 -0.000597 0.012584 0.000000 0.003589 0.000000
# 4 0.000000 0.000000 0.000000 0.029917 0.000000 0.009855
# 5 0.000681 -0.001574 0.003589 0.000000 0.021505 0.000000
# 6 0.000000 0.000000 0.000000 0.009855 0.000000 0.036469
#
#
# Mechanical properties :
#
#
# Convention : Reuss Voigt Hill
#
# Bulk Modulus (GPa) = 45.54710 59.09299 52.32004
# Shear Modulus (GPa) = 28.98692 38.18832 33.58762
#
# Velocity S-wave (km/s) = 3.44780 3.95737 3.71134
# Velocity P-wave (km/s) = 5.87609 6.71675 6.31043
#
# Compressibility (1/GPa) = 0.02195530
#
# Stress axis : x y z
#
# Youngs Moduli (GPa) = 33.63767 136.87188 79.46913
#
# Poissons Ratio (x) = 0.74092 0.62154
# Poissons Ratio (y) = 0.18209 0.04745
# Poissons Ratio (z) = 0.26308 0.08173
#
# Static dielectric constant tensor:
#      x y z
#    x 1.878310 0.000000 -0.023410 
#    y 0.000000 1.961060 0.000000 
#    z -0.023410 0.000000 1.939670 
# 
# From -- ./inp_files/95966.got.cif
#   From: 2010.05.17/outbox.cif.g08.bks.cpg/sg15_48_cif.got.tgz:95966.got - 2010.06.03 18:47:42.
