data_PCOD9298520
_publ_section_title
;
Structure prediction by ZEFSAII (Michael W. Deem and Ramdas Pophale) SiO2 
 PCOD9298520
Probable space group: C 2/C
;
_chemical_formula_sum "Si O2"
_cell_formula_units_Z 40
_cell_length_a 28.061787
_cell_length_b 5.217155
_cell_length_c 18.406981
_cell_angle_alpha 90.000000
_cell_angle_beta 140.922410
_cell_angle_gamma 90.000000
_cell_volume 1698.746978
_symmetry_space_group_name_H-M "C 2/C"
_symmetry_group_IT_number 15
_symmetry_cell_setting 'monoclinic'
loop_
_space_group_symop_operation_xyz
x,y,z
-x,y,1/2-z
-x,-y,-z
x,-y,1/2+z
1/2+x,1/2+y,z
1/2-x,1/2+y,1/2-z
1/2-x,1/2-y,-z
1/2+x,1/2-y,1/2+z
loop_
_atom_site_type_symbol
_atom_site_label
_atom_site_fract_x
_atom_site_fract_y
_atom_site_fract_z
Si Si1 0.068941 0.642002 0.455658
Si Si2 0.336908 0.317504 0.801541
Si Si3 0.185655 0.697300 0.046562
Si Si4 0.102594 0.685600 0.205768
Si Si5 0.847621 0.797376 0.072523
O O1 0.132931 0.768018 0.582273
O O2 0.101899 0.356233 0.480168
O O3 0.075926 0.771055 0.385265
O O4 0.988114 0.667254 0.395510
O O5 0.247362 0.297592 0.682864
O O6 0.369261 0.587100 0.812528
O O7 0.369445 0.087288 0.790391
O O8 0.199890 0.442364 0.015124
O O9 0.187985 0.938045 0.996126
O O10 0.133977 0.753679 0.322576
#
# Coordination Sequence:
#
# PCOD9298520 Si02
#       5
#     8   8   8   8   8
#     4  10  27  45  71  96 139 181 230 267 339 407
#     4  12  27  42  73 101 141 171 230 280 345 385
#     4  10  25  43  72  97 132 182 226 273 331 410
#     4  12  26  45  68 105 137 179 219 291 333 397
#     4  10  24  44  72  94 138 177 233 263 340 402
#
# _framework density 23.546766999999999
#
# number of rings (size 3 to 8) (size 9 to 14) (size 15 to 20)
#    1.200    0.000    0.000    4.200    8.400    4.800 
#    3.600    0.000    0.000    0.000    0.000    0.000 
#    0.000    0.000    0.000    0.000    0.000    0.000 
#
# Total GULP energy -111878.947743 kJ/mol
# GULP energy per Si atom -5593.947387 kJ/mol
# Density = 2.349317 g / cm^3
# Si number density = 23.546767 Si / 1000 Ang^3
#
#
#
# Elastic Constant Matrix: (Units=GPa)
#
#
# Indices 1 2 3 4 5 6 
#
# 1 72.3985 11.4921 22.3503 0.0049 5.9539 -0.0031
# 2 11.4921 115.5623 27.7894 0.0274 12.0922 -0.0162
# 3 22.3503 27.7894 111.3689 0.0011 -11.4829 -0.0005
# 4 0.0049 0.0274 0.0011 109.2898 0.0000 -55.5506
# 5 5.9539 12.0922 -11.4829 0.0000 49.8402 -0.0008
# 6 -0.0031 -0.0162 -0.0005 -55.5506 -0.0008 63.3989
#
#
#
# Elastic Compliance Matrix: (Units=1/GPa)
#
#
# Indices 1 2 3 4 5 6 
#
# 1 0.015060 -0.000489 -0.003148 0.000000 -0.002406 0.000000
# 2 -0.000489 0.009628 -0.002601 -0.000002 -0.002877 0.000001
# 3 -0.003148 -0.002601 0.010616 0.000001 0.003453 0.000000
# 4 0.000000 -0.000002 0.000001 0.016497 0.000001 0.014455
# 5 -0.002406 -0.002877 0.003453 0.000001 0.021845 0.000000
# 6 0.000000 0.000001 0.000000 0.014455 0.000000 0.028439
#
#
# Mechanical properties :
#
#
# Convention : Reuss Voigt Hill
#
# Bulk Modulus (GPa) = 43.80618 46.95481 45.38049
# Shear Modulus (GPa) = 40.92610 60.35230 50.63920
#
# Velocity S-wave (km/s) = 4.17355 5.06818 4.64247
# Velocity P-wave (km/s) = 6.47062 7.36431 6.93188
#
# Compressibility (1/GPa) = 0.02282783
#
# Stress axis : x y z
#
# Youngs Moduli (GPa) = 66.40185 103.85861 94.19669
#
# Poissons Ratio (x) = 0.05076 0.29657
# Poissons Ratio (y) = 0.03246 0.24501
# Poissons Ratio (z) = 0.20906 0.27015
#
# Static dielectric constant tensor:
#      x y z
#    x 1.924460 0.000000 0.016120 
#    y 0.000000 1.885670 0.000000 
#    z 0.016120 0.000000 1.853060 
# 
# From -- ./inp_files/223734.got.cif
#   From: 2010.05.17/outbox.cif.g08.bks.cpg/sg15_112_cif.got.tgz:223734.got - 2010.06.03 18:47:42.
