data_PCOD9298824
_publ_section_title
;
Structure prediction by ZEFSAII (Michael W. Deem and Ramdas Pophale) SiO2 
 PCOD9298824
Probable space group: C 2/C
;
_chemical_formula_sum "Si O2"
_cell_formula_units_Z 52
_cell_length_a 11.333754
_cell_length_b 17.008918
_cell_length_c 13.903789
_cell_angle_alpha 90.000000
_cell_angle_beta 55.073708
_cell_angle_gamma 90.000000
_cell_volume 2197.550307
_symmetry_space_group_name_H-M "C 2/C"
_symmetry_group_IT_number 15
_symmetry_cell_setting 'monoclinic'
loop_
_space_group_symop_operation_xyz
x,y,z
-x,y,1/2-z
-x,-y,-z
x,-y,1/2+z
1/2+x,1/2+y,z
1/2-x,1/2+y,1/2-z
1/2-x,1/2-y,-z
1/2+x,1/2-y,1/2+z
loop_
_atom_site_type_symbol
_atom_site_label
_atom_site_fract_x
_atom_site_fract_y
_atom_site_fract_z
Si Si1 0.838494 0.880762 0.198423
Si Si2 0.801147 0.447399 0.823808
Si Si3 0.500000 0.493238 0.750000
Si Si4 0.056452 0.636694 0.095136
Si Si5 0.960901 0.301062 0.111406
Si Si6 0.500000 0.263865 0.250000
Si Si7 0.484562 0.615201 0.428631
Si Si8 0.500000 0.909169 0.250000
O O1 0.694919 0.828576 0.277430
O O2 0.950056 0.817149 0.187476
O O3 0.886844 0.897353 0.067449
O O4 0.878458 0.953146 0.252733
O O5 0.836043 0.431403 0.920743
O O6 0.640218 0.422143 0.880435
O O7 0.903157 0.394303 0.706581
O O8 0.872378 0.532931 0.772180
O O9 0.567200 0.435051 0.638705
O O10 0.107816 0.707187 0.141635
O O11 0.039393 0.666045 0.996475
O O12 0.995167 0.208693 0.100097
O O13 0.057750 0.353448 0.137805
#
# Coordination Sequence:
#
# PCOD9298824 Si02
#       8
#     8   8   4   8   8   4   8   4
#     4  11  25  43  70 104 135 183 232 280 343 409
#     4   9  22  42  67  96 137 177 234 276 339 405
#     4  11  27  48  65 103 144 182 228 267 369 402
#     4   9  19  38  66 101 131 173 228 286 335 388
#     4  12  24  43  72 101 138 177 233 288 340 406
#     4   9  17  38  61 101 126 172 226 275 331 392
#     4  12  25  47  72 101 141 184 226 288 339 419
#     4  10  24  46  62 102 136 180 226 278 348 406
#
# _framework density 23.662711999999999
#
# number of rings (size 3 to 8) (size 9 to 14) (size 15 to 20)
#    0.000    1.846    1.538    3.692    4.308    3.692 
#    8.308    1.538    0.000    0.000    0.000    0.000 
#    0.000    0.000    0.000    0.000    0.000    0.000 
#
# Total GULP energy -144953.119911 kJ/mol
# GULP energy per Si atom -5575.119997 kJ/mol
# Density = 2.360886 g / cm^3
# Si number density = 23.662712 Si / 1000 Ang^3
#
#
#
# Elastic Constant Matrix: (Units=GPa)
#
#
# Indices 1 2 3 4 5 6 
#
# 1 51.6602 28.1077 38.3604 0.0000 -0.6477 0.0000
# 2 28.1077 162.7261 67.9082 0.0000 16.5065 0.0000
# 3 38.3604 67.9082 135.2207 0.0000 23.6292 0.0000
# 4 0.0000 0.0000 0.0000 34.7972 0.0000 17.8402
# 5 -0.6477 16.5065 23.6292 0.0000 44.7715 0.0000
# 6 0.0000 0.0000 0.0000 17.8402 0.0000 -46.0290
#
#
#
# Elastic Compliance Matrix: (Units=1/GPa)
#
#
# Indices 1 2 3 4 5 6 
#
# 1 0.025829 -0.001952 -0.007202 0.000000 0.004895 0.000000
# 2 -0.001952 0.007954 -0.003220 0.000000 -0.001261 0.000000
# 3 -0.007202 -0.003220 0.011971 0.000000 -0.005235 0.000000
# 4 0.000000 0.000000 0.000000 0.023974 0.000000 0.009292
# 5 0.004895 -0.001261 -0.005235 0.000000 0.025634 0.000000
# 6 0.000000 0.000000 0.000000 0.009292 0.000000 -0.018124
#
#
# Mechanical properties :
#
#
# Convention : Reuss Voigt Hill
#
# Bulk Modulus (GPa) = 47.61032 68.70663 58.15847
# Shear Modulus (GPa) = 45.87612 21.05666 33.46639
#
# Velocity S-wave (km/s) = 4.40790 2.98630 3.76481
# Velocity P-wave (km/s) = 6.78750 6.40230 6.59772
#
# Compressibility (1/GPa) = 0.02100385
#
# Stress axis : x y z
#
# Youngs Moduli (GPa) = 38.71639 125.71634 83.53842
#
# Poissons Ratio (x) = 0.24544 0.60166
# Poissons Ratio (y) = 0.07559 0.26903
# Poissons Ratio (z) = 0.27884 0.40487
#
# Static dielectric constant tensor:
#      x y z
#    x 2.064750 0.000000 0.037910 
#    y 0.000000 2.016060 0.000000 
#    z 0.037910 0.000000 1.868140 
# 
# From -- ./inp_files/153895.got.cif
#   From: 2010.05.17/outbox.cif.g08.bks.cpg/sg15_77_cif.got.tgz:153895.got - 2010.06.03 18:47:42.
