data_PCOD9298431
_publ_section_title
;
Structure prediction by ZEFSAII (Michael W. Deem and Ramdas Pophale) SiO2 
 PCOD9298431
Probable space group: C 2/C
;
_chemical_formula_sum "Si O2"
_cell_formula_units_Z 40
_cell_length_a 8.954369
_cell_length_b 13.801797
_cell_length_c 13.913960
_cell_angle_alpha 90.000000
_cell_angle_beta 100.776219
_cell_angle_gamma 90.000000
_cell_volume 1689.251167
_symmetry_space_group_name_H-M "C 2/C"
_symmetry_group_IT_number 15
_symmetry_cell_setting 'monoclinic'
loop_
_space_group_symop_operation_xyz
x,y,z
-x,y,1/2-z
-x,-y,-z
x,-y,1/2+z
1/2+x,1/2+y,z
1/2-x,1/2+y,1/2-z
1/2-x,1/2-y,-z
1/2+x,1/2-y,1/2+z
loop_
_atom_site_type_symbol
_atom_site_label
_atom_site_fract_x
_atom_site_fract_y
_atom_site_fract_z
Si Si1 0.330798 0.467728 0.955214
Si Si2 0.306846 0.853530 0.404476
Si Si3 0.173116 0.461527 0.732460
Si Si4 0.344716 0.840181 0.049979
Si Si5 0.174764 0.774720 0.767768
O O1 0.287690 0.459037 0.837983
O O2 0.224288 0.555627 0.977307
O O3 0.500000 0.500000 0.000000
O O4 0.294538 0.373876 0.015053
O O5 0.480460 0.839718 0.457845
O O6 0.273164 0.764978 0.329160
O O7 0.299567 0.949309 0.335652
O O8 0.211862 0.359113 0.686577
O O9 0.000000 0.464426 0.750000
O O10 0.335076 0.817833 0.163226
O O11 0.250000 0.750000 0.000000
O O12 0.000000 0.811919 0.750000
#
# Coordination Sequence:
#
# PCOD9298431 Si02
#       5
#     8   8   8   8   8
#     4  12  28  43  70 105 140 186 241 298 361 427
#     4  11  24  49  70  99 147 190 238 298 358 431
#     4  12  25  46  71 101 142 188 234 291 366 426
#     4  11  23  45  73 101 136 189 241 287 356 432
#     4  10  24  44  70 101 139 186 235 293 357 428
#
# _framework density 23.679131999999999
#
# number of rings (size 3 to 8) (size 9 to 14) (size 15 to 20)
#    0.000    0.800    4.000    2.400   11.200    2.400 
#    0.000    0.000    0.000    0.000    0.000    0.000 
#    0.000    0.000    0.000    0.000    0.000    0.000 
#
# Total GULP energy -111947.290619 kJ/mol
# GULP energy per Si atom -5597.364531 kJ/mol
# Density = 2.362524 g / cm^3
# Si number density = 23.679132 Si / 1000 Ang^3
#
#
#
# Elastic Constant Matrix: (Units=GPa)
#
#
# Indices 1 2 3 4 5 6 
#
# 1 46.0403 8.5797 46.0829 0.0000 4.8594 0.0000
# 2 8.5797 90.3489 9.7518 0.0000 -4.5738 0.0000
# 3 46.0829 9.7518 99.7562 0.0000 1.6612 0.0000
# 4 0.0000 0.0000 0.0000 52.5276 0.0000 -1.5945
# 5 4.8594 -4.5738 1.6612 0.0000 33.7244 0.0000
# 6 0.0000 0.0000 0.0000 -1.5945 0.0000 46.8700
#
#
#
# Elastic Compliance Matrix: (Units=1/GPa)
#
#
# Indices 1 2 3 4 5 6 
#
# 1 0.041647 -0.002183 -0.018936 0.000000 -0.005364 0.000000
# 2 -0.002183 0.011385 -0.000136 0.000000 0.001865 0.000000
# 3 -0.018936 -0.000136 0.018756 0.000000 0.001786 0.000000
# 4 0.000000 0.000000 0.000000 0.019057 0.000000 0.000648
# 5 -0.005364 0.001865 0.001786 0.000000 0.030590 0.000000
# 6 0.000000 0.000000 0.000000 0.000648 0.000000 0.021358
#
#
# Mechanical properties :
#
#
# Convention : Reuss Voigt Hill
#
# Bulk Modulus (GPa) = 34.15545 40.55269 37.35407
# Shear Modulus (GPa) = 25.63315 38.07315 31.85315
#
# Velocity S-wave (km/s) = 3.29374 4.01419 3.67167
# Velocity P-wave (km/s) = 5.37778 6.21675 5.81242
#
# Compressibility (1/GPa) = 0.02927790
#
# Stress axis : x y z
#
# Youngs Moduli (GPa) = 24.01154 87.83851 53.31735
#
# Poissons Ratio (x) = 0.19171 1.00963
# Poissons Ratio (y) = 0.05241 0.00724
# Poissons Ratio (z) = 0.45469 0.01192
#
# Static dielectric constant tensor:
#      x y z
#    x 1.888150 0.000000 0.052720 
#    y 0.000000 1.895140 0.000000 
#    z 0.052720 0.000000 2.161030 
# 
# From -- ./inp_files/133053.got.cif
#   From: 2010.05.17/outbox.cif.g08.bks.cpg/sg15_67_cif.got.tgz:133053.got - 2010.06.03 18:47:42.
