data_PCOD9298952
_publ_section_title
;
Structure prediction by ZEFSAII (Michael W. Deem and Ramdas Pophale) SiO2 
 PCOD9298952
Probable space group: C 2/C
;
_chemical_formula_sum "Si O2"
_cell_formula_units_Z 32
_cell_length_a 18.018413
_cell_length_b 9.050810
_cell_length_c 13.615893
_cell_angle_alpha 90.000000
_cell_angle_beta 34.631677
_cell_angle_gamma 90.000000
_cell_volume 1261.905436
_symmetry_space_group_name_H-M "C 2/C"
_symmetry_group_IT_number 15
_symmetry_cell_setting 'monoclinic'
loop_
_space_group_symop_operation_xyz
x,y,z
-x,y,1/2-z
-x,-y,-z
x,-y,1/2+z
1/2+x,1/2+y,z
1/2-x,1/2+y,1/2-z
1/2-x,1/2-y,-z
1/2+x,1/2-y,1/2+z
loop_
_atom_site_type_symbol
_atom_site_label
_atom_site_fract_x
_atom_site_fract_y
_atom_site_fract_z
Si Si1 0.807799 0.944194 0.493316
Si Si2 0.059227 0.868237 0.499979
Si Si3 0.210026 0.637672 0.894645
Si Si4 0.471803 0.930153 0.164900
O O1 0.848179 0.785322 0.492503
O O2 0.795209 0.935476 0.390147
O O3 0.898360 0.067100 0.441458
O O4 0.661896 0.979238 0.690871
O O5 0.192312 0.824048 0.298785
O O6 0.969489 0.726265 0.612836
O O7 0.000000 0.000000 0.500000
O O8 0.093740 0.527091 0.994957
O O9 0.500000 0.903433 0.250000
#
# Coordination Sequence:
#
# PCOD9298952 Si02
#       4
#     8   8   8   8
#     4  10  25  47  71  98 143 177 232 290 340 414
#     4  12  28  40  69 105 138 186 231 280 346 413
#     4  10  24  46  71 101 133 186 230 285 349 402
#     4  10  25  47  73 100 140 186 232 288 346 410
#
# _framework density 25.358477000000001
#
# number of rings (size 3 to 8) (size 9 to 14) (size 15 to 20)
#    0.000    1.500    0.000    1.500   14.000    4.000 
#    0.000    0.000    0.000    0.000    0.000    0.000 
#    0.000    0.000    0.000    0.000    0.000    0.000 
#
# Total GULP energy -89786.854122 kJ/mol
# GULP energy per Si atom -5611.678383 kJ/mol
# Density = 2.530076 g / cm^3
# Si number density = 25.358477 Si / 1000 Ang^3
#
#
#
# Elastic Constant Matrix: (Units=GPa)
#
#
# Indices 1 2 3 4 5 6 
#
# 1 74.7194 38.6306 11.4576 0.0000 7.0716 0.0000
# 2 38.6306 130.1261 17.7723 0.0000 -3.0450 0.0000
# 3 11.4576 17.7723 104.6457 0.0000 9.7564 0.0000
# 4 0.0000 0.0000 0.0000 37.5209 0.0000 0.4882
# 5 7.0716 -3.0450 9.7564 0.0000 33.0056 0.0000
# 6 0.0000 0.0000 0.0000 0.4882 0.0000 50.5217
#
#
#
# Elastic Compliance Matrix: (Units=1/GPa)
#
#
# Indices 1 2 3 4 5 6 
#
# 1 0.016345 -0.004857 -0.000613 0.000000 -0.003769 0.000000
# 2 -0.004857 0.009353 -0.001269 0.000000 0.002279 0.000000
# 3 -0.000613 -0.001269 0.010116 0.000000 -0.002976 0.000000
# 4 0.000000 0.000000 0.000000 0.026655 0.000000 -0.000258
# 5 -0.003769 0.002279 -0.002976 0.000000 0.032195 0.000000
# 6 0.000000 0.000000 0.000000 -0.000258 0.000000 0.019796
#
#
# Mechanical properties :
#
#
# Convention : Reuss Voigt Hill
#
# Bulk Modulus (GPa) = 44.77086 49.46801 47.11944
# Shear Modulus (GPa) = 36.93163 40.31835 38.62499
#
# Velocity S-wave (km/s) = 3.82040 3.99173 3.90700
# Velocity P-wave (km/s) = 6.09542 6.38710 6.24296
#
# Compressibility (1/GPa) = 0.02233596
#
# Stress axis : x y z
#
# Youngs Moduli (GPa) = 61.18019 106.91341 98.85104
#
# Poissons Ratio (x) = 0.51926 0.06064
# Poissons Ratio (y) = 0.29714 0.12546
# Poissons Ratio (z) = 0.03753 0.13569
#
# Static dielectric constant tensor:
#      x y z
#    x 2.015180 0.000000 0.027020 
#    y 0.000000 1.927930 0.000000 
#    z 0.027020 0.000000 1.955380 
# 
# From -- ./inp_files/172224.got.cif
#   From: 2010.05.17/outbox.cif.g08.bks.cpg/sg15_87_cif.got.tgz:172224.got - 2010.06.03 18:47:42.
