data_PCOD9298224
_publ_section_title
;
Structure prediction by ZEFSAII (Michael W. Deem and Ramdas Pophale) SiO2 
 PCOD9298224
Probable space group: C 2/C
;
_chemical_formula_sum "Si O2"
_cell_formula_units_Z 36
_cell_length_a 10.238772
_cell_length_b 9.128199
_cell_length_c 17.096102
_cell_angle_alpha 90.000000
_cell_angle_beta 87.930935
_cell_angle_gamma 90.000000
_cell_volume 1596.786432
_symmetry_space_group_name_H-M "C 2/C"
_symmetry_group_IT_number 15
_symmetry_cell_setting 'monoclinic'
loop_
_space_group_symop_operation_xyz
x,y,z
-x,y,1/2-z
-x,-y,-z
x,-y,1/2+z
1/2+x,1/2+y,z
1/2-x,1/2+y,1/2-z
1/2-x,1/2-y,-z
1/2+x,1/2-y,1/2+z
loop_
_atom_site_type_symbol
_atom_site_label
_atom_site_fract_x
_atom_site_fract_y
_atom_site_fract_z
Si Si1 0.034283 0.170533 0.004411
Si Si2 0.639351 0.815076 0.720187
Si Si3 0.500000 0.896962 0.250000
Si Si4 0.722433 0.828332 0.888010
Si Si5 0.664316 0.829463 0.391354
O O1 0.144919 0.198330 0.068208
O O2 0.904759 0.255820 0.033687
O O3 0.105395 0.231003 0.925762
O O4 0.000000 0.000000 0.000000
O O5 0.500000 0.748060 0.750000
O O6 0.729685 0.804429 0.795150
O O7 0.703901 0.744410 0.643544
O O8 0.604850 0.986982 0.710885
O O9 0.566465 0.813673 0.319268
O O10 0.685254 0.998228 0.902537
#
# Coordination Sequence:
#
# PCOD9298224 Si02
#       5
#     8   8   4   8   8
#     4  11  26  41  62  93 128 167 209 252 306 372
#     4   9  21  40  63  96 122 154 208 260 308 368
#     4   8  20  38  60  94 124 154 200 260 312 362
#     4  10  24  44  60  94 128 162 206 258 308 371
#     4  11  21  41  68  90 122 168 200 259 312 361
#
# _framework density 22.545282
#
# number of rings (size 3 to 8) (size 9 to 14) (size 15 to 20)
#    0.667    1.333    0.000    2.000    3.111    8.000 
#    0.000    0.000    0.000    0.000    0.000    0.000 
#    0.000    0.000    0.000    0.000    0.000    0.000 
#
# Total GULP energy -100601.659794 kJ/mol
# GULP energy per Si atom -5588.981100 kJ/mol
# Density = 2.249397 g / cm^3
# Si number density = 22.545282 Si / 1000 Ang^3
#
#
#
# Elastic Constant Matrix: (Units=GPa)
#
#
# Indices 1 2 3 4 5 6 
#
# 1 80.1326 4.8295 43.4437 0.0000 -16.0501 0.0000
# 2 4.8295 90.1238 41.9185 0.0000 -40.3026 0.0000
# 3 43.4437 41.9185 92.1522 0.0000 -25.6752 0.0000
# 4 0.0000 0.0000 0.0000 33.9552 0.0000 -8.6001
# 5 -16.0501 -40.3026 -25.6752 0.0000 48.1483 0.0000
# 6 0.0000 0.0000 0.0000 -8.6001 0.0000 25.2878
#
#
#
# Elastic Compliance Matrix: (Units=1/GPa)
#
#
# Indices 1 2 3 4 5 6 
#
# 1 0.018816 0.006517 -0.010063 0.000000 0.006361 0.000000
# 2 0.006517 0.021838 -0.008583 0.000000 0.015875 0.000000
# 3 -0.010063 -0.008583 0.019454 0.000000 -0.000165 0.000000
# 4 0.000000 0.000000 0.000000 0.032226 0.000000 0.010960
# 5 0.006361 0.015875 -0.000165 0.000000 0.036090 0.000000
# 6 0.000000 0.000000 0.000000 0.010960 0.000000 0.043272
#
#
# Mechanical properties :
#
#
# Convention : Reuss Voigt Hill
#
# Bulk Modulus (GPa) = 27.89386 49.19910 38.54648
# Shear Modulus (GPa) = 24.04966 32.95939 28.50453
#
# Velocity S-wave (km/s) = 3.26962 3.82765 3.55959
# Velocity P-wave (km/s) = 5.16267 6.43462 5.83341
#
# Compressibility (1/GPa) = 0.03585019
#
# Stress axis : x y z
#
# Youngs Moduli (GPa) = 53.14615 45.79215 51.40415
#
# Poissons Ratio (x) = -0.29841 0.51725
# Poissons Ratio (y) = -0.34634 0.44119
# Poissons Ratio (z) = 0.53478 0.39303
#
# Static dielectric constant tensor:
#      x y z
#    x 1.901190 0.000000 0.013700 
#    y 0.000000 1.779790 0.000000 
#    z 0.013700 0.000000 1.804540 
# 
# From -- ./inp_files/194908.got.cif
#   From: 2010.05.17/outbox.cif.g08.bks.cpg/sg15_98_cif.got.tgz:194908.got - 2010.06.03 18:47:42.
