data_PCOD9298786
_publ_section_title
;
Structure prediction by ZEFSAII (Michael W. Deem and Ramdas Pophale) SiO2 
 PCOD9298786
Probable space group: C 2/C
;
_chemical_formula_sum "Si O2"
_cell_formula_units_Z 56
_cell_length_a 23.566089
_cell_length_b 4.995816
_cell_length_c 25.653776
_cell_angle_alpha 90.000000
_cell_angle_beta 138.520883
_cell_angle_gamma 90.000000
_cell_volume 2000.464449
_symmetry_space_group_name_H-M "C 2/C"
_symmetry_group_IT_number 15
_symmetry_cell_setting 'monoclinic'
loop_
_space_group_symop_operation_xyz
x,y,z
-x,y,1/2-z
-x,-y,-z
x,-y,1/2+z
1/2+x,1/2+y,z
1/2-x,1/2+y,1/2-z
1/2-x,1/2-y,-z
1/2+x,1/2-y,1/2+z
loop_
_atom_site_type_symbol
_atom_site_label
_atom_site_fract_x
_atom_site_fract_y
_atom_site_fract_z
Si Si1 0.015416 0.574661 0.570035
Si Si2 0.413152 0.879277 0.213645
Si Si3 0.658906 0.952220 0.484071
Si Si4 0.202554 0.493360 0.197519
Si Si5 0.387479 0.441426 0.106983
Si Si6 0.062472 0.970001 0.677613
Si Si7 0.276492 0.701212 0.650162
O O1 0.105592 0.429882 0.645639
O O2 0.043025 0.878231 0.605535
O O3 0.000000 0.500000 0.500000
O O4 0.927139 0.527562 0.540072
O O5 0.500000 0.014992 0.250000
O O6 0.324259 0.037807 0.160585
O O7 0.402139 0.609011 0.170592
O O8 0.440125 0.806459 0.290647
O O9 0.653370 0.152164 0.430973
O O10 0.736768 0.041565 0.574274
O O11 0.661188 0.652811 0.463772
O O12 0.255697 0.771485 0.235149
O O13 0.201821 0.329692 0.142275
O O14 0.480060 0.393296 0.144961
O O15 0.148650 0.087445 0.760729
#
# Coordination Sequence:
#
# PCOD9298786 Si02
#       7
#     8   8   8   8   8   8   8
#     4  11  23  50  75 114 165 218 262 338 413 484
#     4  10  25  47  78 108 149 207 270 339 411 476
#     4  11  27  46  73 114 160 201 267 328 406 491
#     4  12  27  47  77 114 157 209 271 327 395 480
#     4  10  26  48  73 109 151 207 257 333 407 475
#     4  10  24  45  74 107 151 203 272 323 393 499
#     4  12  26  44  77 113 156 206 272 335 401 491
#
# _framework density 27.993501999999999
#
# number of rings (size 3 to 8) (size 9 to 14) (size 15 to 20)
#    0.000    1.143    2.857    0.857   12.000    1.714 
#    0.000    3.571    0.000    0.000    0.000    0.000 
#    0.000    0.000    0.000    0.000    0.000    0.000 
#
# Total GULP energy -156496.295123 kJ/mol
# GULP energy per Si atom -5589.153397 kJ/mol
# Density = 2.792979 g / cm^3
# Si number density = 27.993502 Si / 1000 Ang^3
#
#
#
# Elastic Constant Matrix: (Units=GPa)
#
#
# Indices 1 2 3 4 5 6 
#
# 1 94.9706 15.7124 38.6033 0.0031 0.0808 -0.0048
# 2 15.7124 126.8897 32.3908 -0.0229 2.2464 0.0093
# 3 38.6033 32.3908 128.0472 -0.0025 10.2844 -0.0048
# 4 0.0031 -0.0229 -0.0025 37.1801 -0.0028 11.3928
# 5 0.0808 2.2464 10.2844 -0.0028 71.1448 0.0057
# 6 -0.0048 0.0093 -0.0048 11.3928 0.0057 18.4840
#
#
#
# Elastic Compliance Matrix: (Units=1/GPa)
#
#
# Indices 1 2 3 4 5 6 
#
# 1 0.012062 -0.000603 -0.003525 -0.000003 0.000515 0.000004
# 2 -0.000603 0.008455 -0.001958 0.000008 0.000017 -0.000010
# 3 -0.003525 -0.001958 0.009472 -0.000002 -0.001303 0.000004
# 4 -0.000003 0.000008 -0.000002 0.033159 0.000003 -0.020438
# 5 0.000515 0.000017 -0.001303 0.000003 0.014243 -0.000006
# 6 0.000004 -0.000010 0.000004 -0.020438 -0.000006 0.066698
#
#
# Mechanical properties :
#
#
# Convention : Reuss Voigt Hill
#
# Bulk Modulus (GPa) = 56.12784 58.14674 57.13729
# Shear Modulus (GPa) = 30.82595 42.90851 36.86723
#
# Velocity S-wave (km/s) = 3.32201 3.91935 3.63298
# Velocity P-wave (km/s) = 5.89984 6.42638 6.16873
#
# Compressibility (1/GPa) = 0.01781647
#
# Stress axis : x y z
#
# Youngs Moduli (GPa) = 82.90647 118.27140 105.56888
#
# Poissons Ratio (x) = 0.07130 0.37215
# Poissons Ratio (y) = 0.04998 0.20675
# Poissons Ratio (z) = 0.29226 0.23163
#
# Static dielectric constant tensor:
#      x y z
#    x 2.327590 -0.000050 0.033780 
#    y -0.000050 2.295030 -0.000010 
#    z 0.033780 -0.000010 2.125970 
# 
# From -- ./inp_files/302948.got.cif
#   From: 2010.05.17/outbox.cif.g08.bks.cpg/sg15_152_cif.got.tgz:302948.got - 2010.06.03 18:47:42.
