data_PCOD9298310
_publ_section_title
;
Structure prediction by ZEFSAII (Michael W. Deem and Ramdas Pophale) SiO2 
 PCOD9298310
Probable space group: C 2/C
;
_chemical_formula_sum "Si O2"
_cell_formula_units_Z 56
_cell_length_a 10.713404
_cell_length_b 16.983979
_cell_length_c 19.525966
_cell_angle_alpha 90.000000
_cell_angle_beta 132.042949
_cell_angle_gamma 90.000000
_cell_volume 2638.515002
_symmetry_space_group_name_H-M "C 2/C"
_symmetry_group_IT_number 15
_symmetry_cell_setting 'monoclinic'
loop_
_space_group_symop_operation_xyz
x,y,z
-x,y,1/2-z
-x,-y,-z
x,-y,1/2+z
1/2+x,1/2+y,z
1/2-x,1/2+y,1/2-z
1/2-x,1/2-y,-z
1/2+x,1/2-y,1/2+z
loop_
_atom_site_type_symbol
_atom_site_label
_atom_site_fract_x
_atom_site_fract_y
_atom_site_fract_z
Si Si1 0.500000 0.836599 0.250000
Si Si2 0.492029 0.686371 0.064157
Si Si3 0.734333 0.288986 0.772652
Si Si4 0.566307 0.144729 0.032960
Si Si5 0.791719 0.171058 0.558532
Si Si6 0.631537 0.565013 0.023401
Si Si7 0.500000 0.255854 0.250000
Si Si8 0.162083 0.424165 0.433031
O O1 0.332999 0.786934 0.209582
O O2 0.541893 0.886907 0.332432
O O3 0.565648 0.692160 0.167361
O O4 0.453565 0.770599 0.015211
O O5 0.635997 0.637035 0.077478
O O6 0.327311 0.632603 0.997115
O O7 0.885830 0.280459 0.771532
O O8 0.800250 0.346066 0.856840
O O9 0.386161 0.130349 0.998941
O O10 0.600118 0.081139 0.987565
O O11 0.750000 0.250000 0.500000
O O12 0.912086 0.111221 0.562270
O O13 0.865623 0.194097 0.658252
O O14 0.794201 0.512049 0.073679
O O15 0.500000 0.500000 0.000000
#
# Coordination Sequence:
#
# PCOD9298310 Si02
#       8
#     4   8   8   8   8   8   4   8
#     4  12  22  40  67 101 134 178 218 274 338 410
#     4  11  20  42  65  94 130 177 220 269 322 403
#     4  12  23  36  68 103 131 171 231 278 329 391
#     4  12  22  40  68  99 134 170 224 283 327 387
#     4  12  22  42  68  96 130 175 227 275 323 397
#     4  10  24  44  66  91 137 177 217 273 345 396
#     4  12  22  36  65 103 128 172 228 276 330 390
#     4  11  24  42  65  97 140 175 216 274 343 402
#
# _framework density 21.224060000000001
#
# number of rings (size 3 to 8) (size 9 to 14) (size 15 to 20)
#    0.000    0.571    7.143    1.286    2.000    0.571 
#    2.571    2.857    0.000    0.000    0.000    0.000 
#    0.000    0.000    0.000    0.000    0.000    0.000 
#
# Total GULP energy -156096.412059 kJ/mol
# GULP energy per Si atom -5574.871859 kJ/mol
# Density = 2.117575 g / cm^3
# Si number density = 21.224060 Si / 1000 Ang^3
#
#
#
# Elastic Constant Matrix: (Units=GPa)
#
#
# Indices 1 2 3 4 5 6 
#
# 1 82.3028 13.9873 -4.6485 0.0000 -16.3551 0.0000
# 2 13.9873 37.2688 -3.6547 0.0000 -9.1071 0.0000
# 3 -4.6485 -3.6547 127.0865 0.0000 -14.4590 0.0000
# 4 0.0000 0.0000 0.0000 5.6011 0.0000 -9.3828
# 5 -16.3551 -9.1071 -14.4590 0.0000 34.3455 0.0000
# 6 0.0000 0.0000 0.0000 -9.3828 0.0000 42.9699
#
#
#
# Elastic Compliance Matrix: (Units=1/GPa)
#
#
# Indices 1 2 3 4 5 6 
#
# 1 0.014066 -0.003655 0.001115 0.000000 0.006198 0.000000
# 2 -0.003655 0.030028 0.001510 0.000000 0.006857 0.000000
# 3 0.001115 0.001510 0.008464 0.000000 0.004494 0.000000
# 4 0.000000 0.000000 0.000000 0.281511 0.000000 0.061470
# 5 0.006198 0.006857 0.004494 0.000000 0.035778 0.000000
# 6 0.000000 0.000000 0.000000 0.061470 0.000000 0.036694
#
#
# Mechanical properties :
#
#
# Convention : Reuss Voigt Hill
#
# Bulk Modulus (GPa) = 19.80332 28.66959 24.23645
# Shear Modulus (GPa) = 11.75268 32.64823 22.20046
#
# Velocity S-wave (km/s) = 2.35573 3.92633 3.23771
# Velocity P-wave (km/s) = 4.09269 5.83885 5.04194
#
# Compressibility (1/GPa) = 0.05049659
#
# Stress axis : x y z
#
# Youngs Moduli (GPa) = 71.09294 33.30265 118.14472
#
# Poissons Ratio (x) = 0.12173 -0.13168
# Poissons Ratio (y) = 0.25986 -0.17840
# Poissons Ratio (z) = -0.07924 -0.05029
#
# Static dielectric constant tensor:
#      x y z
#    x 1.763720 0.000000 0.025350 
#    y 0.000000 1.761270 0.000000 
#    z 0.025350 0.000000 1.713000 
# 
# From -- ./inp_files/199612.got.cif
#   From: 2010.05.17/outbox.cif.g08.bks.cpg/sg15_100_cif.got.tgz:199612.got - 2010.06.03 18:47:42.
