data_PCOD9298645
_publ_section_title
;
Structure prediction by ZEFSAII (Michael W. Deem and Ramdas Pophale) SiO2 
 PCOD9298645
Probable space group: C 2/C
;
_chemical_formula_sum "Si O2"
_cell_formula_units_Z 28
_cell_length_a 6.928813
_cell_length_b 18.028138
_cell_length_c 12.527119
_cell_angle_alpha 90.000000
_cell_angle_beta 54.950892
_cell_angle_gamma 90.000000
_cell_volume 1281.045511
_symmetry_space_group_name_H-M "C 2/C"
_symmetry_group_IT_number 15
_symmetry_cell_setting 'monoclinic'
loop_
_space_group_symop_operation_xyz
x,y,z
-x,y,1/2-z
-x,-y,-z
x,-y,1/2+z
1/2+x,1/2+y,z
1/2-x,1/2+y,1/2-z
1/2-x,1/2-y,-z
1/2+x,1/2-y,1/2+z
loop_
_atom_site_type_symbol
_atom_site_label
_atom_site_fract_x
_atom_site_fract_y
_atom_site_fract_z
Si Si1 0.470456 0.139274 0.134143
Si Si2 0.000000 0.050264 0.250000
Si Si3 0.537847 0.407362 0.117527
Si Si4 0.741326 0.281644 0.383648
O O1 0.500000 0.127121 0.250000
O O2 0.433433 0.226073 0.122786
O O3 0.232124 0.099391 0.171842
O O4 0.696318 0.107291 0.002197
O O5 0.012937 0.994199 0.347037
O O6 0.500000 0.376126 0.250000
O O7 0.365183 0.363729 0.093521
O O8 0.750000 0.250000 0.500000
O O9 0.000000 0.279457 0.250000
#
# Coordination Sequence:
#
# PCOD9298645 Si02
#       4
#     8   4   8   8
#     4  12  24  46  72 103 141 181 234 285 345 409
#     4  10  26  46  72 100 144 184 226 282 352 416
#     4  10  24  45  68 100 142 180 230 281 346 407
#     4  12  24  43  73 104 139 181 236 285 344 408
#
# _framework density 21.857147000000001
#
# number of rings (size 3 to 8) (size 9 to 14) (size 15 to 20)
#    0.857    0.000    1.429    6.000    0.000    2.286 
#    0.000    0.000    0.000    0.000    0.000    0.000 
#    0.000    0.000    0.000    0.000    0.000    0.000 
#
# Total GULP energy -78331.157422 kJ/mol
# GULP energy per Si atom -5595.082673 kJ/mol
# Density = 2.180740 g / cm^3
# Si number density = 21.857147 Si / 1000 Ang^3
#
#
#
# Elastic Constant Matrix: (Units=GPa)
#
#
# Indices 1 2 3 4 5 6 
#
# 1 62.1415 8.1261 56.2669 0.0000 2.0469 0.0000
# 2 8.1261 74.9741 11.0925 0.0000 6.8789 0.0000
# 3 56.2669 11.0925 155.1734 0.0000 -19.9920 0.0000
# 4 0.0000 0.0000 0.0000 14.1088 0.0000 3.0822
# 5 2.0469 6.8789 -19.9920 0.0000 42.9291 0.0000
# 6 0.0000 0.0000 0.0000 3.0822 0.0000 7.7783
#
#
#
# Elastic Compliance Matrix: (Units=1/GPa)
#
#
# Indices 1 2 3 4 5 6 
#
# 1 0.025297 -0.000764 -0.009849 0.000000 -0.005670 0.000000
# 2 -0.000764 0.013822 -0.001055 0.000000 -0.002670 0.000000
# 3 -0.009849 -0.001055 0.010823 0.000000 0.005679 0.000000
# 4 0.000000 0.000000 0.000000 0.077595 0.000000 -0.030747
# 5 -0.005670 -0.002670 0.005679 0.000000 0.026637 0.000000
# 6 0.000000 0.000000 0.000000 -0.030747 0.000000 0.140747
#
#
# Mechanical properties :
#
#
# Convention : Reuss Voigt Hill
#
# Bulk Modulus (GPa) = 37.58643 49.25111 43.41877
# Shear Modulus (GPa) = 15.28475 27.41680 21.35078
#
# Velocity S-wave (km/s) = 2.64730 3.54554 3.12882
# Velocity P-wave (km/s) = 5.15539 6.27242 5.74113
#
# Compressibility (1/GPa) = 0.02660534
#
# Stress axis : x y z
#
# Youngs Moduli (GPa) = 39.53097 72.34954 92.39922
#
# Poissons Ratio (x) = 0.05531 0.91000
# Poissons Ratio (y) = 0.03022 0.09746
# Poissons Ratio (z) = 0.38933 0.07631
#
# Static dielectric constant tensor:
#      x y z
#    x 1.782860 0.000000 0.062020 
#    y 0.000000 1.777270 0.000000 
#    z 0.062020 0.000000 1.780980 
# 
# From -- ./inp_files/71576.got.cif
#   From: 2010.05.17/outbox.cif.g08.bks.cpg/sg15_36_cif.got.tgz:71576.got - 2010.06.03 18:47:42.
