data_PCOD9298597
_publ_section_title
;
Structure prediction by ZEFSAII (Michael W. Deem and Ramdas Pophale) SiO2 
 PCOD9298597
Probable space group: C 2/C
;
_chemical_formula_sum "Si O2"
_cell_formula_units_Z 44
_cell_length_a 8.270153
_cell_length_b 28.360797
_cell_length_c 8.388364
_cell_angle_alpha 90.000000
_cell_angle_beta 72.393046
_cell_angle_gamma 90.000000
_cell_volume 1875.306680
_symmetry_space_group_name_H-M "C 2/C"
_symmetry_group_IT_number 15
_symmetry_cell_setting 'monoclinic'
loop_
_space_group_symop_operation_xyz
x,y,z
-x,y,1/2-z
-x,-y,-z
x,-y,1/2+z
1/2+x,1/2+y,z
1/2-x,1/2+y,1/2-z
1/2-x,1/2-y,-z
1/2+x,1/2-y,1/2+z
loop_
_atom_site_type_symbol
_atom_site_label
_atom_site_fract_x
_atom_site_fract_y
_atom_site_fract_z
Si Si1 0.519562 0.356707 0.426386
Si Si2 0.500000 0.520319 0.750000
Si Si3 0.164844 0.311273 0.302800
Si Si4 0.326324 0.295137 0.698336
Si Si5 0.666850 0.438985 0.503173
Si Si6 0.435809 0.127169 0.096260
O O1 0.500000 0.371454 0.250000
O O2 0.703903 0.334203 0.359099
O O3 0.383830 0.318475 0.515496
O O4 0.519888 0.398665 0.552794
O O5 0.617433 0.485641 0.610862
O O6 0.364398 0.546575 0.673338
O O7 0.230665 0.258205 0.316253
O O8 0.000000 0.300421 0.250000
O O9 0.090982 0.349630 0.450518
O O10 0.500000 0.297471 0.750000
O O11 0.186053 0.328545 0.820284
O O12 0.832922 0.412712 0.525149
O O13 0.500000 0.108366 0.250000
#
# Coordination Sequence:
#
# PCOD9298597 Si02
#       6
#     8   4   8   8   8   8
#     4  12  23  39  68  97 132 177 229 280 328 401
#     4  10  24  44  80  98 130 162 230 290 344 424
#     4  11  23  40  63  97 144 187 227 282 330 385
#     4  11  22  40  65  97 137 192 243 269 312 392
#     4  11  22  45  68 104 124 170 220 283 345 412
#     4  12  25  43  68 100 146 184 222 282 340 398
#
# _framework density 23.462828999999999
#
# number of rings (size 3 to 8) (size 9 to 14) (size 15 to 20)
#    0.000    0.727    4.545    3.273    0.000    7.273 
#    0.000    0.909    0.000    0.000    0.000    0.000 
#    0.000    0.000    0.000    0.000    0.000    0.000 
#
# Total GULP energy -122638.335580 kJ/mol
# GULP energy per Si atom -5574.469799 kJ/mol
# Density = 2.340943 g / cm^3
# Si number density = 23.462829 Si / 1000 Ang^3
#
#
#
# Elastic Constant Matrix: (Units=GPa)
#
#
# Indices 1 2 3 4 5 6 
#
# 1 103.4537 45.8789 26.6993 0.0000 25.0075 0.0000
# 2 45.8789 108.1129 46.1187 0.0000 27.6499 0.0000
# 3 26.6993 46.1187 118.1812 0.0000 17.9569 0.0000
# 4 0.0000 0.0000 0.0000 0.9649 0.0000 7.8245
# 5 25.0075 27.6499 17.9569 0.0000 46.2290 0.0000
# 6 0.0000 0.0000 0.0000 7.8245 0.0000 29.4566
#
#
#
# Elastic Compliance Matrix: (Units=1/GPa)
#
#
# Indices 1 2 3 4 5 6 
#
# 1 0.012622 -0.004010 -0.000652 0.000000 -0.004176 0.000000
# 2 -0.004010 0.013724 -0.003754 0.000000 -0.004581 0.000000
# 3 -0.000652 -0.003754 0.010286 0.000000 -0.001398 0.000000
# 4 0.000000 0.000000 0.000000 -0.898070 0.000000 0.238552
# 5 -0.004176 -0.004581 -0.001398 0.000000 0.027174 0.000000
# 6 0.000000 0.000000 0.000000 0.238552 0.000000 -0.029418
#
#
# Mechanical properties :
#
#
# Convention : Reuss Voigt Hill
#
# Bulk Modulus (GPa) = 50.50318 63.01573 56.75945
# Shear Modulus (GPa) = -5.95062 29.40017 11.72478
#
# Velocity S-wave (km/s) = -1.59427 3.54369 2.23786
# Velocity P-wave (km/s) = 4.26410 6.60754 5.56067
#
# Compressibility (1/GPa) = 0.01980073
#
# Stress axis : x y z
#
# Youngs Moduli (GPa) = 79.22443 72.86388 97.21882
#
# Poissons Ratio (x) = 0.29220 0.06340
# Poissons Ratio (y) = 0.31770 0.36492
# Poissons Ratio (z) = 0.05167 0.27350
#
# Static dielectric constant tensor:
#      x y z
#    x 2.056440 0.000000 0.173960 
#    y 0.000000 1.924740 0.000000 
#    z 0.173960 0.000000 2.010920 
# 
# From -- ./inp_files/25460.got.cif
#   From: 2010.05.17/outbox.cif.g08.bks.cpg/sg15_13_cif.got.tgz:25460.got - 2010.06.03 18:47:42.
