data_PCOD9298844
_publ_section_title
;
Structure prediction by ZEFSAII (Michael W. Deem and Ramdas Pophale) SiO2 
 PCOD9298844
Probable space group: C 2/C
;
_chemical_formula_sum "Si O2"
_cell_formula_units_Z 48
_cell_length_a 7.261445
_cell_length_b 31.204302
_cell_length_c 13.564552
_cell_angle_alpha 90.000000
_cell_angle_beta 45.380072
_cell_angle_gamma 90.000000
_cell_volume 2187.710499
_symmetry_space_group_name_H-M "C 2/C"
_symmetry_group_IT_number 15
_symmetry_cell_setting 'monoclinic'
loop_
_space_group_symop_operation_xyz
x,y,z
-x,y,1/2-z
-x,-y,-z
x,-y,1/2+z
1/2+x,1/2+y,z
1/2-x,1/2+y,1/2-z
1/2-x,1/2-y,-z
1/2+x,1/2-y,1/2+z
loop_
_atom_site_type_symbol
_atom_site_label
_atom_site_fract_x
_atom_site_fract_y
_atom_site_fract_z
Si Si1 0.032453 0.755851 0.352906
Si Si2 0.500000 0.591273 0.750000
Si Si3 0.746143 0.981656 0.466499
Si Si4 0.509191 0.382959 0.885649
Si Si5 0.709734 0.351293 0.329619
Si Si6 0.000000 0.441121 0.750000
Si Si7 0.000000 0.950195 0.750000
Si Si8 0.000000 0.197319 0.250000
O O1 0.092408 0.805581 0.347945
O O2 0.249345 0.727169 0.326464
O O3 0.000000 0.745165 0.250000
O O4 0.750000 0.750000 0.500000
O O5 0.659578 0.562466 0.614963
O O6 0.306947 0.620048 0.760563
O O7 0.640754 0.970662 0.614849
O O8 0.500000 0.000000 0.500000
O O9 0.979763 0.014264 0.347722
O O10 0.344648 0.413640 0.873819
O O11 0.499976 0.335677 0.842064
O O12 0.782006 0.409426 0.785006
O O13 0.422312 0.376538 0.030157
O O14 0.000000 0.343331 0.250000
#
# Coordination Sequence:
#
# PCOD9298844 Si02
#       8
#     8   4   8   8   8   4   4   4
#     4  12  28  49  78 112 152 200 257 315 385 457
#     4  11  26  47  69 106 150 198 250 312 388 445
#     4  11  24  44  71 101 148 192 249 317 370 445
#     4  11  26  45  74 107 150 194 253 310 380 449
#     4  12  27  46  75 108 151 199 253 313 380 457
#     4  12  24  44  75 109 143 201 261 303 382 454
#     4  10  24  46  66 106 141 193 242 308 376 444
#     4  11  28  49  76 113 156 200 253 319 384 455
#
# _framework density 21.940747000000002
#
# number of rings (size 3 to 8) (size 9 to 14) (size 15 to 20)
#    0.000    0.667    5.000    1.000    8.167    3.333 
#    0.000    0.000    0.000    0.000    0.000    0.000 
#    0.000    0.000    0.000    0.000    0.000    0.000 
#
# Total GULP energy -133681.297846 kJ/mol
# GULP energy per Si atom -5570.054077 kJ/mol
# Density = 2.189081 g / cm^3
# Si number density = 21.940747 Si / 1000 Ang^3
#
#
#
# Elastic Constant Matrix: (Units=GPa)
#
#
# Indices 1 2 3 4 5 6 
#
# 1 119.4039 38.5544 40.1314 0.0000 -6.0102 0.0000
# 2 38.5544 145.5440 48.4464 0.0000 1.6479 0.0000
# 3 40.1314 48.4464 118.6833 0.0000 13.3505 0.0000
# 4 0.0000 0.0000 0.0000 34.0224 0.0000 11.5914
# 5 -6.0102 1.6479 13.3505 0.0000 38.8633 0.0000
# 6 0.0000 0.0000 0.0000 11.5914 0.0000 46.5952
#
#
#
# Elastic Compliance Matrix: (Units=1/GPa)
#
#
# Indices 1 2 3 4 5 6 
#
# 1 0.010069 -0.001695 -0.003013 0.000000 0.002664 0.000000
# 2 -0.001695 0.008261 -0.002840 0.000000 0.000363 0.000000
# 3 -0.003013 -0.002840 0.011070 0.000000 -0.004148 0.000000
# 4 0.000000 0.000000 0.000000 0.032114 0.000000 -0.007989
# 5 0.002664 0.000363 -0.004148 0.000000 0.027553 0.000000
# 6 0.000000 0.000000 0.000000 -0.007989 0.000000 0.023449
#
#
# Mechanical properties :
#
#
# Convention : Reuss Voigt Hill
#
# Bulk Modulus (GPa) = 69.90174 70.87731 70.38952
# Shear Modulus (GPa) = 37.77044 40.99611 39.38327
#
# Velocity S-wave (km/s) = 4.15357 4.32729 4.24132
# Velocity P-wave (km/s) = 7.41157 7.57241 7.49242
#
# Compressibility (1/GPa) = 0.01430580
#
# Stress axis : x y z
#
# Youngs Moduli (GPa) = 99.31769 121.05267 90.33136
#
# Poissons Ratio (x) = 0.20513 0.27213
# Poissons Ratio (y) = 0.16830 0.25654
# Poissons Ratio (z) = 0.29920 0.34378
#
# Static dielectric constant tensor:
#      x y z
#    x 2.069580 0.000000 -0.020890 
#    y 0.000000 1.723620 0.000000 
#    z -0.020890 0.000000 1.795430 
# 
# From -- ./inp_files/138992.got.cif
#   From: 2010.05.17/outbox.cif.g08.bks.cpg/sg15_70_cif.got.tgz:138992.got - 2010.06.03 18:47:42.
