data_PCOD9298611
_publ_section_title
;
Structure prediction by ZEFSAII (Michael W. Deem and Ramdas Pophale) SiO2 
 PCOD9298611
Probable space group: C 2/C
;
_chemical_formula_sum "Si O2"
_cell_formula_units_Z 40
_cell_length_a 12.379537
_cell_length_b 20.737529
_cell_length_c 12.650609
_cell_angle_alpha 90.000000
_cell_angle_beta 145.048951
_cell_angle_gamma 90.000000
_cell_volume 1860.517492
_symmetry_space_group_name_H-M "C 2/C"
_symmetry_group_IT_number 15
_symmetry_cell_setting 'monoclinic'
loop_
_space_group_symop_operation_xyz
x,y,z
-x,y,1/2-z
-x,-y,-z
x,-y,1/2+z
1/2+x,1/2+y,z
1/2-x,1/2+y,1/2-z
1/2-x,1/2-y,-z
1/2+x,1/2-y,1/2+z
loop_
_atom_site_type_symbol
_atom_site_label
_atom_site_fract_x
_atom_site_fract_y
_atom_site_fract_z
Si Si1 0.837478 0.072234 0.444816
Si Si2 0.267957 0.567617 0.862315
Si Si3 0.687875 0.823004 0.969157
Si Si4 0.971670 0.384879 0.975378
Si Si5 0.718450 0.324934 0.952028
O O1 0.826131 0.124442 0.528689
O O2 0.675269 0.087231 0.227730
O O3 0.039073 0.075332 0.549179
O O4 0.794418 0.999226 0.446880
O O5 0.093036 0.565009 0.641378
O O6 0.237109 0.628246 0.914050
O O7 0.500000 0.830738 0.750000
O O8 0.625366 0.840998 0.037022
O O9 0.750000 0.750000 0.000000
O O10 0.847696 0.344215 0.957381
O O11 0.500000 0.335954 0.750000
O O12 0.750000 0.250000 0.000000
#
# Coordination Sequence:
#
# PCOD9298611 Si02
#       5
#     8   8   8   8   8
#     4  10  24  45  65 104 137 175 226 271 329 404
#     4  11  24  43  72  98 137 178 221 276 335 396
#     4  10  25  42  66  98 135 174 220 273 324 399
#     4  11  24  43  69  98 133 180 219 280 334 394
#     4  12  26  45  68  99 137 176 228 281 336 407
#
# _framework density 21.499395
#
# number of rings (size 3 to 8) (size 9 to 14) (size 15 to 20)
#    0.000    1.200    2.000    2.400    5.600    8.000 
#    0.000    0.000    0.000    0.000    0.000    0.000 
#    0.000    0.000    0.000    0.000    0.000    0.000 
#
# Total GULP energy -111839.923013 kJ/mol
# GULP energy per Si atom -5591.996151 kJ/mol
# Density = 2.145046 g / cm^3
# Si number density = 21.499395 Si / 1000 Ang^3
#
#
#
# Elastic Constant Matrix: (Units=GPa)
#
#
# Indices 1 2 3 4 5 6 
#
# 1 130.8836 79.8757 15.5898 0.0000 -0.2959 0.0000
# 2 79.8757 156.5498 12.5402 0.0000 0.0982 0.0000
# 3 15.5898 12.5402 91.6664 0.0000 6.5934 0.0000
# 4 0.0000 0.0000 0.0000 29.3347 0.0000 0.0407
# 5 -0.2959 0.0982 6.5934 0.0000 20.4807 0.0000
# 6 0.0000 0.0000 0.0000 0.0407 0.0000 15.3087
#
#
#
# Elastic Compliance Matrix: (Units=1/GPa)
#
#
# Indices 1 2 3 4 5 6 
#
# 1 0.011218 -0.005629 -0.001179 0.000000 0.000568 0.000000
# 2 -0.005629 0.009285 -0.000311 0.000000 -0.000026 0.000000
# 3 -0.001179 -0.000311 0.011418 0.000000 -0.003691 0.000000
# 4 0.000000 0.000000 0.000000 0.034089 0.000000 -0.000091
# 5 0.000568 -0.000026 -0.003691 0.000000 0.050023 0.000000
# 6 0.000000 0.000000 0.000000 -0.000091 0.000000 0.065323
#
#
# Mechanical properties :
#
#
# Convention : Reuss Voigt Hill
#
# Bulk Modulus (GPa) = 56.55387 66.12345 61.33866
# Shear Modulus (GPa) = 24.81543 31.09775 27.95659
#
# Velocity S-wave (km/s) = 3.40109 3.80734 3.60994
# Velocity P-wave (km/s) = 6.46415 7.08171 6.77996
#
# Compressibility (1/GPa) = 0.01768225
#
# Stress axis : x y z
#
# Youngs Moduli (GPa) = 89.14580 107.70116 87.58403
#
# Poissons Ratio (x) = 0.60630 0.10322
# Poissons Ratio (y) = 0.50184 0.02723
# Poissons Ratio (z) = 0.10506 0.03349
#
# Static dielectric constant tensor:
#      x y z
#    x 1.762040 0.000000 -0.001760 
#    y 0.000000 1.771640 0.000000 
#    z -0.001760 0.000000 1.793610 
# 
# From -- ./inp_files/29304.got.cif
#   From: 2010.05.17/outbox.cif.g08.bks.cpg/sg15_15_cif.got.tgz:29304.got - 2010.06.03 18:47:42.
