data_PCOD9298909
_publ_section_title
;
Structure prediction by ZEFSAII (Michael W. Deem and Ramdas Pophale) SiO2 
 PCOD9298909
Probable space group: C 2/C
;
_chemical_formula_sum "Si O2"
_cell_formula_units_Z 52
_cell_length_a 15.019679
_cell_length_b 22.007951
_cell_length_c 8.659891
_cell_angle_alpha 90.000000
_cell_angle_beta 120.998901
_cell_angle_gamma 90.000000
_cell_volume 2453.710309
_symmetry_space_group_name_H-M "C 2/C"
_symmetry_group_IT_number 15
_symmetry_cell_setting 'monoclinic'
loop_
_space_group_symop_operation_xyz
x,y,z
-x,y,1/2-z
-x,-y,-z
x,-y,1/2+z
1/2+x,1/2+y,z
1/2-x,1/2+y,1/2-z
1/2-x,1/2-y,-z
1/2+x,1/2-y,1/2+z
loop_
_atom_site_type_symbol
_atom_site_label
_atom_site_fract_x
_atom_site_fract_y
_atom_site_fract_z
Si Si1 0.500000 0.613019 0.750000
Si Si2 0.021691 0.697241 0.949787
Si Si3 0.380843 0.573634 0.121428
Si Si4 0.370372 0.319218 0.396607
Si Si5 0.684417 0.541657 0.096033
Si Si6 0.095086 0.599577 0.243230
Si Si7 0.678058 0.204458 0.536105
O O1 0.548779 0.653300 0.656007
O O2 0.403979 0.574963 0.588712
O O3 0.000000 0.691702 0.750000
O O4 0.920282 0.724248 0.948939
O O5 0.108537 0.748560 0.055065
O O6 0.054907 0.632085 0.050877
O O7 0.500000 0.556124 0.250000
O O8 0.330940 0.561715 0.241681
O O9 0.377477 0.642140 0.058725
O O10 0.333832 0.529479 0.949740
O O11 0.257510 0.327347 0.222910
O O12 0.802659 0.559069 0.167388
O O13 0.128537 0.657877 0.373137
O O14 0.000000 0.569350 0.250000
O O15 0.750000 0.250000 0.500000
#
# Coordination Sequence:
#
# PCOD9298909 Si02
#       7
#     4   8   8   8   8   8   8
#     4  12  22  38  68  98 134 176 220 274 342 406
#     4  11  26  41  62  98 141 177 227 282 329 397
#     4  12  25  43  66 105 138 171 220 287 344 411
#     4  12  24  39  66  99 137 178 223 272 342 407
#     4  12  25  44  71  96 137 178 223 284 344 397
#     4  10  24  46  69  95 135 185 234 273 331 407
#     4  11  22  41  66  93 135 180 229 270 334 405
#
# _framework density 21.192395999999999
#
# number of rings (size 3 to 8) (size 9 to 14) (size 15 to 20)
#    0.000    0.615    5.385    2.769    3.231    0.615 
#    0.000    0.769    0.000    0.000    0.000    0.000 
#    0.000    0.000    0.000    0.000    0.000    0.000 
#
# Total GULP energy -145291.185679 kJ/mol
# GULP energy per Si atom -5588.122526 kJ/mol
# Density = 2.114416 g / cm^3
# Si number density = 21.192396 Si / 1000 Ang^3
#
#
#
# Elastic Constant Matrix: (Units=GPa)
#
#
# Indices 1 2 3 4 5 6 
#
# 1 93.2295 6.1197 27.5653 0.0000 17.9761 0.0000
# 2 6.1197 35.1005 2.3367 0.0000 5.0279 0.0000
# 3 27.5653 2.3367 87.7057 0.0000 1.6647 0.0000
# 4 0.0000 0.0000 0.0000 35.5311 0.0000 7.0880
# 5 17.9761 5.0279 1.6647 0.0000 31.8412 0.0000
# 6 0.0000 0.0000 0.0000 7.0880 0.0000 -20.7527
#
#
#
# Elastic Compliance Matrix: (Units=1/GPa)
#
#
# Indices 1 2 3 4 5 6 
#
# 1 0.013372 -0.001035 -0.004039 0.000000 -0.007175 0.000000
# 2 -0.001035 0.029271 -0.000378 0.000000 -0.004018 0.000000
# 3 -0.004039 -0.000378 0.012649 0.000000 0.001679 0.000000
# 4 0.000000 0.000000 0.000000 0.026349 0.000000 0.008999
# 5 -0.007175 -0.004018 0.001679 0.000000 0.036003 0.000000
# 6 0.000000 0.000000 0.000000 0.008999 0.000000 -0.045113
#
#
# Mechanical properties :
#
#
# Convention : Reuss Voigt Hill
#
# Bulk Modulus (GPa) = 22.52867 32.00880 27.26874
# Shear Modulus (GPa) = 50.90028 21.32483 36.11255
#
# Velocity S-wave (km/s) = 4.90615 3.17558 4.13247
# Velocity P-wave (km/s) = 6.53815 5.34626 5.97201
#
# Compressibility (1/GPa) = 0.04438788
#
# Stress axis : x y z
#
# Youngs Moduli (GPa) = 74.78485 34.16371 79.05518
#
# Poissons Ratio (x) = 0.03535 0.31930
# Poissons Ratio (y) = 0.07738 0.02991
# Poissons Ratio (z) = 0.30205 0.01293
#
# Static dielectric constant tensor:
#      x y z
#    x 1.934890 0.000000 -0.147990 
#    y 0.000000 1.766890 0.000000 
#    z -0.147990 0.000000 1.802660 
# 
# From -- ./inp_files/42311.got.cif
#   From: 2010.05.17/outbox.cif.g08.bks.cpg/sg15_22_cif.got.tgz:42311.got - 2010.06.03 18:47:42.
