data_PCOD9298464
_publ_section_title
;
Structure prediction by ZEFSAII (Michael W. Deem and Ramdas Pophale) SiO2 
 PCOD9298464
Probable space group: C 2/C
;
_chemical_formula_sum "Si O2"
_cell_formula_units_Z 48
_cell_length_a 12.340539
_cell_length_b 20.275476
_cell_length_c 15.273930
_cell_angle_alpha 90.000000
_cell_angle_beta 35.660625
_cell_angle_gamma 90.000000
_cell_volume 2227.982973
_symmetry_space_group_name_H-M "C 2/C"
_symmetry_group_IT_number 15
_symmetry_cell_setting 'monoclinic'
loop_
_space_group_symop_operation_xyz
x,y,z
-x,y,1/2-z
-x,-y,-z
x,-y,1/2+z
1/2+x,1/2+y,z
1/2-x,1/2+y,1/2-z
1/2-x,1/2-y,-z
1/2+x,1/2-y,1/2+z
loop_
_atom_site_type_symbol
_atom_site_label
_atom_site_fract_x
_atom_site_fract_y
_atom_site_fract_z
Si Si1 0.141010 0.939441 0.003531
Si Si2 0.309013 0.879729 0.493441
Si Si3 0.210300 0.817023 0.077291
Si Si4 0.000000 0.032534 0.250000
Si Si5 0.076076 0.842575 0.474570
Si Si6 0.000000 0.521383 0.750000
Si Si7 0.886788 0.287462 0.138506
O O1 0.224573 0.878896 0.004562
O O2 0.008147 0.906182 0.019025
O O3 0.316581 0.979243 0.852391
O O4 0.036367 0.986641 0.141857
O O5 0.176056 0.919204 0.646207
O O6 0.183189 0.861351 0.492453
O O7 0.418864 0.816794 0.455128
O O8 0.459480 0.931541 0.358712
O O9 0.339679 0.820778 0.076923
O O10 0.000000 0.815079 0.250000
O O11 0.250000 0.750000 0.000000
O O12 0.222368 0.806425 0.313348
O O13 0.914998 0.790099 0.603503
#
# Coordination Sequence:
#
# PCOD9298464 Si02
#       7
#     8   8   8   4   8   4   8
#     4  11  23  46  68 101 134 185 232 290 348 413
#     4  11  25  48  66 105 139 185 240 284 349 425
#     4  12  23  43  67  99 139 174 235 291 346 412
#     4  10  24  46  70  96 144 186 236 284 350 422
#     4  12  25  44  73 101 145 179 240 291 351 417
#     4  10  24  44  70  96 140 188 230 284 342 418
#     4  12  24  44  71 103 140 185 227 299 351 415
#
# _framework density 21.544149999999998
#
# number of rings (size 3 to 8) (size 9 to 14) (size 15 to 20)
#    0.000    0.667    5.833    0.500    3.500    4.000 
#    6.000    2.500    0.000    0.000    0.000    0.000 
#    0.000    0.000    0.000    0.000    0.000    0.000 
#
# Total GULP energy -134351.721404 kJ/mol
# GULP energy per Si atom -5597.988392 kJ/mol
# Density = 2.149511 g / cm^3
# Si number density = 21.544150 Si / 1000 Ang^3
#
#
#
# Elastic Constant Matrix: (Units=GPa)
#
#
# Indices 1 2 3 4 5 6 
#
# 1 121.2531 -0.9393 2.6543 0.0016 4.8536 -0.0002
# 2 -0.9393 52.3642 27.3751 -0.0010 2.3205 0.0025
# 3 2.6543 27.3751 80.2599 0.0003 -7.9443 0.0018
# 4 0.0016 -0.0010 0.0003 38.3895 0.0047 -8.5558
# 5 4.8536 2.3205 -7.9443 0.0047 16.2642 -0.0028
# 6 -0.0002 0.0025 0.0018 -8.5558 -0.0028 37.0385
#
#
#
# Elastic Compliance Matrix: (Units=1/GPa)
#
#
# Indices 1 2 3 4 5 6 
#
# 1 0.008391 0.000711 -0.000817 0.000000 -0.003005 0.000000
# 2 0.000711 0.024219 -0.009087 0.000001 -0.008106 -0.000001
# 3 -0.000817 -0.009087 0.016538 -0.000001 0.009618 0.000000
# 4 0.000000 0.000001 -0.000001 0.027463 -0.000008 0.006344
# 5 -0.003005 -0.008106 0.009618 -0.000008 0.068236 0.000004
# 6 0.000000 -0.000001 0.000000 0.006344 0.000004 0.028464
#
#
# Mechanical properties :
#
#
# Convention : Reuss Voigt Hill
#
# Bulk Modulus (GPa) = 32.50763 34.67305 33.59034
# Shear Modulus (GPa) = 24.75844 33.32423 29.04134
#
# Velocity S-wave (km/s) = 3.39366 3.93719 3.67548
# Velocity P-wave (km/s) = 5.52064 6.06609 5.79978
#
# Compressibility (1/GPa) = 0.03076201
#
# Stress axis : x y z
#
# Youngs Moduli (GPa) = 119.17688 41.28931 60.46724
#
# Poissons Ratio (x) = -0.02936 0.04943
# Poissons Ratio (y) = -0.08474 0.54944
# Poissons Ratio (z) = 0.09742 0.37518
#
# Static dielectric constant tensor:
#      x y z
#    x 1.783560 0.000070 0.028170 
#    y 0.000070 1.733190 0.000210 
#    z 0.028170 0.000210 1.876770 
# 
# From -- ./inp_files/147405.got.cif
#   From: 2010.05.17/outbox.cif.g08.bks.cpg/sg15_74_cif.got.tgz:147405.got - 2010.06.03 18:47:42.
