data_PCOD9298604
_publ_section_title
;
Structure prediction by ZEFSAII (Michael W. Deem and Ramdas Pophale) SiO2 
 PCOD9298604
Probable space group: C 2/C
;
_chemical_formula_sum "Si O2"
_cell_formula_units_Z 60
_cell_length_a 8.940290
_cell_length_b 14.520453
_cell_length_c 19.847999
_cell_angle_alpha 90.000000
_cell_angle_beta 71.345627
_cell_angle_gamma 90.000000
_cell_volume 2441.247503
_symmetry_space_group_name_H-M "C 2/C"
_symmetry_group_IT_number 15
_symmetry_cell_setting 'monoclinic'
loop_
_space_group_symop_operation_xyz
x,y,z
-x,y,1/2-z
-x,-y,-z
x,-y,1/2+z
1/2+x,1/2+y,z
1/2-x,1/2+y,1/2-z
1/2-x,1/2-y,-z
1/2+x,1/2-y,1/2+z
loop_
_atom_site_type_symbol
_atom_site_label
_atom_site_fract_x
_atom_site_fract_y
_atom_site_fract_z
Si Si1 0.883470 0.069587 0.379973
Si Si2 0.908246 0.659259 0.370453
Si Si3 0.055264 0.616168 0.495110
Si Si4 0.035698 0.886116 0.412174
Si Si5 0.917771 0.798237 0.560411
Si Si6 0.865549 0.539659 0.887378
Si Si7 0.724117 0.217078 0.307679
Si Si8 0.500000 0.836319 0.250000
O O1 0.727023 0.084689 0.446967
O O2 0.822410 0.129656 0.324085
O O3 0.017309 0.132032 0.393943
O O4 0.948115 0.963141 0.377116
O O5 0.761328 0.728416 0.394357
O O6 0.849414 0.559871 0.358091
O O7 0.958491 0.640574 0.441710
O O8 0.063725 0.675450 0.304798
O O9 0.024863 0.546146 0.561475
O O10 0.038977 0.713656 0.536845
O O11 0.184932 0.933093 0.427333
O O12 0.128768 0.797789 0.365803
O O13 0.920797 0.849841 0.487467
O O14 0.941940 0.604763 0.820813
O O15 0.852604 0.273864 0.249026
#
# Coordination Sequence:
#
# PCOD9298604 Si02
#       8
#     8   8   8   8   8   8   8   4
#     4  11  20  36  65  96 128 172 215 260 326 404
#     4  11  23  39  61 103 138 162 207 282 342 392
#     4  11  22  36  62  98 141 171 208 266 340 404
#     4  11  20  36  63  92 130 168 216 256 318 407
#     4  12  19  35  59 100 140 171 198 264 334 404
#     4  11  22  42  64  95 124 173 227 267 326 398
#     4  10  24  45  63  92 125 171 222 275 328 390
#     4  10  24  48  70  84 118 178 226 278 308 394
#
# _framework density 24.577596
#
# number of rings (size 3 to 8) (size 9 to 14) (size 15 to 20)
#    0.000    1.067    5.333    4.000    0.000    1.067 
#    4.800    0.000    0.000    0.000    0.000    0.000 
#    0.000    0.000    0.000    0.000    0.000    0.000 
#
# Total GULP energy -167047.184396 kJ/mol
# GULP energy per Si atom -5568.239480 kJ/mol
# Density = 2.452166 g / cm^3
# Si number density = 24.577596 Si / 1000 Ang^3
#
#
#
# Elastic Constant Matrix: (Units=GPa)
#
#
# Indices 1 2 3 4 5 6 
#
# 1 133.7176 21.5699 44.9913 0.0000 -18.4905 0.0000
# 2 21.5699 97.4161 6.3364 0.0000 -2.7415 0.0000
# 3 44.9913 6.3364 51.7130 0.0000 -6.0873 0.0000
# 4 0.0000 0.0000 0.0000 22.1887 0.0000 -16.4100
# 5 -18.4905 -2.7415 -6.0873 0.0000 40.3183 0.0000
# 6 0.0000 0.0000 0.0000 -16.4100 0.0000 21.8224
#
#
#
# Elastic Compliance Matrix: (Units=1/GPa)
#
#
# Indices 1 2 3 4 5 6 
#
# 1 0.011399 -0.001818 -0.009259 0.000000 0.003706 0.000000
# 2 -0.001818 0.010648 0.000268 0.000000 -0.000069 0.000000
# 3 -0.009259 0.000268 0.027348 0.000000 -0.000099 0.000000
# 4 0.000000 0.000000 0.000000 0.101536 0.000000 0.076353
# 5 0.003706 -0.000069 -0.000099 0.000000 0.026483 0.000000
# 6 0.000000 0.000000 0.000000 0.076353 0.000000 0.103240
#
#
# Mechanical properties :
#
#
# Convention : Reuss Voigt Hill
#
# Bulk Modulus (GPa) = 35.99673 47.62687 41.81180
# Shear Modulus (GPa) = 16.04981 30.86250 23.45616
#
# Velocity S-wave (km/s) = 2.55821 3.54745 3.09264
# Velocity P-wave (km/s) = 4.83775 6.01660 5.45909
#
# Compressibility (1/GPa) = 0.02778030
#
# Stress axis : x y z
#
# Youngs Moduli (GPa) = 87.72414 93.91188 36.56551
#
# Poissons Ratio (x) = 0.17069 0.33855
# Poissons Ratio (y) = 0.15944 -0.00981
# Poissons Ratio (z) = 0.81221 -0.02521
#
# Static dielectric constant tensor:
#      x y z
#    x 2.069180 0.000000 0.000000 
#    y 0.000000 2.079450 0.000000 
#    z 0.000000 0.000000 1.973240 
# 
# From -- ./inp_files/264677.got.cif
#   From: 2010.05.17/outbox.cif.g08.bks.cpg/sg15_133_cif.got.tgz:264677.got - 2010.06.03 18:47:42.
