data_PCOD9298898
_publ_section_title
;
Structure prediction by ZEFSAII (Michael W. Deem and Ramdas Pophale) SiO2 
 PCOD9298898
Probable space group: C 2/C
;
_chemical_formula_sum "Si O2"
_cell_formula_units_Z 48
_cell_length_a 29.761253
_cell_length_b 10.709132
_cell_length_c 23.276152
_cell_angle_alpha 90.000000
_cell_angle_beta 14.387228
_cell_angle_gamma 90.000000
_cell_volume 1843.306559
_symmetry_space_group_name_H-M "C 2/C"
_symmetry_group_IT_number 15
_symmetry_cell_setting 'monoclinic'
loop_
_space_group_symop_operation_xyz
x,y,z
-x,y,1/2-z
-x,-y,-z
x,-y,1/2+z
1/2+x,1/2+y,z
1/2-x,1/2+y,1/2-z
1/2-x,1/2-y,-z
1/2+x,1/2-y,1/2+z
loop_
_atom_site_type_symbol
_atom_site_label
_atom_site_fract_x
_atom_site_fract_y
_atom_site_fract_z
Si Si1 0.350711 0.234936 0.763950
Si Si2 0.979658 0.637520 0.843280
Si Si3 0.561512 0.859023 0.907123
Si Si4 0.526821 0.863593 0.649126
Si Si5 0.898452 0.989284 0.437430
Si Si6 0.421396 0.661491 0.695715
O O1 0.405156 0.234414 0.762745
O O2 0.533163 0.207035 0.503325
O O3 0.234403 0.347126 0.883207
O O4 0.207784 0.120123 0.933076
O O5 0.038865 0.499591 0.789404
O O6 0.000000 0.651057 0.750000
O O7 0.744381 0.887480 0.645366
O O8 0.461117 0.757392 0.990127
O O9 0.500000 0.000000 0.000000
O O10 0.500000 0.856670 0.750000
O O11 0.416632 0.753746 0.756394
O O12 0.744861 0.862292 0.375909
O O13 0.000000 0.971607 0.250000
O O14 0.021460 0.966270 0.342397
#
# Coordination Sequence:
#
# PCOD9298898 Si02
#       6
#     8   8   8   8   8   8
#     4  11  26  48  74 101 156 195 248 309 373 443
#     4  11  26  45  75 107 147 195 255 308 368 443
#     4  10  24  46  69 101 148 194 240 301 370 441
#     4  11  25  40  68 104 146 182 244 304 374 432
#     4  11  25  42  76 108 145 195 249 307 377 433
#     4  12  24  42  69 103 142 189 244 300 373 437
#
# _framework density 26.040161999999999
#
# number of rings (size 3 to 8) (size 9 to 14) (size 15 to 20)
#    0.000    1.000    1.667    4.000   11.667    0.000 
#    0.000    0.833    0.000    0.000    0.000    0.000 
#    0.000    0.000    0.000    0.000    0.000    0.000 
#
# Total GULP energy -133720.894469 kJ/mol
# GULP energy per Si atom -5571.703936 kJ/mol
# Density = 2.598089 g / cm^3
# Si number density = 26.040162 Si / 1000 Ang^3
#
#
#
# Elastic Constant Matrix: (Units=GPa)
#
#
# Indices 1 2 3 4 5 6 
#
# 1 101.9515 21.0679 30.5549 0.0010 -0.8355 -0.0025
# 2 21.0679 80.1173 8.2098 0.0061 0.6439 -0.0038
# 3 30.5549 8.2098 111.1383 0.0101 17.8830 -0.0089
# 4 0.0010 0.0061 0.0101 14.6328 -0.0052 -18.8873
# 5 -0.8355 0.6439 17.8830 -0.0052 36.9174 0.0041
# 6 -0.0025 -0.0038 -0.0089 -18.8873 0.0041 18.5558
#
#
#
# Elastic Compliance Matrix: (Units=1/GPa)
#
#
# Indices 1 2 3 4 5 6 
#
# 1 0.011340 -0.002667 -0.003221 -0.000006 0.001863 -0.000007
# 2 -0.002667 0.013206 -0.000212 0.000007 -0.000188 0.000010
# 3 -0.003221 -0.000212 0.010748 0.000005 -0.005275 0.000011
# 4 -0.000006 0.000007 0.000005 -0.217769 -0.000008 -0.221660
# 5 0.001863 -0.000188 -0.005275 -0.000008 0.029688 -0.000017
# 6 -0.000007 0.000010 0.000011 -0.221660 -0.000017 -0.171729
#
#
# Mechanical properties :
#
#
# Convention : Reuss Voigt Hill
#
# Bulk Modulus (GPa) = 43.29942 45.87469 44.58705
# Shear Modulus (GPa) = -16.41403 29.57950 6.58274
#
# Velocity S-wave (km/s) = -2.51337 3.37400 1.59167
# Velocity P-wave (km/s) = 2.87077 5.73006 4.53183
#
# Compressibility (1/GPa) = 0.02309500
#
# Stress axis : x y z
#
# Youngs Moduli (GPa) = 88.18208 75.72158 93.04296
#
# Poissons Ratio (x) = 0.20195 0.29965
# Poissons Ratio (y) = 0.23518 0.01973
# Poissons Ratio (z) = 0.28399 0.01606
#
# Static dielectric constant tensor:
#      x y z
#    x 2.139290 0.000000 -0.089470 
#    y 0.000000 2.098500 0.000000 
#    z -0.089470 0.000000 2.260680 
# 
# From -- ./inp_files/257574.got.cif
#   From: 2010.05.17/outbox.cif.g08.bks.cpg/sg15_129_cif.got.tgz:257574.got - 2010.06.03 18:47:42.
