data_PCOD9298384
_publ_section_title
;
Structure prediction by ZEFSAII (Michael W. Deem and Ramdas Pophale) SiO2 
 PCOD9298384
Probable space group: C 2/C
;
_chemical_formula_sum "Si O2"
_cell_formula_units_Z 40
_cell_length_a 29.768555
_cell_length_b 9.154629
_cell_length_c 21.963953
_cell_angle_alpha 90.000000
_cell_angle_beta 18.312026
_cell_angle_gamma 90.000000
_cell_volume 1880.631708
_symmetry_space_group_name_H-M "C 2/C"
_symmetry_group_IT_number 15
_symmetry_cell_setting 'monoclinic'
loop_
_space_group_symop_operation_xyz
x,y,z
-x,y,1/2-z
-x,-y,-z
x,-y,1/2+z
1/2+x,1/2+y,z
1/2-x,1/2+y,1/2-z
1/2-x,1/2-y,-z
1/2+x,1/2-y,1/2+z
loop_
_atom_site_type_symbol
_atom_site_label
_atom_site_fract_x
_atom_site_fract_y
_atom_site_fract_z
Si Si1 0.547950 0.528192 0.368006
Si Si2 0.330255 0.985844 0.215081
Si Si3 0.880566 0.525688 0.454635
Si Si4 0.586924 0.641536 0.574397
Si Si5 0.146333 0.287476 0.917391
O O1 0.500000 0.500000 0.500000
O O2 0.490771 0.432753 0.383798
O O3 0.480813 0.687474 0.443666
O O4 0.717848 0.509062 0.145855
O O5 0.237441 0.055431 0.388884
O O6 0.291843 0.095926 0.209426
O O7 0.269151 0.825073 0.280745
O O8 0.500000 0.000000 0.000000
O O9 0.883041 0.688654 0.479259
O O10 0.918827 0.391201 0.448036
O O11 0.000000 0.530604 0.250000
O O12 0.500000 0.632041 0.750000
#
# Coordination Sequence:
#
# PCOD9298384 Si02
#       5
#     8   8   8   8   8
#     4  11  24  44  69  97 134 175 221 278 329 391
#     4  11  23  40  66  93 124 169 219 267 322 386
#     4  11  25  43  66  99 136 176 222 273 331 395
#     4  10  24  44  68  98 136 177 221 271 331 397
#     4  11  24  40  64  95 130 171 219 275 326 389
#
# _framework density 21.269448000000001
#
# number of rings (size 3 to 8) (size 9 to 14) (size 15 to 20)
#    0.000    1.200    0.000    6.000    0.000   15.200 
#    0.000    0.000    0.000    0.000    0.000    0.000 
#    0.000    0.000    0.000    0.000    0.000    0.000 
#
# Total GULP energy -111635.834695 kJ/mol
# GULP energy per Si atom -5581.791735 kJ/mol
# Density = 2.122104 g / cm^3
# Si number density = 21.269448 Si / 1000 Ang^3
#
#
#
# Elastic Constant Matrix: (Units=GPa)
#
#
# Indices 1 2 3 4 5 6 
#
# 1 86.0511 51.0326 41.7431 0.0001 5.0917 0.0000
# 2 51.0326 126.7608 26.1833 -0.0021 15.0914 0.0004
# 3 41.7431 26.1833 134.2888 -0.0011 0.8225 0.0002
# 4 0.0001 -0.0021 -0.0011 38.7629 0.0001 8.2085
# 5 5.0917 15.0914 0.8225 0.0001 18.5687 0.0000
# 6 0.0000 0.0004 0.0002 8.2085 0.0000 39.2767
#
#
#
# Elastic Compliance Matrix: (Units=1/GPa)
#
#
# Indices 1 2 3 4 5 6 
#
# 1 0.017259 -0.006139 -0.004171 -0.000001 0.000442 0.000000
# 2 -0.006139 0.011304 -0.000250 0.000001 -0.007493 0.000000
# 3 -0.004171 -0.000250 0.008786 0.000000 0.000957 0.000000
# 4 -0.000001 0.000001 0.000000 0.026992 -0.000001 -0.005641
# 5 0.000442 -0.007493 0.000957 -0.000001 0.059780 0.000000
# 6 0.000000 0.000000 0.000000 -0.005641 0.000000 0.026639
#
#
# Mechanical properties :
#
#
# Convention : Reuss Voigt Hill
#
# Bulk Modulus (GPa) = 61.61595 65.00207 63.30901
# Shear Modulus (GPa) = 28.20235 34.53110 31.36673
#
# Velocity S-wave (km/s) = 3.64532 4.03365 3.84439
# Velocity P-wave (km/s) = 6.83739 7.23335 7.03815
#
# Compressibility (1/GPa) = 0.01622956
#
# Stress axis : x y z
#
# Youngs Moduli (GPa) = 57.94095 88.46285 113.81929
#
# Poissons Ratio (x) = 0.54311 0.47469
# Poissons Ratio (y) = 0.35573 0.02843
# Poissons Ratio (z) = 0.24164 0.02209
#
# Static dielectric constant tensor:
#      x y z
#    x 1.845660 0.000000 -0.007460 
#    y 0.000000 1.783460 0.000000 
#    z -0.007460 0.000000 1.792820 
# 
# From -- ./inp_files/125445.got.cif
#   From: 2010.05.17/outbox.cif.g08.bks.cpg/sg15_63_cif.got.tgz:125445.got - 2010.06.03 18:47:42.
