data_PCOD9298034
_publ_section_title
;
Structure prediction by ZEFSAII (Michael W. Deem and Ramdas Pophale) SiO2 
 PCOD9298034
Probable space group: C 2/C
;
_chemical_formula_sum "Si O2"
_cell_formula_units_Z 40
_cell_length_a 11.309490
_cell_length_b 17.098593
_cell_length_c 16.078384
_cell_angle_alpha 90.000000
_cell_angle_beta 148.078461
_cell_angle_gamma 90.000000
_cell_volume 1644.001807
_symmetry_space_group_name_H-M "C 2/C"
_symmetry_group_IT_number 15
_symmetry_cell_setting 'monoclinic'
loop_
_space_group_symop_operation_xyz
x,y,z
-x,y,1/2-z
-x,-y,-z
x,-y,1/2+z
1/2+x,1/2+y,z
1/2-x,1/2+y,1/2-z
1/2-x,1/2-y,-z
1/2+x,1/2-y,1/2+z
loop_
_atom_site_type_symbol
_atom_site_label
_atom_site_fract_x
_atom_site_fract_y
_atom_site_fract_z
Si Si1 0.582148 0.774194 0.642307
Si Si2 0.500000 0.904563 0.250000
Si Si3 0.135124 0.863066 0.412521
Si Si4 0.930810 0.205457 0.029404
Si Si5 0.643653 0.022737 0.003606
Si Si6 0.500000 0.655993 0.250000
O O1 0.373402 0.820719 0.553041
O O2 0.524909 0.681136 0.617767
O O3 0.799250 0.808051 0.817527
O O4 0.598344 0.776728 0.552079
O O5 0.733688 0.856334 0.394298
O O6 0.498272 0.951414 0.336516
O O7 0.197395 0.953742 0.439263
O O8 0.000000 0.840708 0.250000
O O9 0.943599 0.210991 0.137438
O O10 0.800631 0.092204 0.128427
O O11 0.500000 0.000000 0.000000
#
# Coordination Sequence:
#
# PCOD9298034 Si02
#       6
#     8   4   8   8   8   4
#     4  11  25  43  72 104 143 186 232 299 361 421
#     4  10  28  47  70 105 144 190 246 294 348 442
#     4  11  23  44  71 107 140 179 238 291 354 434
#     4  11  25  46  68 101 144 188 241 289 361 417
#     4  11  24  45  73 101 142 188 236 296 357 417
#     4  10  24  43  66 101 134 186 242 290 344 434
#
# _framework density 24.330874000000001
#
# number of rings (size 3 to 8) (size 9 to 14) (size 15 to 20)
#    0.000    1.200    3.000    1.200    2.800    8.800 
#    0.000    7.000    0.000    0.000    0.000    0.000 
#    0.000    0.000    0.000    0.000    0.000    0.000 
#
# Total GULP energy -111424.420157 kJ/mol
# GULP energy per Si atom -5571.221008 kJ/mol
# Density = 2.427550 g / cm^3
# Si number density = 24.330874 Si / 1000 Ang^3
#
#
#
# Elastic Constant Matrix: (Units=GPa)
#
#
# Indices 1 2 3 4 5 6 
#
# 1 100.3028 36.6124 43.5951 0.0000 -11.9214 0.0001
# 2 36.6124 103.2978 29.7830 0.0002 4.6862 -0.0001
# 3 43.5951 29.7830 196.6593 0.0011 -14.9384 0.0002
# 4 0.0000 0.0002 0.0011 25.2184 0.0002 -8.4397
# 5 -11.9214 4.6862 -14.9384 0.0002 37.4700 0.0002
# 6 0.0001 -0.0001 0.0002 -8.4397 0.0002 34.3985
#
#
#
# Elastic Compliance Matrix: (Units=1/GPa)
#
#
# Indices 1 2 3 4 5 6 
#
# 1 0.012769 -0.004148 -0.001912 0.000000 0.003819 0.000000
# 2 -0.004148 0.011608 -0.001082 0.000000 -0.003203 0.000000
# 3 -0.001912 -0.001082 0.005813 0.000000 0.001844 0.000000
# 4 0.000000 0.000000 0.000000 0.043201 0.000000 0.010599
# 5 0.003819 -0.003203 0.001844 0.000000 0.029039 0.000000
# 6 0.000000 0.000000 0.000000 0.010599 0.000000 0.031672
#
#
# Mechanical properties :
#
#
# Convention : Reuss Voigt Hill
#
# Bulk Modulus (GPa) = 62.86903 68.91568 65.89236
# Shear Modulus (GPa) = 32.53377 38.76867 35.65122
#
# Velocity S-wave (km/s) = 3.66066 3.99606 3.83203
# Velocity P-wave (km/s) = 6.61533 7.04821 6.83519
#
# Compressibility (1/GPa) = 0.01590608
#
# Stress axis : x y z
#
# Youngs Moduli (GPa) = 78.31567 86.14741 172.03431
#
# Poissons Ratio (x) = 0.35731 0.32899
# Poissons Ratio (y) = 0.32482 0.18611
# Poissons Ratio (z) = 0.14977 0.09320
#
# Static dielectric constant tensor:
#      x y z
#    x 2.403150 0.000000 0.142580 
#    y 0.000000 1.984480 0.000000 
#    z 0.142580 0.000000 1.998160 
# 
# From -- ./inp_files/199765.got.cif
#   From: 2010.05.17/outbox.cif.g08.bks.cpg/sg15_100_cif.got.tgz:199765.got - 2010.06.03 18:47:42.
