data_PCOD9298367
_publ_section_title
;
Structure prediction by ZEFSAII (Michael W. Deem and Ramdas Pophale) SiO2 
 PCOD9298367
Probable space group: C 2/C
;
_chemical_formula_sum "Si O2"
_cell_formula_units_Z 60
_cell_length_a 9.269557
_cell_length_b 22.460001
_cell_length_c 25.491697
_cell_angle_alpha 90.000000
_cell_angle_beta 147.028944
_cell_angle_gamma 90.000000
_cell_volume 2888.273013
_symmetry_space_group_name_H-M "C 2/C"
_symmetry_group_IT_number 15
_symmetry_cell_setting 'monoclinic'
loop_
_space_group_symop_operation_xyz
x,y,z
-x,y,1/2-z
-x,-y,-z
x,-y,1/2+z
1/2+x,1/2+y,z
1/2-x,1/2+y,1/2-z
1/2-x,1/2-y,-z
1/2+x,1/2-y,1/2+z
loop_
_atom_site_type_symbol
_atom_site_label
_atom_site_fract_x
_atom_site_fract_y
_atom_site_fract_z
Si Si1 0.288602 0.346753 0.842087
Si Si2 0.211928 0.968441 0.716739
Si Si3 0.549445 0.149548 0.455214
Si Si4 0.040734 0.837714 0.034820
Si Si5 0.303593 0.013504 0.986699
Si Si6 0.000000 0.108699 0.250000
Si Si7 0.750400 0.276709 0.940919
Si Si8 0.774430 0.536720 0.585653
O O1 0.265156 0.414704 0.817195
O O2 0.487535 0.315783 0.862404
O O3 0.000000 0.318457 0.750000
O O4 0.396725 0.343381 0.934024
O O5 0.083926 0.935912 0.728442
O O6 0.485413 0.001641 0.813417
O O7 0.994797 0.011927 0.625645
O O8 0.622070 0.079719 0.474005
O O9 0.487993 0.180209 0.492811
O O10 0.804642 0.175622 0.503577
O O11 0.258739 0.149137 0.339811
O O12 0.232382 0.780995 0.090361
O O13 0.204603 0.899273 0.088783
O O14 0.500000 0.000000 0.000000
O O15 0.345716 0.964890 0.045388
O O16 0.750000 0.250000 0.000000
O O17 0.500000 0.500000 0.500000
#
# Coordination Sequence:
#
# PCOD9298367 Si02
#       8
#     8   8   8   8   8   4   8   8
#     4  11  21  39  69  99 129 176 230 283 332 417
#     4  12  23  38  66 101 138 179 227 281 352 425
#     4  12  23  42  67 100 137 175 236 286 340 416
#     4  11  24  43  66  97 136 185 218 288 358 409
#     4  12  23  38  65  97 138 178 217 286 353 414
#     4  12  20  38  66 104 128 170 230 288 344 406
#     4  10  24  44  68  91 128 178 234 279 347 407
#     4  12  23  42  63  99 140 175 225 285 353 420
#
# _framework density 20.773658999999999
#
# number of rings (size 3 to 8) (size 9 to 14) (size 15 to 20)
#    0.000    0.533    6.667    2.000    1.867    0.000 
#    0.000    2.667    2.933    0.000    0.000    0.000 
#    0.000    0.000    0.000    0.000    0.000    0.000 
#
# Total GULP energy -167433.337796 kJ/mol
# GULP energy per Si atom -5581.111260 kJ/mol
# Density = 2.072638 g / cm^3
# Si number density = 20.773659 Si / 1000 Ang^3
#
#
#
# Elastic Constant Matrix: (Units=GPa)
#
#
# Indices 1 2 3 4 5 6 
#
# 1 133.3347 27.7075 26.5657 -0.0049 30.7068 -0.0023
# 2 27.7075 77.7240 34.4470 -0.0064 27.2750 -0.0020
# 3 26.5657 34.4470 113.6960 -0.0179 22.3062 -0.0062
# 4 -0.0049 -0.0064 -0.0179 14.5830 -0.0060 2.2598
# 5 30.7068 27.2750 22.3062 -0.0060 36.8610 -0.0023
# 6 -0.0023 -0.0020 -0.0062 2.2598 -0.0023 38.6100
#
#
#
# Elastic Compliance Matrix: (Units=1/GPa)
#
#
# Indices 1 2 3 4 5 6 
#
# 1 0.009356 -0.000612 -0.000636 -0.000001 -0.006956 0.000000
# 2 -0.000612 0.018446 -0.003254 -0.000001 -0.011170 0.000000
# 3 -0.000636 -0.003254 0.010614 0.000010 -0.003485 0.000001
# 4 -0.000001 -0.000001 0.000010 0.069201 0.000006 -0.004050
# 5 -0.006956 -0.011170 -0.003485 0.000006 0.043297 0.000001
# 6 0.000000 0.000000 0.000001 -0.004050 0.000001 0.026137
#
#
# Mechanical properties :
#
#
# Convention : Reuss Voigt Hill
#
# Bulk Modulus (GPa) = 34.00119 55.79948 44.90034
# Shear Modulus (GPa) = 25.52850 33.74643 29.63746
#
# Velocity S-wave (km/s) = 3.50935 4.03486 3.78125
# Velocity P-wave (km/s) = 5.72920 6.97322 6.38160
#
# Compressibility (1/GPa) = 0.02941074
#
# Stress axis : x y z
#
# Youngs Moduli (GPa) = 106.88560 54.21122 94.21814
#
# Poissons Ratio (x) = 0.03320 0.05990
# Poissons Ratio (y) = 0.06546 0.30661
# Poissons Ratio (z) = 0.06796 0.17642
#
# Static dielectric constant tensor:
#      x y z
#    x 1.838950 -0.000020 -0.013520 
#    y -0.000020 1.589790 -0.000010 
#    z -0.013520 -0.000010 1.748310 
# 
# From -- ./inp_files/290267.got.cif
#   From: 2010.05.17/outbox.cif.g08.bks.cpg/sg15_146_cif.got.tgz:290267.got - 2010.06.03 18:47:42.
