data_PCOD9298550
_publ_section_title
;
Structure prediction by ZEFSAII (Michael W. Deem and Ramdas Pophale) SiO2 
 PCOD9298550
Probable space group: C 2/C
;
_chemical_formula_sum "Si O2"
_cell_formula_units_Z 44
_cell_length_a 14.237998
_cell_length_b 9.901160
_cell_length_c 24.886398
_cell_angle_alpha 90.000000
_cell_angle_beta 152.480539
_cell_angle_gamma 90.000000
_cell_volume 1621.010763
_symmetry_space_group_name_H-M "C 2/C"
_symmetry_group_IT_number 15
_symmetry_cell_setting 'monoclinic'
loop_
_space_group_symop_operation_xyz
x,y,z
-x,y,1/2-z
-x,-y,-z
x,-y,1/2+z
1/2+x,1/2+y,z
1/2-x,1/2+y,1/2-z
1/2-x,1/2-y,-z
1/2+x,1/2-y,1/2+z
loop_
_atom_site_type_symbol
_atom_site_label
_atom_site_fract_x
_atom_site_fract_y
_atom_site_fract_z
Si Si1 0.650663 0.125567 0.073889
Si Si2 0.540631 0.183134 0.169639
Si Si3 0.000000 0.532345 0.250000
Si Si4 0.683874 0.816511 0.260521
Si Si5 0.199477 0.444131 0.487757
Si Si6 0.024542 0.106576 0.060720
O O1 0.776572 0.174975 0.188985
O O2 0.514992 0.253720 0.989571
O O3 0.783014 0.097159 0.087808
O O4 0.500000 0.000000 0.000000
O O5 0.613462 0.318872 0.175522
O O6 0.764603 0.125851 0.299725
O O7 0.400759 0.092944 0.059894
O O8 0.927080 0.642210 0.168079
O O9 0.646706 0.426376 0.982590
O O10 0.631082 0.921842 0.282266
O O11 0.508345 0.847663 0.374810
O O12 0.000000 0.000000 0.000000
#
# Coordination Sequence:
#
# PCOD9298550 Si02
#       6
#     8   8   4   8   8   8
#     4  12  24  42  71 109 148 191 244 315 385 454
#     4  11  22  42  73 105 144 194 255 312 374 454
#     4  10  24  44  74 104 146 206 252 312 384 462
#     4  11  22  41  72 102 147 194 246 307 378 451
#     4  11  24  47  72 107 151 196 252 313 379 464
#     4  12  25  45  79 107 139 205 261 303 385 472
#
# _framework density 27.143557999999999
#
# number of rings (size 3 to 8) (size 9 to 14) (size 15 to 20)
#    0.000    0.727    3.636    7.091    2.545    0.000 
#    0.000    0.909    8.000   14.182    0.000    0.000 
#    0.000    0.000    0.000    0.000    0.000    0.000 
#
# Total GULP energy -122614.486296 kJ/mol
# GULP energy per Si atom -5573.385741 kJ/mol
# Density = 2.708178 g / cm^3
# Si number density = 27.143558 Si / 1000 Ang^3
#
#
#
# Elastic Constant Matrix: (Units=GPa)
#
#
# Indices 1 2 3 4 5 6 
#
# 1 92.9798 56.7043 -10.6654 0.0000 -23.0061 0.0000
# 2 56.7043 126.9501 3.3308 0.0001 5.9496 0.0000
# 3 -10.6654 3.3308 69.6380 0.0003 -4.4965 0.0000
# 4 0.0000 0.0001 0.0003 32.9614 0.0000 3.7052
# 5 -23.0061 5.9496 -4.4965 0.0000 58.1909 0.0000
# 6 0.0000 0.0000 0.0000 3.7052 0.0000 53.7848
#
#
#
# Elastic Compliance Matrix: (Units=1/GPa)
#
#
# Indices 1 2 3 4 5 6 
#
# 1 0.018741 -0.008876 0.003851 0.000000 0.008615 0.000000
# 2 -0.008876 0.012132 -0.002258 0.000000 -0.004924 0.000000
# 3 0.003851 -0.002258 0.015247 0.000000 0.002932 0.000000
# 4 0.000000 0.000000 0.000000 0.030575 0.000000 -0.002106
# 5 0.008615 -0.004924 0.002932 0.000000 0.021321 0.000000
# 6 0.000000 0.000000 0.000000 -0.002106 0.000000 0.018738
#
#
# Mechanical properties :
#
#
# Convention : Reuss Voigt Hill
#
# Bulk Modulus (GPa) = 31.69042 43.14525 37.41783
# Shear Modulus (GPa) = 35.25183 45.00066 40.12624
#
# Velocity S-wave (km/s) = 3.60768 4.07612 3.84903
# Velocity P-wave (km/s) = 5.39020 6.17112 5.79383
#
# Compressibility (1/GPa) = 0.03155528
#
# Stress axis : x y z
#
# Youngs Moduli (GPa) = 53.35820 82.42903 65.58645
#
# Poissons Ratio (x) = 0.73163 -0.25258
# Poissons Ratio (y) = 0.47360 0.14807
# Poissons Ratio (z) = -0.20549 0.18609
#
# Static dielectric constant tensor:
#      x y z
#    x 2.320010 0.000000 0.022850 
#    y 0.000000 2.235230 0.000000 
#    z 0.022850 0.000000 2.177800 
# 
# From -- ./inp_files/210083.got.cif
#   From: 2010.05.17/outbox.cif.g08.bks.cpg/sg15_106_cif.got.tgz:210083.got - 2010.06.03 18:47:42.
