data_PCOD9298765
_publ_section_title
;
Structure prediction by ZEFSAII (Michael W. Deem and Ramdas Pophale) SiO2 
 PCOD9298765
Probable space group: C 2/C
;
_chemical_formula_sum "Si O2"
_cell_formula_units_Z 64
_cell_length_a 14.802104
_cell_length_b 29.853564
_cell_length_c 8.355340
_cell_angle_alpha 90.000000
_cell_angle_beta 50.915994
_cell_angle_gamma 90.000000
_cell_volume 2865.958858
_symmetry_space_group_name_H-M "C 2/C"
_symmetry_group_IT_number 15
_symmetry_cell_setting 'monoclinic'
loop_
_space_group_symop_operation_xyz
x,y,z
-x,y,1/2-z
-x,-y,-z
x,-y,1/2+z
1/2+x,1/2+y,z
1/2-x,1/2+y,1/2-z
1/2-x,1/2-y,-z
1/2+x,1/2-y,1/2+z
loop_
_atom_site_type_symbol
_atom_site_label
_atom_site_fract_x
_atom_site_fract_y
_atom_site_fract_z
Si Si1 0.754691 0.353921 0.100771
Si Si2 0.314548 0.345897 0.698523
Si Si3 0.240804 0.997011 0.820980
Si Si4 0.123355 0.274676 0.634566
Si Si5 0.376658 0.439932 0.799151
Si Si6 0.603637 0.210333 0.513956
Si Si7 0.549413 0.313885 0.529149
Si Si8 0.367223 0.945476 0.944793
O O1 0.643275 0.343353 0.332878
O O2 0.719993 0.353550 0.949769
O O3 0.846258 0.313610 0.023295
O O4 0.815220 0.400123 0.072674
O O5 0.337884 0.393264 0.760505
O O6 0.430005 0.315219 0.562829
O O7 0.222230 0.317202 0.908256
O O8 0.137214 0.976979 0.827614
O O9 0.290177 0.958154 0.877215
O O10 0.343758 0.014226 0.592581
O O11 0.203698 0.038573 0.972817
O O12 0.250000 0.250000 0.500000
O O13 0.000000 0.249865 0.750000
O O14 0.093431 0.298402 0.836287
O O15 0.500000 0.436408 0.750000
O O16 0.500000 0.197628 0.750000
O O17 0.603034 0.264963 0.509685
O O18 0.500000 0.332620 0.750000
O O19 0.500000 0.940243 0.750000
#
# Coordination Sequence:
#
# PCOD9298765 Si02
#       8
#     8   8   8   8   8   8   8   8
#     4  11  24  44  66 101 140 184 239 300 354 443
#     4  11  25  44  68 103 149 184 248 292 366 439
#     4  10  24  45  73 103 146 182 237 297 359 440
#     4  11  24  42  69  98 136 184 238 291 363 432
#     4  11  23  46  71 109 146 187 236 291 369 434
#     4  10  25  45  67 101 137 189 236 304 361 430
#     4  11  25  42  68  99 139 188 237 298 368 433
#     4  11  23  45  71 104 138 189 238 293 362 431
#
# _framework density 22.331094
#
# number of rings (size 3 to 8) (size 9 to 14) (size 15 to 20)
#    0.000    1.250    2.500    1.875    7.000    3.000 
#    4.500    0.625    0.000    0.000    0.000    0.000 
#    0.000    0.000    0.000    0.000    0.000    0.000 
#
# Total GULP energy -178398.895221 kJ/mol
# GULP energy per Si atom -5574.965476 kJ/mol
# Density = 2.228027 g / cm^3
# Si number density = 22.331094 Si / 1000 Ang^3
#
#
#
# Elastic Constant Matrix: (Units=GPa)
#
#
# Indices 1 2 3 4 5 6 
#
# 1 72.9665 27.0709 46.1730 0.0000 -24.1910 0.0000
# 2 27.0709 117.1545 65.8970 0.0000 -22.3593 0.0000
# 3 46.1730 65.8970 168.8729 0.0000 -31.0775 0.0000
# 4 0.0000 0.0000 0.0000 36.4736 0.0000 -0.7298
# 5 -24.1910 -22.3593 -31.0775 0.0000 38.2003 0.0000
# 6 0.0000 0.0000 0.0000 -0.7298 0.0000 13.7532
#
#
#
# Elastic Compliance Matrix: (Units=1/GPa)
#
#
# Indices 1 2 3 4 5 6 
#
# 1 0.019023 -0.000886 -0.003215 0.000000 0.008912 0.000000
# 2 -0.000886 0.011377 -0.003616 0.000000 0.003156 0.000000
# 3 -0.003215 -0.003616 0.008759 0.000000 0.002973 0.000000
# 4 0.000000 0.000000 0.000000 0.027446 0.000000 0.001456
# 5 0.008912 0.003156 0.002973 0.000000 0.036087 0.000000
# 6 0.000000 0.000000 0.000000 0.001456 0.000000 0.072787
#
#
# Mechanical properties :
#
#
# Convention : Reuss Voigt Hill
#
# Bulk Modulus (GPa) = 42.15284 70.80841 56.48062
# Shear Modulus (GPa) = 25.14790 32.34228 28.74509
#
# Velocity S-wave (km/s) = 3.35944 3.80979 3.59168
# Velocity P-wave (km/s) = 5.82795 7.15052 6.52284
#
# Compressibility (1/GPa) = 0.02372320
#
# Stress axis : x y z
#
# Youngs Moduli (GPa) = 52.56773 87.89681 114.16770
#
# Poissons Ratio (x) = 0.07789 0.36709
# Poissons Ratio (y) = 0.04658 0.41288
# Poissons Ratio (z) = 0.16902 0.31787
#
# Static dielectric constant tensor:
#      x y z
#    x 2.005050 0.000000 0.018650 
#    y 0.000000 1.850260 0.000000 
#    z 0.018650 0.000000 1.805550 
# 
# From -- ./inp_files/44817.got.cif
#   From: 2010.05.17/outbox.cif.g08.bks.cpg/sg15_23_cif.got.tgz:44817.got - 2010.06.03 18:47:42.
