data_PCOD9298019
_publ_section_title
;
Structure prediction by ZEFSAII (Michael W. Deem and Ramdas Pophale) SiO2 
 PCOD9298019
Probable space group: C 2/C
;
_chemical_formula_sum "Si O2"
_cell_formula_units_Z 40
_cell_length_a 24.793661
_cell_length_b 10.140997
_cell_length_c 20.486310
_cell_angle_alpha 90.000000
_cell_angle_beta 161.471063
_cell_angle_gamma 90.000000
_cell_volume 1636.878646
_symmetry_space_group_name_H-M "C 2/C"
_symmetry_group_IT_number 15
_symmetry_cell_setting 'monoclinic'
loop_
_space_group_symop_operation_xyz
x,y,z
-x,y,1/2-z
-x,-y,-z
x,-y,1/2+z
1/2+x,1/2+y,z
1/2-x,1/2+y,1/2-z
1/2-x,1/2-y,-z
1/2+x,1/2-y,1/2+z
loop_
_atom_site_type_symbol
_atom_site_label
_atom_site_fract_x
_atom_site_fract_y
_atom_site_fract_z
Si Si1 0.498103 0.575605 0.319168
Si Si2 0.204221 0.143112 0.094054
Si Si3 0.548757 0.869526 0.515653
Si Si4 0.589495 0.161716 0.291379
Si Si5 0.760170 0.685617 0.387950
O O1 0.500000 0.509361 0.250000
O O2 0.595937 0.487336 0.484554
O O3 0.315416 0.604717 0.138735
O O4 0.601594 0.709589 0.430014
O O5 0.316789 0.199058 0.281220
O O6 0.329144 0.095716 0.178806
O O7 0.062370 0.245926 0.908808
O O8 0.394673 0.772365 0.320454
O O9 0.651090 0.898774 0.566641
O O10 0.500000 0.000000 0.500000
O O11 0.500000 0.090046 0.250000
O O12 0.750000 0.250000 0.500000
#
# Coordination Sequence:
#
# PCOD9298019 Si02
#       5
#     8   8   8   8   8
#     4  11  22  42  64  92 123 165 211 260 316 370
#     4  11  21  39  62  90 127 163 205 258 315 372
#     4  11  22  44  62  93 124 162 212 254 316 375
#     4   9  19  37  57  89 125 159 204 251 306 372
#     4  10  24  43  65  88 127 165 211 265 306 372
#
# _framework density 24.436753
#
# number of rings (size 3 to 8) (size 9 to 14) (size 15 to 20)
#    0.000    1.600    2.000    3.600    0.000    0.800 
#   14.400    1.000    0.000    0.000    0.000    0.000 
#    0.000    0.000    0.000    0.000    0.000    0.000 
#
# Total GULP energy -111803.294526 kJ/mol
# GULP energy per Si atom -5590.164726 kJ/mol
# Density = 2.438113 g / cm^3
# Si number density = 24.436753 Si / 1000 Ang^3
#
#
#
# Elastic Constant Matrix: (Units=GPa)
#
#
# Indices 1 2 3 4 5 6 
#
# 1 101.7181 10.2880 40.2226 0.0002 22.8521 0.0001
# 2 10.2880 39.1613 18.4267 0.0002 11.7047 0.0002
# 3 40.2226 18.4267 134.1396 0.0009 0.4444 0.0007
# 4 0.0002 0.0002 0.0009 41.7606 0.0003 5.9961
# 5 22.8521 11.7047 0.4444 0.0003 51.3200 0.0002
# 6 0.0001 0.0002 0.0007 5.9961 0.0002 19.5833
#
#
#
# Elastic Compliance Matrix: (Units=1/GPa)
#
#
# Indices 1 2 3 4 5 6 
#
# 1 0.012564 0.000145 -0.003769 0.000000 -0.005595 0.000000
# 2 0.000145 0.029424 -0.004063 0.000000 -0.006740 0.000000
# 3 -0.003769 -0.004063 0.009135 0.000000 0.002526 0.000000
# 4 0.000000 0.000000 0.000000 0.025047 0.000000 -0.007669
# 5 -0.005595 -0.006740 0.002526 0.000000 0.023492 0.000000
# 6 0.000000 0.000000 0.000000 -0.007669 0.000000 0.053412
#
#
# Mechanical properties :
#
#
# Convention : Reuss Voigt Hill
#
# Bulk Modulus (GPa) = 27.97325 45.87706 36.92515
# Shear Modulus (GPa) = 27.72187 36.27156 31.99672
#
# Velocity S-wave (km/s) = 3.37179 3.85685 3.62245
# Velocity P-wave (km/s) = 5.16049 6.21677 5.71309
#
# Compressibility (1/GPa) = 0.03574844
#
# Stress axis : x y z
#
# Youngs Moduli (GPa) = 79.59492 33.98631 109.47217
#
# Poissons Ratio (x) = -0.00492 0.41256
# Poissons Ratio (y) = -0.01153 0.44479
# Poissons Ratio (z) = 0.29997 0.13809
#
# Static dielectric constant tensor:
#      x y z
#    x 1.988120 0.000000 -0.043710 
#    y 0.000000 1.918540 0.000000 
#    z -0.043710 0.000000 1.968740 
# 
# From -- ./inp_files/46202.got.cif
#   From: 2010.05.17/outbox.cif.g08.bks.cpg/sg15_24_cif.got.tgz:46202.got - 2010.06.03 18:47:42.
