data_PCOD9298638
_publ_section_title
;
Structure prediction by ZEFSAII (Michael W. Deem and Ramdas Pophale) SiO2 
 PCOD9298638
Probable space group: C 2/C
;
_chemical_formula_sum "Si O2"
_cell_formula_units_Z 64
_cell_length_a 24.582751
_cell_length_b 21.343993
_cell_length_c 17.937354
_cell_angle_alpha 90.000000
_cell_angle_beta 20.028750
_cell_angle_gamma 90.000000
_cell_volume 3223.402085
_symmetry_space_group_name_H-M "C 2/C"
_symmetry_group_IT_number 15
_symmetry_cell_setting 'monoclinic'
loop_
_space_group_symop_operation_xyz
x,y,z
-x,y,1/2-z
-x,-y,-z
x,-y,1/2+z
1/2+x,1/2+y,z
1/2-x,1/2+y,1/2-z
1/2-x,1/2-y,-z
1/2+x,1/2-y,1/2+z
loop_
_atom_site_type_symbol
_atom_site_label
_atom_site_fract_x
_atom_site_fract_y
_atom_site_fract_z
Si Si1 0.268426 0.202797 0.408931
Si Si2 0.768239 0.161254 0.689864
Si Si3 0.908009 0.773188 0.514667
Si Si4 0.153119 0.579517 0.103138
Si Si5 0.684508 0.747902 0.002416
Si Si6 0.561696 0.040299 0.988908
Si Si7 0.397833 0.642718 0.162042
Si Si8 0.823055 0.005720 0.260605
O O1 0.250000 0.250000 0.500000
O O2 0.139519 0.209545 0.509077
O O3 0.270057 0.136431 0.449579
O O4 0.441043 0.228509 0.160490
O O5 0.731019 0.225796 0.781283
O O6 0.791669 0.183601 0.574560
O O7 0.630426 0.109187 0.878092
O O8 0.933862 0.138917 0.512400
O O9 0.925268 0.837174 0.540204
O O10 0.000000 0.601818 0.250000
O O11 0.071925 0.541140 0.274652
O O12 0.267317 0.540014 0.900345
O O13 0.787626 0.800572 0.829403
O O14 0.500000 0.761644 0.250000
O O15 0.750000 0.750000 0.000000
O O16 0.710242 0.008661 0.836970
O O17 0.500000 0.000000 0.000000
O O18 0.307781 0.578956 0.297177
O O19 0.000000 0.000000 0.000000
#
# Coordination Sequence:
#
# PCOD9298638 Si02
#       8
#     8   8   8   8   8   8   8   8
#     4  12  24  39  65 101 135 175 221 288 350 417
#     4  11  22  44  70  98 139 184 226 294 366 416
#     4  11  24  40  68 101 137 174 226 284 354 424
#     4  10  24  45  67  96 139 180 231 287 350 423
#     4  11  24  42  69 105 141 180 234 298 356 428
#     4  11  25  45  70  99 133 185 237 290 350 422
#     4  11  24  42  72 100 136 186 232 285 362 424
#     4  11  25  44  71  95 137 191 234 288 351 431
#
# _framework density 19.854799
#
# number of rings (size 3 to 8) (size 9 to 14) (size 15 to 20)
#    0.000    1.000    5.000    1.125    5.250    3.500 
#    0.000    0.625    0.000    0.000    0.000    0.000 
#    0.000    0.000    0.000    0.000    0.000    0.000 
#
# Total GULP energy -178288.399074 kJ/mol
# GULP energy per Si atom -5571.512471 kJ/mol
# Density = 1.980961 g / cm^3
# Si number density = 19.854799 Si / 1000 Ang^3
#
#
#
# Elastic Constant Matrix: (Units=GPa)
#
#
# Indices 1 2 3 4 5 6 
#
# 1 167.3156 52.1109 46.5290 0.0071 -3.7014 -0.0037
# 2 52.1109 93.4889 28.1006 0.0123 -8.2679 -0.0131
# 3 46.5290 28.1006 94.5899 0.0128 -0.1994 -0.0237
# 4 0.0071 0.0123 0.0128 33.3781 -0.0097 -1.8845
# 5 -3.7014 -8.2679 -0.1994 -0.0097 20.4067 0.0136
# 6 -0.0037 -0.0131 -0.0237 -1.8845 0.0136 13.8872
#
#
#
# Elastic Compliance Matrix: (Units=1/GPa)
#
#
# Indices 1 2 3 4 5 6 
#
# 1 0.007861 -0.003539 -0.002816 0.000000 -0.000035 -0.000006
# 2 -0.003539 0.013812 -0.002352 -0.000002 0.004931 0.000003
# 3 -0.002816 -0.002352 0.012653 -0.000003 -0.001340 0.000020
# 4 0.000000 -0.000002 -0.000003 0.030191 0.000011 0.004097
# 5 -0.000035 0.004931 -0.001340 0.000011 0.050982 -0.000046
# 6 -0.000006 0.000003 0.000020 0.004097 -0.000046 0.072565
#
#
# Mechanical properties :
#
#
# Convention : Reuss Voigt Hill
#
# Bulk Modulus (GPa) = 59.12602 67.65282 63.38942
# Shear Modulus (GPa) = 23.68385 28.77800 26.23093
#
# Velocity S-wave (km/s) = 3.45752 3.81126 3.63869
# Velocity P-wave (km/s) = 6.76632 7.31542 7.04622
#
# Compressibility (1/GPa) = 0.01691303
#
# Stress axis : x y z
#
# Youngs Moduli (GPa) = 127.20921 72.40098 79.03273
#
# Poissons Ratio (x) = 0.25619 0.22253
# Poissons Ratio (y) = 0.45014 0.18590
# Poissons Ratio (z) = 0.35819 0.17030
#
# Static dielectric constant tensor:
#      x y z
#    x 1.500660 -0.000120 -0.136000 
#    y -0.000120 1.668920 -0.000070 
#    z -0.136000 -0.000070 1.568690 
# 
# From -- ./inp_files/220252.got.cif
#   From: 2010.05.17/outbox.cif.g08.bks.cpg/sg15_111_cif.got.tgz:220252.got - 2010.06.03 18:47:42.
