data_PCOD9298863
_publ_section_title
;
Structure prediction by ZEFSAII (Michael W. Deem and Ramdas Pophale) SiO2 
 PCOD9298863
Probable space group: C 2/C
;
_chemical_formula_sum "Si O2"
_cell_formula_units_Z 52
_cell_length_a 16.467407
_cell_length_b 17.379294
_cell_length_c 9.302623
_cell_angle_alpha 90.000000
_cell_angle_beta 122.190817
_cell_angle_gamma 90.000000
_cell_volume 2253.077391
_symmetry_space_group_name_H-M "C 2/C"
_symmetry_group_IT_number 15
_symmetry_cell_setting 'monoclinic'
loop_
_space_group_symop_operation_xyz
x,y,z
-x,y,1/2-z
-x,-y,-z
x,-y,1/2+z
1/2+x,1/2+y,z
1/2-x,1/2+y,1/2-z
1/2-x,1/2-y,-z
1/2+x,1/2-y,1/2+z
loop_
_atom_site_type_symbol
_atom_site_label
_atom_site_fract_x
_atom_site_fract_y
_atom_site_fract_z
Si Si1 0.745056 0.161945 0.141784
Si Si2 0.753556 0.106693 0.838838
Si Si3 0.130452 0.471592 0.630005
Si Si4 0.591271 0.316789 0.492099
Si Si5 0.428391 0.494746 0.064313
Si Si6 0.000000 0.518745 0.250000
Si Si7 0.629730 0.724169 0.724768
O O1 0.724402 0.074418 0.172267
O O2 0.845358 0.188095 0.305190
O O3 0.664271 0.208307 0.152817
O O4 0.737124 0.160702 0.962516
O O5 0.800120 0.154816 0.754653
O O6 0.661765 0.057994 0.702464
O O7 0.833888 0.045172 0.962966
O O8 0.061263 0.472343 0.426371
O O9 0.075857 0.438296 0.718531
O O10 0.595713 0.404784 0.438232
O O11 0.480528 0.297031 0.412396
O O12 0.631746 0.265164 0.399000
O O13 0.500000 0.527003 0.250000
O O14 0.500000 0.500000 0.000000
#
# Coordination Sequence:
#
# PCOD9298863 Si02
#       7
#     8   8   8   8   8   4   8
#     4  12  26  45  69 104 140 190 239 291 368 428
#     4  12  25  42  71 104 143 183 232 301 360 426
#     4  11  24  45  71 102 137 182 244 303 353 428
#     4  11  23  45  70 102 135 190 241 286 359 429
#     4  12  21  37  68 105 140 174 226 292 352 416
#     4  10  24  46  68 100 134 180 236 300 358 414
#     4  11  26  46  66 102 149 186 235 293 360 435
#
# _framework density 23.079543999999999
#
# number of rings (size 3 to 8) (size 9 to 14) (size 15 to 20)
#    0.000    0.615    6.154    1.846    4.308    1.231 
#    5.538    0.000    0.000    0.000    0.000    0.000 
#    0.000    0.000    0.000    0.000    0.000    0.000 
#
# Total GULP energy -145340.041082 kJ/mol
# GULP energy per Si atom -5590.001580 kJ/mol
# Density = 2.302701 g / cm^3
# Si number density = 23.079544 Si / 1000 Ang^3
#
#
#
# Elastic Constant Matrix: (Units=GPa)
#
#
# Indices 1 2 3 4 5 6 
#
# 1 104.3262 18.0809 39.7727 0.0000 -15.8948 0.0000
# 2 18.0809 53.7501 11.4390 0.0000 1.1660 0.0000
# 3 39.7727 11.4390 130.1515 0.0000 -0.3293 0.0000
# 4 0.0000 0.0000 0.0000 23.1731 0.0000 -4.9669
# 5 -15.8948 1.1660 -0.3293 0.0000 45.3659 0.0000
# 6 0.0000 0.0000 0.0000 -4.9669 0.0000 39.3034
#
#
#
# Elastic Compliance Matrix: (Units=1/GPa)
#
#
# Indices 1 2 3 4 5 6 
#
# 1 0.012135 -0.003454 -0.003394 0.000000 0.004316 0.000000
# 2 -0.003454 0.019953 -0.000703 0.000000 -0.001728 0.000000
# 3 -0.003394 -0.000703 0.008779 0.000000 -0.001107 0.000000
# 4 0.000000 0.000000 0.000000 0.044355 0.000000 0.005605
# 5 0.004316 -0.001728 -0.001107 0.000000 0.023592 0.000000
# 6 0.000000 0.000000 0.000000 0.005605 0.000000 0.026151
#
#
# Mechanical properties :
#
#
# Convention : Reuss Voigt Hill
#
# Bulk Modulus (GPa) = 38.80814 47.42365 43.11589
# Shear Modulus (GPa) = 31.51479 36.16416 33.83948
#
# Velocity S-wave (km/s) = 3.69926 3.96275 3.83327
# Velocity P-wave (km/s) = 5.92431 6.44440 6.18982
#
# Compressibility (1/GPa) = 0.02576779
#
# Stress axis : x y z
#
# Youngs Moduli (GPa) = 82.40413 50.11684 113.90219
#
# Poissons Ratio (x) = 0.17308 0.38658
# Poissons Ratio (y) = 0.28458 0.08004
# Poissons Ratio (z) = 0.27968 0.03522
#
# Static dielectric constant tensor:
#      x y z
#    x 1.833310 0.000000 0.001580 
#    y 0.000000 1.911170 0.000000 
#    z 0.001580 0.000000 1.838990 
# 
# From -- ./inp_files/49239.got.cif
#   From: 2010.05.17/outbox.cif.g08.bks.cpg/sg15_25_cif.got.tgz:49239.got - 2010.06.03 18:47:42.
