data_PCOD9298143
_publ_section_title
;
Structure prediction by ZEFSAII (Michael W. Deem and Ramdas Pophale) SiO2 
 PCOD9298143
Probable space group: C 2/C
;
_chemical_formula_sum "Si O2"
_cell_formula_units_Z 52
_cell_length_a 30.082849
_cell_length_b 4.857773
_cell_length_c 14.685013
_cell_angle_alpha 90.000000
_cell_angle_beta 63.011212
_cell_angle_gamma 90.000000
_cell_volume 1912.294129
_symmetry_space_group_name_H-M "C 2/C"
_symmetry_group_IT_number 15
_symmetry_cell_setting 'monoclinic'
loop_
_space_group_symop_operation_xyz
x,y,z
-x,y,1/2-z
-x,-y,-z
x,-y,1/2+z
1/2+x,1/2+y,z
1/2-x,1/2+y,1/2-z
1/2-x,1/2-y,-z
1/2+x,1/2-y,1/2+z
loop_
_atom_site_type_symbol
_atom_site_label
_atom_site_fract_x
_atom_site_fract_y
_atom_site_fract_z
Si Si1 0.536394 0.420075 0.341519
Si Si2 0.726726 0.436672 0.317351
Si Si3 0.597266 0.618919 0.119062
Si Si4 0.440432 0.283506 0.505641
Si Si5 0.632281 0.124023 0.336471
Si Si6 0.750000 0.250000 0.500000
Si Si7 0.158494 0.609998 0.112836
O O1 0.553113 0.542282 0.229853
O O2 0.488304 0.223826 0.396256
O O3 0.533449 0.658250 0.421085
O O4 0.584890 0.268310 0.334449
O O5 0.736431 0.749372 0.279247
O O6 0.737372 0.372971 0.411179
O O7 0.671547 0.330814 0.344084
O O8 0.581241 0.539047 0.032775
O O9 0.612799 0.932811 0.115006
O O10 0.644638 0.428882 0.107977
O O11 0.392837 0.098831 0.574613
O O12 0.659250 0.023340 0.218561
O O13 0.791328 0.502668 0.477689
#
# Coordination Sequence:
#
# PCOD9298143 Si02
#       7
#     8   8   8   8   8   4   8
#     4  10  24  43  70 105 146 186 243 297 355 440
#     4  12  30  49  79 112 149 198 252 309 377 446
#     4  11  25  46  71 104 144 189 235 297 361 430
#     4  11  23  43  73 104 142 195 239 293 367 429
#     4  11  24  48  72 105 150 191 238 308 363 440
#     4  12  28  50  74 110 148 190 260 304 374 444
#     4  11  26  47  71 102 145 188 239 301 360 430
#
# _framework density 27.192468999999999
#
# number of rings (size 3 to 8) (size 9 to 14) (size 15 to 20)
#    0.000    0.923    3.077    1.846   10.769    2.462 
#    0.000    1.538    0.000    0.000    0.000    0.000 
#    0.000    0.000    0.000    0.000    0.000    0.000 
#
# Total GULP energy -145130.203759 kJ/mol
# GULP energy per Si atom -5581.930914 kJ/mol
# Density = 2.713058 g / cm^3
# Si number density = 27.192469 Si / 1000 Ang^3
#
#
#
# Elastic Constant Matrix: (Units=GPa)
#
#
# Indices 1 2 3 4 5 6 
#
# 1 98.9800 -0.8218 23.9302 0.0000 -8.7830 0.0000
# 2 -0.8218 63.1225 26.0917 0.0000 -3.1340 0.0000
# 3 23.9302 26.0917 128.1462 0.0000 8.8724 0.0000
# 4 0.0000 0.0000 0.0000 30.7180 0.0000 -0.3930
# 5 -8.7830 -3.1340 8.8724 0.0000 63.1479 0.0000
# 6 0.0000 0.0000 0.0000 -0.3930 0.0000 34.4908
#
#
#
# Elastic Compliance Matrix: (Units=1/GPa)
#
#
# Indices 1 2 3 4 5 6 
#
# 1 0.010866 0.001234 -0.002413 0.000000 0.001912 0.000000
# 2 0.001234 0.017556 -0.003915 0.000000 0.001593 0.000000
# 3 -0.002413 -0.003915 0.009177 0.000000 -0.001819 0.000000
# 4 0.000000 0.000000 0.000000 0.032559 0.000000 0.000371
# 5 0.001912 0.001593 -0.001819 0.000000 0.016436 0.000000
# 6 0.000000 0.000000 0.000000 0.000371 0.000000 0.028997
#
#
# Mechanical properties :
#
#
# Convention : Reuss Voigt Hill
#
# Bulk Modulus (GPa) = 36.48199 43.18321 39.83260
# Shear Modulus (GPa) = 37.05972 41.74123 39.40047
#
# Velocity S-wave (km/s) = 3.69571 3.92220 3.81063
# Velocity P-wave (km/s) = 5.62640 6.03544 5.83450
#
# Compressibility (1/GPa) = 0.02741079
#
# Stress axis : x y z
#
# Youngs Moduli (GPa) = 92.02819 56.96158 108.96493
#
# Poissons Ratio (x) = -0.07027 0.26290
# Poissons Ratio (y) = -0.11353 0.42662
# Poissons Ratio (z) = 0.22204 0.22301
#
# Static dielectric constant tensor:
#      x y z
#    x 2.146870 0.000000 -0.137100 
#    y 0.000000 2.228310 0.000000 
#    z -0.137100 0.000000 2.388900 
# 
# From -- ./inp_files/180050.got.cif
#   From: 2010.05.17/outbox.cif.g08.bks.cpg/sg15_91_cif.got.tgz:180050.got - 2010.06.03 18:47:42.
