data_PCOD9298267
_publ_section_title
;
Structure prediction by ZEFSAII (Michael W. Deem and Ramdas Pophale) SiO2 
 PCOD9298267
Probable space group: C 2/C
;
_chemical_formula_sum "Si O2"
_cell_formula_units_Z 48
_cell_length_a 13.695790
_cell_length_b 11.286647
_cell_length_c 18.170190
_cell_angle_alpha 90.000000
_cell_angle_beta 54.534522
_cell_angle_gamma 90.000000
_cell_volume 2287.620936
_symmetry_space_group_name_H-M "C 2/C"
_symmetry_group_IT_number 15
_symmetry_cell_setting 'monoclinic'
loop_
_space_group_symop_operation_xyz
x,y,z
-x,y,1/2-z
-x,-y,-z
x,-y,1/2+z
1/2+x,1/2+y,z
1/2-x,1/2+y,1/2-z
1/2-x,1/2-y,-z
1/2+x,1/2-y,1/2+z
loop_
_atom_site_type_symbol
_atom_site_label
_atom_site_fract_x
_atom_site_fract_y
_atom_site_fract_z
Si Si1 0.603492 0.615343 0.253581
Si Si2 0.857217 0.467053 0.635186
Si Si3 0.922328 0.255227 0.710794
Si Si4 0.989616 0.126792 0.543061
Si Si5 0.279081 0.221707 0.070157
Si Si6 0.360291 0.236550 0.627354
O O1 0.500000 0.558292 0.250000
O O2 0.717370 0.533694 0.222385
O O3 0.338504 0.712910 0.327381
O O4 0.570830 0.684241 0.341671
O O5 0.925123 0.374013 0.658050
O O6 0.842330 0.404546 0.561719
O O7 0.899182 0.600415 0.614713
O O8 0.972555 0.148132 0.637590
O O9 0.781483 0.242480 0.793161
O O10 0.000000 0.267362 0.750000
O O11 0.868440 0.182347 0.563275
O O12 0.101528 0.205285 0.466058
O O13 0.000000 0.000000 0.500000
O O14 0.250000 0.250000 0.000000
#
# Coordination Sequence:
#
# PCOD9298267 Si02
#       6
#     8   8   8   8   8   8
#     4   9  19  36  62  92 123 167 209 261 334 383
#     4   8  21  38  61  90 128 165 213 270 325 385
#     4  10  24  44  64  96 135 174 223 268 338 405
#     4  11  25  42  68  97 136 176 223 279 330 401
#     4   9  19  38  59  95 125 158 220 268 318 394
#     4  11  22  41  65  94 133 171 216 277 329 383
#
# _framework density 20.982496000000001
#
# number of rings (size 3 to 8) (size 9 to 14) (size 15 to 20)
#    1.000    1.333    1.667    1.000    4.667    6.000 
#    0.000    3.333    0.000    0.000    0.000    0.000 
#    0.000    0.000    0.000    0.000    0.000    0.000 
#
# Total GULP energy -133729.436658 kJ/mol
# GULP energy per Si atom -5572.059861 kJ/mol
# Density = 2.093474 g / cm^3
# Si number density = 20.982496 Si / 1000 Ang^3
#
#
#
# Elastic Constant Matrix: (Units=GPa)
#
#
# Indices 1 2 3 4 5 6 
#
# 1 88.3149 13.1409 26.6881 0.0000 25.7569 0.0000
# 2 13.1409 106.6724 27.2929 0.0000 5.8121 0.0000
# 3 26.6881 27.2929 113.4961 0.0000 9.6055 0.0000
# 4 0.0000 0.0000 0.0000 32.8896 0.0000 -0.1844
# 5 25.7569 5.8121 9.6055 0.0000 32.4072 0.0000
# 6 0.0000 0.0000 0.0000 -0.1844 0.0000 6.0165
#
#
#
# Elastic Compliance Matrix: (Units=1/GPa)
#
#
# Indices 1 2 3 4 5 6 
#
# 1 0.015530 -0.000641 -0.002526 0.000000 -0.011479 0.000000
# 2 -0.000641 0.010054 -0.002213 0.000000 -0.000638 0.000000
# 3 -0.002526 -0.002213 0.009984 0.000000 -0.000555 0.000000
# 4 0.000000 0.000000 0.000000 0.030410 0.000000 0.000932
# 5 -0.011479 -0.000638 -0.000555 0.000000 0.040260 0.000000
# 6 0.000000 0.000000 0.000000 0.000932 0.000000 0.166238
#
#
# Mechanical properties :
#
#
# Convention : Reuss Voigt Hill
#
# Bulk Modulus (GPa) = 40.31069 49.19193 44.75131
# Shear Modulus (GPa) = 17.15230 30.35342 23.75286
#
# Velocity S-wave (km/s) = 2.86222 3.80755 3.36822
# Velocity P-wave (km/s) = 5.49330 6.54409 6.04159
#
# Compressibility (1/GPa) = 0.02480732
#
# Stress axis : x y z
#
# Youngs Moduli (GPa) = 64.39255 99.45822 100.16034
#
# Poissons Ratio (x) = 0.06379 0.25301
# Poissons Ratio (y) = 0.04130 0.22166
# Poissons Ratio (z) = 0.16266 0.22011
#
# Static dielectric constant tensor:
#      x y z
#    x 1.749220 0.000000 -0.015980 
#    y 0.000000 1.781870 0.000000 
#    z -0.015980 0.000000 1.846200 
# 
# From -- ./inp_files/236850.got.cif
#   From: 2010.05.17/outbox.cif.g08.bks.cpg/sg15_119_cif.got.tgz:236850.got - 2010.06.03 18:47:42.
