data_PCOD9298318
_publ_section_title
;
Structure prediction by ZEFSAII (Michael W. Deem and Ramdas Pophale) SiO2 
 PCOD9298318
Probable space group: C 2/C
;
_chemical_formula_sum "Si O2"
_cell_formula_units_Z 60
_cell_length_a 9.077550
_cell_length_b 28.728699
_cell_length_c 11.561630
_cell_angle_alpha 90.000000
_cell_angle_beta 106.569905
_cell_angle_gamma 90.000000
_cell_volume 2889.903449
_symmetry_space_group_name_H-M "C 2/C"
_symmetry_group_IT_number 15
_symmetry_cell_setting 'monoclinic'
loop_
_space_group_symop_operation_xyz
x,y,z
-x,y,1/2-z
-x,-y,-z
x,-y,1/2+z
1/2+x,1/2+y,z
1/2-x,1/2+y,1/2-z
1/2-x,1/2-y,-z
1/2+x,1/2-y,1/2+z
loop_
_atom_site_type_symbol
_atom_site_label
_atom_site_fract_x
_atom_site_fract_y
_atom_site_fract_z
Si Si1 0.627484 0.822103 0.970331
Si Si2 0.853243 0.358566 0.277628
Si Si3 0.167061 0.590062 0.312282
Si Si4 0.265550 0.697901 0.956264
Si Si5 0.048445 0.777222 0.391652
Si Si6 0.542862 0.446306 0.504955
Si Si7 0.000000 0.101363 0.750000
Si Si8 0.140038 0.120925 0.358941
O O1 0.646584 0.860565 0.875440
O O2 0.528874 0.777919 0.907669
O O3 0.583592 0.845006 0.081999
O O4 0.785794 0.796698 0.041693
O O5 0.827679 0.316032 0.180176
O O6 0.675887 0.376909 0.262092
O O7 0.000000 0.385470 0.250000
O O8 0.282016 0.560339 0.415329
O O9 0.250769 0.596553 0.208964
O O10 0.000000 0.570116 0.250000
O O11 0.440820 0.694977 0.953388
O O12 0.250000 0.750000 0.000000
O O13 0.259803 0.659553 0.054131
O O14 0.000000 0.786874 0.250000
O O15 0.500000 0.500000 0.500000
O O16 0.527221 0.427000 0.372736
O O17 0.437150 0.414771 0.567181
O O18 0.000000 0.141572 0.250000
#
# Coordination Sequence:
#
# PCOD9298318 Si02
#       8
#     8   8   8   8   8   8   4   8
#     4  11  23  39  64  92 134 187 244 300 361 428
#     4  12  25  43  68 100 140 191 246 303 368 437
#     4  11  25  43  72 103 145 183 231 296 371 432
#     4  12  25  38  61  93 138 189 242 304 353 419
#     4  11  22  38  57  88 130 187 245 301 360 418
#     4  11  25  48  81 110 137 186 238 294 376 459
#     4  12  24  48  80 104 150 188 236 306 378 440
#     4  10  24  44  66  97 139 183 232 288 358 435
#
# _framework density 20.761941
#
# number of rings (size 3 to 8) (size 9 to 14) (size 15 to 20)
#    0.000    0.800    4.000    3.600    8.400    1.600 
#    0.000    1.333    0.000    0.000    0.000    0.000 
#    0.000    0.000    0.000    0.000    0.000    0.000 
#
# Total GULP energy -167302.043495 kJ/mol
# GULP energy per Si atom -5576.734783 kJ/mol
# Density = 2.071469 g / cm^3
# Si number density = 20.761941 Si / 1000 Ang^3
#
#
#
# Elastic Constant Matrix: (Units=GPa)
#
#
# Indices 1 2 3 4 5 6 
#
# 1 131.8129 28.9835 50.5521 0.0000 1.9748 0.0000
# 2 28.9835 92.5984 49.1045 0.0000 8.7623 0.0000
# 3 50.5521 49.1045 149.0749 0.0000 -3.6428 0.0000
# 4 0.0000 0.0000 0.0000 -68.1614 0.0000 -71.4648
# 5 1.9748 8.7623 -3.6428 0.0000 34.7047 0.0000
# 6 0.0000 0.0000 0.0000 -71.4648 0.0000 -45.2121
#
#
#
# Elastic Compliance Matrix: (Units=1/GPa)
#
#
# Indices 1 2 3 4 5 6 
#
# 1 0.008881 -0.001377 -0.002568 0.000000 -0.000427 0.000000
# 2 -0.001377 0.013809 -0.004175 0.000000 -0.003846 0.000000
# 3 -0.002568 -0.004175 0.009007 0.000000 0.002146 0.000000
# 4 0.000000 0.000000 0.000000 0.022321 0.000000 -0.035283
# 5 -0.000427 -0.003846 0.002146 0.000000 0.030035 0.000000
# 6 0.000000 0.000000 0.000000 -0.035283 0.000000 0.033652
#
#
# Mechanical properties :
#
#
# Convention : Reuss Voigt Hill
#
# Bulk Modulus (GPa) = 64.70788 70.08517 67.39653
# Shear Modulus (GPa) = 35.94594 0.58931 18.26763
#
# Velocity S-wave (km/s) = 4.16545 0.53335 2.96946
# Velocity P-wave (km/s) = 7.37352 5.84886 6.65500
#
# Compressibility (1/GPa) = 0.01545407
#
# Stress axis : x y z
#
# Youngs Moduli (GPa) = 112.60343 72.41870 111.02798
#
# Poissons Ratio (x) = 0.09974 0.28515
# Poissons Ratio (y) = 0.15509 0.46359
# Poissons Ratio (z) = 0.28919 0.30238
#
# Static dielectric constant tensor:
#      x y z
#    x 1.842980 0.000000 -0.016130 
#    y 0.000000 1.741760 0.000000 
#    z -0.016130 0.000000 1.863600 
# 
# From -- ./inp_files/82242.got.cif
#   From: 2010.05.17/outbox.cif.g08.bks.cpg/sg15_42_cif.got.tgz:82242.got - 2010.06.03 18:47:42.
