data_PCOD9298018
_publ_section_title
;
Structure prediction by ZEFSAII (Michael W. Deem and Ramdas Pophale) SiO2 
 PCOD9298018
Probable space group: C 2/C
;
_chemical_formula_sum "Si O2"
_cell_formula_units_Z 36
_cell_length_a 12.222529
_cell_length_b 24.740365
_cell_length_c 11.281822
_cell_angle_alpha 90.000000
_cell_angle_beta 24.252878
_cell_angle_gamma 90.000000
_cell_volume 1401.326982
_symmetry_space_group_name_H-M "C 2/C"
_symmetry_group_IT_number 15
_symmetry_cell_setting 'monoclinic'
loop_
_space_group_symop_operation_xyz
x,y,z
-x,y,1/2-z
-x,-y,-z
x,-y,1/2+z
1/2+x,1/2+y,z
1/2-x,1/2+y,1/2-z
1/2-x,1/2-y,-z
1/2+x,1/2-y,1/2+z
loop_
_atom_site_type_symbol
_atom_site_label
_atom_site_fract_x
_atom_site_fract_y
_atom_site_fract_z
Si Si1 0.281463 0.570617 0.268649
Si Si2 0.170175 0.714785 0.760634
Si Si3 0.349262 0.966035 0.011007
Si Si4 0.611007 0.641604 0.754199
Si Si5 0.500000 0.355377 0.750000
O O1 0.362377 0.510957 0.238329
O O2 0.312454 0.607970 0.352276
O O3 0.007500 0.554451 0.472621
O O4 0.427776 0.607485 0.026529
O O5 0.221511 0.681508 0.829692
O O6 0.296539 0.679454 0.530557
O O7 0.863340 0.732577 0.063581
O O8 0.500000 0.992363 0.750000
O O9 0.254309 0.909407 0.052996
O O10 0.500000 0.672840 0.750000
#
# Coordination Sequence:
#
# PCOD9298018 Si02
#       5
#     8   8   8   8   4
#     4  10  24  43  65 108 139 195 231 295 359 448
#     4  11  27  49  75 107 143 192 252 316 372 432
#     4  11  23  41  70 101 148 186 241 291 361 436
#     4  11  24  43  71  98 145 186 243 300 366 435
#     4  10  24  46  76 102 148 186 244 304 374 442
#
# _framework density 25.689934999999998
#
# number of rings (size 3 to 8) (size 9 to 14) (size 15 to 20)
#    0.000    1.333    2.222    1.333    7.778    8.000 
#    4.000    0.000    0.000    0.000    0.000    0.000 
#    0.000    0.000    0.000    0.000    0.000    0.000 
#
# Total GULP energy -100468.247134 kJ/mol
# GULP energy per Si atom -5581.569285 kJ/mol
# Density = 2.563146 g / cm^3
# Si number density = 25.689935 Si / 1000 Ang^3
#
#
#
# Elastic Constant Matrix: (Units=GPa)
#
#
# Indices 1 2 3 4 5 6 
#
# 1 146.0804 38.2911 10.6644 0.0044 21.0870 0.0034
# 2 38.2911 88.5618 13.3573 -0.0011 6.6522 -0.0010
# 3 10.6644 13.3573 61.1988 0.0202 14.0517 0.0350
# 4 0.0044 -0.0011 0.0202 24.6639 0.0071 -1.4723
# 5 21.0870 6.6522 14.0517 0.0071 38.5789 -0.0040
# 6 0.0034 -0.0010 0.0350 -1.4723 -0.0040 47.0519
#
#
#
# Elastic Compliance Matrix: (Units=1/GPa)
#
#
# Indices 1 2 3 4 5 6 
#
# 1 0.008279 -0.003308 0.000204 -0.000001 -0.004030 -0.000001
# 2 -0.003308 0.013047 -0.002368 0.000003 0.000421 0.000002
# 3 0.000204 -0.002368 0.018282 -0.000014 -0.006362 -0.000015
# 4 -0.000001 0.000003 -0.000014 0.040621 -0.000002 0.001271
# 5 -0.004030 0.000421 -0.006362 -0.000002 0.030368 0.000008
# 6 -0.000001 0.000002 -0.000015 0.001271 0.000008 0.021293
#
#
# Mechanical properties :
#
#
# Convention : Reuss Voigt Hill
#
# Bulk Modulus (GPa) = 34.88423 46.71853 40.80138
# Shear Modulus (GPa) = 32.81072 37.62749 35.21910
#
# Velocity S-wave (km/s) = 3.57765 3.83126 3.70662
# Velocity P-wave (km/s) = 5.53846 6.14788 5.85111
#
# Compressibility (1/GPa) = 0.02866625
#
# Stress axis : x y z
#
# Youngs Moduli (GPa) = 120.78224 76.64423 54.69779
#
# Poissons Ratio (x) = 0.25353 -0.01118
# Poissons Ratio (y) = 0.39953 0.12952
# Poissons Ratio (z) = -0.02469 0.18149
#
# Static dielectric constant tensor:
#      x y z
#    x 2.100240 0.000000 -0.085140 
#    y 0.000000 2.021980 0.000000 
#    z -0.085140 0.000000 2.193590 
# 
# From -- ./inp_files/4738.got.cif
#   From: 2010.05.17/outbox.cif.g08.bks.cpg/sg15_3_cif.got.tgz:4738.got - 2010.06.03 18:47:42.
