data_PCOD9298360
_publ_section_title
;
Structure prediction by ZEFSAII (Michael W. Deem and Ramdas Pophale) SiO2 
 PCOD9298360
Probable space group: C 2/C
;
_chemical_formula_sum "Si O2"
_cell_formula_units_Z 44
_cell_length_a 26.959690
_cell_length_b 7.701419
_cell_length_c 19.228113
_cell_angle_alpha 90.000000
_cell_angle_beta 155.234080
_cell_angle_gamma 90.000000
_cell_volume 1672.419297
_symmetry_space_group_name_H-M "C 2/C"
_symmetry_group_IT_number 15
_symmetry_cell_setting 'monoclinic'
loop_
_space_group_symop_operation_xyz
x,y,z
-x,y,1/2-z
-x,-y,-z
x,-y,1/2+z
1/2+x,1/2+y,z
1/2-x,1/2+y,1/2-z
1/2-x,1/2-y,-z
1/2+x,1/2-y,1/2+z
loop_
_atom_site_type_symbol
_atom_site_label
_atom_site_fract_x
_atom_site_fract_y
_atom_site_fract_z
Si Si1 0.509215 0.893207 0.608471
Si Si2 0.231306 0.910590 0.570237
Si Si3 0.000000 0.299915 0.750000
Si Si4 0.410917 0.752193 0.988847
Si Si5 0.831170 0.904237 0.847849
Si Si6 0.000000 0.727198 0.750000
Si Si7 0.250000 0.250000 0.500000
O O1 0.641187 0.821151 0.771852
O O2 0.480215 0.904029 0.654046
O O3 0.419521 0.756523 0.461738
O O4 0.490970 0.091226 0.560594
O O5 0.211260 0.930046 0.626632
O O6 0.118155 0.814476 0.394612
O O7 0.246949 0.086980 0.548321
O O8 0.469414 0.684725 0.135224
O O9 0.284900 0.847101 0.841344
O O10 0.389970 0.591350 0.910159
O O11 0.132151 0.663343 0.894329
#
# Coordination Sequence:
#
# PCOD9298360 Si02
#       7
#     8   8   4   8   8   4   4
#     4  11  24  43  71 105 146 201 255 323 388 471
#     4  11  24  43  73 110 155 204 262 329 393 471
#     4  10  24  44  68 107 155 196 263 319 394 465
#     4  12  24  49  76 109 152 208 256 327 392 472
#     4  11  26  48  73 106 155 200 265 322 400 466
#     4  12  26  48  78 117 155 206 271 325 400 475
#     4  12  24  44  78 118 154 208 258 330 394 476
#
# _framework density 26.309191999999999
#
# number of rings (size 3 to 8) (size 9 to 14) (size 15 to 20)
#    0.000    0.727    5.455    1.636    2.545    0.727 
#    3.273    4.545    0.000    0.000    0.000    0.000 
#    0.000    0.000    0.000    0.000    0.000    0.000 
#
# Total GULP energy -122512.878315 kJ/mol
# GULP energy per Si atom -5568.767196 kJ/mol
# Density = 2.624931 g / cm^3
# Si number density = 26.309192 Si / 1000 Ang^3
#
#
#
# Elastic Constant Matrix: (Units=GPa)
#
#
# Indices 1 2 3 4 5 6 
#
# 1 124.2843 38.9066 28.0326 0.0000 16.5510 0.0000
# 2 38.9066 105.3677 53.0751 0.0000 -10.2450 0.0000
# 3 28.0326 53.0751 169.8064 0.0000 -5.8859 0.0000
# 4 0.0000 0.0000 0.0000 48.3248 0.0000 7.4334
# 5 16.5510 -10.2450 -5.8859 0.0000 54.2653 0.0000
# 6 0.0000 0.0000 0.0000 7.4334 0.0000 44.3057
#
#
#
# Elastic Compliance Matrix: (Units=1/GPa)
#
#
# Indices 1 2 3 4 5 6 
#
# 1 0.009840 -0.003698 -0.000599 0.000000 -0.003764 0.000000
# 2 -0.003698 0.012822 -0.003287 0.000000 0.003192 0.000000
# 3 -0.000599 -0.003287 0.007026 0.000000 0.000324 0.000000
# 4 0.000000 0.000000 0.000000 0.021242 0.000000 -0.003564
# 5 -0.003764 0.003192 0.000324 0.000000 0.020214 0.000000
# 6 0.000000 0.000000 0.000000 -0.003564 0.000000 0.023168
#
#
# Mechanical properties :
#
#
# Convention : Reuss Voigt Hill
#
# Bulk Modulus (GPa) = 68.86294 71.05412 69.95853
# Shear Modulus (GPa) = 43.73723 48.00877 45.87300
#
# Velocity S-wave (km/s) = 4.08172 4.27639 4.18019
# Velocity P-wave (km/s) = 6.96026 7.17282 7.06734
#
# Compressibility (1/GPa) = 0.01452160
#
# Stress axis : x y z
#
# Youngs Moduli (GPa) = 101.62593 77.99273 142.31891
#
# Poissons Ratio (x) = 0.28838 0.08528
# Poissons Ratio (y) = 0.37577 0.46774
# Poissons Ratio (z) = 0.06089 0.25633
#
# Static dielectric constant tensor:
#      x y z
#    x 2.248760 0.000000 -0.091390 
#    y 0.000000 2.248080 0.000000 
#    z -0.091390 0.000000 2.248310 
# 
# From -- ./inp_files/284504.got.cif
#   From: 2010.05.17/outbox.cif.g08.bks.cpg/sg15_143_cif.got.tgz:284504.got - 2010.06.03 18:47:42.
