data_PCOD9298151
_publ_section_title
;
Structure prediction by ZEFSAII (Michael W. Deem and Ramdas Pophale) SiO2 
 PCOD9298151
Probable space group: C 2/C
;
_chemical_formula_sum "Si O2"
_cell_formula_units_Z 40
_cell_length_a 7.549390
_cell_length_b 21.075306
_cell_length_c 13.763773
_cell_angle_alpha 90.000000
_cell_angle_beta 48.844423
_cell_angle_gamma 90.000000
_cell_volume 1648.827379
_symmetry_space_group_name_H-M "C 2/C"
_symmetry_group_IT_number 15
_symmetry_cell_setting 'monoclinic'
loop_
_space_group_symop_operation_xyz
x,y,z
-x,y,1/2-z
-x,-y,-z
x,-y,1/2+z
1/2+x,1/2+y,z
1/2-x,1/2+y,1/2-z
1/2-x,1/2-y,-z
1/2+x,1/2-y,1/2+z
loop_
_atom_site_type_symbol
_atom_site_label
_atom_site_fract_x
_atom_site_fract_y
_atom_site_fract_z
Si Si1 0.000000 0.799333 0.250000
Si Si2 0.123498 0.147196 0.058380
Si Si3 0.736499 0.281334 0.686905
Si Si4 0.519209 0.513458 0.357293
Si Si5 0.354283 0.624224 0.974968
Si Si6 0.000000 0.422470 0.750000
O O1 0.892390 0.754859 0.206519
O O2 0.838652 0.844483 0.375240
O O3 0.885245 0.161905 0.206407
O O4 0.155984 0.071969 0.053846
O O5 0.302658 0.189906 0.057043
O O6 0.043339 0.160433 0.977155
O O7 0.500000 0.239895 0.750000
O O8 0.500000 0.504751 0.250000
O O9 0.446023 0.447486 0.431130
O O10 0.782733 0.534574 0.291240
O O11 0.112971 0.618869 0.121842
#
# Coordination Sequence:
#
# PCOD9298151 Si02
#       6
#     4   8   8   8   8   4
#     4  12  24  43  68 106 142 177 242 298 330 394
#     4   8  18  42  66  97 132 187 224 276 344 427
#     4   8  20  41  65  95 131 190 228 277 334 407
#     4  11  20  44  73 105 138 171 235 291 348 420
#     4  11  24  43  73 108 143 176 233 295 349 417
#     4  10  24  43  70  98 142 197 218 270 372 428
#
# _framework density 24.259665999999999
#
# number of rings (size 3 to 8) (size 9 to 14) (size 15 to 20)
#    1.200    0.800    3.000    2.400    0.000    5.600 
#    1.800    4.000    0.000    0.000    0.000    5.600 
#    0.000    0.000    0.000    0.000    0.000    0.000 
#
# Total GULP energy -111491.043722 kJ/mol
# GULP energy per Si atom -5574.552186 kJ/mol
# Density = 2.420445 g / cm^3
# Si number density = 24.259666 Si / 1000 Ang^3
#
#
#
# Elastic Constant Matrix: (Units=GPa)
#
#
# Indices 1 2 3 4 5 6 
#
# 1 133.0778 63.0269 67.1267 0.0000 25.0680 0.0000
# 2 63.0269 116.4947 48.3521 0.0000 8.1346 0.0000
# 3 67.1267 48.3521 123.6523 0.0000 30.1687 0.0000
# 4 0.0000 0.0000 0.0000 26.5939 0.0000 27.2652
# 5 25.0680 8.1346 30.1687 0.0000 49.5114 0.0000
# 6 0.0000 0.0000 0.0000 27.2652 0.0000 12.3633
#
#
#
# Elastic Compliance Matrix: (Units=1/GPa)
#
#
# Indices 1 2 3 4 5 6 
#
# 1 0.012444 -0.004802 -0.004150 0.000000 -0.002983 0.000000
# 2 -0.004802 0.012134 -0.002637 0.000000 0.002044 0.000000
# 3 -0.004150 -0.002637 0.012630 0.000000 -0.005162 0.000000
# 4 0.000000 0.000000 0.000000 -0.029820 0.000000 0.065762
# 5 -0.002983 0.002044 -0.005162 0.000000 0.024517 0.000000
# 6 0.000000 0.000000 0.000000 0.065762 0.000000 -0.064143
#
#
# Mechanical properties :
#
#
# Convention : Reuss Voigt Hill
#
# Bulk Modulus (GPa) = 71.27011 81.13735 76.20373
# Shear Modulus (GPa) = -1140.23301 30.67500 -554.77900
#
# Velocity S-wave (km/s) = -21.70328 3.55976 -15.13870
# Velocity P-wave (km/s) = 24.46633 7.10027 16.55577
#
# Compressibility (1/GPa) = 0.01403113
#
# Stress axis : x y z
#
# Youngs Moduli (GPa) = 80.36229 82.41614 79.17378
#
# Poissons Ratio (x) = 0.39573 0.32856
# Poissons Ratio (y) = 0.38587 0.20876
# Poissons Ratio (z) = 0.33350 0.21731
#
# Static dielectric constant tensor:
#      x y z
#    x 2.069260 0.000000 -0.013910 
#    y 0.000000 1.953410 0.000000 
#    z -0.013910 0.000000 1.949110 
# 
# From -- ./inp_files/136786.got.cif
#   From: 2010.05.17/outbox.cif.g08.bks.cpg/sg15_69_cif.got.tgz:136786.got - 2010.06.03 18:47:42.
