data_PCOD9298879
_publ_section_title
;
Structure prediction by ZEFSAII (Michael W. Deem and Ramdas Pophale) SiO2 
 PCOD9298879
Probable space group: C 2/C
;
_chemical_formula_sum "Si O2"
_cell_formula_units_Z 60
_cell_length_a 12.680351
_cell_length_b 28.135758
_cell_length_c 8.410582
_cell_angle_alpha 90.000000
_cell_angle_beta 105.650897
_cell_angle_gamma 90.000000
_cell_volume 2889.399811
_symmetry_space_group_name_H-M "C 2/C"
_symmetry_group_IT_number 15
_symmetry_cell_setting 'monoclinic'
loop_
_space_group_symop_operation_xyz
x,y,z
-x,y,1/2-z
-x,-y,-z
x,-y,1/2+z
1/2+x,1/2+y,z
1/2-x,1/2+y,1/2-z
1/2-x,1/2-y,-z
1/2+x,1/2-y,1/2+z
loop_
_atom_site_type_symbol
_atom_site_label
_atom_site_fract_x
_atom_site_fract_y
_atom_site_fract_z
Si Si1 0.484745 0.285047 0.414326
Si Si2 0.687447 0.652956 0.950905
Si Si3 0.891971 0.301420 0.425858
Si Si4 0.877574 0.065815 0.749596
Si Si5 0.744225 0.804316 0.434477
Si Si6 0.880033 0.964419 0.617489
Si Si7 0.500000 0.866105 0.750000
Si Si8 0.779182 0.613453 0.310300
O O1 0.500000 0.259342 0.250000
O O2 0.566717 0.328163 0.426426
O O3 0.537542 0.246673 0.553293
O O4 0.365557 0.305190 0.404220
O O5 0.769264 0.696851 0.951399
O O6 0.696287 0.611188 0.823480
O O7 0.717702 0.630538 0.129320
O O8 0.855447 0.312619 0.229844
O O9 0.952715 0.336057 0.578068
O O10 0.000000 0.079134 0.750000
O O11 0.850091 0.019443 0.633594
O O12 0.882829 0.049417 0.933746
O O13 0.750000 0.750000 0.500000
O O14 0.729086 0.843311 0.565988
O O15 0.786085 0.931568 0.652505
O O16 0.000000 0.957123 0.750000
O O17 0.598186 0.894478 0.705221
#
# Coordination Sequence:
#
# PCOD9298879 Si02
#       8
#     8   8   8   8   8   8   4   8
#     4  12  24  38  64  91 132 175 222 277 330 399
#     4  11  23  39  66  93 131 177 223 266 328 404
#     4  11  23  43  64  89 128 178 226 268 330 391
#     4  11  22  40  65  99 138 176 211 268 341 398
#     4  12  27  41  61  98 129 172 227 282 334 386
#     4  11  23  40  67 101 139 170 215 272 336 407
#     4  10  24  46  68  88 126 182 226 272 328 398
#     4  11  25  42  66  97 132 176 224 273 336 391
#
# _framework density 20.765557000000001
#
# number of rings (size 3 to 8) (size 9 to 14) (size 15 to 20)
#    0.000    0.800    2.000    6.400    5.600    3.200 
#    0.000    0.000    0.000    7.200    0.000    0.000 
#    0.000    0.000    0.000    0.000    0.000    0.000 
#
# Total GULP energy -167328.521404 kJ/mol
# GULP energy per Si atom -5577.617380 kJ/mol
# Density = 2.071829 g / cm^3
# Si number density = 20.765557 Si / 1000 Ang^3
#
#
#
# Elastic Constant Matrix: (Units=GPa)
#
#
# Indices 1 2 3 4 5 6 
#
# 1 118.5736 32.0259 18.9767 0.0000 4.2408 0.0000
# 2 32.0259 94.7222 29.5329 0.0000 7.5415 0.0000
# 3 18.9767 29.5329 118.4507 0.0000 10.3445 0.0000
# 4 0.0000 0.0000 0.0000 36.5633 0.0000 -0.0436
# 5 4.2408 7.5415 10.3445 0.0000 28.4407 0.0000
# 6 0.0000 0.0000 0.0000 -0.0436 0.0000 28.8892
#
#
#
# Elastic Compliance Matrix: (Units=1/GPa)
#
#
# Indices 1 2 3 4 5 6 
#
# 1 0.009349 -0.002901 -0.000744 0.000000 -0.000354 0.000000
# 2 -0.002901 0.012466 -0.002471 0.000000 -0.001974 0.000000
# 3 -0.000744 -0.002471 0.009409 0.000000 -0.002656 0.000000
# 4 0.000000 0.000000 0.000000 0.027350 0.000000 0.000041
# 5 -0.000354 -0.001974 -0.002656 0.000000 0.036703 0.000000
# 6 0.000000 0.000000 0.000000 0.000041 0.000000 0.034615
#
#
# Mechanical properties :
#
#
# Convention : Reuss Voigt Hill
#
# Bulk Modulus (GPa) = 52.65000 54.75749 53.70374
# Shear Modulus (GPa) = 33.68057 35.52604 34.60330
#
# Velocity S-wave (km/s) = 4.03171 4.14069 4.08656
# Velocity P-wave (km/s) = 6.86166 7.02047 6.94152
#
# Compressibility (1/GPa) = 0.01899335
#
# Stress axis : x y z
#
# Youngs Moduli (GPa) = 106.96627 80.22138 106.27577
#
# Poissons Ratio (x) = 0.23271 0.07902
# Poissons Ratio (y) = 0.31029 0.26259
# Poissons Ratio (z) = 0.07953 0.19821
#
# Static dielectric constant tensor:
#      x y z
#    x 1.774240 0.000000 -0.051650 
#    y 0.000000 1.744680 0.000000 
#    z -0.051650 0.000000 2.119460 
# 
# From -- ./inp_files/35734.got.cif
#   From: 2010.05.17/outbox.cif.g08.bks.cpg/sg15_18_cif.got.tgz:35734.got - 2010.06.03 18:47:42.
