data_PCOD9298639
_publ_section_title
;
Structure prediction by ZEFSAII (Michael W. Deem and Ramdas Pophale) SiO2 
 PCOD9298639
Probable space group: C 2/C
;
_chemical_formula_sum "Si O2"
_cell_formula_units_Z 48
_cell_length_a 23.975575
_cell_length_b 11.242876
_cell_length_c 7.928756
_cell_angle_alpha 90.000000
_cell_angle_beta 72.997394
_cell_angle_gamma 90.000000
_cell_volume 2043.815937
_symmetry_space_group_name_H-M "C 2/C"
_symmetry_group_IT_number 15
_symmetry_cell_setting 'monoclinic'
loop_
_space_group_symop_operation_xyz
x,y,z
-x,y,1/2-z
-x,-y,-z
x,-y,1/2+z
1/2+x,1/2+y,z
1/2-x,1/2+y,1/2-z
1/2-x,1/2-y,-z
1/2+x,1/2-y,1/2+z
loop_
_atom_site_type_symbol
_atom_site_label
_atom_site_fract_x
_atom_site_fract_y
_atom_site_fract_z
Si Si1 0.150045 0.635852 0.850266
Si Si2 0.375399 0.518702 0.364919
Si Si3 0.916454 0.812090 0.109821
Si Si4 0.486106 0.864343 0.064262
Si Si5 0.179551 0.627618 0.432889
Si Si6 0.696592 0.633185 0.355981
O O1 0.081473 0.660280 0.905385
O O2 0.176395 0.644184 0.637562
O O3 0.156869 0.504439 0.915550
O O4 0.183480 0.734191 0.930813
O O5 0.406463 0.398821 0.275671
O O6 0.414641 0.595626 0.454738
O O7 0.355162 0.600998 0.229615
O O8 0.314400 0.470941 0.500159
O O9 0.862330 0.724483 0.117514
O O10 0.972582 0.729078 0.066494
O O11 0.500000 0.852749 0.250000
O O12 0.500000 0.000000 0.000000
O O13 0.242802 0.633902 0.293664
#
# Coordination Sequence:
#
# PCOD9298639 Si02
#       6
#     8   8   8   8   8   8
#     4  12  25  43  67 103 133 180 226 280 342 395
#     4  10  24  45  67  98 138 182 222 270 339 414
#     4  11  24  45  69  98 138 179 226 276 338 399
#     4  12  23  45  70 101 139 174 226 288 332 394
#     4  12  25  41  69  99 138 176 226 284 338 399
#     4  11  24  43  66  98 138 180 227 276 338 408
#
# _framework density 23.485479000000002
#
# number of rings (size 3 to 8) (size 9 to 14) (size 15 to 20)
#    0.000    0.667    5.000    1.500    7.000    2.000 
#    0.000    9.167    0.000    0.000    0.000    0.000 
#    0.000    0.000    0.000    0.000    0.000    0.000 
#
# Total GULP energy -134438.943204 kJ/mol
# GULP energy per Si atom -5601.622634 kJ/mol
# Density = 2.343203 g / cm^3
# Si number density = 23.485479 Si / 1000 Ang^3
#
#
#
# Elastic Constant Matrix: (Units=GPa)
#
#
# Indices 1 2 3 4 5 6 
#
# 1 60.7589 33.2370 2.9539 0.0000 -18.8233 0.0000
# 2 33.2370 163.9173 32.0716 0.0000 -7.9441 0.0000
# 3 2.9539 32.0716 55.6579 0.0000 -13.0143 0.0000
# 4 0.0000 0.0000 0.0000 36.5637 0.0000 -5.6679
# 5 -18.8233 -7.9441 -13.0143 0.0000 26.3056 0.0000
# 6 0.0000 0.0000 0.0000 -5.6679 0.0000 -14.6694
#
#
#
# Elastic Compliance Matrix: (Units=1/GPa)
#
#
# Indices 1 2 3 4 5 6 
#
# 1 0.025138 -0.005391 0.006330 0.000000 0.019492 0.000000
# 2 -0.005391 0.008032 -0.005289 0.000000 -0.004049 0.000000
# 3 0.006330 -0.005289 0.024159 0.000000 0.014885 0.000000
# 4 0.000000 0.000000 0.000000 0.025804 0.000000 -0.009970
# 5 0.019492 -0.004049 0.014885 0.000000 0.058103 0.000000
# 6 0.000000 0.000000 0.000000 -0.009970 0.000000 -0.064317
#
#
# Mechanical properties :
#
#
# Convention : Reuss Voigt Hill
#
# Bulk Modulus (GPa) = 20.56361 46.31767 33.44064
# Shear Modulus (GPa) = 49.10121 23.77808 36.43964
#
# Velocity S-wave (km/s) = 4.57738 3.18537 3.94329
# Velocity P-wave (km/s) = 6.05900 5.77004 5.91629
#
# Compressibility (1/GPa) = 0.04862960
#
# Stress axis : x y z
#
# Youngs Moduli (GPa) = 39.77974 124.49572 41.39236
#
# Poissons Ratio (x) = 0.67117 -0.26201
# Poissons Ratio (y) = 0.21446 0.21893
# Poissons Ratio (z) = -0.25181 0.65846
#
# Static dielectric constant tensor:
#      x y z
#    x 1.860810 0.000000 -0.001470 
#    y 0.000000 1.879660 0.000000 
#    z -0.001470 0.000000 1.939850 
# 
# From -- ./inp_files/60665.got.cif
#   From: 2010.05.17/outbox.cif.g08.bks.cpg/sg15_31_cif.got.tgz:60665.got - 2010.06.03 18:47:42.
