data_PCOD9298225
_publ_section_title
;
Structure prediction by ZEFSAII (Michael W. Deem and Ramdas Pophale) SiO2 
 PCOD9298225
Probable space group: C 2/C
;
_chemical_formula_sum "Si O2"
_cell_formula_units_Z 44
_cell_length_a 19.451250
_cell_length_b 17.745207
_cell_length_c 14.224338
_cell_angle_alpha 90.000000
_cell_angle_beta 25.977513
_cell_angle_gamma 90.000000
_cell_volume 2150.566940
_symmetry_space_group_name_H-M "C 2/C"
_symmetry_group_IT_number 15
_symmetry_cell_setting 'monoclinic'
loop_
_space_group_symop_operation_xyz
x,y,z
-x,y,1/2-z
-x,-y,-z
x,-y,1/2+z
1/2+x,1/2+y,z
1/2-x,1/2+y,1/2-z
1/2-x,1/2-y,-z
1/2+x,1/2-y,1/2+z
loop_
_atom_site_type_symbol
_atom_site_label
_atom_site_fract_x
_atom_site_fract_y
_atom_site_fract_z
Si Si1 0.500000 0.258040 0.750000
Si Si2 0.199065 0.150355 0.281564
Si Si3 0.794497 0.893217 0.081030
Si Si4 0.970560 0.703054 0.583487
Si Si5 0.683953 0.037692 0.521007
Si Si6 0.995258 0.969073 0.144351
O O1 0.623366 0.315803 0.552479
O O2 0.444427 0.209583 0.729465
O O3 0.278568 0.105637 0.096873
O O4 0.098283 0.091638 0.464380
O O5 0.088300 0.217630 0.383233
O O6 0.347335 0.185301 0.154417
O O7 0.637945 0.863924 0.323839
O O8 0.736633 0.937305 0.060095
O O9 0.921009 0.948610 0.972528
O O10 0.500000 0.018465 0.750000
O O11 0.814177 0.974699 0.335187
O O12 0.000000 0.953538 0.250000
#
# Coordination Sequence:
#
# PCOD9298225 Si02
#       6
#     4   8   8   8   8   8
#     4  12  18  34  60  94 134 152 174 248 322 382
#     4  12  24  39  61  92 126 161 202 247 302 365
#     4  11  19  36  59  87 127 158 187 245 315 364
#     4  12  23  34  59  95 127 158 196 237 310 374
#     4  11  20  37  62  95 121 150 195 248 314 369
#     4  10  24  44  61  83 124 165 209 253 291 344
#
# _framework density 20.459721999999999
#
# number of rings (size 3 to 8) (size 9 to 14) (size 15 to 20)
#    0.000    0.727    8.182    2.182    0.000    0.727 
#    0.000    0.909    0.000    0.000    0.000    0.000 
#    0.000    0.000    0.000    0.000    0.000    0.000 
#
# Total GULP energy -122898.758798 kJ/mol
# GULP energy per Si atom -5586.307218 kJ/mol
# Density = 2.041315 g / cm^3
# Si number density = 20.459722 Si / 1000 Ang^3
#
#
#
# Elastic Constant Matrix: (Units=GPa)
#
#
# Indices 1 2 3 4 5 6 
#
# 1 42.6601 22.9079 50.8589 -0.0003 -13.8898 0.0000
# 2 22.9079 81.6927 80.2409 0.0008 -5.3475 -0.0004
# 3 50.8589 80.2409 166.6484 0.0027 -40.5315 -0.0011
# 4 -0.0003 0.0008 0.0027 42.6611 -0.0007 6.6249
# 5 -13.8898 -5.3475 -40.5315 -0.0007 33.1803 0.0003
# 6 0.0000 -0.0004 -0.0011 6.6249 0.0003 7.6838
#
#
#
# Elastic Compliance Matrix: (Units=1/GPa)
#
#
# Indices 1 2 3 4 5 6 
#
# 1 0.037000 0.000706 -0.011149 0.000001 0.001983 -0.000003
# 2 0.000706 0.029041 -0.018478 0.000001 -0.017597 -0.000001
# 3 -0.011149 -0.018478 0.023390 -0.000001 0.020927 0.000003
# 4 0.000001 0.000001 -0.000001 0.027064 0.000000 -0.023334
# 5 0.001983 -0.017597 0.020927 0.000000 0.053696 0.000000
# 6 -0.000003 -0.000001 0.000003 -0.023334 0.000000 0.150262
#
#
# Mechanical properties :
#
#
# Convention : Reuss Voigt Hill
#
# Bulk Modulus (GPa) = 31.65814 66.55740 49.10777
# Shear Modulus (GPa) = 12.85917 25.83795 19.34856
#
# Velocity S-wave (km/s) = 2.50973 3.55754 3.07854
# Velocity P-wave (km/s) = 4.88931 7.03394 6.05730
#
# Compressibility (1/GPa) = 0.03158745
#
# Stress axis : x y z
#
# Youngs Moduli (GPa) = 27.02707 34.43369 42.75242
#
# Poissons Ratio (x) = -0.02430 0.47667
# Poissons Ratio (y) = -0.01907 0.79000
# Poissons Ratio (z) = 0.30134 0.63628
#
# Static dielectric constant tensor:
#      x y z
#    x 1.760730 0.000000 -0.038580 
#    y 0.000000 1.733520 0.000000 
#    z -0.038580 0.000000 1.803640 
# 
# From -- ./inp_files/39136.got.cif
#   From: 2010.05.17/outbox.cif.g08.bks.cpg/sg15_20_cif.got.tgz:39136.got - 2010.06.03 18:47:42.
