data_PCOD9298808
_publ_section_title
;
Structure prediction by ZEFSAII (Michael W. Deem and Ramdas Pophale) SiO2 
 PCOD9298808
Probable space group: C 2/C
;
_chemical_formula_sum "Si O2"
_cell_formula_units_Z 64
_cell_length_a 18.747772
_cell_length_b 16.097270
_cell_length_c 22.999358
_cell_angle_alpha 90.000000
_cell_angle_beta 157.157877
_cell_angle_gamma 90.000000
_cell_volume 2694.421610
_symmetry_space_group_name_H-M "C 2/C"
_symmetry_group_IT_number 15
_symmetry_cell_setting 'monoclinic'
loop_
_space_group_symop_operation_xyz
x,y,z
-x,y,1/2-z
-x,-y,-z
x,-y,1/2+z
1/2+x,1/2+y,z
1/2-x,1/2+y,1/2-z
1/2-x,1/2-y,-z
1/2+x,1/2-y,1/2+z
loop_
_atom_site_type_symbol
_atom_site_label
_atom_site_fract_x
_atom_site_fract_y
_atom_site_fract_z
Si Si1 0.346199 0.443660 0.913868
Si Si2 0.662666 0.437621 0.327204
Si Si3 0.017323 0.353379 0.065437
Si Si4 0.381680 0.626313 0.221221
Si Si5 0.472270 0.872098 0.896856
Si Si6 0.409287 0.313738 0.331627
Si Si7 0.257491 0.668796 0.964094
Si Si8 0.067347 0.579531 0.725440
O O1 0.221754 0.400913 0.771860
O O2 0.198793 0.501335 0.838344
O O3 0.500000 0.500000 0.000000
O O4 0.457599 0.374554 0.032807
O O5 0.500000 0.437106 0.250000
O O6 0.666076 0.529966 0.303577
O O7 0.625026 0.363550 0.253672
O O8 0.858793 0.421825 0.503939
O O9 0.202982 0.299536 0.202161
O O10 0.067481 0.414067 0.156068
O O11 0.810641 0.324717 0.925500
O O12 0.992351 0.385838 0.981060
O O13 0.500000 0.633333 0.250000
O O14 0.526602 0.652678 0.378610
O O15 0.497479 0.776430 0.898267
O O16 0.161098 0.658724 0.828858
O O17 0.143273 0.594370 0.911955
O O18 0.250000 0.750000 0.000000
#
# Coordination Sequence:
#
# PCOD9298808 Si02
#       8
#     8   8   8   8   8   8   8   8
#     4  12  25  45  72 106 145 192 242 304 362 436
#     4  10  24  45  77 100 139 183 237 296 363 440
#     4  11  24  43  71  99 142 190 240 296 360 428
#     4  11  23  42  69 105 136 192 242 280 353 434
#     4  11  27  46  73 106 145 187 247 307 369 438
#     4  11  25  48  71 105 144 186 244 305 370 433
#     4  11  27  46  67 101 150 191 239 299 355 434
#     4  11  25  45  68 103 141 192 249 291 366 421
#
# _framework density 23.752777999999999
#
# number of rings (size 3 to 8) (size 9 to 14) (size 15 to 20)
#    0.000    1.000    2.500    3.000    7.000    4.000 
#    2.250    0.000    0.000    0.000    0.000    0.000 
#    0.000    0.000    0.000    0.000    0.000    0.000 
#
# Total GULP energy -178720.124890 kJ/mol
# GULP energy per Si atom -5585.003903 kJ/mol
# Density = 2.369872 g / cm^3
# Si number density = 23.752778 Si / 1000 Ang^3
#
#
#
# Elastic Constant Matrix: (Units=GPa)
#
#
# Indices 1 2 3 4 5 6 
#
# 1 50.9670 21.7293 20.1683 0.0107 -3.8804 0.0015
# 2 21.7293 129.3143 45.4034 -0.0017 3.2162 -0.0029
# 3 20.1683 45.4034 181.1094 0.0287 2.0724 0.0008
# 4 0.0107 -0.0017 0.0287 37.3677 0.0021 0.8959
# 5 -3.8804 3.2162 2.0724 0.0021 39.9047 0.0017
# 6 0.0015 -0.0029 0.0008 0.8959 0.0017 15.5507
#
#
#
# Elastic Compliance Matrix: (Units=1/GPa)
#
#
# Indices 1 2 3 4 5 6 
#
# 1 0.021807 -0.003139 -0.001670 -0.000005 0.002460 -0.000003
# 2 -0.003139 0.008945 -0.001882 0.000003 -0.000928 0.000002
# 3 -0.001670 -0.001882 0.006183 -0.000004 -0.000332 0.000000
# 4 -0.000005 0.000003 -0.000004 0.026798 -0.000002 -0.001544
# 5 0.002460 -0.000928 -0.000332 -0.000002 0.025391 -0.000003
# 6 -0.000003 0.000002 0.000000 -0.001544 -0.000003 0.064395
#
#
# Mechanical properties :
#
#
# Convention : Reuss Voigt Hill
#
# Bulk Modulus (GPa) = 42.45825 59.55474 51.00649
# Shear Modulus (GPa) = 28.61211 36.83727 32.72469
#
# Velocity S-wave (km/s) = 3.47447 3.94237 3.71579
# Velocity P-wave (km/s) = 5.83179 6.77128 6.31902
#
# Compressibility (1/GPa) = 0.02355255
#
# Stress axis : x y z
#
# Youngs Moduli (GPa) = 45.85695 111.80002 161.73146
#
# Poissons Ratio (x) = 0.35098 0.27002
# Poissons Ratio (y) = 0.14396 0.30440
# Poissons Ratio (z) = 0.07656 0.21042
#
# Static dielectric constant tensor:
#      x y z
#    x 2.044020 0.000010 -0.011110 
#    y 0.000010 1.916260 -0.000030 
#    z -0.011110 -0.000030 1.928040 
# 
# From -- ./inp_files/301356.got.cif
#   From: 2010.05.17/outbox.cif.g08.bks.cpg/sg15_151_cif.got.tgz:301356.got - 2010.06.03 18:47:42.
