data_PCOD9298079
_publ_section_title
;
Structure prediction by ZEFSAII (Michael W. Deem and Ramdas Pophale) SiO2 
 PCOD9298079
Probable space group: C 2/C
;
_chemical_formula_sum "Si O2"
_cell_formula_units_Z 64
_cell_length_a 26.810049
_cell_length_b 11.751724
_cell_length_c 13.483590
_cell_angle_alpha 90.000000
_cell_angle_beta 136.071345
_cell_angle_gamma 90.000000
_cell_volume 2947.238651
_symmetry_space_group_name_H-M "C 2/C"
_symmetry_group_IT_number 15
_symmetry_cell_setting 'monoclinic'
loop_
_space_group_symop_operation_xyz
x,y,z
-x,y,1/2-z
-x,-y,-z
x,-y,1/2+z
1/2+x,1/2+y,z
1/2-x,1/2+y,1/2-z
1/2-x,1/2-y,-z
1/2+x,1/2-y,1/2+z
loop_
_atom_site_type_symbol
_atom_site_label
_atom_site_fract_x
_atom_site_fract_y
_atom_site_fract_z
Si Si1 0.210376 0.493089 0.813315
Si Si2 0.923324 0.054323 0.375273
Si Si3 0.065267 0.756533 0.765424
Si Si4 0.774966 0.240043 0.424895
Si Si5 0.715322 0.532714 0.759429
Si Si6 0.943355 0.402391 0.441958
Si Si7 0.934544 0.212050 0.583996
Si Si8 0.712271 0.145605 0.004540
O O1 0.221122 0.359693 0.813520
O O2 0.279641 0.537952 0.851933
O O3 0.136206 0.542998 0.664963
O O4 0.210384 0.540498 0.924311
O O5 0.916983 0.122874 0.262872
O O6 0.916647 0.135142 0.462176
O O7 0.861935 0.960637 0.301110
O O8 0.000000 0.000000 0.500000
O O9 0.051586 0.679521 0.647428
O O10 0.133618 0.695415 0.914470
O O11 0.000000 0.764430 0.750000
O O12 0.750000 0.250000 0.500000
O O13 0.762288 0.360513 0.356884
O O14 0.859287 0.213978 0.534543
O O15 0.746204 0.411687 0.844520
O O16 0.955536 0.331449 0.560350
O O17 0.000000 0.500000 0.500000
O O18 0.000000 0.176514 0.750000
O O19 0.750000 0.250000 0.000000
#
# Coordination Sequence:
#
# PCOD9298079 Si02
#       8
#     8   8   8   8   8   8   8   8
#     4  11  25  44  69 102 138 180 230 286 340 405
#     4  11  26  47  66 100 137 181 231 281 345 412
#     4  10  24  44  67  99 136 174 229 282 341 408
#     4  12  26  45  70 106 141 181 234 279 348 413
#     4  12  25  45  74 101 139 182 231 286 342 413
#     4  10  24  43  67  98 135 179 228 281 343 404
#     4  11  26  46  69  97 141 182 228 290 343 410
#     4  11  24  44  72  99 137 180 229 285 338 404
#
# _framework density 21.715243000000001
#
# number of rings (size 3 to 8) (size 9 to 14) (size 15 to 20)
#    0.000    1.000    5.000    0.000    7.000    3.000 
#    0.000    0.000    0.000    0.000    0.000    0.000 
#    0.000    0.000    0.000    0.000    0.000    0.000 
#
# Total GULP energy -178542.660861 kJ/mol
# GULP energy per Si atom -5579.458152 kJ/mol
# Density = 2.166582 g / cm^3
# Si number density = 21.715243 Si / 1000 Ang^3
#
#
#
# Elastic Constant Matrix: (Units=GPa)
#
#
# Indices 1 2 3 4 5 6 
#
# 1 155.3527 14.9719 23.4919 0.0000 21.6652 0.0000
# 2 14.9719 44.4079 -7.6719 0.0000 2.9539 0.0000
# 3 23.4919 -7.6719 54.5009 0.0000 8.8396 0.0000
# 4 0.0000 0.0000 0.0000 21.6896 0.0000 12.2713
# 5 21.6652 2.9539 8.8396 0.0000 35.7390 0.0000
# 6 0.0000 0.0000 0.0000 12.2713 0.0000 24.4189
#
#
#
# Elastic Compliance Matrix: (Units=1/GPa)
#
#
# Indices 1 2 3 4 5 6 
#
# 1 0.007699 -0.002894 -0.003134 0.000000 -0.003653 0.000000
# 2 -0.002894 0.024445 0.004929 0.000000 -0.001485 0.000000
# 3 -0.003134 0.004929 0.020993 0.000000 -0.003700 0.000000
# 4 0.000000 0.000000 0.000000 0.064421 0.000000 -0.032374
# 5 -0.003653 -0.001485 -0.003700 0.000000 0.031233 0.000000
# 6 0.000000 0.000000 0.000000 -0.032374 0.000000 0.057221
#
#
# Mechanical properties :
#
#
# Convention : Reuss Voigt Hill
#
# Bulk Modulus (GPa) = 19.63081 35.09390 27.36235
# Shear Modulus (GPa) = 22.20361 31.26747 26.73554
#
# Velocity S-wave (km/s) = 3.20111 3.79870 3.51264
# Velocity P-wave (km/s) = 4.76681 5.95283 5.39253
#
# Compressibility (1/GPa) = 0.05094033
#
# Stress axis : x y z
#
# Youngs Moduli (GPa) = 129.88415 40.90873 47.63487
#
# Poissons Ratio (x) = 0.11839 0.14926
# Poissons Ratio (y) = 0.37590 -0.23481
# Poissons Ratio (z) = 0.40699 -0.20165
#
# Static dielectric constant tensor:
#      x y z
#    x 1.835720 0.000000 -0.073200 
#    y 0.000000 1.324910 0.000000 
#    z -0.073200 0.000000 1.841470 
# 
# From -- ./inp_files/177855.got.cif
#   From: 2010.05.17/outbox.cif.g08.bks.cpg/sg15_89_cif.got.tgz:177855.got - 2010.06.03 18:47:42.
