data_PCOD9298760
_publ_section_title
;
Structure prediction by ZEFSAII (Michael W. Deem and Ramdas Pophale) SiO2 
 PCOD9298760
Probable space group: C 2/C
;
_chemical_formula_sum "Si O2"
_cell_formula_units_Z 40
_cell_length_a 18.697389
_cell_length_b 4.989090
_cell_length_c 22.739988
_cell_angle_alpha 90.000000
_cell_angle_beta 128.896116
_cell_angle_gamma 90.000000
_cell_volume 1650.941151
_symmetry_space_group_name_H-M "C 2/C"
_symmetry_group_IT_number 15
_symmetry_cell_setting 'monoclinic'
loop_
_space_group_symop_operation_xyz
x,y,z
-x,y,1/2-z
-x,-y,-z
x,-y,1/2+z
1/2+x,1/2+y,z
1/2-x,1/2+y,1/2-z
1/2-x,1/2-y,-z
1/2+x,1/2-y,1/2+z
loop_
_atom_site_type_symbol
_atom_site_label
_atom_site_fract_x
_atom_site_fract_y
_atom_site_fract_z
Si Si1 0.493996 0.903515 0.894820
Si Si2 0.192494 0.367664 0.525229
Si Si3 0.920185 0.675905 0.745881
Si Si4 0.252069 0.387455 0.878625
Si Si5 0.879711 0.112774 0.343996
O O1 0.454037 0.619279 0.891747
O O2 0.598337 0.986490 0.958790
O O3 0.470395 0.960336 0.814146
O O4 0.428615 0.119451 0.893044
O O5 0.250000 0.250000 0.500000
O O6 0.254783 0.900531 0.410889
O O7 0.177704 0.099416 0.555598
O O8 0.846329 0.527551 0.668112
O O9 0.870762 0.860914 0.768856
O O10 0.000000 0.814926 0.750000
O O11 0.283244 0.394640 0.826852
#
# Coordination Sequence:
#
# PCOD9298760 Si02
#       5
#     8   8   8   8   8
#     4  10  24  45  73 100 150 185 248 297 368 434
#     4  12  27  48  72 110 150 194 247 305 373 445
#     4  10  26  47  73 106 147 191 245 300 365 434
#     4  12  27  44  80 106 146 197 249 306 373 436
#     4  10  25  44  75 106 144 188 252 303 368 437
#
# _framework density 24.228604000000001
#
# number of rings (size 3 to 8) (size 9 to 14) (size 15 to 20)
#    1.200    0.000    0.000    4.200    5.600    7.200 
#    0.000    0.000    0.000    0.000    0.000    0.000 
#    0.000    0.000    0.000    0.000    0.000    0.000 
#
# Total GULP energy -111744.012049 kJ/mol
# GULP energy per Si atom -5587.200602 kJ/mol
# Density = 2.417346 g / cm^3
# Si number density = 24.228604 Si / 1000 Ang^3
#
#
#
# Elastic Constant Matrix: (Units=GPa)
#
#
# Indices 1 2 3 4 5 6 
#
# 1 100.2256 16.5123 17.1498 0.0002 -10.0035 -0.0003
# 2 16.5123 127.4626 22.3335 0.0009 -8.9412 -0.0023
# 3 17.1498 22.3335 54.1077 0.0002 8.2519 -0.0003
# 4 0.0002 0.0009 0.0002 28.3009 0.0000 5.1685
# 5 -10.0035 -8.9412 8.2519 0.0000 37.3310 -0.0002
# 6 -0.0003 -0.0023 -0.0003 5.1685 -0.0002 25.3179
#
#
#
# Elastic Compliance Matrix: (Units=1/GPa)
#
#
# Indices 1 2 3 4 5 6 
#
# 1 0.011093 -0.000498 -0.003877 0.000000 0.003710 0.000000
# 2 -0.000498 0.008793 -0.003904 0.000000 0.002836 0.000001
# 3 -0.003877 -0.003904 0.022377 0.000000 -0.006920 0.000000
# 4 0.000000 0.000000 0.000000 0.036703 0.000000 -0.007493
# 5 0.003710 0.002836 -0.006920 0.000000 0.029991 0.000000
# 6 0.000000 0.000001 0.000000 -0.007493 0.000000 0.041027
#
#
# Mechanical properties :
#
#
# Convention : Reuss Voigt Hill
#
# Bulk Modulus (GPa) = 38.90021 43.75415 41.32718
# Shear Modulus (GPa) = 28.55358 33.24329 30.89844
#
# Velocity S-wave (km/s) = 3.43666 3.70816 3.57499
# Velocity P-wave (km/s) = 5.64251 6.03590 5.84251
#
# Compressibility (1/GPa) = 0.02570680
#
# Stress axis : x y z
#
# Youngs Moduli (GPa) = 90.14607 113.72848 44.68835
#
# Poissons Ratio (x) = 0.05659 0.17323
# Poissons Ratio (y) = 0.04485 0.17447
# Poissons Ratio (z) = 0.34945 0.44401
#
# Static dielectric constant tensor:
#      x y z
#    x 1.950120 0.000000 -0.046030 
#    y 0.000000 1.895860 0.000000 
#    z -0.046030 0.000000 1.970310 
# 
# From -- ./inp_files/297338.got.cif
#   From: 2010.05.17/outbox.cif.g08.bks.cpg/sg15_149_cif.got.tgz:297338.got - 2010.06.03 18:47:42.
