data_PCOD9298727
_publ_section_title
;
Structure prediction by ZEFSAII (Michael W. Deem and Ramdas Pophale) SiO2 
 PCOD9298727
Probable space group: C 2/C
;
_chemical_formula_sum "Si O2"
_cell_formula_units_Z 56
_cell_length_a 11.684323
_cell_length_b 30.050212
_cell_length_c 8.742862
_cell_angle_alpha 90.000000
_cell_angle_beta 48.907101
_cell_angle_gamma 90.000000
_cell_volume 2313.510413
_symmetry_space_group_name_H-M "C 2/C"
_symmetry_group_IT_number 15
_symmetry_cell_setting 'monoclinic'
loop_
_space_group_symop_operation_xyz
x,y,z
-x,y,1/2-z
-x,-y,-z
x,-y,1/2+z
1/2+x,1/2+y,z
1/2-x,1/2+y,1/2-z
1/2-x,1/2-y,-z
1/2+x,1/2-y,1/2+z
loop_
_atom_site_type_symbol
_atom_site_label
_atom_site_fract_x
_atom_site_fract_y
_atom_site_fract_z
Si Si1 0.380397 0.229985 0.181781
Si Si2 0.298002 0.545141 0.657609
Si Si3 0.684132 0.043950 0.101871
Si Si4 0.658497 0.130425 0.689819
Si Si5 0.807322 0.692731 0.565650
Si Si6 0.363335 0.316507 0.782857
Si Si7 0.569298 0.607711 0.516938
O O1 0.343714 0.279369 0.270407
O O2 0.338186 0.195616 0.357905
O O3 0.269462 0.216377 0.146528
O O4 0.554626 0.223212 0.993177
O O5 0.268441 0.497339 0.610412
O O6 0.184248 0.578163 0.670628
O O7 0.460554 0.571034 0.527061
O O8 0.244434 0.542064 0.877726
O O9 0.500000 0.043187 0.250000
O O10 0.761262 0.087370 0.111477
O O11 0.500000 0.142153 0.750000
O O12 0.678549 0.148726 0.845940
O O13 0.789782 0.150880 0.471879
O O14 0.500000 0.293029 0.750000
O O15 0.419249 0.347760 0.593991
O O16 0.500000 0.615098 0.750000
#
# Coordination Sequence:
#
# PCOD9298727 Si02
#       7
#     8   8   8   8   8   8   8
#     4  10  24  45  71 102 137 184 232 277 343 407
#     4  11  25  45  66  99 137 183 225 287 347 411
#     4  11  25  42  70  98 130 178 231 287 347 410
#     4  12  26  45  67 102 144 178 231 290 344 406
#     4  10  24  46  70 102 139 183 227 285 339 412
#     4  12  26  43  69 102 138 186 228 283 343 410
#     4  10  25  46  67 100 135 182 231 283 344 413
#
# _framework density 24.205639000000001
#
# number of rings (size 3 to 8) (size 9 to 14) (size 15 to 20)
#    0.000    1.143    2.857    1.286   10.000    1.143 
#    2.571    0.000    0.000    0.000    0.000    0.000 
#    0.000    0.000    0.000    0.000    0.000    0.000 
#
# Total GULP energy -156626.280424 kJ/mol
# GULP energy per Si atom -5593.795729 kJ/mol
# Density = 2.415055 g / cm^3
# Si number density = 24.205639 Si / 1000 Ang^3
#
#
#
# Elastic Constant Matrix: (Units=GPa)
#
#
# Indices 1 2 3 4 5 6 
#
# 1 149.0380 14.9411 12.2798 0.0000 -11.1358 0.0000
# 2 14.9411 35.8705 5.4597 0.0000 -6.1849 0.0000
# 3 12.2798 5.4597 34.9386 0.0000 -7.7865 0.0000
# 4 0.0000 0.0000 0.0000 33.2598 0.0000 10.8777
# 5 -11.1358 -6.1849 -7.7865 0.0000 34.0863 0.0000
# 6 0.0000 0.0000 0.0000 10.8777 0.0000 52.2632
#
#
#
# Elastic Compliance Matrix: (Units=1/GPa)
#
#
# Indices 1 2 3 4 5 6 
#
# 1 0.007219 -0.002473 -0.001818 0.000000 0.001495 0.000000
# 2 -0.002473 0.030040 -0.002940 0.000000 0.003971 0.000000
# 3 -0.001818 -0.002940 0.031049 0.000000 0.005965 0.000000
# 4 0.000000 0.000000 0.000000 0.032262 0.000000 -0.006715
# 5 0.001495 0.003971 0.005965 0.000000 0.031909 0.000000
# 6 0.000000 0.000000 0.000000 -0.006715 0.000000 0.020531
#
#
# Mechanical properties :
#
#
# Convention : Reuss Voigt Hill
#
# Bulk Modulus (GPa) = 18.57093 31.68982 25.13038
# Shear Modulus (GPa) = 26.96555 36.39963 31.68259
#
# Velocity S-wave (km/s) = 3.34131 3.88205 3.62179
# Velocity P-wave (km/s) = 4.75128 5.76317 5.28151
#
# Compressibility (1/GPa) = 0.05384760
#
# Stress axis : x y z
#
# Youngs Moduli (GPa) = 138.52305 33.28869 32.20669
#
# Poissons Ratio (x) = 0.08231 0.05855
# Poissons Ratio (y) = 0.34251 0.09469
# Poissons Ratio (z) = 0.25181 0.09787
#
# Static dielectric constant tensor:
#      x y z
#    x 1.983960 0.000000 -0.007260 
#    y 0.000000 1.921080 0.000000 
#    z -0.007260 0.000000 1.912170 
# 
# From -- ./inp_files/35560.got.cif
#   From: 2010.05.17/outbox.cif.g08.bks.cpg/sg15_18_cif.got.tgz:35560.got - 2010.06.03 18:47:42.
