data_PCOD9298504
_publ_section_title
;
Structure prediction by ZEFSAII (Michael W. Deem and Ramdas Pophale) SiO2 
 PCOD9298504
Probable space group: C 2/C
;
_chemical_formula_sum "Si O2"
_cell_formula_units_Z 28
_cell_length_a 7.856712
_cell_length_b 5.103594
_cell_length_c 24.970861
_cell_angle_alpha 90.000000
_cell_angle_beta 100.368093
_cell_angle_gamma 90.000000
_cell_volume 984.919443
_symmetry_space_group_name_H-M "C 2/C"
_symmetry_group_IT_number 15
_symmetry_cell_setting 'monoclinic'
loop_
_space_group_symop_operation_xyz
x,y,z
-x,y,1/2-z
-x,-y,-z
x,-y,1/2+z
1/2+x,1/2+y,z
1/2-x,1/2+y,1/2-z
1/2-x,1/2-y,-z
1/2+x,1/2-y,1/2+z
loop_
_atom_site_type_symbol
_atom_site_label
_atom_site_fract_x
_atom_site_fract_y
_atom_site_fract_z
Si Si1 0.230575 0.049623 0.178843
Si Si2 0.240404 0.999126 0.961644
Si Si3 0.990811 0.308968 0.889045
Si Si4 0.500000 0.430219 0.250000
O O1 0.335887 0.087222 0.129068
O O2 0.352460 0.231000 0.222358
O O3 0.159446 0.754209 0.162281
O O4 0.054391 0.115188 0.203280
O O5 0.398668 0.977705 0.929083
O O6 0.250000 0.750000 0.000000
O O7 0.060224 0.039107 0.919521
O O8 0.250000 0.250000 0.000000
#
# Coordination Sequence:
#
# PCOD9298504 Si02
#       4
#     8   8   8   4
#     4  10  25  45  72 106 146 192 244 305 369 444
#     4  12  27  49  76 110 152 200 252 311 375 446
#     4  11  26  47  74 108 148 196 250 309 372 443
#     4  10  24  44  72 104 144 192 244 302 372 442
#
# _framework density 28.428719999999998
#
# number of rings (size 3 to 8) (size 9 to 14) (size 15 to 20)
#    0.000    1.143    0.000    3.429    0.000   21.714 
#    0.000    0.000    0.000    0.000    0.000    0.000 
#    0.000    0.000    0.000    0.000    0.000    0.000 
#
# Total GULP energy -77998.071661 kJ/mol
# GULP energy per Si atom -5571.290833 kJ/mol
# Density = 2.836401 g / cm^3
# Si number density = 28.428720 Si / 1000 Ang^3
#
#
#
# Elastic Constant Matrix: (Units=GPa)
#
#
# Indices 1 2 3 4 5 6 
#
# 1 217.0772 69.4237 102.5339 0.0000 -43.7306 0.0000
# 2 69.4237 134.8622 70.5933 0.0000 -21.1550 0.0000
# 3 102.5339 70.5933 133.8721 0.0000 -46.3521 0.0000
# 4 0.0000 0.0000 0.0000 20.9500 0.0000 11.6944
# 5 -43.7306 -21.1550 -46.3521 0.0000 73.2843 0.0000
# 6 0.0000 0.0000 0.0000 11.6944 0.0000 59.3376
#
#
#
# Elastic Compliance Matrix: (Units=1/GPa)
#
#
# Indices 1 2 3 4 5 6 
#
# 1 0.007419 -0.001205 -0.004653 0.000000 0.001136 0.000000
# 2 -0.001205 0.010458 -0.004860 0.000000 -0.000774 0.000000
# 3 -0.004653 -0.004860 0.015556 0.000000 0.005660 0.000000
# 4 0.000000 0.000000 0.000000 0.053633 0.000000 -0.010570
# 5 0.001136 -0.000774 0.005660 0.000000 0.017680 0.000000
# 6 0.000000 0.000000 0.000000 -0.010570 0.000000 0.018936
#
#
# Mechanical properties :
#
#
# Convention : Reuss Voigt Hill
#
# Bulk Modulus (GPa) = 83.35770 107.87924 95.61847
# Shear Modulus (GPa) = 33.53100 46.93175 40.23138
#
# Velocity S-wave (km/s) = 3.43808 4.06748 3.76595
# Velocity P-wave (km/s) = 6.71906 7.75170 7.25378
#
# Compressibility (1/GPa) = 0.01199649
#
# Stress axis : x y z
#
# Youngs Moduli (GPa) = 134.79139 95.62425 64.28377
#
# Poissons Ratio (x) = 0.11523 0.29914
# Poissons Ratio (y) = 0.16243 0.31239
# Poissons Ratio (z) = 0.62725 0.46469
#
# Static dielectric constant tensor:
#      x y z
#    x 2.199140 0.000000 0.078400 
#    y 0.000000 2.215610 0.000000 
#    z 0.078400 0.000000 2.575120 
# 
# From -- ./inp_files/286849.got.cif
#   From: 2010.05.17/outbox.cif.g08.bks.cpg/sg15_144_cif.got.tgz:286849.got - 2010.06.03 18:47:42.
