data_PCOD9298138
_publ_section_title
;
Structure prediction by ZEFSAII (Michael W. Deem and Ramdas Pophale) SiO2 
 PCOD9298138
Probable space group: C 2/C
;
_chemical_formula_sum "Si O2"
_cell_formula_units_Z 48
_cell_length_a 20.671885
_cell_length_b 5.698325
_cell_length_c 21.805447
_cell_angle_alpha 90.000000
_cell_angle_beta 122.990199
_cell_angle_gamma 90.000000
_cell_volume 2154.427716
_symmetry_space_group_name_H-M "C 2/C"
_symmetry_group_IT_number 15
_symmetry_cell_setting 'monoclinic'
loop_
_space_group_symop_operation_xyz
x,y,z
-x,y,1/2-z
-x,-y,-z
x,-y,1/2+z
1/2+x,1/2+y,z
1/2-x,1/2+y,1/2-z
1/2-x,1/2-y,-z
1/2+x,1/2-y,1/2+z
loop_
_atom_site_type_symbol
_atom_site_label
_atom_site_fract_x
_atom_site_fract_y
_atom_site_fract_z
Si Si1 0.301338 0.187915 0.342686
Si Si2 0.643364 0.181446 0.704451
Si Si3 0.586254 0.137061 0.284589
Si Si4 0.320851 0.710507 0.991105
Si Si5 0.606451 0.795608 0.934451
Si Si6 0.559279 0.587397 0.660588
O O1 0.220174 0.185422 0.265858
O O2 0.293897 0.275809 0.407103
O O3 0.367786 0.333930 0.342125
O O4 0.334341 0.928495 0.349165
O O5 0.562101 0.311000 0.653677
O O6 0.630687 0.009287 0.755904
O O7 0.500000 0.035920 0.250000
O O8 0.622756 0.176392 0.369567
O O9 0.574012 0.377848 0.240759
O O10 0.250000 0.750000 0.000000
O O11 0.354053 0.447992 0.021763
O O12 0.372606 0.949095 0.026904
O O13 0.515831 0.732954 0.894268
#
# Coordination Sequence:
#
# PCOD9298138 Si02
#       6
#     8   8   8   8   8   8
#     4  11  25  42  69 102 136 185 237 290 352 420
#     4  11  22  42  71 100 142 175 242 302 351 408
#     4   9  22  40  68 103 132 177 235 293 354 409
#     4  12  29  48  72 102 144 191 231 284 357 438
#     4  11  27  47  71 105 143 186 234 288 355 424
#     4  10  24  43  70 102 133 184 233 300 347 406
#
# _framework density 22.279696999999999
#
# number of rings (size 3 to 8) (size 9 to 14) (size 15 to 20)
#    0.000    1.333    1.667    1.500   14.000    2.000 
#    0.000    0.000    0.000    0.000    0.000    0.000 
#    0.000    0.000    0.000    0.000    0.000    0.000 
#
# Total GULP energy -133679.617702 kJ/mol
# GULP energy per Si atom -5569.984071 kJ/mol
# Density = 2.222899 g / cm^3
# Si number density = 22.279697 Si / 1000 Ang^3
#
#
#
# Elastic Constant Matrix: (Units=GPa)
#
#
# Indices 1 2 3 4 5 6 
#
# 1 101.7182 6.9189 10.6899 -0.0001 -5.7686 0.0002
# 2 6.9189 90.1201 17.4050 -0.0002 17.1425 0.0003
# 3 10.6899 17.4050 58.6114 0.0003 -5.9394 -0.0004
# 4 -0.0001 -0.0002 0.0003 25.7257 -0.0001 9.4786
# 5 -5.7686 17.1425 -5.9394 -0.0001 23.6312 0.0000
# 6 0.0002 0.0003 -0.0004 9.4786 0.0000 35.4888
#
#
#
# Elastic Compliance Matrix: (Units=1/GPa)
#
#
# Indices 1 2 3 4 5 6 
#
# 1 0.010206 -0.001116 -0.001227 0.000000 0.002992 0.000000
# 2 -0.001116 0.014525 -0.005341 0.000000 -0.012151 0.000000
# 3 -0.001227 -0.005341 0.019736 0.000000 0.008536 0.000000
# 4 0.000000 0.000000 0.000000 0.043114 0.000000 -0.011515
# 5 0.002992 -0.012151 0.008536 0.000000 0.054007 0.000000
# 6 0.000000 0.000000 0.000000 -0.011515 0.000000 0.031254
#
#
# Mechanical properties :
#
#
# Convention : Reuss Voigt Hill
#
# Bulk Modulus (GPa) = 34.36495 35.60860 34.98677
# Shear Modulus (GPa) = 25.26408 31.33154 28.29781
#
# Velocity S-wave (km/s) = 3.37107 3.75411 3.56774
# Velocity P-wave (km/s) = 5.53263 5.89986 5.71919
#
# Compressibility (1/GPa) = 0.02909942
#
# Stress axis : x y z
#
# Youngs Moduli (GPa) = 97.98532 68.84716 50.66807
#
# Poissons Ratio (x) = 0.07682 0.06216
# Poissons Ratio (y) = 0.10933 0.27062
# Poissons Ratio (z) = 0.12021 0.36772
#
# Static dielectric constant tensor:
#      x y z
#    x 1.794770 0.000000 0.041930 
#    y 0.000000 2.121150 0.000000 
#    z 0.041930 0.000000 1.800690 
# 
# From -- ./inp_files/279041.got.cif
#   From: 2010.05.17/outbox.cif.g08.bks.cpg/sg15_140_cif.got.tgz:279041.got - 2010.06.03 18:47:42.
