data_PCOD9298437
_publ_section_title
;
Structure prediction by ZEFSAII (Michael W. Deem and Ramdas Pophale) SiO2 
 PCOD9298437
Probable space group: C 2/C
;
_chemical_formula_sum "Si O2"
_cell_formula_units_Z 32
_cell_length_a 12.516756
_cell_length_b 9.112906
_cell_length_c 25.186723
_cell_angle_alpha 90.000000
_cell_angle_beta 157.519151
_cell_angle_gamma 90.000000
_cell_volume 1098.523584
_symmetry_space_group_name_H-M "C 2/C"
_symmetry_group_IT_number 15
_symmetry_cell_setting 'monoclinic'
loop_
_space_group_symop_operation_xyz
x,y,z
-x,y,1/2-z
-x,-y,-z
x,-y,1/2+z
1/2+x,1/2+y,z
1/2-x,1/2+y,1/2-z
1/2-x,1/2-y,-z
1/2+x,1/2-y,1/2+z
loop_
_atom_site_type_symbol
_atom_site_label
_atom_site_fract_x
_atom_site_fract_y
_atom_site_fract_z
Si Si1 0.148791 0.298959 0.870567
Si Si2 0.312743 0.815680 0.819880
Si Si3 0.981286 0.587876 0.934866
Si Si4 0.218739 0.621048 0.927701
O O1 0.000000 0.233206 0.750000
O O2 0.897922 0.300772 0.798244
O O3 0.406130 0.224646 0.019263
O O4 0.229113 0.469385 0.901730
O O5 0.065770 0.705174 0.717940
O O6 0.238635 0.985078 0.797969
O O7 0.194327 0.582112 0.980045
O O8 0.044480 0.758981 0.976468
O O9 0.000000 0.500000 0.000000
#
# Coordination Sequence:
#
# PCOD9298437 Si02
#       4
#     8   8   8   8
#     4  10  24  44  70 102 144 193 243 302 379 443
#     4  10  24  45  69 105 143 188 251 307 367 458
#     4  10  24  44  72 104 141 195 244 303 371 444
#     4  10  24  46  71 106 149 187 252 310 368 458
#
# _framework density 29.130009000000001
#
# number of rings (size 3 to 8) (size 9 to 14) (size 15 to 20)
#    0.000    2.000    0.000    0.000    7.000   17.000 
#    0.000    0.000    0.000    0.000    0.000    0.000 
#    0.000    0.000    0.000    0.000    0.000    0.000 
#
# Total GULP energy -89432.386308 kJ/mol
# GULP energy per Si atom -5589.524144 kJ/mol
# Density = 2.906371 g / cm^3
# Si number density = 29.130009 Si / 1000 Ang^3
#
#
#
# Elastic Constant Matrix: (Units=GPa)
#
#
# Indices 1 2 3 4 5 6 
#
# 1 123.8504 55.6594 62.3728 0.0042 -29.7582 0.0021
# 2 55.6594 253.0856 50.5506 0.0007 -2.6975 0.0008
# 3 62.3728 50.5506 157.2528 0.0156 -13.2830 0.0067
# 4 0.0042 0.0007 0.0156 47.8732 0.0039 -0.5834
# 5 -29.7582 -2.6975 -13.2830 0.0039 66.0294 0.0021
# 6 0.0021 0.0008 0.0067 -0.5834 0.0021 75.7840
#
#
#
# Elastic Compliance Matrix: (Units=1/GPa)
#
#
# Indices 1 2 3 4 5 6 
#
# 1 0.011857 -0.001813 -0.003739 0.000000 0.004518 0.000000
# 2 -0.001813 0.004500 -0.000795 0.000000 -0.000793 0.000000
# 3 -0.003739 -0.000795 0.008090 -0.000002 -0.000090 -0.000001
# 4 0.000000 0.000000 -0.000002 0.020890 -0.000002 0.000161
# 5 0.004518 -0.000793 -0.000090 -0.000002 0.017130 -0.000001
# 6 0.000000 0.000000 -0.000001 0.000161 -0.000001 0.013197
#
#
# Mechanical properties :
#
#
# Convention : Reuss Voigt Hill
#
# Bulk Modulus (GPa) = 85.06873 96.81716 90.94295
# Shear Modulus (GPa) = 54.18556 62.31104 58.24830
#
# Velocity S-wave (km/s) = 4.31760 4.63002 4.47654
# Velocity P-wave (km/s) = 7.35677 7.86710 7.61621
#
# Compressibility (1/GPa) = 0.01175520
#
# Stress axis : x y z
#
# Youngs Moduli (GPa) = 84.33606 222.21429 123.61017
#
# Poissons Ratio (x) = 0.40283 0.46215
# Poissons Ratio (y) = 0.15288 0.09822
# Poissons Ratio (z) = 0.31531 0.17657
#
# Static dielectric constant tensor:
#      x y z
#    x 2.537300 -0.000040 0.200040 
#    y -0.000040 2.728040 -0.000040 
#    z 0.200040 -0.000040 2.588850 
# 
# From -- ./inp_files/236740.got.cif
#   From: 2010.05.17/outbox.cif.g08.bks.cpg/sg15_119_cif.got.tgz:236740.got - 2010.06.03 18:47:42.
