data_PCOD9298503
_publ_section_title
;
Structure prediction by ZEFSAII (Michael W. Deem and Ramdas Pophale) SiO2 
 PCOD9298503
Probable space group: C 2/C
;
_chemical_formula_sum "Si O2"
_cell_formula_units_Z 44
_cell_length_a 5.129869
_cell_length_b 20.180961
_cell_length_c 18.979331
_cell_angle_alpha 90.000000
_cell_angle_beta 99.937570
_cell_angle_gamma 90.000000
_cell_volume 1935.368423
_symmetry_space_group_name_H-M "C 2/C"
_symmetry_group_IT_number 15
_symmetry_cell_setting 'monoclinic'
loop_
_space_group_symop_operation_xyz
x,y,z
-x,y,1/2-z
-x,-y,-z
x,-y,1/2+z
1/2+x,1/2+y,z
1/2-x,1/2+y,1/2-z
1/2-x,1/2-y,-z
1/2+x,1/2-y,1/2+z
loop_
_atom_site_type_symbol
_atom_site_label
_atom_site_fract_x
_atom_site_fract_y
_atom_site_fract_z
Si Si1 0.527546 0.266594 0.046559
Si Si2 0.440482 0.985179 0.415630
Si Si3 0.094141 0.095730 0.632160
Si Si4 0.771727 0.571286 0.290264
Si Si5 0.810373 0.725000 0.303699
Si Si6 0.000000 0.664534 0.750000
O O1 0.562552 0.340472 0.079580
O O2 0.539857 0.221576 0.116427
O O3 0.750000 0.250000 0.000000
O O4 0.250000 0.250000 0.000000
O O5 0.707912 0.956238 0.394680
O O6 0.201727 0.934812 0.382099
O O7 0.500000 0.000000 0.500000
O O8 0.347735 0.051736 0.372269
O O9 0.254946 0.118807 0.711510
O O10 0.500000 0.540974 0.250000
O O11 0.752558 0.650103 0.281180
O O12 0.000000 0.546287 0.250000
O O13 0.562187 0.774661 0.309165
O O14 0.000000 0.753348 0.250000
#
# Coordination Sequence:
#
# PCOD9298503 Si02
#       6
#     8   8   8   8   8   4
#     4  11  26  44  72 105 141 183 236 292 366 428
#     4  12  28  49  69 104 142 192 241 294 352 427
#     4  11  27  45  75 101 142 187 237 294 365 421
#     4  11  25  45  73 102 137 186 241 291 356 422
#     4  10  24  44  72 104 142 182 233 300 362 429
#     4  10  24  44  72 106 140 174 238 300 362 436
#
# _framework density 22.734691000000002
#
# number of rings (size 3 to 8) (size 9 to 14) (size 15 to 20)
#    0.000    1.091    0.909    2.727   19.091    0.000 
#    0.000    0.000    0.000    0.000    0.000    0.000 
#    0.000    0.000    0.000    0.000    0.000    0.000 
#
# Total GULP energy -122470.767330 kJ/mol
# GULP energy per Si atom -5566.853060 kJ/mol
# Density = 2.268295 g / cm^3
# Si number density = 22.734691 Si / 1000 Ang^3
#
#
#
# Elastic Constant Matrix: (Units=GPa)
#
#
# Indices 1 2 3 4 5 6 
#
# 1 130.0075 -1.8801 60.5209 0.0000 19.9583 0.0000
# 2 -1.8801 54.2132 -1.5755 0.0000 0.2305 0.0000
# 3 60.5209 -1.5755 156.4475 0.0000 26.6461 0.0000
# 4 0.0000 0.0000 0.0000 35.8782 0.0000 4.9468
# 5 19.9583 0.2305 26.6461 0.0000 43.3608 0.0000
# 6 0.0000 0.0000 0.0000 4.9468 0.0000 30.0626
#
#
#
# Elastic Compliance Matrix: (Units=1/GPa)
#
#
# Indices 1 2 3 4 5 6 
#
# 1 0.009601 0.000247 -0.003304 0.000000 -0.002390 0.000000
# 2 0.000247 0.018460 0.000141 0.000000 -0.000299 0.000000
# 3 -0.003304 0.000141 0.008279 0.000000 -0.003568 0.000000
# 4 0.000000 0.000000 0.000000 0.028519 0.000000 -0.004693
# 5 -0.002390 -0.000299 -0.003568 0.000000 0.026356 0.000000
# 6 0.000000 0.000000 0.000000 -0.004693 0.000000 0.034036
#
#
# Mechanical properties :
#
#
# Convention : Reuss Voigt Hill
#
# Bulk Modulus (GPa) = 32.77928 50.53322 41.65625
# Shear Modulus (GPa) = 35.39767 40.76717 38.08242
#
# Velocity S-wave (km/s) = 3.95015 4.23918 4.09721
# Velocity P-wave (km/s) = 5.93754 6.79974 6.38321
#
# Compressibility (1/GPa) = 0.03050708
#
# Stress axis : x y z
#
# Youngs Moduli (GPa) = 104.16054 54.17228 120.78364
#
# Poissons Ratio (x) = -0.01338 0.39912
# Poissons Ratio (y) = -0.02573 -0.01705
# Poissons Ratio (z) = 0.34419 -0.00765
#
# Static dielectric constant tensor:
#      x y z
#    x 1.998160 0.000000 0.088540 
#    y 0.000000 1.917400 0.000000 
#    z 0.088540 0.000000 1.807830 
# 
# From -- ./inp_files/184929.got.cif
#   From: 2010.05.17/outbox.cif.g08.bks.cpg/sg15_93_cif.got.tgz:184929.got - 2010.06.03 18:47:42.
