data_PCOD9298249
_publ_section_title
;
Structure prediction by ZEFSAII (Michael W. Deem and Ramdas Pophale) SiO2 
 PCOD9298249
Probable space group: C 2/C
;
_chemical_formula_sum "Si O2"
_cell_formula_units_Z 32
_cell_length_a 5.235511
_cell_length_b 36.148391
_cell_length_c 7.645166
_cell_angle_alpha 90.000000
_cell_angle_beta 113.151294
_cell_angle_gamma 90.000000
_cell_volume 1330.370110
_symmetry_space_group_name_H-M "C 2/C"
_symmetry_group_IT_number 15
_symmetry_cell_setting 'monoclinic'
loop_
_space_group_symop_operation_xyz
x,y,z
-x,y,1/2-z
-x,-y,-z
x,-y,1/2+z
1/2+x,1/2+y,z
1/2-x,1/2+y,1/2-z
1/2-x,1/2-y,-z
1/2+x,1/2-y,1/2+z
loop_
_atom_site_type_symbol
_atom_site_label
_atom_site_fract_x
_atom_site_fract_y
_atom_site_fract_z
Si Si1 0.681456 0.967157 0.129890
Si Si2 0.267569 0.110059 0.041897
Si Si3 0.761358 0.293092 0.042576
Si Si4 0.000000 0.835527 0.250000
Si Si5 0.000000 0.848079 0.750000
O O1 0.500000 0.955409 0.250000
O O2 0.000000 0.979725 0.250000
O O3 0.717160 0.931978 0.013090
O O4 0.500000 0.000000 0.000000
O O5 0.500000 0.116881 0.250000
O O6 0.005944 0.124053 0.086278
O O7 0.246551 0.135716 0.865000
O O8 0.502002 0.308033 0.085551
O O9 0.000000 0.299407 0.250000
O O10 0.750000 0.250000 0.000000
O O11 0.744592 0.318764 0.866620
#
# Coordination Sequence:
#
# PCOD9298249 Si02
#       5
#     8   8   8   4   4
#     4  12  28  52  82 116 159 204 256 322 391 465
#     4  11  24  44  75 104 144 193 250 314 372 462
#     4  11  22  41  65  96 140 185 244 308 369 446
#     4  10  24  44  64 101 140 192 250 300 377 448
#     4  10  24  44  68 103 140 192 254 296 389 438
#
# _framework density 24.053456000000001
#
# number of rings (size 3 to 8) (size 9 to 14) (size 15 to 20)
#    0.000    1.000    2.500    3.000    3.500    2.000 
#    4.500    0.000    0.000    0.000    0.000    0.000 
#    0.000    0.000    0.000    0.000    0.000    0.000 
#
# Total GULP energy -89173.062874 kJ/mol
# GULP energy per Si atom -5573.316430 kJ/mol
# Density = 2.399871 g / cm^3
# Si number density = 24.053456 Si / 1000 Ang^3
#
#
#
# Elastic Constant Matrix: (Units=GPa)
#
#
# Indices 1 2 3 4 5 6 
#
# 1 67.9419 56.3122 42.3978 0.0000 13.5437 0.0000
# 2 56.3122 243.4907 90.8179 0.0000 -2.9023 0.0000
# 3 42.3978 90.8179 163.8390 0.0000 22.5317 0.0000
# 4 0.0000 0.0000 0.0000 38.3645 0.0000 -3.5562
# 5 13.5437 -2.9023 22.5317 0.0000 55.0621 0.0000
# 6 0.0000 0.0000 0.0000 -3.5562 0.0000 31.2701
#
#
#
# Elastic Compliance Matrix: (Units=1/GPa)
#
#
# Indices 1 2 3 4 5 6 
#
# 1 0.020286 -0.003775 -0.002589 0.000000 -0.004129 0.000000
# 2 -0.003775 0.006005 -0.002673 0.000000 0.002339 0.000000
# 3 -0.002589 -0.002673 0.008675 0.000000 -0.003054 0.000000
# 4 0.000000 0.000000 0.000000 0.026344 0.000000 0.002996
# 5 -0.004129 0.002339 -0.003054 0.000000 0.020550 0.000000
# 6 0.000000 0.000000 0.000000 0.002996 0.000000 0.032320
#
#
# Mechanical properties :
#
#
# Convention : Reuss Voigt Hill
#
# Bulk Modulus (GPa) = 59.20181 94.92527 77.06354
# Shear Modulus (GPa) = 36.26177 43.98891 40.12534
#
# Velocity S-wave (km/s) = 3.88693 4.28108 4.08876
# Velocity P-wave (km/s) = 6.69405 7.99918 7.37554
#
# Compressibility (1/GPa) = 0.01689138
#
# Stress axis : x y z
#
# Youngs Moduli (GPa) = 49.29452 166.52716 115.26739
#
# Poissons Ratio (x) = 0.62866 0.29844
# Poissons Ratio (y) = 0.18609 0.30816
# Poissons Ratio (z) = 0.12763 0.44520
#
# Static dielectric constant tensor:
#      x y z
#    x 2.293650 0.000000 -0.091390 
#    y 0.000000 1.823700 0.000000 
#    z -0.091390 0.000000 2.038080 
# 
# From -- ./inp_files/20322.got.cif
#   From: 2010.05.17/outbox.cif.g08.bks.cpg/sg15_11_cif.got.tgz:20322.got - 2010.06.03 18:47:42.
