data_PCOD9298782
_publ_section_title
;
Structure prediction by ZEFSAII (Michael W. Deem and Ramdas Pophale) SiO2 
 PCOD9298782
Probable space group: C 2/C
;
_chemical_formula_sum "Si O2"
_cell_formula_units_Z 36
_cell_length_a 11.533563
_cell_length_b 22.082233
_cell_length_c 5.643276
_cell_angle_alpha 90.000000
_cell_angle_beta 91.325844
_cell_angle_gamma 90.000000
_cell_volume 1436.883256
_symmetry_space_group_name_H-M "C 2/C"
_symmetry_group_IT_number 15
_symmetry_cell_setting 'monoclinic'
loop_
_space_group_symop_operation_xyz
x,y,z
-x,y,1/2-z
-x,-y,-z
x,-y,1/2+z
1/2+x,1/2+y,z
1/2-x,1/2+y,1/2-z
1/2-x,1/2-y,-z
1/2+x,1/2-y,1/2+z
loop_
_atom_site_type_symbol
_atom_site_label
_atom_site_fract_x
_atom_site_fract_y
_atom_site_fract_z
Si Si1 0.029649 0.365513 0.990149
Si Si2 0.000000 0.152232 0.250000
Si Si3 0.623932 0.744229 0.599124
Si Si4 0.699030 0.352713 0.438494
Si Si5 0.640456 0.529511 0.724419
O O1 0.166567 0.349615 0.987317
O O2 0.000000 0.390209 0.250000
O O3 0.000000 0.402664 0.750000
O O4 0.947752 0.305525 0.954562
O O5 0.059185 0.193556 0.447556
O O6 0.891038 0.120860 0.370387
O O7 0.750000 0.750000 0.500000
O O8 0.650363 0.712494 0.853356
O O9 0.686852 0.401806 0.230883
O O10 0.500000 0.530071 0.750000
O O11 0.678971 0.501717 0.474186
#
# Coordination Sequence:
#
# PCOD9298782 Si02
#       5
#     8   4   8   8   8
#     4  12  26  46  67 101 146 199 242 291 353 441
#     4  12  24  36  62 100 142 180 238 282 366 432
#     4  12  23  42  66 100 142 193 238 288 351 440
#     4  12  27  43  72 104 149 192 242 305 374 433
#     4  10  24  45  74 106 142 184 247 310 370 430
#
# _framework density 25.054226
#
# number of rings (size 3 to 8) (size 9 to 14) (size 15 to 20)
#    0.000    0.444    3.333    4.667    7.778    2.667 
#    0.000    0.000    0.000    4.000    0.000    0.000 
#    0.000    0.000    0.000    0.000    0.000    0.000 
#
# Total GULP energy -100575.542091 kJ/mol
# GULP energy per Si atom -5587.530116 kJ/mol
# Density = 2.499720 g / cm^3
# Si number density = 25.054226 Si / 1000 Ang^3
#
#
#
# Elastic Constant Matrix: (Units=GPa)
#
#
# Indices 1 2 3 4 5 6 
#
# 1 179.9627 8.2402 56.2735 0.0000 -12.8026 0.0000
# 2 8.2402 41.8364 14.9572 0.0000 -2.7479 0.0000
# 3 56.2735 14.9572 160.5996 0.0000 2.9468 0.0000
# 4 0.0000 0.0000 0.0000 37.4506 0.0000 5.6569
# 5 -12.8026 -2.7479 2.9468 0.0000 29.6533 0.0000
# 6 0.0000 0.0000 0.0000 5.6569 0.0000 2.5217
#
#
#
# Elastic Compliance Matrix: (Units=1/GPa)
#
#
# Indices 1 2 3 4 5 6 
#
# 1 0.006506 -0.000257 -0.002311 0.000000 0.003015 0.000000
# 2 -0.000257 0.024926 -0.002276 0.000000 0.002425 0.000000
# 3 -0.002311 -0.002276 0.007284 0.000000 -0.001932 0.000000
# 4 0.000000 0.000000 0.000000 0.040386 0.000000 -0.090596
# 5 0.003015 0.002425 -0.001932 0.000000 0.035441 0.000000
# 6 0.000000 0.000000 0.000000 -0.090596 0.000000 0.599779
#
#
# Mechanical properties :
#
#
# Convention : Reuss Voigt Hill
#
# Bulk Modulus (GPa) = 34.44975 60.14895 47.29935
# Shear Modulus (GPa) = 6.81491 34.12032 20.46761
#
# Velocity S-wave (km/s) = 1.65105 3.69434 2.86130
# Velocity P-wave (km/s) = 4.17307 6.50055 5.46222
#
# Compressibility (1/GPa) = 0.02902779
#
# Stress axis : x y z
#
# Youngs Moduli (GPa) = 153.71514 40.11837 137.29087
#
# Poissons Ratio (x) = 0.01032 0.31726
# Poissons Ratio (y) = 0.03953 0.31245
# Poissons Ratio (z) = 0.35522 0.09130
#
# Static dielectric constant tensor:
#      x y z
#    x 2.131580 0.000000 -0.060580 
#    y 0.000000 1.855790 0.000000 
#    z -0.060580 0.000000 2.132700 
# 
# From -- ./inp_files/4409.got.cif
#   From: 2010.05.17/outbox.cif.g08.bks.cpg/sg15_3_cif.got.tgz:4409.got - 2010.06.03 18:47:42.
