data_PCOD9298976
_publ_section_title
;
Structure prediction by ZEFSAII (Michael W. Deem and Ramdas Pophale) SiO2 
 PCOD9298976
Probable space group: C 2/C
;
_chemical_formula_sum "Si O2"
_cell_formula_units_Z 48
_cell_length_a 12.301345
_cell_length_b 11.108777
_cell_length_c 21.179666
_cell_angle_alpha 90.000000
_cell_angle_beta 49.875506
_cell_angle_gamma 90.000000
_cell_volume 2213.086338
_symmetry_space_group_name_H-M "C 2/C"
_symmetry_group_IT_number 15
_symmetry_cell_setting 'monoclinic'
loop_
_space_group_symop_operation_xyz
x,y,z
-x,y,1/2-z
-x,-y,-z
x,-y,1/2+z
1/2+x,1/2+y,z
1/2-x,1/2+y,1/2-z
1/2-x,1/2-y,-z
1/2+x,1/2-y,1/2+z
loop_
_atom_site_type_symbol
_atom_site_label
_atom_site_fract_x
_atom_site_fract_y
_atom_site_fract_z
Si Si1 0.748112 0.972717 0.719868
Si Si2 0.169239 0.002316 0.173174
Si Si3 0.031361 0.110089 0.940228
Si Si4 0.769978 0.767066 0.918581
Si Si5 0.000000 0.627469 0.750000
Si Si6 0.658983 0.772336 0.664813
Si Si7 0.250000 0.250000 0.500000
O O1 0.752915 0.954560 0.792365
O O2 0.751237 0.850367 0.678517
O O3 0.883458 0.053088 0.650405
O O4 0.610497 0.044577 0.746831
O O5 0.213853 0.092038 0.101722
O O6 0.000000 0.007217 0.250000
O O7 0.211071 0.865616 0.141569
O O8 0.136218 0.204367 0.934833
O O9 0.893728 0.177822 0.967411
O O10 0.000000 0.000000 0.000000
O O11 0.908281 0.706201 0.833711
O O12 0.750000 0.750000 0.000000
O O13 0.500000 0.772245 0.750000
O O14 0.664853 0.816910 0.591358
#
# Coordination Sequence:
#
# PCOD9298976 Si02
#       7
#     8   8   8   8   4   8   4
#     4  11  24  45  72 104 145 192 251 298 384 429
#     4  11  26  44  71 101 146 192 240 299 366 449
#     4  11  25  45  74 105 142 198 239 311 367 442
#     4  11  27  46  72 106 146 192 243 296 381 442
#     4  10  24  46  72 102 146 192 232 320 358 444
#     4  11  25  44  75 106 142 196 245 312 363 450
#     4  12  26  46  76 108 150 184 264 302 372 446
#
# _framework density 21.689167999999999
#
# number of rings (size 3 to 8) (size 9 to 14) (size 15 to 20)
#    0.000    1.000    3.333    2.000   11.667    1.333 
#    0.000    1.667    0.000    0.000    0.000    0.000 
#    0.000    0.000    0.000    0.000    0.000    0.000 
#
# Total GULP energy -133815.879566 kJ/mol
# GULP energy per Si atom -5575.661649 kJ/mol
# Density = 2.163980 g / cm^3
# Si number density = 21.689168 Si / 1000 Ang^3
#
#
#
# Elastic Constant Matrix: (Units=GPa)
#
#
# Indices 1 2 3 4 5 6 
#
# 1 100.9008 47.1240 45.4448 0.0000 -6.5754 0.0000
# 2 47.1240 114.2352 16.2255 0.0000 -19.5020 0.0000
# 3 45.4448 16.2255 106.5667 0.0000 -7.2530 0.0000
# 4 0.0000 0.0000 0.0000 -472.0293 0.0000 -217.6525
# 5 -6.5754 -19.5020 -7.2530 0.0000 37.4733 0.0000
# 6 0.0000 0.0000 0.0000 -217.6525 0.0000 -62.1520
#
#
#
# Elastic Compliance Matrix: (Units=1/GPa)
#
#
# Indices 1 2 3 4 5 6 
#
# 1 0.014977 -0.005615 -0.005626 0.000000 -0.001383 0.000000
# 2 -0.005615 0.011851 0.000956 0.000000 0.005367 0.000000
# 3 -0.005626 0.000956 0.011759 0.000000 0.001786 0.000000
# 4 0.000000 0.000000 0.000000 0.003446 0.000000 -0.012068
# 5 -0.001383 0.005367 0.001786 0.000000 0.029582 0.000000
# 6 0.000000 0.000000 0.000000 -0.012068 0.000000 0.026173
#
#
# Mechanical properties :
#
#
# Convention : Reuss Voigt Hill
#
# Bulk Modulus (GPa) = 55.50852 59.92124 57.71488
# Shear Modulus (GPa) = 40.20435 -85.14773 -22.47169
#
# Velocity S-wave (km/s) = 4.31009 -6.27243 -3.22231
# Velocity P-wave (km/s) = 7.10052 4.97701 3.58098
#
# Compressibility (1/GPa) = 0.01801525
#
# Stress axis : x y z
#
# Youngs Moduli (GPa) = 66.76879 84.38224 85.04079
#
# Poissons Ratio (x) = 0.47384 0.47844
# Poissons Ratio (y) = 0.37493 -0.08126
# Poissons Ratio (z) = 0.37564 -0.08063
#
# Static dielectric constant tensor:
#      x y z
#    x 1.763140 0.000000 0.025400 
#    y 0.000000 1.819050 0.000000 
#    z 0.025400 0.000000 1.799470 
# 
# From -- ./inp_files/237450.got.cif
#   From: 2010.05.17/outbox.cif.g08.bks.cpg/sg15_119_cif.got.tgz:237450.got - 2010.06.03 18:47:42.
