data_PCOD9298919
_publ_section_title
;
Structure prediction by ZEFSAII (Michael W. Deem and Ramdas Pophale) SiO2 
 PCOD9298919
Probable space group: C 2/C
;
_chemical_formula_sum "Si O2"
_cell_formula_units_Z 36
_cell_length_a 16.821605
_cell_length_b 9.032873
_cell_length_c 19.316966
_cell_angle_alpha 90.000000
_cell_angle_beta 149.739929
_cell_angle_gamma 90.000000
_cell_volume 1479.104474
_symmetry_space_group_name_H-M "C 2/C"
_symmetry_group_IT_number 15
_symmetry_cell_setting 'monoclinic'
loop_
_space_group_symop_operation_xyz
x,y,z
-x,y,1/2-z
-x,-y,-z
x,-y,1/2+z
1/2+x,1/2+y,z
1/2-x,1/2+y,1/2-z
1/2-x,1/2-y,-z
1/2+x,1/2-y,1/2+z
loop_
_atom_site_type_symbol
_atom_site_label
_atom_site_fract_x
_atom_site_fract_y
_atom_site_fract_z
Si Si1 0.103465 0.113133 0.735692
Si Si2 0.321652 0.984380 0.294231
Si Si3 0.830726 0.386889 0.946243
Si Si4 0.500000 0.875870 0.750000
Si Si5 0.196921 0.045468 0.552643
O O1 0.237516 0.139449 0.778945
O O2 0.034334 0.262803 0.713302
O O3 0.965931 0.015939 0.598933
O O4 0.195986 0.008978 0.860567
O O5 0.495271 0.937097 0.400984
O O6 0.217638 0.004508 0.148231
O O7 0.336387 0.107828 0.365684
O O8 0.795464 0.222780 0.944353
O O9 0.345442 0.974431 0.625285
#
# Coordination Sequence:
#
# PCOD9298919 Si02
#       5
#     8   8   8   4   8
#     4  10  24  46  70 102 142 187 226 291 352 412
#     4   9  22  43  76 105 141 169 239 294 346 403
#     4   9  22  44  74 105 135 179 232 295 343 410
#     4  12  30  44  62 104 154 184 228 288 354 414
#     4  12  24  44  72 106 136 190 236 284 343 422
#
# _framework density 24.33905
#
# number of rings (size 3 to 8) (size 9 to 14) (size 15 to 20)
#    1.333    0.444    0.000    2.667    3.111    6.222 
#    0.000    3.333    0.000    0.000    0.000    0.000 
#    0.000    0.000    0.000    0.000    0.000    0.000 
#
# Total GULP energy -100655.665032 kJ/mol
# GULP energy per Si atom -5591.981391 kJ/mol
# Density = 2.428365 g / cm^3
# Si number density = 24.339050 Si / 1000 Ang^3
#
#
#
# Elastic Constant Matrix: (Units=GPa)
#
#
# Indices 1 2 3 4 5 6 
#
# 1 87.3775 42.5096 39.9082 0.0002 6.7916 0.0000
# 2 42.5096 158.6260 39.6642 0.0009 23.6141 0.0003
# 3 39.9082 39.6642 132.3260 0.0015 17.8617 0.0004
# 4 0.0002 0.0009 0.0015 -112.6547 0.0000 -25.7457
# 5 6.7916 23.6141 17.8617 0.0000 32.9197 0.0000
# 6 0.0000 0.0003 0.0004 -25.7457 0.0000 45.6019
#
#
#
# Elastic Compliance Matrix: (Units=1/GPa)
#
#
# Indices 1 2 3 4 5 6 
#
# 1 0.014539 -0.003180 -0.003598 0.000000 0.001234 0.000000
# 2 -0.003180 0.008059 -0.000825 0.000000 -0.004677 0.000000
# 3 -0.003598 -0.000825 0.009398 0.000000 -0.003765 0.000000
# 4 0.000000 0.000000 0.000000 -0.007862 0.000000 -0.004439
# 5 0.001234 -0.004677 -0.003765 0.000000 0.035520 0.000000
# 6 0.000000 0.000000 0.000000 -0.004439 0.000000 0.019423
#
#
# Mechanical properties :
#
#
# Convention : Reuss Voigt Hill
#
# Bulk Modulus (GPa) = 59.56374 69.16593 64.36483
# Shear Modulus (GPa) = 50.05983 10.25655 30.15819
#
# Velocity S-wave (km/s) = 4.54008 2.05504 3.52388
# Velocity P-wave (km/s) = 7.21171 5.84040 6.56198
#
# Compressibility (1/GPa) = 0.01678874
#
# Stress axis : x y z
#
# Youngs Moduli (GPa) = 68.77896 124.08472 106.40785
#
# Poissons Ratio (x) = 0.39463 0.38288
# Poissons Ratio (y) = 0.21874 0.08781
# Poissons Ratio (z) = 0.24748 0.10239
#
# Static dielectric constant tensor:
#      x y z
#    x 2.021630 0.000000 -0.029880 
#    y 0.000000 1.932740 0.000000 
#    z -0.029880 0.000000 1.871450 
# 
# From -- ./inp_files/247924.got.cif
#   From: 2010.05.17/outbox.cif.g08.bks.cpg/sg15_124_cif.got.tgz:247924.got - 2010.06.03 18:47:42.
