data_PCOD9298266
_publ_section_title
;
Structure prediction by ZEFSAII (Michael W. Deem and Ramdas Pophale) SiO2 
 PCOD9298266
Probable space group: C 2/C
;
_chemical_formula_sum "Si O2"
_cell_formula_units_Z 56
_cell_length_a 18.628611
_cell_length_b 22.396627
_cell_length_c 8.691960
_cell_angle_alpha 90.000000
_cell_angle_beta 131.694372
_cell_angle_gamma 90.000000
_cell_volume 2707.877478
_symmetry_space_group_name_H-M "C 2/C"
_symmetry_group_IT_number 15
_symmetry_cell_setting 'monoclinic'
loop_
_space_group_symop_operation_xyz
x,y,z
-x,y,1/2-z
-x,-y,-z
x,-y,1/2+z
1/2+x,1/2+y,z
1/2-x,1/2+y,1/2-z
1/2-x,1/2-y,-z
1/2+x,1/2-y,1/2+z
loop_
_atom_site_type_symbol
_atom_site_label
_atom_site_fract_x
_atom_site_fract_y
_atom_site_fract_z
Si Si1 0.500000 0.498099 0.750000
Si Si2 0.574654 0.583821 0.122792
Si Si3 0.285712 0.650922 0.388517
Si Si4 0.000000 0.498829 0.250000
Si Si5 0.091656 0.822111 0.131441
Si Si6 0.090990 0.583027 0.122076
Si Si7 0.980082 0.698916 0.040546
Si Si8 0.241203 0.727627 0.813843
O O1 0.450617 0.539366 0.553082
O O2 0.420539 0.457099 0.720417
O O3 0.661221 0.623721 0.184734
O O4 0.484403 0.627286 0.016647
O O5 0.358340 0.660775 0.634366
O O6 0.197666 0.607737 0.301919
O O7 0.249303 0.716117 0.288104
O O8 0.945110 0.541311 0.291070
O O9 0.074540 0.456543 0.447051
O O10 0.174097 0.815698 0.120699
O O11 0.032309 0.760210 0.063857
O O12 0.024497 0.641937 0.019217
O O13 0.000000 0.691723 0.250000
O O14 0.865927 0.702500 0.856870
O O15 0.250000 0.750000 0.000000
#
# Coordination Sequence:
#
# PCOD9298266 Si02
#       8
#     4   8   8   4   8   8   8   8
#     4  10  24  44  64  96 134 188 220 274 332 402
#     4  11  23  44  70  98 140 177 228 276 341 403
#     4  12  23  44  70 103 132 179 227 277 344 421
#     4  10  26  50  62  94 132 184 232 284 324 396
#     4  12  23  44  72 101 138 180 219 280 348 418
#     4  11  25  44  71  93 134 176 231 278 338 392
#     4  12  22  43  74  99 137 178 216 280 349 414
#     4  12  28  40  65 111 140 171 225 280 355 414
#
# _framework density 20.680402999999998
#
# number of rings (size 3 to 8) (size 9 to 14) (size 15 to 20)
#    0.000    0.571    6.429    1.286    4.000    1.714 
#    0.000    0.000    0.000    0.000    0.000    0.000 
#    0.000    0.000    0.000    0.000    0.000    0.000 
#
# Total GULP energy -156642.216823 kJ/mol
# GULP energy per Si atom -5594.364887 kJ/mol
# Density = 2.063333 g / cm^3
# Si number density = 20.680403 Si / 1000 Ang^3
#
#
#
# Elastic Constant Matrix: (Units=GPa)
#
#
# Indices 1 2 3 4 5 6 
#
# 1 104.0382 41.2364 22.7062 0.0000 22.8833 0.0000
# 2 41.2364 120.5066 29.2516 0.0000 12.1875 0.0000
# 3 22.7062 29.2516 34.2644 0.0000 9.9652 0.0000
# 4 0.0000 0.0000 0.0000 -82.2030 0.0000 87.0423
# 5 22.8833 12.1875 9.9652 0.0000 33.2313 0.0000
# 6 0.0000 0.0000 0.0000 87.0423 0.0000 -36.9647
#
#
#
# Elastic Compliance Matrix: (Units=1/GPa)
#
#
# Indices 1 2 3 4 5 6 
#
# 1 0.013141 -0.002747 -0.004409 0.000000 -0.006719 0.000000
# 2 -0.002747 0.011091 -0.007685 0.000000 0.000129 0.000000
# 3 -0.004409 -0.007685 0.040497 0.000000 -0.006289 0.000000
# 4 0.000000 0.000000 0.000000 0.008146 0.000000 0.019182
# 5 -0.006719 0.000129 -0.006289 0.000000 0.036558 0.000000
# 6 0.000000 0.000000 0.000000 0.019182 0.000000 0.018115
#
#
# Mechanical properties :
#
#
# Convention : Reuss Voigt Hill
#
# Bulk Modulus (GPa) = 28.53399 49.46641 39.00020
# Shear Modulus (GPa) = 29.60130 -6.14628 11.72751
#
# Velocity S-wave (km/s) = 3.78745 -1.72583 2.38393
# Velocity P-wave (km/s) = 5.74055 4.47214 5.14558
#
# Compressibility (1/GPa) = 0.03504593
#
# Stress axis : x y z
#
# Youngs Moduli (GPa) = 76.09908 90.16492 24.69348
#
# Poissons Ratio (x) = 0.24767 0.10887
# Poissons Ratio (y) = 0.20904 0.18978
# Poissons Ratio (z) = 0.33551 0.69295
#
# Static dielectric constant tensor:
#      x y z
#    x 1.641030 0.000000 -0.009070 
#    y 0.000000 1.735680 0.000000 
#    z -0.009070 0.000000 1.708150 
# 
# From -- ./inp_files/51617.got.cif
#   From: 2010.05.17/outbox.cif.g08.bks.cpg/sg15_26_cif.got.tgz:51617.got - 2010.06.03 18:47:42.
