data_PCOD9298105
_publ_section_title
;
Structure prediction by ZEFSAII (Michael W. Deem and Ramdas Pophale) SiO2 
 PCOD9298105
Probable space group: C 2/C
;
_chemical_formula_sum "Si O2"
_cell_formula_units_Z 56
_cell_length_a 15.718459
_cell_length_b 17.451905
_cell_length_c 19.759405
_cell_angle_alpha 90.000000
_cell_angle_beta 151.772353
_cell_angle_gamma 90.000000
_cell_volume 2563.691378
_symmetry_space_group_name_H-M "C 2/C"
_symmetry_group_IT_number 15
_symmetry_cell_setting 'monoclinic'
loop_
_space_group_symop_operation_xyz
x,y,z
-x,y,1/2-z
-x,-y,-z
x,-y,1/2+z
1/2+x,1/2+y,z
1/2-x,1/2+y,1/2-z
1/2-x,1/2-y,-z
1/2+x,1/2-y,1/2+z
loop_
_atom_site_type_symbol
_atom_site_label
_atom_site_fract_x
_atom_site_fract_y
_atom_site_fract_z
Si Si1 0.269423 0.533482 0.902461
Si Si2 0.210125 0.306996 0.719632
Si Si3 0.042387 0.112760 0.013277
Si Si4 0.073739 0.347602 0.099896
Si Si5 0.100190 0.465779 0.423572
Si Si6 0.634465 0.241705 0.484454
Si Si7 0.307598 0.591647 0.655287
O O1 0.405809 0.462977 0.991460
O O2 0.233671 0.553779 0.955157
O O3 0.082754 0.505545 0.739623
O O4 0.348632 0.601436 0.911821
O O5 0.332662 0.375261 0.832678
O O6 0.332031 0.230076 0.805862
O O7 0.082979 0.324123 0.565563
O O8 0.056359 0.294927 0.668233
O O9 0.082909 0.183766 0.992028
O O10 0.228256 0.406690 0.177606
O O11 0.960078 0.392633 0.076122
O O12 0.185033 0.530250 0.530572
O O13 0.750000 0.250000 0.500000
O O14 0.749992 0.179259 0.604539
O O15 0.500000 0.583384 0.750000
#
# Coordination Sequence:
#
# PCOD9298105 Si02
#       7
#     8   8   8   8   8   8   8
#     4  10  24  43  68  97 134 186 229 290 340 417
#     4  11  22  42  67 102 134 181 223 282 343 410
#     4  11  22  42  68  99 138 181 232 277 354 418
#     4  11  24  43  72  99 143 177 230 289 345 411
#     4  11  24  44  67  99 138 178 237 284 347 405
#     4  11  22  36  64  97 140 175 221 280 342 414
#     4  11  23  40  65 101 136 181 220 282 346 418
#
# _framework density 21.843502999999998
#
# number of rings (size 3 to 8) (size 9 to 14) (size 15 to 20)
#    0.000    1.143    2.857    4.714    0.000    4.571 
#    0.000    0.714    3.143    0.000    0.000    0.000 
#    0.000    0.000    0.000    0.000    0.000    0.000 
#
# Total GULP energy -155984.453235 kJ/mol
# GULP energy per Si atom -5570.873330 kJ/mol
# Density = 2.179379 g / cm^3
# Si number density = 21.843503 Si / 1000 Ang^3
#
#
#
# Elastic Constant Matrix: (Units=GPa)
#
#
# Indices 1 2 3 4 5 6 
#
# 1 163.5657 63.4177 34.0902 0.0075 21.3196 0.0059
# 2 63.4177 73.2148 25.6432 -0.0039 8.1423 -0.0033
# 3 34.0902 25.6432 92.1717 0.0161 7.5719 0.0066
# 4 0.0075 -0.0039 0.0161 45.8012 0.0078 2.3549
# 5 21.3196 8.1423 7.5719 0.0078 28.0154 0.0027
# 6 0.0059 -0.0033 0.0066 2.3549 0.0027 24.6347
#
#
#
# Elastic Compliance Matrix: (Units=1/GPa)
#
#
# Indices 1 2 3 4 5 6 
#
# 1 0.009995 -0.007695 -0.001140 -0.000001 -0.005061 -0.000002
# 2 -0.007695 0.021368 -0.003139 0.000004 0.000494 0.000005
# 3 -0.001140 -0.003139 0.012271 -0.000004 -0.001537 -0.000003
# 4 -0.000001 0.000004 -0.000004 0.021941 -0.000005 -0.002097
# 5 -0.005061 0.000494 -0.001537 -0.000005 0.039818 -0.000002
# 6 -0.000002 0.000005 -0.000003 -0.002097 -0.000002 0.040794
#
#
# Mechanical properties :
#
#
# Convention : Reuss Voigt Hill
#
# Bulk Modulus (GPa) = 50.80078 63.91717 57.35898
# Shear Modulus (GPa) = 28.29706 33.41034 30.85370
#
# Velocity S-wave (km/s) = 3.60313 3.91517 3.76239
# Velocity P-wave (km/s) = 6.37317 7.05429 6.72236
#
# Compressibility (1/GPa) = 0.01968474
#
# Stress axis : x y z
#
# Youngs Moduli (GPa) = 100.05456 46.79803 81.49574
#
# Poissons Ratio (x) = 0.36011 0.09290
# Poissons Ratio (y) = 0.76992 0.25585
# Poissons Ratio (z) = 0.11405 0.14692
#
# Static dielectric constant tensor:
#      x y z
#    x 5.002990 -0.000100 -0.579590 
#    y -0.000100 1.801290 0.000010 
#    z -0.579590 0.000010 1.985130 
# 
# From -- ./inp_files/245190.got.cif
#   From: 2010.05.17/outbox.cif.g08.bks.cpg/sg15_123_cif.got.tgz:245190.got - 2010.06.03 18:47:42.
