data_PCOD9298409
_publ_section_title
;
Structure prediction by ZEFSAII (Michael W. Deem and Ramdas Pophale) SiO2 
 PCOD9298409
Probable space group: C 2/C
;
_chemical_formula_sum "Si O2"
_cell_formula_units_Z 32
_cell_length_a 5.494308
_cell_length_b 29.915458
_cell_length_c 8.879299
_cell_angle_alpha 90.000000
_cell_angle_beta 109.142588
_cell_angle_gamma 90.000000
_cell_volume 1378.744363
_symmetry_space_group_name_H-M "C 2/C"
_symmetry_group_IT_number 15
_symmetry_cell_setting 'monoclinic'
loop_
_space_group_symop_operation_xyz
x,y,z
-x,y,1/2-z
-x,-y,-z
x,-y,1/2+z
1/2+x,1/2+y,z
1/2-x,1/2+y,1/2-z
1/2-x,1/2-y,-z
1/2+x,1/2-y,1/2+z
loop_
_atom_site_type_symbol
_atom_site_label
_atom_site_fract_x
_atom_site_fract_y
_atom_site_fract_z
Si Si1 0.000000 0.610859 0.250000
Si Si2 0.345263 0.812603 0.953094
Si Si3 0.803449 0.124542 0.849124
Si Si4 0.000000 0.738999 0.750000
Si Si5 0.962889 0.048331 0.419932
O O1 0.908174 0.645580 0.360082
O O2 0.799847 0.577373 0.128042
O O3 0.232982 0.772204 0.834396
O O4 0.138816 0.833271 0.030120
O O5 0.548413 0.790663 0.110577
O O6 0.500000 0.126334 0.750000
O O7 0.000000 0.123327 0.750000
O O8 0.839109 0.080226 0.954841
O O9 0.000000 0.043639 0.250000
O O10 0.000000 0.000000 0.500000
#
# Coordination Sequence:
#
# PCOD9298409 Si02
#       5
#     4   8   8   4   8
#     4  12  26  50  81 106 160 206 261 320 402 468
#     4  11  23  47  72 110 149 206 255 324 390 458
#     4  12  26  49  78 112 157 212 261 321 395 471
#     4  10  24  44  69 110 154 194 273 320 384 464
#     4  12  28  48  77 112 150 203 261 326 389 478
#
# _framework density 23.209523999999998
#
# number of rings (size 3 to 8) (size 9 to 14) (size 15 to 20)
#    0.000    0.500    3.750    3.750    1.750    2.000 
#    9.000    0.000    0.000    0.000    0.000    0.000 
#    0.000    0.000    0.000    0.000    0.000    0.000 
#
# Total GULP energy -89369.533887 kJ/mol
# GULP energy per Si atom -5585.595868 kJ/mol
# Density = 2.315670 g / cm^3
# Si number density = 23.209524 Si / 1000 Ang^3
#
#
#
# Elastic Constant Matrix: (Units=GPa)
#
#
# Indices 1 2 3 4 5 6 
#
# 1 87.7484 52.4335 65.3447 0.0000 -9.9616 0.0000
# 2 52.4335 201.5379 90.1904 0.0000 1.3272 0.0000
# 3 65.3447 90.1904 153.0795 0.0000 -10.3325 0.0000
# 4 0.0000 0.0000 0.0000 194.9141 0.0000 -210.7377
# 5 -9.9616 1.3272 -10.3325 0.0000 50.0093 0.0000
# 6 0.0000 0.0000 0.0000 -210.7377 0.0000 373.4543
#
#
#
# Elastic Compliance Matrix: (Units=1/GPa)
#
#
# Indices 1 2 3 4 5 6 
#
# 1 0.017316 -0.001736 -0.006220 0.000000 0.002210 0.000000
# 2 -0.001736 0.006964 -0.003445 0.000000 -0.001243 0.000000
# 3 -0.006220 -0.003445 0.011298 0.000000 0.001187 0.000000
# 4 0.000000 0.000000 0.000000 0.013159 0.000000 0.007425
# 5 0.002210 -0.001243 0.001187 0.000000 0.020715 0.000000
# 6 0.000000 0.000000 0.000000 0.007425 0.000000 0.006868
#
#
# Mechanical properties :
#
#
# Convention : Reuss Voigt Hill
#
# Bulk Modulus (GPa) = 78.27954 95.36700 86.82327
# Shear Modulus (GPa) = 48.36545 139.30203 93.83374
#
# Velocity S-wave (km/s) = 4.56989 7.75562 6.36528
# Velocity P-wave (km/s) = 7.85148 11.01718 9.56619
#
# Compressibility (1/GPa) = 0.01277473
#
# Stress axis : x y z
#
# Youngs Moduli (GPa) = 57.74903 143.60266 88.51463
#
# Poissons Ratio (x) = 0.24935 0.55052
# Poissons Ratio (y) = 0.10027 0.30497
# Poissons Ratio (z) = 0.35917 0.49478
#
# Static dielectric constant tensor:
#      x y z
#    x 1.972700 0.000000 0.018640 
#    y 0.000000 1.871690 0.000000 
#    z 0.018640 0.000000 1.961830 
# 
# From -- ./inp_files/20184.got.cif
#   From: 2010.05.17/outbox.cif.g08.bks.cpg/sg15_11_cif.got.tgz:20184.got - 2010.06.03 18:47:42.
