data_PCOD9298330
_publ_section_title
;
Structure prediction by ZEFSAII (Michael W. Deem and Ramdas Pophale) SiO2 
 PCOD9298330
Probable space group: C 2/C
;
_chemical_formula_sum "Si O2"
_cell_formula_units_Z 48
_cell_length_a 13.270515
_cell_length_b 5.353231
_cell_length_c 30.547908
_cell_angle_alpha 90.000000
_cell_angle_beta 114.972610
_cell_angle_gamma 90.000000
_cell_volume 1967.241592
_symmetry_space_group_name_H-M "C 2/C"
_symmetry_group_IT_number 15
_symmetry_cell_setting 'monoclinic'
loop_
_space_group_symop_operation_xyz
x,y,z
-x,y,1/2-z
-x,-y,-z
x,-y,1/2+z
1/2+x,1/2+y,z
1/2-x,1/2+y,1/2-z
1/2-x,1/2-y,-z
1/2+x,1/2-y,1/2+z
loop_
_atom_site_type_symbol
_atom_site_label
_atom_site_fract_x
_atom_site_fract_y
_atom_site_fract_z
Si Si1 0.020540 0.695741 0.066411
Si Si2 0.336068 0.874283 0.982355
Si Si3 0.631103 0.494747 0.898350
Si Si4 0.238046 0.060734 0.219158
Si Si5 0.936099 0.293374 0.698122
Si Si6 0.959908 0.631882 0.850711
O O1 0.952281 0.900650 0.080176
O O2 0.101618 0.791355 0.043010
O O3 0.079756 0.531812 0.115352
O O4 0.929197 0.523825 0.025472
O O5 0.254209 0.041057 0.937743
O O6 0.250000 0.750000 0.000000
O O7 0.610133 0.615749 0.847698
O O8 0.586742 0.213205 0.885005
O O9 0.262094 0.300285 0.255068
O O10 0.333827 0.057592 0.200249
O O11 0.121291 0.138269 0.174822
O O12 0.000000 0.161318 0.750000
O O13 0.024130 0.471459 0.690064
#
# Coordination Sequence:
#
# PCOD9298330 Si02
#       6
#     8   8   8   8   8   8
#     4  10  24  44  67 102 142 177 236 294 353 442
#     4  11  22  45  69 101 139 184 232 293 369 431
#     4  11  24  42  71 100 143 186 238 295 364 435
#     4  12  27  46  71 105 145 193 248 308 369 437
#     4  11  24  45  69 100 140 188 240 303 359 438
#     4  11  24  44  68 104 139 186 239 301 363 436
#
# _framework density 24.399647999999999
#
# number of rings (size 3 to 8) (size 9 to 14) (size 15 to 20)
#    0.000    1.000    3.333    2.500    4.667    2.667 
#    3.000    0.000    0.000    0.000    0.000    0.000 
#    0.000    0.000    0.000    0.000    0.000    0.000 
#
# Total GULP energy -134246.030015 kJ/mol
# GULP energy per Si atom -5593.584584 kJ/mol
# Density = 2.434411 g / cm^3
# Si number density = 24.399648 Si / 1000 Ang^3
#
#
#
# Elastic Constant Matrix: (Units=GPa)
#
#
# Indices 1 2 3 4 5 6 
#
# 1 130.2257 17.9907 59.4898 0.0000 -33.5960 0.0000
# 2 17.9907 48.8378 17.3448 0.0000 -12.4678 0.0000
# 3 59.4898 17.3448 130.5242 0.0000 -19.1840 0.0000
# 4 0.0000 0.0000 0.0000 20.0305 0.0000 -2.6405
# 5 -33.5960 -12.4678 -19.1840 0.0000 38.6892 0.0000
# 6 0.0000 0.0000 0.0000 -2.6405 0.0000 16.2694
#
#
#
# Elastic Compliance Matrix: (Units=1/GPa)
#
#
# Indices 1 2 3 4 5 6 
#
# 1 0.011674 -0.000857 -0.004053 0.000000 0.007852 0.000000
# 2 -0.000857 0.022899 -0.001809 0.000000 0.005738 0.000000
# 3 -0.004053 -0.001809 0.009865 0.000000 0.000789 0.000000
# 4 0.000000 0.000000 0.000000 0.051015 0.000000 0.008280
# 5 0.007852 0.005738 0.000789 0.000000 0.034906 0.000000
# 6 0.000000 0.000000 0.000000 0.008280 0.000000 0.062809
#
#
# Mechanical properties :
#
#
# Convention : Reuss Voigt Hill
#
# Bulk Modulus (GPa) = 32.25709 55.47093 43.86401
# Shear Modulus (GPa) = 23.04786 29.31530 26.18158
#
# Velocity S-wave (km/s) = 3.07677 3.46997 3.27927
# Velocity P-wave (km/s) = 5.08635 6.23201 5.68810
#
# Compressibility (1/GPa) = 0.03100093
#
# Stress axis : x y z
#
# Youngs Moduli (GPa) = 85.65679 43.67004 101.36747
#
# Poissons Ratio (x) = 0.03741 0.41085
# Poissons Ratio (y) = 0.07338 0.18338
# Poissons Ratio (z) = 0.34717 0.07900
#
# Static dielectric constant tensor:
#      x y z
#    x 1.940440 0.000000 0.038390 
#    y 0.000000 1.955650 0.000000 
#    z 0.038390 0.000000 1.991810 
# 
# From -- ./inp_files/312263.got.cif
#   From: 2010.05.17/outbox.cif.g08.bks.cpg/sg15_157_cif.got.tgz:312263.got - 2010.06.03 18:47:42.
