data_PCOD9298126
_publ_section_title
;
Structure prediction by ZEFSAII (Michael W. Deem and Ramdas Pophale) SiO2 
 PCOD9298126
Probable space group: C 2/C
;
_chemical_formula_sum "Si O2"
_cell_formula_units_Z 32
_cell_length_a 14.691308
_cell_length_b 11.038523
_cell_length_c 7.903656
_cell_angle_alpha 90.000000
_cell_angle_beta 97.112110
_cell_angle_gamma 90.000000
_cell_volume 1271.876627
_symmetry_space_group_name_H-M "C 2/C"
_symmetry_group_IT_number 15
_symmetry_cell_setting 'monoclinic'
loop_
_space_group_symop_operation_xyz
x,y,z
-x,y,1/2-z
-x,-y,-z
x,-y,1/2+z
1/2+x,1/2+y,z
1/2-x,1/2+y,1/2-z
1/2-x,1/2-y,-z
1/2+x,1/2-y,1/2+z
loop_
_atom_site_type_symbol
_atom_site_label
_atom_site_fract_x
_atom_site_fract_y
_atom_site_fract_z
Si Si1 0.193193 0.652585 0.083743
Si Si2 0.406474 0.641787 0.626335
Si Si3 0.791768 0.994908 0.358910
Si Si4 0.994409 0.356556 0.454818
O O1 0.206633 0.540819 0.957415
O O2 0.088359 0.687114 0.065956
O O3 0.250000 0.750000 0.000000
O O4 0.251077 0.610247 0.254870
O O5 0.500000 0.618462 0.750000
O O6 0.380538 0.538460 0.482881
O O7 0.323248 0.612675 0.739466
O O8 0.418632 0.769385 0.526655
O O9 0.000000 0.341516 0.250000
O O10 0.000000 0.500000 0.500000
#
# Coordination Sequence:
#
# PCOD9298126 Si02
#       4
#     8   8   8   8
#     4  11  23  43  65  95 131 170 216 272 329 393
#     4  11  23  43  70 100 131 172 224 277 328 392
#     4  10  24  43  69  97 130 173 223 274 331 392
#     4  12  26  45  68  98 135 177 220 271 333 399
#
# _framework density 25.159675
#
# number of rings (size 3 to 8) (size 9 to 14) (size 15 to 20)
#    0.000    1.000    0.000    6.000    0.000    7.000 
#    0.000   10.000    0.000    0.000    0.000    0.000 
#    0.000    0.000    0.000    0.000    0.000    0.000 
#
# Total GULP energy -89292.054876 kJ/mol
# GULP energy per Si atom -5580.753430 kJ/mol
# Density = 2.510241 g / cm^3
# Si number density = 25.159675 Si / 1000 Ang^3
#
#
#
# Elastic Constant Matrix: (Units=GPa)
#
#
# Indices 1 2 3 4 5 6 
#
# 1 103.3894 28.0118 24.7983 0.0000 -1.5826 0.0000
# 2 28.0118 93.4465 23.0493 0.0000 -9.4390 0.0000
# 3 24.7983 23.0493 120.0055 0.0000 -4.4619 0.0000
# 4 0.0000 0.0000 0.0000 77.0306 0.0000 39.8277
# 5 -1.5826 -9.4390 -4.4619 0.0000 33.5963 0.0000
# 6 0.0000 0.0000 0.0000 39.8277 0.0000 117.7332
#
#
#
# Elastic Compliance Matrix: (Units=1/GPa)
#
#
# Indices 1 2 3 4 5 6 
#
# 1 0.010856 -0.002886 -0.001709 0.000000 -0.000526 0.000000
# 2 -0.002886 0.012286 -0.001648 0.000000 0.003097 0.000000
# 3 -0.001709 -0.001648 0.009027 0.000000 0.000655 0.000000
# 4 0.000000 0.000000 0.000000 0.015734 0.000000 -0.005323
# 5 -0.000526 0.003097 0.000655 0.000000 0.030697 0.000000
# 6 0.000000 0.000000 0.000000 -0.005323 0.000000 0.010294
#
#
# Mechanical properties :
#
#
# Convention : Reuss Voigt Hill
#
# Bulk Modulus (GPa) = 50.80484 52.06224 51.43354
# Shear Modulus (GPa) = 46.32180 61.73748 54.02964
#
# Velocity S-wave (km/s) = 4.29547 4.95899 4.63911
# Velocity P-wave (km/s) = 6.69614 7.31617 7.01301
#
# Compressibility (1/GPa) = 0.01968316
#
# Stress axis : x y z
#
# Youngs Moduli (GPa) = 92.11659 81.39507 110.77943
#
# Poissons Ratio (x) = 0.23490 0.18927
# Poissons Ratio (y) = 0.26584 0.18259
# Poissons Ratio (z) = 0.15739 0.13416
#
# Static dielectric constant tensor:
#      x y z
#    x 1.952980 0.000000 -0.098650 
#    y 0.000000 2.188250 0.000000 
#    z -0.098650 0.000000 2.076600 
# 
# From -- ./inp_files/36761.got.cif
#   From: 2010.05.17/outbox.cif.g08.bks.cpg/sg15_19_cif.got.tgz:36761.got - 2010.06.03 18:47:42.
