data_PCOD9298434
_publ_section_title
;
Structure prediction by ZEFSAII (Michael W. Deem and Ramdas Pophale) SiO2 
 PCOD9298434
Probable space group: C 2/C
;
_chemical_formula_sum "Si O2"
_cell_formula_units_Z 44
_cell_length_a 14.320069
_cell_length_b 10.089056
_cell_length_c 13.639779
_cell_angle_alpha 90.000000
_cell_angle_beta 93.232050
_cell_angle_gamma 90.000000
_cell_volume 1967.485909
_symmetry_space_group_name_H-M "C 2/C"
_symmetry_group_IT_number 15
_symmetry_cell_setting 'monoclinic'
loop_
_space_group_symop_operation_xyz
x,y,z
-x,y,1/2-z
-x,-y,-z
x,-y,1/2+z
1/2+x,1/2+y,z
1/2-x,1/2+y,1/2-z
1/2-x,1/2-y,-z
1/2+x,1/2-y,1/2+z
loop_
_atom_site_type_symbol
_atom_site_label
_atom_site_fract_x
_atom_site_fract_y
_atom_site_fract_z
Si Si1 0.000000 0.426243 0.750000
Si Si2 0.430910 0.733545 0.339442
Si Si3 0.227127 0.600601 0.039093
Si Si4 0.531570 0.806265 0.542996
Si Si5 0.798094 0.555189 0.775201
Si Si6 0.858761 0.957903 0.393286
O O1 0.006713 0.349305 0.853753
O O2 0.900190 0.501654 0.747854
O O3 0.500000 0.750421 0.250000
O O4 0.471174 0.794767 0.442079
O O5 0.330473 0.803366 0.319571
O O6 0.418069 0.578519 0.357080
O O7 0.115958 0.593447 0.019833
O O8 0.240358 0.556119 0.151844
O O9 0.250000 0.750000 0.000000
O O10 0.293424 0.504855 0.981553
O O11 0.576752 0.662597 0.568506
O O12 0.718655 0.581602 0.691372
#
# Coordination Sequence:
#
# PCOD9298434 Si02
#       6
#     4   8   8   8   8   8
#     4  10  24  44  70 102 136 178 236 280 340 400
#     4  12  27  44  69 102 143 182 229 283 347 407
#     4   9  22  43  69  95 133 176 227 279 339 397
#     4  10  24  46  71  97 139 180 226 286 343 411
#     4  11  25  43  70 103 135 183 229 283 336 418
#     4  11  26  42  69  99 138 177 229 280 343 406
#
# _framework density 22.363564
#
# number of rings (size 3 to 8) (size 9 to 14) (size 15 to 20)
#    0.000    1.455    0.909    1.636   16.545    3.636 
#    0.000    0.000    0.000    0.000    0.000    0.000 
#    0.000    0.000    0.000    0.000    0.000    0.000 
#
# Total GULP energy -122750.351477 kJ/mol
# GULP energy per Si atom -5579.561431 kJ/mol
# Density = 2.231266 g / cm^3
# Si number density = 22.363564 Si / 1000 Ang^3
#
#
#
# Elastic Constant Matrix: (Units=GPa)
#
#
# Indices 1 2 3 4 5 6 
#
# 1 32.4123 7.8994 37.0500 0.0000 -10.8147 0.0000
# 2 7.8994 62.6843 18.8849 0.0000 -20.3951 0.0000
# 3 37.0500 18.8849 113.7624 0.0000 -12.4455 0.0000
# 4 0.0000 0.0000 0.0000 112.5539 0.0000 -21.8609
# 5 -10.8147 -20.3951 -12.4455 0.0000 41.9046 0.0000
# 6 0.0000 0.0000 0.0000 -21.8609 0.0000 35.2794
#
#
#
# Elastic Compliance Matrix: (Units=1/GPa)
#
#
# Indices 1 2 3 4 5 6 
#
# 1 0.052124 0.001330 -0.016180 0.000000 0.009294 0.000000
# 2 0.001330 0.019541 -0.002686 0.000000 0.009056 0.000000
# 3 -0.016180 -0.002686 0.014373 0.000000 -0.001214 0.000000
# 4 0.000000 0.000000 0.000000 0.010100 0.000000 0.006259
# 5 0.009294 0.009056 -0.001214 0.000000 0.030309 0.000000
# 6 0.000000 0.000000 0.000000 0.006259 0.000000 0.032223
#
#
# Mechanical properties :
#
#
# Convention : Reuss Voigt Hill
#
# Bulk Modulus (GPa) = 19.62100 37.39196 28.50648
# Shear Modulus (GPa) = 23.72683 47.61591 35.67137
#
# Velocity S-wave (km/s) = 3.26077 4.61930 3.99816
# Velocity P-wave (km/s) = 4.79265 6.72361 5.83851
#
# Compressibility (1/GPa) = 0.05096579
#
# Stress axis : x y z
#
# Youngs Moduli (GPa) = 19.18495 51.17388 69.57625
#
# Poissons Ratio (x) = -0.06805 1.12573
# Poissons Ratio (y) = -0.02551 0.18690
# Poissons Ratio (z) = 0.31041 0.13747
#
# Static dielectric constant tensor:
#      x y z
#    x 1.806120 0.000000 -0.037490 
#    y 0.000000 1.889840 0.000000 
#    z -0.037490 0.000000 1.835050 
# 
# From -- ./inp_files/95093.got.cif
#   From: 2010.05.17/outbox.cif.g08.bks.cpg/sg15_48_cif.got.tgz:95093.got - 2010.06.03 18:47:42.
