data_PCOD9298253
_publ_section_title
;
Structure prediction by ZEFSAII (Michael W. Deem and Ramdas Pophale) SiO2 
 PCOD9298253
Probable space group: C 2/C
;
_chemical_formula_sum "Si O2"
_cell_formula_units_Z 60
_cell_length_a 9.507141
_cell_length_b 11.385756
_cell_length_c 33.075979
_cell_angle_alpha 90.000000
_cell_angle_beta 40.261346
_cell_angle_gamma 90.000000
_cell_volume 2313.885916
_symmetry_space_group_name_H-M "C 2/C"
_symmetry_group_IT_number 15
_symmetry_cell_setting 'monoclinic'
loop_
_space_group_symop_operation_xyz
x,y,z
-x,y,1/2-z
-x,-y,-z
x,-y,1/2+z
1/2+x,1/2+y,z
1/2-x,1/2+y,1/2-z
1/2-x,1/2-y,-z
1/2+x,1/2-y,1/2+z
loop_
_atom_site_type_symbol
_atom_site_label
_atom_site_fract_x
_atom_site_fract_y
_atom_site_fract_z
Si Si1 0.467232 0.300201 0.330984
Si Si2 0.333375 0.530206 0.245178
Si Si3 0.961478 0.518318 0.109087
Si Si4 0.965064 0.265356 0.206128
Si Si5 0.500000 0.972267 0.250000
Si Si6 0.461801 0.748931 0.112166
Si Si7 0.139173 0.613247 0.456832
Si Si8 0.230166 0.777590 0.957327
O O1 0.507048 0.419289 0.297562
O O2 0.713481 0.259454 0.276057
O O3 0.283012 0.223045 0.349286
O O4 0.381449 0.304127 0.395487
O O5 0.171265 0.517983 0.318934
O O6 0.507240 0.633794 0.208670
O O7 0.183317 0.535409 0.236775
O O8 0.001105 0.382262 0.086875
O O9 0.184592 0.591206 0.069109
O O10 0.869754 0.590592 0.089865
O O11 0.088370 0.374961 0.198272
O O12 0.967960 0.273951 0.158225
O O13 0.873040 0.861240 0.926155
O O14 0.013510 0.733469 0.497256
O O15 0.000000 0.500000 0.500000
O O16 0.250000 0.750000 0.000000
#
# Coordination Sequence:
#
# PCOD9298253 Si02
#       8
#     8   8   8   8   4   8   8   8
#     4  11  24  47  74 114 159 198 261 328 401 488
#     4  11  25  43  76 112 157 202 251 326 409 488
#     4  11  24  47  76 109 147 199 257 331 397 475
#     4  11  25  43  74 113 155 203 249 327 403 492
#     4  10  24  44  64 110 156 198 252 298 392 490
#     4  12  27  46  76 113 151 207 265 328 404 483
#     4  11  28  51  76 107 150 210 267 325 395 472
#     4  10  24  48  77 109 151 206 270 324 393 473
#
# _framework density 25.930405
#
# number of rings (size 3 to 8) (size 9 to 14) (size 15 to 20)
#    0.000    1.067    4.000    1.200    7.467    3.733 
#    0.000    2.667    0.000    0.000    0.000    0.000 
#    0.000    0.000    0.000    0.000    0.000    0.000 
#
# Total GULP energy -167202.858392 kJ/mol
# GULP energy per Si atom -5573.428613 kJ/mol
# Density = 2.587139 g / cm^3
# Si number density = 25.930405 Si / 1000 Ang^3
#
#
#
# Elastic Constant Matrix: (Units=GPa)
#
#
# Indices 1 2 3 4 5 6 
#
# 1 116.9361 22.3362 15.3045 0.0001 5.0527 0.0001
# 2 22.3362 92.9951 19.3597 0.0001 -0.0084 -0.0002
# 3 15.3045 19.3597 129.5917 0.0007 14.9070 -0.0009
# 4 0.0001 0.0001 0.0007 38.1303 -0.0006 6.7234
# 5 5.0527 -0.0084 14.9070 -0.0006 36.3609 0.0005
# 6 0.0001 -0.0002 -0.0009 6.7234 0.0005 24.8682
#
#
#
# Elastic Compliance Matrix: (Units=1/GPa)
#
#
# Indices 1 2 3 4 5 6 
#
# 1 0.009070 -0.002043 -0.000652 0.000000 -0.000994 0.000000
# 2 -0.002043 0.011576 -0.001596 0.000000 0.000941 0.000000
# 3 -0.000652 -0.001596 0.008419 0.000000 -0.003361 0.000000
# 4 0.000000 0.000000 0.000000 0.027539 0.000001 -0.007445
# 5 -0.000994 0.000941 -0.003361 0.000001 0.029018 -0.000001
# 6 0.000000 0.000000 0.000000 -0.007445 -0.000001 0.042225
#
#
# Mechanical properties :
#
#
# Convention : Reuss Voigt Hill
#
# Bulk Modulus (GPa) = 48.82064 50.39155 49.60609
# Shear Modulus (GPa) = 34.90234 38.70670 36.80452
#
# Velocity S-wave (km/s) = 3.67277 3.86776 3.77152
# Velocity P-wave (km/s) = 6.07076 6.27867 6.17559
#
# Compressibility (1/GPa) = 0.02048314
#
# Stress axis : x y z
#
# Youngs Moduli (GPa) = 110.25195 86.38294 118.78410
#
# Poissons Ratio (x) = 0.17648 0.07741
# Poissons Ratio (y) = 0.22524 0.18962
# Poissons Ratio (z) = 0.07185 0.13790
#
# Static dielectric constant tensor:
#      x y z
#    x 2.299270 -0.000010 -0.063560 
#    y -0.000010 2.571010 0.000000 
#    z -0.063560 0.000000 2.133590 
# 
# From -- ./inp_files/310958.got.cif
#   From: 2010.05.17/outbox.cif.g08.bks.cpg/sg15_156_cif.got.tgz:310958.got - 2010.06.03 18:47:42.
