data_PCOD9298121
_publ_section_title
;
Structure prediction by ZEFSAII (Michael W. Deem and Ramdas Pophale) SiO2 
 PCOD9298121
Probable space group: C 2/C
;
_chemical_formula_sum "Si O2"
_cell_formula_units_Z 60
_cell_length_a 5.615345
_cell_length_b 21.204798
_cell_length_c 25.901457
_cell_angle_alpha 90.000000
_cell_angle_beta 61.684571
_cell_angle_gamma 90.000000
_cell_volume 2715.125927
_symmetry_space_group_name_H-M "C 2/C"
_symmetry_group_IT_number 15
_symmetry_cell_setting 'monoclinic'
loop_
_space_group_symop_operation_xyz
x,y,z
-x,y,1/2-z
-x,-y,-z
x,-y,1/2+z
1/2+x,1/2+y,z
1/2-x,1/2+y,1/2-z
1/2-x,1/2-y,-z
1/2+x,1/2-y,1/2+z
loop_
_atom_site_type_symbol
_atom_site_label
_atom_site_fract_x
_atom_site_fract_y
_atom_site_fract_z
Si Si1 0.757390 0.373243 0.685367
Si Si2 0.355007 0.907289 0.081037
Si Si3 0.000000 0.442574 0.750000
Si Si4 0.195807 0.170533 0.686730
Si Si5 0.004166 0.972971 0.638849
Si Si6 0.248754 0.267756 0.153282
Si Si7 0.937230 0.933015 0.980007
Si Si8 0.404150 0.313210 0.469339
O O1 0.500000 0.367513 0.750000
O O2 0.976852 0.396232 0.703496
O O3 0.710059 0.429286 0.649847
O O4 0.790170 0.306924 0.654547
O O5 0.366395 0.881908 0.138246
O O6 0.264730 0.848388 0.056881
O O7 0.132523 0.961671 0.107382
O O8 0.618280 0.930278 0.024464
O O9 0.743247 0.482649 0.795492
O O10 0.428094 0.214405 0.689768
O O11 0.000000 0.141960 0.750000
O O12 0.971359 0.203256 0.671069
O O13 0.961003 0.937304 0.589055
O O14 0.326962 0.290837 0.087820
O O15 0.047613 0.867908 0.993599
O O16 0.000000 0.000000 0.000000
O O17 0.250000 0.250000 0.500000
#
# Coordination Sequence:
#
# PCOD9298121 Si02
#       8
#     8   8   4   8   8   8   8   8
#     4  10  24  43  69 106 144 194 247 306 379 456
#     4  11  26  48  67 107 144 193 256 308 386 458
#     4  10  26  46  68 114 146 190 258 306 388 456
#     4  11  24  45  72 105 146 201 246 320 383 459
#     4  11  26  44  75 104 146 199 250 324 374 468
#     4  11  25  45  72 106 153 191 261 308 386 458
#     4  12  26  47  78 103 150 201 254 310 392 466
#     4  11  27  46  71 111 147 197 252 321 382 461
#
# _framework density 22.098424000000001
#
# number of rings (size 3 to 8) (size 9 to 14) (size 15 to 20)
#    0.000    1.067    2.667    1.600   10.267    3.200 
#    4.800    0.000    0.000    0.000    0.000    0.000 
#    0.000    0.000    0.000    0.000    0.000    0.000 
#
# Total GULP energy -167250.396467 kJ/mol
# GULP energy per Si atom -5575.013216 kJ/mol
# Density = 2.204813 g / cm^3
# Si number density = 22.098424 Si / 1000 Ang^3
#
#
#
# Elastic Constant Matrix: (Units=GPa)
#
#
# Indices 1 2 3 4 5 6 
#
# 1 59.1992 11.3019 37.3077 0.0000 -1.5909 0.0000
# 2 11.3019 98.3745 54.8172 0.0000 1.7285 0.0000
# 3 37.3077 54.8172 134.1991 0.0000 -7.5497 0.0000
# 4 0.0000 0.0000 0.0000 29.4084 0.0000 5.9733
# 5 -1.5909 1.7285 -7.5497 0.0000 43.1569 0.0000
# 6 0.0000 0.0000 0.0000 5.9733 0.0000 15.1054
#
#
#
# Elastic Compliance Matrix: (Units=1/GPa)
#
#
# Indices 1 2 3 4 5 6 
#
# 1 0.020572 0.001089 -0.006185 0.000000 -0.000367 0.000000
# 2 0.001089 0.013313 -0.005826 0.000000 -0.001512 0.000000
# 3 -0.006185 -0.005826 0.011666 0.000000 0.002046 0.000000
# 4 0.000000 0.000000 0.000000 0.036974 0.000000 -0.014621
# 5 -0.000367 -0.001512 0.002046 0.000000 0.023576 0.000000
# 6 0.000000 0.000000 0.000000 -0.014621 0.000000 0.071983
#
#
# Mechanical properties :
#
#
# Convention : Reuss Voigt Hill
#
# Bulk Modulus (GPa) = 42.17959 55.40294 48.79127
# Shear Modulus (GPa) = 24.05821 30.09053 27.07437
#
# Velocity S-wave (km/s) = 3.30310 3.69407 3.50404
# Velocity P-wave (km/s) = 5.80309 6.58182 6.20468
#
# Compressibility (1/GPa) = 0.02370815
#
# Stress axis : x y z
#
# Youngs Moduli (GPa) = 48.60998 75.11412 85.72020
#
# Poissons Ratio (x) = -0.08182 0.53015
# Poissons Ratio (y) = -0.05295 0.49940
# Poissons Ratio (z) = 0.30064 0.43761
#
# Static dielectric constant tensor:
#      x y z
#    x 1.894560 0.000000 0.075810 
#    y 0.000000 1.640310 0.000000 
#    z 0.075810 0.000000 1.702040 
# 
# From -- ./inp_files/286486.got.cif
#   From: 2010.05.17/outbox.cif.g08.bks.cpg/sg15_144_cif.got.tgz:286486.got - 2010.06.03 18:47:42.
