data_PCOD9298460
_publ_section_title
;
Structure prediction by ZEFSAII (Michael W. Deem and Ramdas Pophale) SiO2 
 PCOD9298460
Probable space group: C 2/C
;
_chemical_formula_sum "Si O2"
_cell_formula_units_Z 44
_cell_length_a 4.998588
_cell_length_b 17.792470
_cell_length_c 23.542546
_cell_angle_alpha 90.000000
_cell_angle_beta 69.545178
_cell_angle_gamma 90.000000
_cell_volume 1961.790009
_symmetry_space_group_name_H-M "C 2/C"
_symmetry_group_IT_number 15
_symmetry_cell_setting 'monoclinic'
loop_
_space_group_symop_operation_xyz
x,y,z
-x,y,1/2-z
-x,-y,-z
x,-y,1/2+z
1/2+x,1/2+y,z
1/2-x,1/2+y,1/2-z
1/2-x,1/2-y,-z
1/2+x,1/2-y,1/2+z
loop_
_atom_site_type_symbol
_atom_site_label
_atom_site_fract_x
_atom_site_fract_y
_atom_site_fract_z
Si Si1 0.355464 0.060171 0.968094
Si Si2 0.200339 0.838627 0.581915
Si Si3 0.108026 0.250845 0.624712
Si Si4 0.522980 0.420993 0.108179
Si Si5 0.443185 0.550410 0.189835
Si Si6 0.500000 0.819880 0.750000
O O1 0.634697 0.073473 0.908704
O O2 0.094272 0.049232 0.943871
O O3 0.252937 0.128299 0.015781
O O4 0.500000 0.000000 0.000000
O O5 0.485660 0.801414 0.583497
O O6 0.940293 0.777877 0.604317
O O7 0.154668 0.909491 0.628631
O O8 0.998652 0.167852 0.617707
O O9 0.961298 0.272022 0.695982
O O10 0.358152 0.474308 0.164399
O O11 0.500000 0.526632 0.250000
O O12 0.243381 0.621644 0.215389
#
# Coordination Sequence:
#
# PCOD9298460 Si02
#       6
#     8   8   8   8   8   4
#     4  12  26  46  71 105 141 184 231 292 340 426
#     4  11  24  45  74  93 141 184 233 274 355 416
#     4  11  25  45  67 107 135 183 230 294 347 414
#     4  12  28  43  73 106 142 176 237 291 356 397
#     4  11  24  44  70 101 131 189 231 283 340 427
#     4  10  24  44  70  94 142 184 232 280 350 426
#
# _framework density 22.428498999999999
#
# number of rings (size 3 to 8) (size 9 to 14) (size 15 to 20)
#    0.000    0.727    3.636    2.727    8.909    4.364 
#    0.000    0.000    0.000    0.000    0.000    0.000 
#    0.000    0.000    0.000    0.000    0.000    0.000 
#
# Total GULP energy -122509.390676 kJ/mol
# GULP energy per Si atom -5568.608667 kJ/mol
# Density = 2.237745 g / cm^3
# Si number density = 22.428499 Si / 1000 Ang^3
#
#
#
# Elastic Constant Matrix: (Units=GPa)
#
#
# Indices 1 2 3 4 5 6 
#
# 1 87.5260 17.2518 22.1654 0.0000 11.1750 0.0000
# 2 17.2518 74.5581 16.7892 0.0000 20.3950 0.0000
# 3 22.1654 16.7892 66.1379 0.0000 25.2042 0.0000
# 4 0.0000 0.0000 0.0000 11.0367 0.0000 17.0979
# 5 11.1750 20.3950 25.2042 0.0000 34.8959 0.0000
# 6 0.0000 0.0000 0.0000 17.0979 0.0000 28.9853
#
#
#
# Elastic Compliance Matrix: (Units=1/GPa)
#
#
# Indices 1 2 3 4 5 6 
#
# 1 0.012793 -0.002069 -0.003673 0.000000 -0.000235 0.000000
# 2 -0.002069 0.016322 -0.000093 0.000000 -0.008810 0.000000
# 3 -0.003673 -0.000093 0.021946 0.000000 -0.014621 0.000000
# 4 0.000000 0.000000 0.000000 1.051579 0.000000 -0.620309
# 5 -0.000235 -0.008810 -0.014621 0.000000 0.044441 0.000000
# 6 0.000000 0.000000 0.000000 -0.620309 0.000000 0.400410
#
#
# Mechanical properties :
#
#
# Convention : Reuss Voigt Hill
#
# Bulk Modulus (GPa) = 25.38556 37.84831 31.61694
# Shear Modulus (GPa) = 3.18008 26.45129 14.81568
#
# Velocity S-wave (km/s) = 1.19204 3.43791 2.57295
# Velocity P-wave (km/s) = 3.63835 5.71583 4.79105
#
# Compressibility (1/GPa) = 0.03939247
#
# Stress axis : x y z
#
# Youngs Moduli (GPa) = 78.16745 61.26771 45.56637
#
# Poissons Ratio (x) = 0.12675 0.16735
# Poissons Ratio (y) = 0.16172 0.00422
# Poissons Ratio (z) = 0.28709 0.00568
#
# Static dielectric constant tensor:
#      x y z
#    x 1.860730 0.000000 -0.005540 
#    y 0.000000 1.874990 0.000000 
#    z -0.005540 0.000000 1.987830 
# 
# From -- ./inp_files/226914.got.cif
#   From: 2010.05.17/outbox.cif.g08.bks.cpg/sg15_114_cif.got.tgz:226914.got - 2010.06.03 18:47:42.
