data_PCOD9298940
_publ_section_title
;
Structure prediction by ZEFSAII (Michael W. Deem and Ramdas Pophale) SiO2 
 PCOD9298940
Probable space group: C 2/C
;
_chemical_formula_sum "Si O2"
_cell_formula_units_Z 52
_cell_length_a 17.191581
_cell_length_b 7.389744
_cell_length_c 22.418636
_cell_angle_alpha 90.000000
_cell_angle_beta 59.416321
_cell_angle_gamma 90.000000
_cell_volume 2451.887527
_symmetry_space_group_name_H-M "C 2/C"
_symmetry_group_IT_number 15
_symmetry_cell_setting 'monoclinic'
loop_
_space_group_symop_operation_xyz
x,y,z
-x,y,1/2-z
-x,-y,-z
x,-y,1/2+z
1/2+x,1/2+y,z
1/2-x,1/2+y,1/2-z
1/2-x,1/2-y,-z
1/2+x,1/2-y,1/2+z
loop_
_atom_site_type_symbol
_atom_site_label
_atom_site_fract_x
_atom_site_fract_y
_atom_site_fract_z
Si Si1 0.433773 0.473963 0.468551
Si Si2 0.149179 0.304880 0.060037
Si Si3 0.306597 0.294549 0.291009
Si Si4 0.518401 0.899632 0.608267
Si Si5 0.500000 0.202322 0.250000
Si Si6 0.764951 0.961421 0.106174
Si Si7 0.825788 0.629354 0.153018
O O1 0.500000 0.500000 0.500000
O O2 0.419390 0.645568 0.430304
O O3 0.467729 0.305974 0.417096
O O4 0.332041 0.443707 0.532959
O O5 0.101952 0.483030 0.052172
O O6 0.173232 0.371173 0.117119
O O7 0.250000 0.250000 0.000000
O O8 0.407017 0.312693 0.278847
O O9 0.248936 0.474611 0.323678
O O10 0.313367 0.242306 0.219018
O O11 0.261199 0.117232 0.337909
O O12 0.507894 0.905470 0.684298
O O13 0.423792 0.962193 0.617331
O O14 0.820144 0.786464 0.106522
#
# Coordination Sequence:
#
# PCOD9298940 Si02
#       7
#     8   8   8   8   4   8   8
#     4  11  25  44  69 101 139 177 234 278 337 417
#     4  10  25  44  68  99 135 177 229 277 348 403
#     4  11  23  44  67  99 134 182 224 288 338 408
#     4  11  24  46  70 101 137 182 227 288 343 405
#     4  10  24  46  70  98 136 176 234 280 340 412
#     4  11  23  44  64 101 140 175 228 285 338 410
#     4  11  24  40  70  98 139 178 232 279 348 403
#
# _framework density 21.208151000000001
#
# number of rings (size 3 to 8) (size 9 to 14) (size 15 to 20)
#    0.000    1.231    4.615    0.000    4.308    5.538 
#    0.000    1.538    0.000    0.000    0.000    0.000 
#    0.000    0.000    0.000    0.000    0.000    0.000 
#
# Total GULP energy -144964.718108 kJ/mol
# GULP energy per Si atom -5575.566081 kJ/mol
# Density = 2.115988 g / cm^3
# Si number density = 21.208151 Si / 1000 Ang^3
#
#
#
# Elastic Constant Matrix: (Units=GPa)
#
#
# Indices 1 2 3 4 5 6 
#
# 1 129.3655 39.1251 9.6642 0.0000 -30.5278 0.0000
# 2 39.1251 78.0169 2.6788 -0.0001 -21.1862 0.0000
# 3 9.6642 2.6788 35.5145 0.0000 -10.4275 0.0001
# 4 0.0000 -0.0001 0.0000 23.4097 0.0000 -12.1183
# 5 -30.5278 -21.1862 -10.4275 0.0000 22.3173 0.0000
# 6 0.0000 0.0000 0.0001 -12.1183 0.0000 40.8927
#
#
#
# Elastic Compliance Matrix: (Units=1/GPa)
#
#
# Indices 1 2 3 4 5 6 
#
# 1 0.011702 -0.001887 0.001312 0.000000 0.014829 0.000000
# 2 -0.001887 0.018097 0.003981 0.000000 0.016459 0.000000
# 3 0.001312 0.003981 0.033769 0.000000 0.021352 0.000000
# 4 0.000000 0.000000 0.000000 0.050458 0.000000 0.014953
# 5 0.014829 0.016459 0.021352 0.000000 0.090695 0.000000
# 6 0.000000 0.000000 0.000000 0.014953 0.000000 0.028885
#
#
# Mechanical properties :
#
#
# Convention : Reuss Voigt Hill
#
# Bulk Modulus (GPa) = 14.20838 38.42590 26.31714
# Shear Modulus (GPa) = 19.97972 30.08586 25.03279
#
# Velocity S-wave (km/s) = 3.07266 3.77052 3.43933
# Velocity P-wave (km/s) = 4.39344 6.09209 5.31111
#
# Compressibility (1/GPa) = 0.07038099
#
# Stress axis : x y z
#
# Youngs Moduli (GPa) = 85.45540 55.25862 29.61253
#
# Poissons Ratio (x) = 0.10425 -0.03885
# Poissons Ratio (y) = 0.16121 -0.11789
# Poissons Ratio (z) = -0.11212 -0.21998
#
# Static dielectric constant tensor:
#      x y z
#    x 1.840350 0.000000 0.041730 
#    y 0.000000 1.723020 0.000000 
#    z 0.041730 0.000000 1.822390 
# 
# From -- ./inp_files/297662.got.cif
#   From: 2010.05.17/outbox.cif.g08.bks.cpg/sg15_149_cif.got.tgz:297662.got - 2010.06.03 18:47:42.
