data_PCOD9298333
_publ_section_title
;
Structure prediction by ZEFSAII (Michael W. Deem and Ramdas Pophale) SiO2 
 PCOD9298333
Probable space group: C 2/C
;
_chemical_formula_sum "Si O2"
_cell_formula_units_Z 48
_cell_length_a 7.519608
_cell_length_b 12.248735
_cell_length_c 25.349196
_cell_angle_alpha 90.000000
_cell_angle_beta 121.320477
_cell_angle_gamma 90.000000
_cell_volume 1994.561183
_symmetry_space_group_name_H-M "C 2/C"
_symmetry_group_IT_number 15
_symmetry_cell_setting 'monoclinic'
loop_
_space_group_symop_operation_xyz
x,y,z
-x,y,1/2-z
-x,-y,-z
x,-y,1/2+z
1/2+x,1/2+y,z
1/2-x,1/2+y,1/2-z
1/2-x,1/2-y,-z
1/2+x,1/2-y,1/2+z
loop_
_atom_site_type_symbol
_atom_site_label
_atom_site_fract_x
_atom_site_fract_y
_atom_site_fract_z
Si Si1 0.501482 0.682325 0.854727
Si Si2 0.261262 0.642907 0.232609
Si Si3 0.904299 0.940586 0.862557
Si Si4 0.948411 0.489343 0.610324
Si Si5 0.987846 0.727283 0.919933
Si Si6 0.982027 0.298937 0.538834
O O1 0.346468 0.738447 0.789381
O O2 0.508537 0.552250 0.859190
O O3 0.733395 0.727012 0.881306
O O4 0.421664 0.728643 0.898715
O O5 0.500000 0.647643 0.250000
O O6 0.264148 0.600504 0.292567
O O7 0.129284 0.560077 0.175636
O O8 0.766704 0.965670 0.892685
O O9 0.050449 0.839434 0.900776
O O10 0.965146 0.421782 0.558352
O O11 0.960029 0.616858 0.602014
O O12 0.057533 0.717465 0.991285
O O13 0.750000 0.250000 0.500000
#
# Coordination Sequence:
#
# PCOD9298333 Si02
#       6
#     8   8   8   8   8   8
#     4  10  24  44  67  95 137 173 226 274 331 402
#     4  11  25  44  67  94 134 178 223 280 340 398
#     4  12  25  42  67 101 131 172 227 275 334 399
#     4  11  23  43  70  98 134 178 224 275 339 391
#     4  11  23  44  70  97 137 178 219 271 342 389
#     4   9  18  44  68  96 137 179 216 273 329 398
#
# _framework density 24.065442000000001
#
# number of rings (size 3 to 8) (size 9 to 14) (size 15 to 20)
#    0.000    1.333    5.000    2.000    4.667    0.667 
#    0.000    0.833    0.000    0.000    0.000    0.000 
#    0.000    0.000    0.000    0.000    0.000    0.000 
#
# Total GULP energy -134381.100024 kJ/mol
# GULP energy per Si atom -5599.212501 kJ/mol
# Density = 2.401067 g / cm^3
# Si number density = 24.065442 Si / 1000 Ang^3
#
#
#
# Elastic Constant Matrix: (Units=GPa)
#
#
# Indices 1 2 3 4 5 6 
#
# 1 69.8634 10.3690 -13.6700 0.0000 -6.9483 0.0000
# 2 10.3690 178.6759 14.8326 0.0000 -20.5450 0.0000
# 3 -13.6700 14.8326 62.0404 0.0000 -17.8527 0.0000
# 4 0.0000 0.0000 0.0000 17.6912 0.0000 -12.2181
# 5 -6.9483 -20.5450 -17.8527 0.0000 29.6146 0.0000
# 6 0.0000 0.0000 0.0000 -12.2181 0.0000 23.7613
#
#
#
# Elastic Compliance Matrix: (Units=1/GPa)
#
#
# Indices 1 2 3 4 5 6 
#
# 1 0.016191 -0.000631 0.005669 0.000000 0.006779 0.000000
# 2 -0.000631 0.006111 -0.000511 0.000000 0.003783 0.000000
# 3 0.005669 -0.000511 0.021500 0.000000 0.013936 0.000000
# 4 0.000000 0.000000 0.000000 0.087653 0.000000 0.045071
# 5 0.006779 0.003783 0.013936 0.000000 0.046383 0.000000
# 6 0.000000 0.000000 0.000000 0.045071 0.000000 0.065261
#
#
# Mechanical properties :
#
#
# Convention : Reuss Voigt Hill
#
# Bulk Modulus (GPa) = 18.91969 37.07146 27.99558
# Shear Modulus (GPa) = 19.86778 34.14996 27.00887
#
# Velocity S-wave (km/s) = 2.87640 3.77111 3.35372
# Velocity P-wave (km/s) = 4.34861 5.86511 5.16284
#
# Compressibility (1/GPa) = 0.05285498
#
# Stress axis : x y z
#
# Youngs Moduli (GPa) = 61.76417 163.64540 46.51136
#
# Poissons Ratio (x) = 0.10322 -0.26366
# Poissons Ratio (y) = 0.03896 0.02378
# Poissons Ratio (z) = -0.35013 0.08368
#
# Static dielectric constant tensor:
#      x y z
#    x 1.987270 0.000000 -0.006590 
#    y 0.000000 1.893660 0.000000 
#    z -0.006590 0.000000 1.915150 
# 
# From -- ./inp_files/287769.got.cif
#   From: 2010.05.17/outbox.cif.g08.bks.cpg/sg15_144_cif.got.tgz:287769.got - 2010.06.03 18:47:42.
