data_PCOD9298097
_publ_section_title
;
Structure prediction by ZEFSAII (Michael W. Deem and Ramdas Pophale) SiO2 
 PCOD9298097
Probable space group: C 2/C
;
_chemical_formula_sum "Si O2"
_cell_formula_units_Z 36
_cell_length_a 5.004382
_cell_length_b 28.566994
_cell_length_c 10.659726
_cell_angle_alpha 90.000000
_cell_angle_beta 106.092671
_cell_angle_gamma 90.000000
_cell_volume 1464.200804
_symmetry_space_group_name_H-M "C 2/C"
_symmetry_group_IT_number 15
_symmetry_cell_setting 'monoclinic'
loop_
_space_group_symop_operation_xyz
x,y,z
-x,y,1/2-z
-x,-y,-z
x,-y,1/2+z
1/2+x,1/2+y,z
1/2-x,1/2+y,1/2-z
1/2-x,1/2-y,-z
1/2+x,1/2-y,1/2+z
loop_
_atom_site_type_symbol
_atom_site_label
_atom_site_fract_x
_atom_site_fract_y
_atom_site_fract_z
Si Si1 0.500000 0.361494 0.750000
Si Si2 0.280047 0.694694 0.993910
Si Si3 0.267396 0.354218 0.115627
Si Si4 0.276232 0.469404 0.334752
Si Si5 0.209927 0.929630 0.570774
O O1 0.684593 0.329073 0.864658
O O2 0.674936 0.396501 0.685173
O O3 0.250000 0.750000 0.000000
O O4 0.553600 0.678838 0.954380
O O5 0.010007 0.673860 0.889780
O O6 0.500000 0.367271 0.250000
O O7 0.161977 0.398921 0.022850
O O8 0.500000 0.476342 0.250000
O O9 0.415259 0.442475 0.467691
O O10 0.179967 0.519716 0.377473
O O11 0.000000 0.444770 0.250000
#
# Coordination Sequence:
#
# PCOD9298097 Si02
#       5
#     4   8   8   8   8
#     4  10  24  44  72 100 142 180 232 296 348 434
#     4  11  26  46  71 104 134 182 226 294 361 420
#     4  11  25  44  72  99 139 180 232 291 345 431
#     4  11  25  43  70  98 145 186 236 296 337 423
#     4  10  24  43  68 105 138 187 238 281 360 401
#
# _framework density 24.586791999999999
#
# number of rings (size 3 to 8) (size 9 to 14) (size 15 to 20)
#    0.000    1.333    1.111    2.000    6.222   13.333 
#    0.000    0.000    0.000    0.000    0.000    0.000 
#    0.000    0.000    0.000    0.000    0.000    0.000 
#
# Total GULP energy -100773.318618 kJ/mol
# GULP energy per Si atom -5598.517701 kJ/mol
# Density = 2.453083 g / cm^3
# Si number density = 24.586792 Si / 1000 Ang^3
#
#
#
# Elastic Constant Matrix: (Units=GPa)
#
#
# Indices 1 2 3 4 5 6 
#
# 1 83.6407 18.3312 23.3294 0.0000 15.7781 0.0000
# 2 18.3312 125.9911 28.5219 0.0000 -14.6920 0.0000
# 3 23.3294 28.5219 147.7948 0.0000 4.0628 0.0000
# 4 0.0000 0.0000 0.0000 34.1317 0.0000 9.1380
# 5 15.7781 -14.6920 4.0628 0.0000 42.5153 0.0000
# 6 0.0000 0.0000 0.0000 9.1380 0.0000 9.2089
#
#
#
# Elastic Compliance Matrix: (Units=1/GPa)
#
#
# Indices 1 2 3 4 5 6 
#
# 1 0.014027 -0.002364 -0.001597 0.000000 -0.005870 0.000000
# 2 -0.002364 0.009106 -0.001499 0.000000 0.004167 0.000000
# 3 -0.001597 -0.001499 0.007325 0.000000 -0.000625 0.000000
# 4 0.000000 0.000000 0.000000 0.039898 0.000000 -0.039591
# 5 -0.005870 0.004167 -0.000625 0.000000 0.027199 0.000000
# 6 0.000000 0.000000 0.000000 -0.039591 0.000000 0.147877
#
#
# Mechanical properties :
#
#
# Convention : Reuss Voigt Hill
#
# Bulk Modulus (GPa) = 51.17963 55.31020 53.24492
# Shear Modulus (GPa) = 19.02135 36.32078 27.67107
#
# Velocity S-wave (km/s) = 2.78446 3.84767 3.35840
# Velocity P-wave (km/s) = 5.58558 6.50262 6.06147
#
# Compressibility (1/GPa) = 0.01953902
#
# Stress axis : x y z
#
# Youngs Moduli (GPa) = 71.29326 109.81471 136.52652
#
# Poissons Ratio (x) = 0.25959 0.21797
# Poissons Ratio (y) = 0.16853 0.20462
# Poissons Ratio (z) = 0.11382 0.16459
#
# Static dielectric constant tensor:
#      x y z
#    x 1.950070 0.000000 -0.012610 
#    y 0.000000 1.928910 0.000000 
#    z -0.012610 0.000000 1.995010 
# 
# From -- ./inp_files/73733.got.cif
#   From: 2010.05.17/outbox.cif.g08.bks.cpg/sg15_37_cif.got.tgz:73733.got - 2010.06.03 18:47:42.
