data_PCOD9298671
_publ_section_title
;
Structure prediction by ZEFSAII (Michael W. Deem and Ramdas Pophale) SiO2 
 PCOD9298671
Probable space group: C 2/C
;
_chemical_formula_sum "Si O2"
_cell_formula_units_Z 56
_cell_length_a 23.154698
_cell_length_b 13.918875
_cell_length_c 15.106497
_cell_angle_alpha 90.000000
_cell_angle_beta 29.180706
_cell_angle_gamma 90.000000
_cell_volume 2373.778284
_symmetry_space_group_name_H-M "C 2/C"
_symmetry_group_IT_number 15
_symmetry_cell_setting 'monoclinic'
loop_
_space_group_symop_operation_xyz
x,y,z
-x,y,1/2-z
-x,-y,-z
x,-y,1/2+z
1/2+x,1/2+y,z
1/2-x,1/2+y,1/2-z
1/2-x,1/2-y,-z
1/2+x,1/2-y,1/2+z
loop_
_atom_site_type_symbol
_atom_site_label
_atom_site_fract_x
_atom_site_fract_y
_atom_site_fract_z
Si Si1 0.999192 0.414417 0.842343
Si Si2 0.629234 0.257300 0.936172
Si Si3 0.234364 0.355781 0.621384
Si Si4 0.101565 0.692406 0.774820
Si Si5 0.556835 0.580704 0.765307
Si Si6 0.355337 0.080880 0.097145
Si Si7 0.710317 0.395717 0.607621
O O1 0.119184 0.376853 0.721432
O O2 0.000000 0.471318 0.750000
O O3 0.925684 0.319541 0.924775
O O4 0.928302 0.482935 0.000034
O O5 0.540864 0.351295 0.055293
O O6 0.753882 0.274621 0.818908
O O7 0.634312 0.208875 0.834102
O O8 0.340818 0.350012 0.410951
O O9 0.230320 0.436869 0.703155
O O10 0.186621 0.619682 0.605166
O O11 0.128684 0.800819 0.703802
O O12 0.965460 0.657069 0.952867
O O13 0.500000 0.542085 0.750000
O O14 0.629291 0.491999 0.710954
O O15 0.276480 0.101123 0.115074
#
# Coordination Sequence:
#
# PCOD9298671 Si02
#       7
#     8   8   8   8   8   8   8
#     4  12  25  42  72 103 136 184 233 290 355 424
#     4  11  25  46  68 101 146 184 232 292 356 425
#     4  11  23  44  66  98 140 181 225 289 345 421
#     4  11  24  45  68 100 140 183 235 295 350 421
#     4  10  24  45  69 100 142 184 232 292 355 428
#     4  12  24  45  70 105 140 180 238 293 349 426
#     4  11  25  45  74 101 140 188 240 293 357 417
#
# _framework density 23.591082
#
# number of rings (size 3 to 8) (size 9 to 14) (size 15 to 20)
#    0.000    0.857    2.857    4.714    2.000    6.286 
#    0.000    0.000    0.000    0.000    0.000    0.000 
#    0.000    0.000    0.000    0.000    0.000    0.000 
#
# Total GULP energy -155873.328588 kJ/mol
# GULP energy per Si atom -5566.904592 kJ/mol
# Density = 2.353739 g / cm^3
# Si number density = 23.591082 Si / 1000 Ang^3
#
#
#
# Elastic Constant Matrix: (Units=GPa)
#
#
# Indices 1 2 3 4 5 6 
#
# 1 116.1389 28.1286 -0.2533 0.0000 -5.3709 0.0000
# 2 28.1286 83.8590 25.2561 0.0000 -16.7887 0.0000
# 3 -0.2533 25.2561 86.1880 0.0000 -2.2251 0.0000
# 4 0.0000 0.0000 0.0000 310.3943 0.0000 -119.5165
# 5 -5.3709 -16.7887 -2.2251 0.0000 44.2585 0.0000
# 6 0.0000 0.0000 0.0000 -119.5165 0.0000 77.7327
#
#
#
# Elastic Compliance Matrix: (Units=1/GPa)
#
#
# Indices 1 2 3 4 5 6 
#
# 1 0.009458 -0.003517 0.001055 0.000000 -0.000133 0.000000
# 2 -0.003517 0.015479 -0.004411 0.000000 0.005223 0.000000
# 3 0.001055 -0.004411 0.012875 0.000000 -0.000898 0.000000
# 4 0.000000 0.000000 0.000000 0.007897 0.000000 0.012142
# 5 -0.000133 0.005223 -0.000898 0.000000 0.024514 0.000000
# 6 0.000000 0.000000 0.000000 0.012142 0.000000 0.031533
#
#
# Mechanical properties :
#
#
# Convention : Reuss Voigt Hill
#
# Bulk Modulus (GPa) = 41.55327 43.60540 42.57933
# Shear Modulus (GPa) = 40.47780 102.01406 71.24593
#
# Velocity S-wave (km/s) = 4.14673 6.58305 5.50145
# Velocity P-wave (km/s) = 6.37019 8.73533 7.64478
#
# Compressibility (1/GPa) = 0.02406550
#
# Stress axis : x y z
#
# Youngs Moduli (GPa) = 105.72697 64.60496 77.66914
#
# Poissons Ratio (x) = 0.22721 -0.08194
# Poissons Ratio (y) = 0.37184 0.34262
# Poissons Ratio (z) = -0.11154 0.28499
#
# Static dielectric constant tensor:
#      x y z
#    x 2.074160 0.000000 0.226290 
#    y 0.000000 2.021310 0.000000 
#    z 0.226290 0.000000 2.471040 
# 
# From -- ./inp_files/173773.got.cif
#   From: 2010.05.17/outbox.cif.g08.bks.cpg/sg15_87_cif.got.tgz:173773.got - 2010.06.03 18:47:42.
