data_PCOD9298662
_publ_section_title
;
Structure prediction by ZEFSAII (Michael W. Deem and Ramdas Pophale) SiO2 
 PCOD9298662
Probable space group: C 2/C
;
_chemical_formula_sum "Si O2"
_cell_formula_units_Z 48
_cell_length_a 9.068887
_cell_length_b 19.737168
_cell_length_c 11.713164
_cell_angle_alpha 90.000000
_cell_angle_beta 75.228852
_cell_angle_gamma 90.000000
_cell_volume 2027.299545
_symmetry_space_group_name_H-M "C 2/C"
_symmetry_group_IT_number 15
_symmetry_cell_setting 'monoclinic'
loop_
_space_group_symop_operation_xyz
x,y,z
-x,y,1/2-z
-x,-y,-z
x,-y,1/2+z
1/2+x,1/2+y,z
1/2-x,1/2+y,1/2-z
1/2-x,1/2-y,-z
1/2+x,1/2-y,1/2+z
loop_
_atom_site_type_symbol
_atom_site_label
_atom_site_fract_x
_atom_site_fract_y
_atom_site_fract_z
Si Si1 0.335906 0.814759 0.835479
Si Si2 0.849358 0.220796 0.321582
Si Si3 0.360488 0.660161 0.560874
Si Si4 0.186917 0.526800 0.834385
Si Si5 0.179875 0.474432 0.085351
Si Si6 0.312138 0.655702 0.905008
O O1 0.500000 0.830002 0.750000
O O2 0.212459 0.829117 0.762748
O O3 0.318192 0.734121 0.865871
O O4 0.297370 0.849713 0.962494
O O5 0.712043 0.271678 0.373768
O O6 0.896908 0.181793 0.424882
O O7 0.000000 0.259081 0.250000
O O8 0.234853 0.602686 0.578791
O O9 0.514941 0.639059 0.593386
O O10 0.231333 0.496617 0.700568
O O11 0.246637 0.604306 0.825641
O O12 0.003483 0.522160 0.876788
O O13 0.239122 0.500256 0.949760
#
# Coordination Sequence:
#
# PCOD9298662 Si02
#       6
#     8   8   8   8   8   8
#     4  11  23  39  60  94 135 172 210 263 324 391
#     4  11  23  39  60  93 135 173 211 261 324 393
#     4  11  24  39  64  96 130 170 217 266 326 388
#     4  10  24  45  68  94 129 169 223 272 330 389
#     4  10  24  45  68  95 126 173 219 274 330 389
#     4  11  24  40  62  98 129 168 217 266 324 389
#
# _framework density 23.676817
#
# number of rings (size 3 to 8) (size 9 to 14) (size 15 to 20)
#    0.000    1.333    3.333    1.000    7.000    2.000 
#    3.000    0.000    0.000    0.000    0.000    0.000 
#    0.000    0.000    0.000    0.000    0.000    0.000 
#
# Total GULP energy -134103.482470 kJ/mol
# GULP energy per Si atom -5587.645103 kJ/mol
# Density = 2.362293 g / cm^3
# Si number density = 23.676817 Si / 1000 Ang^3
#
#
#
# Elastic Constant Matrix: (Units=GPa)
#
#
# Indices 1 2 3 4 5 6 
#
# 1 52.4876 -12.5234 43.8609 0.0000 -5.0849 0.0000
# 2 -12.5234 35.7526 20.5161 0.0000 16.9885 0.0000
# 3 43.8609 20.5161 180.2412 0.0000 12.6720 0.0000
# 4 0.0000 0.0000 0.0000 13.6174 0.0000 9.4961
# 5 -5.0849 16.9885 12.6720 0.0000 36.1969 0.0000
# 6 0.0000 0.0000 0.0000 9.4961 0.0000 22.2005
#
#
#
# Elastic Compliance Matrix: (Units=1/GPa)
#
#
# Indices 1 2 3 4 5 6 
#
# 1 0.030644 0.016052 -0.009286 0.000000 0.000022 0.000000
# 2 0.016052 0.046042 -0.007983 0.000000 -0.016560 0.000000
# 3 -0.009286 -0.007983 0.008760 0.000000 -0.000625 0.000000
# 4 0.000000 0.000000 0.000000 0.104651 0.000000 -0.044763
# 5 0.000022 -0.016560 -0.000625 0.000000 0.035620 0.000000
# 6 0.000000 0.000000 0.000000 -0.044763 0.000000 0.064191
#
#
# Mechanical properties :
#
#
# Convention : Reuss Voigt Hill
#
# Bulk Modulus (GPa) = 12.04633 41.35430 26.70032
# Shear Modulus (GPa) = 15.62440 28.84482 22.23461
#
# Velocity S-wave (km/s) = 2.57164 3.49416 3.06778
# Velocity P-wave (km/s) = 3.73051 5.81231 4.88363
#
# Compressibility (1/GPa) = 0.08301282
#
# Stress axis : x y z
#
# Youngs Moduli (GPa) = 32.63318 21.71938 114.15138
#
# Poissons Ratio (x) = -0.34864 1.05997
# Poissons Ratio (y) = -0.52382 0.91123
# Poissons Ratio (z) = 0.30302 0.17338
#
# Static dielectric constant tensor:
#      x y z
#    x 1.838150 0.000000 0.034400 
#    y 0.000000 1.930420 0.000000 
#    z 0.034400 0.000000 2.041050 
# 
# From -- ./inp_files/79160.got.cif
#   From: 2010.05.17/outbox.cif.g08.bks.cpg/sg15_40_cif.got.tgz:79160.got - 2010.06.03 18:47:42.
