data_PCOD9298426
_publ_section_title
;
Structure prediction by ZEFSAII (Michael W. Deem and Ramdas Pophale) SiO2 
 PCOD9298426
Probable space group: C 2/C
;
_chemical_formula_sum "Si O2"
_cell_formula_units_Z 36
_cell_length_a 14.807365
_cell_length_b 21.382357
_cell_length_c 7.795805
_cell_angle_alpha 90.000000
_cell_angle_beta 32.579928
_cell_angle_gamma 90.000000
_cell_volume 1329.108306
_symmetry_space_group_name_H-M "C 2/C"
_symmetry_group_IT_number 15
_symmetry_cell_setting 'monoclinic'
loop_
_space_group_symop_operation_xyz
x,y,z
-x,y,1/2-z
-x,-y,-z
x,-y,1/2+z
1/2+x,1/2+y,z
1/2-x,1/2+y,1/2-z
1/2-x,1/2-y,-z
1/2+x,1/2-y,1/2+z
loop_
_atom_site_type_symbol
_atom_site_label
_atom_site_fract_x
_atom_site_fract_y
_atom_site_fract_z
Si Si1 0.299396 0.985471 0.856022
Si Si2 0.606219 0.183564 0.835307
Si Si3 0.170623 0.099985 0.256061
Si Si4 0.581106 0.311466 0.441992
Si Si5 0.000000 0.585419 0.250000
O O1 0.226619 0.937502 0.834783
O O2 0.328890 0.952623 0.996419
O O3 0.500000 0.000000 0.500000
O O4 0.190724 0.046616 0.076237
O O5 0.703658 0.155998 0.512665
O O6 0.500215 0.244846 0.969777
O O7 0.729321 0.196919 0.800952
O O8 0.500970 0.127388 0.079437
O O9 0.992560 0.134961 0.561335
O O10 0.500000 0.333233 0.750000
#
# Coordination Sequence:
#
# PCOD9298426 Si02
#       5
#     8   8   8   8   4
#     4  12  22  39  68 101 131 182 218 275 332 403
#     4  11  25  44  68 101 135 179 227 277 337 394
#     4  11  22  42  69  97 133 174 231 270 331 402
#     4  10  24  44  70 100 133 181 225 277 339 400
#     4  12  26  40  68 100 142 168 234 270 338 400
#
# _framework density 27.085829
#
# number of rings (size 3 to 8) (size 9 to 14) (size 15 to 20)
#    0.000    0.889    4.444    2.667    6.222    0.889 
#    0.000   17.778    0.000    0.000    0.000    0.000 
#    0.000    0.000    0.000    0.000    0.000    0.000 
#
# Total GULP energy -100597.235116 kJ/mol
# GULP energy per Si atom -5588.735284 kJ/mol
# Density = 2.702418 g / cm^3
# Si number density = 27.085829 Si / 1000 Ang^3
#
#
#
# Elastic Constant Matrix: (Units=GPa)
#
#
# Indices 1 2 3 4 5 6 
#
# 1 153.0380 106.3018 18.3311 0.0000 -21.4300 0.0000
# 2 106.3018 211.5115 35.3384 0.0000 -29.5335 0.0000
# 3 18.3311 35.3384 41.4967 0.0001 -2.0057 0.0000
# 4 0.0000 0.0000 0.0001 23.9048 0.0000 -7.1973
# 5 -21.4300 -29.5335 -2.0057 0.0000 39.9490 0.0000
# 6 0.0000 0.0000 0.0000 -7.1973 0.0000 70.6595
#
#
#
# Elastic Compliance Matrix: (Units=1/GPa)
#
#
# Indices 1 2 3 4 5 6 
#
# 1 0.010166 -0.004791 -0.000319 0.000000 0.001895 0.000000
# 2 -0.004791 0.008431 -0.004898 0.000000 0.003417 0.000000
# 3 -0.000319 -0.004898 0.028296 0.000000 -0.002372 0.000000
# 4 0.000000 0.000000 0.000000 0.043156 0.000000 0.004396
# 5 0.001895 0.003417 -0.002372 0.000000 0.028456 0.000000
# 6 0.000000 0.000000 0.000000 0.004396 0.000000 0.014600
#
#
# Mechanical properties :
#
#
# Convention : Reuss Voigt Hill
#
# Bulk Modulus (GPa) = 37.20780 80.66542 58.93661
# Shear Modulus (GPa) = 30.84863 43.30765 37.07814
#
# Velocity S-wave (km/s) = 3.37845 4.00297 3.70390
# Velocity P-wave (km/s) = 5.38381 7.15619 6.33232
#
# Compressibility (1/GPa) = 0.02687608
#
# Stress axis : x y z
#
# Youngs Moduli (GPa) = 98.36675 118.60348 35.34057
#
# Poissons Ratio (x) = 0.56827 0.01127
# Poissons Ratio (y) = 0.47131 0.17311
# Poissons Ratio (z) = 0.03137 0.58098
#
# Static dielectric constant tensor:
#      x y z
#    x 2.224380 0.000000 0.009050 
#    y 0.000000 2.239340 0.000000 
#    z 0.009050 0.000000 2.256900 
# 
# From -- ./inp_files/41178.got.cif
#   From: 2010.05.17/outbox.cif.g08.bks.cpg/sg15_21_cif.got.tgz:41178.got - 2010.06.03 18:47:42.
