data_PCOD9298853
_publ_section_title
;
Structure prediction by ZEFSAII (Michael W. Deem and Ramdas Pophale) SiO2 
 PCOD9298853
Probable space group: C 2/C
;
_chemical_formula_sum "Si O2"
_cell_formula_units_Z 56
_cell_length_a 8.864084
_cell_length_b 11.870348
_cell_length_c 29.484973
_cell_angle_alpha 90.000000
_cell_angle_beta 60.197564
_cell_angle_gamma 90.000000
_cell_volume 2692.091581
_symmetry_space_group_name_H-M "C 2/C"
_symmetry_group_IT_number 15
_symmetry_cell_setting 'monoclinic'
loop_
_space_group_symop_operation_xyz
x,y,z
-x,y,1/2-z
-x,-y,-z
x,-y,1/2+z
1/2+x,1/2+y,z
1/2-x,1/2+y,1/2-z
1/2-x,1/2-y,-z
1/2+x,1/2-y,1/2+z
loop_
_atom_site_type_symbol
_atom_site_label
_atom_site_fract_x
_atom_site_fract_y
_atom_site_fract_z
Si Si1 0.575309 0.759498 0.828752
Si Si2 0.500000 0.383982 0.250000
Si Si3 0.862544 0.871951 0.434899
Si Si4 0.500000 0.934924 0.250000
Si Si5 0.499991 0.245850 0.999238
Si Si6 0.249159 0.059112 0.239546
Si Si7 0.958419 0.765063 0.817983
Si Si8 0.374773 0.639411 0.427277
O O1 0.549177 0.687517 0.786683
O O2 0.440897 0.708342 0.884051
O O3 0.580575 0.886138 0.808788
O O4 0.763768 0.764228 0.825621
O O5 0.660384 0.469415 0.219633
O O6 0.661044 0.839504 0.470768
O O7 0.957746 0.833290 0.466801
O O8 0.888255 0.004106 0.420928
O O9 0.482522 0.856659 0.208338
O O10 0.322805 0.004405 0.274448
O O11 0.472829 0.314652 0.956946
O O12 0.325661 0.176826 0.036430
O O13 0.101760 0.148904 0.276075
O O14 0.943876 0.796552 0.872409
#
# Coordination Sequence:
#
# PCOD9298853 Si02
#       8
#     8   4   8   4   8   8   8   8
#     4  12  24  42  66 102 133 176 229 272 325 410
#     4  12  22  40  68  90 134 178 216 272 338 386
#     4  11  24  44  70  98 137 174 221 282 337 391
#     4  12  26  44  68  98 138 180 222 280 336 398
#     4  10  24  46  67 102 132 171 230 278 331 413
#     4  12  24  43  66  94 136 179 217 277 336 396
#     4  12  23  44  66 100 138 172 229 275 326 410
#     4  11  24  43  72  96 134 178 219 279 345 390
#
# _framework density 20.801670000000001
#
# number of rings (size 3 to 8) (size 9 to 14) (size 15 to 20)
#    0.000    0.571    5.714    2.143    0.000    3.429 
#    0.000    1.429    0.000    0.000    0.000    0.000 
#    0.000    0.000    0.000    0.000    0.000    0.000 
#
# Total GULP energy -156184.806370 kJ/mol
# GULP energy per Si atom -5578.028799 kJ/mol
# Density = 2.075432 g / cm^3
# Si number density = 20.801670 Si / 1000 Ang^3
#
#
#
# Elastic Constant Matrix: (Units=GPa)
#
#
# Indices 1 2 3 4 5 6 
#
# 1 110.1208 50.3411 34.2042 0.0000 18.3347 0.0000
# 2 50.3411 110.5264 36.4821 0.0000 11.5949 0.0000
# 3 34.2042 36.4821 122.2795 0.0000 29.2957 0.0000
# 4 0.0000 0.0000 0.0000 11.0967 0.0000 -0.9144
# 5 18.3347 11.5949 29.2957 0.0000 23.6182 0.0000
# 6 0.0000 0.0000 0.0000 -0.9144 0.0000 31.6657
#
#
#
# Elastic Compliance Matrix: (Units=1/GPa)
#
#
# Indices 1 2 3 4 5 6 
#
# 1 0.012580 -0.004871 -0.000425 0.000000 -0.006847 0.000000
# 2 -0.004871 0.011972 -0.002429 0.000000 0.000917 0.000000
# 3 -0.000425 -0.002429 0.012317 0.000000 -0.013755 0.000000
# 4 0.000000 0.000000 0.000000 0.090332 0.000000 0.002609
# 5 -0.006847 0.000917 -0.013755 0.000000 0.064267 0.000000
# 6 0.000000 0.000000 0.000000 0.002609 0.000000 0.031655
#
#
# Mechanical properties :
#
#
# Convention : Reuss Voigt Hill
#
# Bulk Modulus (GPa) = 46.68883 64.99794 55.84338
# Shear Modulus (GPa) = 20.34898 28.06941 24.20920
#
# Velocity S-wave (km/s) = 3.13107 3.67738 3.41517
# Velocity P-wave (km/s) = 5.96364 7.02461 6.51575
#
# Compressibility (1/GPa) = 0.02141840
#
# Stress axis : x y z
#
# Youngs Moduli (GPa) = 79.49281 83.53001 81.18785
#
# Poissons Ratio (x) = 0.40688 0.03452
# Poissons Ratio (y) = 0.38721 0.19720
# Poissons Ratio (z) = 0.03380 0.20289
#
# Static dielectric constant tensor:
#      x y z
#    x 1.813020 0.000000 0.023150 
#    y 0.000000 1.832670 0.000000 
#    z 0.023150 0.000000 1.768910 
# 
# From -- ./inp_files/307439.got.cif
#   From: 2010.05.17/outbox.cif.g08.bks.cpg/sg15_154_cif.got.tgz:307439.got - 2010.06.03 18:47:42.
