data_PCOD9298599
_publ_section_title
;
Structure prediction by ZEFSAII (Michael W. Deem and Ramdas Pophale) SiO2 
 PCOD9298599
Probable space group: C 2/C
;
_chemical_formula_sum "Si O2"
_cell_formula_units_Z 44
_cell_length_a 9.646323
_cell_length_b 30.040558
_cell_length_c 7.952227
_cell_angle_alpha 90.000000
_cell_angle_beta 63.056030
_cell_angle_gamma 90.000000
_cell_volume 2054.260815
_symmetry_space_group_name_H-M "C 2/C"
_symmetry_group_IT_number 15
_symmetry_cell_setting 'monoclinic'
loop_
_space_group_symop_operation_xyz
x,y,z
-x,y,1/2-z
-x,-y,-z
x,-y,1/2+z
1/2+x,1/2+y,z
1/2-x,1/2+y,1/2-z
1/2-x,1/2-y,-z
1/2+x,1/2-y,1/2+z
loop_
_atom_site_type_symbol
_atom_site_label
_atom_site_fract_x
_atom_site_fract_y
_atom_site_fract_z
Si Si1 0.017828 0.627975 0.056338
Si Si2 0.000000 0.768522 0.750000
Si Si3 0.580753 0.042022 0.534272
Si Si4 0.855389 0.134267 0.711214
Si Si5 0.579727 0.455817 0.533117
Si Si6 0.713757 0.807761 0.990502
O O1 0.000000 0.648077 0.250000
O O2 0.910889 0.655666 0.990304
O O3 0.196677 0.625896 0.902763
O O4 0.936268 0.580044 0.094350
O O5 0.147323 0.799008 0.720871
O O6 0.100564 0.735147 0.577719
O O7 0.500000 0.058804 0.750000
O O8 0.750791 0.029782 0.499552
O O9 0.500000 0.000000 0.500000
O O10 0.902944 0.087350 0.595995
O O11 0.805818 0.172217 0.602153
O O12 0.000000 0.147692 0.750000
O O13 0.500000 0.440964 0.750000
O O14 0.500000 0.500000 0.500000
#
# Coordination Sequence:
#
# PCOD9298599 Si02
#       6
#     8   4   8   8   8   8
#     4  12  26  47  73 104 142 194 239 290 358 428
#     4  10  24  44  84 102 142 190 228 304 356 438
#     4  12  24  44  68  97 140 186 236 294 344 409
#     4  12  27  45  73 105 145 188 239 294 356 426
#     4  12  27  45  68 101 145 187 240 295 347 415
#     4  11  23  51  73 108 145 185 240 288 371 418
#
# _framework density 21.418897000000001
#
# number of rings (size 3 to 8) (size 9 to 14) (size 15 to 20)
#    0.000    0.364    5.455    2.182    8.909    0.000 
#    0.000    5.455    0.000    0.000    0.000    0.000 
#    0.000    0.000    0.000    0.000    0.000    0.000 
#
# Total GULP energy -122734.171166 kJ/mol
# GULP energy per Si atom -5578.825962 kJ/mol
# Density = 2.137015 g / cm^3
# Si number density = 21.418897 Si / 1000 Ang^3
#
#
#
# Elastic Constant Matrix: (Units=GPa)
#
#
# Indices 1 2 3 4 5 6 
#
# 1 189.7776 37.1102 49.3215 0.0000 -18.0359 0.0000
# 2 37.1102 77.2269 12.9020 0.0000 -6.8540 0.0000
# 3 49.3215 12.9020 108.4761 0.0000 -21.9455 0.0000
# 4 0.0000 0.0000 0.0000 14.5109 0.0000 -15.2999
# 5 -18.0359 -6.8540 -21.9455 0.0000 44.9706 0.0000
# 6 0.0000 0.0000 0.0000 -15.2999 0.0000 20.6038
#
#
#
# Elastic Compliance Matrix: (Units=1/GPa)
#
#
# Indices 1 2 3 4 5 6 
#
# 1 0.006516 -0.002632 -0.002443 0.000000 0.001020 0.000000
# 2 -0.002632 0.014353 -0.000312 0.000000 0.000979 0.000000
# 3 -0.002443 -0.000312 0.011272 0.000000 0.004473 0.000000
# 4 0.000000 0.000000 0.000000 0.317503 0.000000 0.235771
# 5 0.001020 0.000979 0.004473 0.000000 0.024978 0.000000
# 6 0.000000 0.000000 0.000000 0.235771 0.000000 0.223613
#
#
# Mechanical properties :
#
#
# Convention : Reuss Voigt Hill
#
# Bulk Modulus (GPa) = 46.80565 63.79422 55.29993
# Shear Modulus (GPa) = 8.11515 34.42686 21.27100
#
# Velocity S-wave (km/s) = 1.94859 4.01348 3.15476
# Velocity P-wave (km/s) = 5.19255 7.16422 6.25654
#
# Compressibility (1/GPa) = 0.02136494
#
# Stress axis : x y z
#
# Youngs Moduli (GPa) = 153.46857 69.67223 88.71895
#
# Poissons Ratio (x) = 0.18341 0.21676
# Poissons Ratio (y) = 0.40400 0.02768
# Poissons Ratio (z) = 0.37496 0.02174
#
# Static dielectric constant tensor:
#      x y z
#    x 2.034950 0.000000 0.051870 
#    y 0.000000 1.896320 0.000000 
#    z 0.051870 0.000000 1.798970 
# 
# From -- ./inp_files/25956.got.cif
#   From: 2010.05.17/outbox.cif.g08.bks.cpg/sg15_13_cif.got.tgz:25956.got - 2010.06.03 18:47:42.
