data_PCOD9298593
_publ_section_title
;
Structure prediction by ZEFSAII (Michael W. Deem and Ramdas Pophale) SiO2 
 PCOD9298593
Probable space group: C 2/C
;
_chemical_formula_sum "Si O2"
_cell_formula_units_Z 36
_cell_length_a 16.692200
_cell_length_b 5.838492
_cell_length_c 16.014811
_cell_angle_alpha 90.000000
_cell_angle_beta 73.265060
_cell_angle_gamma 90.000000
_cell_volume 1494.657120
_symmetry_space_group_name_H-M "C 2/C"
_symmetry_group_IT_number 15
_symmetry_cell_setting 'monoclinic'
loop_
_space_group_symop_operation_xyz
x,y,z
-x,y,1/2-z
-x,-y,-z
x,-y,1/2+z
1/2+x,1/2+y,z
1/2-x,1/2+y,1/2-z
1/2-x,1/2-y,-z
1/2+x,1/2-y,1/2+z
loop_
_atom_site_type_symbol
_atom_site_label
_atom_site_fract_x
_atom_site_fract_y
_atom_site_fract_z
Si Si1 0.536711 0.061772 0.078722
Si Si2 0.500000 0.237781 0.750000
Si Si3 0.788589 0.556368 0.044592
Si Si4 0.703226 0.149541 0.273582
Si Si5 0.884714 0.122591 0.838560
O O1 0.541450 0.314129 0.118589
O O2 0.502952 0.898933 0.161816
O O3 0.500000 0.000000 0.000000
O O4 0.635775 0.035508 0.032239
O O5 0.417486 0.398339 0.781191
O O6 0.825870 0.637537 0.122077
O O7 0.706370 0.413043 0.093524
O O8 0.750000 0.750000 0.000000
O O9 0.752604 0.398775 0.254371
O O10 0.632146 0.181649 0.225130
#
# Coordination Sequence:
#
# PCOD9298593 Si02
#       5
#     8   4   8   8   8
#     4  12  29  48  78 114 154 203 265 333 403 471
#     4  12  28  48  74 108 164 200 258 326 406 468
#     4  11  23  47  76 111 146 201 267 319 389 481
#     4  10  24  44  77 113 151 203 261 328 396 468
#     4  11  26  48  77 107 159 206 260 326 400 479
#
# _framework density 24.085792000000001
#
# number of rings (size 3 to 8) (size 9 to 14) (size 15 to 20)
#    0.000    0.889    2.222    2.667    9.333    8.000 
#    0.000    0.000    0.000    0.000    0.000    0.000 
#    0.000    0.000    0.000    0.000    0.000    0.000 
#
# Total GULP energy -100412.810579 kJ/mol
# GULP energy per Si atom -5578.489477 kJ/mol
# Density = 2.403097 g / cm^3
# Si number density = 24.085792 Si / 1000 Ang^3
#
#
#
# Elastic Constant Matrix: (Units=GPa)
#
#
# Indices 1 2 3 4 5 6 
#
# 1 98.8933 41.0174 54.0349 0.0000 3.6083 0.0000
# 2 41.0174 103.6468 73.0716 0.0001 -4.6629 0.0001
# 3 54.0349 73.0716 184.9214 0.0000 7.7645 0.0000
# 4 0.0000 0.0001 0.0000 33.4492 0.0000 0.5607
# 5 3.6083 -4.6629 7.7645 0.0000 68.5654 0.0000
# 6 0.0000 0.0001 0.0000 0.5607 0.0000 42.2099
#
#
#
# Elastic Compliance Matrix: (Units=1/GPa)
#
#
# Indices 1 2 3 4 5 6 
#
# 1 0.012860 -0.003449 -0.002368 0.000000 -0.000643 0.000000
# 2 -0.003449 0.014457 -0.004777 0.000000 0.001706 0.000000
# 3 -0.002368 -0.004777 0.008034 0.000000 -0.001110 0.000000
# 4 0.000000 0.000000 0.000000 0.029903 0.000000 -0.000397
# 5 -0.000643 0.001706 -0.001110 0.000000 0.014860 0.000000
# 6 0.000000 0.000000 0.000000 -0.000397 0.000000 0.023696
#
#
# Mechanical properties :
#
#
# Convention : Reuss Voigt Hill
#
# Bulk Modulus (GPa) = 70.60094 80.41214 75.50654
# Shear Modulus (GPa) = 38.54530 43.46742 41.00636
#
# Velocity S-wave (km/s) = 4.00476 4.25277 4.13063
# Velocity P-wave (km/s) = 7.12461 7.58769 7.35979
#
# Compressibility (1/GPa) = 0.01416412
#
# Stress axis : x y z
#
# Youngs Moduli (GPa) = 77.76331 69.16956 124.47533
#
# Poissons Ratio (x) = 0.23854 0.29474
# Poissons Ratio (y) = 0.26817 0.59458
# Poissons Ratio (z) = 0.18414 0.33040
#
# Static dielectric constant tensor:
#      x y z
#    x 2.017720 0.000000 -0.169230 
#    y 0.000000 2.114700 0.000000 
#    z -0.169230 0.000000 1.584680 
# 
# From -- ./inp_files/207946.got.cif
#   From: 2010.05.17/outbox.cif.g08.bks.cpg/sg15_104_cif.got.tgz:207946.got - 2010.06.03 18:47:42.
