data_PCOD9298595
_publ_section_title
;
Structure prediction by ZEFSAII (Michael W. Deem and Ramdas Pophale) SiO2 
 PCOD9298595
Probable space group: C 2/C
;
_chemical_formula_sum "Si O2"
_cell_formula_units_Z 44
_cell_length_a 26.322735
_cell_length_b 13.477631
_cell_length_c 14.121798
_cell_angle_alpha 90.000000
_cell_angle_beta 20.351600
_cell_angle_gamma 90.000000
_cell_volume 1742.365954
_symmetry_space_group_name_H-M "C 2/C"
_symmetry_group_IT_number 15
_symmetry_cell_setting 'monoclinic'
loop_
_space_group_symop_operation_xyz
x,y,z
-x,y,1/2-z
-x,-y,-z
x,-y,1/2+z
1/2+x,1/2+y,z
1/2-x,1/2+y,1/2-z
1/2-x,1/2-y,-z
1/2+x,1/2-y,1/2+z
loop_
_atom_site_type_symbol
_atom_site_label
_atom_site_fract_x
_atom_site_fract_y
_atom_site_fract_z
Si Si1 0.500000 0.186302 0.250000
Si Si2 0.850125 0.992671 0.412074
Si Si3 0.593268 0.704014 0.239115
Si Si4 0.412435 0.024660 0.254162
Si Si5 0.866316 0.629983 0.071760
Si Si6 0.397474 0.352026 0.570458
O O1 0.418754 0.121917 0.310556
O O2 0.411829 0.260164 0.472523
O O3 0.754356 0.991597 0.483049
O O4 0.009753 0.946168 0.125420
O O5 0.868075 0.110907 0.396979
O O6 0.756513 0.083593 0.141224
O O7 0.460058 0.772428 0.434618
O O8 0.539090 0.668925 0.437335
O O9 0.750000 0.750000 0.000000
O O10 0.512277 0.952270 0.137848
O O11 0.275487 0.135227 0.133925
O O12 0.000000 0.500000 0.000000
#
# Coordination Sequence:
#
# PCOD9298595 Si02
#       6
#     4   8   8   8   8   8
#     4  12  26  44  80 116 154 210 282 336 416 502
#     4  11  24  51  76 111 161 206 266 342 413 487
#     4  12  28  49  79 116 159 216 267 342 418 498
#     4  10  24  44  78 111 158 212 266 343 414 490
#     4  11  25  50  76 117 161 203 276 332 408 497
#     4  12  27  48  76 121 152 210 276 335 415 505
#
# _framework density 25.253018999999998
#
# number of rings (size 3 to 8) (size 9 to 14) (size 15 to 20)
#    0.000    0.727    3.636    2.727    7.636    3.636 
#    3.273    0.000    0.000    0.000    0.000    0.000 
#    0.000    0.000    0.000    0.000    0.000    0.000 
#
# Total GULP energy -122511.679120 kJ/mol
# GULP energy per Si atom -5568.712687 kJ/mol
# Density = 2.519554 g / cm^3
# Si number density = 25.253019 Si / 1000 Ang^3
#
#
#
# Elastic Constant Matrix: (Units=GPa)
#
#
# Indices 1 2 3 4 5 6 
#
# 1 179.1634 45.7770 28.1670 0.0000 -25.7663 0.0000
# 2 45.7770 122.1013 26.2162 0.0000 -19.0375 0.0000
# 3 28.1670 26.2162 87.2996 0.0000 -8.0597 0.0000
# 4 0.0000 0.0000 0.0000 24.2097 0.0000 -2.2627
# 5 -25.7663 -19.0375 -8.0597 0.0000 63.3089 0.0000
# 6 0.0000 0.0000 0.0000 -2.2627 0.0000 57.2311
#
#
#
# Elastic Compliance Matrix: (Units=1/GPa)
#
#
# Indices 1 2 3 4 5 6 
#
# 1 0.006551 -0.001859 -0.001377 0.000000 0.001932 0.000000
# 2 -0.001859 0.009634 -0.002121 0.000000 0.001870 0.000000
# 3 -0.001377 -0.002121 0.012573 0.000000 0.000403 0.000000
# 4 0.000000 0.000000 0.000000 0.041459 0.000000 0.001639
# 5 0.001932 0.001870 0.000403 0.000000 0.017195 0.000000
# 6 0.000000 0.000000 0.000000 0.001639 0.000000 0.017538
#
#
# Mechanical properties :
#
#
# Convention : Reuss Voigt Hill
#
# Bulk Modulus (GPa) = 55.41868 65.43163 60.42516
# Shear Modulus (GPa) = 41.09206 48.17687 44.63446
#
# Velocity S-wave (km/s) = 4.03825 4.37254 4.20871
# Velocity P-wave (km/s) = 6.61334 7.17348 6.89910
#
# Compressibility (1/GPa) = 0.01804446
#
# Stress axis : x y z
#
# Youngs Moduli (GPa) = 152.65295 103.80074 79.53521
#
# Poissons Ratio (x) = 0.19298 0.10952
# Poissons Ratio (y) = 0.28380 0.16866
# Poissons Ratio (z) = 0.21020 0.22011
#
# Static dielectric constant tensor:
#      x y z
#    x 1.934230 0.000000 -0.002750 
#    y 0.000000 2.153610 0.000000 
#    z -0.002750 0.000000 2.211620 
# 
# From -- ./inp_files/122957.got.cif
#   From: 2010.05.17/outbox.cif.g08.bks.cpg/sg15_62_cif.got.tgz:122957.got - 2010.06.03 18:47:42.
