data_PCOD9298789
_publ_section_title
;
Structure prediction by ZEFSAII (Michael W. Deem and Ramdas Pophale) SiO2 
 PCOD9298789
Probable space group: C 2/C
;
_chemical_formula_sum "Si O2"
_cell_formula_units_Z 40
_cell_length_a 7.643538
_cell_length_b 8.968725
_cell_length_c 23.211332
_cell_angle_alpha 90.000000
_cell_angle_beta 76.427705
_cell_angle_gamma 90.000000
_cell_volume 1546.766617
_symmetry_space_group_name_H-M "C 2/C"
_symmetry_group_IT_number 15
_symmetry_cell_setting 'monoclinic'
loop_
_space_group_symop_operation_xyz
x,y,z
-x,y,1/2-z
-x,-y,-z
x,-y,1/2+z
1/2+x,1/2+y,z
1/2-x,1/2+y,1/2-z
1/2-x,1/2-y,-z
1/2+x,1/2-y,1/2+z
loop_
_atom_site_type_symbol
_atom_site_label
_atom_site_fract_x
_atom_site_fract_y
_atom_site_fract_z
Si Si1 0.075581 0.293923 0.366758
Si Si2 0.640596 0.376509 0.969116
Si Si3 0.017358 0.562115 0.432660
Si Si4 0.306162 0.728718 0.663446
Si Si5 0.311596 0.418448 0.731131
O O1 0.896573 0.294077 0.343396
O O2 0.213329 0.205209 0.316789
O O3 0.032312 0.205805 0.428108
O O4 0.143694 0.447557 0.388582
O O5 0.812593 0.457311 0.928208
O O6 0.500000 0.500000 0.000000
O O7 0.750000 0.250000 0.000000
O O8 0.080704 0.722747 0.402800
O O9 0.000000 0.500000 0.500000
O O10 0.325841 0.864683 0.708487
O O11 0.169284 0.076619 0.802324
O O12 0.500000 0.403371 0.750000
#
# Coordination Sequence:
#
# PCOD9298789 Si02
#       5
#     8   8   8   8   8
#     4  11  25  44  72 105 152 195 256 311 391 464
#     4  12  28  47  75 109 159 206 266 325 402 481
#     4  12  26  44  72 109 150 205 254 318 390 478
#     4  11  25  46  75 106 151 197 260 319 396 473
#     4  10  24  45  74 111 149 198 253 324 393 472
#
# _framework density 25.860396999999999
#
# number of rings (size 3 to 8) (size 9 to 14) (size 15 to 20)
#    0.000    0.800    2.000    3.600    5.600    6.400 
#    0.000    0.000    0.000    0.000    0.000    0.000 
#    0.000    0.000    0.000    0.000    0.000    0.000 
#
# Total GULP energy -111365.269120 kJ/mol
# GULP energy per Si atom -5568.263456 kJ/mol
# Density = 2.580154 g / cm^3
# Si number density = 25.860397 Si / 1000 Ang^3
#
#
#
# Elastic Constant Matrix: (Units=GPa)
#
#
# Indices 1 2 3 4 5 6 
#
# 1 52.3267 4.1543 12.3258 0.0000 8.3079 0.0000
# 2 4.1543 130.6279 101.3682 0.0000 1.2172 0.0000
# 3 12.3258 101.3682 170.3395 0.0000 11.0568 0.0000
# 4 0.0000 0.0000 0.0000 88.0373 0.0000 5.6848
# 5 8.3079 1.2172 11.0568 0.0000 42.0538 0.0000
# 6 0.0000 0.0000 0.0000 5.6848 0.0000 21.3690
#
#
#
# Elastic Compliance Matrix: (Units=1/GPa)
#
#
# Indices 1 2 3 4 5 6 
#
# 1 0.020000 0.000634 -0.001594 0.000000 -0.003550 0.000000
# 2 0.000634 0.014386 -0.008721 0.000000 0.001751 0.000000
# 3 -0.001594 -0.008721 0.011332 0.000000 -0.002412 0.000000
# 4 0.000000 0.000000 0.000000 0.011557 0.000000 -0.003075
# 5 -0.003550 0.001751 -0.002412 0.000000 0.025064 0.000000
# 6 0.000000 0.000000 0.000000 -0.003075 0.000000 0.047615
#
#
# Mechanical properties :
#
#
# Convention : Reuss Voigt Hill
#
# Bulk Modulus (GPa) = 37.94133 65.44343 51.69238
# Shear Modulus (GPa) = 31.62539 45.98841 38.80690
#
# Velocity S-wave (km/s) = 3.50083 4.22160 3.87800
# Velocity P-wave (km/s) = 5.57176 7.00885 6.33121
#
# Compressibility (1/GPa) = 0.02635648
#
# Stress axis : x y z
#
# Youngs Moduli (GPa) = 50.00121 69.51119 88.24416
#
# Poissons Ratio (x) = -0.04407 0.14066
# Poissons Ratio (y) = -0.03170 0.76955
# Poissons Ratio (z) = 0.07970 0.60619
#
# Static dielectric constant tensor:
#      x y z
#    x 2.003310 0.000000 -0.067660 
#    y 0.000000 2.290080 0.000000 
#    z -0.067660 0.000000 2.138600 
# 
# From -- ./inp_files/262456.got.cif
#   From: 2010.05.17/outbox.cif.g08.bks.cpg/sg15_132_cif.got.tgz:262456.got - 2010.06.03 18:47:42.
