data_PCOD9298080
_publ_section_title
;
Structure prediction by ZEFSAII (Michael W. Deem and Ramdas Pophale) SiO2 
 PCOD9298080
Probable space group: C 2/C
;
_chemical_formula_sum "Si O2"
_cell_formula_units_Z 44
_cell_length_a 11.491012
_cell_length_b 13.377427
_cell_length_c 12.548171
_cell_angle_alpha 90.000000
_cell_angle_beta 79.063391
_cell_angle_gamma 90.000000
_cell_volume 1893.873625
_symmetry_space_group_name_H-M "C 2/C"
_symmetry_group_IT_number 15
_symmetry_cell_setting 'monoclinic'
loop_
_space_group_symop_operation_xyz
x,y,z
-x,y,1/2-z
-x,-y,-z
x,-y,1/2+z
1/2+x,1/2+y,z
1/2-x,1/2+y,1/2-z
1/2-x,1/2-y,-z
1/2+x,1/2-y,1/2+z
loop_
_atom_site_type_symbol
_atom_site_label
_atom_site_fract_x
_atom_site_fract_y
_atom_site_fract_z
Si Si1 0.172411 0.033277 0.500723
Si Si2 0.301990 0.321239 0.897708
Si Si3 0.000000 0.310605 0.250000
Si Si4 0.060036 0.067407 0.845484
Si Si5 0.570558 0.205049 0.340576
Si Si6 0.426081 0.100135 0.540438
O O1 0.160893 0.923395 0.554276
O O2 0.156390 0.006347 0.379109
O O3 0.291426 0.084053 0.522807
O O4 0.052015 0.086381 0.557189
O O5 0.401266 0.259964 0.819742
O O6 0.193575 0.349059 0.839552
O O7 0.250000 0.250000 0.000000
O O8 0.943169 0.373921 0.162104
O O9 0.105890 0.178921 0.816016
O O10 0.000000 0.025587 0.750000
O O11 0.500000 0.169439 0.250000
O O12 0.488732 0.185252 0.457615
O O13 0.500000 0.000000 0.500000
#
# Coordination Sequence:
#
# PCOD9298080 Si02
#       6
#     8   8   4   8   8   8
#     4  11  24  43  70 101 139 180 240 298 344 443
#     4  12  23  49  70 101 147 191 240 297 363 447
#     4  12  28  44  80 104 146 206 240 292 388 430
#     4  10  24  43  67  98 137 184 228 293 360 420
#     4  11  25  47  71 101 149 185 235 308 362 427
#     4  12  26  45  73 112 141 191 248 300 367 434
#
# _framework density 23.232807000000001
#
# number of rings (size 3 to 8) (size 9 to 14) (size 15 to 20)
#    0.000    0.727    5.455    0.000    7.636    2.182 
#    3.273    0.000    0.000    0.000    0.000    0.000 
#    0.000    0.000    0.000    0.000    0.000    0.000 
#
# Total GULP energy -123048.873648 kJ/mol
# GULP energy per Si atom -5593.130620 kJ/mol
# Density = 2.317993 g / cm^3
# Si number density = 23.232807 Si / 1000 Ang^3
#
#
#
# Elastic Constant Matrix: (Units=GPa)
#
#
# Indices 1 2 3 4 5 6 
#
# 1 163.9234 20.0600 57.4887 0.0000 30.0688 0.0000
# 2 20.0600 60.6444 27.4476 0.0000 2.1346 0.0000
# 3 57.4887 27.4476 135.5008 0.0000 28.3577 0.0000
# 4 0.0000 0.0000 0.0000 -27.2602 0.0000 -42.3376
# 5 30.0688 2.1346 28.3577 0.0000 58.2921 0.0000
# 6 0.0000 0.0000 0.0000 -42.3376 0.0000 3.9497
#
#
#
# Elastic Compliance Matrix: (Units=1/GPa)
#
#
# Indices 1 2 3 4 5 6 
#
# 1 0.007598 -0.001338 -0.002385 0.000000 -0.002710 0.000000
# 2 -0.001338 0.018472 -0.003537 0.000000 0.001735 0.000000
# 3 -0.002385 -0.003537 0.009824 0.000000 -0.003419 0.000000
# 4 0.000000 0.000000 0.000000 -0.002079 0.000000 -0.022281
# 5 -0.002710 0.001735 -0.003419 0.000000 0.020153 0.000000
# 6 0.000000 0.000000 0.000000 -0.022281 0.000000 0.014346
#
#
# Mechanical properties :
#
#
# Convention : Reuss Voigt Hill
#
# Bulk Modulus (GPa) = 46.78846 63.34013 55.06430
# Shear Modulus (GPa) = 55.58050 24.00115 39.79083
#
# Velocity S-wave (km/s) = 4.89645 3.21763 4.14297
# Velocity P-wave (km/s) = 7.22147 6.41300 6.82921
#
# Compressibility (1/GPa) = 0.02137279
#
# Stress axis : x y z
#
# Youngs Moduli (GPa) = 131.61748 54.13595 101.79054
#
# Poissons Ratio (x) = 0.07245 0.24280
# Poissons Ratio (y) = 0.17613 0.36003
# Poissons Ratio (z) = 0.31395 0.19148
#
# Static dielectric constant tensor:
#      x y z
#    x 1.869740 0.000000 0.032980 
#    y 0.000000 1.861190 0.000000 
#    z 0.032980 0.000000 1.961370 
# 
# From -- ./inp_files/86076.got.cif
#   From: 2010.05.17/outbox.cif.g08.bks.cpg/sg15_44_cif.got.tgz:86076.got - 2010.06.03 18:47:42.
