data_PCOD9298676
_publ_section_title
;
Structure prediction by ZEFSAII (Michael W. Deem and Ramdas Pophale) SiO2 
 PCOD9298676
Probable space group: C 2/C
;
_chemical_formula_sum "Si O2"
_cell_formula_units_Z 44
_cell_length_a 11.094576
_cell_length_b 23.318426
_cell_length_c 10.411826
_cell_angle_alpha 90.000000
_cell_angle_beta 136.458079
_cell_angle_gamma 90.000000
_cell_volume 1855.596934
_symmetry_space_group_name_H-M "C 2/C"
_symmetry_group_IT_number 15
_symmetry_cell_setting 'monoclinic'
loop_
_space_group_symop_operation_xyz
x,y,z
-x,y,1/2-z
-x,-y,-z
x,-y,1/2+z
1/2+x,1/2+y,z
1/2-x,1/2+y,1/2-z
1/2-x,1/2-y,-z
1/2+x,1/2-y,1/2+z
loop_
_atom_site_type_symbol
_atom_site_label
_atom_site_fract_x
_atom_site_fract_y
_atom_site_fract_z
Si Si1 0.860922 0.633018 0.024310
Si Si2 0.169358 0.107330 0.466591
Si Si3 0.500000 0.699341 0.750000
Si Si4 0.121679 0.310534 0.531111
Si Si5 0.875751 0.503544 0.031560
Si Si6 0.486068 0.696513 0.459994
O O1 0.801333 0.567196 0.963560
O O2 0.000000 0.636723 0.250000
O O3 0.963432 0.656975 0.980362
O O4 0.682924 0.666767 0.907631
O O5 0.321880 0.149495 0.542528
O O6 0.236034 0.045302 0.466452
O O7 0.090472 0.135450 0.537532
O O8 0.000000 0.119279 0.250000
O O9 0.506306 0.726970 0.615164
O O10 0.076648 0.246832 0.449460
O O11 0.289208 0.310492 0.758032
O O12 0.000000 0.502932 0.250000
O O13 0.000000 0.500000 0.000000
#
# Coordination Sequence:
#
# PCOD9298676 Si02
#       6
#     8   8   4   8   8   8
#     4  11  24  44  66 100 145 178 241 290 347 424
#     4  10  24  45  69 102 140 179 235 292 356 421
#     4  12  26  42  68 104 136 190 234 280 366 416
#     4  11  22  44  67  98 144 179 235 290 353 415
#     4  11  25  44  70 101 135 185 232 292 355 419
#     4  11  25  40  68 102 138 188 229 294 349 429
#
# _framework density 23.712046000000001
#
# number of rings (size 3 to 8) (size 9 to 14) (size 15 to 20)
#    0.000    1.091    3.636    1.636    5.091    2.909 
#    0.000    1.818    0.000    0.000    0.000    0.000 
#    0.000    0.000    0.000    0.000    0.000    0.000 
#
# Total GULP energy -122636.356100 kJ/mol
# GULP energy per Si atom -5574.379823 kJ/mol
# Density = 2.365808 g / cm^3
# Si number density = 23.712046 Si / 1000 Ang^3
#
#
#
# Elastic Constant Matrix: (Units=GPa)
#
#
# Indices 1 2 3 4 5 6 
#
# 1 103.2448 38.3475 29.2582 0.0000 17.9032 0.0000
# 2 38.3475 101.7726 17.9436 0.0000 30.5586 0.0000
# 3 29.2582 17.9436 91.0492 0.0000 8.9514 0.0000
# 4 0.0000 0.0000 0.0000 18.3690 0.0000 -3.0319
# 5 17.9032 30.5586 8.9514 0.0000 49.5955 0.0000
# 6 0.0000 0.0000 0.0000 -3.0319 0.0000 12.5637
#
#
#
# Elastic Compliance Matrix: (Units=1/GPa)
#
#
# Indices 1 2 3 4 5 6 
#
# 1 0.012152 -0.003546 -0.003044 0.000000 -0.001652 0.000000
# 2 -0.003546 0.013348 -0.000823 0.000000 -0.006796 0.000000
# 3 -0.003044 -0.000823 0.012182 0.000000 -0.000593 0.000000
# 4 0.000000 0.000000 0.000000 0.056698 0.000000 0.013683
# 5 -0.001652 -0.006796 -0.000593 0.000000 0.025054 0.000000
# 6 0.000000 0.000000 0.000000 0.013683 0.000000 0.082896
#
#
# Mechanical properties :
#
#
# Convention : Reuss Voigt Hill
#
# Bulk Modulus (GPa) = 43.75235 51.90723 47.82979
# Shear Modulus (GPa) = 22.24470 30.14012 26.19241
#
# Velocity S-wave (km/s) = 3.06619 3.56910 3.32716
# Velocity P-wave (km/s) = 5.57019 6.23882 5.91396
#
# Compressibility (1/GPa) = 0.02285592
#
# Stress axis : x y z
#
# Youngs Moduli (GPa) = 82.29207 74.92037 82.09105
#
# Poissons Ratio (x) = 0.26567 0.24986
# Poissons Ratio (y) = 0.29181 0.06755
# Poissons Ratio (z) = 0.25047 0.06165
#
# Static dielectric constant tensor:
#      x y z
#    x 2.040730 0.000000 -0.106050 
#    y 0.000000 1.968500 0.000000 
#    z -0.106050 0.000000 1.874300 
# 
# From -- ./inp_files/31019.got.cif
#   From: 2010.05.17/outbox.cif.g08.bks.cpg/sg15_16_cif.got.tgz:31019.got - 2010.06.03 18:47:42.
