data_PCOD9298985
_publ_section_title
;
Structure prediction by ZEFSAII (Michael W. Deem and Ramdas Pophale) SiO2 
 PCOD9298985
Probable space group: C 2/C
;
_chemical_formula_sum "Si O2"
_cell_formula_units_Z 60
_cell_length_a 25.222470
_cell_length_b 9.847728
_cell_length_c 10.196668
_cell_angle_alpha 90.000000
_cell_angle_beta 99.334449
_cell_angle_gamma 90.000000
_cell_volume 2499.152503
_symmetry_space_group_name_H-M "C 2/C"
_symmetry_group_IT_number 15
_symmetry_cell_setting 'monoclinic'
loop_
_space_group_symop_operation_xyz
x,y,z
-x,y,1/2-z
-x,-y,-z
x,-y,1/2+z
1/2+x,1/2+y,z
1/2-x,1/2+y,1/2-z
1/2-x,1/2-y,-z
1/2+x,1/2-y,1/2+z
loop_
_atom_site_type_symbol
_atom_site_label
_atom_site_fract_x
_atom_site_fract_y
_atom_site_fract_z
Si Si1 0.283990 0.067968 0.236621
Si Si2 0.262552 0.656545 0.631912
Si Si3 0.380740 0.760514 0.079496
Si Si4 0.679357 0.509040 0.530464
Si Si5 0.108463 0.218408 0.121556
Si Si6 0.500000 0.828803 0.750000
Si Si7 0.509305 0.659376 0.487157
Si Si8 0.111615 0.562077 0.398056
O O1 0.279976 0.961628 0.353654
O O2 0.268439 0.227023 0.244121
O O3 0.236189 0.006208 0.126067
O O4 0.341133 0.070054 0.189327
O O5 0.250000 0.750000 0.500000
O O6 0.314174 0.569045 0.606989
O O7 0.369627 0.763867 0.230058
O O8 0.437586 0.690202 0.072724
O O9 0.384887 0.914461 0.034663
O O10 0.337582 0.662546 0.997154
O O11 0.634986 0.424806 0.593062
O O12 0.044269 0.212652 0.104220
O O13 0.119773 0.320623 0.007667
O O14 0.512887 0.734324 0.629499
O O15 0.447150 0.915626 0.690864
O O16 0.500000 0.500000 0.500000
#
# Coordination Sequence:
#
# PCOD9298985 Si02
#       8
#     8   8   8   8   8   4   8   8
#     4  11  25  47  75 106 155 198 249 318 384 454
#     4  10  24  46  72 107 150 195 250 310 379 451
#     4  12  28  44  79 112 147 204 258 313 389 462
#     4  11  24  47  71 112 148 195 257 312 378 463
#     4  11  25  48  74 104 156 194 252 318 383 453
#     4  10  28  50  74 110 160 196 262 320 378 468
#     4  11  25  46  75 112 148 200 255 322 386 448
#     4  11  28  48  75 109 151 207 250 314 389 454
#
# _framework density 24.008137999999999
#
# number of rings (size 3 to 8) (size 9 to 14) (size 15 to 20)
#    0.000    1.067    2.667    1.200   11.200    2.667 
#    2.400    0.000    0.000    0.000    0.000    0.000 
#    0.000    0.000    0.000    0.000    0.000    0.000 
#
# Total GULP energy -167943.283548 kJ/mol
# GULP energy per Si atom -5598.109452 kJ/mol
# Density = 2.395349 g / cm^3
# Si number density = 24.008138 Si / 1000 Ang^3
#
#
#
# Elastic Constant Matrix: (Units=GPa)
#
#
# Indices 1 2 3 4 5 6 
#
# 1 119.3099 25.5550 36.4743 0.0000 4.5046 0.0000
# 2 25.5550 153.5158 38.1671 0.0000 13.5531 0.0000
# 3 36.4743 38.1671 92.5813 0.0000 8.4869 0.0000
# 4 0.0000 0.0000 0.0000 41.8375 0.0000 -3.6101
# 5 4.5046 13.5531 8.4869 0.0000 39.3570 0.0000
# 6 0.0000 0.0000 0.0000 -3.6101 0.0000 37.6693
#
#
#
# Elastic Compliance Matrix: (Units=1/GPa)
#
#
# Indices 1 2 3 4 5 6 
#
# 1 0.009603 -0.000726 -0.003475 0.000000 -0.000100 0.000000
# 2 -0.000726 0.007453 -0.002611 0.000000 -0.001921 0.000000
# 3 -0.003475 -0.002611 0.013392 0.000000 -0.001591 0.000000
# 4 0.000000 0.000000 0.000000 0.024101 0.000000 0.002310
# 5 -0.000100 -0.001921 -0.001591 0.000000 0.026424 0.000000
# 6 0.000000 0.000000 0.000000 0.002310 0.000000 0.026768
#
#
# Mechanical properties :
#
#
# Convention : Reuss Voigt Hill
#
# Bulk Modulus (GPa) = 59.43161 62.86665 61.14913
# Shear Modulus (GPa) = 39.37794 41.45345 40.41570
#
# Velocity S-wave (km/s) = 4.05432 4.15980 4.10740
# Velocity P-wave (km/s) = 6.83558 7.02241 6.92963
#
# Compressibility (1/GPa) = 0.01682606
#
# Stress axis : x y z
#
# Youngs Moduli (GPa) = 104.13304 134.16610 74.66867
#
# Poissons Ratio (x) = 0.09738 0.25947
# Poissons Ratio (y) = 0.07558 0.19494
# Poissons Ratio (z) = 0.36186 0.35027
#
# Static dielectric constant tensor:
#      x y z
#    x 1.916220 0.000000 0.019950 
#    y 0.000000 1.919440 0.000000 
#    z 0.019950 0.000000 2.028820 
# 
# From -- ./inp_files/121974.got.cif
#   From: 2010.05.17/outbox.cif.g08.bks.cpg/sg15_61_cif.got.tgz:121974.got - 2010.06.03 18:47:42.
