data_PCOD9298939
_publ_section_title
;
Structure prediction by ZEFSAII (Michael W. Deem and Ramdas Pophale) SiO2 
 PCOD9298939
Probable space group: C 2/C
;
_chemical_formula_sum "Si O2"
_cell_formula_units_Z 60
_cell_length_a 19.725322
_cell_length_b 13.126238
_cell_length_c 11.513541
_cell_angle_alpha 90.000000
_cell_angle_beta 60.025657
_cell_angle_gamma 90.000000
_cell_volume 2582.356174
_symmetry_space_group_name_H-M "C 2/C"
_symmetry_group_IT_number 15
_symmetry_cell_setting 'monoclinic'
loop_
_space_group_symop_operation_xyz
x,y,z
-x,y,1/2-z
-x,-y,-z
x,-y,1/2+z
1/2+x,1/2+y,z
1/2-x,1/2+y,1/2-z
1/2-x,1/2-y,-z
1/2+x,1/2-y,1/2+z
loop_
_atom_site_type_symbol
_atom_site_label
_atom_site_fract_x
_atom_site_fract_y
_atom_site_fract_z
Si Si1 0.368948 0.142590 0.429685
Si Si2 0.079391 0.155563 0.749892
Si Si3 0.507472 0.385902 0.545695
Si Si4 0.858678 0.957445 0.915088
Si Si5 0.832064 0.193936 0.258997
Si Si6 0.623290 0.099529 0.811515
Si Si7 0.500000 0.020311 0.750000
Si Si8 0.756856 0.428551 0.845171
O O1 0.387850 0.245505 0.343616
O O2 0.375017 0.148522 0.562127
O O3 0.287524 0.107185 0.444509
O O4 0.431137 0.054089 0.349011
O O5 0.000000 0.132399 0.750000
O O6 0.127211 0.053130 0.682942
O O7 0.054692 0.174200 0.904084
O O8 0.500000 0.500000 0.500000
O O9 0.563242 0.400818 0.608361
O O10 0.421626 0.340040 0.645799
O O11 0.809243 0.877391 0.885353
O O12 0.816487 0.999488 0.065513
O O13 0.833756 0.310891 0.294968
O O14 0.772895 0.164382 0.206632
O O15 0.539162 0.081784 0.823159
O O16 0.673384 0.995717 0.769319
#
# Coordination Sequence:
#
# PCOD9298939 Si02
#       8
#     8   8   8   8   8   8   4   8
#     4  11  24  43  71  95 132 177 226 277 332 402
#     4  12  21  38  66 101 128 169 224 277 330 395
#     4  12  22  39  65 101 136 174 218 283 338 393
#     4  12  23  40  65  94 141 176 221 278 340 403
#     4  12  25  42  67 100 137 177 225 277 341 404
#     4  11  26  46  69  98 136 177 227 278 337 399
#     4  10  24  46  70  98 130 178 224 282 336 402
#     4  11  25  45  64  97 135 181 223 278 333 404
#
# _framework density 23.234594000000001
#
# number of rings (size 3 to 8) (size 9 to 14) (size 15 to 20)
#    0.000    0.533    4.667    3.200    1.867    4.800 
#    0.000    0.000    0.000    0.000    0.000    0.000 
#    0.000    0.000    0.000    0.000    0.000    0.000 
#
# Total GULP energy -167701.065176 kJ/mol
# GULP energy per Si atom -5590.035506 kJ/mol
# Density = 2.318171 g / cm^3
# Si number density = 23.234594 Si / 1000 Ang^3
#
#
#
# Elastic Constant Matrix: (Units=GPa)
#
#
# Indices 1 2 3 4 5 6 
#
# 1 127.1374 30.4604 16.9428 0.0000 17.3713 0.0000
# 2 30.4604 91.4326 10.7837 0.0000 11.7405 0.0000
# 3 16.9428 10.7837 75.3472 0.0000 10.6429 0.0000
# 4 0.0000 0.0000 0.0000 24.3427 0.0000 5.0538
# 5 17.3713 11.7405 10.6429 0.0000 31.2603 0.0000
# 6 0.0000 0.0000 0.0000 5.0538 0.0000 13.4030
#
#
#
# Elastic Compliance Matrix: (Units=1/GPa)
#
#
# Indices 1 2 3 4 5 6 
#
# 1 0.009114 -0.002415 -0.001173 0.000000 -0.003758 0.000000
# 2 -0.002415 0.012217 -0.000785 0.000000 -0.002979 0.000000
# 3 -0.001173 -0.000785 0.014197 0.000000 -0.003887 0.000000
# 4 0.000000 0.000000 0.000000 0.044569 0.000000 -0.016806
# 5 -0.003758 -0.002979 -0.003887 0.000000 0.036520 0.000000
# 6 0.000000 0.000000 0.000000 -0.016806 0.000000 0.080947
#
#
# Mechanical properties :
#
#
# Convention : Reuss Voigt Hill
#
# Bulk Modulus (GPa) = 37.33839 45.58791 41.46315
# Shear Modulus (GPa) = 23.23021 29.51654 26.37338
#
# Velocity S-wave (km/s) = 3.16541 3.56809 3.37277
# Velocity P-wave (km/s) = 5.42815 6.05296 5.74905
#
# Compressibility (1/GPa) = 0.02678209
#
# Stress axis : x y z
#
# Youngs Moduli (GPa) = 109.72135 81.85486 70.43752
#
# Poissons Ratio (x) = 0.19771 0.08261
# Poissons Ratio (y) = 0.26502 0.05526
# Poissons Ratio (z) = 0.12869 0.06422
#
# Static dielectric constant tensor:
#      x y z
#    x 1.864070 0.000000 0.004790 
#    y 0.000000 1.926080 0.000000 
#    z 0.004790 0.000000 2.067030 
# 
# From -- ./inp_files/105707.got.cif
#   From: 2010.05.17/outbox.cif.g08.bks.cpg/sg15_53_cif.got.tgz:105707.got - 2010.06.03 18:47:42.
