data_PCOD9298502
_publ_section_title
;
Structure prediction by ZEFSAII (Michael W. Deem and Ramdas Pophale) SiO2 
 PCOD9298502
Probable space group: C 2/C
;
_chemical_formula_sum "Si O2"
_cell_formula_units_Z 36
_cell_length_a 11.550806
_cell_length_b 9.501542
_cell_length_c 18.760568
_cell_angle_alpha 90.000000
_cell_angle_beta 135.494788
_cell_angle_gamma 90.000000
_cell_volume 1443.292530
_symmetry_space_group_name_H-M "C 2/C"
_symmetry_group_IT_number 15
_symmetry_cell_setting 'monoclinic'
loop_
_space_group_symop_operation_xyz
x,y,z
-x,y,1/2-z
-x,-y,-z
x,-y,1/2+z
1/2+x,1/2+y,z
1/2-x,1/2+y,1/2-z
1/2-x,1/2-y,-z
1/2+x,1/2-y,1/2+z
loop_
_atom_site_type_symbol
_atom_site_label
_atom_site_fract_x
_atom_site_fract_y
_atom_site_fract_z
Si Si1 0.327490 0.486658 0.640112
Si Si2 0.000000 0.490915 0.250000
Si Si3 0.736814 0.723676 0.664261
Si Si4 0.129038 0.129652 0.979132
Si Si5 0.740799 0.210868 0.316847
O O1 0.500000 0.436943 0.750000
O O2 0.200241 0.367248 0.606863
O O3 0.334137 0.502750 0.558298
O O4 0.300139 0.637974 0.665904
O O5 0.149096 0.382826 0.329742
O O6 0.084048 0.605533 0.233594
O O7 0.564236 0.659090 0.613358
O O8 0.824089 0.759976 0.778174
O O9 0.250000 0.250000 0.000000
O O10 0.161662 0.131133 0.077749
#
# Coordination Sequence:
#
# PCOD9298502 Si02
#       5
#     8   4   8   8   8
#     4  11  21  45  70  97 138 183 226 283 345 404
#     4  12  26  42  68 104 138 186 236 282 344 410
#     4  12  25  44  72 102 141 187 229 287 349 411
#     4  10  24  44  72 104 139 182 232 288 347 413
#     4  11  23  44  71  99 139 184 232 281 344 416
#
# _framework density 24.942966999999999
#
# number of rings (size 3 to 8) (size 9 to 14) (size 15 to 20)
#    0.000    0.889    4.444    2.667    0.000    6.222 
#    0.000    2.222    0.000    0.000    0.000    0.000 
#    0.000    0.000    0.000    0.000    0.000    0.000 
#
# Total GULP energy -100477.409391 kJ/mol
# GULP energy per Si atom -5582.078299 kJ/mol
# Density = 2.488620 g / cm^3
# Si number density = 24.942967 Si / 1000 Ang^3
#
#
#
# Elastic Constant Matrix: (Units=GPa)
#
#
# Indices 1 2 3 4 5 6 
#
# 1 72.3263 44.7702 23.1369 0.0000 -11.3037 0.0000
# 2 44.7702 138.5677 14.7001 0.0000 -11.1142 0.0000
# 3 23.1369 14.7001 84.8561 0.0000 -31.0271 0.0000
# 4 0.0000 0.0000 0.0000 13.8482 0.0000 -12.5907
# 5 -11.3037 -11.1142 -31.0271 0.0000 27.3916 0.0000
# 6 0.0000 0.0000 0.0000 -12.5907 0.0000 6.9977
#
#
#
# Elastic Compliance Matrix: (Units=1/GPa)
#
#
# Indices 1 2 3 4 5 6 
#
# 1 0.018614 -0.005522 -0.003635 0.000000 0.001324 0.000000
# 2 -0.005522 0.009103 0.000761 0.000000 0.002277 0.000000
# 3 -0.003635 0.000761 0.020839 0.000000 0.022414 0.000000
# 4 0.000000 0.000000 0.000000 -0.113562 0.000000 -0.204328
# 5 0.001324 0.002277 0.022414 0.000000 0.063367 0.000000
# 6 0.000000 0.000000 0.000000 -0.204328 0.000000 -0.224736
#
#
# Mechanical properties :
#
#
# Convention : Reuss Voigt Hill
#
# Bulk Modulus (GPa) = 31.48107 51.21828 41.34967
# Shear Modulus (GPa) = -25.12619 23.85703 -0.63458
#
# Velocity S-wave (km/s) = -3.17731 3.09603 -0.50494
# Velocity P-wave (km/s) = 0.90101 5.77575 4.03407
#
# Compressibility (1/GPa) = 0.03176512
#
# Stress axis : x y z
#
# Youngs Moduli (GPa) = 53.72253 109.85655 47.98592
#
# Poissons Ratio (x) = 0.60667 0.17441
# Poissons Ratio (y) = 0.29667 -0.03653
# Poissons Ratio (z) = 0.19526 -0.08364
#
# Static dielectric constant tensor:
#      x y z
#    x 1.950630 0.000000 0.058290 
#    y 0.000000 2.027280 0.000000 
#    z 0.058290 0.000000 2.036090 
# 
# From -- ./inp_files/235964.got.cif
#   From: 2010.05.17/outbox.cif.g08.bks.cpg/sg15_118_cif.got.tgz:235964.got - 2010.06.03 18:47:42.
