data_PCOD9298041
_publ_section_title
;
Structure prediction by ZEFSAII (Michael W. Deem and Ramdas Pophale) SiO2 
 PCOD9298041
Probable space group: C 2/C
;
_chemical_formula_sum "Si O2"
_cell_formula_units_Z 40
_cell_length_a 15.665928
_cell_length_b 4.764388
_cell_length_c 25.366200
_cell_angle_alpha 90.000000
_cell_angle_beta 120.093523
_cell_angle_gamma 90.000000
_cell_volume 1638.095591
_symmetry_space_group_name_H-M "C 2/C"
_symmetry_group_IT_number 15
_symmetry_cell_setting 'monoclinic'
loop_
_space_group_symop_operation_xyz
x,y,z
-x,y,1/2-z
-x,-y,-z
x,-y,1/2+z
1/2+x,1/2+y,z
1/2-x,1/2+y,1/2-z
1/2-x,1/2-y,-z
1/2+x,1/2-y,1/2+z
loop_
_atom_site_type_symbol
_atom_site_label
_atom_site_fract_x
_atom_site_fract_y
_atom_site_fract_z
Si Si1 0.505661 0.583989 0.309888
Si Si2 0.706781 0.644588 0.263062
Si Si3 0.281706 0.393414 0.614909
Si Si4 0.903958 0.205134 0.572600
Si Si5 0.084011 0.695581 0.998850
O O1 0.500000 0.449127 0.250000
O O2 0.404777 0.751076 0.280122
O O3 0.609237 0.752909 0.347475
O O4 0.513100 0.352867 0.357726
O O5 0.775770 0.905885 0.274242
O O6 0.727001 0.513736 0.327036
O O7 0.307103 0.615559 0.576398
O O8 0.178673 0.263086 0.565763
O O9 0.889344 0.506589 0.543715
O O10 0.934143 0.995519 0.534004
O O11 0.000000 0.500000 0.000000
#
# Coordination Sequence:
#
# PCOD9298041 Si02
#       5
#     8   8   8   8   8
#     4   8  20  45  63  96 121 170 207 255 312 383
#     4  11  25  42  67  96 128 161 210 266 315 362
#     4   9  23  43  66  92 128 171 210 251 313 382
#     4  10  24  43  66  86 134 163 215 250 313 380
#     4  12  25  41  64  99 124 167 209 265 312 362
#
# _framework density 24.418596999999998
#
# number of rings (size 3 to 8) (size 9 to 14) (size 15 to 20)
#    1.200    0.800    0.000    1.800    5.600    3.200 
#    0.000    4.000    0.000    0.000    0.000    0.000 
#    0.000    0.000    0.000    0.000    0.000    0.000 
#
# Total GULP energy -111351.963090 kJ/mol
# GULP energy per Si atom -5567.598154 kJ/mol
# Density = 2.436302 g / cm^3
# Si number density = 24.418597 Si / 1000 Ang^3
#
#
#
# Elastic Constant Matrix: (Units=GPa)
#
#
# Indices 1 2 3 4 5 6 
#
# 1 89.7001 13.0637 46.2021 -0.0002 6.7113 0.0002
# 2 13.0637 71.6905 13.1947 -0.0006 -8.5978 0.0001
# 3 46.2021 13.1947 151.5791 -0.0001 18.2429 0.0002
# 4 -0.0002 -0.0006 -0.0001 17.3865 0.0000 -2.3618
# 5 6.7113 -8.5978 18.2429 0.0000 38.6169 0.0000
# 6 0.0002 0.0001 0.0002 -2.3618 0.0000 12.0636
#
#
#
# Elastic Compliance Matrix: (Units=1/GPa)
#
#
# Indices 1 2 3 4 5 6 
#
# 1 0.013462 -0.001862 -0.003827 0.000000 -0.000946 0.000000
# 2 -0.001862 0.015030 -0.001254 0.000001 0.004262 0.000000
# 3 -0.003827 -0.001254 0.008298 0.000000 -0.003534 0.000000
# 4 0.000000 0.000001 0.000000 0.059087 0.000000 0.011568
# 5 -0.000946 0.004262 -0.003534 0.000000 0.028678 0.000000
# 6 0.000000 0.000000 0.000000 0.011568 0.000000 0.085159
#
#
# Mechanical properties :
#
#
# Convention : Reuss Voigt Hill
#
# Bulk Modulus (GPa) = 43.66081 50.87675 47.26878
# Shear Modulus (GPa) = 21.62305 29.64736 25.63521
#
# Velocity S-wave (km/s) = 2.97899 3.48822 3.24361
# Velocity P-wave (km/s) = 5.45449 6.09131 5.78167
#
# Compressibility (1/GPa) = 0.02290384
#
# Stress axis : x y z
#
# Youngs Moduli (GPa) = 74.28591 66.53324 120.50745
#
# Poissons Ratio (x) = 0.12389 0.46120
# Poissons Ratio (y) = 0.13832 0.15109
# Poissons Ratio (z) = 0.28431 0.08342
#
# Static dielectric constant tensor:
#      x y z
#    x 2.082860 0.000000 -0.011460 
#    y 0.000000 1.931200 0.000000 
#    z -0.011460 0.000000 1.930520 
# 
# From -- ./inp_files/275742.got.cif
#   From: 2010.05.17/outbox.cif.g08.bks.cpg/sg15_138_cif.got.tgz:275742.got - 2010.06.03 18:47:42.
