data_PCOD9298407
_publ_section_title
;
Structure prediction by ZEFSAII (Michael W. Deem and Ramdas Pophale) SiO2 
 PCOD9298407
Probable space group: C 2/C
;
_chemical_formula_sum "Si O2"
_cell_formula_units_Z 48
_cell_length_a 11.433182
_cell_length_b 25.621910
_cell_length_c 14.438132
_cell_angle_alpha 90.000000
_cell_angle_beta 29.265782
_cell_angle_gamma 90.000000
_cell_volume 2067.642768
_symmetry_space_group_name_H-M "C 2/C"
_symmetry_group_IT_number 15
_symmetry_cell_setting 'monoclinic'
loop_
_space_group_symop_operation_xyz
x,y,z
-x,y,1/2-z
-x,-y,-z
x,-y,1/2+z
1/2+x,1/2+y,z
1/2-x,1/2+y,1/2-z
1/2-x,1/2-y,-z
1/2+x,1/2-y,1/2+z
loop_
_atom_site_type_symbol
_atom_site_label
_atom_site_fract_x
_atom_site_fract_y
_atom_site_fract_z
Si Si1 0.500218 0.298004 0.016416
Si Si2 0.747777 0.031115 0.977733
Si Si3 0.940029 0.628477 0.683005
Si Si4 0.227275 0.850595 0.026266
Si Si5 0.146810 0.322068 0.875646
Si Si6 0.722342 0.985676 0.185784
O O1 0.602812 0.319222 0.849544
O O2 0.265631 0.330524 0.201381
O O3 0.690026 0.311059 0.966956
O O4 0.436475 0.237653 0.051328
O O5 0.768418 0.088806 0.007845
O O6 0.000000 0.023704 0.750000
O O7 0.717962 0.987389 0.076446
O O8 0.472574 0.024663 0.130678
O O9 0.834791 0.571360 0.736860
O O10 0.000000 0.633389 0.750000
O O11 0.146579 0.643976 0.468549
O O12 0.000000 0.843696 0.250000
O O13 0.456676 0.843375 0.932134
O O14 0.000000 0.000000 0.000000
#
# Coordination Sequence:
#
# PCOD9298407 Si02
#       6
#     8   8   8   8   8   8
#     4  12  25  47  73 106 145 187 233 299 372 429
#     4  10  24  44  69 107 141 185 236 294 374 435
#     4  12  27  50  69 101 148 189 249 298 347 435
#     4  11  22  43  75 110 150 175 231 300 367 447
#     4  12  26  45  74 109 141 189 238 292 370 431
#     4  11  25  46  70  99 144 187 244 302 359 422
#
# _framework density 23.214842999999998
#
# number of rings (size 3 to 8) (size 9 to 14) (size 15 to 20)
#    0.000    0.667    5.000    2.000    9.333    3.333 
#    0.000    0.000    0.000    0.000    0.000    0.000 
#    0.000    0.000    0.000    0.000    0.000    0.000 
#
# Total GULP energy -133981.263916 kJ/mol
# GULP energy per Si atom -5582.552663 kJ/mol
# Density = 2.316200 g / cm^3
# Si number density = 23.214843 Si / 1000 Ang^3
#
#
#
# Elastic Constant Matrix: (Units=GPa)
#
#
# Indices 1 2 3 4 5 6 
#
# 1 33.9315 -24.0193 -3.4414 -0.0026 5.7668 0.0054
# 2 -24.0193 75.0870 9.5930 -0.0032 9.8810 0.0049
# 3 -3.4414 9.5930 142.5542 -0.0009 11.8951 0.0050
# 4 -0.0026 -0.0032 -0.0009 4.1555 -0.0008 23.7096
# 5 5.7668 9.8810 11.8951 -0.0008 38.7622 -0.0022
# 6 0.0054 0.0049 0.0050 23.7096 -0.0022 -10.8381
#
#
#
# Elastic Compliance Matrix: (Units=1/GPa)
#
#
# Indices 1 2 3 4 5 6 
#
# 1 0.041564 0.014520 0.000873 -0.000010 -0.010153 0.000008
# 2 0.014520 0.018912 -0.000349 -0.000006 -0.006874 0.000005
# 3 0.000873 -0.000349 0.007248 -0.000002 -0.002265 0.000001
# 4 -0.000010 -0.000006 -0.000002 0.017850 0.000006 0.039049
# 5 -0.010153 -0.006874 -0.002265 0.000006 0.029756 -0.000002
# 6 0.000008 0.000005 0.000001 0.039049 -0.000002 -0.006844
#
#
# Mechanical properties :
#
#
# Convention : Reuss Voigt Hill
#
# Bulk Modulus (GPa) = 10.22348 23.98193 17.10271
# Shear Modulus (GPa) = 45.04477 24.37862 34.71169
#
# Velocity S-wave (km/s) = 4.40971 3.24409 3.87102
# Velocity P-wave (km/s) = 5.50825 4.93812 5.23096
#
# Compressibility (1/GPa) = 0.09781401
#
# Stress axis : x y z
#
# Youngs Moduli (GPa) = 24.05949 52.87707 137.96052
#
# Poissons Ratio (x) = -0.76778 -0.12051
# Poissons Ratio (y) = -0.34935 0.04808
# Poissons Ratio (z) = -0.02102 0.01843
#
# Static dielectric constant tensor:
#      x y z
#    x 2.304150 0.000000 -0.205180 
#    y 0.000000 1.834310 0.000000 
#    z -0.205180 0.000000 1.955470 
# 
# From -- ./inp_files/148700.got.cif
#   From: 2010.05.17/outbox.cif.g08.bks.cpg/sg15_75_cif.got.tgz:148700.got - 2010.06.03 18:47:42.
