data_PCOD9298071
_publ_section_title
;
Structure prediction by ZEFSAII (Michael W. Deem and Ramdas Pophale) SiO2 
 PCOD9298071
Probable space group: C 2/C
;
_chemical_formula_sum "Si O2"
_cell_formula_units_Z 48
_cell_length_a 11.575755
_cell_length_b 8.234545
_cell_length_c 22.512439
_cell_angle_alpha 90.000000
_cell_angle_beta 102.465191
_cell_angle_gamma 90.000000
_cell_volume 2095.325051
_symmetry_space_group_name_H-M "C 2/C"
_symmetry_group_IT_number 15
_symmetry_cell_setting 'monoclinic'
loop_
_space_group_symop_operation_xyz
x,y,z
-x,y,1/2-z
-x,-y,-z
x,-y,1/2+z
1/2+x,1/2+y,z
1/2-x,1/2+y,1/2-z
1/2-x,1/2-y,-z
1/2+x,1/2-y,1/2+z
loop_
_atom_site_type_symbol
_atom_site_label
_atom_site_fract_x
_atom_site_fract_y
_atom_site_fract_z
Si Si1 0.963762 0.190435 0.101354
Si Si2 0.239559 0.013911 0.477621
Si Si3 0.711020 0.692553 0.306439
Si Si4 0.815978 0.950280 0.821782
Si Si5 0.834841 0.319753 0.594738
Si Si6 0.416383 0.960871 0.898339
O O1 0.885910 0.204144 0.152463
O O2 0.066506 0.060604 0.125299
O O3 0.031216 0.357808 0.096182
O O4 0.870255 0.134363 0.041464
O O5 0.202127 0.851430 0.437155
O O6 0.274137 0.958921 0.546949
O O7 0.354471 0.073792 0.454446
O O8 0.659942 0.633200 0.238568
O O9 0.812701 0.567786 0.339221
O O10 0.770989 0.868186 0.307902
O O11 0.714681 0.849189 0.845286
O O12 0.974025 0.345632 0.604274
#
# Coordination Sequence:
#
# PCOD9298071 Si02
#       6
#     8   8   8   8   8   8
#     4  11  23  44  67  94 130 169 216 265 324 386
#     4  10  24  43  67  96 131 171 212 265 325 387
#     4  11  26  43  66  94 130 171 218 266 325 385
#     4  12  24  44  67  94 131 173 215 269 323 384
#     4  11  23  43  66  97 131 169 217 265 322 387
#     4  11  22  45  67  95 131 168 212 268 322 385
#
# _framework density 22.908141000000001
#
# number of rings (size 3 to 8) (size 9 to 14) (size 15 to 20)
#    0.000    1.000    3.333    3.000    2.333    2.000 
#    6.000    0.000    0.000    0.000    0.000    0.000 
#    0.000    0.000    0.000    0.000    0.000    0.000 
#
# Total GULP energy -134475.631372 kJ/mol
# GULP energy per Si atom -5603.151307 kJ/mol
# Density = 2.285600 g / cm^3
# Si number density = 22.908141 Si / 1000 Ang^3
#
#
#
# Elastic Constant Matrix: (Units=GPa)
#
#
# Indices 1 2 3 4 5 6 
#
# 1 116.3257 33.9873 21.9076 0.0000 23.7987 0.0000
# 2 33.9873 68.6250 4.9631 0.0000 3.5775 0.0000
# 3 21.9076 4.9631 67.8423 0.0000 0.6197 0.0000
# 4 0.0000 0.0000 0.0000 29.9939 0.0000 4.5628
# 5 23.7987 3.5775 0.6197 0.0000 16.4802 0.0000
# 6 0.0000 0.0000 0.0000 4.5628 0.0000 29.6040
#
#
#
# Elastic Compliance Matrix: (Units=1/GPa)
#
#
# Indices 1 2 3 4 5 6 
#
# 1 0.015531 -0.006287 -0.004364 0.000000 -0.020899 0.000000
# 2 -0.006287 0.017359 0.000712 0.000000 0.005284 0.000000
# 3 -0.004364 0.000712 0.016047 0.000000 0.005545 0.000000
# 4 0.000000 0.000000 0.000000 0.034141 0.000000 -0.005262
# 5 -0.020899 0.005284 0.005545 0.000000 0.089503 0.000000
# 6 0.000000 0.000000 0.000000 -0.005262 0.000000 0.034590
#
#
# Mechanical properties :
#
#
# Convention : Reuss Voigt Hill
#
# Bulk Modulus (GPa) = 34.41412 41.61210 38.01311
# Shear Modulus (GPa) = 21.12068 28.01130 24.56599
#
# Velocity S-wave (km/s) = 3.03969 3.50060 3.27826
# Velocity P-wave (km/s) = 5.23211 5.87734 5.56408
#
# Compressibility (1/GPa) = 0.02905784
#
# Stress axis : x y z
#
# Youngs Moduli (GPa) = 64.38734 57.60834 62.31810
#
# Poissons Ratio (x) = 0.36217 0.27198
# Poissons Ratio (y) = 0.40479 -0.04437
# Poissons Ratio (z) = 0.28101 -0.04101
#
# Static dielectric constant tensor:
#      x y z
#    x 1.821310 0.000000 0.010000 
#    y 0.000000 1.870980 0.000000 
#    z 0.010000 0.000000 1.825120 
# 
# From -- ./inp_files/267795.got.cif
#   From: 2010.05.17/outbox.cif.g08.bks.cpg/sg15_134_cif.got.tgz:267795.got - 2010.06.03 18:47:42.
