data_PCOD9298792
_publ_section_title
;
Structure prediction by ZEFSAII (Michael W. Deem and Ramdas Pophale) SiO2 
 PCOD9298792
Probable space group: C 2/C
;
_chemical_formula_sum "Si O2"
_cell_formula_units_Z 28
_cell_length_a 19.166696
_cell_length_b 4.566398
_cell_length_c 12.736318
_cell_angle_alpha 90.000000
_cell_angle_beta 62.761935
_cell_angle_gamma 90.000000
_cell_volume 991.109470
_symmetry_space_group_name_H-M "C 2/C"
_symmetry_group_IT_number 15
_symmetry_cell_setting 'monoclinic'
loop_
_space_group_symop_operation_xyz
x,y,z
-x,y,1/2-z
-x,-y,-z
x,-y,1/2+z
1/2+x,1/2+y,z
1/2-x,1/2+y,1/2-z
1/2-x,1/2-y,-z
1/2+x,1/2-y,1/2+z
loop_
_atom_site_type_symbol
_atom_site_label
_atom_site_fract_x
_atom_site_fract_y
_atom_site_fract_z
Si Si1 0.000000 0.500000 0.000000
Si Si2 0.139597 0.350998 0.367399
Si Si3 0.553090 0.459594 0.114942
Si Si4 0.290123 0.553484 0.383866
O O1 0.914824 0.629019 0.117552
O O2 0.025853 0.278757 0.094150
O O3 0.218724 0.383296 0.378170
O O4 0.167537 0.218223 0.240618
O O5 0.066634 0.224840 0.494334
O O6 0.500000 0.377838 0.250000
O O7 0.639629 0.410480 0.102044
O O8 0.250000 0.750000 0.500000
#
# Coordination Sequence:
#
# PCOD9298792 Si02
#       4
#     4   8   8   8
#     4   8  24  44  72  98 144 178 242 292 348 442
#     4  10  25  42  68 103 142 180 245 290 346 440
#     4  10  24  45  74  98 141 187 235 294 361 416
#     4  12  26  42  71 102 143 191 233 298 361 417
#
# _framework density 28.251169999999998
#
# number of rings (size 3 to 8) (size 9 to 14) (size 15 to 20)
#    1.714    0.000    0.000    2.571    8.000    3.429 
#    0.000    0.000    0.000    0.000    0.000    0.000 
#    0.000    0.000    0.000    0.000    0.000    0.000 
#
# Total GULP energy -77982.637555 kJ/mol
# GULP energy per Si atom -5570.188397 kJ/mol
# Density = 2.818687 g / cm^3
# Si number density = 28.251170 Si / 1000 Ang^3
#
#
#
# Elastic Constant Matrix: (Units=GPa)
#
#
# Indices 1 2 3 4 5 6 
#
# 1 236.8821 13.9806 80.1647 0.0004 -8.3700 0.0003
# 2 13.9806 82.0406 94.2346 0.0015 6.2978 0.0035
# 3 80.1647 94.2346 301.1055 0.0001 -20.6706 0.0003
# 4 0.0004 0.0015 0.0001 81.9599 -0.0002 11.6213
# 5 -8.3700 6.2978 -20.6706 -0.0002 78.5252 0.0000
# 6 0.0003 0.0035 0.0003 11.6213 0.0000 31.0408
#
#
#
# Elastic Compliance Matrix: (Units=1/GPa)
#
#
# Indices 1 2 3 4 5 6 
#
# 1 0.004691 0.000989 -0.001558 0.000000 0.000011 0.000000
# 2 0.000989 0.020036 -0.006759 0.000000 -0.003281 -0.000002
# 3 -0.001558 -0.006759 0.005985 0.000000 0.001952 0.000001
# 4 0.000000 0.000000 0.000000 0.012885 0.000000 -0.004824
# 5 0.000011 -0.003281 0.001952 0.000000 0.013513 0.000000
# 6 0.000000 -0.000002 0.000001 -0.004824 0.000000 0.034022
#
#
# Mechanical properties :
#
#
# Convention : Reuss Voigt Hill
#
# Bulk Modulus (GPa) = 62.28044 110.75422 86.51733
# Shear Modulus (GPa) = 44.98879 67.08174 56.03526
#
# Velocity S-wave (km/s) = 3.99489 4.87815 4.45844
# Velocity P-wave (km/s) = 6.58574 8.42715 7.56270
#
# Compressibility (1/GPa) = 0.01605640
#
# Stress axis : x y z
#
# Youngs Moduli (GPa) = 213.19109 49.90999 167.08243
#
# Poissons Ratio (x) = -0.04936 0.26024
# Poissons Ratio (y) = -0.21083 1.12932
# Poissons Ratio (z) = 0.33206 0.33734
#
# Static dielectric constant tensor:
#      x y z
#    x 2.182620 0.000000 0.028630 
#    y 0.000000 2.287400 0.000000 
#    z 0.028630 0.000000 2.157180 
# 
# From -- ./inp_files/108965.got.cif
#   From: 2010.05.17/outbox.cif.g08.bks.cpg/sg15_55_cif.got.tgz:108965.got - 2010.06.03 18:47:42.
