data_PCOD9298552
_publ_section_title
;
Structure prediction by ZEFSAII (Michael W. Deem and Ramdas Pophale) SiO2 
 PCOD9298552
Probable space group: C 2/C
;
_chemical_formula_sum "Si O2"
_cell_formula_units_Z 36
_cell_length_a 19.309972
_cell_length_b 7.872043
_cell_length_c 8.455935
_cell_angle_alpha 90.000000
_cell_angle_beta 98.482519
_cell_angle_gamma 90.000000
_cell_volume 1271.316774
_symmetry_space_group_name_H-M "C 2/C"
_symmetry_group_IT_number 15
_symmetry_cell_setting 'monoclinic'
loop_
_space_group_symop_operation_xyz
x,y,z
-x,y,1/2-z
-x,-y,-z
x,-y,1/2+z
1/2+x,1/2+y,z
1/2-x,1/2+y,1/2-z
1/2-x,1/2-y,-z
1/2+x,1/2-y,1/2+z
loop_
_atom_site_type_symbol
_atom_site_label
_atom_site_fract_x
_atom_site_fract_y
_atom_site_fract_z
Si Si1 0.075992 0.253777 0.326758
Si Si2 0.278363 0.380984 0.135314
Si Si3 0.908181 0.066031 0.498218
Si Si4 0.000000 0.315400 0.750000
Si Si5 0.143093 0.435360 0.729147
O O1 0.125877 0.419155 0.362703
O O2 0.000000 0.316457 0.250000
O O3 0.057728 0.115288 0.455464
O O4 0.100761 0.146104 0.177816
O O5 0.332347 0.483540 0.046078
O O6 0.211141 0.472552 0.179693
O O7 0.325875 0.256529 0.256844
O O8 0.250000 0.250000 0.000000
O O9 0.948107 0.204114 0.620712
O O10 0.060603 0.405016 0.661250
#
# Coordination Sequence:
#
# PCOD9298552 Si02
#       5
#     8   8   8   4   8
#     4  12  24  44  71 107 143 187 238 295 362 422
#     4  11  24  46  70 100 144 187 241 298 350 437
#     4  11  25  45  72 105 147 184 242 298 356 429
#     4  10  24  44  74 106 144 188 236 308 352 430
#     4  11  24  46  72 104 143 189 239 296 364 418
#
# _framework density 28.317098000000001
#
# number of rings (size 3 to 8) (size 9 to 14) (size 15 to 20)
#    0.000    0.889    4.444    2.000    0.000    2.667 
#    4.000    2.222    0.000    0.000    0.000    0.000 
#    0.000    0.000    0.000    0.000    0.000    0.000 
#
# Total GULP energy -100221.483752 kJ/mol
# GULP energy per Si atom -5567.860208 kJ/mol
# Density = 2.825265 g / cm^3
# Si number density = 28.317098 Si / 1000 Ang^3
#
#
#
# Elastic Constant Matrix: (Units=GPa)
#
#
# Indices 1 2 3 4 5 6 
#
# 1 264.4542 51.9285 38.9626 0.0000 -41.3031 0.0000
# 2 51.9285 112.7495 37.4747 0.0000 -20.8801 0.0000
# 3 38.9626 37.4747 70.7501 0.0000 -4.2901 0.0000
# 4 0.0000 0.0000 0.0000 40.5969 0.0000 -2.0926
# 5 -41.3031 -20.8801 -4.2901 0.0000 54.6906 0.0000
# 6 0.0000 0.0000 0.0000 -2.0926 0.0000 71.6364
#
#
#
# Elastic Compliance Matrix: (Units=1/GPa)
#
#
# Indices 1 2 3 4 5 6 
#
# 1 0.004730 -0.000983 -0.001900 0.000000 0.003048 0.000000
# 2 -0.000983 0.011760 -0.005486 0.000000 0.003317 0.000000
# 3 -0.001900 -0.005486 0.017958 0.000000 -0.002121 0.000000
# 4 0.000000 0.000000 0.000000 0.024670 0.000000 0.000721
# 5 0.003048 0.003317 -0.002121 0.000000 0.021687 0.000000
# 6 0.000000 0.000000 0.000000 0.000721 0.000000 0.013980
#
#
# Mechanical properties :
#
#
# Convention : Reuss Voigt Hill
#
# Bulk Modulus (GPa) = 56.46485 78.29836 67.38161
# Shear Modulus (GPa) = 42.58007 54.69062 48.63535
#
# Velocity S-wave (km/s) = 3.88195 4.39950 4.14880
# Velocity P-wave (km/s) = 6.33057 7.31560 6.84084
#
# Compressibility (1/GPa) = 0.01771013
#
# Stress axis : x y z
#
# Youngs Moduli (GPa) = 211.40327 85.03626 55.68583
#
# Poissons Ratio (x) = 0.08357 0.10578
# Poissons Ratio (y) = 0.20775 0.30552
# Poissons Ratio (z) = 0.40159 0.46655
#
# Static dielectric constant tensor:
#      x y z
#    x 1.292730 0.000000 -0.291840 
#    y 0.000000 4.662420 0.000000 
#    z -0.291840 0.000000 2.195540 
# 
# From -- ./inp_files/109362.got.cif
#   From: 2010.05.17/outbox.cif.g08.bks.cpg/sg15_55_cif.got.tgz:109362.got - 2010.06.03 18:47:42.
