data_PCOD9298594
_publ_section_title
;
Structure prediction by ZEFSAII (Michael W. Deem and Ramdas Pophale) SiO2 
 PCOD9298594
Probable space group: C 2/C
;
_chemical_formula_sum "Si O2"
_cell_formula_units_Z 28
_cell_length_a 5.203100
_cell_length_b 29.510725
_cell_length_c 8.362737
_cell_angle_alpha 90.000000
_cell_angle_beta 62.408781
_cell_angle_gamma 90.000000
_cell_volume 1138.043284
_symmetry_space_group_name_H-M "C 2/C"
_symmetry_group_IT_number 15
_symmetry_cell_setting 'monoclinic'
loop_
_space_group_symop_operation_xyz
x,y,z
-x,y,1/2-z
-x,-y,-z
x,-y,1/2+z
1/2+x,1/2+y,z
1/2-x,1/2+y,1/2-z
1/2-x,1/2-y,-z
1/2+x,1/2-y,1/2+z
loop_
_atom_site_type_symbol
_atom_site_label
_atom_site_fract_x
_atom_site_fract_y
_atom_site_fract_z
Si Si1 0.500000 0.788788 0.750000
Si Si2 0.500000 0.510884 0.750000
Si Si3 0.263201 0.944657 0.447898
Si Si4 0.500000 0.226906 0.750000
Si Si5 0.717525 0.842947 0.945498
O O1 0.223840 0.757723 0.786869
O O2 0.459514 0.823506 0.908725
O O3 0.731847 0.473604 0.617046
O O4 0.505593 0.544051 0.592652
O O5 0.500000 0.960128 0.250000
O O6 0.313766 0.892830 0.476068
O O7 0.706993 0.194246 0.587523
O O8 0.000000 0.843823 0.750000
#
# Coordination Sequence:
#
# PCOD9298594 Si02
#       5
#     4   4   8   4   8
#     4  12  28  51  78 109 150 203 254 309 374 446
#     4  10  24  44  78 100 150 190 250 288 378 446
#     4  11  23  47  70 111 141 195 239 308 366 448
#     4  12  28  51  78 107 150 203 254 309 374 440
#     4  12  27  46  74 110 150 195 252 311 373 444
#
# _framework density 24.603632000000001
#
# number of rings (size 3 to 8) (size 9 to 14) (size 15 to 20)
#    0.000    0.571    4.286    2.571    4.000    3.429 
#    2.571    0.000    0.000    0.000    0.000    0.000 
#    0.000    0.000    0.000    0.000    0.000    0.000 
#
# Total GULP energy -78040.025744 kJ/mol
# GULP energy per Si atom -5574.287553 kJ/mol
# Density = 2.454763 g / cm^3
# Si number density = 24.603632 Si / 1000 Ang^3
#
#
#
# Elastic Constant Matrix: (Units=GPa)
#
#
# Indices 1 2 3 4 5 6 
#
# 1 86.3600 81.6920 38.2148 0.0000 7.2259 0.0000
# 2 81.6920 229.5095 81.4699 0.0000 33.9923 0.0000
# 3 38.2148 81.4699 170.3386 0.0000 -7.2908 0.0000
# 4 0.0000 0.0000 0.0000 69.6101 0.0000 12.3983
# 5 7.2259 33.9923 -7.2908 0.0000 38.9183 0.0000
# 6 0.0000 0.0000 0.0000 12.3983 0.0000 22.3713
#
#
#
# Elastic Compliance Matrix: (Units=1/GPa)
#
#
# Indices 1 2 3 4 5 6 
#
# 1 0.017773 -0.006319 -0.000877 0.000000 0.002055 0.000000
# 2 -0.006319 0.008734 -0.003060 0.000000 -0.007028 0.000000
# 3 -0.000877 -0.003060 0.007714 0.000000 0.004281 0.000000
# 4 0.000000 0.000000 0.000000 0.015939 0.000000 -0.008834
# 5 0.002055 -0.007028 0.004281 0.000000 0.032254 0.000000
# 6 0.000000 0.000000 0.000000 -0.008834 0.000000 0.049596
#
#
# Mechanical properties :
#
#
# Convention : Reuss Voigt Hill
#
# Bulk Modulus (GPa) = 72.94943 98.77348 85.86145
# Shear Modulus (GPa) = 31.82833 45.16868 38.49851
#
# Velocity S-wave (km/s) = 3.60063 4.28934 3.95998
# Velocity P-wave (km/s) = 6.85567 8.04762 7.47544
#
# Compressibility (1/GPa) = 0.01370813
#
# Stress axis : x y z
#
# Youngs Moduli (GPa) = 56.26407 114.49887 129.62926
#
# Poissons Ratio (x) = 0.72356 0.11368
# Poissons Ratio (y) = 0.35555 0.39670
# Poissons Ratio (z) = 0.04934 0.35040
#
# Static dielectric constant tensor:
#      x y z
#    x -56.473470 0.000000 -5.122990 
#    y 0.000000 1.894370 0.000000 
#    z -5.122990 0.000000 1.563390 
# 
# From -- ./inp_files/19893.got.cif
#   From: 2010.05.17/outbox.cif.g08.bks.cpg/sg15_10_cif.got.tgz:19893.got - 2010.06.03 18:47:42.
