data_PCOD9298749
_publ_section_title
;
Structure prediction by ZEFSAII (Michael W. Deem and Ramdas Pophale) SiO2 
 PCOD9298749
Probable space group: C 2/C
;
_chemical_formula_sum "Si O2"
_cell_formula_units_Z 24
_cell_length_a 18.522475
_cell_length_b 5.596436
_cell_length_c 17.121183
_cell_angle_alpha 90.000000
_cell_angle_beta 31.793786
_cell_angle_gamma 90.000000
_cell_volume 935.066585
_symmetry_space_group_name_H-M "C 2/C"
_symmetry_group_IT_number 15
_symmetry_cell_setting 'monoclinic'
loop_
_space_group_symop_operation_xyz
x,y,z
-x,y,1/2-z
-x,-y,-z
x,-y,1/2+z
1/2+x,1/2+y,z
1/2-x,1/2+y,1/2-z
1/2-x,1/2-y,-z
1/2+x,1/2-y,1/2+z
loop_
_atom_site_type_symbol
_atom_site_label
_atom_site_fract_x
_atom_site_fract_y
_atom_site_fract_z
Si Si1 0.346992 0.203112 0.799536
Si Si2 0.342932 0.071754 0.463616
Si Si3 0.069929 0.006021 0.519409
O O1 0.493511 0.278405 0.630200
O O2 0.367890 0.110652 0.868303
O O3 0.259199 0.446095 0.882297
O O4 0.234721 0.031449 0.861961
O O5 0.250000 0.250000 0.500000
O O6 0.447890 0.250479 0.412414
O O7 0.000000 0.000000 0.500000
#
# Coordination Sequence:
#
# PCOD9298749 Si02
#       3
#     8   8   8
#     4  10  24  45  72 106 144 198 250 308 377 451
#     4   9  22  44  72 102 143 189 249 303 370 455
#     4  11  26  44  73 109 150 195 249 317 385 444
#
# _framework density 25.666619000000001
#
# number of rings (size 3 to 8) (size 9 to 14) (size 15 to 20)
#    0.000    2.000    0.000    0.000    4.667   21.333 
#    0.000    0.000    0.000    0.000    0.000    0.000 
#    0.000    0.000    0.000    0.000    0.000    0.000 
#
# Total GULP energy -66871.225295 kJ/mol
# GULP energy per Si atom -5572.602108 kJ/mol
# Density = 2.560820 g / cm^3
# Si number density = 25.666619 Si / 1000 Ang^3
#
#
#
# Elastic Constant Matrix: (Units=GPa)
#
#
# Indices 1 2 3 4 5 6 
#
# 1 228.0436 35.1493 31.4519 -0.0004 -14.1540 -0.0008
# 2 35.1493 99.9903 14.0326 -0.0091 -1.1238 0.0037
# 3 31.4519 14.0326 95.3870 -0.0016 -36.1243 0.0013
# 4 -0.0004 -0.0091 -0.0016 27.5860 0.0012 -12.0472
# 5 -14.1540 -1.1238 -36.1243 0.0012 44.1249 0.0004
# 6 -0.0008 0.0037 0.0013 -12.0472 0.0004 40.9678
#
#
#
# Elastic Compliance Matrix: (Units=1/GPa)
#
#
# Indices 1 2 3 4 5 6 
#
# 1 0.004814 -0.001525 -0.001149 0.000000 0.000564 0.000000
# 2 -0.001525 0.010755 -0.001683 0.000004 -0.001593 0.000000
# 3 -0.001149 -0.001683 0.015877 0.000000 0.012587 -0.000001
# 4 0.000000 0.000004 0.000000 0.041592 -0.000002 0.012231
# 5 0.000564 -0.001593 0.012587 -0.000002 0.033108 -0.000001
# 6 0.000000 0.000000 -0.000001 0.012231 -0.000001 0.028006
#
#
# Mechanical properties :
#
#
# Convention : Reuss Voigt Hill
#
# Bulk Modulus (GPa) = 43.98940 64.96540 54.47740
# Shear Modulus (GPa) = 33.23559 45.38823 39.31191
#
# Velocity S-wave (km/s) = 3.60237 4.20977 3.91786
# Velocity P-wave (km/s) = 5.87186 6.99969 6.46044
#
# Compressibility (1/GPa) = 0.02273275
#
# Stress axis : x y z
#
# Youngs Moduli (GPa) = 207.74337 92.97894 62.98523
#
# Poissons Ratio (x) = 0.14175 0.07238
# Poissons Ratio (y) = 0.31671 0.10599
# Poissons Ratio (z) = 0.23873 0.15646
#
# Static dielectric constant tensor:
#      x y z
#    x 1.916990 0.000010 0.067690 
#    y 0.000010 0.724810 -0.000030 
#    z 0.067690 -0.000030 1.810240 
# 
# From -- ./inp_files/217361.got.cif
#   From: 2010.05.17/outbox.cif.g08.bks.cpg/sg15_109_cif.got.tgz:217361.got - 2010.06.03 18:47:42.
