data_PCOD9298542
_publ_section_title
;
Structure prediction by ZEFSAII (Michael W. Deem and Ramdas Pophale) SiO2 
 PCOD9298542
Probable space group: C 2/C
;
_chemical_formula_sum "Si O2"
_cell_formula_units_Z 60
_cell_length_a 23.121626
_cell_length_b 11.288146
_cell_length_c 21.608969
_cell_angle_alpha 90.000000
_cell_angle_beta 149.959207
_cell_angle_gamma 90.000000
_cell_volume 2823.450386
_symmetry_space_group_name_H-M "C 2/C"
_symmetry_group_IT_number 15
_symmetry_cell_setting 'monoclinic'
loop_
_space_group_symop_operation_xyz
x,y,z
-x,y,1/2-z
-x,-y,-z
x,-y,1/2+z
1/2+x,1/2+y,z
1/2-x,1/2+y,1/2-z
1/2-x,1/2-y,-z
1/2+x,1/2-y,1/2+z
loop_
_atom_site_type_symbol
_atom_site_label
_atom_site_fract_x
_atom_site_fract_y
_atom_site_fract_z
Si Si1 0.500000 0.979592 0.750000
Si Si2 0.801906 0.026464 0.425853
Si Si3 0.743533 0.107295 0.994720
Si Si4 0.764533 0.077285 0.156709
Si Si5 0.085731 0.312689 0.721896
Si Si6 0.261928 0.680609 0.797248
Si Si7 0.075244 0.402924 0.034155
Si Si8 0.558557 0.588921 0.635936
O O1 0.521631 0.890170 0.713695
O O2 0.611833 0.061120 0.864259
O O3 0.715172 0.137318 0.344325
O O4 0.922943 0.067434 0.509777
O O5 0.809710 0.962894 0.500640
O O6 0.746054 0.927663 0.329864
O O7 0.750000 0.250000 0.000000
O O8 0.782819 0.079259 0.100543
O O9 0.724962 0.200530 0.150869
O O10 0.670215 0.977356 0.084389
O O11 0.880935 0.037122 0.298231
O O12 0.085514 0.171106 0.721133
O O13 0.012858 0.338502 0.592568
O O14 0.149705 0.679837 0.648886
O O15 0.372964 0.648142 0.858014
O O16 0.000000 0.500000 0.000000
#
# Coordination Sequence:
#
# PCOD9298542 Si02
#       8
#     4   8   8   8   8   8   8   8
#     4  10  24  44  74 100 140 186 242 292 350 426
#     4  11  25  45  69 105 138 188 235 291 358 414
#     4  11  23  45  72 104 142 182 238 297 357 425
#     4  11  25  45  69 107 137 186 234 288 366 413
#     4  11  24  45  69  99 136 186 235 286 347 418
#     4  11  24  44  69 100 142 180 230 296 352 420
#     4  11  22  40  69  95 135 182 230 273 352 426
#     4  11  28  43  72 100 146 182 238 292 347 430
#
# _framework density 21.250595000000001
#
# number of rings (size 3 to 8) (size 9 to 14) (size 15 to 20)
#    0.000    1.067    4.000    1.200    5.600    4.800 
#    0.000    2.667    0.000    0.000    0.000    0.000 
#    0.000    0.000    0.000    0.000    0.000    0.000 
#
# Total GULP energy -167605.023409 kJ/mol
# GULP energy per Si atom -5586.834114 kJ/mol
# Density = 2.120223 g / cm^3
# Si number density = 21.250595 Si / 1000 Ang^3
#
#
#
# Elastic Constant Matrix: (Units=GPa)
#
#
# Indices 1 2 3 4 5 6 
#
# 1 86.1202 7.5720 44.0852 0.0000 -9.8100 0.0000
# 2 7.5720 73.1993 10.9045 0.0000 -11.0686 0.0000
# 3 44.0852 10.9045 63.0511 0.0000 -10.9532 0.0000
# 4 0.0000 0.0000 0.0000 20.1177 0.0000 -3.8173
# 5 -9.8100 -11.0686 -10.9532 0.0000 34.4320 0.0000
# 6 0.0000 0.0000 0.0000 -3.8173 0.0000 29.8261
#
#
#
# Elastic Compliance Matrix: (Units=1/GPa)
#
#
# Indices 1 2 3 4 5 6 
#
# 1 0.018133 0.000174 -0.012492 0.000000 0.001248 0.000000
# 2 0.000174 0.014552 -0.001923 0.000000 0.004116 0.000000
# 3 -0.012492 -0.001923 0.025617 0.000000 0.003972 0.000000
# 4 0.000000 0.000000 0.000000 0.050945 0.000000 0.006520
# 5 0.001248 0.004116 0.003972 0.000000 0.031985 0.000000
# 6 0.000000 0.000000 0.000000 0.006520 0.000000 0.034362
#
#
# Mechanical properties :
#
#
# Convention : Reuss Voigt Hill
#
# Bulk Modulus (GPa) = 33.53481 38.61043 36.07262
# Shear Modulus (GPa) = 23.36262 27.52909 25.44585
#
# Velocity S-wave (km/s) = 3.31930 3.60314 3.46413
# Velocity P-wave (km/s) = 5.52315 5.95976 5.74560
#
# Compressibility (1/GPa) = 0.02981976
#
# Stress axis : x y z
#
# Youngs Moduli (GPa) = 55.14730 68.71812 39.03640
#
# Poissons Ratio (x) = -0.01195 0.48764
# Poissons Ratio (y) = -0.00959 0.07508
# Poissons Ratio (z) = 0.68890 0.13217
#
# Static dielectric constant tensor:
#      x y z
#    x 1.791660 0.000000 0.006820 
#    y 0.000000 1.883490 0.000000 
#    z 0.006820 0.000000 1.841370 
# 
# From -- ./inp_files/255573.got.cif
#   From: 2010.05.17/outbox.cif.g08.bks.cpg/sg15_128_cif.got.tgz:255573.got - 2010.06.03 18:47:42.
