data_PCOD9298070
_publ_section_title
;
Structure prediction by ZEFSAII (Michael W. Deem and Ramdas Pophale) SiO2 
 PCOD9298070
Probable space group: C 2/C
;
_chemical_formula_sum "Si O2"
_cell_formula_units_Z 44
_cell_length_a 11.712603
_cell_length_b 14.895530
_cell_length_c 12.993452
_cell_angle_alpha 90.000000
_cell_angle_beta 80.428411
_cell_angle_gamma 90.000000
_cell_volume 2235.349671
_symmetry_space_group_name_H-M "C 2/C"
_symmetry_group_IT_number 15
_symmetry_cell_setting 'monoclinic'
loop_
_space_group_symop_operation_xyz
x,y,z
-x,y,1/2-z
-x,-y,-z
x,-y,1/2+z
1/2+x,1/2+y,z
1/2-x,1/2+y,1/2-z
1/2-x,1/2-y,-z
1/2+x,1/2-y,1/2+z
loop_
_atom_site_type_symbol
_atom_site_label
_atom_site_fract_x
_atom_site_fract_y
_atom_site_fract_z
Si Si1 0.736203 0.603859 0.497628
Si Si2 0.225835 0.460088 0.168918
Si Si3 0.000000 0.654410 0.750000
Si Si4 0.378048 0.527240 0.328866
Si Si5 0.916880 0.745245 0.559494
Si Si6 0.649772 0.321935 0.489968
O O1 0.794963 0.526596 0.422687
O O2 0.649161 0.557528 0.592028
O O3 0.834430 0.665497 0.533260
O O4 0.661137 0.666314 0.433735
O O5 0.279844 0.514779 0.255987
O O6 0.314169 0.386102 0.109701
O O7 0.109608 0.408205 0.212771
O O8 0.034647 0.717401 0.838393
O O9 0.500000 0.525730 0.250000
O O10 0.369282 0.613421 0.406630
O O11 0.032822 0.768821 0.479785
O O12 0.750000 0.250000 0.500000
#
# Coordination Sequence:
#
# PCOD9298070 Si02
#       6
#     8   8   4   8   8   8
#     4  10  24  43  67  94 134 165 216 271 321 381
#     4  11  24  42  64  97 128 172 217 263 325 385
#     4  12  24  40  68  90 132 174 216 260 324 392
#     4  11  23  42  68  95 129 173 220 263 325 390
#     4  11  23  43  65  96 125 173 210 271 321 376
#     4  11  24  40  66  96 131 169 215 270 320 384
#
# _framework density 19.683720999999998
#
# number of rings (size 3 to 8) (size 9 to 14) (size 15 to 20)
#    0.000    1.091    3.636    2.182    3.818    5.091 
#    0.000    0.000    4.000    0.000    0.000    0.000 
#    0.000    0.000    0.000    0.000    0.000    0.000 
#
# Total GULP energy -122854.596733 kJ/mol
# GULP energy per Si atom -5584.299851 kJ/mol
# Density = 1.963892 g / cm^3
# Si number density = 19.683721 Si / 1000 Ang^3
#
#
#
# Elastic Constant Matrix: (Units=GPa)
#
#
# Indices 1 2 3 4 5 6 
#
# 1 114.7803 42.6169 34.9933 0.0000 -13.2028 0.0000
# 2 42.6169 92.5755 26.5886 0.0000 -18.3114 0.0000
# 3 34.9933 26.5886 69.9093 0.0000 -15.8526 0.0000
# 4 0.0000 0.0000 0.0000 -45.9759 0.0000 72.1710
# 5 -13.2028 -18.3114 -15.8526 0.0000 33.3162 0.0000
# 6 0.0000 0.0000 0.0000 72.1710 0.0000 -89.2272
#
#
#
# Elastic Compliance Matrix: (Units=1/GPa)
#
#
# Indices 1 2 3 4 5 6 
#
# 1 0.011518 -0.004038 -0.004145 0.000000 0.000373 0.000000
# 2 -0.004038 0.014338 -0.002250 0.000000 0.005209 0.000000
# 3 -0.004145 -0.002250 0.018588 0.000000 0.005965 0.000000
# 4 0.000000 0.000000 0.000000 0.080650 0.000000 0.065233
# 5 0.000373 0.005209 0.005965 0.000000 0.035864 0.000000
# 6 0.000000 0.000000 0.000000 0.065233 0.000000 0.041556
#
#
# Mechanical properties :
#
#
# Convention : Reuss Voigt Hill
#
# Bulk Modulus (GPa) = 42.41605 53.96254 48.18930
# Shear Modulus (GPa) = 21.62253 -8.83963 6.39145
#
# Velocity S-wave (km/s) = 3.31796 -2.12146 1.80392
# Velocity P-wave (km/s) = 6.02279 4.63396 5.37343
#
# Compressibility (1/GPa) = 0.02357598
#
# Stress axis : x y z
#
# Youngs Moduli (GPa) = 86.81882 69.74628 53.79917
#
# Poissons Ratio (x) = 0.28165 0.22301
# Poissons Ratio (y) = 0.35059 0.12107
# Poissons Ratio (z) = 0.35988 0.15696
#
# Static dielectric constant tensor:
#      x y z
#    x 1.672990 0.000000 -0.010270 
#    y 0.000000 1.699460 0.000000 
#    z -0.010270 0.000000 1.703250 
# 
# From -- ./inp_files/86092.got.cif
#   From: 2010.05.17/outbox.cif.g08.bks.cpg/sg15_44_cif.got.tgz:86092.got - 2010.06.03 18:47:42.
