data_PCOD9298244
_publ_section_title
;
Structure prediction by ZEFSAII (Michael W. Deem and Ramdas Pophale) SiO2 
 PCOD9298244
Probable space group: C 2/C
;
_chemical_formula_sum "Si O2"
_cell_formula_units_Z 32
_cell_length_a 6.964705
_cell_length_b 22.772669
_cell_length_c 8.800514
_cell_angle_alpha 90.000000
_cell_angle_beta 119.129954
_cell_angle_gamma 90.000000
_cell_volume 1219.260436
_symmetry_space_group_name_H-M "C 2/C"
_symmetry_group_IT_number 15
_symmetry_cell_setting 'monoclinic'
loop_
_space_group_symop_operation_xyz
x,y,z
-x,y,1/2-z
-x,-y,-z
x,-y,1/2+z
1/2+x,1/2+y,z
1/2-x,1/2+y,1/2-z
1/2-x,1/2-y,-z
1/2+x,1/2-y,1/2+z
loop_
_atom_site_type_symbol
_atom_site_label
_atom_site_fract_x
_atom_site_fract_y
_atom_site_fract_z
Si Si1 0.284623 0.660455 0.086359
Si Si2 0.398659 0.690672 0.547629
Si Si3 0.500000 0.470543 0.250000
Si Si4 0.706114 0.953408 0.411108
Si Si5 0.000000 0.666140 0.250000
O O1 0.500000 0.632435 0.250000
O O2 0.145831 0.691329 0.165064
O O3 0.405132 0.695290 0.999202
O O4 0.141845 0.608443 0.961049
O O5 0.500000 0.680334 0.750000
O O6 0.250000 0.750000 0.500000
O O7 0.213942 0.642413 0.424280
O O8 0.372490 0.439034 0.337464
O O9 0.676373 0.508924 0.413937
O O10 0.500000 0.983569 0.250000
#
# Coordination Sequence:
#
# PCOD9298244 Si02
#       5
#     8   8   4   8   4
#     4  10  24  44  67  97 134 174 229 276 332 405
#     4  11  24  44  68  98 130 173 221 277 343 402
#     4  10  24  44  63  96 146 170 224 279 332 404
#     4  11  23  42  67  98 130 184 220 277 335 398
#     4  10  24  46  61  94 134 174 218 283 328 396
#
# _framework density 26.245418999999998
#
# number of rings (size 3 to 8) (size 9 to 14) (size 15 to 20)
#    0.000    1.500    2.500    0.750    5.250    3.000 
#    6.750    0.000    0.000    0.000    0.000    0.000 
#    0.000    0.000    0.000    0.000    0.000    0.000 
#
# Total GULP energy -89176.886671 kJ/mol
# GULP energy per Si atom -5573.555417 kJ/mol
# Density = 2.618568 g / cm^3
# Si number density = 26.245419 Si / 1000 Ang^3
#
#
#
# Elastic Constant Matrix: (Units=GPa)
#
#
# Indices 1 2 3 4 5 6 
#
# 1 208.2002 21.6178 74.1770 0.0000 -42.7904 0.0000
# 2 21.6178 51.9560 29.8416 0.0000 -12.6431 0.0000
# 3 74.1770 29.8416 228.5329 0.0000 10.9437 0.0000
# 4 0.0000 0.0000 0.0000 8.5264 0.0000 -3.9545
# 5 -42.7904 -12.6431 10.9437 0.0000 80.9421 0.0000
# 6 0.0000 0.0000 0.0000 -3.9545 0.0000 14.2762
#
#
#
# Elastic Compliance Matrix: (Units=1/GPa)
#
#
# Indices 1 2 3 4 5 6 
#
# 1 0.006365 -0.000534 -0.002168 0.000000 0.003575 0.000000
# 2 -0.000534 0.021976 -0.002866 0.000000 0.003538 0.000000
# 3 -0.002168 -0.002866 0.005566 0.000000 -0.002346 0.000000
# 4 0.000000 0.000000 0.000000 0.134570 0.000000 0.037276
# 5 0.003575 0.003538 -0.002346 0.000000 0.015114 0.000000
# 6 0.000000 0.000000 0.000000 0.037276 0.000000 0.080372
#
#
# Mechanical properties :
#
#
# Convention : Reuss Voigt Hill
#
# Bulk Modulus (GPa) = 43.91111 82.21798 63.06454
# Shear Modulus (GPa) = 17.68727 44.95244 31.31986
#
# Velocity S-wave (km/s) = 2.59881 4.14306 3.45823
# Velocity P-wave (km/s) = 5.07665 7.36757 6.32667
#
# Compressibility (1/GPa) = 0.02277328
#
# Stress axis : x y z
#
# Youngs Moduli (GPa) = 157.09756 45.50400 179.66668
#
# Poissons Ratio (x) = 0.02428 0.38945
# Poissons Ratio (y) = 0.08383 0.51489
# Poissons Ratio (z) = 0.34053 0.13041
#
# Static dielectric constant tensor:
#      x y z
#    x 2.025350 0.000000 0.054120 
#    y 0.000000 2.163010 0.000000 
#    z 0.054120 0.000000 2.120180 
# 
# From -- ./inp_files/20163.got.cif
#   From: 2010.05.17/outbox.cif.g08.bks.cpg/sg15_11_cif.got.tgz:20163.got - 2010.06.03 18:47:42.
