data_PCOD9298543
_publ_section_title
;
Structure prediction by ZEFSAII (Michael W. Deem and Ramdas Pophale) SiO2 
 PCOD9298543
Probable space group: C 2/C
;
_chemical_formula_sum "Si O2"
_cell_formula_units_Z 36
_cell_length_a 20.535862
_cell_length_b 10.867424
_cell_length_c 8.227517
_cell_angle_alpha 90.000000
_cell_angle_beta 120.061900
_cell_angle_gamma 90.000000
_cell_volume 1589.160427
_symmetry_space_group_name_H-M "C 2/C"
_symmetry_group_IT_number 15
_symmetry_cell_setting 'monoclinic'
loop_
_space_group_symop_operation_xyz
x,y,z
-x,y,1/2-z
-x,-y,-z
x,-y,1/2+z
1/2+x,1/2+y,z
1/2-x,1/2+y,1/2-z
1/2-x,1/2-y,-z
1/2+x,1/2-y,1/2+z
loop_
_atom_site_type_symbol
_atom_site_label
_atom_site_fract_x
_atom_site_fract_y
_atom_site_fract_z
Si Si1 0.500000 0.548955 0.250000
Si Si2 0.457919 0.113721 0.866322
Si Si3 0.082635 0.147500 0.069698
Si Si4 0.756260 0.129927 0.393998
Si Si5 0.291919 0.120819 0.509862
O O1 0.565252 0.622047 0.237431
O O2 0.542487 0.460507 0.425202
O O3 0.500000 0.140319 0.750000
O O4 0.457703 0.222095 0.999741
O O5 0.370227 0.106397 0.704357
O O6 0.500000 0.000000 0.000000
O O7 0.166532 0.145268 0.109665
O O8 0.750000 0.250000 0.500000
O O9 0.753003 0.003491 0.493311
O O10 0.696451 0.123041 0.170897
O O11 0.250000 0.250000 0.500000
#
# Coordination Sequence:
#
# PCOD9298543 Si02
#       5
#     4   8   8   8   8
#     4  10  24  44  74 100 148 186 254 314 398 464
#     4  12  28  47  74 108 159 205 259 322 405 482
#     4  11  24  47  71 109 142 202 249 324 391 474
#     4  12  27  47  78 112 156 202 271 331 403 479
#     4  12  26  49  76 113 156 211 270 331 401 489
#
# _framework density 22.653471
#
# number of rings (size 3 to 8) (size 9 to 14) (size 15 to 20)
#    0.000    0.444    3.333    4.000    4.667    1.778 
#    0.000    0.000    0.000    0.000    0.000    0.000 
#    0.000    0.000    0.000    0.000    0.000    0.000 
#
# Total GULP energy -100516.720381 kJ/mol
# GULP energy per Si atom -5584.262243 kJ/mol
# Density = 2.260191 g / cm^3
# Si number density = 22.653471 Si / 1000 Ang^3
#
#
#
# Elastic Constant Matrix: (Units=GPa)
#
#
# Indices 1 2 3 4 5 6 
#
# 1 152.9735 78.4947 38.4179 0.0000 -1.3385 0.0000
# 2 78.4947 196.4431 56.0464 0.0000 -9.5848 0.0000
# 3 38.4179 56.0464 97.5406 0.0000 -17.4266 0.0000
# 4 0.0000 0.0000 0.0000 47.3287 0.0000 -15.3700
# 5 -1.3385 -9.5848 -17.4266 0.0000 33.1574 0.0000
# 6 0.0000 0.0000 0.0000 -15.3700 0.0000 55.0997
#
#
#
# Elastic Compliance Matrix: (Units=1/GPa)
#
#
# Indices 1 2 3 4 5 6 
#
# 1 0.008511 -0.002920 -0.001947 0.000000 -0.001524 0.000000
# 2 -0.002920 0.007091 -0.002846 0.000000 0.000436 0.000000
# 3 -0.001947 -0.002846 0.013788 0.000000 0.006345 0.000000
# 4 0.000000 0.000000 0.000000 0.023233 0.000000 0.006481
# 5 -0.001524 0.000436 0.006345 0.000000 0.033559 0.000000
# 6 0.000000 0.000000 0.000000 0.006481 0.000000 0.019957
#
#
# Mechanical properties :
#
#
# Convention : Reuss Voigt Hill
#
# Bulk Modulus (GPa) = 71.61316 88.09724 79.85520
# Shear Modulus (GPa) = 39.61392 45.38371 42.49882
#
# Velocity S-wave (km/s) = 4.18627 4.48078 4.33603
# Velocity P-wave (km/s) = 7.41940 8.10823 7.77145
#
# Compressibility (1/GPa) = 0.01396391
#
# Stress axis : x y z
#
# Youngs Moduli (GPa) = 117.49764 141.03326 72.52675
#
# Poissons Ratio (x) = 0.41177 0.14119
# Poissons Ratio (y) = 0.34306 0.20644
# Poissons Ratio (z) = 0.22873 0.40143
#
# Static dielectric constant tensor:
#      x y z
#    x 2.280920 0.000000 -0.119300 
#    y 0.000000 1.882400 0.000000 
#    z -0.119300 0.000000 1.956730 
# 
# From -- ./inp_files/54293.got.cif
#   From: 2010.05.17/outbox.cif.g08.bks.cpg/sg15_28_cif.got.tgz:54293.got - 2010.06.03 18:47:42.
