data_PCOD9298816
_publ_section_title
;
Structure prediction by ZEFSAII (Michael W. Deem and Ramdas Pophale) SiO2 
 PCOD9298816
Probable space group: C 2/C
;
_chemical_formula_sum "Si O2"
_cell_formula_units_Z 36
_cell_length_a 5.225690
_cell_length_b 25.762993
_cell_length_c 11.385012
_cell_angle_alpha 90.000000
_cell_angle_beta 100.047269
_cell_angle_gamma 90.000000
_cell_volume 1509.251377
_symmetry_space_group_name_H-M "C 2/C"
_symmetry_group_IT_number 15
_symmetry_cell_setting 'monoclinic'
loop_
_space_group_symop_operation_xyz
x,y,z
-x,y,1/2-z
-x,-y,-z
x,-y,1/2+z
1/2+x,1/2+y,z
1/2-x,1/2+y,1/2-z
1/2-x,1/2-y,-z
1/2+x,1/2-y,1/2+z
loop_
_atom_site_type_symbol
_atom_site_label
_atom_site_fract_x
_atom_site_fract_y
_atom_site_fract_z
Si Si1 0.657327 0.135557 0.359511
Si Si2 0.000000 0.844818 0.250000
Si Si3 0.500000 0.907710 0.250000
Si Si4 0.500000 0.441459 0.750000
Si Si5 0.851488 0.553667 0.491642
Si Si6 0.994481 0.214893 0.985348
O O1 0.500000 0.169837 0.250000
O O2 0.495802 0.105182 0.447758
O O3 0.767012 0.091761 0.283051
O O4 0.906530 0.167169 0.426171
O O5 0.263945 0.876861 0.292630
O O6 0.063739 0.810052 0.143834
O O7 0.658751 0.935529 0.368900
O O8 0.384694 0.461207 0.616365
O O9 0.000000 0.500000 0.500000
O O10 0.750000 0.250000 0.000000
O O11 0.250000 0.250000 0.000000
#
# Coordination Sequence:
#
# PCOD9298816 Si02
#       6
#     8   4   4   4   8   8
#     4  10  24  47  72 107 147 200 250 319 389 466
#     4  12  26  51  74 113 148 201 254 321 406 456
#     4  12  26  48  81 107 164 201 251 334 388 458
#     4  10  24  45  77  98 154 198 255 311 394 464
#     4  11  26  46  74 115 152 207 265 318 393 477
#     4  12  28  46  75 108 147 196 255 316 387 469
#
# _framework density 23.852886999999999
#
# number of rings (size 3 to 8) (size 9 to 14) (size 15 to 20)
#    0.000    0.889    2.222    2.667   12.444    1.778 
#    0.000    0.000    0.000    0.000    0.000    0.000 
#    0.000    0.000    0.000    0.000    0.000    0.000 
#
# Total GULP energy -100285.066387 kJ/mol
# GULP energy per Si atom -5571.392577 kJ/mol
# Density = 2.379860 g / cm^3
# Si number density = 23.852887 Si / 1000 Ang^3
#
#
#
# Elastic Constant Matrix: (Units=GPa)
#
#
# Indices 1 2 3 4 5 6 
#
# 1 122.4750 30.4278 38.2285 0.0000 20.1177 0.0000
# 2 30.4278 61.9782 42.3112 0.0000 12.6125 0.0000
# 3 38.2285 42.3112 222.8418 0.0000 39.5077 0.0000
# 4 0.0000 0.0000 0.0000 0.8215 0.0000 5.4349
# 5 20.1177 12.6125 39.5077 0.0000 44.8243 0.0000
# 6 0.0000 0.0000 0.0000 5.4349 0.0000 27.2922
#
#
#
# Elastic Compliance Matrix: (Units=1/GPa)
#
#
# Indices 1 2 3 4 5 6 
#
# 1 0.009743 -0.003909 -0.000414 0.000000 -0.002908 0.000000
# 2 -0.003909 0.020346 -0.002950 0.000000 -0.001371 0.000000
# 3 -0.000414 -0.002950 0.005853 0.000000 -0.004143 0.000000
# 4 0.000000 0.000000 0.000000 -3.834386 0.000000 0.763569
# 5 -0.002908 -0.001371 -0.004143 0.000000 0.027652 0.000000
# 6 0.000000 0.000000 0.000000 0.763569 0.000000 -0.115414
#
#
# Mechanical properties :
#
#
# Convention : Reuss Voigt Hill
#
# Bulk Modulus (GPa) = 46.73336 69.91445 58.32390
# Shear Modulus (GPa) = -1.29382 34.34276 16.52447
#
# Velocity S-wave (km/s) = -0.73729 3.79855 2.63490
# Velocity P-wave (km/s) = 4.34857 6.97230 5.81047
#
# Compressibility (1/GPa) = 0.02139799
#
# Stress axis : x y z
#
# Youngs Moduli (GPa) = 102.63878 49.14871 170.85174
#
# Poissons Ratio (x) = 0.19213 0.07066
# Poissons Ratio (y) = 0.40122 0.50394
# Poissons Ratio (z) = 0.04245 0.14497
#
# Static dielectric constant tensor:
#      x y z
#    x -0.119750 0.000000 -1.778910 
#    y 0.000000 1.808520 0.000000 
#    z -1.778910 0.000000 0.502710 
# 
# From -- ./inp_files/72740.got.cif
#   From: 2010.05.17/outbox.cif.g08.bks.cpg/sg15_37_cif.got.tgz:72740.got - 2010.06.03 18:47:42.
