data_PCOD9298533
_publ_section_title
;
Structure prediction by ZEFSAII (Michael W. Deem and Ramdas Pophale) SiO2 
 PCOD9298533
Probable space group: C 2/C
;
_chemical_formula_sum "Si O2"
_cell_formula_units_Z 48
_cell_length_a 13.913324
_cell_length_b 27.130574
_cell_length_c 7.336381
_cell_angle_alpha 90.000000
_cell_angle_beta 40.823738
_cell_angle_gamma 90.000000
_cell_volume 1810.393359
_symmetry_space_group_name_H-M "C 2/C"
_symmetry_group_IT_number 15
_symmetry_cell_setting 'monoclinic'
loop_
_space_group_symop_operation_xyz
x,y,z
-x,y,1/2-z
-x,-y,-z
x,-y,1/2+z
1/2+x,1/2+y,z
1/2-x,1/2+y,1/2-z
1/2-x,1/2-y,-z
1/2+x,1/2-y,1/2+z
loop_
_atom_site_type_symbol
_atom_site_label
_atom_site_fract_x
_atom_site_fract_y
_atom_site_fract_z
Si Si1 0.537044 0.076709 0.402697
Si Si2 0.350152 0.453177 0.371714
Si Si3 0.882491 0.204642 0.680635
Si Si4 0.776193 0.939754 0.057667
Si Si5 0.193928 0.170841 0.095547
Si Si6 0.362210 0.817014 0.701963
O O1 0.500000 0.061639 0.250000
O O2 0.400882 0.055232 0.709046
O O3 0.533963 0.136395 0.414686
O O4 0.704385 0.060992 0.197603
O O5 0.500000 0.435548 0.250000
O O6 0.321281 0.436327 0.206536
O O7 0.351654 0.512718 0.364634
O O8 0.796971 0.198141 0.611317
O O9 0.904135 0.261961 0.699241
O O10 0.042726 0.184919 0.409521
O O11 0.788090 0.175678 0.965895
O O12 0.814053 0.887294 0.922378
O O13 0.324558 0.183946 0.043161
#
# Coordination Sequence:
#
# PCOD9298533 Si02
#       6
#     8   8   8   8   8   8
#     4  10  24  46  72 107 152 190 248 308 376 451
#     4  11  25  46  76 106 147 195 253 316 378 451
#     4  10  24  44  73 108 152 191 250 314 370 445
#     4  11  26  47  72 109 148 197 247 313 384 450
#     4  11  25  44  71 109 151 192 253 308 374 447
#     4  11  24  45  75 106 144 204 244 300 381 447
#
# _framework density 26.513574999999999
#
# number of rings (size 3 to 8) (size 9 to 14) (size 15 to 20)
#    0.000    1.333    0.000    4.000    4.667   11.333 
#    0.000    0.000    0.000    0.000    0.000    0.000 
#    0.000    0.000    0.000    0.000    0.000    0.000 
#
# Total GULP energy -134744.082931 kJ/mol
# GULP energy per Si atom -5614.336789 kJ/mol
# Density = 2.645323 g / cm^3
# Si number density = 26.513575 Si / 1000 Ang^3
#
#
#
# Elastic Constant Matrix: (Units=GPa)
#
#
# Indices 1 2 3 4 5 6 
#
# 1 135.9597 1.2204 34.2718 0.0000 -11.4815 0.0000
# 2 1.2204 105.5621 11.3173 0.0000 -6.4963 0.0000
# 3 34.2718 11.3173 73.2269 0.0000 -24.6551 0.0000
# 4 0.0000 0.0000 0.0000 51.1433 0.0000 1.8239
# 5 -11.4815 -6.4963 -24.6551 0.0000 43.5173 0.0000
# 6 0.0000 0.0000 0.0000 1.8239 0.0000 -46.3823
#
#
#
# Elastic Compliance Matrix: (Units=1/GPa)
#
#
# Indices 1 2 3 4 5 6 
#
# 1 0.008350 0.000328 -0.003955 0.000000 0.000011 0.000000
# 2 0.000328 0.009665 -0.001399 0.000000 0.000737 0.000000
# 3 -0.003955 -0.001399 0.018909 0.000000 0.009461 0.000000
# 4 0.000000 0.000000 0.000000 0.019526 0.000000 0.000768
# 5 0.000011 0.000737 0.009461 0.000000 0.028452 0.000000
# 6 0.000000 0.000000 0.000000 0.000768 0.000000 -0.021530
#
#
# Mechanical properties :
#
#
# Convention : Reuss Voigt Hill
#
# Bulk Modulus (GPa) = 37.21424 45.37418 41.29421
# Shear Modulus (GPa) = 60.69383 27.51827 44.10605
#
# Velocity S-wave (km/s) = 4.78971 3.22513 4.08306
# Velocity P-wave (km/s) = 6.68242 5.56950 6.15118
#
# Compressibility (1/GPa) = 0.02687143
#
# Stress axis : x y z
#
# Youngs Moduli (GPa) = 119.75963 103.46993 52.88559
#
# Poissons Ratio (x) = -0.03396 0.20916
# Poissons Ratio (y) = -0.03930 0.07400
# Poissons Ratio (z) = 0.47364 0.14478
#
# Static dielectric constant tensor:
#      x y z
#    x 2.070880 0.000000 -0.021950 
#    y 0.000000 2.010000 0.000000 
#    z -0.021950 0.000000 2.078920 
# 
# From -- ./inp_files/44442.got.cif
#   From: 2010.05.17/outbox.cif.g08.bks.cpg/sg15_23_cif.got.tgz:44442.got - 2010.06.03 18:47:42.
