data_PCOD9298675
_publ_section_title
;
Structure prediction by ZEFSAII (Michael W. Deem and Ramdas Pophale) SiO2 
 PCOD9298675
Probable space group: C 2/C
;
_chemical_formula_sum "Si O2"
_cell_formula_units_Z 44
_cell_length_a 11.479671
_cell_length_b 26.903546
_cell_length_c 11.623125
_cell_angle_alpha 90.000000
_cell_angle_beta 38.813168
_cell_angle_gamma 90.000000
_cell_volume 2249.981874
_symmetry_space_group_name_H-M "C 2/C"
_symmetry_group_IT_number 15
_symmetry_cell_setting 'monoclinic'
loop_
_space_group_symop_operation_xyz
x,y,z
-x,y,1/2-z
-x,-y,-z
x,-y,1/2+z
1/2+x,1/2+y,z
1/2-x,1/2+y,1/2-z
1/2-x,1/2-y,-z
1/2+x,1/2-y,1/2+z
loop_
_atom_site_type_symbol
_atom_site_label
_atom_site_fract_x
_atom_site_fract_y
_atom_site_fract_z
Si Si1 0.500000 0.551258 0.250000
Si Si2 0.805082 0.366516 0.466317
Si Si3 0.399946 0.397685 0.450012
Si Si4 0.505934 0.196590 0.483641
Si Si5 0.386156 0.688827 0.593940
Si Si6 0.500000 0.858982 0.750000
Si Si7 0.000000 0.000000 0.000000
O O1 0.317585 0.586100 0.405444
O O2 0.485084 0.518623 0.146897
O O3 0.861378 0.334628 0.533966
O O4 0.680987 0.333019 0.476341
O O5 0.000000 0.379140 0.250000
O O6 0.500000 0.400915 0.250000
O O7 0.464615 0.347274 0.463687
O O8 0.180506 0.393320 0.598858
O O9 0.454339 0.443086 0.489913
O O10 0.546937 0.254772 0.464742
O O11 0.296281 0.187364 0.686195
O O12 0.523744 0.176047 0.342117
#
# Coordination Sequence:
#
# PCOD9298675 Si02
#       7
#     4   8   8   8   8   4   4
#     4  12  24  46  73  98 135 184 224 300 350 416
#     4  10  24  45  69 102 140 179 234 284 343 419
#     4  12  25  48  69 100 137 181 231 293 345 415
#     4  11  24  39  66 106 140 186 227 273 346 416
#     4  11  23  42  69  98 145 181 228 284 335 416
#     4  12  26  44  67 102 141 182 230 278 348 422
#     4  12  26  48  76 100 134 180 238 292 364 402
#
# _framework density 19.555712
#
# number of rings (size 3 to 8) (size 9 to 14) (size 15 to 20)
#    0.000    0.727    4.545    2.727    3.818    1.455 
#    1.636    1.818    0.000    0.000    0.000    0.000 
#    0.000    0.000    0.000    0.000    0.000    0.000 
#
# Total GULP energy -122546.622791 kJ/mol
# GULP energy per Si atom -5570.301036 kJ/mol
# Density = 1.951120 g / cm^3
# Si number density = 19.555712 Si / 1000 Ang^3
#
#
#
# Elastic Constant Matrix: (Units=GPa)
#
#
# Indices 1 2 3 4 5 6 
#
# 1 103.8680 28.8191 72.6155 0.0000 31.0008 0.0000
# 2 28.8191 97.8935 46.1364 0.0000 19.9829 0.0000
# 3 72.6155 46.1364 93.6076 0.0000 17.6698 0.0000
# 4 0.0000 0.0000 0.0000 2.2998 0.0000 14.8557
# 5 31.0008 19.9829 17.6698 0.0000 44.0235 0.0000
# 6 0.0000 0.0000 0.0000 14.8557 0.0000 11.5263
#
#
#
# Elastic Compliance Matrix: (Units=1/GPa)
#
#
# Indices 1 2 3 4 5 6 
#
# 1 0.026133 0.004268 -0.020056 0.000000 -0.012290 0.000000
# 2 0.004268 0.014580 -0.009392 0.000000 -0.005854 0.000000
# 3 -0.020056 -0.009392 0.029645 0.000000 0.006487 0.000000
# 4 0.000000 0.000000 0.000000 -0.059358 0.000000 0.076503
# 5 -0.012290 -0.005854 0.006487 0.000000 0.031423 0.000000
# 6 0.000000 0.000000 0.000000 0.076503 0.000000 -0.011843
#
#
# Mechanical properties :
#
#
# Convention : Reuss Voigt Hill
#
# Bulk Modulus (GPa) = 50.00410 65.61235 57.80823
# Shear Modulus (GPa) = 57.07350 21.42310 39.24830
#
# Velocity S-wave (km/s) = 5.40818 3.31341 4.48481
# Velocity P-wave (km/s) = 8.03887 6.94713 7.51286
#
# Compressibility (1/GPa) = 0.01999836
#
# Stress axis : x y z
#
# Youngs Moduli (GPa) = 38.26586 68.58742 33.73202
#
# Poissons Ratio (x) = -0.29270 0.67653
# Poissons Ratio (y) = -0.16330 0.31680
# Poissons Ratio (z) = 0.76746 0.64414
#
# Static dielectric constant tensor:
#      x y z
#    x 1.668990 0.000000 -0.010030 
#    y 0.000000 1.638890 0.000000 
#    z -0.010030 0.000000 1.697960 
# 
# From -- ./inp_files/91160.got.cif
#   From: 2010.05.17/outbox.cif.g08.bks.cpg/sg15_46_cif.got.tgz:91160.got - 2010.06.03 18:47:42.
