data_PCOD9298481
_publ_section_title
;
Structure prediction by ZEFSAII (Michael W. Deem and Ramdas Pophale) SiO2 
 PCOD9298481
Probable space group: C 2/C
;
_chemical_formula_sum "Si O2"
_cell_formula_units_Z 44
_cell_length_a 9.604746
_cell_length_b 18.560812
_cell_length_c 14.389908
_cell_angle_alpha 90.000000
_cell_angle_beta 51.320095
_cell_angle_gamma 90.000000
_cell_volume 2002.613046
_symmetry_space_group_name_H-M "C 2/C"
_symmetry_group_IT_number 15
_symmetry_cell_setting 'monoclinic'
loop_
_space_group_symop_operation_xyz
x,y,z
-x,y,1/2-z
-x,-y,-z
x,-y,1/2+z
1/2+x,1/2+y,z
1/2-x,1/2+y,1/2-z
1/2-x,1/2-y,-z
1/2+x,1/2-y,1/2+z
loop_
_atom_site_type_symbol
_atom_site_label
_atom_site_fract_x
_atom_site_fract_y
_atom_site_fract_z
Si Si1 0.233815 0.374040 0.750359
Si Si2 0.658575 0.029089 0.754164
Si Si3 0.977284 0.625955 0.972945
Si Si4 0.000000 0.782898 0.750000
Si Si5 0.329961 0.730571 0.066648
Si Si6 0.783646 0.161637 0.580492
O O1 0.273219 0.457217 0.713001
O O2 0.086219 0.376162 0.893859
O O3 0.409239 0.335159 0.715269
O O4 0.197642 0.321820 0.678470
O O5 0.500000 0.007788 0.750000
O O6 0.746399 0.097389 0.667820
O O7 0.421389 0.941967 0.115037
O O8 0.799025 0.636012 0.983970
O O9 0.110486 0.694593 0.908510
O O10 0.842921 0.730094 0.847270
O O11 0.250000 0.750000 0.000000
O O12 0.516740 0.687434 0.984811
#
# Coordination Sequence:
#
# PCOD9298481 Si02
#       6
#     8   8   8   4   8   8
#     4  12  25  41  70 106 141 184 239 300 364 426
#     4  10  24  44  71 103 143 188 234 302 370 428
#     4  11  22  45  74  97 137 192 249 286 351 447
#     4  12  20  44  76 102 128 192 258 290 336 446
#     4  12  27  43  70 107 144 184 234 314 368 423
#     4  11  21  48  76  98 136 194 252 288 354 445
#
# _framework density 21.971294
#
# number of rings (size 3 to 8) (size 9 to 14) (size 15 to 20)
#    0.000    0.727    6.364    2.182    2.545    0.727 
#    3.273    0.000    0.000    0.000    0.000    0.000 
#    0.000    0.000    0.000    0.000    0.000    0.000 
#
# Total GULP energy -122884.200565 kJ/mol
# GULP energy per Si atom -5585.645480 kJ/mol
# Density = 2.192129 g / cm^3
# Si number density = 21.971294 Si / 1000 Ang^3
#
#
#
# Elastic Constant Matrix: (Units=GPa)
#
#
# Indices 1 2 3 4 5 6 
#
# 1 89.6738 33.5847 38.4889 0.0000 4.9894 0.0000
# 2 33.5847 160.3268 54.6464 0.0000 10.9806 0.0000
# 3 38.4889 54.6464 120.2901 0.0000 22.4983 0.0000
# 4 0.0000 0.0000 0.0000 29.1845 0.0000 2.7254
# 5 4.9894 10.9806 22.4983 0.0000 31.6307 0.0000
# 6 0.0000 0.0000 0.0000 2.7254 0.0000 -1.4396
#
#
#
# Elastic Compliance Matrix: (Units=1/GPa)
#
#
# Indices 1 2 3 4 5 6 
#
# 1 0.013289 -0.001585 -0.003740 0.000000 0.001114 0.000000
# 2 -0.001585 0.007570 -0.002869 0.000000 -0.000337 0.000000
# 3 -0.003740 -0.002869 0.012130 0.000000 -0.007042 0.000000
# 4 0.000000 0.000000 0.000000 0.029117 0.000000 0.055123
# 5 0.001114 -0.000337 -0.007042 0.000000 0.036565 0.000000
# 6 0.000000 0.000000 0.000000 0.055123 0.000000 -0.590275
#
#
# Mechanical properties :
#
#
# Convention : Reuss Voigt Hill
#
# Bulk Modulus (GPa) = 60.23785 69.30344 64.77064
# Shear Modulus (GPa) = -10.64551 28.11316 8.73383
#
# Velocity S-wave (km/s) = -2.20357 3.58095 1.99593
# Velocity P-wave (km/s) = 4.58278 6.97917 5.90384
#
# Compressibility (1/GPa) = 0.01660086
#
# Stress axis : x y z
#
# Youngs Moduli (GPa) = 75.25288 132.09652 82.43780
#
# Poissons Ratio (x) = 0.20939 0.30834
# Poissons Ratio (y) = 0.11929 0.23649
# Poissons Ratio (z) = 0.28146 0.37895
#
# Static dielectric constant tensor:
#      x y z
#    x 1.808170 0.000000 0.069810 
#    y 0.000000 1.801660 0.000000 
#    z 0.069810 0.000000 1.977120 
# 
# From -- ./inp_files/134296.got.cif
#   From: 2010.05.17/outbox.cif.g08.bks.cpg/sg15_68_cif.got.tgz:134296.got - 2010.06.03 18:47:42.
