data_PCOD9298759
_publ_section_title
;
Structure prediction by ZEFSAII (Michael W. Deem and Ramdas Pophale) SiO2 
 PCOD9298759
Probable space group: C 2/C
;
_chemical_formula_sum "Si O2"
_cell_formula_units_Z 48
_cell_length_a 8.794401
_cell_length_b 14.597933
_cell_length_c 23.532098
_cell_angle_alpha 90.000000
_cell_angle_beta 141.246026
_cell_angle_gamma 90.000000
_cell_volume 1891.111109
_symmetry_space_group_name_H-M "C 2/C"
_symmetry_group_IT_number 15
_symmetry_cell_setting 'monoclinic'
loop_
_space_group_symop_operation_xyz
x,y,z
-x,y,1/2-z
-x,-y,-z
x,-y,1/2+z
1/2+x,1/2+y,z
1/2-x,1/2+y,1/2-z
1/2-x,1/2-y,-z
1/2+x,1/2-y,1/2+z
loop_
_atom_site_type_symbol
_atom_site_label
_atom_site_fract_x
_atom_site_fract_y
_atom_site_fract_z
Si Si1 0.963641 0.349430 0.403283
Si Si2 0.540091 0.347344 0.555992
Si Si3 0.696260 0.423294 0.718877
Si Si4 0.798523 0.367014 0.235354
Si Si5 0.311087 0.644969 0.524849
Si Si6 0.825658 0.555811 0.379252
O O1 0.252777 0.365831 0.481087
O O2 0.852867 0.318140 0.310320
O O3 0.932359 0.263204 0.435384
O O4 0.834195 0.446196 0.375380
O O5 0.695609 0.382348 0.655231
O O6 0.613098 0.388429 0.516443
O O7 0.815241 0.523667 0.748624
O O8 0.409995 0.423557 0.652246
O O9 0.807706 0.392258 0.812375
O O10 0.000000 0.334862 0.250000
O O11 0.535048 0.357704 0.132393
O O12 0.250000 0.750000 0.500000
O O13 0.080193 0.588083 0.478070
#
# Coordination Sequence:
#
# PCOD9298759 Si02
#       6
#     8   8   8   8   8   8
#     4  10  24  45  73 100 142 186 237 289 361 422
#     4  11  25  44  72 107 138 186 238 298 350 420
#     4  10  25  45  77 103 140 189 236 290 356 425
#     4  11  24  46  72 103 145 187 236 294 363 425
#     4  12  29  45  71 109 145 189 243 296 359 422
#     4  10  25  49  72 105 145 188 234 293 358 428
#
# _framework density 25.381903000000001
#
# number of rings (size 3 to 8) (size 9 to 14) (size 15 to 20)
#    0.000    1.333    1.667    1.000   14.000    2.667 
#    0.000    0.000    0.000    0.000    0.000    0.000 
#    0.000    0.000    0.000    0.000    0.000    0.000 
#
# Total GULP energy -134405.148385 kJ/mol
# GULP energy per Si atom -5600.214516 kJ/mol
# Density = 2.532413 g / cm^3
# Si number density = 25.381903 Si / 1000 Ang^3
#
#
#
# Elastic Constant Matrix: (Units=GPa)
#
#
# Indices 1 2 3 4 5 6 
#
# 1 63.6045 -4.9611 35.5673 -0.0005 -16.2765 -0.0012
# 2 -4.9611 28.7950 -8.1064 0.0001 -7.8481 0.0004
# 3 35.5673 -8.1064 153.9028 0.0037 -13.6558 0.0090
# 4 -0.0005 0.0001 0.0037 -416.9723 -0.0007-1127.0787
# 5 -16.2765 -7.8481 -13.6558 -0.0007 48.7230 -0.0017
# 6 -0.0012 0.0004 0.0090-1127.0787 -0.0017-2713.4806
#
#
#
# Elastic Compliance Matrix: (Units=1/GPa)
#
#
# Indices 1 2 3 4 5 6 
#
# 1 0.019742 0.004014 -0.003803 0.000000 0.006176 0.000000
# 2 0.004014 0.038097 0.001787 0.000000 0.007978 0.000000
# 3 -0.003803 0.001787 0.007572 0.000000 0.001140 0.000000
# 4 0.000000 0.000000 0.000000 0.019541 0.000000 -0.008117
# 5 0.006176 0.007978 0.001140 0.000000 0.024192 0.000000
# 6 0.000000 0.000000 0.000000 -0.008117 0.000000 0.003003
#
#
# Mechanical properties :
#
#
# Convention : Reuss Voigt Hill
#
# Bulk Modulus (GPa) = 14.40773 32.36686 23.38730
# Shear Modulus (GPa) = 38.08445 -601.42582 -281.67068
#
# Velocity S-wave (km/s) = 3.87778 -15.40990 -10.54580
# Velocity P-wave (km/s) = 5.07329 17.43102 11.79199
#
# Compressibility (1/GPa) = 0.06940718
#
# Stress axis : x y z
#
# Youngs Moduli (GPa) = 50.65268 26.24850 132.06994
#
# Poissons Ratio (x) = -0.10536 0.50227
# Poissons Ratio (y) = -0.20332 -0.23600
# Poissons Ratio (z) = 0.19264 -0.04691
#
# Static dielectric constant tensor:
#      x y z
#    x 2.002700 0.000000 -0.006930 
#    y 0.000000 1.953780 0.000000 
#    z -0.006930 0.000000 1.882910 
# 
# From -- ./inp_files/289131.got.cif
#   From: 2010.05.17/outbox.cif.g08.bks.cpg/sg15_145_cif.got.tgz:289131.got - 2010.06.03 18:47:42.
