data_PCOD9298161
_publ_section_title
;
Structure prediction by ZEFSAII (Michael W. Deem and Ramdas Pophale) SiO2 
 PCOD9298161
Probable space group: C 2/C
;
_chemical_formula_sum "Si O2"
_cell_formula_units_Z 64
_cell_length_a 10.732082
_cell_length_b 23.179640
_cell_length_c 11.413036
_cell_angle_alpha 90.000000
_cell_angle_beta 99.406745
_cell_angle_gamma 90.000000
_cell_volume 2800.994434
_symmetry_space_group_name_H-M "C 2/C"
_symmetry_group_IT_number 15
_symmetry_cell_setting 'monoclinic'
loop_
_space_group_symop_operation_xyz
x,y,z
-x,y,1/2-z
-x,-y,-z
x,-y,1/2+z
1/2+x,1/2+y,z
1/2-x,1/2+y,1/2-z
1/2-x,1/2-y,-z
1/2+x,1/2-y,1/2+z
loop_
_atom_site_type_symbol
_atom_site_label
_atom_site_fract_x
_atom_site_fract_y
_atom_site_fract_z
Si Si1 0.567108 0.508234 0.140615
Si Si2 0.767001 0.908833 0.379939
Si Si3 0.440997 0.142054 0.500438
Si Si4 0.066350 0.237900 0.374302
Si Si5 0.773159 0.344404 0.502670
Si Si6 0.643623 0.312933 0.272513
Si Si7 0.304999 0.811459 0.779035
Si Si8 0.529911 0.377136 0.544803
O O1 0.500000 0.486837 0.250000
O O2 0.697740 0.473230 0.154260
O O3 0.568387 0.577487 0.150023
O O4 0.500000 0.500000 0.000000
O O5 0.639841 0.901287 0.433297
O O6 0.772168 0.860511 0.279815
O O7 0.891341 0.891090 0.474945
O O8 0.406810 0.206906 0.542269
O O9 0.591134 0.135138 0.521229
O O10 0.388921 0.142577 0.360529
O O11 0.179401 0.200265 0.336198
O O12 0.979700 0.190156 0.423622
O O13 0.000000 0.263691 0.250000
O O14 0.719913 0.297728 0.402495
O O15 0.787189 0.329558 0.641702
O O16 0.648784 0.385389 0.475544
O O17 0.500000 0.335331 0.250000
O O18 0.631931 0.251774 0.207034
#
# Coordination Sequence:
#
# PCOD9298161 Si02
#       8
#     8   8   8   8   8   8   8   8
#     4  10  24  43  71 105 131 173 240 308 355 406
#     4  11  23  44  69  94 132 179 231 288 347 417
#     4  12  26  42  61  99 141 188 226 272 353 440
#     4  12  22  38  64  94 134 181 233 279 348 417
#     4  12  27  39  63 100 138 180 228 283 355 422
#     4  12  23  39  66  95 136 180 232 284 340 421
#     4  12  24  40  61  93 140 185 228 276 347 432
#     4  11  23  42  67 100 130 175 230 299 346 416
#
# _framework density 22.849028000000001
#
# number of rings (size 3 to 8) (size 9 to 14) (size 15 to 20)
#    0.000    0.500    5.000    4.125    3.500    0.000 
#    0.000    0.625    0.000    0.000    3.250    0.000 
#    0.000    0.000    0.000    0.000    0.000    0.000 
#
# Total GULP energy -178466.005476 kJ/mol
# GULP energy per Si atom -5577.062671 kJ/mol
# Density = 2.279702 g / cm^3
# Si number density = 22.849028 Si / 1000 Ang^3
#
#
#
# Elastic Constant Matrix: (Units=GPa)
#
#
# Indices 1 2 3 4 5 6 
#
# 1 169.9393 5.4664 47.9228 0.0000 -24.6843 0.0000
# 2 5.4664 62.3567 20.9105 0.0000 -11.3040 0.0000
# 3 47.9228 20.9105 111.0678 0.0000 -0.0434 0.0000
# 4 0.0000 0.0000 0.0000 3.8193 0.0000 -2.5841
# 5 -24.6843 -11.3040 -0.0434 0.0000 36.3383 0.0000
# 6 0.0000 0.0000 0.0000 -2.5841 0.0000 21.0666
#
#
#
# Elastic Compliance Matrix: (Units=1/GPa)
#
#
# Indices 1 2 3 4 5 6 
#
# 1 0.007679 0.001570 -0.003607 0.000000 0.005700 0.000000
# 2 0.001570 0.018533 -0.004164 0.000000 0.006826 0.000000
# 3 -0.003607 -0.004164 0.011342 0.000000 -0.003732 0.000000
# 4 0.000000 0.000000 0.000000 0.285527 0.000000 0.035024
# 5 0.005700 0.006826 -0.003732 0.000000 0.033510 0.000000
# 6 0.000000 0.000000 0.000000 0.035024 0.000000 0.051765
#
#
# Mechanical properties :
#
#
# Convention : Reuss Voigt Hill
#
# Bulk Modulus (GPa) = 39.75738 54.66260 47.20999
# Shear Modulus (GPa) = 11.65118 30.18245 20.91681
#
# Velocity S-wave (km/s) = 2.26059 3.63843 3.02890
# Velocity P-wave (km/s) = 4.92458 6.45184 5.73924
#
# Compressibility (1/GPa) = 0.02515256
#
# Stress axis : x y z
#
# Youngs Moduli (GPa) = 130.22555 53.95814 88.16724
#
# Poissons Ratio (x) = -0.08469 0.31798
# Poissons Ratio (y) = -0.20440 0.36710
# Poissons Ratio (z) = 0.46967 0.22467
#
# Static dielectric constant tensor:
#      x y z
#    x 1.919600 0.000000 -0.037980 
#    y 0.000000 1.916070 0.000000 
#    z -0.037980 0.000000 1.985450 
# 
# From -- ./inp_files/90828.got.cif
#   From: 2010.05.17/outbox.cif.g08.bks.cpg/sg15_46_cif.got.tgz:90828.got - 2010.06.03 18:47:42.
