data_PCOD9298229
_publ_section_title
;
Structure prediction by ZEFSAII (Michael W. Deem and Ramdas Pophale) SiO2 
 PCOD9298229
Probable space group: C 2/C
;
_chemical_formula_sum "Si O2"
_cell_formula_units_Z 44
_cell_length_a 5.426199
_cell_length_b 27.687077
_cell_length_c 15.206246
_cell_angle_alpha 90.000000
_cell_angle_beta 60.139367
_cell_angle_gamma 90.000000
_cell_volume 1981.224369
_symmetry_space_group_name_H-M "C 2/C"
_symmetry_group_IT_number 15
_symmetry_cell_setting 'monoclinic'
loop_
_space_group_symop_operation_xyz
x,y,z
-x,y,1/2-z
-x,-y,-z
x,-y,1/2+z
1/2+x,1/2+y,z
1/2-x,1/2+y,1/2-z
1/2-x,1/2-y,-z
1/2+x,1/2-y,1/2+z
loop_
_atom_site_type_symbol
_atom_site_label
_atom_site_fract_x
_atom_site_fract_y
_atom_site_fract_z
Si Si1 0.000000 0.355602 0.250000
Si Si2 0.838148 0.656359 0.971701
Si Si3 0.288416 0.526963 0.933126
Si Si4 0.273792 0.802596 0.952087
Si Si5 0.500000 0.855747 0.750000
Si Si6 0.500000 0.410759 0.250000
Si Si7 0.549353 0.572039 0.414056
O O1 0.062429 0.332025 0.145028
O O2 0.293177 0.383326 0.219836
O O3 0.538996 0.685315 0.030580
O O4 0.736041 0.602416 0.015285
O O5 0.099164 0.667657 0.988758
O O6 0.293922 0.556876 0.844153
O O7 0.510481 0.482236 0.885068
O O8 0.337249 0.561170 0.008160
O O9 0.000000 0.500000 0.000000
O O10 0.490179 0.819232 0.835468
O O11 0.250000 0.750000 0.000000
O O12 0.755963 0.893530 0.681731
#
# Coordination Sequence:
#
# PCOD9298229 Si02
#       7
#     4   8   8   8   4   4   8
#     4  12  24  43  66 100 131 190 239 282 363 416
#     4  11  24  45  73  99 144 183 235 293 357 452
#     4  11  25  40  66  96 151 188 251 303 343 425
#     4  11  26  48  74 109 140 178 234 307 370 442
#     4  10  26  45  77 100 142 186 242 287 373 452
#     4  12  26  40  67  96 137 192 241 301 348 408
#     4  10  24  44  62 103 137 199 237 301 354 428
#
# _framework density 22.208490000000001
#
# number of rings (size 3 to 8) (size 9 to 14) (size 15 to 20)
#    0.000    1.091    1.818    2.727   12.727    4.364 
#    0.000    0.000    0.000    0.000    0.000    0.000 
#    0.000    0.000    0.000    0.000    0.000    0.000 
#
# Total GULP energy -122586.611723 kJ/mol
# GULP energy per Si atom -5572.118715 kJ/mol
# Density = 2.215794 g / cm^3
# Si number density = 22.208490 Si / 1000 Ang^3
#
#
#
# Elastic Constant Matrix: (Units=GPa)
#
#
# Indices 1 2 3 4 5 6 
#
# 1 51.6632 29.1501 -4.7817 0.0000 -5.3681 0.0000
# 2 29.1501 84.8821 27.6959 0.0000 -1.8659 0.0000
# 3 -4.7817 27.6959 125.0959 0.0000 -5.6852 0.0000
# 4 0.0000 0.0000 0.0000 71.2734 0.0000 20.8579
# 5 -5.3681 -1.8659 -5.6852 0.0000 38.8211 0.0000
# 6 0.0000 0.0000 0.0000 20.8579 0.0000 39.7232
#
#
#
# Elastic Compliance Matrix: (Units=1/GPa)
#
#
# Indices 1 2 3 4 5 6 
#
# 1 0.025543 -0.009771 0.003301 0.000000 0.003546 0.000000
# 2 -0.009771 0.016438 -0.004065 0.000000 -0.001156 0.000000
# 3 0.003301 -0.004065 0.009092 0.000000 0.001593 0.000000
# 4 0.000000 0.000000 0.000000 0.016578 0.000000 -0.008705
# 5 0.003546 -0.001156 0.001593 0.000000 0.026427 0.000000
# 6 0.000000 0.000000 0.000000 -0.008705 0.000000 0.029745
#
#
# Mechanical properties :
#
#
# Convention : Reuss Voigt Hill
#
# Bulk Modulus (GPa) = 33.33090 40.64109 36.98599
# Shear Modulus (GPa) = 32.27992 43.93533 38.10763
#
# Velocity S-wave (km/s) = 3.81661 4.45265 4.14684
# Velocity P-wave (km/s) = 5.87050 6.69136 6.29432
#
# Compressibility (1/GPa) = 0.03000219
#
# Stress axis : x y z
#
# Youngs Moduli (GPa) = 39.14936 60.83603 109.98122
#
# Poissons Ratio (x) = 0.59443 -0.36303
# Poissons Ratio (y) = 0.38253 0.44711
# Poissons Ratio (z) = -0.12922 0.24732
#
# Static dielectric constant tensor:
#      x y z
#    x 2.681800 0.000000 -0.152050 
#    y 0.000000 1.896230 0.000000 
#    z -0.152050 0.000000 1.823340 
# 
# From -- ./inp_files/74041.got.cif
#   From: 2010.05.17/outbox.cif.g08.bks.cpg/sg15_38_cif.got.tgz:74041.got - 2010.06.03 18:47:42.
