data_PCOD9298818
_publ_section_title
;
Structure prediction by ZEFSAII (Michael W. Deem and Ramdas Pophale) SiO2 
 PCOD9298818
Probable space group: C 2/C
;
_chemical_formula_sum "Si O2"
_cell_formula_units_Z 60
_cell_length_a 20.864435
_cell_length_b 9.881995
_cell_length_c 22.566323
_cell_angle_alpha 90.000000
_cell_angle_beta 37.363965
_cell_angle_gamma 90.000000
_cell_volume 2823.657942
_symmetry_space_group_name_H-M "C 2/C"
_symmetry_group_IT_number 15
_symmetry_cell_setting 'monoclinic'
loop_
_space_group_symop_operation_xyz
x,y,z
-x,y,1/2-z
-x,-y,-z
x,-y,1/2+z
1/2+x,1/2+y,z
1/2-x,1/2+y,1/2-z
1/2-x,1/2-y,-z
1/2+x,1/2-y,1/2+z
loop_
_atom_site_type_symbol
_atom_site_label
_atom_site_fract_x
_atom_site_fract_y
_atom_site_fract_z
Si Si1 0.181818 0.773473 0.688286
Si Si2 0.571314 0.755308 0.024303
Si Si3 0.596400 0.972325 0.320245
Si Si4 0.846798 0.161898 0.906616
Si Si5 0.000000 0.000000 0.000000
Si Si6 0.425041 0.270801 0.216509
Si Si7 0.650715 0.347337 0.585350
Si Si8 0.187281 0.995714 0.279244
O O1 0.306767 0.779925 0.582387
O O2 0.145596 0.626131 0.734484
O O3 0.118910 0.815074 0.675745
O O4 0.164523 0.876849 0.754345
O O5 0.505159 0.893685 0.079396
O O6 0.573505 0.684278 0.087786
O O7 0.522695 0.649226 0.014170
O O8 0.688466 0.984262 0.301306
O O9 0.576251 0.117772 0.305983
O O10 0.874511 0.203473 0.818576
O O11 0.953059 0.185247 0.866544
O O12 0.819407 0.004563 0.934445
O O13 0.750000 0.250000 0.000000
O O14 0.875792 0.008645 0.113261
O O15 0.362898 0.365631 0.216321
O O16 0.750000 0.250000 0.500000
#
# Coordination Sequence:
#
# PCOD9298818 Si02
#       8
#     8   8   8   8   4   8   8   8
#     4  11  24  47  75 103 145 190 253 302 372 440
#     4  11  26  45  74 111 141 192 253 305 377 446
#     4  12  27  44  72 109 148 193 245 308 367 445
#     4  11  26  48  73 108 149 188 236 305 375 441
#     4  12  24  44  72 102 144 186 246 298 364 440
#     4  11  28  45  73 109 146 192 241 298 377 447
#     4  10  24  45  79 105 139 189 249 303 371 442
#     4  12  25  50  71 102 146 197 243 305 369 446
#
# _framework density 21.249034000000002
#
# number of rings (size 3 to 8) (size 9 to 14) (size 15 to 20)
#    0.000    0.800    4.000    1.600    7.467    3.200 
#    0.000    0.000    0.000    0.000    0.000    0.000 
#    0.000    0.000    0.000    0.000    0.000    0.000 
#
# Total GULP energy -167250.025871 kJ/mol
# GULP energy per Si atom -5575.000862 kJ/mol
# Density = 2.120067 g / cm^3
# Si number density = 21.249034 Si / 1000 Ang^3
#
#
#
# Elastic Constant Matrix: (Units=GPa)
#
#
# Indices 1 2 3 4 5 6 
#
# 1 53.3173 57.3274 16.9460 0.0000 -9.5056 0.0000
# 2 57.3274 172.2829 30.2176 0.0000 -15.6948 0.0000
# 3 16.9460 30.2176 100.5676 0.0000 -26.5664 0.0000
# 4 0.0000 0.0000 0.0000 32.3318 0.0000 -8.9985
# 5 -9.5056 -15.6948 -26.5664 0.0000 21.6533 0.0000
# 6 0.0000 0.0000 0.0000 -8.9985 0.0000 23.3215
#
#
#
# Elastic Compliance Matrix: (Units=1/GPa)
#
#
# Indices 1 2 3 4 5 6 
#
# 1 0.030045 -0.009362 -0.000826 0.000000 0.005391 0.000000
# 2 -0.009362 0.009201 -0.000756 0.000000 0.001632 0.000000
# 3 -0.000826 -0.000756 0.014898 0.000000 0.017368 0.000000
# 4 0.000000 0.000000 0.000000 0.034650 0.000000 0.013370
# 5 0.005391 0.001632 0.017368 0.000000 0.071040 0.000000
# 6 0.000000 0.000000 0.000000 0.013370 0.000000 0.048038
#
#
# Mechanical properties :
#
#
# Convention : Reuss Voigt Hill
#
# Bulk Modulus (GPa) = 31.00131 59.46110 45.23121
# Shear Modulus (GPa) = 20.78917 30.23976 25.51446
#
# Velocity S-wave (km/s) = 3.13127 3.77651 3.46892
# Velocity P-wave (km/s) = 5.26254 6.86001 6.11367
#
# Compressibility (1/GPa) = 0.03225670
#
# Stress axis : x y z
#
# Youngs Moduli (GPa) = 33.28366 108.68725 67.12409
#
# Poissons Ratio (x) = 1.01748 0.05542
# Poissons Ratio (y) = 0.31159 0.05075
# Poissons Ratio (z) = 0.02748 0.08218
#
# Static dielectric constant tensor:
#      x y z
#    x 1.779560 0.000000 0.072820 
#    y 0.000000 1.756160 0.000000 
#    z 0.072820 0.000000 1.702200 
# 
# From -- ./inp_files/279675.got.cif
#   From: 2010.05.17/outbox.cif.g08.bks.cpg/sg15_140_cif.got.tgz:279675.got - 2010.06.03 18:47:42.
