data_PCOD9298821
_publ_section_title
;
Structure prediction by ZEFSAII (Michael W. Deem and Ramdas Pophale) SiO2 
 PCOD9298821
Probable space group: C 2/C
;
_chemical_formula_sum "Si O2"
_cell_formula_units_Z 48
_cell_length_a 11.074202
_cell_length_b 11.159338
_cell_length_c 16.427687
_cell_angle_alpha 90.000000
_cell_angle_beta 113.398070
_cell_angle_gamma 90.000000
_cell_volume 1863.203129
_symmetry_space_group_name_H-M "C 2/C"
_symmetry_group_IT_number 15
_symmetry_cell_setting 'monoclinic'
loop_
_space_group_symop_operation_xyz
x,y,z
-x,y,1/2-z
-x,-y,-z
x,-y,1/2+z
1/2+x,1/2+y,z
1/2-x,1/2+y,1/2-z
1/2-x,1/2-y,-z
1/2+x,1/2-y,1/2+z
loop_
_atom_site_type_symbol
_atom_site_label
_atom_site_fract_x
_atom_site_fract_y
_atom_site_fract_z
Si Si1 0.922850 0.435325 0.553521
Si Si2 0.500000 0.414775 0.750000
Si Si3 0.000000 0.539986 0.250000
Si Si4 0.777143 0.088871 0.766445
Si Si5 0.819246 0.023949 0.938658
Si Si6 0.836751 0.255648 0.404200
Si Si7 0.115147 0.199801 0.427733
O O1 0.825116 0.533993 0.562150
O O2 0.836422 0.334127 0.485714
O O3 0.000000 0.500000 0.500000
O O4 0.980845 0.391265 0.657060
O O5 0.387604 0.497318 0.761515
O O6 0.406167 0.328142 0.671729
O O7 0.866418 0.466548 0.243027
O O8 0.751614 0.187677 0.690845
O O9 0.837723 0.118382 0.870843
O O10 0.820731 0.886299 0.910902
O O11 0.907285 0.067336 0.036358
O O12 0.987096 0.271952 0.417242
O O13 0.250000 0.250000 0.500000
#
# Coordination Sequence:
#
# PCOD9298821 Si02
#       7
#     8   4   4   8   8   8   8
#     4  11  22  45  77 111 159 213 277 340 422 496
#     4  12  28  53  81 120 168 218 284 352 428 516
#     4  10  24  45  81 120 162 214 290 346 398 526
#     4  11  26  49  81 116 167 216 282 342 426 501
#     4  11  26  51  72 118 163 210 282 346 416 507
#     4  12  25  48  82 113 163 223 272 357 429 499
#     4  12  29  48  83 116 164 219 281 350 424 510
#
# _framework density 25.762084999999999
#
# number of rings (size 3 to 8) (size 9 to 14) (size 15 to 20)
#    0.000    0.667    3.333    3.000    7.000    0.000 
#    3.000    1.667    0.000    0.000    0.000    0.000 
#    0.000    0.000    0.000    0.000    0.000    0.000 
#
# Total GULP energy -133660.167609 kJ/mol
# GULP energy per Si atom -5569.173650 kJ/mol
# Density = 2.570345 g / cm^3
# Si number density = 25.762085 Si / 1000 Ang^3
#
#
#
# Elastic Constant Matrix: (Units=GPa)
#
#
# Indices 1 2 3 4 5 6 
#
# 1 138.1999 23.3400 19.7761 0.0000 -10.3537 0.0000
# 2 23.3400 95.8531 62.7683 0.0000 -2.4808 0.0000
# 3 19.7761 62.7683 197.9526 0.0000 -12.6734 0.0000
# 4 0.0000 0.0000 0.0000 35.6996 0.0000 5.0771
# 5 -10.3537 -2.4808 -12.6734 0.0000 43.4054 0.0000
# 6 0.0000 0.0000 0.0000 5.0771 0.0000 23.7140
#
#
#
# Elastic Compliance Matrix: (Units=1/GPa)
#
#
# Indices 1 2 3 4 5 6 
#
# 1 0.007675 -0.001759 -0.000100 0.000000 0.001701 0.000000
# 2 -0.001759 0.013579 -0.004186 0.000000 -0.000866 0.000000
# 3 -0.000100 -0.004186 0.006493 0.000000 0.001633 0.000000
# 4 0.000000 0.000000 0.000000 0.028891 0.000000 -0.006186
# 5 0.001701 -0.000866 0.001633 0.000000 0.023872 0.000000
# 6 0.000000 0.000000 0.000000 -0.006186 0.000000 0.043494
#
#
# Mechanical properties :
#
#
# Convention : Reuss Voigt Hill
#
# Bulk Modulus (GPa) = 63.86503 71.53049 67.69776
# Shear Modulus (GPa) = 35.38244 42.30520 38.84382
#
# Velocity S-wave (km/s) = 3.71000 4.05674 3.88724
# Velocity P-wave (km/s) = 6.57239 7.05471 6.81782
#
# Compressibility (1/GPa) = 0.01565802
#
# Stress axis : x y z
#
# Youngs Moduli (GPa) = 130.29736 73.64061 154.00194
#
# Poissons Ratio (x) = 0.12956 0.01540
# Poissons Ratio (y) = 0.22923 0.64458
# Poissons Ratio (z) = 0.01303 0.30823
#
# Static dielectric constant tensor:
#      x y z
#    x 2.417520 0.000000 -0.103500 
#    y 0.000000 2.159920 0.000000 
#    z -0.103500 0.000000 2.515290 
# 
# From -- ./inp_files/196640.got.cif
#   From: 2010.05.17/outbox.cif.g08.bks.cpg/sg15_99_cif.got.tgz:196640.got - 2010.06.03 18:47:42.
