data_PCOD9298473
_publ_section_title
;
Structure prediction by ZEFSAII (Michael W. Deem and Ramdas Pophale) SiO2 
 PCOD9298473
Probable space group: C 2/C
;
_chemical_formula_sum "Si O2"
_cell_formula_units_Z 40
_cell_length_a 5.086265
_cell_length_b 21.953032
_cell_length_c 16.896372
_cell_angle_alpha 90.000000
_cell_angle_beta 111.966773
_cell_angle_gamma 90.000000
_cell_volume 1749.663326
_symmetry_space_group_name_H-M "C 2/C"
_symmetry_group_IT_number 15
_symmetry_cell_setting 'monoclinic'
loop_
_space_group_symop_operation_xyz
x,y,z
-x,y,1/2-z
-x,-y,-z
x,-y,1/2+z
1/2+x,1/2+y,z
1/2-x,1/2+y,1/2-z
1/2-x,1/2-y,-z
1/2+x,1/2-y,1/2+z
loop_
_atom_site_type_symbol
_atom_site_label
_atom_site_fract_x
_atom_site_fract_y
_atom_site_fract_z
Si Si1 0.808752 0.709636 0.308873
Si Si2 0.390264 0.864755 0.518327
Si Si3 0.536859 0.658427 0.659396
Si Si4 0.180454 0.026286 0.693785
Si Si5 0.080095 0.058212 0.455578
O O1 0.500000 0.686361 0.250000
O O2 0.000000 0.705736 0.250000
O O3 0.935705 0.675117 0.399257
O O4 0.786408 0.780350 0.334113
O O5 0.253861 0.835805 0.423828
O O6 0.597119 0.919821 0.514189
O O7 0.119646 0.888126 0.536962
O O8 0.500000 0.658434 0.750000
O O9 0.671157 0.592875 0.649834
O O10 0.500000 0.011578 0.750000
O O11 0.000000 0.038584 0.750000
O O12 0.029163 0.968563 0.638778
O O13 0.000000 0.000000 0.500000
#
# Coordination Sequence:
#
# PCOD9298473 Si02
#       5
#     8   8   8   8   8
#     4  11  25  47  71 102 140 181 230 287 345 414
#     4  12  26  44  73 100 138 184 227 285 346 412
#     4  10  24  44  71 100 138 177 233 284 342 404
#     4  11  24  41  67  96 130 177 228 278 340 405
#     4  12  26  43  67  97 140 174 226 283 345 401
#
# _framework density 22.861543000000001
#
# number of rings (size 3 to 8) (size 9 to 14) (size 15 to 20)
#    0.000    0.800    2.000    4.200    5.600    8.000 
#    0.000    7.000    0.000    0.000    0.000    0.000 
#    0.000    0.000    0.000    0.000    0.000    0.000 
#
# Total GULP energy -111690.550471 kJ/mol
# GULP energy per Si atom -5584.527524 kJ/mol
# Density = 2.280951 g / cm^3
# Si number density = 22.861543 Si / 1000 Ang^3
#
#
#
# Elastic Constant Matrix: (Units=GPa)
#
#
# Indices 1 2 3 4 5 6 
#
# 1 64.4342 -4.5907 11.8579 0.0000 2.1413 0.0000
# 2 -4.5907 36.8213 31.5769 0.0000 -21.3029 0.0000
# 3 11.8579 31.5769 169.9168 0.0000 -2.7384 0.0000
# 4 0.0000 0.0000 0.0000 9.1343 0.0000 27.8312
# 5 2.1413 -21.3029 -2.7384 0.0000 28.6839 0.0000
# 6 0.0000 0.0000 0.0000 27.8312 0.0000 11.9515
#
#
#
# Elastic Compliance Matrix: (Units=1/GPa)
#
#
# Indices 1 2 3 4 5 6 
#
# 1 0.016188 0.005208 -0.002058 0.000000 0.002463 0.000000
# 2 0.005208 0.064744 -0.011645 0.000000 0.046584 0.000000
# 3 -0.002058 -0.011645 0.008068 0.000000 -0.007724 0.000000
# 4 0.000000 0.000000 0.000000 -0.017961 0.000000 0.041826
# 5 0.002463 0.046584 -0.007724 0.000000 0.068538 0.000000
# 6 0.000000 0.000000 0.000000 0.041826 0.000000 -0.013727
#
#
# Mechanical properties :
#
#
# Convention : Reuss Voigt Hill
#
# Bulk Modulus (GPa) = 13.88677 38.76228 26.32452
# Shear Modulus (GPa) = 29.96829 25.44250 27.70539
#
# Velocity S-wave (km/s) = 3.62451 3.33963 3.48498
# Velocity P-wave (km/s) = 4.85835 5.64472 5.26623
#
# Compressibility (1/GPa) = 0.07201101
#
# Stress axis : x y z
#
# Youngs Moduli (GPa) = 61.77569 15.44535 123.94103
#
# Poissons Ratio (x) = -0.08043 0.25504
# Poissons Ratio (y) = -0.32171 1.44324
# Poissons Ratio (z) = 0.12712 0.17985
#
# Static dielectric constant tensor:
#      x y z
#    x 1.834820 0.000000 -0.114670 
#    y 0.000000 1.942300 0.000000 
#    z -0.114670 0.000000 2.048150 
# 
# From -- ./inp_files/261786.got.cif
#   From: 2010.05.17/outbox.cif.g08.bks.cpg/sg15_131_cif.got.tgz:261786.got - 2010.06.03 18:47:42.
