data_PCOD9298591
_publ_section_title
;
Structure prediction by ZEFSAII (Michael W. Deem and Ramdas Pophale) SiO2 
 PCOD9298591
Probable space group: C 2/C
;
_chemical_formula_sum "Si O2"
_cell_formula_units_Z 52
_cell_length_a 5.799373
_cell_length_b 24.600859
_cell_length_c 20.663824
_cell_angle_alpha 90.000000
_cell_angle_beta 129.221191
_cell_angle_gamma 90.000000
_cell_volume 2283.923485
_symmetry_space_group_name_H-M "C 2/C"
_symmetry_group_IT_number 15
_symmetry_cell_setting 'monoclinic'
loop_
_space_group_symop_operation_xyz
x,y,z
-x,y,1/2-z
-x,-y,-z
x,-y,1/2+z
1/2+x,1/2+y,z
1/2-x,1/2+y,1/2-z
1/2-x,1/2-y,-z
1/2+x,1/2-y,1/2+z
loop_
_atom_site_type_symbol
_atom_site_label
_atom_site_fract_x
_atom_site_fract_y
_atom_site_fract_z
Si Si1 0.000000 0.353611 0.250000
Si Si2 0.033281 0.063557 0.850647
Si Si3 0.465642 0.366325 0.929839
Si Si4 0.923228 0.051720 0.165169
Si Si5 0.060218 0.650465 0.620458
Si Si6 0.113634 0.249679 0.049639
Si Si7 0.733654 0.958600 0.968763
O O1 0.273838 0.393154 0.312270
O O2 0.036900 0.323936 0.187843
O O3 0.260461 0.093924 0.842077
O O4 0.892218 0.003941 0.813624
O O5 0.208309 0.061469 0.949243
O O6 0.556165 0.398155 0.880666
O O7 0.314335 0.307305 0.902662
O O8 0.243629 0.407981 0.923170
O O9 0.748924 0.362547 0.029040
O O10 0.601739 0.022643 0.099267
O O11 0.000000 0.070921 0.250000
O O12 0.218024 0.695090 0.602674
O O13 0.250000 0.250000 0.000000
O O14 0.750000 0.250000 0.000000
O O15 0.000000 0.000000 0.000000
#
# Coordination Sequence:
#
# PCOD9298591 Si02
#       7
#     4   8   8   8   8   8   8
#     4  12  26  40  70 108 140 184 238 308 366 424
#     4  12  24  42  67 102 143 183 236 299 373 434
#     4  11  23  44  70 100 137 190 239 296 361 449
#     4  12  27  42  66 104 146 187 240 299 365 436
#     4  11  23  44  69 103 141 184 245 304 367 435
#     4  10  24  44  77 107 139 192 248 307 369 442
#     4  12  23  41  72  97 139 188 244 289 364 447
#
# _framework density 22.767838000000001
#
# number of rings (size 3 to 8) (size 9 to 14) (size 15 to 20)
#    0.000    0.615    4.615    3.692    6.462    0.615 
#    1.385    0.000    3.385    0.000    0.000    0.000 
#    0.000    0.000    0.000    0.000    0.000    0.000 
#
# Total GULP energy -144992.394165 kJ/mol
# GULP energy per Si atom -5576.630545 kJ/mol
# Density = 2.271602 g / cm^3
# Si number density = 22.767838 Si / 1000 Ang^3
#
#
#
# Elastic Constant Matrix: (Units=GPa)
#
#
# Indices 1 2 3 4 5 6 
#
# 1 81.1532 21.8744 36.3918 0.0000 -21.4481 0.0000
# 2 21.8744 114.1630 13.8449 0.0000 -14.9050 0.0000
# 3 36.3918 13.8449 131.0332 0.0000 -33.6426 0.0000
# 4 0.0000 0.0000 0.0000 -19.6758 0.0000 15.3711
# 5 -21.4481 -14.9050 -33.6426 0.0000 42.8764 0.0000
# 6 0.0000 0.0000 0.0000 15.3711 0.0000 10.3658
#
#
#
# Elastic Compliance Matrix: (Units=1/GPa)
#
#
# Indices 1 2 3 4 5 6 
#
# 1 0.015393 -0.001981 -0.002837 0.000000 0.004785 0.000000
# 2 -0.001981 0.009434 0.000176 0.000000 0.002427 0.000000
# 3 -0.002837 0.000176 0.010084 0.000000 0.006554 0.000000
# 4 0.000000 0.000000 0.000000 -0.023547 0.000000 0.034916
# 5 0.004785 0.002427 0.006554 0.000000 0.031703 0.000000
# 6 0.000000 0.000000 0.000000 0.034916 0.000000 0.044695
#
#
# Mechanical properties :
#
#
# Convention : Reuss Voigt Hill
#
# Bulk Modulus (GPa) = 39.01866 52.28574 45.65220
# Shear Modulus (GPa) = 47.35358 23.66249 35.50803
#
# Velocity S-wave (km/s) = 4.56548 3.22731 3.95342
# Velocity P-wave (km/s) = 6.70569 6.07470 6.39798
#
# Compressibility (1/GPa) = 0.02562876
#
# Stress axis : x y z
#
# Youngs Moduli (GPa) = 64.96331 105.99490 99.16905
#
# Poissons Ratio (x) = 0.20993 0.28137
# Poissons Ratio (y) = 0.12867 -0.01750
# Poissons Ratio (z) = 0.18432 -0.01870
#
# Static dielectric constant tensor:
#      x y z
#    x 2.048100 0.000000 0.012240 
#    y 0.000000 2.024790 0.000000 
#    z 0.012240 0.000000 1.872730 
# 
# From -- ./inp_files/186317.got.cif
#   From: 2010.05.17/outbox.cif.g08.bks.cpg/sg15_94_cif.got.tgz:186317.got - 2010.06.03 18:47:42.
