data_PCOD9298347
_publ_section_title
;
Structure prediction by ZEFSAII (Michael W. Deem and Ramdas Pophale) SiO2 
 PCOD9298347
Probable space group: C 2/C
;
_chemical_formula_sum "Si O2"
_cell_formula_units_Z 48
_cell_length_a 8.184452
_cell_length_b 28.524572
_cell_length_c 9.079361
_cell_angle_alpha 90.000000
_cell_angle_beta 75.664183
_cell_angle_gamma 90.000000
_cell_volume 2053.645901
_symmetry_space_group_name_H-M "C 2/C"
_symmetry_group_IT_number 15
_symmetry_cell_setting 'monoclinic'
loop_
_space_group_symop_operation_xyz
x,y,z
-x,y,1/2-z
-x,-y,-z
x,-y,1/2+z
1/2+x,1/2+y,z
1/2-x,1/2+y,1/2-z
1/2-x,1/2-y,-z
1/2+x,1/2-y,1/2+z
loop_
_atom_site_type_symbol
_atom_site_label
_atom_site_fract_x
_atom_site_fract_y
_atom_site_fract_z
Si Si1 0.615215 0.815771 0.587022
Si Si2 0.867021 0.959822 0.012664
Si Si3 0.141247 0.508044 0.823825
Si Si4 0.025673 0.770719 0.914659
Si Si5 0.122483 0.863660 0.578826
Si Si6 0.503555 0.105538 0.925610
O O1 0.500000 0.829139 0.750000
O O2 0.791395 0.794790 0.603549
O O3 0.522229 0.774389 0.518169
O O4 0.634289 0.860244 0.476579
O O5 0.752487 0.963339 0.181517
O O6 0.950253 0.909049 0.986967
O O7 0.761857 0.974751 0.890412
O O8 0.000000 0.000000 0.000000
O O9 0.000000 0.484856 0.750000
O O10 0.054561 0.550701 0.934825
O O11 0.000000 0.757358 0.750000
O O12 0.894205 0.811932 0.984363
O O13 0.320438 0.878953 0.533550
O O14 0.000000 0.860761 0.750000
O O15 0.500000 0.114078 0.750000
#
# Coordination Sequence:
#
# PCOD9298347 Si02
#       6
#     8   8   8   8   8   8
#     4  11  24  44  71 106 137 192 238 292 370 426
#     4  12  25  46  71 103 143 191 238 298 361 424
#     4  11  24  47  70 104 142 194 243 294 358 433
#     4  10  24  44  68 101 144 180 238 301 354 433
#     4  11  23  43  68 103 138 185 238 292 357 419
#     4  11  24  46  71 102 145 189 237 293 360 428
#
# _framework density 23.373066999999999
#
# number of rings (size 3 to 8) (size 9 to 14) (size 15 to 20)
#    0.000    1.000    3.333    4.500    2.333    5.333 
#    3.000    0.000    0.000    0.000    0.000    0.000 
#    0.000    0.000    0.000    0.000    0.000    0.000 
#
# Total GULP energy -134067.912985 kJ/mol
# GULP energy per Si atom -5586.163041 kJ/mol
# Density = 2.331987 g / cm^3
# Si number density = 23.373067 Si / 1000 Ang^3
#
#
#
# Elastic Constant Matrix: (Units=GPa)
#
#
# Indices 1 2 3 4 5 6 
#
# 1 76.0422 17.0900 26.8140 0.0000 9.2943 0.0000
# 2 17.0900 80.0404 20.4648 0.0000 29.3895 0.0000
# 3 26.8140 20.4648 103.1306 0.0000 17.6392 0.0000
# 4 0.0000 0.0000 0.0000 36.0962 0.0000 5.1188
# 5 9.2943 29.3895 17.6392 0.0000 38.1290 0.0000
# 6 0.0000 0.0000 0.0000 5.1188 0.0000 35.0187
#
#
#
# Elastic Compliance Matrix: (Units=1/GPa)
#
#
# Indices 1 2 3 4 5 6 
#
# 1 0.014875 -0.002169 -0.003369 0.000000 -0.000395 0.000000
# 2 -0.002169 0.017894 -0.000780 0.000000 -0.012903 0.000000
# 3 -0.003369 -0.000780 0.011385 0.000000 -0.003844 0.000000
# 4 0.000000 0.000000 0.000000 0.028290 0.000000 -0.004135
# 5 -0.000395 -0.012903 -0.003844 0.000000 0.038047 0.000000
# 6 0.000000 0.000000 0.000000 -0.004135 0.000000 0.029161
#
#
# Mechanical properties :
#
#
# Convention : Reuss Voigt Hill
#
# Bulk Modulus (GPa) = 31.72996 43.10564 37.41780
# Shear Modulus (GPa) = 30.71368 34.83840 32.77604
#
# Velocity S-wave (km/s) = 3.62893 3.86493 3.74879
# Velocity P-wave (km/s) = 5.58245 6.19673 5.89759
#
# Compressibility (1/GPa) = 0.03151596
#
# Stress axis : x y z
#
# Youngs Moduli (GPa) = 67.22904 55.88445 87.83674
#
# Poissons Ratio (x) = 0.12124 0.29595
# Poissons Ratio (y) = 0.14585 0.06850
# Poissons Ratio (z) = 0.22652 0.04358
#
# Static dielectric constant tensor:
#      x y z
#    x 1.952230 0.000000 0.018720 
#    y 0.000000 1.907620 0.000000 
#    z 0.018720 0.000000 1.800080 
# 
# From -- ./inp_files/26146.got.cif
#   From: 2010.05.17/outbox.cif.g08.bks.cpg/sg15_14_cif.got.tgz:26146.got - 2010.06.03 18:47:42.
