data_PCOD9298984
_publ_section_title
;
Structure prediction by ZEFSAII (Michael W. Deem and Ramdas Pophale) SiO2 
 PCOD9298984
Probable space group: C 2/C
;
_chemical_formula_sum "Si O2"
_cell_formula_units_Z 28
_cell_length_a 4.802098
_cell_length_b 18.731881
_cell_length_c 13.399924
_cell_angle_alpha 90.000000
_cell_angle_beta 81.353166
_cell_angle_gamma 90.000000
_cell_volume 1191.654087
_symmetry_space_group_name_H-M "C 2/C"
_symmetry_group_IT_number 15
_symmetry_cell_setting 'monoclinic'
loop_
_space_group_symop_operation_xyz
x,y,z
-x,y,1/2-z
-x,-y,-z
x,-y,1/2+z
1/2+x,1/2+y,z
1/2-x,1/2+y,1/2-z
1/2-x,1/2-y,-z
1/2+x,1/2-y,1/2+z
loop_
_atom_site_type_symbol
_atom_site_label
_atom_site_fract_x
_atom_site_fract_y
_atom_site_fract_z
Si Si1 0.000000 0.017551 0.750000
Si Si2 0.071475 0.817929 0.471585
Si Si3 0.615141 0.142148 0.848002
Si Si4 0.293793 0.377294 0.680405
O O1 0.228034 0.068741 0.687228
O O2 0.137477 0.962137 0.820455
O O3 0.250000 0.750000 0.500000
O O4 0.330871 0.869167 0.426806
O O5 0.646093 0.689136 0.609180
O O6 0.872058 0.847567 0.569225
O O7 0.500000 0.173425 0.750000
O O8 0.500000 0.342702 0.750000
O O9 0.000000 0.367371 0.750000
#
# Coordination Sequence:
#
# PCOD9298984 Si02
#       4
#     4   8   8   8
#     4  10  24  46  72 106 154 188 256 284 398 402
#     4  12  27  47  75 111 145 199 254 293 376 441
#     4  12  24  48  74 109 147 196 240 315 365 436
#     4  10  24  46  72 107 150 190 244 311 361 434
#
# _framework density 23.496749999999999
#
# number of rings (size 3 to 8) (size 9 to 14) (size 15 to 20)
#    0.857    0.000    2.857    3.429    0.000    3.429 
#    2.571    0.000    0.000    0.000    0.000    0.000 
#    0.000    0.000    0.000    0.000    0.000    0.000 
#
# Total GULP energy -78187.934905 kJ/mol
# GULP energy per Si atom -5584.852493 kJ/mol
# Density = 2.344327 g / cm^3
# Si number density = 23.496750 Si / 1000 Ang^3
#
#
#
# Elastic Constant Matrix: (Units=GPa)
#
#
# Indices 1 2 3 4 5 6 
#
# 1 219.6471 60.2758 92.3784 0.0000 -8.6281 0.0000
# 2 60.2758 121.3131 69.2991 0.0000 -11.5069 0.0000
# 3 92.3784 69.2991 158.1923 0.0000 -22.8804 0.0000
# 4 0.0000 0.0000 0.0000 33.4316 0.0000 -14.2826
# 5 -8.6281 -11.5069 -22.8804 0.0000 66.5337 0.0000
# 6 0.0000 0.0000 0.0000 -14.2826 0.0000 40.6827
#
#
#
# Elastic Compliance Matrix: (Units=1/GPa)
#
#
# Indices 1 2 3 4 5 6 
#
# 1 0.006212 -0.001361 -0.003103 0.000000 -0.000497 0.000000
# 2 -0.001361 0.011297 -0.004101 0.000000 0.000367 0.000000
# 3 -0.003103 -0.004101 0.010281 0.000000 0.002424 0.000000
# 4 0.000000 0.000000 0.000000 0.035190 0.000000 0.012354
# 5 -0.000497 0.000367 0.002424 0.000000 0.015863 0.000000
# 6 0.000000 0.000000 0.000000 0.012354 0.000000 0.028918
#
#
# Mechanical properties :
#
#
# Convention : Reuss Voigt Hill
#
# Bulk Modulus (GPa) = 93.81632 104.78433 99.30032
# Shear Modulus (GPa) = 38.92801 46.60956 42.76879
#
# Velocity S-wave (km/s) = 4.07472 4.45866 4.27101
# Velocity P-wave (km/s) = 7.88365 8.43791 8.16548
#
# Compressibility (1/GPa) = 0.01065913
#
# Stress axis : x y z
#
# Youngs Moduli (GPa) = 160.98343 88.52099 97.27026
#
# Poissons Ratio (x) = 0.12047 0.30185
# Poissons Ratio (y) = 0.21908 0.39890
# Poissons Ratio (z) = 0.49956 0.36302
#
# Static dielectric constant tensor:
#      x y z
#    x 1.893880 0.000000 0.082020 
#    y 0.000000 1.912350 0.000000 
#    z 0.082020 0.000000 1.869370 
# 
# From -- ./inp_files/71610.got.cif
#   From: 2010.05.17/outbox.cif.g08.bks.cpg/sg15_36_cif.got.tgz:71610.got - 2010.06.03 18:47:42.
