data_PCOD9298854
_publ_section_title
;
Structure prediction by ZEFSAII (Michael W. Deem and Ramdas Pophale) SiO2 
 PCOD9298854
Probable space group: C 2/C
;
_chemical_formula_sum "Si O2"
_cell_formula_units_Z 48
_cell_length_a 11.745172
_cell_length_b 10.998257
_cell_length_c 21.341327
_cell_angle_alpha 90.000000
_cell_angle_beta 45.115575
_cell_angle_gamma 90.000000
_cell_volume 1953.277493
_symmetry_space_group_name_H-M "C 2/C"
_symmetry_group_IT_number 15
_symmetry_cell_setting 'monoclinic'
loop_
_space_group_symop_operation_xyz
x,y,z
-x,y,1/2-z
-x,-y,-z
x,-y,1/2+z
1/2+x,1/2+y,z
1/2-x,1/2+y,1/2-z
1/2-x,1/2-y,-z
1/2+x,1/2-y,1/2+z
loop_
_atom_site_type_symbol
_atom_site_label
_atom_site_fract_x
_atom_site_fract_y
_atom_site_fract_z
Si Si1 0.139800 0.670156 0.905767
Si Si2 0.190192 0.694448 0.692352
Si Si3 0.709048 0.155377 0.463063
Si Si4 0.327627 0.552600 0.087597
Si Si5 0.401978 0.708502 0.726952
Si Si6 0.696922 0.593556 0.542737
O O1 0.147100 0.815643 0.891320
O O2 0.294208 0.615476 0.810556
O O3 0.163908 0.652575 0.970009
O O4 0.972311 0.613567 0.952505
O O5 0.281552 0.773933 0.605047
O O6 0.238242 0.551897 0.661632
O O7 0.259700 0.741674 0.731758
O O8 0.000000 0.706302 0.750000
O O9 0.750000 0.250000 0.500000
O O10 0.825421 0.042640 0.423408
O O11 0.500000 0.500000 0.000000
O O12 0.251925 0.580886 0.048932
O O13 0.500000 0.770632 0.750000
O O14 0.537710 0.663672 0.626249
#
# Coordination Sequence:
#
# PCOD9298854 Si02
#       6
#     8   8   8   8   8   8
#     4  11  24  43  69 103 141 188 244 291 356 432
#     4  12  26  44  72 109 144 186 243 299 363 426
#     4  12  23  44  73 106 143 188 241 298 360 434
#     4  12  22  45  74  99 138 190 237 296 360 430
#     4  10  24  46  67 102 147 186 237 294 359 424
#     4  11  23  43  72 104 141 190 238 297 358 427
#
# _framework density 24.574082000000001
#
# number of rings (size 3 to 8) (size 9 to 14) (size 15 to 20)
#    0.000    0.667    5.000    2.000    0.000    5.333 
#    6.000    0.000    0.000    0.000    0.000    0.000 
#    0.000    0.000    0.000    0.000    0.000    0.000 
#
# Total GULP energy -133819.578590 kJ/mol
# GULP energy per Si atom -5575.815775 kJ/mol
# Density = 2.451815 g / cm^3
# Si number density = 24.574082 Si / 1000 Ang^3
#
#
#
# Elastic Constant Matrix: (Units=GPa)
#
#
# Indices 1 2 3 4 5 6 
#
# 1 146.6734 6.5977 38.1652 0.0000 11.7127 0.0000
# 2 6.5977 99.2973 15.3431 0.0000 17.5320 0.0000
# 3 38.1652 15.3431 88.9360 0.0000 17.0525 0.0000
# 4 0.0000 0.0000 0.0000 16.4903 0.0000 2.9479
# 5 11.7127 17.5320 17.0525 0.0000 63.9579 0.0000
# 6 0.0000 0.0000 0.0000 2.9479 0.0000 18.3022
#
#
#
# Elastic Compliance Matrix: (Units=1/GPa)
#
#
# Indices 1 2 3 4 5 6 
#
# 1 0.007694 0.000086 -0.003206 0.000000 -0.000578 0.000000
# 2 0.000086 0.010737 -0.001393 0.000000 -0.002588 0.000000
# 3 -0.003206 -0.001393 0.013357 0.000000 -0.002592 0.000000
# 4 0.000000 0.000000 0.000000 0.062439 0.000000 -0.010057
# 5 -0.000578 -0.002588 -0.002592 0.000000 0.017142 0.000000
# 6 0.000000 0.000000 0.000000 -0.010057 0.000000 0.056258
#
#
# Mechanical properties :
#
#
# Convention : Reuss Voigt Hill
#
# Bulk Modulus (GPa) = 43.93132 50.56874 47.25003
# Shear Modulus (GPa) = 27.13831 38.07013 32.60422
#
# Velocity S-wave (km/s) = 3.32678 3.94026 3.64644
# Velocity P-wave (km/s) = 5.71599 6.42834 6.08260
#
# Compressibility (1/GPa) = 0.02276280
#
# Stress axis : x y z
#
# Youngs Moduli (GPa) = 129.96557 93.13433 74.86600
#
# Poissons Ratio (x) = -0.00803 0.24002
# Poissons Ratio (y) = -0.01120 0.10430
# Poissons Ratio (z) = 0.41666 0.12975
#
# Static dielectric constant tensor:
#      x y z
#    x 2.076130 0.000000 0.022240 
#    y 0.000000 1.972950 0.000000 
#    z 0.022240 0.000000 2.084240 
# 
# From -- ./inp_files/237434.got.cif
#   From: 2010.05.17/outbox.cif.g08.bks.cpg/sg15_119_cif.got.tgz:237434.got - 2010.06.03 18:47:42.
