data_PCOD9298491
_publ_section_title
;
Structure prediction by ZEFSAII (Michael W. Deem and Ramdas Pophale) SiO2 
 PCOD9298491
Probable space group: C 2/C
;
_chemical_formula_sum "Si O2"
_cell_formula_units_Z 52
_cell_length_a 8.903809
_cell_length_b 15.611249
_cell_length_c 30.781008
_cell_angle_alpha 90.000000
_cell_angle_beta 36.403007
_cell_angle_gamma 90.000000
_cell_volume 2539.151427
_symmetry_space_group_name_H-M "C 2/C"
_symmetry_group_IT_number 15
_symmetry_cell_setting 'monoclinic'
loop_
_space_group_symop_operation_xyz
x,y,z
-x,y,1/2-z
-x,-y,-z
x,-y,1/2+z
1/2+x,1/2+y,z
1/2-x,1/2+y,1/2-z
1/2-x,1/2-y,-z
1/2+x,1/2-y,1/2+z
loop_
_atom_site_type_symbol
_atom_site_label
_atom_site_fract_x
_atom_site_fract_y
_atom_site_fract_z
Si Si1 0.433186 0.061168 0.639453
Si Si2 0.000000 0.080253 0.250000
Si Si3 0.000000 0.517742 0.250000
Si Si4 0.899790 0.661827 0.203603
Si Si5 0.491207 0.788015 0.917680
Si Si6 0.395255 0.038609 0.480082
Si Si7 0.500000 0.696390 0.750000
Si Si8 0.176921 0.101208 0.873897
O O1 0.627120 0.077159 0.633474
O O2 0.242758 0.140393 0.680672
O O3 0.238518 0.982054 0.690255
O O4 0.580618 0.034621 0.561949
O O5 0.895341 0.142375 0.237196
O O6 0.003577 0.581850 0.290109
O O7 0.232065 0.451843 0.189719
O O8 0.039264 0.678380 0.124984
O O9 0.930537 0.744700 0.225656
O O10 0.549456 0.875120 0.930640
O O11 0.668760 0.704243 0.871952
O O12 0.250000 0.750000 0.000000
O O13 0.104531 0.068024 0.550761
O O14 0.500000 0.000000 0.500000
#
# Coordination Sequence:
#
# PCOD9298491 Si02
#       8
#     8   4   4   8   8   8   4   8
#     4  11  24  45  65 100 141 182 233 289 346 421
#     4  11  22  40  74  91 138 178 229 274 360 406
#     4  11  24  44  71 106 130 184 233 292 346 429
#     4  11  24  44  68  98 143 177 233 288 350 413
#     4  10  24  44  71  98 140 183 234 286 349 416
#     4  11  25  45  71  99 137 190 235 286 347 424
#     4  10  28  40  67 105 140 176 236 296 348 407
#     4  11  25  43  71  98 140 180 237 280 363 409
#
# _framework density 20.479282000000001
#
# number of rings (size 3 to 8) (size 9 to 14) (size 15 to 20)
#    0.000    1.231    3.077    0.462   10.769    1.231 
#    2.769    0.769    0.000    0.000    0.000    0.000 
#    0.000    0.000    0.000    0.000    0.000    0.000 
#
# Total GULP energy -144949.500735 kJ/mol
# GULP energy per Si atom -5574.980797 kJ/mol
# Density = 2.043267 g / cm^3
# Si number density = 20.479282 Si / 1000 Ang^3
#
#
#
# Elastic Constant Matrix: (Units=GPa)
#
#
# Indices 1 2 3 4 5 6 
#
# 1 108.5968 66.5943 30.7492 -0.0023 2.5674 0.0012
# 2 66.5943 175.0665 63.8588 -0.0007 10.8593 -0.0006
# 3 30.7492 63.8588 100.4810 -0.0043 7.6970 -0.0047
# 4 -0.0023 -0.0007 -0.0043 35.3170 0.0037 2.6156
# 5 2.5674 10.8593 7.6970 0.0037 40.7829 0.0001
# 6 0.0012 -0.0006 -0.0047 2.6156 0.0001 25.8605
#
#
#
# Elastic Compliance Matrix: (Units=1/GPa)
#
#
# Indices 1 2 3 4 5 6 
#
# 1 0.012101 -0.004259 -0.001040 0.000001 0.000569 -0.000001
# 2 -0.004259 0.008984 -0.004306 0.000000 -0.001311 0.000000
# 3 -0.001040 -0.004306 0.013104 0.000001 -0.001261 0.000002
# 4 0.000001 0.000000 0.000001 0.028529 -0.000003 -0.002885
# 5 0.000569 -0.001311 -0.001261 -0.000003 0.025071 0.000000
# 6 -0.000001 0.000000 0.000002 -0.002885 0.000000 0.038961
#
#
# Mechanical properties :
#
#
# Convention : Reuss Voigt Hill
#
# Bulk Modulus (GPa) = 66.76038 78.50543 72.63290
# Shear Modulus (GPa) = 33.12284 35.25487 34.18885
#
# Velocity S-wave (km/s) = 4.02603 4.15358 4.09031
# Velocity P-wave (km/s) = 7.36761 7.83711 7.60598
#
# Compressibility (1/GPa) = 0.01497894
#
# Stress axis : x y z
#
# Youngs Moduli (GPa) = 82.63626 111.30522 76.31530
#
# Poissons Ratio (x) = 0.47407 0.07936
# Poissons Ratio (y) = 0.35196 0.32861
# Poissons Ratio (z) = 0.08594 0.47927
#
# Static dielectric constant tensor:
#      x y z
#    x 1.730050 0.000000 0.001880 
#    y 0.000000 1.752970 0.000000 
#    z 0.001880 0.000000 1.781390 
# 
# From -- ./inp_files/308213.got.cif
#   From: 2010.05.17/outbox.cif.g08.bks.cpg/sg15_155_cif.got.tgz:308213.got - 2010.06.03 18:47:42.
