data_PCOD9298307
_publ_section_title
;
Structure prediction by ZEFSAII (Michael W. Deem and Ramdas Pophale) SiO2 
 PCOD9298307
Probable space group: C 2/C
;
_chemical_formula_sum "Si O2"
_cell_formula_units_Z 44
_cell_length_a 8.589636
_cell_length_b 13.041487
_cell_length_c 19.950735
_cell_angle_alpha 90.000000
_cell_angle_beta 103.695424
_cell_angle_gamma 90.000000
_cell_volume 2171.370783
_symmetry_space_group_name_H-M "C 2/C"
_symmetry_group_IT_number 15
_symmetry_cell_setting 'monoclinic'
loop_
_space_group_symop_operation_xyz
x,y,z
-x,y,1/2-z
-x,-y,-z
x,-y,1/2+z
1/2+x,1/2+y,z
1/2-x,1/2+y,1/2-z
1/2-x,1/2-y,-z
1/2+x,1/2-y,1/2+z
loop_
_atom_site_type_symbol
_atom_site_label
_atom_site_fract_x
_atom_site_fract_y
_atom_site_fract_z
Si Si1 0.709431 0.662565 0.049856
Si Si2 0.500000 0.027222 0.250000
Si Si3 0.332727 0.784114 0.707861
Si Si4 0.549542 0.146239 0.655469
Si Si5 0.647931 0.308295 0.933485
Si Si6 0.323897 0.016801 0.953596
O O1 0.816974 0.685184 0.127123
O O2 0.526650 0.664276 0.055117
O O3 0.750000 0.750000 0.000000
O O4 0.733583 0.559771 0.009707
O O5 0.514029 0.953037 0.313802
O O6 0.649662 0.104215 0.256107
O O7 0.500000 0.733897 0.750000
O O8 0.181742 0.713565 0.708210
O O9 0.402610 0.221611 0.624822
O O10 0.648096 0.101571 0.601436
O O11 0.741575 0.411015 0.921629
O O12 0.750000 0.250000 0.000000
O O13 0.500000 0.000000 0.000000
#
# Coordination Sequence:
#
# PCOD9298307 Si02
#       6
#     8   4   8   8   8   8
#     4  11  20  42  67  97 137 170 219 280 329 404
#     4  10  24  44  66  86 130 182 216 272 336 394
#     4   9  22  43  63  93 128 170 223 265 333 397
#     4  11  23  46  61  94 134 169 231 273 329 406
#     4  11  23  39  64 101 130 170 219 269 336 398
#     4  12  22  40  68  96 137 172 218 276 340 387
#
# _framework density 20.263697000000001
#
# number of rings (size 3 to 8) (size 9 to 14) (size 15 to 20)
#    0.545    0.727    5.455    1.636    0.000    1.455 
#    9.818    0.000    0.000    0.000    0.000    0.000 
#    0.000    0.000    0.000    0.000    0.000    0.000 
#
# Total GULP energy -122527.974040 kJ/mol
# GULP energy per Si atom -5569.453365 kJ/mol
# Density = 2.021758 g / cm^3
# Si number density = 20.263697 Si / 1000 Ang^3
#
#
#
# Elastic Constant Matrix: (Units=GPa)
#
#
# Indices 1 2 3 4 5 6 
#
# 1 53.1010 26.7828 23.3474 0.0000 25.1062 0.0000
# 2 26.7828 118.7553 16.6673 0.0000 19.4363 0.0000
# 3 23.3474 16.6673 60.0488 0.0000 25.7065 0.0000
# 4 0.0000 0.0000 0.0000 44.7504 0.0000 8.3062
# 5 25.1062 19.4363 25.7065 0.0000 40.7974 0.0000
# 6 0.0000 0.0000 0.0000 8.3062 0.0000 38.7821
#
#
#
# Elastic Compliance Matrix: (Units=1/GPa)
#
#
# Indices 1 2 3 4 5 6 
#
# 1 0.028948 -0.003733 -0.004593 0.000000 -0.013141 0.000000
# 2 -0.003733 0.009652 -0.000332 0.000000 -0.002092 0.000000
# 3 -0.004593 -0.000332 0.023626 0.000000 -0.011902 0.000000
# 4 0.000000 0.000000 0.000000 0.023271 0.000000 -0.004984
# 5 -0.013141 -0.002092 -0.011902 0.000000 0.041095 0.000000
# 6 0.000000 0.000000 0.000000 -0.004984 0.000000 0.026853
#
#
# Mechanical properties :
#
#
# Convention : Reuss Voigt Hill
#
# Bulk Modulus (GPa) = 22.26721 40.61111 31.43916
# Shear Modulus (GPa) = 26.92075 35.87315 31.39695
#
# Velocity S-wave (km/s) = 3.64884 4.21208 3.94054
# Velocity P-wave (km/s) = 5.36327 6.61364 6.02100
#
# Compressibility (1/GPa) = 0.04490908
#
# Stress axis : x y z
#
# Youngs Moduli (GPa) = 34.54506 103.61063 42.32542
#
# Poissons Ratio (x) = 0.38679 0.19441
# Poissons Ratio (y) = 0.12896 0.01405
# Poissons Ratio (z) = 0.15867 0.03441
#
# Static dielectric constant tensor:
#      x y z
#    x 1.695130 0.000000 -0.019760 
#    y 0.000000 1.810260 0.000000 
#    z -0.019760 0.000000 1.773740 
# 
# From -- ./inp_files/263307.got.cif
#   From: 2010.05.17/outbox.cif.g08.bks.cpg/sg15_132_cif.got.tgz:263307.got - 2010.06.03 18:47:42.
