data_PCOD9298736
_publ_section_title
;
Structure prediction by ZEFSAII (Michael W. Deem and Ramdas Pophale) SiO2 
 PCOD9298736
Probable space group: C 2/C
;
_chemical_formula_sum "Si O2"
_cell_formula_units_Z 40
_cell_length_a 20.456321
_cell_length_b 9.179790
_cell_length_c 22.402419
_cell_angle_alpha 90.000000
_cell_angle_beta 156.055937
_cell_angle_gamma 90.000000
_cell_volume 1707.320010
_symmetry_space_group_name_H-M "C 2/C"
_symmetry_group_IT_number 15
_symmetry_cell_setting 'monoclinic'
loop_
_space_group_symop_operation_xyz
x,y,z
-x,y,1/2-z
-x,-y,-z
x,-y,1/2+z
1/2+x,1/2+y,z
1/2-x,1/2+y,1/2-z
1/2-x,1/2-y,-z
1/2+x,1/2-y,1/2+z
loop_
_atom_site_type_symbol
_atom_site_label
_atom_site_fract_x
_atom_site_fract_y
_atom_site_fract_z
Si Si1 0.260071 0.411056 0.743079
Si Si2 0.926032 0.718889 0.521761
Si Si3 0.755927 0.793005 0.935842
Si Si4 0.374694 0.693618 0.785117
Si Si5 0.604663 0.102289 0.782833
O O1 0.429630 0.328746 0.874622
O O2 0.184308 0.350073 0.740351
O O3 0.134714 0.369748 0.586303
O O4 0.699219 0.419741 0.229447
O O5 0.996864 0.620244 0.633767
O O6 0.770122 0.809178 0.412785
O O7 0.689243 0.670454 0.835207
O O8 0.651247 0.937623 0.838407
O O9 0.750000 0.750000 0.000000
O O10 0.935755 0.820135 0.062640
O O11 0.500000 0.164651 0.750000
#
# Coordination Sequence:
#
# PCOD9298736 Si02
#       5
#     8   8   8   8   8
#     4  11  26  46  76 109 146 194 243 307 373 438
#     4  10  24  45  71 109 149 185 244 306 373 438
#     4  12  28  50  74 106 149 200 248 306 365 443
#     4  12  28  48  77 108 150 193 252 304 371 446
#     4  11  23  45  73 105 147 197 244 299 367 437
#
# _framework density 23.428532000000001
#
# number of rings (size 3 to 8) (size 9 to 14) (size 15 to 20)
#    0.000    0.800    2.000    3.600   11.200    3.200 
#    0.000    0.000    0.000    0.000    0.000    0.000 
#    0.000    0.000    0.000    0.000    0.000    0.000 
#
# Total GULP energy -112106.556314 kJ/mol
# GULP energy per Si atom -5605.327816 kJ/mol
# Density = 2.337521 g / cm^3
# Si number density = 23.428532 Si / 1000 Ang^3
#
#
#
# Elastic Constant Matrix: (Units=GPa)
#
#
# Indices 1 2 3 4 5 6 
#
# 1 124.3285 26.8542 58.3215 -0.0001 6.4344 -0.0001
# 2 26.8542 61.0288 30.1535 0.0000 10.6047 -0.0001
# 3 58.3215 30.1535 158.3797 0.0001 -5.4051 0.0000
# 4 -0.0001 0.0000 0.0001 24.0940 -0.0001 2.8628
# 5 6.4344 10.6047 -5.4051 -0.0001 37.2561 0.0000
# 6 -0.0001 -0.0001 0.0000 2.8628 0.0000 36.6327
#
#
#
# Elastic Compliance Matrix: (Units=1/GPa)
#
#
# Indices 1 2 3 4 5 6 
#
# 1 0.010245 -0.002600 -0.003329 0.000000 -0.001512 0.000000
# 2 -0.002600 0.020026 -0.003049 0.000000 -0.005694 0.000000
# 3 -0.003329 -0.003049 0.008210 0.000000 0.002634 0.000000
# 4 0.000000 0.000000 0.000000 0.041893 0.000000 -0.003274
# 5 -0.001512 -0.005694 0.002634 0.000000 0.029105 0.000000
# 6 0.000000 0.000000 0.000000 -0.003274 0.000000 0.027554
#
#
# Mechanical properties :
#
#
# Convention : Reuss Voigt Hill
#
# Bulk Modulus (GPa) = 48.72501 63.82169 56.27335
# Shear Modulus (GPa) = 30.89625 34.82376 32.86000
#
# Velocity S-wave (km/s) = 3.63539 3.85955 3.74914
# Velocity P-wave (km/s) = 6.20193 6.86743 6.54314
#
# Compressibility (1/GPa) = 0.02052334
#
# Stress axis : x y z
#
# Youngs Moduli (GPa) = 97.61100 49.93513 121.79834
#
# Poissons Ratio (x) = 0.12985 0.40547
# Poissons Ratio (y) = 0.25382 0.37142
# Poissons Ratio (z) = 0.32495 0.15227
#
# Static dielectric constant tensor:
#      x y z
#    x 1.865010 0.000000 0.004350 
#    y 0.000000 1.904900 0.000000 
#    z 0.004350 0.000000 1.854370 
# 
# From -- ./inp_files/60357.got.cif
#   From: 2010.05.17/outbox.cif.g08.bks.cpg/sg15_31_cif.got.tgz:60357.got - 2010.06.03 18:47:42.
