data_PCOD9298975
_publ_section_title
;
Structure prediction by ZEFSAII (Michael W. Deem and Ramdas Pophale) SiO2 
 PCOD9298975
Probable space group: C 2/C
;
_chemical_formula_sum "Si O2"
_cell_formula_units_Z 36
_cell_length_a 21.661442
_cell_length_b 5.355817
_cell_length_c 19.949164
_cell_angle_alpha 90.000000
_cell_angle_beta 138.995255
_cell_angle_gamma 90.000000
_cell_volume 1518.525476
_symmetry_space_group_name_H-M "C 2/C"
_symmetry_group_IT_number 15
_symmetry_cell_setting 'monoclinic'
loop_
_space_group_symop_operation_xyz
x,y,z
-x,y,1/2-z
-x,-y,-z
x,-y,1/2+z
1/2+x,1/2+y,z
1/2-x,1/2+y,1/2-z
1/2-x,1/2-y,-z
1/2+x,1/2-y,1/2+z
loop_
_atom_site_type_symbol
_atom_site_label
_atom_site_fract_x
_atom_site_fract_y
_atom_site_fract_z
Si Si1 0.522054 0.578842 0.627074
Si Si2 0.219005 0.762813 0.318423
Si Si3 0.701804 0.771916 0.388649
Si Si4 0.000000 0.133729 0.250000
Si Si5 0.914618 0.307640 0.421067
O O1 0.614100 0.756617 0.700903
O O2 0.486990 0.536135 0.673324
O O3 0.439872 0.641996 0.507936
O O4 0.565230 0.326446 0.632085
O O5 0.235807 0.505344 0.372171
O O6 0.302818 0.838585 0.336581
O O7 0.214075 0.003051 0.363279
O O8 0.750000 0.750000 0.500000
O O9 0.590998 0.799796 0.311856
O O10 0.000000 0.500000 0.500000
#
# Coordination Sequence:
#
# PCOD9298975 Si02
#       5
#     8   8   8   4   8
#     4  10  26  47  70 108 143 193 241 306 361 446
#     4  11  27  44  74 105 145 189 250 293 367 431
#     4  11  25  44  72 107 147 194 232 305 356 443
#     4  10  24  46  72 102 146 186 244 288 374 428
#     4  11  27  45  75 103 145 194 244 307 368 434
#
# _framework density 23.707207
#
# number of rings (size 3 to 8) (size 9 to 14) (size 15 to 20)
#    0.000    1.333    0.000    2.000   18.667    5.333 
#    0.000    0.000    0.000    0.000    0.000    0.000 
#    0.000    0.000    0.000    0.000    0.000    0.000 
#
# Total GULP energy -100580.812371 kJ/mol
# GULP energy per Si atom -5587.822910 kJ/mol
# Density = 2.365325 g / cm^3
# Si number density = 23.707207 Si / 1000 Ang^3
#
#
#
# Elastic Constant Matrix: (Units=GPa)
#
#
# Indices 1 2 3 4 5 6 
#
# 1 116.5073 6.1439 9.9127 0.0010 11.3149 0.0007
# 2 6.1439 82.7633 3.6363 0.0027 3.1056 0.0013
# 3 9.9127 3.6363 73.2581 0.0010 -2.7033 0.0004
# 4 0.0010 0.0027 0.0010 24.6603 0.0001 -2.3661
# 5 11.3149 3.1056 -2.7033 0.0001 49.9738 0.0001
# 6 0.0007 0.0013 0.0004 -2.3661 0.0001 32.9853
#
#
#
# Elastic Compliance Matrix: (Units=1/GPa)
#
#
# Indices 1 2 3 4 5 6 
#
# 1 0.008917 -0.000530 -0.001256 0.000000 -0.002054 0.000000
# 2 -0.000530 0.012171 -0.000557 -0.000001 -0.000667 -0.000001
# 3 -0.001256 -0.000557 0.013887 0.000000 0.001070 0.000000
# 4 0.000000 -0.000001 0.000000 0.040832 0.000000 0.002929
# 5 -0.002054 -0.000667 0.001070 0.000000 0.020575 0.000000
# 6 0.000000 -0.000001 0.000000 0.002929 0.000000 0.030527
#
#
# Mechanical properties :
#
#
# Convention : Reuss Voigt Hill
#
# Bulk Modulus (GPa) = 33.01362 34.65717 33.83539
# Shear Modulus (GPa) = 35.28764 38.37959 36.83361
#
# Velocity S-wave (km/s) = 3.86226 4.02792 3.94596
# Velocity P-wave (km/s) = 5.81767 6.02352 5.92149
#
# Compressibility (1/GPa) = 0.03029053
#
# Stress axis : x y z
#
# Youngs Moduli (GPa) = 112.13964 82.15937 72.00727
#
# Poissons Ratio (x) = 0.04352 0.09045
# Poissons Ratio (y) = 0.05940 0.04011
# Poissons Ratio (z) = 0.14086 0.04577
#
# Static dielectric constant tensor:
#      x y z
#    x 1.823930 0.000000 -0.059830 
#    y 0.000000 1.956770 0.000000 
#    z -0.059830 0.000000 1.812770 
# 
# From -- ./inp_files/179930.got.cif
#   From: 2010.05.17/outbox.cif.g08.bks.cpg/sg15_90_cif.got.tgz:179930.got - 2010.06.03 18:47:42.
