data_PCOD9298626
_publ_section_title
;
Structure prediction by ZEFSAII (Michael W. Deem and Ramdas Pophale) SiO2 
 PCOD9298626
Probable space group: C 2/C
;
_chemical_formula_sum "Si O2"
_cell_formula_units_Z 64
_cell_length_a 11.362409
_cell_length_b 12.140624
_cell_length_c 23.176895
_cell_angle_alpha 90.000000
_cell_angle_beta 118.488216
_cell_angle_gamma 90.000000
_cell_volume 2810.047564
_symmetry_space_group_name_H-M "C 2/C"
_symmetry_group_IT_number 15
_symmetry_cell_setting 'monoclinic'
loop_
_space_group_symop_operation_xyz
x,y,z
-x,y,1/2-z
-x,-y,-z
x,-y,1/2+z
1/2+x,1/2+y,z
1/2-x,1/2+y,1/2-z
1/2-x,1/2-y,-z
1/2+x,1/2-y,1/2+z
loop_
_atom_site_type_symbol
_atom_site_label
_atom_site_fract_x
_atom_site_fract_y
_atom_site_fract_z
Si Si1 0.396250 0.230113 0.011371
Si Si2 0.611645 0.831396 0.735541
Si Si3 0.270775 0.980795 0.156756
Si Si4 0.547807 0.040465 0.398226
Si Si5 0.518897 0.461022 0.437943
Si Si6 0.208535 0.125986 0.422774
Si Si7 0.839704 0.768943 0.705342
Si Si8 0.965604 0.312737 0.061160
O O1 0.434352 0.108171 0.039653
O O2 0.480332 0.328716 0.059038
O O3 0.250000 0.250000 0.000000
O O4 0.415159 0.238646 0.947776
O O5 0.500000 0.770080 0.750000
O O6 0.532249 0.880177 0.662656
O O7 0.746346 0.777579 0.740838
O O8 0.655973 0.936280 0.783621
O O9 0.113545 0.993615 0.127175
O O10 0.316093 0.855452 0.177095
O O11 0.312838 0.014098 0.101581
O O12 0.486555 0.921165 0.395042
O O13 0.500000 0.500000 0.500000
O O14 0.645073 0.515248 0.435008
O O15 0.214271 0.143078 0.355294
O O16 0.103431 0.221352 0.416291
O O17 0.347287 0.152481 0.488165
O O18 0.000000 0.785799 0.750000
#
# Coordination Sequence:
#
# PCOD9298626 Si02
#       8
#     8   8   8   8   8   8   8   8
#     4  12  25  39  61  97 138 175 213 270 337 399
#     4  10  24  45  66  97 132 174 221 282 340 395
#     4  11  23  43  68  95 128 173 224 275 335 397
#     4  11  22  41  66  95 132 178 219 272 334 399
#     4  12  23  41  64  96 137 174 218 271 337 401
#     4  11  23  39  69  97 129 171 222 276 321 392
#     4  12  24  45  72  99 130 178 233 276 327 402
#     4  11  22  40  64  98 130 171 222 269 326 393
#
# _framework density 22.775414000000001
#
# number of rings (size 3 to 8) (size 9 to 14) (size 15 to 20)
#    0.000    0.750    2.500    6.750    0.000    1.000 
#    0.000    4.375    0.000    0.000    0.000    0.000 
#    0.000    0.000    0.000    0.000    0.000    0.000 
#
# Total GULP energy -178899.426174 kJ/mol
# GULP energy per Si atom -5590.607068 kJ/mol
# Density = 2.272358 g / cm^3
# Si number density = 22.775414 Si / 1000 Ang^3
#
#
#
# Elastic Constant Matrix: (Units=GPa)
#
#
# Indices 1 2 3 4 5 6 
#
# 1 142.3058 7.9541 12.3790 0.0000 -25.9754 0.0000
# 2 7.9541 82.0341 -10.2837 0.0000 -19.6123 0.0000
# 3 12.3790 -10.2837 35.6947 0.0000 -9.5882 0.0000
# 4 0.0000 0.0000 0.0000 24.9547 0.0000 -12.2966
# 5 -25.9754 -19.6123 -9.5882 0.0000 39.1004 0.0000
# 6 0.0000 0.0000 0.0000 -12.2966 0.0000 32.1922
#
#
#
# Elastic Compliance Matrix: (Units=1/GPa)
#
#
# Indices 1 2 3 4 5 6 
#
# 1 0.008072 0.000291 -0.001323 0.000000 0.005184 0.000000
# 2 0.000291 0.015309 0.006877 0.000000 0.009559 0.000000
# 3 -0.001323 0.006877 0.033342 0.000000 0.010747 0.000000
# 4 0.000000 0.000000 0.000000 0.049364 0.000000 0.018856
# 5 0.005184 0.009559 0.010747 0.000000 0.036449 0.000000
# 6 0.000000 0.000000 0.000000 0.018856 0.000000 0.038266
#
#
# Mechanical properties :
#
#
# Convention : Reuss Voigt Hill
#
# Bulk Modulus (GPa) = 14.61696 31.12592 22.87144
# Shear Modulus (GPa) = 26.05293 35.91515 30.98404
#
# Velocity S-wave (km/s) = 3.38584 3.97536 3.69238
# Velocity P-wave (km/s) = 4.66015 5.89639 5.31434
#
# Compressibility (1/GPa) = 0.06841366
#
# Stress axis : x y z
#
# Youngs Moduli (GPa) = 123.88183 65.32020 29.99188
#
# Poissons Ratio (x) = -0.01899 0.03968
# Poissons Ratio (y) = -0.03602 -0.20626
# Poissons Ratio (z) = 0.16392 -0.44923
#
# Static dielectric constant tensor:
#      x y z
#    x 1.894070 0.000000 -0.014090 
#    y 0.000000 1.859870 0.000000 
#    z -0.014090 0.000000 1.855340 
# 
# From -- ./inp_files/269267.got.cif
#   From: 2010.05.17/outbox.cif.g08.bks.cpg/sg15_135_cif.got.tgz:269267.got - 2010.06.03 18:47:42.
