data_PCOD9298583
_publ_section_title
;
Structure prediction by ZEFSAII (Michael W. Deem and Ramdas Pophale) SiO2 
 PCOD9298583
Probable space group: C 2/C
;
_chemical_formula_sum "Si O2"
_cell_formula_units_Z 36
_cell_length_a 5.307014
_cell_length_b 18.572547
_cell_length_c 16.436932
_cell_angle_alpha 90.000000
_cell_angle_beta 63.260968
_cell_angle_gamma 90.000000
_cell_volume 1446.856868
_symmetry_space_group_name_H-M "C 2/C"
_symmetry_group_IT_number 15
_symmetry_cell_setting 'monoclinic'
loop_
_space_group_symop_operation_xyz
x,y,z
-x,y,1/2-z
-x,-y,-z
x,-y,1/2+z
1/2+x,1/2+y,z
1/2-x,1/2+y,1/2-z
1/2-x,1/2-y,-z
1/2+x,1/2-y,1/2+z
loop_
_atom_site_type_symbol
_atom_site_label
_atom_site_fract_x
_atom_site_fract_y
_atom_site_fract_z
Si Si1 0.767547 0.903680 0.649835
Si Si2 0.227769 0.189349 0.931721
Si Si3 0.551080 0.032159 0.581562
Si Si4 0.000000 0.013482 0.250000
Si Si5 0.192599 0.245073 0.644757
O O1 0.500000 0.905270 0.750000
O O2 0.011320 0.928150 0.674696
O O3 0.776562 0.826748 0.605924
O O4 0.732287 0.970753 0.597483
O O5 0.271730 0.106141 0.949233
O O6 0.542727 0.205308 0.853420
O O7 0.979268 0.206440 0.903265
O O8 0.250000 0.250000 0.000000
O O9 0.500000 0.000000 0.500000
O O10 0.267354 0.035615 0.681838
O O11 0.000000 0.256115 0.750000
#
# Coordination Sequence:
#
# PCOD9298583 Si02
#       5
#     8   8   8   4   8
#     4   9  22  42  72 103 140 192 249 302 372 452
#     4  12  28  47  71 110 153 193 254 314 384 456
#     4  11  26  46  74 106 148 200 255 315 380 457
#     4  10  24  44  76 106 148 192 266 310 382 464
#     4  11  26  46  76 106 149 196 248 313 385 453
#
# _framework density 24.881519000000001
#
# number of rings (size 3 to 8) (size 9 to 14) (size 15 to 20)
#    0.000    1.333    0.000    2.667   17.111    4.444 
#    0.000    0.000    0.000    0.000    0.000    0.000 
#    0.000    0.000    0.000    0.000    0.000    0.000 
#
# Total GULP energy -100353.379352 kJ/mol
# GULP energy per Si atom -5575.187742 kJ/mol
# Density = 2.482489 g / cm^3
# Si number density = 24.881519 Si / 1000 Ang^3
#
#
#
# Elastic Constant Matrix: (Units=GPa)
#
#
# Indices 1 2 3 4 5 6 
#
# 1 64.5501 28.6385 20.8336 0.0000 12.0856 0.0000
# 2 28.6385 184.1365 52.0611 0.0000 7.1726 0.0000
# 3 20.8336 52.0611 100.6862 0.0000 13.2428 0.0000
# 4 0.0000 0.0000 0.0000 42.1477 0.0000 -0.0953
# 5 12.0856 7.1726 13.2428 0.0000 55.4679 0.0000
# 6 0.0000 0.0000 0.0000 -0.0953 0.0000 35.5704
#
#
#
# Elastic Compliance Matrix: (Units=1/GPa)
#
#
# Indices 1 2 3 4 5 6 
#
# 1 0.017669 -0.002002 -0.002218 0.000000 -0.003061 0.000000
# 2 -0.002002 0.006587 -0.003033 0.000000 0.000308 0.000000
# 3 -0.002218 -0.003033 0.012228 0.000000 -0.002044 0.000000
# 4 0.000000 0.000000 0.000000 0.023726 0.000000 0.000064
# 5 -0.003061 0.000308 -0.002044 0.000000 0.019144 0.000000
# 6 0.000000 0.000000 0.000000 0.000064 0.000000 0.028113
#
#
# Mechanical properties :
#
#
# Convention : Reuss Voigt Hill
#
# Bulk Modulus (GPa) = 45.49768 61.38213 53.43991
# Shear Modulus (GPa) = 38.67012 43.15983 40.91498
#
# Velocity S-wave (km/s) = 3.94657 4.16939 4.05951
# Velocity P-wave (km/s) = 6.25241 6.92111 6.59524
#
# Compressibility (1/GPa) = 0.02197914
#
# Stress axis : x y z
#
# Youngs Moduli (GPa) = 56.59622 151.80419 81.78154
#
# Poissons Ratio (x) = 0.30385 0.18143
# Poissons Ratio (y) = 0.11328 0.24800
# Poissons Ratio (z) = 0.12555 0.46035
#
# Static dielectric constant tensor:
#      x y z
#    x 2.211870 0.000000 -0.276200 
#    y 0.000000 1.960240 0.000000 
#    z -0.276200 0.000000 1.995080 
# 
# From -- ./inp_files/184098.got.cif
#   From: 2010.05.17/outbox.cif.g08.bks.cpg/sg15_93_cif.got.tgz:184098.got - 2010.06.03 18:47:42.
