data_PCOD9298559
_publ_section_title
;
Structure prediction by ZEFSAII (Michael W. Deem and Ramdas Pophale) SiO2 
 PCOD9298559
Probable space group: C 2/C
;
_chemical_formula_sum "Si O2"
_cell_formula_units_Z 60
_cell_length_a 20.505283
_cell_length_b 10.883274
_cell_length_c 18.119923
_cell_angle_alpha 90.000000
_cell_angle_beta 139.629073
_cell_angle_gamma 90.000000
_cell_volume 2619.256131
_symmetry_space_group_name_H-M "C 2/C"
_symmetry_group_IT_number 15
_symmetry_cell_setting 'monoclinic'
loop_
_space_group_symop_operation_xyz
x,y,z
-x,y,1/2-z
-x,-y,-z
x,-y,1/2+z
1/2+x,1/2+y,z
1/2-x,1/2+y,1/2-z
1/2-x,1/2-y,-z
1/2+x,1/2-y,1/2+z
loop_
_atom_site_type_symbol
_atom_site_label
_atom_site_fract_x
_atom_site_fract_y
_atom_site_fract_z
Si Si1 0.241855 0.101572 0.797443
Si Si2 0.500000 0.702387 0.750000
Si Si3 0.053948 0.696948 0.562168
Si Si4 0.823811 0.014058 0.612288
Si Si5 0.071827 0.232924 0.242745
Si Si6 0.902093 0.331933 0.805521
Si Si7 0.611685 0.541613 0.080203
Si Si8 0.725493 0.948865 0.379514
O O1 0.348513 0.111305 0.850652
O O2 0.174008 0.224154 0.733271
O O3 0.246869 0.075307 0.887612
O O4 0.180793 0.989176 0.709478
O O5 0.403667 0.615031 0.652928
O O6 0.471324 0.778626 0.798531
O O7 0.025540 0.744074 0.620338
O O8 0.100168 0.814576 0.558153
O O9 0.968638 0.642094 0.435697
O O10 0.889981 0.903948 0.704842
O O11 0.750582 0.969657 0.485838
O O12 0.169084 0.320631 0.324595
O O13 0.000000 0.268943 0.250000
O O14 0.840903 0.442874 0.714893
O O15 0.665487 0.461729 0.064485
O O16 0.500000 0.500000 0.000000
#
# Coordination Sequence:
#
# PCOD9298559 Si02
#       8
#     8   4   8   8   8   8   8   8
#     4  11  24  44  72 111 135 190 252 314 367 438
#     4  10  24  44  74 108 138 194 244 300 382 438
#     4  12  25  47  75 108 149 192 255 311 375 447
#     4  11  25  46  73 102 146 196 251 303 366 453
#     4  12  28  48  71 106 150 206 247 293 377 458
#     4  11  26  44  74 109 148 188 243 317 383 435
#     4  12  24  45  76 105 144 194 253 315 369 451
#     4  12  28  47  69 111 152 190 248 310 381 450
#
# _framework density 22.907267000000001
#
# number of rings (size 3 to 8) (size 9 to 14) (size 15 to 20)
#    0.000    0.533    6.000    1.200    6.533    1.600 
#    4.800    0.000    0.000    0.000    0.000    0.000 
#    0.000    0.000    0.000    0.000    0.000    0.000 
#
# Total GULP energy -167741.158908 kJ/mol
# GULP energy per Si atom -5591.371964 kJ/mol
# Density = 2.285513 g / cm^3
# Si number density = 22.907267 Si / 1000 Ang^3
#
#
#
# Elastic Constant Matrix: (Units=GPa)
#
#
# Indices 1 2 3 4 5 6 
#
# 1 127.2064 26.9927 44.8837 0.0000 -3.4362 0.0000
# 2 26.9927 50.3640 5.3118 0.0000 11.7696 0.0000
# 3 44.8837 5.3118 115.0639 0.0000 -15.0036 0.0000
# 4 0.0000 0.0000 0.0000 -47.1822 0.0000 37.4237
# 5 -3.4362 11.7696 -15.0036 0.0000 25.4582 0.0000
# 6 0.0000 0.0000 0.0000 37.4237 0.0000 10.7995
#
#
#
# Elastic Compliance Matrix: (Units=1/GPa)
#
#
# Indices 1 2 3 4 5 6 
#
# 1 0.010351 -0.005624 -0.003528 0.000000 0.001918 0.000000
# 2 -0.005624 0.026038 -0.000733 0.000000 -0.013229 0.000000
# 3 -0.003528 -0.000733 0.010922 0.000000 0.006300 0.000000
# 4 0.000000 0.000000 0.000000 -0.005654 0.000000 0.019593
# 5 0.001918 -0.013229 0.006300 0.000000 0.049368 0.000000
# 6 0.000000 0.000000 0.000000 0.019593 0.000000 0.024702
#
#
# Mechanical properties :
#
#
# Convention : Reuss Voigt Hill
#
# Bulk Modulus (GPa) = 36.30873 49.66783 42.98828
# Shear Modulus (GPa) = 34.55940 12.17818 23.36879
#
# Velocity S-wave (km/s) = 3.88837 2.30821 3.19744
# Velocity P-wave (km/s) = 6.00366 5.36964 5.69548
#
# Compressibility (1/GPa) = 0.02754158
#
# Stress axis : x y z
#
# Youngs Moduli (GPa) = 96.60652 38.40473 91.55549
#
# Poissons Ratio (x) = 0.21598 0.32301
# Poissons Ratio (y) = 0.54330 0.06714
# Poissons Ratio (z) = 0.34084 0.02816
#
# Static dielectric constant tensor:
#      x y z
#    x 1.895100 0.000000 -0.033090 
#    y 0.000000 1.960430 0.000000 
#    z -0.033090 0.000000 1.865170 
# 
# From -- ./inp_files/215211.got.cif
#   From: 2010.05.17/outbox.cif.g08.bks.cpg/sg15_108_cif.got.tgz:215211.got - 2010.06.03 18:47:42.
