data_PCOD9298991
_publ_section_title
;
Structure prediction by ZEFSAII (Michael W. Deem and Ramdas Pophale) SiO2 
 PCOD9298991
Probable space group: C 2/C
;
_chemical_formula_sum "Si O2"
_cell_formula_units_Z 44
_cell_length_a 5.011218
_cell_length_b 14.048783
_cell_length_c 22.620584
_cell_angle_alpha 90.000000
_cell_angle_beta 89.565047
_cell_angle_gamma 90.000000
_cell_volume 1592.477479
_symmetry_space_group_name_H-M "C 2/C"
_symmetry_group_IT_number 15
_symmetry_cell_setting 'monoclinic'
loop_
_space_group_symop_operation_xyz
x,y,z
-x,y,1/2-z
-x,-y,-z
x,-y,1/2+z
1/2+x,1/2+y,z
1/2-x,1/2+y,1/2-z
1/2-x,1/2-y,-z
1/2+x,1/2-y,1/2+z
loop_
_atom_site_type_symbol
_atom_site_label
_atom_site_fract_x
_atom_site_fract_y
_atom_site_fract_z
Si Si1 0.079343 0.673142 0.819160
Si Si2 0.749951 0.374196 0.791685
Si Si3 0.718782 0.575359 0.482619
Si Si4 0.750000 0.750000 0.500000
Si Si5 0.949040 0.517959 0.124072
Si Si6 0.209411 0.792045 0.587551
O O1 0.261119 0.767883 0.818560
O O2 0.000000 0.660107 0.750000
O O3 0.175234 0.573143 0.844961
O O4 0.850883 0.709792 0.865139
O O5 0.500000 0.381129 0.750000
O O6 0.784241 0.454964 0.840209
O O7 0.000000 0.387850 0.750000
O O8 0.500000 0.500000 0.500000
O O9 0.814346 0.645907 0.532810
O O10 0.937391 0.524877 0.442660
O O11 0.556313 0.670725 0.451212
O O12 0.459323 0.770531 0.545482
O O13 0.766749 0.611975 0.124675
#
# Coordination Sequence:
#
# PCOD9298991 Si02
#       6
#     8   8   8   4   8   8
#     4  11  25  49  73 118 149 211 261 323 405 482
#     4  11  24  50  79 110 158 206 268 330 391 477
#     4  10  24  46  72 110 152 202 266 330 400 468
#     4   8  22  46  70 106 148 200 258 328 390 456
#     4  12  25  46  76 111 154 206 257 332 402 476
#     4  10  24  48  74 108 159 198 263 328 387 472
#
# _framework density 27.629902999999999
#
# number of rings (size 3 to 8) (size 9 to 14) (size 15 to 20)
#    1.091    0.364    1.818    2.727    2.545    2.909 
#    9.818    3.636    0.000    0.000    0.000    0.000 
#    0.000    0.000    0.000    0.000    0.000    0.000 
#
# Total GULP energy -122794.654237 kJ/mol
# GULP energy per Si atom -5581.575193 kJ/mol
# Density = 2.756702 g / cm^3
# Si number density = 27.629903 Si / 1000 Ang^3
#
#
#
# Elastic Constant Matrix: (Units=GPa)
#
#
# Indices 1 2 3 4 5 6 
#
# 1 114.9315 6.3275 34.2652 0.0000 5.6850 0.0000
# 2 6.3275 161.9309 36.4425 0.0000 14.6421 0.0000
# 3 34.2652 36.4425 141.6596 0.0000 14.5130 0.0000
# 4 0.0000 0.0000 0.0000 46.9687 0.0000 -0.8692
# 5 5.6850 14.6421 14.5130 0.0000 39.0444 0.0000
# 6 0.0000 0.0000 0.0000 -0.8692 0.0000 52.3770
#
#
#
# Elastic Compliance Matrix: (Units=1/GPa)
#
#
# Indices 1 2 3 4 5 6 
#
# 1 0.009394 0.000196 -0.002261 0.000000 -0.000601 0.000000
# 2 0.000196 0.006698 -0.001570 0.000000 -0.001957 0.000000
# 3 -0.002261 -0.001570 0.008229 0.000000 -0.002141 0.000000
# 4 0.000000 0.000000 0.000000 0.021297 0.000000 0.000353
# 5 -0.000601 -0.001957 -0.002141 0.000000 0.027229 0.000000
# 6 0.000000 0.000000 0.000000 0.000353 0.000000 0.019098
#
#
# Mechanical properties :
#
#
# Convention : Reuss Voigt Hill
#
# Bulk Modulus (GPa) = 58.64699 63.62137 61.13418
# Shear Modulus (GPa) = 47.66461 50.44382 49.05422
#
# Velocity S-wave (km/s) = 4.15795 4.27745 4.21812
# Velocity P-wave (km/s) = 6.65758 6.88997 6.77477
#
# Compressibility (1/GPa) = 0.01705117
#
# Stress axis : x y z
#
# Youngs Moduli (GPa) = 106.45232 149.29620 121.51637
#
# Poissons Ratio (x) = -0.02928 0.27476
# Poissons Ratio (y) = -0.02088 0.19079
# Poissons Ratio (z) = 0.24070 0.23441
#
# Static dielectric constant tensor:
#      x y z
#    x 2.234660 0.000000 0.099550 
#    y 0.000000 2.532830 0.000000 
#    z 0.099550 0.000000 2.397560 
# 
# From -- ./inp_files/260357.got.cif
#   From: 2010.05.17/outbox.cif.g08.bks.cpg/sg15_131_cif.got.tgz:260357.got - 2010.06.03 18:47:42.
