data_PCOD9298536
_publ_section_title
;
Structure prediction by ZEFSAII (Michael W. Deem and Ramdas Pophale) SiO2 
 PCOD9298536
Probable space group: C 2/C
;
_chemical_formula_sum "Si O2"
_cell_formula_units_Z 44
_cell_length_a 15.905318
_cell_length_b 11.566502
_cell_length_c 27.055940
_cell_angle_alpha 90.000000
_cell_angle_beta 157.447966
_cell_angle_gamma 90.000000
_cell_volume 1908.963622
_symmetry_space_group_name_H-M "C 2/C"
_symmetry_group_IT_number 15
_symmetry_cell_setting 'monoclinic'
loop_
_space_group_symop_operation_xyz
x,y,z
-x,y,1/2-z
-x,-y,-z
x,-y,1/2+z
1/2+x,1/2+y,z
1/2-x,1/2+y,1/2-z
1/2-x,1/2-y,-z
1/2+x,1/2-y,1/2+z
loop_
_atom_site_type_symbol
_atom_site_label
_atom_site_fract_x
_atom_site_fract_y
_atom_site_fract_z
Si Si1 0.429192 0.462793 0.659741
Si Si2 0.166924 0.381478 0.948257
Si Si3 0.902158 0.720584 0.536196
Si Si4 0.021357 0.861907 0.511981
Si Si5 0.285350 0.795210 0.804164
Si Si6 0.000000 0.627608 0.250000
O O1 0.500000 0.519435 0.750000
O O2 0.359623 0.544125 0.577145
O O3 0.205169 0.390464 0.546979
O O4 0.617188 0.373942 0.744359
O O5 0.102815 0.421279 0.857832
O O6 0.948871 0.379568 0.863548
O O7 0.250000 0.250000 0.000000
O O8 0.750000 0.750000 0.500000
O O9 0.901075 0.821074 0.495847
O O10 0.145009 0.718326 0.689671
O O11 0.910687 0.794634 0.406902
O O12 0.275063 0.819842 0.649433
O O13 0.000000 0.000000 0.500000
#
# Coordination Sequence:
#
# PCOD9298536 Si02
#       6
#     8   8   8   8   8   4
#     4  11  26  48  79 111 148 207 269 326 389 476
#     4  12  28  46  73 108 156 204 252 328 405 483
#     4  10  24  44  73 110 152 194 256 320 384 467
#     4  12  27  46  78 114 159 208 253 332 398 482
#     4  11  25  48  73 112 149 196 260 319 396 472
#     4  12  28  46  70 116 158 198 260 326 416 476
#
# _framework density 23.049156
#
# number of rings (size 3 to 8) (size 9 to 14) (size 15 to 20)
#    0.000    0.727    5.455    0.000    8.909    3.636 
#    0.000    0.000    0.000    0.000    0.000    0.000 
#    0.000    0.000    0.000    0.000    0.000    0.000 
#
# Total GULP energy -122789.526458 kJ/mol
# GULP energy per Si atom -5581.342112 kJ/mol
# Density = 2.299670 g / cm^3
# Si number density = 23.049156 Si / 1000 Ang^3
#
#
#
# Elastic Constant Matrix: (Units=GPa)
#
#
# Indices 1 2 3 4 5 6 
#
# 1 127.4358 28.8967 37.7774 0.0006 -29.6896 0.0001
# 2 28.8967 92.0342 38.6977 0.0041 -15.2472 -0.0006
# 3 37.7774 38.6977 125.5638 0.0125 -37.3960 -0.0014
# 4 0.0006 0.0041 0.0125 38.8217 -0.0024 -5.9937
# 5 -29.6896 -15.2472 -37.3960 -0.0024 57.2119 0.0002
# 6 0.0001 -0.0006 -0.0014 -5.9937 0.0002 29.1530
#
#
#
# Elastic Compliance Matrix: (Units=1/GPa)
#
#
# Indices 1 2 3 4 5 6 
#
# 1 0.009472 -0.001871 -0.001189 0.000001 0.003639 0.000000
# 2 -0.001871 0.012900 -0.003325 0.000000 0.000293 0.000000
# 3 -0.001189 -0.003325 0.011050 -0.000003 0.005719 0.000000
# 4 0.000001 0.000000 -0.000003 0.026603 0.000000 0.005469
# 5 0.003639 0.000293 0.005719 0.000000 0.023184 0.000000
# 6 0.000000 0.000000 0.000000 0.005469 0.000000 0.035426
#
#
# Mechanical properties :
#
#
# Convention : Reuss Voigt Hill
#
# Bulk Modulus (GPa) = 48.42462 61.75302 55.08882
# Shear Modulus (GPa) = 36.15596 41.01478 38.58537
#
# Velocity S-wave (km/s) = 3.96491 4.22293 4.09595
# Velocity P-wave (km/s) = 6.48194 7.11530 6.80599
#
# Compressibility (1/GPa) = 0.02065065
#
# Stress axis : x y z
#
# Youngs Moduli (GPa) = 105.57712 77.52074 90.49691
#
# Poissons Ratio (x) = 0.14504 0.10762
# Poissons Ratio (y) = 0.19753 0.30093
# Poissons Ratio (z) = 0.12555 0.25778
#
# Static dielectric constant tensor:
#      x y z
#    x 1.883760 0.000000 0.031260 
#    y 0.000000 1.885440 0.000000 
#    z 0.031260 0.000000 1.843540 
# 
# From -- ./inp_files/316257.got.cif
#   From: 2010.05.17/outbox.cif.g08.bks.cpg/sg15_159_cif.got.tgz:316257.got - 2010.06.03 18:47:42.
