data_PCOD9298770
_publ_section_title
;
Structure prediction by ZEFSAII (Michael W. Deem and Ramdas Pophale) SiO2 
 PCOD9298770
Probable space group: C 2/C
;
_chemical_formula_sum "Si O2"
_cell_formula_units_Z 40
_cell_length_a 28.714654
_cell_length_b 5.090891
_cell_length_c 12.919821
_cell_angle_alpha 90.000000
_cell_angle_beta 52.979447
_cell_angle_gamma 90.000000
_cell_volume 1507.943467
_symmetry_space_group_name_H-M "C 2/C"
_symmetry_group_IT_number 15
_symmetry_cell_setting 'monoclinic'
loop_
_space_group_symop_operation_xyz
x,y,z
-x,y,1/2-z
-x,-y,-z
x,-y,1/2+z
1/2+x,1/2+y,z
1/2-x,1/2+y,1/2-z
1/2-x,1/2-y,-z
1/2+x,1/2-y,1/2+z
loop_
_atom_site_type_symbol
_atom_site_label
_atom_site_fract_x
_atom_site_fract_y
_atom_site_fract_z
Si Si1 0.082181 0.725857 0.371266
Si Si2 0.791885 0.139207 0.617620
Si Si3 0.369354 0.882128 0.016346
Si Si4 0.974574 0.893251 0.382401
Si Si5 0.293874 0.815825 0.849750
O O1 0.107799 0.474027 0.399408
O O2 0.139307 0.769945 0.222831
O O3 0.023441 0.741972 0.383650
O O4 0.064044 0.927307 0.488283
O O5 0.829747 0.874591 0.561393
O O6 0.729556 0.110569 0.645385
O O7 0.667896 0.875564 0.976309
O O8 0.782030 0.188275 0.752573
O O9 0.431351 0.813061 0.886210
O O10 0.000000 0.049753 0.250000
O O11 0.250000 0.750000 0.000000
#
# Coordination Sequence:
#
# PCOD9298770 Si02
#       5
#     8   8   8   8   8
#     4  10  24  45  73 111 155 193 262 319 378 462
#     4  11  25  47  76 106 160 196 257 321 383 455
#     4  11  22  49  71 104 151 203 242 328 376 449
#     4  11  24  46  78 109 151 206 255 319 392 454
#     4  11  24  47  78 114 155 210 253 322 392 472
#
# _framework density 26.526194
#
# number of rings (size 3 to 8) (size 9 to 14) (size 15 to 20)
#    0.000    1.200    4.000    3.000    2.800    0.800 
#    3.600   10.000    8.800    0.000    0.000    0.000 
#    0.000    0.000    0.000    0.000    0.000    0.000 
#
# Total GULP energy -111584.471332 kJ/mol
# GULP energy per Si atom -5579.223567 kJ/mol
# Density = 2.646582 g / cm^3
# Si number density = 26.526194 Si / 1000 Ang^3
#
#
#
# Elastic Constant Matrix: (Units=GPa)
#
#
# Indices 1 2 3 4 5 6 
#
# 1 175.8845 38.9064 58.1022 -0.0003 -46.6564 0.0007
# 2 38.9064 132.2914 46.5234 0.0014 -26.3269 -0.0062
# 3 58.1022 46.5234 148.7134 -0.0002 -27.5214 -0.0002
# 4 -0.0003 0.0014 -0.0002 28.1534 0.0002 -11.7998
# 5 -46.6564 -26.3269 -27.5214 0.0002 55.8041 0.0000
# 6 0.0007 -0.0062 -0.0002 -11.7998 0.0000 40.7795
#
#
#
# Elastic Compliance Matrix: (Units=1/GPa)
#
#
# Indices 1 2 3 4 5 6 
#
# 1 0.007864 -0.000577 -0.001899 0.000000 0.005366 0.000000
# 2 -0.000577 0.009007 -0.002086 0.000000 0.002738 0.000001
# 3 -0.001899 -0.002086 0.008410 0.000000 0.001576 0.000000
# 4 0.000000 0.000000 0.000000 0.040422 0.000000 0.011696
# 5 0.005366 0.002738 0.001576 0.000000 0.024476 0.000000
# 6 0.000000 0.000001 0.000000 0.011696 0.000000 0.027906
#
#
# Mechanical properties :
#
#
# Convention : Reuss Voigt Hill
#
# Bulk Modulus (GPa) = 61.88688 82.66147 72.27418
# Shear Modulus (GPa) = 37.70893 45.83789 41.77341
#
# Velocity S-wave (km/s) = 3.77447 4.16146 3.97268
# Velocity P-wave (km/s) = 6.50973 7.37022 6.95330
#
# Compressibility (1/GPa) = 0.01615851
#
# Stress axis : x y z
#
# Youngs Moduli (GPa) = 127.16307 111.02266 118.90071
#
# Poissons Ratio (x) = 0.06407 0.22577
# Poissons Ratio (y) = 0.07339 0.24798
# Poissons Ratio (z) = 0.24146 0.23155
#
# Static dielectric constant tensor:
#      x y z
#    x 2.163220 0.000000 -0.035640 
#    y 0.000000 2.218600 0.000000 
#    z -0.035640 0.000000 2.225560 
# 
# From -- ./inp_files/121339.got.cif
#   From: 2010.05.17/outbox.cif.g08.bks.cpg/sg15_61_cif.got.tgz:121339.got - 2010.06.03 18:47:42.
