data_PCOD9298725
_publ_section_title
;
Structure prediction by ZEFSAII (Michael W. Deem and Ramdas Pophale) SiO2 
 PCOD9298725
Probable space group: C 2/C
;
_chemical_formula_sum "Si O2"
_cell_formula_units_Z 64
_cell_length_a 12.172217
_cell_length_b 23.557984
_cell_length_c 14.813736
_cell_angle_alpha 90.000000
_cell_angle_beta 44.750872
_cell_angle_gamma 90.000000
_cell_volume 2990.617149
_symmetry_space_group_name_H-M "C 2/C"
_symmetry_group_IT_number 15
_symmetry_cell_setting 'monoclinic'
loop_
_space_group_symop_operation_xyz
x,y,z
-x,y,1/2-z
-x,-y,-z
x,-y,1/2+z
1/2+x,1/2+y,z
1/2-x,1/2+y,1/2-z
1/2-x,1/2-y,-z
1/2+x,1/2-y,1/2+z
loop_
_atom_site_type_symbol
_atom_site_label
_atom_site_fract_x
_atom_site_fract_y
_atom_site_fract_z
Si Si1 0.590339 0.120500 0.442164
Si Si2 0.618735 0.907851 0.607466
Si Si3 0.832285 0.276374 0.868085
Si Si4 0.117447 0.871116 0.433309
Si Si5 0.577247 0.812518 0.297169
Si Si6 0.954096 0.033760 0.935633
Si Si7 0.364577 0.573420 0.386937
Si Si8 0.649364 0.696417 0.311013
O O1 0.470560 0.096260 0.436799
O O2 0.497613 0.154956 0.573719
O O3 0.706461 0.074260 0.420598
O O4 0.714605 0.163077 0.321051
O O5 0.500000 0.933603 0.750000
O O6 0.649697 0.843195 0.621277
O O7 0.781522 0.940337 0.522887
O O8 0.733601 0.266466 0.837554
O O9 0.000000 0.251424 0.750000
O O10 0.750000 0.250000 0.000000
O O11 0.240452 0.826501 0.323907
O O12 0.180159 0.900787 0.488921
O O13 0.071939 0.913555 0.378267
O O14 0.960057 0.844874 0.567135
O O15 0.500000 0.833985 0.250000
O O16 0.552848 0.744549 0.316086
O O17 0.952663 0.984422 0.862851
O O18 0.000000 0.000000 0.000000
O O19 0.500000 0.606284 0.250000
#
# Coordination Sequence:
#
# PCOD9298725 Si02
#       8
#     8   8   8   8   8   8   8   8
#     4  12  24  45  69 103 149 188 239 294 350 429
#     4  11  22  45  72 102 140 187 231 293 359 423
#     4  11  23  41  66 103 143 188 233 279 345 417
#     4  11  23  47  70  97 146 188 229 298 351 422
#     4  12  28  42  66 108 148 188 236 295 361 418
#     4  10  24  45  71 101 133 182 238 296 365 425
#     4  11  24  43  72 101 135 188 243 294 357 429
#     4  12  24  41  72 102 139 194 233 280 354 436
#
# _framework density 21.400265000000001
#
# number of rings (size 3 to 8) (size 9 to 14) (size 15 to 20)
#    0.000    0.750    6.250    1.500    5.250    2.500 
#    4.500    0.625    0.000    0.000    0.000    0.000 
#    0.000    0.000    0.000    0.000    0.000    0.000 
#
# Total GULP energy -178392.789647 kJ/mol
# GULP energy per Si atom -5574.774676 kJ/mol
# Density = 2.135156 g / cm^3
# Si number density = 21.400265 Si / 1000 Ang^3
#
#
#
# Elastic Constant Matrix: (Units=GPa)
#
#
# Indices 1 2 3 4 5 6 
#
# 1 148.8255 20.5938 31.4741 0.0001 12.8038 -0.0001
# 2 20.5938 41.2267 10.8437 0.0000 11.1130 0.0000
# 3 31.4741 10.8437 102.7602 0.0001 17.3524 -0.0001
# 4 0.0001 0.0000 0.0001 16.0431 -0.0001 -8.2417
# 5 12.8038 11.1130 17.3524 -0.0001 29.4778 0.0000
# 6 -0.0001 0.0000 -0.0001 -8.2417 0.0000 39.0142
#
#
#
# Elastic Compliance Matrix: (Units=1/GPa)
#
#
# Indices 1 2 3 4 5 6 
#
# 1 0.007619 -0.003031 -0.001830 0.000000 -0.001090 0.000000
# 2 -0.003031 0.028352 -0.000534 0.000000 -0.009058 0.000000
# 3 -0.001830 -0.000534 0.011304 0.000000 -0.005658 0.000000
# 4 0.000000 0.000000 0.000000 0.069920 0.000000 0.014771
# 5 -0.001090 -0.009058 -0.005658 0.000000 0.041143 0.000000
# 6 0.000000 0.000000 0.000000 0.014771 0.000000 0.028752
#
#
# Mechanical properties :
#
#
# Convention : Reuss Voigt Hill
#
# Bulk Modulus (GPa) = 27.40812 46.51507 36.96160
# Shear Modulus (GPa) = 23.80482 32.23375 28.01929
#
# Velocity S-wave (km/s) = 3.33883 3.88523 3.62235
# Velocity P-wave (km/s) = 5.26297 6.47376 5.89951
#
# Compressibility (1/GPa) = 0.03648554
#
# Stress axis : x y z
#
# Youngs Moduli (GPa) = 131.24327 35.27054 88.46727
#
# Poissons Ratio (x) = 0.10691 0.16188
# Poissons Ratio (y) = 0.39781 0.04724
# Poissons Ratio (z) = 0.24016 0.01883
#
# Static dielectric constant tensor:
#      x y z
#    x 1.806210 0.000000 -0.003410 
#    y 0.000000 1.803040 0.000000 
#    z -0.003410 0.000000 1.750550 
# 
# From -- ./inp_files/148768.got.cif
#   From: 2010.05.17/outbox.cif.g08.bks.cpg/sg15_75_cif.got.tgz:148768.got - 2010.06.03 18:47:42.
