data_PCOD9298771
_publ_section_title
;
Structure prediction by ZEFSAII (Michael W. Deem and Ramdas Pophale) SiO2 
 PCOD9298771
Probable space group: C 2/C
;
_chemical_formula_sum "Si O2"
_cell_formula_units_Z 16
_cell_length_a 11.438641
_cell_length_b 8.362372
_cell_length_c 5.299424
_cell_angle_alpha 90.000000
_cell_angle_beta 78.356797
_cell_angle_gamma 90.000000
_cell_volume 496.481460
_symmetry_space_group_name_H-M "C 2/C"
_symmetry_group_IT_number 15
_symmetry_cell_setting 'monoclinic'
loop_
_space_group_symop_operation_xyz
x,y,z
-x,y,1/2-z
-x,-y,-z
x,-y,1/2+z
1/2+x,1/2+y,z
1/2-x,1/2+y,1/2-z
1/2-x,1/2-y,-z
1/2+x,1/2-y,1/2+z
loop_
_atom_site_type_symbol
_atom_site_label
_atom_site_fract_x
_atom_site_fract_y
_atom_site_fract_z
Si Si1 0.250000 0.750000 0.000000
Si Si2 0.500000 0.104603 0.250000
Si Si3 0.357282 0.592709 0.307693
O O1 0.117549 0.713943 0.202301
O O2 0.315947 0.767813 0.257687
O O3 0.500000 0.000000 0.500000
O O4 0.500000 0.584323 0.250000
O O5 0.312024 0.468412 0.539828
#
# Coordination Sequence:
#
# PCOD9298771 Si02
#       3
#     4   4   8
#     4  12  28  52  88 118 178 232 278 370 454 502
#     4  12  32  56  82 134 176 222 302 366 430 544
#     4  10  24  45  73 114 156 211 281 340 415 522
#
# _framework density 32.226785999999997
#
# number of rings (size 3 to 8) (size 9 to 14) (size 15 to 20)
#    0.000    1.000    0.000    3.000   14.000    4.000 
#    0.000    0.000    0.000    0.000    0.000    0.000 
#    0.000    0.000    0.000    0.000    0.000    0.000 
#
# Total GULP energy -44590.565644 kJ/mol
# GULP energy per Si atom -5573.820706 kJ/mol
# Density = 3.215344 g / cm^3
# Si number density = 32.226786 Si / 1000 Ang^3
#
#
#
# Elastic Constant Matrix: (Units=GPa)
#
#
# Indices 1 2 3 4 5 6 
#
# 1 274.5002 69.3452 60.2406 0.0000 -37.3073 0.0000
# 2 69.3452 163.4853 52.6132 0.0000 -16.6236 0.0000
# 3 60.2406 52.6132 143.8812 0.0000 33.4010 0.0000
# 4 0.0000 0.0000 0.0000 101.1412 0.0000 -11.9978
# 5 -37.3073 -16.6236 33.4010 0.0000 101.7359 0.0000
# 6 0.0000 0.0000 0.0000 -11.9978 0.0000 80.9334
#
#
#
# Elastic Compliance Matrix: (Units=1/GPa)
#
#
# Indices 1 2 3 4 5 6 
#
# 1 0.004675 -0.001090 -0.002073 0.000000 0.002217 0.000000
# 2 -0.001090 0.007640 -0.002743 0.000000 0.001749 0.000000
# 3 -0.002073 -0.002743 0.009853 0.000000 -0.004443 0.000000
# 4 0.000000 0.000000 0.000000 0.010064 0.000000 0.001492
# 5 0.002217 0.001749 -0.004443 0.000000 0.012387 0.000000
# 6 0.000000 0.000000 0.000000 0.001492 0.000000 0.012577
#
#
# Mechanical properties :
#
#
# Convention : Reuss Voigt Hill
#
# Bulk Modulus (GPa) = 96.58095 105.14054 100.86075
# Shear Modulus (GPa) = 69.00361 83.40660 76.20511
#
# Velocity S-wave (km/s) = 4.63232 5.09287 4.86804
# Velocity P-wave (km/s) = 7.65803 8.20239 7.93488
#
# Compressibility (1/GPa) = 0.01035401
#
# Stress axis : x y z
#
# Youngs Moduli (GPa) = 213.92041 130.89133 101.49440
#
# Poissons Ratio (x) = 0.14271 0.21041
# Poissons Ratio (y) = 0.23323 0.27843
# Poissons Ratio (z) = 0.44348 0.35907
#
# Static dielectric constant tensor:
#      x y z
#    x 2.765380 0.000000 0.014660 
#    y 0.000000 4.244400 0.000000 
#    z 0.014660 0.000000 3.571550 
# 
# From -- ./inp_files/2831.got.cif
#   From: 2010.05.17/outbox.cif.g08.bks.cpg/sg15_2_cif.got.tgz:2831.got - 2010.06.03 18:47:42.
