data_PCOD9298589
_publ_section_title
;
Structure prediction by ZEFSAII (Michael W. Deem and Ramdas Pophale) SiO2 
 PCOD9298589
Probable space group: C 2/C
;
_chemical_formula_sum "Si O2"
_cell_formula_units_Z 40
_cell_length_a 9.339524
_cell_length_b 21.823384
_cell_length_c 11.546629
_cell_angle_alpha 90.000000
_cell_angle_beta 40.035444
_cell_angle_gamma 90.000000
_cell_volume 1513.873274
_symmetry_space_group_name_H-M "C 2/C"
_symmetry_group_IT_number 15
_symmetry_cell_setting 'monoclinic'
loop_
_space_group_symop_operation_xyz
x,y,z
-x,y,1/2-z
-x,-y,-z
x,-y,1/2+z
1/2+x,1/2+y,z
1/2-x,1/2+y,1/2-z
1/2-x,1/2-y,-z
1/2+x,1/2-y,1/2+z
loop_
_atom_site_type_symbol
_atom_site_label
_atom_site_fract_x
_atom_site_fract_y
_atom_site_fract_z
Si Si1 0.109338 0.552664 0.513947
Si Si2 0.262122 0.935714 0.958465
Si Si3 0.308412 0.381399 0.240565
Si Si4 0.788438 0.172914 0.304297
Si Si5 0.068980 0.767169 0.014716
O O1 0.238903 0.508594 0.519867
O O2 0.910376 0.594173 0.686647
O O3 0.251483 0.601580 0.354283
O O4 0.000000 0.500000 0.500000
O O5 0.500000 0.921264 0.750000
O O6 0.244097 0.899224 0.092730
O O7 0.020716 0.918419 0.060025
O O8 0.935225 0.287963 0.536165
O O9 0.380532 0.311145 0.187568
O O10 0.827253 0.189508 0.147185
O O11 0.000000 0.193067 0.250000
O O12 0.250000 0.750000 0.000000
#
# Coordination Sequence:
#
# PCOD9298589 Si02
#       5
#     8   8   8   8   8
#     4  10  25  46  71 113 161 218 283 340 426 526
#     4  10  24  44  76 113 164 209 274 348 428 494
#     4  10  25  46  74 117 164 201 291 347 417 497
#     4  12  29  51  82 120 176 229 285 361 447 513
#     4  12  29  51  85 121 168 227 296 364 421 521
#
# _framework density 26.422288999999999
#
# number of rings (size 3 to 8) (size 9 to 14) (size 15 to 20)
#    0.000    1.200    0.000    2.400   25.200    2.400 
#    0.000    1.000    0.000    0.000    0.000    0.000 
#    0.000    0.000    0.000    0.000    0.000    0.000 
#
# Total GULP energy -111910.583175 kJ/mol
# GULP energy per Si atom -5595.529159 kJ/mol
# Density = 2.636215 g / cm^3
# Si number density = 26.422289 Si / 1000 Ang^3
#
#
#
# Elastic Constant Matrix: (Units=GPa)
#
#
# Indices 1 2 3 4 5 6 
#
# 1 151.6556 65.6200 44.3652 0.0000 -16.1129 0.0000
# 2 65.6200 185.0793 55.6940 0.0000 -13.6044 0.0000
# 3 44.3652 55.6940 180.2074 0.0000 -23.5820 0.0000
# 4 0.0000 0.0000 0.0000 67.1825 0.0000 -11.5150
# 5 -16.1129 -13.6044 -23.5820 0.0000 33.7822 0.0000
# 6 0.0000 0.0000 0.0000 -11.5150 0.0000 40.7076
#
#
#
# Elastic Compliance Matrix: (Units=1/GPa)
#
#
# Indices 1 2 3 4 5 6 
#
# 1 0.008171 -0.002442 -0.000963 0.000000 0.002241 0.000000
# 2 -0.002442 0.006734 -0.001406 0.000000 0.000565 0.000000
# 3 -0.000963 -0.001406 0.006699 0.000000 0.003650 0.000000
# 4 0.000000 0.000000 0.000000 0.015643 0.000000 0.004425
# 5 0.002241 0.000565 0.003650 0.000000 0.033446 0.000000
# 6 0.000000 0.000000 0.000000 0.004425 0.000000 0.025817
#
#
# Mechanical properties :
#
#
# Convention : Reuss Voigt Hill
#
# Bulk Modulus (GPa) = 83.47475 94.25562 88.86518
# Shear Modulus (GPa) = 45.40282 51.75202 48.57742
#
# Velocity S-wave (km/s) = 4.14980 4.43047 4.29243
# Velocity P-wave (km/s) = 7.39069 7.86907 7.63363
#
# Compressibility (1/GPa) = 0.01197967
#
# Stress axis : x y z
#
# Youngs Moduli (GPa) = 122.39049 148.50941 149.28701
#
# Poissons Ratio (x) = 0.36269 0.14383
# Poissons Ratio (y) = 0.29891 0.20987
# Poissons Ratio (z) = 0.11792 0.20877
#
# Static dielectric constant tensor:
#      x y z
#    x 2.203520 0.000000 -0.011490 
#    y 0.000000 2.098870 0.000000 
#    z -0.011490 0.000000 2.271490 
# 
# From -- ./inp_files/146244.got.cif
#   From: 2010.05.17/outbox.cif.g08.bks.cpg/sg15_74_cif.got.tgz:146244.got - 2010.06.03 18:47:42.
