data_PCOD9298299
_publ_section_title
;
Structure prediction by ZEFSAII (Michael W. Deem and Ramdas Pophale) SiO2 
 PCOD9298299
Probable space group: C 2/C
;
_chemical_formula_sum "Si O2"
_cell_formula_units_Z 36
_cell_length_a 18.504152
_cell_length_b 6.820831
_cell_length_c 20.567394
_cell_angle_alpha 90.000000
_cell_angle_beta 146.162895
_cell_angle_gamma 90.000000
_cell_volume 1445.477097
_symmetry_space_group_name_H-M "C 2/C"
_symmetry_group_IT_number 15
_symmetry_cell_setting 'monoclinic'
loop_
_space_group_symop_operation_xyz
x,y,z
-x,y,1/2-z
-x,-y,-z
x,-y,1/2+z
1/2+x,1/2+y,z
1/2-x,1/2+y,1/2-z
1/2-x,1/2-y,-z
1/2+x,1/2-y,1/2+z
loop_
_atom_site_type_symbol
_atom_site_label
_atom_site_fract_x
_atom_site_fract_y
_atom_site_fract_z
Si Si1 0.363963 0.348084 0.802938
Si Si2 0.500000 0.665601 0.750000
Si Si3 0.111373 0.457911 0.285326
Si Si4 0.881480 0.923888 0.035208
Si Si5 0.134496 0.399605 0.075984
O O1 0.397374 0.151095 0.788719
O O2 0.489078 0.484828 0.898326
O O3 0.248647 0.447740 0.676365
O O4 0.331732 0.284122 0.851429
O O5 0.597403 0.562602 0.871452
O O6 0.422493 0.811505 0.739893
O O7 0.255123 0.453171 0.421657
O O8 0.000000 0.374624 0.250000
O O9 0.870555 0.701909 0.998585
O O10 0.000000 0.500000 0.000000
#
# Coordination Sequence:
#
# PCOD9298299 Si02
#       5
#     8   4   8   8   8
#     4  12  25  45  73 104 138 183 233 287 358 411
#     4  10  24  44  66 104 140 184 228 276 348 408
#     4  10  25  44  68 102 143 178 233 277 350 411
#     4  12  24  46  71 103 142 184 231 290 348 414
#     4  12  25  45  72 103 141 181 236 291 348 416
#
# _framework density 24.905270000000002
#
# number of rings (size 3 to 8) (size 9 to 14) (size 15 to 20)
#    0.667    0.000    0.000    8.000    1.556    0.889 
#    0.000    0.000    0.000    0.000    0.000    0.000 
#    0.000    0.000    0.000    0.000    0.000    0.000 
#
# Total GULP energy -100757.162652 kJ/mol
# GULP energy per Si atom -5597.620147 kJ/mol
# Density = 2.484858 g / cm^3
# Si number density = 24.905270 Si / 1000 Ang^3
#
#
#
# Elastic Constant Matrix: (Units=GPa)
#
#
# Indices 1 2 3 4 5 6 
#
# 1 74.9002 13.7466 41.0866 0.0000 3.6831 0.0000
# 2 13.7466 60.6771 23.9525 0.0000 2.0729 -0.0001
# 3 41.0866 23.9525 133.2527 0.0000 2.3955 0.0000
# 4 0.0000 0.0000 0.0000 53.0996 0.0000 -16.3165
# 5 3.6831 2.0729 2.3955 0.0000 55.5243 0.0000
# 6 0.0000 -0.0001 0.0000 -16.3165 0.0000 8.5522
#
#
#
# Elastic Compliance Matrix: (Units=1/GPa)
#
#
# Indices 1 2 3 4 5 6 
#
# 1 0.016293 -0.001815 -0.004683 0.000000 -0.000811 0.000000
# 2 -0.001815 0.017957 -0.002660 0.000000 -0.000435 0.000000
# 3 -0.004683 -0.002660 0.009427 0.000000 0.000003 0.000000
# 4 0.000000 0.000000 0.000000 0.045518 0.000000 0.086842
# 5 -0.000811 -0.000435 0.000003 0.000000 0.018080 0.000000
# 6 0.000000 0.000000 0.000000 0.086842 0.000000 0.282614
#
#
# Mechanical properties :
#
#
# Convention : Reuss Voigt Hill
#
# Bulk Modulus (GPa) = 39.43207 47.37792 43.40500
# Shear Modulus (GPa) = 12.00026 36.10485 24.05255
#
# Velocity S-wave (km/s) = 2.19746 3.81161 3.11104
# Velocity P-wave (km/s) = 4.72288 6.19965 5.51096
#
# Compressibility (1/GPa) = 0.02536007
#
# Stress axis : x y z
#
# Youngs Moduli (GPa) = 61.37652 55.68887 106.08300
#
# Poissons Ratio (x) = 0.10107 0.49677
# Poissons Ratio (y) = 0.11139 0.28222
# Poissons Ratio (z) = 0.28742 0.14815
#
# Static dielectric constant tensor:
#      x y z
#    x 2.004940 0.000000 0.003320 
#    y 0.000000 1.976490 0.000000 
#    z 0.003320 0.000000 1.971670 
# 
# From -- ./inp_files/252076.got.cif
#   From: 2010.05.17/outbox.cif.g08.bks.cpg/sg15_127_cif.got.tgz:252076.got - 2010.06.03 18:47:42.
