data_PCOD9298278
_publ_section_title
;
Structure prediction by ZEFSAII (Michael W. Deem and Ramdas Pophale) SiO2 
 PCOD9298278
Probable space group: C 2/C
;
_chemical_formula_sum "Si O2"
_cell_formula_units_Z 48
_cell_length_a 22.110687
_cell_length_b 6.932133
_cell_length_c 21.036291
_cell_angle_alpha 90.000000
_cell_angle_beta 49.323234
_cell_angle_gamma 90.000000
_cell_volume 2445.320994
_symmetry_space_group_name_H-M "C 2/C"
_symmetry_group_IT_number 15
_symmetry_cell_setting 'monoclinic'
loop_
_space_group_symop_operation_xyz
x,y,z
-x,y,1/2-z
-x,-y,-z
x,-y,1/2+z
1/2+x,1/2+y,z
1/2-x,1/2+y,1/2-z
1/2-x,1/2-y,-z
1/2+x,1/2-y,1/2+z
loop_
_atom_site_type_symbol
_atom_site_label
_atom_site_fract_x
_atom_site_fract_y
_atom_site_fract_z
Si Si1 0.550736 0.692511 0.813550
Si Si2 0.252588 0.539289 0.525999
Si Si3 0.622752 0.261626 0.126160
Si Si4 0.353586 0.636101 0.192649
Si Si5 0.786949 0.172795 0.640298
Si Si6 0.915949 0.472932 0.592272
O O1 0.459106 0.711225 0.855905
O O2 0.602782 0.716557 0.714144
O O3 0.573335 0.485912 0.828419
O O4 0.571457 0.857216 0.850366
O O5 0.250000 0.750000 0.500000
O O6 0.313094 0.414941 0.442473
O O7 0.165807 0.441632 0.584959
O O8 0.282161 0.558104 0.578063
O O9 0.295567 0.720534 0.286399
O O10 0.305426 0.481136 0.183256
O O11 0.380804 0.816873 0.131783
O O12 0.855380 0.336849 0.594397
O O13 0.000000 0.500000 0.500000
#
# Coordination Sequence:
#
# PCOD9298278 Si02
#       6
#     8   8   8   8   8   8
#     4  10  24  44  66  93 131 175 215 268 333 394
#     4  11  25  40  67  96 127 172 218 273 328 392
#     4  10  24  44  65  94 132 171 219 271 321 401
#     4  11  23  42  67  96 132 173 216 271 337 403
#     4  11  24  41  68  98 132 173 222 272 338 401
#     4  11  26  40  67 100 132 172 222 281 334 398
#
# _framework density 19.629325999999999
#
# number of rings (size 3 to 8) (size 9 to 14) (size 15 to 20)
#    0.000    1.333    1.667    2.000    9.333    2.667 
#    0.000    3.333    0.000    0.000    0.000    0.000 
#    0.000    0.000    0.000    0.000    0.000    0.000 
#
# Total GULP energy -134177.938612 kJ/mol
# GULP energy per Si atom -5590.747442 kJ/mol
# Density = 1.958465 g / cm^3
# Si number density = 19.629326 Si / 1000 Ang^3
#
#
#
# Elastic Constant Matrix: (Units=GPa)
#
#
# Indices 1 2 3 4 5 6 
#
# 1 66.1035 18.1706 35.1544 -0.0138 -6.4199 0.0130
# 2 18.1706 109.6282 30.8886 -0.0186 -16.4237 0.0094
# 3 35.1544 30.8886 91.8342 0.0010 -17.0419 -0.0009
# 4 -0.0138 -0.0186 0.0010 26.1564 0.0017 -2.9909
# 5 -6.4199 -16.4237 -17.0419 0.0017 28.2691 -0.0043
# 6 0.0130 0.0094 -0.0009 -2.9909 -0.0043 29.8086
#
#
#
# Elastic Compliance Matrix: (Units=1/GPa)
#
#
# Indices 1 2 3 4 5 6 
#
# 1 0.019152 -0.001293 -0.007013 0.000009 -0.000630 -0.000007
# 2 -0.001293 0.010649 -0.002244 0.000007 0.004540 -0.000002
# 3 -0.007013 -0.002244 0.015529 -0.000006 0.006465 0.000005
# 4 0.000009 0.000007 -0.000006 0.038675 0.000001 0.003881
# 5 -0.000630 0.004540 0.006465 0.000001 0.041766 0.000005
# 6 -0.000007 -0.000002 0.000005 0.003881 0.000005 0.033937
#
#
# Mechanical properties :
#
#
# Convention : Reuss Voigt Hill
#
# Bulk Modulus (GPa) = 41.27449 48.44368 44.85908
# Shear Modulus (GPa) = 26.47128 29.07027 27.77078
#
# Velocity S-wave (km/s) = 3.67626 3.85250 3.76541
# Velocity P-wave (km/s) = 6.25239 6.67247 6.46584
#
# Compressibility (1/GPa) = 0.02422804
#
# Stress axis : x y z
#
# Youngs Moduli (GPa) = 52.21450 93.90993 64.39763
#
# Poissons Ratio (x) = 0.12139 0.45165
# Poissons Ratio (y) = 0.06749 0.14453
# Poissons Ratio (z) = 0.36620 0.21076
#
# Static dielectric constant tensor:
#      x y z
#    x 1.738330 -0.000020 0.056040 
#    y -0.000020 1.663250 -0.000010 
#    z 0.056040 -0.000010 1.710680 
# 
# From -- ./inp_files/254234.got.cif
#   From: 2010.05.17/outbox.cif.g08.bks.cpg/sg15_128_cif.got.tgz:254234.got - 2010.06.03 18:47:42.
