data_PCOD9298722
_publ_section_title
;
Structure prediction by ZEFSAII (Michael W. Deem and Ramdas Pophale) SiO2 
 PCOD9298722
Probable space group: C 2/C
;
_chemical_formula_sum "Si O2"
_cell_formula_units_Z 44
_cell_length_a 33.870675
_cell_length_b 10.356760
_cell_length_c 19.362228
_cell_angle_alpha 90.000000
_cell_angle_beta 163.118740
_cell_angle_gamma 90.000000
_cell_volume 1972.348240
_symmetry_space_group_name_H-M "C 2/C"
_symmetry_group_IT_number 15
_symmetry_cell_setting 'monoclinic'
loop_
_space_group_symop_operation_xyz
x,y,z
-x,y,1/2-z
-x,-y,-z
x,-y,1/2+z
1/2+x,1/2+y,z
1/2-x,1/2+y,1/2-z
1/2-x,1/2-y,-z
1/2+x,1/2-y,1/2+z
loop_
_atom_site_type_symbol
_atom_site_label
_atom_site_fract_x
_atom_site_fract_y
_atom_site_fract_z
Si Si1 0.100524 0.447067 0.480754
Si Si2 0.459735 0.316784 0.455084
Si Si3 0.746612 0.211658 0.714883
Si Si4 0.000000 0.873790 0.250000
Si Si5 0.106647 0.961130 0.284980
Si Si6 0.908369 0.429553 0.290899
O O1 0.171550 0.305526 0.595687
O O2 0.211699 0.562703 0.674314
O O3 0.996473 0.441634 0.369709
O O4 0.000000 0.475421 0.250000
O O5 0.328189 0.275460 0.279042
O O6 0.417354 0.336810 0.304618
O O7 0.508146 0.440251 0.579996
O O8 0.584537 0.218360 0.672473
O O9 0.605943 0.282962 0.466311
O O10 0.930391 0.950728 0.196453
O O11 0.260466 0.010587 0.536504
O O12 0.000000 0.500000 0.500000
#
# Coordination Sequence:
#
# PCOD9298722 Si02
#       6
#     8   8   8   4   8   8
#     4  11  24  47  72 105 146 192 232 300 349 426
#     4  10  24  45  71 100 140 187 232 294 348 430
#     4  11  24  46  69 107 143 185 244 288 367 414
#     4  12  26  42  72 104 138 186 232 302 348 426
#     4  11  24  46  70 103 139 183 240 290 357 419
#     4  11  25  44  69 103 141 188 234 288 359 418
#
# _framework density 22.308433999999998
#
# number of rings (size 3 to 8) (size 9 to 14) (size 15 to 20)
#    0.000    1.091    0.909    4.909    2.545    2.909 
#   21.273    0.000    0.000    0.000    0.000    0.000 
#    0.000    0.000    0.000    0.000    0.000    0.000 
#
# Total GULP energy -122861.850489 kJ/mol
# GULP energy per Si atom -5584.629568 kJ/mol
# Density = 2.225766 g / cm^3
# Si number density = 22.308434 Si / 1000 Ang^3
#
#
#
# Elastic Constant Matrix: (Units=GPa)
#
#
# Indices 1 2 3 4 5 6 
#
# 1 1352.7352 -134.5648 496.0015 0.0000 -945.6845 0.0000
# 2 -134.5648 114.5317 -42.6469 0.0000 128.7955 0.0000
# 3 496.0015 -42.6469 276.1277 0.0000 -338.9535 0.0000
# 4 0.0000 0.0000 0.0000 44.9467 0.0000 8.0898
# 5 -945.6845 128.7955 -338.9535 0.0000 740.9353 0.0000
# 6 0.0000 0.0000 0.0000 8.0898 0.0000 31.6623
#
#
#
# Elastic Compliance Matrix: (Units=1/GPa)
#
#
# Indices 1 2 3 4 5 6 
#
# 1 0.009303 -0.002203 -0.004574 0.000000 0.010164 0.000000
# 2 -0.002203 0.011638 -0.000411 0.000000 -0.005023 0.000000
# 3 -0.004574 -0.000411 0.010710 0.000000 -0.000867 0.000000
# 4 0.000000 0.000000 0.000000 0.023321 0.000000 -0.005959
# 5 0.010164 -0.005023 -0.000867 0.000000 0.014799 0.000000
# 6 0.000000 0.000000 0.000000 -0.005959 0.000000 0.033106
#
#
# Mechanical properties :
#
#
# Convention : Reuss Voigt Hill
#
# Bulk Modulus (GPa) = 57.88867 264.55268 161.22068
# Shear Modulus (GPa) = 40.64691 258.48252 149.56471
#
# Velocity S-wave (km/s) = 4.27317 10.77586 8.19692
# Velocity P-wave (km/s) = 7.09593 16.54302 12.72839
#
# Compressibility (1/GPa) = 0.01727454
#
# Stress axis : x y z
#
# Youngs Moduli (GPa) = 107.49449 85.92380 93.37272
#
# Poissons Ratio (x) = 0.18929 0.42710
# Poissons Ratio (y) = 0.23681 0.03837
# Poissons Ratio (z) = 0.49170 0.03531
#
# Static dielectric constant tensor:
#      x y z
#    x 2.007250 0.000000 0.039460 
#    y 0.000000 3.760230 0.000000 
#    z 0.039460 0.000000 1.770620 
# 
# From -- ./inp_files/225223.got.cif
#   From: 2010.05.17/outbox.cif.g08.bks.cpg/sg15_113_cif.got.tgz:225223.got - 2010.06.03 18:47:42.
