data_PCOD9298892
_publ_section_title
;
Structure prediction by ZEFSAII (Michael W. Deem and Ramdas Pophale) SiO2 
 PCOD9298892
Probable space group: C 2/C
;
_chemical_formula_sum "Si O2"
_cell_formula_units_Z 44
_cell_length_a 19.921703
_cell_length_b 11.011365
_cell_length_c 7.851224
_cell_angle_alpha 90.000000
_cell_angle_beta 91.070196
_cell_angle_gamma 90.000000
_cell_volume 1721.984446
_symmetry_space_group_name_H-M "C 2/C"
_symmetry_group_IT_number 15
_symmetry_cell_setting 'monoclinic'
loop_
_space_group_symop_operation_xyz
x,y,z
-x,y,1/2-z
-x,-y,-z
x,-y,1/2+z
1/2+x,1/2+y,z
1/2-x,1/2+y,1/2-z
1/2-x,1/2-y,-z
1/2+x,1/2-y,1/2+z
loop_
_atom_site_type_symbol
_atom_site_label
_atom_site_fract_x
_atom_site_fract_y
_atom_site_fract_z
Si Si1 0.148080 0.500502 0.017530
Si Si2 0.757865 0.399618 0.208656
Si Si3 0.500000 0.381651 0.750000
Si Si4 0.851220 0.755645 0.145584
Si Si5 0.083316 0.255365 0.502883
Si Si6 0.143166 0.102226 0.211222
O O1 0.213667 0.583224 0.977393
O O2 0.137808 0.384753 0.896918
O O3 0.089192 0.598620 0.009024
O O4 0.174579 0.432132 0.185803
O O5 0.723325 0.280476 0.281507
O O6 0.699961 0.501511 0.225821
O O7 0.484171 0.294927 0.586911
O O8 0.432267 0.453109 0.781630
O O9 0.899993 0.784620 0.305393
O O10 0.854358 0.832167 0.971929
O O11 0.137706 0.194798 0.372388
#
# Coordination Sequence:
#
# PCOD9298892 Si02
#       6
#     8   8   4   8   8   8
#     4  12  24  40  69 107 141 178 228 286 349 422
#     4  12  24  40  69 105 143 177 224 291 347 424
#     4   8  24  48  70  96 144 180 240 298 324 416
#     4  12  25  42  71 105 137 188 230 275 369 404
#     4  10  24  46  68  99 135 188 232 290 337 399
#     4  10  24  46  68  99 138 182 234 286 341 405
#
# _framework density 25.551915999999999
#
# number of rings (size 3 to 8) (size 9 to 14) (size 15 to 20)
#    1.091    0.000    3.636    2.727    2.545    2.182 
#    0.000    7.273    0.000    0.000    0.000    0.000 
#    0.000    0.000    0.000    0.000    0.000    0.000 
#
# Total GULP energy -122838.940887 kJ/mol
# GULP energy per Si atom -5583.588222 kJ/mol
# Density = 2.549376 g / cm^3
# Si number density = 25.551916 Si / 1000 Ang^3
#
#
#
# Elastic Constant Matrix: (Units=GPa)
#
#
# Indices 1 2 3 4 5 6 
#
# 1 33.6930 8.5635 12.4862 0.0000 11.7186 0.0000
# 2 8.5635 139.5323 55.1532 0.0000 10.7947 0.0000
# 3 12.4862 55.1532 162.9268 0.0000 24.0667 0.0000
# 4 0.0000 0.0000 0.0000 15.9964 0.0000 -5.2917
# 5 11.7186 10.7947 24.0667 0.0000 33.8626 0.0000
# 6 0.0000 0.0000 0.0000 -5.2917 0.0000 25.3035
#
#
#
# Elastic Compliance Matrix: (Units=1/GPa)
#
#
# Indices 1 2 3 4 5 6 
#
# 1 0.033992 -0.000979 -0.000650 0.000000 -0.010989 0.000000
# 2 -0.000979 0.008318 -0.002680 0.000000 -0.000408 0.000000
# 3 -0.000650 -0.002680 0.007749 0.000000 -0.004428 0.000000
# 4 0.000000 0.000000 0.000000 0.067160 0.000000 0.014045
# 5 -0.010989 -0.000408 -0.004428 0.000000 0.036611 0.000000
# 6 0.000000 0.000000 0.000000 0.014045 0.000000 0.042457
#
#
# Mechanical properties :
#
#
# Convention : Reuss Voigt Hill
#
# Bulk Modulus (GPa) = 24.13191 54.28421 39.20806
# Shear Modulus (GPa) = 22.86031 32.36245 27.61138
#
# Velocity S-wave (km/s) = 2.99433 3.56271 3.29081
# Velocity P-wave (km/s) = 4.62812 6.18180 5.46050
#
# Compressibility (1/GPa) = 0.04143891
#
# Stress axis : x y z
#
# Youngs Moduli (GPa) = 29.41902 120.22194 129.04872
#
# Poissons Ratio (x) = 0.11769 0.08393
# Poissons Ratio (y) = 0.02880 0.34592
# Poissons Ratio (z) = 0.01913 0.32225
#
# Static dielectric constant tensor:
#      x y z
#    x 2.053810 0.000000 -0.078160 
#    y 0.000000 2.072130 0.000000 
#    z -0.078160 0.000000 2.200580 
# 
# From -- ./inp_files/60724.got.cif
#   From: 2010.05.17/outbox.cif.g08.bks.cpg/sg15_31_cif.got.tgz:60724.got - 2010.06.03 18:47:42.
