data_PCOD9298693
_publ_section_title
;
Structure prediction by ZEFSAII (Michael W. Deem and Ramdas Pophale) SiO2 
 PCOD9298693
Probable space group: C 2/C
;
_chemical_formula_sum "Si O2"
_cell_formula_units_Z 40
_cell_length_a 27.007437
_cell_length_b 9.723001
_cell_length_c 9.177067
_cell_angle_alpha 90.000000
_cell_angle_beta 136.759186
_cell_angle_gamma 90.000000
_cell_volume 1650.897646
_symmetry_space_group_name_H-M "C 2/C"
_symmetry_group_IT_number 15
_symmetry_cell_setting 'monoclinic'
loop_
_space_group_symop_operation_xyz
x,y,z
-x,y,1/2-z
-x,-y,-z
x,-y,1/2+z
1/2+x,1/2+y,z
1/2-x,1/2+y,1/2-z
1/2-x,1/2-y,-z
1/2+x,1/2-y,1/2+z
loop_
_atom_site_type_symbol
_atom_site_label
_atom_site_fract_x
_atom_site_fract_y
_atom_site_fract_z
Si Si1 0.428267 0.243518 0.503283
Si Si2 0.075422 0.943067 0.489476
Si Si3 0.777724 0.987445 0.370125
Si Si4 0.644629 0.243880 0.848864
Si Si5 0.321344 0.066307 0.115544
O O1 0.500000 0.202621 0.750000
O O2 0.432468 0.402294 0.464795
O O3 0.372716 0.233885 0.518099
O O4 0.392774 0.156146 0.297693
O O5 0.148306 0.955456 0.544973
O O6 0.000000 0.916867 0.250000
O O7 0.085170 0.825390 0.629469
O O8 0.793768 0.859927 0.512675
O O9 0.739337 0.097458 0.392178
O O10 0.720973 0.936228 0.127484
O O11 0.653703 0.091908 0.809605
#
# Coordination Sequence:
#
# PCOD9298693 Si02
#       5
#     8   8   8   8   8
#     4  10  25  46  68  99 137 181 230 280 335 411
#     4  10  24  45  69  99 138 180 225 278 342 403
#     4  11  24  42  73 100 135 178 228 280 340 403
#     4  11  24  46  67 101 141 174 233 279 343 400
#     4  12  24  46  71 102 136 181 227 285 339 402
#
# _framework density 24.229243
#
# number of rings (size 3 to 8) (size 9 to 14) (size 15 to 20)
#    0.000    1.200    4.000    0.600    0.000   13.600 
#    7.200    0.000    0.000    0.000    0.000    0.000 
#    0.000    0.000    0.000    0.000    0.000    0.000 
#
# Total GULP energy -111712.622362 kJ/mol
# GULP energy per Si atom -5585.631118 kJ/mol
# Density = 2.417410 g / cm^3
# Si number density = 24.229243 Si / 1000 Ang^3
#
#
#
# Elastic Constant Matrix: (Units=GPa)
#
#
# Indices 1 2 3 4 5 6 
#
# 1 19.7323 8.1027 -4.0117 0.0000 -4.4439 0.0000
# 2 8.1027 79.0282 67.1393 0.0000 13.0356 0.0000
# 3 -4.0117 67.1393 175.2631 0.0000 11.1911 0.0000
# 4 0.0000 0.0000 0.0000 157.6877 0.0000 -24.8589
# 5 -4.4439 13.0356 11.1911 0.0000 28.0348 0.0000
# 6 0.0000 0.0000 0.0000 -24.8589 0.0000 21.2766
#
#
#
# Elastic Compliance Matrix: (Units=1/GPa)
#
#
# Indices 1 2 3 4 5 6 
#
# 1 0.060200 -0.013088 0.005535 0.000000 0.013419 0.000000
# 2 -0.013088 0.022645 -0.008383 0.000000 -0.009257 0.000000
# 3 0.005535 -0.008383 0.008967 0.000000 0.001196 0.000000
# 4 0.000000 0.000000 0.000000 0.007773 0.000000 0.009082
# 5 0.013419 -0.009257 0.001196 0.000000 0.041624 0.000000
# 6 0.000000 0.000000 0.000000 0.009082 0.000000 0.057611
#
#
# Mechanical properties :
#
#
# Convention : Reuss Voigt Hill
#
# Bulk Modulus (GPa) = 16.68348 46.27603 31.47975
# Shear Modulus (GPa) = 19.94633 54.91939 37.43286
#
# Velocity S-wave (km/s) = 2.87232 4.76611 3.93484
# Velocity P-wave (km/s) = 4.23095 7.03053 5.80213
#
# Compressibility (1/GPa) = 0.05993954
#
# Stress axis : x y z
#
# Youngs Moduli (GPa) = 16.61137 44.16079 111.51487
#
# Poissons Ratio (x) = 0.57796 -0.61721
# Poissons Ratio (y) = 0.21741 0.93484
# Poissons Ratio (z) = -0.09194 0.37020
#
# Static dielectric constant tensor:
#      x y z
#    x 2.099540 0.000000 0.140490 
#    y 0.000000 2.004880 0.000000 
#    z 0.140490 0.000000 2.015790 
# 
# From -- ./inp_files/69241.got.cif
#   From: 2010.05.17/outbox.cif.g08.bks.cpg/sg15_35_cif.got.tgz:69241.got - 2010.06.03 18:47:42.
