data_PCOD9298057
_publ_section_title
;
Structure prediction by ZEFSAII (Michael W. Deem and Ramdas Pophale) SiO2 
 PCOD9298057
Probable space group: C 2/C
;
_chemical_formula_sum "Si O2"
_cell_formula_units_Z 32
_cell_length_a 11.455230
_cell_length_b 8.897882
_cell_length_c 26.264949
_cell_angle_alpha 90.000000
_cell_angle_beta 26.611131
_cell_angle_gamma 90.000000
_cell_volume 1199.167561
_symmetry_space_group_name_H-M "C 2/C"
_symmetry_group_IT_number 15
_symmetry_cell_setting 'monoclinic'
loop_
_space_group_symop_operation_xyz
x,y,z
-x,y,1/2-z
-x,-y,-z
x,-y,1/2+z
1/2+x,1/2+y,z
1/2-x,1/2+y,1/2-z
1/2-x,1/2-y,-z
1/2+x,1/2-y,1/2+z
loop_
_atom_site_type_symbol
_atom_site_label
_atom_site_fract_x
_atom_site_fract_y
_atom_site_fract_z
Si Si1 0.977675 0.339287 0.480023
Si Si2 0.905767 0.856754 0.733643
Si Si3 0.961500 0.841607 0.448878
Si Si4 0.759123 0.124682 0.183082
O O1 0.668905 0.317121 0.601090
O O2 0.000000 0.500000 0.500000
O O3 0.087678 0.214955 0.475676
O O4 0.139416 0.296353 0.366841
O O5 0.740495 0.722269 0.821922
O O6 0.725688 0.911132 0.756530
O O7 0.000000 0.938943 0.750000
O O8 0.750000 0.750000 0.500000
O O9 0.998434 0.016733 0.427269
O O10 0.500000 0.098547 0.250000
#
# Coordination Sequence:
#
# PCOD9298057 Si02
#       4
#     8   8   8   8
#     4  11  24  43  68 103 145 191 239 299 367 438
#     4  10  24  43  66  98 140 186 238 297 364 434
#     4  11  24  44  69 101 141 186 237 303 370 438
#     4  12  25  44  73 108 142 189 247 307 369 440
#
# _framework density 26.685179000000002
#
# number of rings (size 3 to 8) (size 9 to 14) (size 15 to 20)
#    0.000    1.000    0.000    6.750    0.000    9.000 
#    0.000    0.000    0.000    0.000    0.000    0.000 
#    0.000    0.000    0.000    0.000    0.000    0.000 
#
# Total GULP energy -89240.736267 kJ/mol
# GULP energy per Si atom -5577.546017 kJ/mol
# Density = 2.662444 g / cm^3
# Si number density = 26.685179 Si / 1000 Ang^3
#
#
#
# Elastic Constant Matrix: (Units=GPa)
#
#
# Indices 1 2 3 4 5 6 
#
# 1 232.5385 45.8343 34.2564 0.0000 -1.7602 -0.0002
# 2 45.8343 118.5142 36.6521 0.0000 11.4547 0.0001
# 3 34.2564 36.6521 95.9180 0.0042 -21.3111 -0.0020
# 4 0.0000 0.0000 0.0042 47.1025 -0.0008 3.1847
# 5 -1.7602 11.4547 -21.3111 -0.0008 45.4538 -0.0002
# 6 -0.0002 0.0001 -0.0020 3.1847 -0.0002 41.0286
#
#
#
# Elastic Compliance Matrix: (Units=1/GPa)
#
#
# Indices 1 2 3 4 5 6 
#
# 1 0.004761 -0.001499 -0.001119 0.000000 0.000037 0.000000
# 2 -0.001499 0.010990 -0.004791 0.000000 -0.005074 0.000000
# 3 -0.001119 -0.004791 0.014417 -0.000001 0.007923 0.000001
# 4 0.000000 0.000000 -0.000001 0.021342 0.000000 -0.001657
# 5 0.000037 -0.005074 0.007923 0.000000 0.026995 0.000001
# 6 0.000000 0.000000 0.000001 -0.001657 0.000001 0.024502
#
#
# Mechanical properties :
#
#
# Convention : Reuss Voigt Hill
#
# Bulk Modulus (GPa) = 65.15405 75.60625 70.38015
# Shear Modulus (GPa) = 40.66960 48.73216 44.70088
#
# Velocity S-wave (km/s) = 3.90815 4.27803 4.09726
# Velocity P-wave (km/s) = 6.69579 7.26610 6.98677
#
# Compressibility (1/GPa) = 0.01534824
#
# Stress axis : x y z
#
# Youngs Moduli (GPa) = 210.04253 90.99479 69.36402
#
# Poissons Ratio (x) = 0.13637 0.07765
# Poissons Ratio (y) = 0.31478 0.33236
# Poissons Ratio (z) = 0.23512 0.43600
#
# Static dielectric constant tensor:
#      x y z
#    x 2.376250 0.000000 0.104790 
#    y 0.000000 2.066150 0.000000 
#    z 0.104790 0.000000 2.146990 
# 
# From -- ./inp_files/235650.got.cif
#   From: 2010.05.17/outbox.cif.g08.bks.cpg/sg15_118_cif.got.tgz:235650.got - 2010.06.03 18:47:42.
