data_PCOD9298160
_publ_section_title
;
Structure prediction by ZEFSAII (Michael W. Deem and Ramdas Pophale) SiO2 
 PCOD9298160
Probable space group: C 2/C
;
_chemical_formula_sum "Si O2"
_cell_formula_units_Z 56
_cell_length_a 13.800860
_cell_length_b 13.353116
_cell_length_c 13.709573
_cell_angle_alpha 90.000000
_cell_angle_beta 110.730942
_cell_angle_gamma 90.000000
_cell_volume 2362.880794
_symmetry_space_group_name_H-M "C 2/C"
_symmetry_group_IT_number 15
_symmetry_cell_setting 'monoclinic'
loop_
_space_group_symop_operation_xyz
x,y,z
-x,y,1/2-z
-x,-y,-z
x,-y,1/2+z
1/2+x,1/2+y,z
1/2-x,1/2+y,1/2-z
1/2-x,1/2-y,-z
1/2+x,1/2-y,1/2+z
loop_
_atom_site_type_symbol
_atom_site_label
_atom_site_fract_x
_atom_site_fract_y
_atom_site_fract_z
Si Si1 0.500000 0.610491 0.250000
Si Si2 0.592674 0.223055 0.898741
Si Si3 0.128093 0.234397 0.949677
Si Si4 0.370537 0.571379 0.393459
Si Si5 0.011473 0.424585 0.915191
Si Si6 0.667640 0.803509 0.755676
Si Si7 0.500000 0.933616 0.250000
Si Si8 0.309599 0.344924 0.404396
O O1 0.411458 0.682694 0.175288
O O2 0.449720 0.563609 0.329610
O O3 0.495890 0.151864 0.834834
O O4 0.697185 0.162218 0.914544
O O5 0.610327 0.274893 0.008002
O O6 0.078371 0.333116 0.976694
O O7 0.109412 0.253172 0.827815
O O8 0.250000 0.250000 0.000000
O O9 0.095701 0.135961 0.998525
O O10 0.268161 0.631910 0.321759
O O11 0.656098 0.541162 0.586774
O O12 0.059585 0.484687 0.839529
O O13 0.905807 0.376884 0.834370
O O14 0.000000 0.500000 0.000000
O O15 0.700479 0.708095 0.703136
#
# Coordination Sequence:
#
# PCOD9298160 Si02
#       8
#     4   8   8   8   8   8   4   8
#     4  11  24  48  71 106 148 195 248 308 371 450
#     4  10  24  43  71 104 144 182 250 312 354 457
#     4  10  25  46  69 107 151 186 246 310 374 454
#     4  11  26  46  75 105 150 206 249 312 386 456
#     4  12  25  43  77 110 142 189 243 310 377 451
#     4  11  23  48  71 107 146 189 249 311 377 452
#     4  11  22  42  73 102 136 177 244 298 379 422
#     4  11  24  45  71 102 144 194 247 304 382 445
#
# _framework density 23.699884999999998
#
# number of rings (size 3 to 8) (size 9 to 14) (size 15 to 20)
#    0.000    1.143    2.857    1.714    8.000    4.000 
#    2.571    0.000    0.000    0.000    0.000    0.000 
#    0.000    0.000    0.000    0.000    0.000    0.000 
#
# Total GULP energy -155955.323530 kJ/mol
# GULP energy per Si atom -5569.832983 kJ/mol
# Density = 2.364594 g / cm^3
# Si number density = 23.699885 Si / 1000 Ang^3
#
#
#
# Elastic Constant Matrix: (Units=GPa)
#
#
# Indices 1 2 3 4 5 6 
#
# 1 102.0996 66.8384 48.0846 0.0000 -13.7743 0.0000
# 2 66.8384 196.0989 75.7925 0.0000 -25.5488 0.0000
# 3 48.0846 75.7925 123.7322 0.0000 -16.8028 0.0000
# 4 0.0000 0.0000 0.0000 49.9000 0.0000 -4.8042
# 5 -13.7743 -25.5488 -16.8028 0.0000 39.8506 0.0000
# 6 0.0000 0.0000 0.0000 -4.8042 0.0000 35.5963
#
#
#
# Elastic Compliance Matrix: (Units=1/GPa)
#
#
# Indices 1 2 3 4 5 6 
#
# 1 0.013560 -0.003255 -0.003100 0.000000 0.001293 0.000000
# 2 -0.003255 0.007751 -0.003141 0.000000 0.002520 0.000000
# 3 -0.003100 -0.003141 0.011447 0.000000 0.001741 0.000000
# 4 0.000000 0.000000 0.000000 0.020304 0.000000 0.002740
# 5 0.001293 0.002520 0.001741 0.000000 0.027890 0.000000
# 6 0.000000 0.000000 0.000000 0.002740 0.000000 0.028463
#
#
# Mechanical properties :
#
#
# Convention : Reuss Voigt Hill
#
# Bulk Modulus (GPa) = 72.64236 89.26243 80.95239
# Shear Modulus (GPa) = 37.59524 40.48373 39.03948
#
# Velocity S-wave (km/s) = 3.98717 4.13750 4.06303
# Velocity P-wave (km/s) = 7.20515 7.78271 7.49949
#
# Compressibility (1/GPa) = 0.01376607
#
# Stress axis : x y z
#
# Youngs Moduli (GPa) = 73.74805 129.01278 87.35822
#
# Poissons Ratio (x) = 0.41994 0.27082
# Poissons Ratio (y) = 0.24005 0.27438
# Poissons Ratio (z) = 0.22862 0.40521
#
# Static dielectric constant tensor:
#      x y z
#    x 2.027340 0.000000 -0.052120 
#    y 0.000000 1.872060 0.000000 
#    z -0.052120 0.000000 1.990550 
# 
# From -- ./inp_files/154929.got.cif
#   From: 2010.05.17/outbox.cif.g08.bks.cpg/sg15_78_cif.got.tgz:154929.got - 2010.06.03 18:47:42.
