data_PCOD9298325
_publ_section_title
;
Structure prediction by ZEFSAII (Michael W. Deem and Ramdas Pophale) SiO2 
 PCOD9298325
Probable space group: C 2/C
;
_chemical_formula_sum "Si O2"
_cell_formula_units_Z 60
_cell_length_a 15.128280
_cell_length_b 10.941905
_cell_length_c 17.166104
_cell_angle_alpha 90.000000
_cell_angle_beta 121.444662
_cell_angle_gamma 90.000000
_cell_volume 2424.246535
_symmetry_space_group_name_H-M "C 2/C"
_symmetry_group_IT_number 15
_symmetry_cell_setting 'monoclinic'
loop_
_space_group_symop_operation_xyz
x,y,z
-x,y,1/2-z
-x,-y,-z
x,-y,1/2+z
1/2+x,1/2+y,z
1/2-x,1/2+y,1/2-z
1/2-x,1/2-y,-z
1/2+x,1/2-y,1/2+z
loop_
_atom_site_type_symbol
_atom_site_label
_atom_site_fract_x
_atom_site_fract_y
_atom_site_fract_z
Si Si1 0.627043 0.385988 0.238419
Si Si2 0.322541 0.039328 0.736906
Si Si3 0.642489 0.085388 0.093697
Si Si4 0.587438 0.829051 0.005271
Si Si5 0.000000 0.297594 0.250000
Si Si6 0.937204 0.928699 0.036638
Si Si7 0.851585 0.098339 0.125468
Si Si8 0.385277 0.147702 0.164943
O O1 0.722213 0.391661 0.221870
O O2 0.522419 0.378522 0.139228
O O3 0.624695 0.509854 0.288874
O O4 0.639953 0.275762 0.305208
O O5 0.421332 0.125968 0.768357
O O6 0.342918 0.928266 0.807341
O O7 0.311125 0.964392 0.652618
O O8 0.532592 0.146552 0.028313
O O9 0.735689 0.144251 0.089421
O O10 0.644532 0.940909 0.072384
O O11 0.613898 0.688001 0.029274
O O12 0.607764 0.845453 0.923596
O O13 0.070024 0.210484 0.335840
O O14 0.866274 0.017230 0.055595
O O15 0.000000 0.000000 0.000000
O O16 0.500000 0.115975 0.250000
#
# Coordination Sequence:
#
# PCOD9298325 Si02
#       8
#     8   8   8   8   4   8   8   8
#     4  11  23  43  69  97 130 176 228 274 329 405
#     4  11  25  40  69 101 129 173 229 282 338 399
#     4  10  24  44  67 100 132 173 223 287 342 398
#     4  11  23  43  72  94 136 177 229 282 335 405
#     4  12  24  40  66 100 136 172 220 292 332 400
#     4  12  25  42  64  98 137 178 221 275 343 404
#     4  11  24  44  66  95 138 177 219 273 346 396
#     4  12  20  43  72  95 124 176 236 271 327 406
#
# _framework density 24.749956999999998
#
# number of rings (size 3 to 8) (size 9 to 14) (size 15 to 20)
#    0.000    0.800    6.000    0.000    7.467    1.600 
#    2.400    0.667    0.000    0.000    0.000    0.000 
#    0.000    0.000    0.000    0.000    0.000    0.000 
#
# Total GULP energy -168029.567740 kJ/mol
# GULP energy per Si atom -5600.985591 kJ/mol
# Density = 2.469362 g / cm^3
# Si number density = 24.749957 Si / 1000 Ang^3
#
#
#
# Elastic Constant Matrix: (Units=GPa)
#
#
# Indices 1 2 3 4 5 6 
#
# 1 180.1015 50.0376 19.8916 0.0000 -15.7083 0.0000
# 2 50.0376 81.1353 6.4635 0.0000 -12.9986 0.0000
# 3 19.8916 6.4635 34.8390 0.0000 -7.7192 0.0000
# 4 0.0000 0.0000 0.0000 27.3108 0.0000 -7.2236
# 5 -15.7083 -12.9986 -7.7192 0.0000 37.7901 0.0000
# 6 0.0000 0.0000 0.0000 -7.2236 0.0000 39.9204
#
#
#
# Elastic Compliance Matrix: (Units=1/GPa)
#
#
# Indices 1 2 3 4 5 6 
#
# 1 0.007079 -0.003968 -0.003096 0.000000 0.000945 0.000000
# 2 -0.003968 0.015342 0.000233 0.000000 0.003676 0.000000
# 3 -0.003096 0.000233 0.031590 0.000000 0.005246 0.000000
# 4 0.000000 0.000000 0.000000 0.038456 0.000000 0.006959
# 5 0.000945 0.003676 0.005246 0.000000 0.029191 0.000000
# 6 0.000000 0.000000 0.000000 0.006959 0.000000 0.026309
#
#
# Mechanical properties :
#
#
# Convention : Reuss Voigt Hill
#
# Bulk Modulus (GPa) = 24.78275 49.87346 37.32811
# Shear Modulus (GPa) = 28.55846 35.64980 32.10413
#
# Velocity S-wave (km/s) = 3.40056 3.79938 3.60549
# Velocity P-wave (km/s) = 5.04514 6.28026 5.69628
#
# Compressibility (1/GPa) = 0.04035064
#
# Stress axis : x y z
#
# Youngs Moduli (GPa) = 141.25832 65.17896 31.65523
#
# Poissons Ratio (x) = 0.25862 0.09802
# Poissons Ratio (y) = 0.56048 -0.00739
# Poissons Ratio (z) = 0.43739 -0.01522
#
# Static dielectric constant tensor:
#      x y z
#    x 1.970890 0.000000 0.065320 
#    y 0.000000 1.978610 0.000000 
#    z 0.065320 0.000000 1.973340 
# 
# From -- ./inp_files/204511.got.cif
#   From: 2010.05.17/outbox.cif.g08.bks.cpg/sg15_103_cif.got.tgz:204511.got - 2010.06.03 18:47:42.
