data_PCOD9298028
_publ_section_title
;
Structure prediction by ZEFSAII (Michael W. Deem and Ramdas Pophale) SiO2 
 PCOD9298028
Probable space group: C 2/C
;
_chemical_formula_sum "Si O2"
_cell_formula_units_Z 32
_cell_length_a 14.599882
_cell_length_b 10.451801
_cell_length_c 11.279699
_cell_angle_alpha 90.000000
_cell_angle_beta 64.126954
_cell_angle_gamma 90.000000
_cell_volume 1548.696080
_symmetry_space_group_name_H-M "C 2/C"
_symmetry_group_IT_number 15
_symmetry_cell_setting 'monoclinic'
loop_
_space_group_symop_operation_xyz
x,y,z
-x,y,1/2-z
-x,-y,-z
x,-y,1/2+z
1/2+x,1/2+y,z
1/2-x,1/2+y,1/2-z
1/2-x,1/2-y,-z
1/2+x,1/2-y,1/2+z
loop_
_atom_site_type_symbol
_atom_site_label
_atom_site_fract_x
_atom_site_fract_y
_atom_site_fract_z
Si Si1 0.920892 0.575536 0.695755
Si Si2 0.447014 0.536552 0.902592
Si Si3 0.289217 0.349213 0.074418
Si Si4 0.023243 0.701522 0.411483
O O1 0.805878 0.608555 0.793128
O O2 0.936288 0.422863 0.679050
O O3 0.000000 0.624229 0.750000
O O4 0.957166 0.642201 0.555327
O O5 0.500000 0.488765 0.750000
O O6 0.452582 0.690042 0.892650
O O7 0.500000 0.500000 0.000000
O O8 0.338244 0.470301 0.978857
O O9 0.377708 0.278043 0.097798
O O10 0.250000 0.250000 0.000000
#
# Coordination Sequence:
#
# PCOD9298028 Si02
#       4
#     8   8   8   8
#     4  11  23  43  64  94 135 175 225 281 342 405
#     4  10  24  44  69  99 136 176 226 283 337 403
#     4  11  24  39  71  96 131 183 227 275 346 409
#     4  10  24  43  65  96 134 175 226 285 336 408
#
# _framework density 20.662544
#
# number of rings (size 3 to 8) (size 9 to 14) (size 15 to 20)
#    0.000    1.500    2.500    0.750   10.500    2.000 
#    0.000    2.500    0.000    0.000    0.000    0.000 
#    0.000    0.000    0.000    0.000    0.000    0.000 
#
# Total GULP energy -89281.865538 kJ/mol
# GULP energy per Si atom -5580.116596 kJ/mol
# Density = 2.061552 g / cm^3
# Si number density = 20.662544 Si / 1000 Ang^3
#
#
#
# Elastic Constant Matrix: (Units=GPa)
#
#
# Indices 1 2 3 4 5 6 
#
# 1 58.6642 41.8335 46.7570 0.0000 -24.6325 0.0000
# 2 41.8335 134.9615 62.3299 0.0000 -23.6706 0.0000
# 3 46.7570 62.3299 147.4801 0.0000 -32.5891 0.0000
# 4 0.0000 0.0000 0.0000 12.8643 0.0000 2.7865
# 5 -24.6325 -23.6706 -32.5891 0.0000 42.7097 0.0000
# 6 0.0000 0.0000 0.0000 2.7865 0.0000 39.3855
#
#
#
# Elastic Compliance Matrix: (Units=1/GPa)
#
#
# Indices 1 2 3 4 5 6 
#
# 1 0.028579 -0.004883 -0.004754 0.000000 0.010149 0.000000
# 2 -0.004883 0.010281 -0.002598 0.000000 0.000899 0.000000
# 3 -0.004754 -0.002598 0.010178 0.000000 0.003584 0.000000
# 4 0.000000 0.000000 0.000000 0.078944 0.000000 -0.005585
# 5 0.010149 0.000899 0.003584 0.000000 0.032500 0.000000
# 6 0.000000 0.000000 0.000000 -0.005585 0.000000 0.025785
#
#
# Mechanical properties :
#
#
# Convention : Reuss Voigt Hill
#
# Bulk Modulus (GPa) = 40.70555 71.43853 56.07204
# Shear Modulus (GPa) = 22.83868 31.67092 27.25480
#
# Velocity S-wave (km/s) = 3.32824 3.91931 3.63580
# Velocity P-wave (km/s) = 5.87473 7.42498 6.69488
#
# Compressibility (1/GPa) = 0.02456667
#
# Stress axis : x y z
#
# Youngs Moduli (GPa) = 34.99096 97.27001 98.25110
#
# Poissons Ratio (x) = 0.47495 0.46712
# Poissons Ratio (y) = 0.17085 0.25528
# Poissons Ratio (z) = 0.16636 0.25273
#
# Static dielectric constant tensor:
#      x y z
#    x 1.914610 0.000000 0.114160 
#    y 0.000000 2.253740 0.000000 
#    z 0.114160 0.000000 1.719700 
# 
# From -- ./inp_files/94275.got.cif
#   From: 2010.05.17/outbox.cif.g08.bks.cpg/sg15_48_cif.got.tgz:94275.got - 2010.06.03 18:47:42.
