data_PCOD9298159
_publ_section_title
;
Structure prediction by ZEFSAII (Michael W. Deem and Ramdas Pophale) SiO2 
 PCOD9298159
Probable space group: C 2/C
;
_chemical_formula_sum "Si O2"
_cell_formula_units_Z 56
_cell_length_a 14.906424
_cell_length_b 12.581848
_cell_length_c 12.705244
_cell_angle_alpha 90.000000
_cell_angle_beta 89.053767
_cell_angle_gamma 90.000000
_cell_volume 2382.548152
_symmetry_space_group_name_H-M "C 2/C"
_symmetry_group_IT_number 15
_symmetry_cell_setting 'monoclinic'
loop_
_space_group_symop_operation_xyz
x,y,z
-x,y,1/2-z
-x,-y,-z
x,-y,1/2+z
1/2+x,1/2+y,z
1/2-x,1/2+y,1/2-z
1/2-x,1/2-y,-z
1/2+x,1/2-y,1/2+z
loop_
_atom_site_type_symbol
_atom_site_label
_atom_site_fract_x
_atom_site_fract_y
_atom_site_fract_z
Si Si1 0.022488 0.885023 0.371569
Si Si2 0.068922 0.669194 0.171719
Si Si3 0.403282 0.974009 0.460960
Si Si4 0.291215 0.024641 0.641981
Si Si5 0.740526 0.343095 0.787314
Si Si6 0.102348 0.690306 0.726814
Si Si7 0.638754 0.445915 0.975028
O O1 0.000000 0.920474 0.250000
O O2 0.001622 0.758010 0.365486
O O3 0.951177 0.912763 0.463730
O O4 0.112289 0.945831 0.410522
O O5 0.116783 0.588831 0.090128
O O6 0.162878 0.718111 0.213702
O O7 0.000000 0.604449 0.250000
O O8 0.500000 0.000000 0.500000
O O9 0.346639 0.947889 0.564057
O O10 0.399131 0.885176 0.373873
O O11 0.262347 0.959618 0.743559
O O12 0.353759 0.121429 0.678534
O O13 0.208114 0.050021 0.569857
O O14 0.671123 0.286021 0.710705
O O15 0.682121 0.361039 0.893853
O O16 0.000000 0.723471 0.750000
#
# Coordination Sequence:
#
# PCOD9298159 Si02
#       7
#     8   8   8   8   8   8   8
#     4  10  24  43  71 103 148 196 243 301 375 451
#     4  11  23  45  71 103 145 192 246 304 380 449
#     4  12  24  43  74 101 141 192 249 309 379 440
#     4  12  24  45  73 101 153 192 249 317 372 454
#     4  12  27  45  74 110 149 199 255 314 381 446
#     4  12  27  47  73 109 147 197 254 316 377 453
#     4  11  24  44  71 107 150 196 245 309 381 448
#
# _framework density 23.504248
#
# number of rings (size 3 to 8) (size 9 to 14) (size 15 to 20)
#    0.000    0.571    4.286    3.000    2.000    9.143 
#    0.000    0.000    0.000    0.000    0.000    0.000 
#    0.000    0.000    0.000    0.000    0.000    0.000 
#
# Total GULP energy -156100.798362 kJ/mol
# GULP energy per Si atom -5575.028513 kJ/mol
# Density = 2.345075 g / cm^3
# Si number density = 23.504248 Si / 1000 Ang^3
#
#
#
# Elastic Constant Matrix: (Units=GPa)
#
#
# Indices 1 2 3 4 5 6 
#
# 1 135.4995 25.8391 19.4442 0.0000 0.7184 0.0000
# 2 25.8391 48.5815 5.3309 0.0000 6.4242 0.0000
# 3 19.4442 5.3309 79.8307 0.0000 -8.3660 0.0000
# 4 0.0000 0.0000 0.0000 13.8783 0.0000 -0.6199
# 5 0.7184 6.4242 -8.3660 0.0000 49.3445 0.0000
# 6 0.0000 0.0000 0.0000 -0.6199 0.0000 20.1437
#
#
#
# Elastic Compliance Matrix: (Units=1/GPa)
#
#
# Indices 1 2 3 4 5 6 
#
# 1 0.008456 -0.004323 -0.001756 0.000000 0.000142 0.000000
# 2 -0.004323 0.023388 -0.000836 0.000000 -0.003124 0.000000
# 3 -0.001756 -0.000836 0.013260 0.000000 0.002383 0.000000
# 4 0.000000 0.000000 0.000000 0.072154 0.000000 0.002221
# 5 0.000142 -0.003124 0.002383 0.000000 0.021074 0.000000
# 6 0.000000 0.000000 0.000000 0.002221 0.000000 0.049712
#
#
# Mechanical properties :
#
#
# Convention : Reuss Voigt Hill
#
# Bulk Modulus (GPa) = 31.97676 40.57111 36.27394
# Shear Modulus (GPa) = 23.55168 30.89313 27.22240
#
# Velocity S-wave (km/s) = 3.16890 3.62935 3.40691
# Velocity P-wave (km/s) = 5.19841 5.90437 5.56260
#
# Compressibility (1/GPa) = 0.03127271
#
# Stress axis : x y z
#
# Youngs Moduli (GPa) = 118.26207 42.75638 75.41635
#
# Poissons Ratio (x) = 0.18486 0.13243
# Poissons Ratio (y) = 0.51130 0.06306
# Poissons Ratio (z) = 0.20766 0.03575
#
# Static dielectric constant tensor:
#      x y z
#    x 2.110560 0.000000 0.252180 
#    y 0.000000 2.094950 0.000000 
#    z 0.252180 0.000000 1.947880 
# 
# From -- ./inp_files/97034.got.cif
#   From: 2010.05.17/outbox.cif.g08.bks.cpg/sg15_49_cif.got.tgz:97034.got - 2010.06.03 18:47:42.
