data_PCOD9298475
_publ_section_title
;
Structure prediction by ZEFSAII (Michael W. Deem and Ramdas Pophale) SiO2 
 PCOD9298475
Probable space group: C 2/C
;
_chemical_formula_sum "Si O2"
_cell_formula_units_Z 52
_cell_length_a 24.657591
_cell_length_b 8.563648
_cell_length_c 11.473580
_cell_angle_alpha 90.000000
_cell_angle_beta 68.916888
_cell_angle_gamma 90.000000
_cell_volume 2260.569105
_symmetry_space_group_name_H-M "C 2/C"
_symmetry_group_IT_number 15
_symmetry_cell_setting 'monoclinic'
loop_
_space_group_symop_operation_xyz
x,y,z
-x,y,1/2-z
-x,-y,-z
x,-y,1/2+z
1/2+x,1/2+y,z
1/2-x,1/2+y,1/2-z
1/2-x,1/2-y,-z
1/2+x,1/2-y,1/2+z
loop_
_atom_site_type_symbol
_atom_site_label
_atom_site_fract_x
_atom_site_fract_y
_atom_site_fract_z
Si Si1 0.620689 0.448450 0.663560
Si Si2 0.205934 0.770874 0.428502
Si Si3 0.687863 0.251262 0.786596
Si Si4 0.139632 0.707819 0.068090
Si Si5 0.847811 0.433577 0.707813
Si Si6 0.944667 0.561345 0.977385
Si Si7 0.500000 0.705767 0.250000
O O1 0.651385 0.360804 0.527099
O O2 0.665528 0.402698 0.733895
O O3 0.615193 0.629419 0.635423
O O4 0.555981 0.392913 0.748020
O O5 0.250000 0.750000 0.500000
O O6 0.250900 0.830551 0.295449
O O7 0.190220 0.608695 0.376440
O O8 0.643051 0.116336 0.780723
O O9 0.680260 0.259119 0.929700
O O10 0.171700 0.634201 0.154896
O O11 0.093172 0.577182 0.057067
O O12 0.907278 0.364236 0.612051
O O13 0.968975 0.684456 0.867979
O O14 0.000000 0.500000 0.000000
#
# Coordination Sequence:
#
# PCOD9298475 Si02
#       7
#     8   8   8   8   8   8   4
#     4  11  25  45  67 107 144 186 236 309 367 421
#     4  10  24  44  71 100 149 188 241 306 363 426
#     4  10  25  45  72 101 146 192 241 294 369 435
#     4  11  26  44  73 107 146 183 249 296 373 433
#     4  11  24  44  71 105 139 193 252 294 356 452
#     4  11  23  44  71 102 139 191 245 296 353 444
#     4  12  22  42  72  92 142 184 234 286 362 422
#
# _framework density 23.003056999999998
#
# number of rings (size 3 to 8) (size 9 to 14) (size 15 to 20)
#    0.000    1.231    1.538    3.692   10.769    3.692 
#    0.000    2.308    0.000    0.000    0.000    0.000 
#    0.000    0.000    0.000    0.000    0.000    0.000 
#
# Total GULP energy -144768.447172 kJ/mol
# GULP energy per Si atom -5568.017199 kJ/mol
# Density = 2.295070 g / cm^3
# Si number density = 23.003057 Si / 1000 Ang^3
#
#
#
# Elastic Constant Matrix: (Units=GPa)
#
#
# Indices 1 2 3 4 5 6 
#
# 1 90.9630 18.8265 28.9337 0.0000 -0.1274 0.0000
# 2 18.8265 82.1150 34.4782 0.0000 8.2115 0.0000
# 3 28.9337 34.4782 140.1781 0.0000 -4.3882 0.0000
# 4 0.0000 0.0000 0.0000 32.3408 0.0000 0.3815
# 5 -0.1274 8.2115 -4.3882 0.0000 40.8688 0.0000
# 6 0.0000 0.0000 0.0000 0.3815 0.0000 21.2343
#
#
#
# Elastic Compliance Matrix: (Units=1/GPa)
#
#
# Indices 1 2 3 4 5 6 
#
# 1 0.012031 -0.001940 -0.001999 0.000000 0.000213 0.000000
# 2 -0.001940 0.014296 -0.003217 0.000000 -0.003224 0.000000
# 3 -0.001999 -0.003217 0.008386 0.000000 0.001540 0.000000
# 4 0.000000 0.000000 0.000000 0.030927 0.000000 -0.000556
# 5 0.000213 -0.003224 0.001540 0.000000 0.025282 0.000000
# 6 0.000000 0.000000 0.000000 -0.000556 0.000000 0.047104
#
#
# Mechanical properties :
#
#
# Convention : Reuss Voigt Hill
#
# Bulk Modulus (GPa) = 49.01850 53.08142 51.04996
# Shear Modulus (GPa) = 31.41910 34.28999 32.85454
#
# Velocity S-wave (km/s) = 3.69977 3.86511 3.78334
# Velocity P-wave (km/s) = 6.29340 6.56084 6.42851
#
# Compressibility (1/GPa) = 0.02040046
#
# Stress axis : x y z
#
# Youngs Moduli (GPa) = 83.11636 69.95041 119.24803
#
# Poissons Ratio (x) = 0.13571 0.23844
# Poissons Ratio (y) = 0.16126 0.38358
# Poissons Ratio (z) = 0.16619 0.22501
#
# Static dielectric constant tensor:
#      x y z
#    x 2.021550 0.000000 -0.062760 
#    y 0.000000 1.963280 0.000000 
#    z -0.062760 0.000000 1.901510 
# 
# From -- ./inp_files/121814.got.cif
#   From: 2010.05.17/outbox.cif.g08.bks.cpg/sg15_61_cif.got.tgz:121814.got - 2010.06.03 18:47:42.
