data_PCOD9298750
_publ_section_title
;
Structure prediction by ZEFSAII (Michael W. Deem and Ramdas Pophale) SiO2 
 PCOD9298750
Probable space group: C 2/C
;
_chemical_formula_sum "Si O2"
_cell_formula_units_Z 36
_cell_length_a 17.611376
_cell_length_b 12.929437
_cell_length_c 7.970416
_cell_angle_alpha 90.000000
_cell_angle_beta 119.120495
_cell_angle_gamma 90.000000
_cell_volume 1585.497730
_symmetry_space_group_name_H-M "C 2/C"
_symmetry_group_IT_number 15
_symmetry_cell_setting 'monoclinic'
loop_
_space_group_symop_operation_xyz
x,y,z
-x,y,1/2-z
-x,-y,-z
x,-y,1/2+z
1/2+x,1/2+y,z
1/2-x,1/2+y,1/2-z
1/2-x,1/2-y,-z
1/2+x,1/2-y,1/2+z
loop_
_atom_site_type_symbol
_atom_site_label
_atom_site_fract_x
_atom_site_fract_y
_atom_site_fract_z
Si Si1 0.660028 0.133386 0.048623
Si Si2 0.103479 0.422491 0.863536
Si Si3 0.694235 0.266552 0.609432
Si Si4 0.534667 0.390738 0.472121
Si Si5 0.500000 0.750507 0.250000
O O1 0.623224 0.112973 0.196050
O O2 0.738438 0.213399 0.167558
O O3 0.587009 0.184763 0.856954
O O4 0.666670 0.018458 0.977904
O O5 0.000000 0.448012 0.750000
O O6 0.127777 0.330043 0.019326
O O7 0.750000 0.250000 0.500000
O O8 0.637164 0.371117 0.558620
O O9 0.500000 0.367543 0.250000
O O10 0.500000 0.500000 0.500000
O O11 0.503235 0.315542 0.584543
#
# Coordination Sequence:
#
# PCOD9298750 Si02
#       5
#     8   8   8   8   4
#     4  11  25  41  69 107 137 191 252 313 391 467
#     4  11  22  44  70  98 145 191 247 311 392 470
#     4  10  24  45  72 106 153 195 253 328 395 473
#     4  12  26  49  75 107 153 210 261 327 406 486
#     4  12  26  48  74 106 152 202 266 320 398 484
#
# _framework density 22.705804000000001
#
# number of rings (size 3 to 8) (size 9 to 14) (size 15 to 20)
#    0.000    0.889    2.222    5.333    3.111    6.222 
#    0.000    0.000    0.000    0.000    0.000    0.000 
#    0.000    0.000    0.000    0.000    0.000    0.000 
#
# Total GULP energy -100466.411828 kJ/mol
# GULP energy per Si atom -5581.467324 kJ/mol
# Density = 2.265412 g / cm^3
# Si number density = 22.705804 Si / 1000 Ang^3
#
#
#
# Elastic Constant Matrix: (Units=GPa)
#
#
# Indices 1 2 3 4 5 6 
#
# 1 68.1277 13.9003 27.7366 0.0000 -13.2803 0.0000
# 2 13.9003 119.3402 53.9499 0.0000 0.8257 0.0000
# 3 27.7366 53.9499 158.6725 0.0000 -5.4763 0.0000
# 4 0.0000 0.0000 0.0000 34.6043 0.0000 -5.7899
# 5 -13.2803 0.8257 -5.4763 0.0000 55.4477 0.0000
# 6 0.0000 0.0000 0.0000 -5.7899 0.0000 -8.3593
#
#
#
# Elastic Compliance Matrix: (Units=1/GPa)
#
#
# Indices 1 2 3 4 5 6 
#
# 1 0.016590 -0.000834 -0.002487 0.000000 0.003740 0.000000
# 2 -0.000834 0.009956 -0.003263 0.000000 -0.000670 0.000000
# 3 -0.002487 -0.003263 0.007854 0.000000 0.000229 0.000000
# 4 0.000000 0.000000 0.000000 0.025897 0.000000 -0.017937
# 5 0.003740 -0.000670 0.000229 0.000000 0.018963 0.000000
# 6 0.000000 0.000000 0.000000 -0.017937 0.000000 -0.107203
#
#
# Mechanical properties :
#
#
# Convention : Reuss Voigt Hill
#
# Bulk Modulus (GPa) = 47.09631 59.70159 53.39895
# Shear Modulus (GPa) = -649.60332 33.04211 -308.28060
#
# Velocity S-wave (km/s) = -16.93271 3.81888 -11.66475
# Velocity P-wave (km/s) = 19.01321 6.76726 12.56396
#
# Compressibility (1/GPa) = 0.02123308
#
# Stress axis : x y z
#
# Youngs Moduli (GPa) = 60.27633 100.44159 127.31906
#
# Poissons Ratio (x) = 0.08374 0.31670
# Poissons Ratio (y) = 0.05026 0.41538
# Poissons Ratio (z) = 0.14994 0.32769
#
# Static dielectric constant tensor:
#      x y z
#    x 1.910250 0.000000 0.041300 
#    y 0.000000 1.054290 0.000000 
#    z 0.041300 0.000000 1.838660 
# 
# From -- ./inp_files/54291.got.cif
#   From: 2010.05.17/outbox.cif.g08.bks.cpg/sg15_28_cif.got.tgz:54291.got - 2010.06.03 18:47:42.
