data_PCOD9298182
_publ_section_title
;
Structure prediction by ZEFSAII (Michael W. Deem and Ramdas Pophale) SiO2 
 PCOD9298182
Probable space group: C 2/C
;
_chemical_formula_sum "Si O2"
_cell_formula_units_Z 44
_cell_length_a 12.171401
_cell_length_b 30.369427
_cell_length_c 5.492305
_cell_angle_alpha 90.000000
_cell_angle_beta 94.830578
_cell_angle_gamma 90.000000
_cell_volume 2022.956207
_symmetry_space_group_name_H-M "C 2/C"
_symmetry_group_IT_number 15
_symmetry_cell_setting 'monoclinic'
loop_
_space_group_symop_operation_xyz
x,y,z
-x,y,1/2-z
-x,-y,-z
x,-y,1/2+z
1/2+x,1/2+y,z
1/2-x,1/2+y,1/2-z
1/2-x,1/2-y,-z
1/2+x,1/2-y,1/2+z
loop_
_atom_site_type_symbol
_atom_site_label
_atom_site_fract_x
_atom_site_fract_y
_atom_site_fract_z
Si Si1 0.373352 0.984386 0.921478
Si Si2 0.677520 0.722100 0.675650
Si Si3 0.693617 0.109985 0.060994
Si Si4 0.565807 0.634720 0.513017
Si Si5 0.857192 0.310314 0.583120
Si Si6 0.000000 0.644465 0.750000
O O1 0.352871 0.934514 0.828317
O O2 0.325289 0.012150 0.686607
O O3 0.500000 0.000000 0.000000
O O4 0.750000 0.750000 0.500000
O O5 0.597715 0.686643 0.540397
O O6 0.624717 0.761101 0.819822
O O7 0.760078 0.694865 0.864865
O O8 0.682002 0.152713 0.233047
O O9 0.818502 0.108987 0.992718
O O10 0.607384 0.116700 0.826603
O O11 0.500000 0.623807 0.750000
O O12 0.500000 0.627729 0.250000
O O13 0.967366 0.326190 0.471799
#
# Coordination Sequence:
#
# PCOD9298182 Si02
#       6
#     8   8   8   8   8   4
#     4  10  24  43  72 110 145 184 220 298 388 468
#     4  11  23  46  65  97 146 200 266 305 373 423
#     4  12  26  46  72 108 150 186 252 302 388 465
#     4  12  28  48  73 101 146 209 255 311 354 441
#     4  11  24  41  67 102 145 198 246 312 379 442
#     4  12  24  40  70 102 140 196 236 324 384 434
#
# _framework density 21.750349
#
# number of rings (size 3 to 8) (size 9 to 14) (size 15 to 20)
#    0.000    0.727    3.636    2.727   10.182    2.909 
#    1.636    0.000    0.000    3.273    0.000    0.000 
#    0.000    0.000    0.000    0.000    0.000    0.000 
#
# Total GULP energy -122906.651675 kJ/mol
# GULP energy per Si atom -5586.665985 kJ/mol
# Density = 2.170084 g / cm^3
# Si number density = 21.750349 Si / 1000 Ang^3
#
#
#
# Elastic Constant Matrix: (Units=GPa)
#
#
# Indices 1 2 3 4 5 6 
#
# 1 139.0337 26.4618 48.3863 0.0000 4.3130 0.0000
# 2 26.4618 87.7785 9.0455 0.0000 9.3516 0.0000
# 3 48.3863 9.0455 125.2172 0.0000 10.8092 0.0000
# 4 0.0000 0.0000 0.0000 27.3449 0.0000 -8.4100
# 5 4.3130 9.3516 10.8092 0.0000 38.8498 0.0000
# 6 0.0000 0.0000 0.0000 -8.4100 0.0000 18.3341
#
#
#
# Elastic Compliance Matrix: (Units=1/GPa)
#
#
# Indices 1 2 3 4 5 6 
#
# 1 0.008760 -0.002358 -0.003258 0.000000 0.000502 0.000000
# 2 -0.002358 0.012374 0.000258 0.000000 -0.002789 0.000000
# 3 -0.003258 0.000258 0.009427 0.000000 -0.002323 0.000000
# 4 0.000000 0.000000 0.000000 0.042577 0.000000 0.019530
# 5 0.000502 -0.002789 -0.002323 0.000000 0.027002 0.000000
# 6 0.000000 0.000000 0.000000 0.019530 0.000000 0.063502
#
#
# Mechanical properties :
#
#
# Convention : Reuss Voigt Hill
#
# Bulk Modulus (GPa) = 50.39257 57.75741 54.07499
# Shear Modulus (GPa) = 27.62866 34.78148 31.20507
#
# Velocity S-wave (km/s) = 3.56794 4.00324 3.79184
# Velocity P-wave (km/s) = 6.33976 6.92678 6.63976
#
# Compressibility (1/GPa) = 0.01984419
#
# Stress axis : x y z
#
# Youngs Moduli (GPa) = 114.16075 80.81629 106.07930
#
# Poissons Ratio (x) = 0.19060 0.34559
# Poissons Ratio (y) = 0.26924 -0.02739
# Poissons Ratio (z) = 0.37191 -0.02087
#
# Static dielectric constant tensor:
#      x y z
#    x 1.861020 0.000000 -0.040720 
#    y 0.000000 1.843540 0.000000 
#    z -0.040720 0.000000 1.933060 
# 
# From -- ./inp_files/5878.got.cif
#   From: 2010.05.17/outbox.cif.g08.bks.cpg/sg15_3_cif.got.tgz:5878.got - 2010.06.03 18:47:42.
