data_PCOD9298492
_publ_section_title
;
Structure prediction by ZEFSAII (Michael W. Deem and Ramdas Pophale) SiO2 
 PCOD9298492
Probable space group: C 2/C
;
_chemical_formula_sum "Si O2"
_cell_formula_units_Z 44
_cell_length_a 8.732966
_cell_length_b 26.102734
_cell_length_c 9.529615
_cell_angle_alpha 90.000000
_cell_angle_beta 69.069458
_cell_angle_gamma 90.000000
_cell_volume 2028.974513
_symmetry_space_group_name_H-M "C 2/C"
_symmetry_group_IT_number 15
_symmetry_cell_setting 'monoclinic'
loop_
_space_group_symop_operation_xyz
x,y,z
-x,y,1/2-z
-x,-y,-z
x,-y,1/2+z
1/2+x,1/2+y,z
1/2-x,1/2+y,1/2-z
1/2-x,1/2-y,-z
1/2+x,1/2-y,1/2+z
loop_
_atom_site_type_symbol
_atom_site_label
_atom_site_fract_x
_atom_site_fract_y
_atom_site_fract_z
Si Si1 0.666807 0.330645 0.758672
Si Si2 0.500000 0.772754 0.750000
Si Si3 0.693213 0.105240 0.844158
Si Si4 0.121640 0.008563 0.588569
Si Si5 0.691842 0.091141 0.518287
Si Si6 0.106860 0.173830 0.585754
O O1 0.500000 0.304362 0.750000
O O2 0.722720 0.372951 0.626633
O O3 0.836569 0.301259 0.746446
O O4 0.601630 0.348819 0.932835
O O5 0.558302 0.733103 0.608614
O O6 0.737761 0.104881 0.664496
O O7 0.717014 0.160500 0.908792
O O8 0.798430 0.062992 0.895977
O O9 0.502984 0.094196 0.922981
O O10 0.262568 0.967244 0.524946
O O11 0.000000 0.992883 0.750000
O O12 0.000000 0.000000 0.500000
O O13 0.000000 0.150679 0.750000
#
# Coordination Sequence:
#
# PCOD9298492 Si02
#       6
#     8   4   8   8   8   8
#     4  12  25  45  73 106 140 182 248 290 355 431
#     4  10  26  48  72 104 146 188 236 298 368 420
#     4  11  24  47  68  97 149 185 232 296 356 418
#     4  12  25  43  71 100 141 185 234 286 355 426
#     4  11  26  44  68 106 136 189 239 290 353 426
#     4  10  24  44  72 100 143 186 226 292 366 411
#
# _framework density 21.685832000000001
#
# number of rings (size 3 to 8) (size 9 to 14) (size 15 to 20)
#    0.545    0.364    1.818    4.364    5.091    0.727 
#    3.273    0.000    0.000    0.000    0.000    0.000 
#    0.000    0.000    0.000    0.000    0.000    0.000 
#
# Total GULP energy -122515.162415 kJ/mol
# GULP energy per Si atom -5568.871019 kJ/mol
# Density = 2.163647 g / cm^3
# Si number density = 21.685832 Si / 1000 Ang^3
#
#
#
# Elastic Constant Matrix: (Units=GPa)
#
#
# Indices 1 2 3 4 5 6 
#
# 1 155.0764 52.4577 64.6950 0.0000 9.9882 0.0000
# 2 52.4577 82.2327 50.7710 0.0000 5.8963 0.0000
# 3 64.6950 50.7710 176.2975 0.0000 15.7079 0.0000
# 4 0.0000 0.0000 0.0000 29.4465 0.0000 -12.0914
# 5 9.9882 5.8963 15.7079 0.0000 34.7978 0.0000
# 6 0.0000 0.0000 0.0000 -12.0914 0.0000 36.4446
#
#
#
# Elastic Compliance Matrix: (Units=1/GPa)
#
#
# Indices 1 2 3 4 5 6 
#
# 1 0.008769 -0.004368 -0.001877 0.000000 -0.000930 0.000000
# 2 -0.004368 0.016979 -0.003274 0.000000 -0.000145 0.000000
# 3 -0.001877 -0.003274 0.007508 0.000000 -0.002296 0.000000
# 4 0.000000 0.000000 0.000000 0.039316 0.000000 0.013044
# 5 -0.000930 -0.000145 -0.002296 0.000000 0.030065 0.000000
# 6 0.000000 0.000000 0.000000 0.013044 0.000000 0.031767
#
#
# Mechanical properties :
#
#
# Convention : Reuss Voigt Hill
#
# Bulk Modulus (GPa) = 70.33311 83.27267 76.80289
# Shear Modulus (GPa) = 31.60917 36.51666 34.06291
#
# Velocity S-wave (km/s) = 3.82199 4.10798 3.96756
# Velocity P-wave (km/s) = 7.20971 7.80920 7.51544
#
# Compressibility (1/GPa) = 0.01421805
#
# Stress axis : x y z
#
# Youngs Moduli (GPa) = 114.03706 58.89672 133.18448
#
# Poissons Ratio (x) = 0.25728 0.25000
# Poissons Ratio (y) = 0.49816 0.43600
# Poissons Ratio (z) = 0.21406 0.19281
#
# Static dielectric constant tensor:
#      x y z
#    x 1.690850 0.000000 -0.159310 
#    y 0.000000 1.666520 0.000000 
#    z -0.159310 0.000000 1.705890 
# 
# From -- ./inp_files/25451.got.cif
#   From: 2010.05.17/outbox.cif.g08.bks.cpg/sg15_13_cif.got.tgz:25451.got - 2010.06.03 18:47:42.
