data_PCOD9298915
_publ_section_title
;
Structure prediction by ZEFSAII (Michael W. Deem and Ramdas Pophale) SiO2 
 PCOD9298915
Probable space group: C 2/C
;
_chemical_formula_sum "Si O2"
_cell_formula_units_Z 44
_cell_length_a 30.740944
_cell_length_b 8.112201
_cell_length_c 7.882148
_cell_angle_alpha 90.000000
_cell_angle_beta 117.658025
_cell_angle_gamma 90.000000
_cell_volume 1741.020042
_symmetry_space_group_name_H-M "C 2/C"
_symmetry_group_IT_number 15
_symmetry_cell_setting 'monoclinic'
loop_
_space_group_symop_operation_xyz
x,y,z
-x,y,1/2-z
-x,-y,-z
x,-y,1/2+z
1/2+x,1/2+y,z
1/2-x,1/2+y,1/2-z
1/2-x,1/2-y,-z
1/2+x,1/2-y,1/2+z
loop_
_atom_site_type_symbol
_atom_site_label
_atom_site_fract_x
_atom_site_fract_y
_atom_site_fract_z
Si Si1 0.807423 0.745656 0.892145
Si Si2 0.869476 0.751569 0.460645
Si Si3 0.281591 0.452669 0.177396
Si Si4 0.971652 0.844656 0.525296
Si Si5 0.109894 0.411378 0.137187
Si Si6 0.000000 0.500000 0.500000
O O1 0.773121 0.588610 0.860449
O O2 0.863228 0.698502 0.955469
O O3 0.790529 0.853933 0.701208
O O4 0.793820 0.865540 0.022178
O O5 0.821055 0.858995 0.367324
O O6 0.914903 0.862521 0.473779
O O7 0.864426 0.590463 0.331682
O O8 0.883443 0.676752 0.669247
O O9 0.977498 0.684230 0.422119
O O10 0.000000 0.791562 0.750000
O O11 0.000000 0.000000 0.500000
O O12 0.052771 0.446568 0.008571
#
# Coordination Sequence:
#
# PCOD9298915 Si02
#       6
#     8   8   8   8   8   4
#     4  11  25  44  70 102 149 189 245 305 373 448
#     4  11  24  43  70 102 138 190 245 304 374 446
#     4  11  25  44  69 106 143 194 241 306 374 448
#     4  11  25  46  68 102 142 187 245 307 370 448
#     4  11  23  43  71  99 140 189 242 304 369 446
#     4  10  24  46  70 100 144 192 250 306 380 440
#
# _framework density 25.272539999999999
#
# number of rings (size 3 to 8) (size 9 to 14) (size 15 to 20)
#    0.000    1.091    1.818    3.273    2.545    8.000 
#    3.273    0.000    0.000    0.000    0.000    0.000 
#    0.000    0.000    0.000    0.000    0.000    0.000 
#
# Total GULP energy -122661.683863 kJ/mol
# GULP energy per Si atom -5575.531085 kJ/mol
# Density = 2.521502 g / cm^3
# Si number density = 25.272540 Si / 1000 Ang^3
#
#
#
# Elastic Constant Matrix: (Units=GPa)
#
#
# Indices 1 2 3 4 5 6 
#
# 1 212.2977 53.1981 31.8792 0.0000 4.6273 0.0000
# 2 53.1981 55.7202 8.0988 0.0000 -4.5436 0.0000
# 3 31.8792 8.0988 49.9562 0.0000 -12.6918 0.0000
# 4 0.0000 0.0000 0.0000 10.1391 0.0000 5.9476
# 5 4.6273 -4.5436 -12.6918 0.0000 26.8918 0.0000
# 6 0.0000 0.0000 0.0000 5.9476 0.0000 55.7730
#
#
#
# Elastic Compliance Matrix: (Units=1/GPa)
#
#
# Indices 1 2 3 4 5 6 
#
# 1 0.007138 -0.006508 -0.004649 0.000000 -0.004522 0.000000
# 2 -0.006508 0.024402 0.001737 0.000000 0.006062 0.000000
# 3 -0.004649 0.001737 0.026111 0.000000 0.013417 0.000000
# 4 0.000000 0.000000 0.000000 0.105210 0.000000 -0.011220
# 5 -0.004522 0.006062 0.013417 0.000000 0.045321 0.000000
# 6 0.000000 0.000000 0.000000 -0.011220 0.000000 0.019126
#
#
# Mechanical properties :
#
#
# Convention : Reuss Voigt Hill
#
# Bulk Modulus (GPa) = 25.76523 56.03625 40.90074
# Shear Modulus (GPa) = 19.29887 33.54731 26.42309
#
# Velocity S-wave (km/s) = 2.76638 3.64733 3.23697
# Velocity P-wave (km/s) = 4.51895 6.32126 5.49451
#
# Compressibility (1/GPa) = 0.03881200
#
# Stress axis : x y z
#
# Youngs Moduli (GPa) = 140.10188 40.98069 38.29806
#
# Poissons Ratio (x) = 0.26669 0.17803
# Poissons Ratio (y) = 0.91173 -0.06652
# Poissons Ratio (z) = 0.65128 -0.07118
#
# Static dielectric constant tensor:
#      x y z
#    x 1.905150 0.000000 -0.069010 
#    y 0.000000 2.005560 0.000000 
#    z -0.069010 0.000000 2.142990 
# 
# From -- ./inp_files/68420.got.cif
#   From: 2010.05.17/outbox.cif.g08.bks.cpg/sg15_35_cif.got.tgz:68420.got - 2010.06.03 18:47:42.
