data_PCOD9298695
_publ_section_title
;
Structure prediction by ZEFSAII (Michael W. Deem and Ramdas Pophale) SiO2 
 PCOD9298695
Probable space group: C 2/C
;
_chemical_formula_sum "Si O2"
_cell_formula_units_Z 24
_cell_length_a 24.618927
_cell_length_b 5.196166
_cell_length_c 9.638348
_cell_angle_alpha 90.000000
_cell_angle_beta 51.195809
_cell_angle_gamma 90.000000
_cell_volume 960.848751
_symmetry_space_group_name_H-M "C 2/C"
_symmetry_group_IT_number 15
_symmetry_cell_setting 'monoclinic'
loop_
_space_group_symop_operation_xyz
x,y,z
-x,y,1/2-z
-x,-y,-z
x,-y,1/2+z
1/2+x,1/2+y,z
1/2-x,1/2+y,1/2-z
1/2-x,1/2-y,-z
1/2+x,1/2-y,1/2+z
loop_
_atom_site_type_symbol
_atom_site_label
_atom_site_fract_x
_atom_site_fract_y
_atom_site_fract_z
Si Si1 0.679935 0.785991 0.196383
Si Si2 0.612558 0.948206 0.555040
Si Si3 0.933237 0.956521 0.012141
O O1 0.636883 0.522967 0.287927
O O2 0.681763 0.910324 0.346768
O O3 0.750000 0.750000 0.000000
O O4 0.631576 0.965827 0.177312
O O5 0.570263 0.179915 0.551889
O O6 0.573702 0.680215 0.593195
O O7 0.000000 0.000000 0.000000
#
# Coordination Sequence:
#
# PCOD9298695 Si02
#       3
#     8   8   8
#     4  10  26  44  73 100 145 180 237 290 352 412
#     4  10  25  44  70 101 135 186 231 288 349 419
#     4  10  24  45  69  99 140 182 233 283 352 415
#
# _framework density 24.977917999999999
#
# number of rings (size 3 to 8) (size 9 to 14) (size 15 to 20)
#    2.000    0.000    0.000    1.000    9.333    2.667 
#    0.000    0.000    0.000    0.000    0.000    0.000 
#    0.000    0.000    0.000    0.000    0.000    0.000 
#
# Total GULP energy -67089.479428 kJ/mol
# GULP energy per Si atom -5590.789952 kJ/mol
# Density = 2.492107 g / cm^3
# Si number density = 24.977918 Si / 1000 Ang^3
#
#
#
# Elastic Constant Matrix: (Units=GPa)
#
#
# Indices 1 2 3 4 5 6 
#
# 1 45.1315 9.1216 -2.5136 0.0000 8.2417 0.0000
# 2 9.1216 104.5190 -1.1354 0.0000 5.7513 0.0000
# 3 -2.5136 -1.1354 134.8809 0.0000 -10.8553 0.0000
# 4 0.0000 0.0000 0.0000 4.8359 0.0000 5.5524
# 5 8.2417 5.7513 -10.8553 0.0000 45.2141 0.0000
# 6 0.0000 0.0000 0.0000 5.5524 0.0000 34.1019
#
#
#
# Elastic Compliance Matrix: (Units=1/GPa)
#
#
# Indices 1 2 3 4 5 6 
#
# 1 0.023256 -0.001809 0.000097 0.000000 -0.003986 0.000000
# 2 -0.001809 0.009776 -0.000025 0.000000 -0.000920 0.000000
# 3 0.000097 -0.000025 0.007560 0.000000 0.001801 0.000000
# 4 0.000000 0.000000 0.000000 0.254329 0.000000 -0.041409
# 5 -0.003986 -0.000920 0.001801 0.000000 0.023393 0.000000
# 6 0.000000 0.000000 0.000000 -0.041409 0.000000 0.036066
#
#
# Mechanical properties :
#
#
# Convention : Reuss Voigt Hill
#
# Bulk Modulus (GPa) = 26.94100 32.83071 29.88586
# Shear Modulus (GPa) = 13.50519 35.43433 24.46976
#
# Velocity S-wave (km/s) = 2.32779 3.77055 3.13334
# Velocity P-wave (km/s) = 4.24666 5.66820 5.00813
#
# Compressibility (1/GPa) = 0.03711814
#
# Stress axis : x y z
#
# Youngs Moduli (GPa) = 42.99890 102.29269 132.26694
#
# Poissons Ratio (x) = 0.18507 -0.01288
# Poissons Ratio (y) = 0.07780 0.00337
# Poissons Ratio (z) = -0.00419 0.00260
#
# Static dielectric constant tensor:
#      x y z
#    x 1.914420 0.000000 0.007030 
#    y 0.000000 1.952610 0.000000 
#    z 0.007030 0.000000 2.079480 
# 
# From -- ./inp_files/59454.got.cif
#   From: 2010.05.17/outbox.cif.g08.bks.cpg/sg15_30_cif.got.tgz:59454.got - 2010.06.03 18:47:42.
