data_PCOD9298733
_publ_section_title
;
Structure prediction by ZEFSAII (Michael W. Deem and Ramdas Pophale) SiO2 
 PCOD9298733
Probable space group: C 2/C
;
_chemical_formula_sum "Si O2"
_cell_formula_units_Z 44
_cell_length_a 13.932493
_cell_length_b 23.908523
_cell_length_c 5.524777
_cell_angle_alpha 90.000000
_cell_angle_beta 98.586778
_cell_angle_gamma 90.000000
_cell_volume 1819.704120
_symmetry_space_group_name_H-M "C 2/C"
_symmetry_group_IT_number 15
_symmetry_cell_setting 'monoclinic'
loop_
_space_group_symop_operation_xyz
x,y,z
-x,y,1/2-z
-x,-y,-z
x,-y,1/2+z
1/2+x,1/2+y,z
1/2-x,1/2+y,1/2-z
1/2-x,1/2-y,-z
1/2+x,1/2-y,1/2+z
loop_
_atom_site_type_symbol
_atom_site_label
_atom_site_fract_x
_atom_site_fract_y
_atom_site_fract_z
Si Si1 0.291070 0.470826 0.567873
Si Si2 0.915479 0.158793 0.543558
Si Si3 0.782027 0.377633 0.259109
Si Si4 0.500000 0.437475 0.750000
Si Si5 0.538944 0.935287 0.012238
Si Si6 0.810748 0.255666 0.270855
O O1 0.263078 0.505212 0.316973
O O2 0.246840 0.409235 0.500090
O O3 0.408072 0.469558 0.610316
O O4 0.819867 0.139066 0.654675
O O5 0.957069 0.103561 0.436354
O O6 0.886554 0.205473 0.334488
O O7 0.000000 0.181584 0.750000
O O8 0.848210 0.420921 0.431122
O O9 0.842131 0.320168 0.268815
O O10 0.500000 0.911970 0.250000
O O11 0.500000 0.910258 0.750000
O O12 0.500000 0.000000 0.000000
O O13 0.750000 0.250000 0.500000
O O14 0.750000 0.250000 0.000000
#
# Coordination Sequence:
#
# PCOD9298733 Si02
#       6
#     8   8   8   4   8   8
#     4  12  27  41  71 104 147 196 244 294 363 443
#     4  11  24  46  75 113 155 197 248 309 384 463
#     4  11  25  49  75 108 150 198 244 312 381 440
#     4  12  24  46  68 108 162 196 248 296 374 448
#     4  10  25  46  72 101 142 190 254 305 359 429
#     4  10  24  45  71 105 145 195 249 301 368 447
#
# _framework density 24.179756999999999
#
# number of rings (size 3 to 8) (size 9 to 14) (size 15 to 20)
#    0.000    1.091    1.818    2.727    7.636    6.545 
#    1.636    0.000    0.000    0.000    0.000    0.000 
#    0.000    0.000    0.000    0.000    0.000    0.000 
#
# Total GULP energy -122960.345420 kJ/mol
# GULP energy per Si atom -5589.106610 kJ/mol
# Density = 2.412472 g / cm^3
# Si number density = 24.179757 Si / 1000 Ang^3
#
#
#
# Elastic Constant Matrix: (Units=GPa)
#
#
# Indices 1 2 3 4 5 6 
#
# 1 87.4347 42.3925 51.9495 0.0000 24.2872 0.0000
# 2 42.3925 134.3700 64.8831 0.0000 9.8748 0.0000
# 3 51.9495 64.8831 201.3986 0.0000 20.8284 0.0000
# 4 0.0000 0.0000 0.0000 41.5213 0.0000 10.4561
# 5 24.2872 9.8748 20.8284 0.0000 48.0117 0.0000
# 6 0.0000 0.0000 0.0000 10.4561 0.0000 15.3032
#
#
#
# Elastic Compliance Matrix: (Units=1/GPa)
#
#
# Indices 1 2 3 4 5 6 
#
# 1 0.016394 -0.003525 -0.002419 0.000000 -0.006519 0.000000
# 2 -0.003525 0.009588 -0.002262 0.000000 0.000792 0.000000
# 3 -0.002419 -0.002262 0.006432 0.000000 -0.001101 0.000000
# 4 0.000000 0.000000 0.000000 0.029089 0.000000 -0.019876
# 5 -0.006519 0.000792 -0.001101 0.000000 0.024441 0.000000
# 6 0.000000 0.000000 0.000000 -0.019876 0.000000 0.078926
#
#
# Mechanical properties :
#
#
# Convention : Reuss Voigt Hill
#
# Bulk Modulus (GPa) = 62.48931 82.40595 72.44763
# Shear Modulus (GPa) = 26.79306 38.56581 32.67943
#
# Velocity S-wave (km/s) = 3.33239 3.99803 3.68029
# Velocity P-wave (km/s) = 6.38014 7.44761 6.93445
#
# Compressibility (1/GPa) = 0.01600274
#
# Stress axis : x y z
#
# Youngs Moduli (GPa) = 60.99706 104.29589 155.47902
#
# Poissons Ratio (x) = 0.36766 0.37610
# Poissons Ratio (y) = 0.21502 0.35163
# Poissons Ratio (z) = 0.14755 0.23587
#
# Static dielectric constant tensor:
#      x y z
#    x 2.061320 0.000000 -0.153470 
#    y 0.000000 1.996910 0.000000 
#    z -0.153470 0.000000 2.075230 
# 
# From -- ./inp_files/7606.got.cif
#   From: 2010.05.17/outbox.cif.g08.bks.cpg/sg15_4_cif.got.tgz:7606.got - 2010.06.03 18:47:42.
