data_PCOD9298988
_publ_section_title
;
Structure prediction by ZEFSAII (Michael W. Deem and Ramdas Pophale) SiO2 
 PCOD9298988
Probable space group: C 2/C
;
_chemical_formula_sum "Si O2"
_cell_formula_units_Z 52
_cell_length_a 5.219162
_cell_length_b 29.256338
_cell_length_c 15.245677
_cell_angle_alpha 90.000000
_cell_angle_beta 73.341429
_cell_angle_gamma 90.000000
_cell_volume 2230.214205
_symmetry_space_group_name_H-M "C 2/C"
_symmetry_group_IT_number 15
_symmetry_cell_setting 'monoclinic'
loop_
_space_group_symop_operation_xyz
x,y,z
-x,y,1/2-z
-x,-y,-z
x,-y,1/2+z
1/2+x,1/2+y,z
1/2-x,1/2+y,1/2-z
1/2-x,1/2-y,-z
1/2+x,1/2-y,1/2+z
loop_
_atom_site_type_symbol
_atom_site_label
_atom_site_fract_x
_atom_site_fract_y
_atom_site_fract_z
Si Si1 0.302158 0.807848 0.687113
Si Si2 0.994494 0.224727 0.928869
Si Si3 0.814827 0.903629 0.853994
Si Si4 0.898629 0.399486 0.123980
Si Si5 0.512960 0.627839 0.984171
Si Si6 0.804837 0.497855 0.687190
Si Si7 0.000000 0.164937 0.750000
O O1 0.500000 0.799997 0.750000
O O2 0.318424 0.766703 0.616266
O O3 0.361919 0.857959 0.641253
O O4 0.000000 0.809090 0.750000
O O5 0.054324 0.182364 0.986414
O O6 0.974168 0.197532 0.837540
O O7 0.750000 0.250000 0.000000
O O8 0.000000 0.906628 0.750000
O O9 0.671799 0.952496 0.874555
O O10 0.996984 0.894681 0.920162
O O11 0.736135 0.384537 0.052710
O O12 0.868007 0.453392 0.139411
O O13 0.751108 0.369515 0.213849
O O14 0.210403 0.389046 0.085992
O O15 0.500000 0.501502 0.750000
O O16 0.000000 0.490870 0.750000
#
# Coordination Sequence:
#
# PCOD9298988 Si02
#       7
#     8   8   8   8   8   8   4
#     4  11  26  46  72 102 142 194 243 304 373 441
#     4  11  27  45  79 107 149 194 254 306 381 452
#     4  10  26  47  73 101 152 195 247 304 376 449
#     4  11  25  46  76 109 148 186 248 309 374 442
#     4  11  28  45  72 112 145 193 247 313 370 447
#     4  11  23  44  75 110 143 198 247 299 375 458
#     4  10  24  46  72 108 144 190 234 310 370 434
#
# _framework density 23.316147999999998
#
# number of rings (size 3 to 8) (size 9 to 14) (size 15 to 20)
#    0.000    1.231    1.538    1.385   12.923    4.308 
#    0.000    0.000    0.000    0.000    0.000    0.000 
#    0.000    0.000    0.000    0.000    0.000    0.000 
#
# Total GULP energy -145371.872594 kJ/mol
# GULP energy per Si atom -5591.225869 kJ/mol
# Density = 2.326308 g / cm^3
# Si number density = 23.316148 Si / 1000 Ang^3
#
#
#
# Elastic Constant Matrix: (Units=GPa)
#
#
# Indices 1 2 3 4 5 6 
#
# 1 76.5777 12.6697 25.4072 0.0000 6.7241 0.0000
# 2 12.6697 234.3028 38.6383 0.0000 -1.0966 0.0000
# 3 25.4072 38.6383 116.2740 0.0000 7.0436 0.0000
# 4 0.0000 0.0000 0.0000 -85.0747 0.0000 -41.0092
# 5 6.7241 -1.0966 7.0436 0.0000 47.1725 0.0000
# 6 0.0000 0.0000 0.0000 -41.0092 0.0000 11.1629
#
#
#
# Elastic Compliance Matrix: (Units=1/GPa)
#
#
# Indices 1 2 3 4 5 6 
#
# 1 0.014214 -0.000296 -0.002911 0.000000 -0.001598 0.000000
# 2 -0.000296 0.004527 -0.001462 0.000000 0.000366 0.000000
# 3 -0.002911 -0.001462 0.009788 0.000000 -0.001081 0.000000
# 4 0.000000 0.000000 0.000000 -0.004242 0.000000 -0.015584
# 5 -0.001598 0.000366 -0.001081 0.000000 0.021596 0.000000
# 6 0.000000 0.000000 0.000000 -0.015584 0.000000 0.032330
#
#
# Mechanical properties :
#
#
# Convention : Reuss Voigt Hill
#
# Bulk Modulus (GPa) = 52.10743 64.50943 58.30843
# Shear Modulus (GPa) = 53.22182 18.01474 35.61828
#
# Velocity S-wave (km/s) = 4.78286 2.78264 3.91272
# Velocity P-wave (km/s) = 7.27308 6.16858 6.74348
#
# Compressibility (1/GPa) = 0.01919112
#
# Stress axis : x y z
#
# Youngs Moduli (GPa) = 70.35486 220.90904 102.17037
#
# Poissons Ratio (x) = 0.06541 0.29738
# Poissons Ratio (y) = 0.02083 0.14934
# Poissons Ratio (z) = 0.20478 0.32291
#
# Static dielectric constant tensor:
#      x y z
#    x 1.876730 0.000000 -0.002360 
#    y 0.000000 1.905350 0.000000 
#    z -0.002360 0.000000 2.064290 
# 
# From -- ./inp_files/130725.got.cif
#   From: 2010.05.17/outbox.cif.g08.bks.cpg/sg15_66_cif.got.tgz:130725.got - 2010.06.03 18:47:42.
