data_PCOD9298519
_publ_section_title
;
Structure prediction by ZEFSAII (Michael W. Deem and Ramdas Pophale) SiO2 
 PCOD9298519
Probable space group: C 2/C
;
_chemical_formula_sum "Si O2"
_cell_formula_units_Z 20
_cell_length_a 14.270777
_cell_length_b 6.177931
_cell_length_c 19.213567
_cell_angle_alpha 90.000000
_cell_angle_beta 30.873913
_cell_angle_gamma 90.000000
_cell_volume 869.247488
_symmetry_space_group_name_H-M "C 2/C"
_symmetry_group_IT_number 15
_symmetry_cell_setting 'monoclinic'
loop_
_space_group_symop_operation_xyz
x,y,z
-x,y,1/2-z
-x,-y,-z
x,-y,1/2+z
1/2+x,1/2+y,z
1/2-x,1/2+y,1/2-z
1/2-x,1/2-y,-z
1/2+x,1/2-y,1/2+z
loop_
_atom_site_type_symbol
_atom_site_label
_atom_site_fract_x
_atom_site_fract_y
_atom_site_fract_z
Si Si1 0.344912 0.374244 0.057286
Si Si2 0.000000 0.679163 0.250000
Si Si3 0.558058 0.405388 0.789732
O O1 0.263973 0.182448 0.157202
O O2 0.185305 0.542704 0.137493
O O3 0.500000 0.500000 0.000000
O O4 0.441837 0.298729 0.924491
O O5 0.984608 0.840216 0.192396
O O6 0.500000 0.330276 0.750000
#
# Coordination Sequence:
#
# PCOD9298519 Si02
#       3
#     8   4   8
#     4  12  26  44  69 103 133 173 228 276 327 396
#     4  10  24  44  72  90 142 172 220 270 340 382
#     4  10  25  44  69  95 137 176 221 267 338 394
#
# _framework density 23.008409
#
# number of rings (size 3 to 8) (size 9 to 14) (size 15 to 20)
#    1.200    0.000    2.000    2.400    5.600    1.600 
#    0.000    0.000    0.000    0.000    0.000    0.000 
#    0.000    0.000    0.000    0.000    0.000    0.000 
#
# Total GULP energy -55673.790110 kJ/mol
# GULP energy per Si atom -5567.379011 kJ/mol
# Density = 2.295604 g / cm^3
# Si number density = 23.008409 Si / 1000 Ang^3
#
#
#
# Elastic Constant Matrix: (Units=GPa)
#
#
# Indices 1 2 3 4 5 6 
#
# 1 72.1916 32.5040 48.5092 -0.0003 -39.1757 0.0003
# 2 32.5040 54.6882 40.9920 -0.0003 12.8630 0.0001
# 3 48.5092 40.9920 164.0110 -0.0003 1.9071 0.0001
# 4 -0.0003 -0.0003 -0.0003 48.8512 -0.0001 -10.1501
# 5 -39.1757 12.8630 1.9071 -0.0001 -8.6763 0.0004
# 6 0.0003 0.0001 0.0001 -10.1501 0.0004 2.0484
#
#
#
# Elastic Compliance Matrix: (Units=1/GPa)
#
#
# Indices 1 2 3 4 5 6 
#
# 1 0.004581 0.002672 -0.001824 -0.000019 -0.017125 -0.000093
# 2 0.002672 0.017667 -0.005356 0.000024 0.012949 0.000116
# 3 -0.001824 -0.005356 0.007952 0.000000 0.002041 0.000002
# 4 -0.000019 0.000024 0.000000 -0.692097 -0.000037 -3.429504
# 5 -0.017125 0.012949 0.002041 -0.000037 -0.018286 -0.000177
# 6 -0.000093 0.000116 0.000002 -3.429504 -0.000177-16.505815
#
#
# Mechanical properties :
#
#
# Convention : Reuss Voigt Hill
#
# Bulk Modulus (GPa) = 47.20706 59.43347 53.32027
# Shear Modulus (GPa) = -0.29121 19.70370 9.70625
#
# Velocity S-wave (km/s) = -0.35615 2.92955 2.05614
# Velocity P-wave (km/s) = 4.51583 6.10985 5.37229
#
# Compressibility (1/GPa) = 0.02118327
#
# Stress axis : x y z
#
# Youngs Moduli (GPa) = 218.28127 56.60426 125.76179
#
# Poissons Ratio (x) = -0.15125 0.22935
# Poissons Ratio (y) = -0.58325 0.67362
# Poissons Ratio (z) = 0.39808 0.30319
#
# Static dielectric constant tensor:
#      x y z
#    x 1.906950 0.000000 0.030810 
#    y 0.000000 2.007810 0.000000 
#    z 0.030810 0.000000 1.715920 
# 
# From -- ./inp_files/26542.got.cif
#   From: 2010.05.17/outbox.cif.g08.bks.cpg/sg15_14_cif.got.tgz:26542.got - 2010.06.03 18:47:42.
