data_PCOD9298774
_publ_section_title
;
Structure prediction by ZEFSAII (Michael W. Deem and Ramdas Pophale) SiO2 
 PCOD9298774
Probable space group: C 2/C
;
_chemical_formula_sum "Si O2"
_cell_formula_units_Z 64
_cell_length_a 9.293429
_cell_length_b 27.764844
_cell_length_c 20.049898
_cell_angle_alpha 90.000000
_cell_angle_beta 143.509530
_cell_angle_gamma 90.000000
_cell_volume 3076.616391
_symmetry_space_group_name_H-M "C 2/C"
_symmetry_group_IT_number 15
_symmetry_cell_setting 'monoclinic'
loop_
_space_group_symop_operation_xyz
x,y,z
-x,y,1/2-z
-x,-y,-z
x,-y,1/2+z
1/2+x,1/2+y,z
1/2-x,1/2+y,1/2-z
1/2-x,1/2-y,-z
1/2+x,1/2-y,1/2+z
loop_
_atom_site_type_symbol
_atom_site_label
_atom_site_fract_x
_atom_site_fract_y
_atom_site_fract_z
Si Si1 0.177362 0.464787 0.752360
Si Si2 0.542448 0.861861 0.187621
Si Si3 0.719386 0.095942 0.467928
Si Si4 0.076101 0.703313 0.448500
Si Si5 0.037550 0.898057 0.953345
Si Si6 0.493975 0.775807 0.067550
Si Si7 0.723848 0.813252 0.791838
Si Si8 0.073604 0.940183 0.200977
O O1 0.430142 0.441750 0.871032
O O2 0.251328 0.514632 0.746514
O O3 0.000000 0.472846 0.750000
O O4 0.033131 0.426940 0.651948
O O5 0.500000 0.850583 0.250000
O O6 0.556468 0.815366 0.145976
O O7 0.780821 0.893065 0.267630
O O8 0.316921 0.892773 0.074785
O O9 0.699380 0.150850 0.485990
O O10 0.897324 0.098291 0.471085
O O11 0.836158 0.060971 0.566227
O O12 0.250000 0.750000 0.500000
O O13 0.974533 0.705439 0.485324
O O14 0.865811 0.700945 0.314531
O O15 0.943534 0.850303 0.880122
O O16 0.699955 0.735186 0.142837
O O17 0.250000 0.750000 0.000000
O O18 0.500000 0.835699 0.750000
O O19 0.000000 0.937472 0.250000
#
# Coordination Sequence:
#
# PCOD9298774 Si02
#       8
#     8   8   8   8   8   8   8   8
#     4  10  24  45  74 103 134 178 233 288 345 416
#     4  12  27  47  72  99 142 185 232 292 353 411
#     4  11  23  44  74 103 136 183 237 282 343 418
#     4  12  25  43  72 103 140 189 232 282 343 413
#     4  11  21  46  72 104 135 178 236 283 340 424
#     4  12  28  43  63 106 142 182 231 291 342 410
#     4  12  22  43  72 100 138 187 234 277 344 416
#     4  12  28  47  69 103 140 182 231 289 355 420
#
# _framework density 20.802073
#
# number of rings (size 3 to 8) (size 9 to 14) (size 15 to 20)
#    0.000    0.500    6.250    1.500    5.250    2.000 
#    2.250    0.000    0.000    0.000    0.000    0.000 
#    0.000    0.000    0.000    0.000    0.000    0.000 
#
# Total GULP energy -178904.768722 kJ/mol
# GULP energy per Si atom -5590.774023 kJ/mol
# Density = 2.075473 g / cm^3
# Si number density = 20.802073 Si / 1000 Ang^3
#
#
#
# Elastic Constant Matrix: (Units=GPa)
#
#
# Indices 1 2 3 4 5 6 
#
# 1 73.0840 27.8904 26.1452 -0.0001 -30.4085 0.0001
# 2 27.8904 82.8979 6.2408 -0.0002 -22.9093 -0.0002
# 3 26.1452 6.2408 106.3263 0.0004 -22.1754 0.0012
# 4 -0.0001 -0.0002 0.0004 21.8775 0.0000 -0.0560
# 5 -30.4085 -22.9093 -22.1754 0.0000 36.0064 0.0001
# 6 0.0001 -0.0002 0.0012 -0.0560 0.0001 17.8019
#
#
#
# Elastic Compliance Matrix: (Units=1/GPa)
#
#
# Indices 1 2 3 4 5 6 
#
# 1 0.021946 -0.002976 -0.002009 0.000000 0.015404 0.000000
# 2 -0.002976 0.015185 0.001527 0.000000 0.008089 0.000000
# 3 -0.002009 0.001527 0.011082 0.000000 0.006100 -0.000001
# 4 0.000000 0.000000 0.000000 0.045709 0.000000 0.000144
# 5 0.015404 0.008089 0.006100 0.000000 0.049685 -0.000001
# 6 0.000000 0.000000 -0.000001 0.000144 -0.000001 0.056174
#
#
# Mechanical properties :
#
#
# Convention : Reuss Voigt Hill
#
# Bulk Modulus (GPa) = 24.21430 42.54012 33.37721
# Shear Modulus (GPa) = 22.67965 28.60595 25.64280
#
# Velocity S-wave (km/s) = 3.30549 3.71232 3.51480
# Velocity P-wave (km/s) = 5.12191 6.23454 5.70541
#
# Compressibility (1/GPa) = 0.04129791
#
# Stress axis : x y z
#
# Youngs Moduli (GPa) = 45.56584 65.85618 90.23953
#
# Poissons Ratio (x) = 0.19596 0.18131
# Poissons Ratio (y) = 0.13558 -0.13784
# Poissons Ratio (z) = 0.09155 -0.10059
#
# Static dielectric constant tensor:
#      x y z
#    x 1.701180 0.000000 0.012260 
#    y 0.000000 1.750360 0.000000 
#    z 0.012260 0.000000 1.767680 
# 
# From -- ./inp_files/194297.got.cif
#   From: 2010.05.17/outbox.cif.g08.bks.cpg/sg15_98_cif.got.tgz:194297.got - 2010.06.03 18:47:42.
