data_PCOD9298320
_publ_section_title
;
Structure prediction by ZEFSAII (Michael W. Deem and Ramdas Pophale) SiO2 
 PCOD9298320
Probable space group: C 2/C
;
_chemical_formula_sum "Si O2"
_cell_formula_units_Z 44
_cell_length_a 12.189916
_cell_length_b 11.402196
_cell_length_c 17.233085
_cell_angle_alpha 90.000000
_cell_angle_beta 136.335039
_cell_angle_gamma 90.000000
_cell_volume 1653.782097
_symmetry_space_group_name_H-M "C 2/C"
_symmetry_group_IT_number 15
_symmetry_cell_setting 'monoclinic'
loop_
_space_group_symop_operation_xyz
x,y,z
-x,y,1/2-z
-x,-y,-z
x,-y,1/2+z
1/2+x,1/2+y,z
1/2-x,1/2+y,1/2-z
1/2-x,1/2-y,-z
1/2+x,1/2-y,1/2+z
loop_
_atom_site_type_symbol
_atom_site_label
_atom_site_fract_x
_atom_site_fract_y
_atom_site_fract_z
Si Si1 0.519717 0.941991 0.927609
Si Si2 0.223533 0.125011 0.443249
Si Si3 0.299885 0.776938 0.382933
Si Si4 0.319570 0.029083 0.187540
Si Si5 0.500000 0.546764 0.750000
Si Si6 0.336197 0.777781 0.217408
O O1 0.594850 0.819911 0.990553
O O2 0.651217 0.031720 0.959469
O O3 0.361553 0.944745 0.798395
O O4 0.500000 0.000000 0.000000
O O5 0.250000 0.250000 0.500000
O O6 0.065077 0.043386 0.350585
O O7 0.250785 0.170537 0.368956
O O8 0.267917 0.642287 0.386460
O O9 0.361456 0.777528 0.323763
O O10 0.146585 0.865199 0.304765
O O11 0.500000 0.034322 0.250000
O O12 0.249055 0.899687 0.151061
O O13 0.500000 0.781131 0.250000
#
# Coordination Sequence:
#
# PCOD9298320 Si02
#       6
#     8   8   8   8   4   8
#     4  11  23  42  68  96 134 182 220 272 349 400
#     4  11  23  42  68  97 132 172 227 283 333 401
#     4  11  24  45  67  95 140 176 222 279 338 409
#     4  11  23  43  67  99 134 174 227 274 337 404
#     4  10  24  44  66  98 134 178 220 274 348 402
#     4  11  23  40  68  97 130 176 225 280 329 398
#
# _framework density 26.605682000000002
#
# number of rings (size 3 to 8) (size 9 to 14) (size 15 to 20)
#    0.000    1.091    3.636    3.273    2.545    0.727 
#    3.273    0.909    0.000    0.000    0.000    0.000 
#    0.000    0.000    0.000    0.000    0.000    0.000 
#
# Total GULP energy -122750.965437 kJ/mol
# GULP energy per Si atom -5579.589338 kJ/mol
# Density = 2.654513 g / cm^3
# Si number density = 26.605682 Si / 1000 Ang^3
#
#
#
# Elastic Constant Matrix: (Units=GPa)
#
#
# Indices 1 2 3 4 5 6 
#
# 1 73.4300 4.7366 -5.5552 0.0000 -14.8993 0.0000
# 2 4.7366 167.8597 23.3278 0.0000 11.8664 0.0000
# 3 -5.5552 23.3278 60.2781 0.0000 5.8201 0.0000
# 4 0.0000 0.0000 0.0000 64.0070 0.0000 -1.8141
# 5 -14.8993 11.8664 5.8201 0.0000 40.2768 0.0000
# 6 0.0000 0.0000 0.0000 -1.8141 0.0000 31.3748
#
#
#
# Elastic Compliance Matrix: (Units=1/GPa)
#
#
# Indices 1 2 3 4 5 6 
#
# 1 0.014917 -0.000988 0.001213 0.000000 0.005634 0.000000
# 2 -0.000988 0.006455 -0.002404 0.000000 -0.001920 0.000000
# 3 0.001213 -0.002404 0.017768 0.000000 -0.001411 0.000000
# 4 0.000000 0.000000 0.000000 0.015649 0.000000 0.000905
# 5 0.005634 -0.001920 -0.001411 0.000000 0.027682 0.000000
# 6 0.000000 0.000000 0.000000 0.000905 0.000000 0.031925
#
#
# Mechanical properties :
#
#
# Convention : Reuss Voigt Hill
#
# Bulk Modulus (GPa) = 28.74963 38.50959 33.62961
# Shear Modulus (GPa) = 38.35913 45.73564 42.04739
#
# Velocity S-wave (km/s) = 3.80118 4.15060 3.97973
# Velocity P-wave (km/s) = 5.48585 6.12173 5.81249
#
# Compressibility (1/GPa) = 0.03478306
#
# Stress axis : x y z
#
# Youngs Moduli (GPa) = 67.03742 154.91858 56.28089
#
# Poissons Ratio (x) = 0.15302 -0.06827
# Poissons Ratio (y) = 0.06622 0.13529
# Poissons Ratio (z) = -0.08132 0.37239
#
# Static dielectric constant tensor:
#      x y z
#    x 2.322630 0.000000 -0.131040 
#    y 0.000000 2.481770 0.000000 
#    z -0.131040 0.000000 2.057940 
# 
# From -- ./inp_files/204226.got.cif
#   From: 2010.05.17/outbox.cif.g08.bks.cpg/sg15_103_cif.got.tgz:204226.got - 2010.06.03 18:47:42.
