data_PCOD9298528
_publ_section_title
;
Structure prediction by ZEFSAII (Michael W. Deem and Ramdas Pophale) SiO2 
 PCOD9298528
Probable space group: C 2/C
;
_chemical_formula_sum "Si O2"
_cell_formula_units_Z 40
_cell_length_a 8.306016
_cell_length_b 6.928423
_cell_length_c 27.712397
_cell_angle_alpha 90.000000
_cell_angle_beta 69.438082
_cell_angle_gamma 90.000000
_cell_volume 1493.183256
_symmetry_space_group_name_H-M "C 2/C"
_symmetry_group_IT_number 15
_symmetry_cell_setting 'monoclinic'
loop_
_space_group_symop_operation_xyz
x,y,z
-x,y,1/2-z
-x,-y,-z
x,-y,1/2+z
1/2+x,1/2+y,z
1/2-x,1/2+y,1/2-z
1/2-x,1/2-y,-z
1/2+x,1/2-y,1/2+z
loop_
_atom_site_type_symbol
_atom_site_label
_atom_site_fract_x
_atom_site_fract_y
_atom_site_fract_z
Si Si1 0.500000 0.198382 0.750000
Si Si2 0.750000 0.750000 0.500000
Si Si3 0.001173 0.765504 0.333231
Si Si4 0.270341 0.846948 0.784053
Si Si5 0.586020 0.559603 0.080782
Si Si6 0.967291 0.493649 0.082125
O O1 0.580060 0.326212 0.783544
O O2 0.377138 0.777781 0.725130
O O3 0.613678 0.581866 0.533135
O O4 0.882916 0.584840 0.466011
O O5 0.818300 0.784021 0.324453
O O6 0.024574 0.941194 0.367758
O O7 0.004551 0.580018 0.367510
O O8 0.144459 0.553218 0.714845
O O9 0.498037 0.762341 0.077532
O O10 0.779884 0.562083 0.082950
#
# Coordination Sequence:
#
# PCOD9298528 Si02
#       6
#     4   4   8   8   8   8
#     4  10  24  44  72  98 142 190 260 300 370 438
#     4  10  24  46  72 106 146 186 242 308 382 462
#     4   9  24  46  68 104 148 191 251 309 367 448
#     4  10  24  48  68 106 142 202 245 308 371 442
#     4  11  25  43  74 103 146 187 247 304 379 451
#     4  11  25  44  70 108 140 194 240 309 377 453
#
# _framework density 26.788406999999999
#
# number of rings (size 3 to 8) (size 9 to 14) (size 15 to 20)
#    0.000    2.000    0.000    1.200    5.600   16.800 
#    0.000    0.000    0.000    0.000    0.000    0.000 
#    0.000    0.000    0.000    0.000    0.000    0.000 
#
# Total GULP energy -111413.393852 kJ/mol
# GULP energy per Si atom -5570.669693 kJ/mol
# Density = 2.672744 g / cm^3
# Si number density = 26.788407 Si / 1000 Ang^3
#
#
#
# Elastic Constant Matrix: (Units=GPa)
#
#
# Indices 1 2 3 4 5 6 
#
# 1 98.1949 19.6271 13.2719 0.0000 1.2000 0.0000
# 2 19.6271 101.0989 4.9226 0.0000 -26.7875 0.0000
# 3 13.2719 4.9226 70.0610 0.0000 -28.0169 0.0000
# 4 0.0000 0.0000 0.0000 23.6910 0.0000 -2.7406
# 5 1.2000 -26.7875 -28.0169 0.0000 36.0170 0.0000
# 6 0.0000 0.0000 0.0000 -2.7406 0.0000 10.4976
#
#
#
# Elastic Compliance Matrix: (Units=1/GPa)
#
#
# Indices 1 2 3 4 5 6 
#
# 1 0.011681 -0.003877 -0.004716 0.000000 -0.006942 0.000000
# 2 -0.003877 0.014457 0.005908 0.000000 0.015478 0.000000
# 3 -0.004716 0.005908 0.024054 0.000000 0.023263 0.000000
# 4 0.000000 0.000000 0.000000 0.043525 0.000000 0.011363
# 5 -0.006942 0.015478 0.023263 0.000000 0.057603 0.000000
# 6 0.000000 0.000000 0.000000 0.011363 0.000000 0.098226
#
#
# Mechanical properties :
#
#
# Convention : Reuss Voigt Hill
#
# Bulk Modulus (GPa) = 22.31076 38.33309 30.32193
# Shear Modulus (GPa) = 18.52828 29.47667 24.00247
#
# Velocity S-wave (km/s) = 2.63278 3.32075 2.99658
# Velocity P-wave (km/s) = 4.19388 5.38923 4.82869
#
# Compressibility (1/GPa) = 0.04482142
#
# Stress axis : x y z
#
# Youngs Moduli (GPa) = 85.60822 69.16882 41.57293
#
# Poissons Ratio (x) = 0.26820 0.19607
# Poissons Ratio (y) = 0.33194 -0.24562
# Poissons Ratio (z) = 0.40375 -0.40866
#
# Static dielectric constant tensor:
#      x y z
#    x 2.320370 0.000000 -0.021550 
#    y 0.000000 2.159610 0.000000 
#    z -0.021550 0.000000 2.105500 
# 
# From -- ./inp_files/309406.got.cif
#   From: 2010.05.17/outbox.cif.g08.bks.cpg/sg15_155_cif.got.tgz:309406.got - 2010.06.03 18:47:42.
