data_PCOD9298710
_publ_section_title
;
Structure prediction by ZEFSAII (Michael W. Deem and Ramdas Pophale) SiO2 
 PCOD9298710
Probable space group: C 2/C
;
_chemical_formula_sum "Si O2"
_cell_formula_units_Z 40
_cell_length_a 8.366783
_cell_length_b 23.616839
_cell_length_c 8.986768
_cell_angle_alpha 90.000000
_cell_angle_beta 88.738023
_cell_angle_gamma 90.000000
_cell_volume 1775.327382
_symmetry_space_group_name_H-M "C 2/C"
_symmetry_group_IT_number 15
_symmetry_cell_setting 'monoclinic'
loop_
_space_group_symop_operation_xyz
x,y,z
-x,y,1/2-z
-x,-y,-z
x,-y,1/2+z
1/2+x,1/2+y,z
1/2-x,1/2+y,1/2-z
1/2-x,1/2-y,-z
1/2+x,1/2-y,1/2+z
loop_
_atom_site_type_symbol
_atom_site_label
_atom_site_fract_x
_atom_site_fract_y
_atom_site_fract_z
Si Si1 0.808472 0.692031 0.929149
Si Si2 0.311791 0.192227 0.576129
Si Si3 0.818001 0.931682 0.448570
Si Si4 0.813936 0.505194 0.280788
Si Si5 0.615342 0.400954 0.614236
O O1 0.779174 0.694241 0.753326
O O2 0.998139 0.686097 0.949840
O O3 0.750000 0.750000 0.000000
O O4 0.709290 0.644298 0.016127
O O5 0.250000 0.250000 0.500000
O O6 0.232724 0.133486 0.525005
O O7 0.714049 0.974877 0.550395
O O8 0.996228 0.934772 0.508082
O O9 0.783450 0.951392 0.281181
O O10 0.740602 0.558006 0.191534
O O11 0.000000 0.495214 0.250000
O O12 0.500000 0.377873 0.750000
#
# Coordination Sequence:
#
# PCOD9298710 Si02
#       5
#     8   8   8   8   8
#     4  11  26  45  77 101 142 188 238 293 354 427
#     4  11  27  48  72 108 141 184 241 293 362 418
#     4  11  25  44  70 102 145 184 237 293 349 429
#     4  11  24  42  71 100 140 188 238 291 354 413
#     4  10  24  45  70 106 144 185 236 292 355 424
#
# _framework density 22.531054999999999
#
# number of rings (size 3 to 8) (size 9 to 14) (size 15 to 20)
#    0.000    1.200    0.000    3.600   14.000    3.200 
#    0.000    0.000    0.000    0.000    0.000    0.000 
#    0.000    0.000    0.000    0.000    0.000    0.000 
#
# Total GULP energy -111960.184310 kJ/mol
# GULP energy per Si atom -5598.009216 kJ/mol
# Density = 2.247977 g / cm^3
# Si number density = 22.531055 Si / 1000 Ang^3
#
#
#
# Elastic Constant Matrix: (Units=GPa)
#
#
# Indices 1 2 3 4 5 6 
#
# 1 83.5994 15.4608 77.0245 0.0000 -4.9598 0.0000
# 2 15.4608 108.4133 65.6586 0.0000 -13.7908 0.0000
# 3 77.0245 65.6586 120.9873 0.0000 -13.2206 0.0000
# 4 0.0000 0.0000 0.0000 46.6417 0.0000 3.3346
# 5 -4.9598 -13.7908 -13.2206 0.0000 40.1633 0.0000
# 6 0.0000 0.0000 0.0000 3.3346 0.0000 38.1564
#
#
#
# Elastic Compliance Matrix: (Units=1/GPa)
#
#
# Indices 1 2 3 4 5 6 
#
# 1 0.039998 0.014374 -0.033387 0.000000 -0.001115 0.000000
# 2 0.014374 0.019122 -0.019312 0.000000 0.001984 0.000000
# 3 -0.033387 -0.019312 0.040274 0.000000 0.002503 0.000000
# 4 0.000000 0.000000 0.000000 0.021575 0.000000 -0.001885
# 5 -0.001115 0.001984 0.002503 0.000000 0.026266 0.000000
# 6 0.000000 0.000000 0.000000 -0.001885 0.000000 0.026373
#
#
# Mechanical properties :
#
#
# Convention : Reuss Voigt Hill
#
# Bulk Modulus (GPa) = 43.96350 69.92086 56.94218
# Shear Modulus (GPa) = 19.39196 35.31602 27.35399
#
# Velocity S-wave (km/s) = 2.93691 3.96338 3.48811
# Velocity P-wave (km/s) = 5.57273 7.21422 6.44594
#
# Compressibility (1/GPa) = 0.02274614
#
# Stress axis : x y z
#
# Youngs Moduli (GPa) = 25.00107 52.29514 24.82979
#
# Poissons Ratio (x) = -0.75170 0.82899
# Poissons Ratio (y) = -0.35937 0.47950
# Poissons Ratio (z) = 0.83470 1.00991
#
# Static dielectric constant tensor:
#      x y z
#    x 1.957540 0.000000 0.038240 
#    y 0.000000 1.816170 0.000000 
#    z 0.038240 0.000000 1.901400 
# 
# From -- ./inp_files/23665.got.cif
#   From: 2010.05.17/outbox.cif.g08.bks.cpg/sg15_12_cif.got.tgz:23665.got - 2010.06.03 18:47:42.
