data_PCOD9298085
_publ_section_title
;
Structure prediction by ZEFSAII (Michael W. Deem and Ramdas Pophale) SiO2 
 PCOD9298085
Probable space group: C 2/C
;
_chemical_formula_sum "Si O2"
_cell_formula_units_Z 56
_cell_length_a 11.961544
_cell_length_b 19.574463
_cell_length_c 11.325959
_cell_angle_alpha 90.000000
_cell_angle_beta 89.008361
_cell_angle_gamma 90.000000
_cell_volume 2651.471939
_symmetry_space_group_name_H-M "C 2/C"
_symmetry_group_IT_number 15
_symmetry_cell_setting 'monoclinic'
loop_
_space_group_symop_operation_xyz
x,y,z
-x,y,1/2-z
-x,-y,-z
x,-y,1/2+z
1/2+x,1/2+y,z
1/2-x,1/2+y,1/2-z
1/2-x,1/2-y,-z
1/2+x,1/2-y,1/2+z
loop_
_atom_site_type_symbol
_atom_site_label
_atom_site_fract_x
_atom_site_fract_y
_atom_site_fract_z
Si Si1 0.500000 0.803354 0.750000
Si Si2 0.000000 0.956999 0.750000
Si Si3 0.200681 0.391801 0.807545
Si Si4 0.718182 0.466903 0.153007
Si Si5 0.080406 0.252554 0.506659
Si Si6 0.338969 0.271541 0.900672
Si Si7 0.163567 0.888219 0.921288
Si Si8 0.375713 0.845466 0.207790
O O1 0.586692 0.850454 0.819765
O O2 0.567794 0.762644 0.647629
O O3 0.105689 0.004549 0.715735
O O4 0.051249 0.909688 0.852439
O O5 0.202583 0.466923 0.860457
O O6 0.299994 0.345629 0.858508
O O7 0.233450 0.397058 0.669773
O O8 0.786544 0.406551 0.216037
O O9 0.680072 0.438283 0.029051
O O10 0.156487 0.188808 0.468633
O O11 0.113532 0.318002 0.426861
O O12 0.958720 0.231866 0.459001
O O13 0.340533 0.218733 0.790842
O O14 0.250000 0.250000 0.000000
O O15 0.500000 0.866069 0.250000
#
# Coordination Sequence:
#
# PCOD9298085 Si02
#       8
#     4   4   8   8   8   8   8   8
#     4  12  26  41  64 103 132 182 228 284 334 399
#     4  10  24  45  66 101 136 174 222 286 356 403
#     4  11  25  45  65  95 141 174 223 281 347 398
#     4  11  25  42  68  99 134 181 226 277 337 415
#     4  11  23  42  69  97 134 174 231 281 339 405
#     4  11  22  42  68  98 131 175 223 279 337 397
#     4  11  23  43  72  95 133 180 221 282 349 406
#     4  10  24  43  68 100 135 184 229 277 339 405
#
# _framework density 21.120345
#
# number of rings (size 3 to 8) (size 9 to 14) (size 15 to 20)
#    0.000    1.143    2.857    3.000    4.000    5.143 
#    0.000    1.429    0.000    0.000    0.000    0.000 
#    0.000    0.000    0.000    0.000    0.000    0.000 
#
# Total GULP energy -156547.577736 kJ/mol
# GULP energy per Si atom -5590.984919 kJ/mol
# Density = 2.107227 g / cm^3
# Si number density = 21.120345 Si / 1000 Ang^3
#
#
#
# Elastic Constant Matrix: (Units=GPa)
#
#
# Indices 1 2 3 4 5 6 
#
# 1 72.6673 5.9854 3.1495 0.0000 11.1333 0.0000
# 2 5.9854 95.0095 24.0333 0.0000 12.8977 0.0000
# 3 3.1495 24.0333 81.6396 0.0000 7.9165 0.0000
# 4 0.0000 0.0000 0.0000 29.1215 0.0000 -4.0660
# 5 11.1333 12.8977 7.9165 0.0000 32.9338 0.0000
# 6 0.0000 0.0000 0.0000 -4.0660 0.0000 28.0733
#
#
#
# Elastic Compliance Matrix: (Units=1/GPa)
#
#
# Indices 1 2 3 4 5 6 
#
# 1 0.014519 -0.000258 -0.000018 0.000000 -0.004803 0.000000
# 2 -0.000258 0.011844 -0.003108 0.000000 -0.003804 0.000000
# 3 -0.000018 -0.003108 0.013357 0.000000 -0.001987 0.000000
# 4 0.000000 0.000000 0.000000 0.035048 0.000000 0.005076
# 5 -0.004803 -0.003804 -0.001987 0.000000 0.033955 0.000000
# 6 0.000000 0.000000 0.000000 0.005076 0.000000 0.036356
#
#
# Mechanical properties :
#
#
# Convention : Reuss Voigt Hill
#
# Bulk Modulus (GPa) = 30.34722 35.07253 32.70987
# Shear Modulus (GPa) = 30.70646 32.43560 31.57103
#
# Velocity S-wave (km/s) = 3.81712 3.92312 3.87048
# Velocity P-wave (km/s) = 5.81610 6.09616 5.95778
#
# Compressibility (1/GPa) = 0.03295195
#
# Stress axis : x y z
#
# Youngs Moduli (GPa) = 68.87420 84.43027 74.86545
#
# Poissons Ratio (x) = 0.02179 0.00138
# Poissons Ratio (y) = 0.01777 0.23267
# Poissons Ratio (z) = 0.00127 0.26240
#
# Static dielectric constant tensor:
#      x y z
#    x 1.801130 0.000000 -0.006190 
#    y 0.000000 1.764320 0.000000 
#    z -0.006190 0.000000 1.782770 
# 
# From -- ./inp_files/89010.got.cif
#   From: 2010.05.17/outbox.cif.g08.bks.cpg/sg15_45_cif.got.tgz:89010.got - 2010.06.03 18:47:42.
