data_PCOD9298053
_publ_section_title
;
Structure prediction by ZEFSAII (Michael W. Deem and Ramdas Pophale) SiO2 
 PCOD9298053
Probable space group: C 2/C
;
_chemical_formula_sum "Si O2"
_cell_formula_units_Z 48
_cell_length_a 20.790206
_cell_length_b 12.108402
_cell_length_c 12.048104
_cell_angle_alpha 90.000000
_cell_angle_beta 47.484516
_cell_angle_gamma 90.000000
_cell_volume 2235.566741
_symmetry_space_group_name_H-M "C 2/C"
_symmetry_group_IT_number 15
_symmetry_cell_setting 'monoclinic'
loop_
_space_group_symop_operation_xyz
x,y,z
-x,y,1/2-z
-x,-y,-z
x,-y,1/2+z
1/2+x,1/2+y,z
1/2-x,1/2+y,1/2-z
1/2-x,1/2-y,-z
1/2+x,1/2-y,1/2+z
loop_
_atom_site_type_symbol
_atom_site_label
_atom_site_fract_x
_atom_site_fract_y
_atom_site_fract_z
Si Si1 0.386180 0.263650 0.663827
Si Si2 0.076871 0.344488 0.952191
Si Si3 0.172108 0.027933 0.390532
Si Si4 0.330450 0.938548 0.092767
Si Si5 0.396621 0.320057 0.895291
Si Si6 0.308469 0.151417 0.386337
O O1 0.478627 0.200340 0.566944
O O2 0.387913 0.373158 0.585358
O O3 0.328419 0.172150 0.669326
O O4 0.355514 0.299785 0.822141
O O5 0.098656 0.473513 0.944955
O O6 0.119863 0.310990 0.785661
O O7 0.122380 0.282776 0.002154
O O8 0.242712 0.074446 0.395030
O O9 0.233288 0.987605 0.217977
O O10 0.125902 0.928603 0.508083
O O11 0.350040 0.908831 0.943312
O O12 0.500000 0.324952 0.750000
O O13 0.250000 0.250000 0.500000
#
# Coordination Sequence:
#
# PCOD9298053 Si02
#       6
#     8   8   8   8   8   8
#     4  11  24  46  66 100 135 176 228 276 340 403
#     4  10  25  42  68  99 133 180 221 279 334 401
#     4  11  24  41  69 100 127 179 222 279 339 397
#     4  11  24  42  68  98 136 176 225 278 338 399
#     4  10  24  43  66  96 136 174 222 275 333 403
#     4  11  22  42  63 100 134 171 224 273 335 399
#
# _framework density 21.471064999999999
#
# number of rings (size 3 to 8) (size 9 to 14) (size 15 to 20)
#    0.000    1.333    1.667    2.500    7.000    5.333 
#    3.000    0.000    0.000    0.000    0.000    0.000 
#    0.000    0.000    0.000    0.000    0.000    0.000 
#
# Total GULP energy -134086.269249 kJ/mol
# GULP energy per Si atom -5586.927885 kJ/mol
# Density = 2.142220 g / cm^3
# Si number density = 21.471065 Si / 1000 Ang^3
#
#
#
# Elastic Constant Matrix: (Units=GPa)
#
#
# Indices 1 2 3 4 5 6 
#
# 1 64.7394 22.8957 29.0648 0.0000 23.4348 0.0000
# 2 22.8957 115.3528 43.4546 0.0000 18.4767 0.0000
# 3 29.0648 43.4546 106.2402 0.0000 14.3285 0.0000
# 4 0.0000 0.0000 0.0000 36.8406 0.0000 9.1111
# 5 23.4348 18.4767 14.3285 0.0000 29.7941 0.0000
# 6 0.0000 0.0000 0.0000 9.1111 0.0000 24.1642
#
#
#
# Elastic Compliance Matrix: (Units=1/GPa)
#
#
# Indices 1 2 3 4 5 6 
#
# 1 0.023219 -0.000549 -0.003968 0.000000 -0.016015 0.000000
# 2 -0.000549 0.010898 -0.003694 0.000000 -0.004551 0.000000
# 3 -0.003968 -0.003694 0.012061 0.000000 -0.000389 0.000000
# 4 0.000000 0.000000 0.000000 0.029935 0.000000 -0.011287
# 5 -0.016015 -0.004551 -0.000389 0.000000 0.049169 0.000000
# 6 0.000000 0.000000 0.000000 -0.011287 0.000000 0.045639
#
#
# Mechanical properties :
#
#
# Convention : Reuss Voigt Hill
#
# Bulk Modulus (GPa) = 33.60438 53.01808 43.31123
# Shear Modulus (GPa) = 25.34685 30.88758 28.11722
#
# Velocity S-wave (km/s) = 3.43959 3.79696 3.62268
# Velocity P-wave (km/s) = 5.60886 6.63091 6.14118
#
# Compressibility (1/GPa) = 0.02975803
#
# Stress axis : x y z
#
# Youngs Moduli (GPa) = 43.06807 91.75690 82.90867
#
# Poissons Ratio (x) = 0.05035 0.32897
# Poissons Ratio (y) = 0.02363 0.30625
# Poissons Ratio (z) = 0.17089 0.33893
#
# Static dielectric constant tensor:
#      x y z
#    x 1.858970 0.000000 0.028180 
#    y 0.000000 1.801610 0.000000 
#    z 0.028180 0.000000 1.801960 
# 
# From -- ./inp_files/111426.got.cif
#   From: 2010.05.17/outbox.cif.g08.bks.cpg/sg15_56_cif.got.tgz:111426.got - 2010.06.03 18:47:42.
