data_PCOD9298014
_publ_section_title
;
Structure prediction by ZEFSAII (Michael W. Deem and Ramdas Pophale) SiO2 
 PCOD9298014
Probable space group: C 2/C
;
_chemical_formula_sum "Si O2"
_cell_formula_units_Z 40
_cell_length_a 23.112878
_cell_length_b 7.506592
_cell_length_c 10.349292
_cell_angle_alpha 90.000000
_cell_angle_beta 89.752187
_cell_angle_gamma 90.000000
_cell_volume 1795.574449
_symmetry_space_group_name_H-M "C 2/C"
_symmetry_group_IT_number 15
_symmetry_cell_setting 'monoclinic'
loop_
_space_group_symop_operation_xyz
x,y,z
-x,y,1/2-z
-x,-y,-z
x,-y,1/2+z
1/2+x,1/2+y,z
1/2-x,1/2+y,1/2-z
1/2-x,1/2-y,-z
1/2+x,1/2-y,1/2+z
loop_
_atom_site_type_symbol
_atom_site_label
_atom_site_fract_x
_atom_site_fract_y
_atom_site_fract_z
Si Si1 0.210345 0.360764 0.399731
Si Si2 0.816810 0.948184 0.791948
Si Si3 0.520642 0.831909 0.874969
Si Si4 0.084469 0.354861 0.439931
Si Si5 0.612185 0.553073 0.942490
O O1 0.250000 0.250000 0.500000
O O2 0.188275 0.238138 0.282154
O O3 0.252335 0.504282 0.337900
O O4 0.150255 0.414665 0.467512
O O5 0.844403 0.077204 0.680887
O O6 0.854594 0.952972 0.921451
O O7 0.500000 0.726459 0.750000
O O8 0.563894 0.704073 0.950368
O O9 0.557021 0.008857 0.837123
O O10 0.461483 0.880540 0.946091
O O11 0.085319 0.143127 0.416787
#
# Coordination Sequence:
#
# PCOD9298014 Si02
#       5
#     8   8   8   8   8
#     4  11  24  44  70  99 146 174 233 294 340 421
#     4  11  24  43  69 103 136 188 223 286 359 401
#     4  11  25  42  71  98 133 183 234 277 352 419
#     4  10  24  43  64  99 137 173 224 290 342 394
#     4  11  24  45  69 103 137 179 236 279 349 418
#
# _framework density 22.276992
#
# number of rings (size 3 to 8) (size 9 to 14) (size 15 to 20)
#    0.000    1.200    4.000    1.800    2.800    9.600 
#    0.000    0.000    0.000    0.000    0.000    0.000 
#    0.000    0.000    0.000    0.000    0.000    0.000 
#
# Total GULP energy -111536.189735 kJ/mol
# GULP energy per Si atom -5576.809487 kJ/mol
# Density = 2.222629 g / cm^3
# Si number density = 22.276992 Si / 1000 Ang^3
#
#
#
# Elastic Constant Matrix: (Units=GPa)
#
#
# Indices 1 2 3 4 5 6 
#
# 1 173.2966 37.4421 58.5361 0.0000 -14.2336 0.0000
# 2 37.4421 73.0159 18.9894 0.0000 9.9870 0.0000
# 3 58.5361 18.9894 107.3638 0.0000 6.0170 0.0000
# 4 0.0000 0.0000 0.0000 15.0598 0.0000 -0.5701
# 5 -14.2336 9.9870 6.0170 0.0000 23.5334 0.0000
# 6 0.0000 0.0000 0.0000 -0.5701 0.0000 39.7668
#
#
#
# Elastic Compliance Matrix: (Units=1/GPa)
#
#
# Indices 1 2 3 4 5 6 
#
# 1 0.009019 -0.004607 -0.004583 0.000000 0.008582 0.000000
# 2 -0.004607 0.017453 -0.000004 0.000000 -0.010192 0.000000
# 3 -0.004583 -0.000004 0.012143 0.000000 -0.005875 0.000000
# 4 0.000000 0.000000 0.000000 0.066438 0.000000 0.000952
# 5 0.008582 -0.010192 -0.005875 0.000000 0.053510 0.000000
# 6 0.000000 0.000000 0.000000 0.000952 0.000000 0.025160
#
#
# Mechanical properties :
#
#
# Convention : Reuss Voigt Hill
#
# Bulk Modulus (GPa) = 49.43976 64.84573 57.14275
# Shear Modulus (GPa) = 23.94021 31.58591 27.76306
#
# Velocity S-wave (km/s) = 3.28176 3.76955 3.53408
# Velocity P-wave (km/s) = 6.04990 6.93672 6.50843
#
# Compressibility (1/GPa) = 0.02022664
#
# Stress axis : x y z
#
# Youngs Moduli (GPa) = 110.88058 57.29699 82.35198
#
# Poissons Ratio (x) = 0.26394 0.37744
# Poissons Ratio (y) = 0.51077 0.00034
# Poissons Ratio (z) = 0.50820 0.00024
#
# Static dielectric constant tensor:
#      x y z
#    x 1.845230 0.000000 -0.036210 
#    y 0.000000 1.857670 0.000000 
#    z -0.036210 0.000000 1.890300 
# 
# From -- ./inp_files/60012.got.cif
#   From: 2010.05.17/outbox.cif.g08.bks.cpg/sg15_31_cif.got.tgz:60012.got - 2010.06.03 18:47:42.
