data_PCOD9298763
_publ_section_title
;
Structure prediction by ZEFSAII (Michael W. Deem and Ramdas Pophale) SiO2 
 PCOD9298763
Probable space group: C 2/C
;
_chemical_formula_sum "Si O2"
_cell_formula_units_Z 40
_cell_length_a 22.213687
_cell_length_b 7.661001
_cell_length_c 11.077010
_cell_angle_alpha 90.000000
_cell_angle_beta 64.118016
_cell_angle_gamma 90.000000
_cell_volume 1695.993023
_symmetry_space_group_name_H-M "C 2/C"
_symmetry_group_IT_number 15
_symmetry_cell_setting 'monoclinic'
loop_
_space_group_symop_operation_xyz
x,y,z
-x,y,1/2-z
-x,-y,-z
x,-y,1/2+z
1/2+x,1/2+y,z
1/2-x,1/2+y,1/2-z
1/2-x,1/2-y,-z
1/2+x,1/2-y,1/2+z
loop_
_atom_site_type_symbol
_atom_site_label
_atom_site_fract_x
_atom_site_fract_y
_atom_site_fract_z
Si Si1 0.814193 0.934172 0.626505
Si Si2 0.313864 0.892381 0.301678
Si Si3 0.563533 0.886204 0.118251
Si Si4 0.872943 0.718673 0.160143
Si Si5 0.433161 0.718681 0.864567
O O1 0.801559 0.786809 0.739502
O O2 0.880811 0.880527 0.494782
O O3 0.751009 0.994342 0.598786
O O4 0.827319 0.116003 0.680652
O O5 0.368654 0.865399 0.360009
O O6 0.341654 0.026879 0.176167
O O7 0.500000 0.827839 0.250000
O O8 0.549688 0.089825 0.097183
O O9 0.570613 0.776613 0.990720
O O10 0.895310 0.729495 0.276382
O O11 0.500000 0.630380 0.750000
#
# Coordination Sequence:
#
# PCOD9298763 Si02
#       5
#     8   8   8   8   8
#     4  12  25  45  72 104 144 188 239 293 352 418
#     4  11  25  45  71 104 141 190 239 291 352 418
#     4  10  24  45  73 102 146 192 233 291 358 421
#     4  11  25  44  68 106 140 186 236 293 355 419
#     4  10  25  44  71 106 144 188 237 294 349 426
#
# _framework density 23.585003
#
# number of rings (size 3 to 8) (size 9 to 14) (size 15 to 20)
#    0.000    1.200    4.000    0.000    5.600    9.600 
#    0.000    0.000    0.000    0.000    0.000    0.000 
#    0.000    0.000    0.000    0.000    0.000    0.000 
#
# Total GULP energy -111573.747152 kJ/mol
# GULP energy per Si atom -5578.687358 kJ/mol
# Density = 2.353132 g / cm^3
# Si number density = 23.585003 Si / 1000 Ang^3
#
#
#
# Elastic Constant Matrix: (Units=GPa)
#
#
# Indices 1 2 3 4 5 6 
#
# 1 57.0651 10.4377 -11.7059 0.0000 -1.6698 0.0000
# 2 10.4377 69.7965 15.9942 0.0000 13.0184 0.0000
# 3 -11.7059 15.9942 58.2757 0.0000 -8.2373 0.0000
# 4 0.0000 0.0000 0.0000 18.3319 0.0000 -5.5694
# 5 -1.6698 13.0184 -8.2373 0.0000 30.8372 0.0000
# 6 0.0000 0.0000 0.0000 -5.5694 0.0000 21.3579
#
#
#
# Elastic Compliance Matrix: (Units=1/GPa)
#
#
# Indices 1 2 3 4 5 6 
#
# 1 0.019905 -0.005314 0.006159 0.000000 0.004966 0.000000
# 2 -0.005314 0.018798 -0.007679 0.000000 -0.010275 0.000000
# 3 0.006159 -0.007679 0.021834 0.000000 0.009408 0.000000
# 4 0.000000 0.000000 0.000000 0.059243 0.000000 0.015449
# 5 0.004966 -0.010275 0.009408 0.000000 0.039548 0.000000
# 6 0.000000 0.000000 0.000000 0.015449 0.000000 0.050850
#
#
# Mechanical properties :
#
#
# Convention : Reuss Voigt Hill
#
# Bulk Modulus (GPa) = 21.33659 23.84326 22.58993
# Shear Modulus (GPa) = 20.87945 25.46614 23.17279
#
# Velocity S-wave (km/s) = 2.97860 3.28953 3.13792
# Velocity P-wave (km/s) = 4.57119 4.95575 4.76735
#
# Compressibility (1/GPa) = 0.04686784
#
# Stress axis : x y z
#
# Youngs Moduli (GPa) = 50.23976 53.19635 45.79943
#
# Poissons Ratio (x) = 0.28270 -0.28207
# Poissons Ratio (y) = 0.26699 0.35170
# Poissons Ratio (z) = -0.30942 0.40850
#
# Static dielectric constant tensor:
#      x y z
#    x 2.051450 0.000000 -0.093450 
#    y 0.000000 1.899310 0.000000 
#    z -0.093450 0.000000 1.903170 
# 
# From -- ./inp_files/121333.got.cif
#   From: 2010.05.17/outbox.cif.g08.bks.cpg/sg15_61_cif.got.tgz:121333.got - 2010.06.03 18:47:42.
