data_PCOD9298584
_publ_section_title
;
Structure prediction by ZEFSAII (Michael W. Deem and Ramdas Pophale) SiO2 
 PCOD9298584
Probable space group: C 2/C
;
_chemical_formula_sum "Si O2"
_cell_formula_units_Z 36
_cell_length_a 8.454922
_cell_length_b 11.994313
_cell_length_c 20.916961
_cell_angle_alpha 90.000000
_cell_angle_beta 138.174629
_cell_angle_gamma 90.000000
_cell_volume 1414.555107
_symmetry_space_group_name_H-M "C 2/C"
_symmetry_group_IT_number 15
_symmetry_cell_setting 'monoclinic'
loop_
_space_group_symop_operation_xyz
x,y,z
-x,y,1/2-z
-x,-y,-z
x,-y,1/2+z
1/2+x,1/2+y,z
1/2-x,1/2+y,1/2-z
1/2-x,1/2-y,-z
1/2+x,1/2-y,1/2+z
loop_
_atom_site_type_symbol
_atom_site_label
_atom_site_fract_x
_atom_site_fract_y
_atom_site_fract_z
Si Si1 0.995687 0.213016 0.949589
Si Si2 0.904693 0.311375 0.387190
Si Si3 0.314663 0.147915 0.283002
Si Si4 0.000000 0.033334 0.750000
Si Si5 0.344148 0.035346 0.640251
O O1 0.821917 0.277717 0.848680
O O2 0.918263 0.083201 0.925241
O O3 0.250000 0.250000 0.000000
O O4 0.973391 0.261137 0.014188
O O5 0.791208 0.219638 0.306085
O O6 0.683467 0.388203 0.342297
O O7 0.065510 0.391902 0.392406
O O8 0.574387 0.091898 0.348958
O O9 0.144929 0.043706 0.245584
O O10 0.500000 0.062293 0.750000
#
# Coordination Sequence:
#
# PCOD9298584 Si02
#       5
#     8   8   8   4   8
#     4  12  27  45  73 113 146 186 247 302 357 433
#     4  11  24  47  75 105 149 189 240 304 359 426
#     4  11  25  46  75 102 151 192 236 302 366 422
#     4  10  24  44  76 108 140 190 244 288 370 436
#     4  11  25  46  75 104 143 197 244 286 370 436
#
# _framework density 25.449698000000001
#
# number of rings (size 3 to 8) (size 9 to 14) (size 15 to 20)
#    0.000    0.889    2.222    3.333    7.778    6.222 
#    0.000    0.000    0.000    0.000    0.000    0.000 
#    0.000    0.000    0.000    0.000    0.000    0.000 
#
# Total GULP energy -100845.239062 kJ/mol
# GULP energy per Si atom -5602.513281 kJ/mol
# Density = 2.539177 g / cm^3
# Si number density = 25.449698 Si / 1000 Ang^3
#
#
#
# Elastic Constant Matrix: (Units=GPa)
#
#
# Indices 1 2 3 4 5 6 
#
# 1 77.8444 24.3233 32.7311 0.0000 -11.6896 0.0000
# 2 24.3233 124.6733 49.8804 0.0000 -15.7984 0.0000
# 3 32.7311 49.8804 116.9088 0.0000 -50.2891 0.0000
# 4 0.0000 0.0000 0.0000 26.4816 0.0000 -9.2492
# 5 -11.6896 -15.7984 -50.2891 0.0000 52.2701 0.0000
# 6 0.0000 0.0000 0.0000 -9.2492 0.0000 36.0629
#
#
#
# Elastic Compliance Matrix: (Units=1/GPa)
#
#
# Indices 1 2 3 4 5 6 
#
# 1 0.014808 -0.001435 -0.003916 0.000000 -0.000890 0.000000
# 2 -0.001435 0.009910 -0.004565 0.000000 -0.001718 0.000000
# 3 -0.003916 -0.004565 0.018132 0.000000 0.015189 0.000000
# 4 0.000000 0.000000 0.000000 0.041478 0.000000 0.010638
# 5 -0.000890 -0.001718 0.015189 0.000000 0.033026 0.000000
# 6 0.000000 0.000000 0.000000 0.010638 0.000000 0.030458
#
#
# Mechanical properties :
#
#
# Convention : Reuss Voigt Hill
#
# Bulk Modulus (GPa) = 43.44893 59.25512 51.35202
# Shear Modulus (GPa) = 28.52003 37.12902 32.82452
#
# Velocity S-wave (km/s) = 3.35123 3.82372 3.59525
# Velocity P-wave (km/s) = 5.66426 6.54433 6.12014
#
# Compressibility (1/GPa) = 0.02301553
#
# Stress axis : x y z
#
# Youngs Moduli (GPa) = 67.53332 100.91062 55.15251
#
# Poissons Ratio (x) = 0.14478 0.21600
# Poissons Ratio (y) = 0.09689 0.25180
# Poissons Ratio (z) = 0.26449 0.46071
#
# Static dielectric constant tensor:
#      x y z
#    x 2.082190 0.000000 0.063920 
#    y 0.000000 2.013060 0.000000 
#    z 0.063920 0.000000 1.997000 
# 
# From -- ./inp_files/230087.got.cif
#   From: 2010.05.17/outbox.cif.g08.bks.cpg/sg15_116_cif.got.tgz:230087.got - 2010.06.03 18:47:42.
