data_PCOD9298929
_publ_section_title
;
Structure prediction by ZEFSAII (Michael W. Deem and Ramdas Pophale) SiO2 
 PCOD9298929
Probable space group: C 2/C
;
_chemical_formula_sum "Si O2"
_cell_formula_units_Z 44
_cell_length_a 5.354558
_cell_length_b 30.335792
_cell_length_c 11.377223
_cell_angle_alpha 90.000000
_cell_angle_beta 100.382887
_cell_angle_gamma 90.000000
_cell_volume 1817.795173
_symmetry_space_group_name_H-M "C 2/C"
_symmetry_group_IT_number 15
_symmetry_cell_setting 'monoclinic'
loop_
_space_group_symop_operation_xyz
x,y,z
-x,y,1/2-z
-x,-y,-z
x,-y,1/2+z
1/2+x,1/2+y,z
1/2-x,1/2+y,1/2-z
1/2-x,1/2-y,-z
1/2+x,1/2-y,1/2+z
loop_
_atom_site_type_symbol
_atom_site_label
_atom_site_fract_x
_atom_site_fract_y
_atom_site_fract_z
Si Si1 0.000000 0.897937 0.750000
Si Si2 0.500000 0.014639 0.750000
Si Si3 0.263986 0.590986 0.637315
Si Si4 0.598684 0.541538 0.076670
Si Si5 0.610563 0.283446 0.623582
Si Si6 0.175705 0.190085 0.880601
Si Si7 0.000000 0.659962 0.250000
O O1 0.089176 0.930488 0.860312
O O2 0.748376 0.869979 0.754304
O O3 0.588320 0.050235 0.660958
O O4 0.702055 0.981676 0.821551
O O5 0.500000 0.588416 0.750000
O O6 0.319707 0.577731 0.509553
O O7 0.191276 0.642342 0.624994
O O8 0.500000 0.500000 0.000000
O O9 0.500000 0.289656 0.750000
O O10 0.635197 0.231501 0.607031
O O11 0.516278 0.305394 0.491527
O O12 0.893188 0.305522 0.646009
O O13 0.000000 0.195083 0.750000
#
# Coordination Sequence:
#
# PCOD9298929 Si02
#       7
#     4   4   8   8   8   8   4
#     4  12  28  48  77 115 150 199 259 328 378 462
#     4  12  25  46  77 108 146 208 253 322 399 460
#     4  11  24  46  69 108 150 195 255 317 384 470
#     4  12  25  47  73 105 149 194 259 317 392 464
#     4  11  24  47  76 110 155 205 263 322 384 468
#     4  10  24  46  70 111 156 205 257 321 396 462
#     4  12  25  50  76 119 150 197 262 318 389 448
#
# _framework density 24.205148999999999
#
# number of rings (size 3 to 8) (size 9 to 14) (size 15 to 20)
#    0.000    0.727    3.636    3.273    1.273    3.636 
#    0.000    0.000    0.000    0.000    0.000    0.000 
#    0.000    0.000    0.000    0.000    0.000    0.000 
#
# Total GULP energy -122554.094131 kJ/mol
# GULP energy per Si atom -5570.640642 kJ/mol
# Density = 2.415006 g / cm^3
# Si number density = 24.205149 Si / 1000 Ang^3
#
#
#
# Elastic Constant Matrix: (Units=GPa)
#
#
# Indices 1 2 3 4 5 6 
#
# 1 54.7120 37.3776 24.6094 0.0000 -4.7062 0.0000
# 2 37.3776 182.0651 47.6336 0.0000 5.0566 0.0000
# 3 24.6094 47.6336 139.0281 0.0000 -30.4913 0.0000
# 4 0.0000 0.0000 0.0000 -8.3058 0.0000 50.0630
# 5 -4.7062 5.0566 -30.4913 0.0000 23.1985 0.0000
# 6 0.0000 0.0000 0.0000 50.0630 0.0000 -13.3086
#
#
#
# Elastic Compliance Matrix: (Units=1/GPa)
#
#
# Indices 1 2 3 4 5 6 
#
# 1 0.022207 -0.004156 -0.001855 0.000000 0.002973 0.000000
# 2 -0.004156 0.007392 -0.003281 0.000000 -0.006767 0.000000
# 3 -0.001855 -0.003281 0.012251 0.000000 0.016441 0.000000
# 4 0.000000 0.000000 0.000000 0.005555 0.000000 0.020896
# 5 0.002973 -0.006767 0.016441 0.000000 0.066794 0.000000
# 6 0.000000 0.000000 0.000000 0.020896 0.000000 0.003467
#
#
# Mechanical properties :
#
#
# Convention : Reuss Voigt Hill
#
# Bulk Modulus (GPa) = 42.98131 66.11629 54.54880
# Shear Modulus (GPa) = 34.72062 18.06246 26.39154
#
# Velocity S-wave (km/s) = 3.79150 2.73467 3.30559
# Velocity P-wave (km/s) = 6.07971 6.11110 6.09543
#
# Compressibility (1/GPa) = 0.02326593
#
# Stress axis : x y z
#
# Youngs Moduli (GPa) = 45.03070 135.27737 81.62495
#
# Poissons Ratio (x) = 0.56226 0.15139
# Poissons Ratio (y) = 0.18716 0.26782
# Poissons Ratio (z) = 0.08352 0.44386
#
# Static dielectric constant tensor:
#      x y z
#    x 2.055290 0.000000 -0.101690 
#    y 0.000000 2.198540 0.000000 
#    z -0.101690 0.000000 2.018880 
# 
# From -- ./inp_files/74023.got.cif
#   From: 2010.05.17/outbox.cif.g08.bks.cpg/sg15_38_cif.got.tgz:74023.got - 2010.06.03 18:47:42.
