data_PCOD9298432
_publ_section_title
;
Structure prediction by ZEFSAII (Michael W. Deem and Ramdas Pophale) SiO2 
 PCOD9298432
Probable space group: C 2/C
;
_chemical_formula_sum "Si O2"
_cell_formula_units_Z 36
_cell_length_a 8.204047
_cell_length_b 17.867510
_cell_length_c 10.821037
_cell_angle_alpha 90.000000
_cell_angle_beta 79.724933
_cell_angle_gamma 90.000000
_cell_volume 1560.772895
_symmetry_space_group_name_H-M "C 2/C"
_symmetry_group_IT_number 15
_symmetry_cell_setting 'monoclinic'
loop_
_space_group_symop_operation_xyz
x,y,z
-x,y,1/2-z
-x,-y,-z
x,-y,1/2+z
1/2+x,1/2+y,z
1/2-x,1/2+y,1/2-z
1/2-x,1/2-y,-z
1/2+x,1/2-y,1/2+z
loop_
_atom_site_type_symbol
_atom_site_label
_atom_site_fract_x
_atom_site_fract_y
_atom_site_fract_z
Si Si1 0.647359 0.569817 0.473675
Si Si2 0.500000 0.386500 0.250000
Si Si3 0.320055 0.189940 0.821836
Si Si4 0.687781 0.839278 0.737549
Si Si5 0.222208 0.083485 0.046632
O O1 0.575121 0.572508 0.621561
O O2 0.756344 0.636990 0.406954
O O3 0.478158 0.581622 0.418447
O O4 0.749222 0.492077 0.461718
O O5 0.340025 0.342569 0.225376
O O6 0.500000 0.165476 0.750000
O O7 0.300928 0.277343 0.789381
O O8 0.292971 0.155074 0.961629
O O9 0.500000 0.813347 0.750000
O O10 0.701947 0.911003 0.827070
#
# Coordination Sequence:
#
# PCOD9298432 Si02
#       5
#     8   4   8   8   8
#     4  10  24  44  73  98 142 183 233 295 342 426
#     4  10  24  46  70 106 138 184 242 282 358 410
#     4  11  24  45  72  99 144 185 232 293 347 424
#     4  12  26  43  68 105 143 183 238 290 350 420
#     4  10  24  44  70 102 135 185 238 282 359 411
#
# _framework density 23.065494999999999
#
# number of rings (size 3 to 8) (size 9 to 14) (size 15 to 20)
#    0.000    1.333    1.111    2.667   12.444    4.444 
#    0.000    0.000    0.000    0.000    0.000    0.000 
#    0.000    0.000    0.000    0.000    0.000    0.000 
#
# Total GULP energy -100291.406042 kJ/mol
# GULP energy per Si atom -5571.744780 kJ/mol
# Density = 2.301300 g / cm^3
# Si number density = 23.065495 Si / 1000 Ang^3
#
#
#
# Elastic Constant Matrix: (Units=GPa)
#
#
# Indices 1 2 3 4 5 6 
#
# 1 63.9837 -10.5352 24.3385 0.0000 -14.5206 0.0000
# 2 -10.5352 77.7631 38.9508 0.0000 -19.8147 0.0000
# 3 24.3385 38.9508 99.4230 0.0000 -11.1803 0.0000
# 4 0.0000 0.0000 0.0000 0.9604 0.0000 -22.0878
# 5 -14.5206 -19.8147 -11.1803 0.0000 36.4142 0.0000
# 6 0.0000 0.0000 0.0000 -22.0878 0.0000 5.9265
#
#
#
# Elastic Compliance Matrix: (Units=1/GPa)
#
#
# Indices 1 2 3 4 5 6 
#
# 1 0.023451 0.010623 -0.008494 0.000000 0.012524 0.000000
# 2 0.010623 0.022757 -0.009992 0.000000 0.013551 0.000000
# 3 -0.008494 -0.009992 0.015598 0.000000 -0.004035 0.000000
# 4 0.000000 0.000000 0.000000 -0.012291 0.000000 -0.045808
# 5 0.012524 0.013551 -0.004035 0.000000 0.038591 0.000000
# 6 0.000000 0.000000 0.000000 -0.045808 0.000000 -0.001992
#
#
# Mechanical properties :
#
#
# Convention : Reuss Voigt Hill
#
# Bulk Modulus (GPa) = 21.70144 38.51976 30.11060
# Shear Modulus (GPa) = 42.66195 21.22128 31.94161
#
# Velocity S-wave (km/s) = 4.30536 3.03651 3.72536
# Velocity P-wave (km/s) = 5.84328 5.38798 5.62024
#
# Compressibility (1/GPa) = 0.04607989
#
# Stress axis : x y z
#
# Youngs Moduli (GPa) = 42.64126 43.94334 64.10997
#
# Poissons Ratio (x) = -0.46681 0.54457
# Poissons Ratio (y) = -0.45298 0.64058
# Poissons Ratio (z) = 0.36221 0.43908
#
# Static dielectric constant tensor:
#      x y z
#    x 1.824870 0.000000 0.023180 
#    y 0.000000 2.004700 0.000000 
#    z 0.023180 0.000000 1.929120 
# 
# From -- ./inp_files/76610.got.cif
#   From: 2010.05.17/outbox.cif.g08.bks.cpg/sg15_39_cif.got.tgz:76610.got - 2010.06.03 18:47:42.
