data_PCOD9298440
_publ_section_title
;
Structure prediction by ZEFSAII (Michael W. Deem and Ramdas Pophale) SiO2 
 PCOD9298440
Probable space group: C 2/C
;
_chemical_formula_sum "Si O2"
_cell_formula_units_Z 56
_cell_length_a 16.549732
_cell_length_b 18.754261
_cell_length_c 9.132183
_cell_angle_alpha 90.000000
_cell_angle_beta 63.518162
_cell_angle_gamma 90.000000
_cell_volume 2537.028352
_symmetry_space_group_name_H-M "C 2/C"
_symmetry_group_IT_number 15
_symmetry_cell_setting 'monoclinic'
loop_
_space_group_symop_operation_xyz
x,y,z
-x,y,1/2-z
-x,-y,-z
x,-y,1/2+z
1/2+x,1/2+y,z
1/2-x,1/2+y,1/2-z
1/2-x,1/2-y,-z
1/2+x,1/2-y,1/2+z
loop_
_atom_site_type_symbol
_atom_site_label
_atom_site_fract_x
_atom_site_fract_y
_atom_site_fract_z
Si Si1 0.345812 0.952450 0.907035
Si Si2 0.901494 0.582748 0.031614
Si Si3 0.589520 0.667447 0.412674
Si Si4 0.095433 0.910061 0.466531
Si Si5 0.946714 0.675332 0.446818
Si Si6 0.266156 0.332950 0.962114
Si Si7 0.363911 0.453100 0.393392
O O1 0.364938 0.942759 0.719901
O O2 0.366201 0.877562 0.968990
O O3 0.242305 0.971876 0.019186
O O4 0.410431 0.012076 0.926254
O O5 0.826087 0.630081 0.012295
O O6 0.988119 0.631434 0.996100
O O7 0.490175 0.641083 0.447645
O O8 0.583863 0.749648 0.464425
O O9 0.660756 0.657276 0.225881
O O10 0.619967 0.616496 0.520767
O O11 0.186878 0.868877 0.435987
O O12 0.103132 0.936842 0.294915
O O13 0.087935 0.979378 0.573564
O O14 0.000000 0.687577 0.250000
O O15 0.250000 0.250000 0.000000
#
# Coordination Sequence:
#
# PCOD9298440 Si02
#       7
#     8   8   8   8   8   8   8
#     4  11  23  43  73 100 136 177 230 280 341 404
#     4  11  23  46  67 104 135 176 228 284 341 407
#     4  12  26  47  68 103 140 184 229 280 347 407
#     4  12  26  45  70 104 142 180 232 283 343 412
#     4  10  24  44  70 103 139 176 228 286 344 411
#     4  12  27  45  70 100 141 182 230 285 341 414
#     4  12  24  44  75 105 138 185 229 283 342 414
#
# _framework density 22.073070000000001
#
# number of rings (size 3 to 8) (size 9 to 14) (size 15 to 20)
#    0.000    0.571    2.857    5.143    2.000    2.857 
#    0.000    1.429    0.000    0.000    0.000    0.000 
#    0.000    0.000    0.000    0.000    0.000    0.000 
#
# Total GULP energy -156982.567616 kJ/mol
# GULP energy per Si atom -5606.520272 kJ/mol
# Density = 2.202283 g / cm^3
# Si number density = 22.073070 Si / 1000 Ang^3
#
#
#
# Elastic Constant Matrix: (Units=GPa)
#
#
# Indices 1 2 3 4 5 6 
#
# 1 74.4715 15.4322 15.3687 0.0000 15.9506 0.0000
# 2 15.4322 138.1959 27.7920 0.0000 22.9542 0.0000
# 3 15.3687 27.7920 61.4384 0.0000 18.2925 0.0000
# 4 0.0000 0.0000 0.0000 24.7454 0.0000 0.9716
# 5 15.9506 22.9542 18.2925 0.0000 29.8953 0.0000
# 6 0.0000 0.0000 0.0000 0.9716 0.0000 42.4135
#
#
#
# Elastic Compliance Matrix: (Units=1/GPa)
#
#
# Indices 1 2 3 4 5 6 
#
# 1 0.015311 -0.000216 -0.001650 0.000000 -0.006994 0.000000
# 2 -0.000216 0.008564 -0.002319 0.000000 -0.005041 0.000000
# 3 -0.001650 -0.002319 0.020721 0.000000 -0.010018 0.000000
# 4 0.000000 0.000000 0.000000 0.040448 0.000000 -0.000927
# 5 -0.006994 -0.005041 -0.010018 0.000000 0.047182 0.000000
# 6 0.000000 0.000000 0.000000 -0.000927 0.000000 0.023599
#
#
# Mechanical properties :
#
#
# Convention : Reuss Voigt Hill
#
# Bulk Modulus (GPa) = 27.60464 43.47682 35.54073
# Shear Modulus (GPa) = 28.36553 33.77838 31.07196
#
# Velocity S-wave (km/s) = 3.58868 3.91615 3.75598
# Velocity P-wave (km/s) = 5.45020 6.33938 5.91154
#
# Compressibility (1/GPa) = 0.03622579
#
# Stress axis : x y z
#
# Youngs Moduli (GPa) = 65.31167 116.76858 48.26041
#
# Poissons Ratio (x) = 0.02526 0.07963
# Poissons Ratio (y) = 0.01413 0.11191
# Poissons Ratio (z) = 0.10776 0.27077
#
# Static dielectric constant tensor:
#      x y z
#    x 1.620490 0.000000 -0.048850 
#    y 0.000000 1.766730 0.000000 
#    z -0.048850 0.000000 1.765810 
# 
# From -- ./inp_files/48987.got.cif
#   From: 2010.05.17/outbox.cif.g08.bks.cpg/sg15_25_cif.got.tgz:48987.got - 2010.06.03 18:47:42.
