data_PCOD9298348
_publ_section_title
;
Structure prediction by ZEFSAII (Michael W. Deem and Ramdas Pophale) SiO2 
 PCOD9298348
Probable space group: C 2/C
;
_chemical_formula_sum "Si O2"
_cell_formula_units_Z 44
_cell_length_a 33.394454
_cell_length_b 7.401069
_cell_length_c 27.430574
_cell_angle_alpha 90.000000
_cell_angle_beta 163.433205
_cell_angle_gamma 90.000000
_cell_volume 1933.085586
_symmetry_space_group_name_H-M "C 2/C"
_symmetry_group_IT_number 15
_symmetry_cell_setting 'monoclinic'
loop_
_space_group_symop_operation_xyz
x,y,z
-x,y,1/2-z
-x,-y,-z
x,-y,1/2+z
1/2+x,1/2+y,z
1/2-x,1/2+y,1/2-z
1/2-x,1/2-y,-z
1/2+x,1/2-y,1/2+z
loop_
_atom_site_type_symbol
_atom_site_label
_atom_site_fract_x
_atom_site_fract_y
_atom_site_fract_z
Si Si1 0.000000 0.542402 0.250000
Si Si2 0.296571 0.130686 0.752604
Si Si3 0.737384 0.475746 0.387356
Si Si4 0.586823 0.158812 0.250138
Si Si5 0.521210 0.773780 0.125059
Si Si6 0.802991 0.270077 0.372039
O O1 0.926632 0.651282 0.207810
O O2 0.122372 0.444275 0.423958
O O3 0.419715 0.202887 0.861289
O O4 0.324119 0.165661 0.841573
O O5 0.142797 0.221396 0.563344
O O6 0.281925 0.915951 0.726727
O O7 0.718127 0.274655 0.386440
O O8 0.612938 0.610961 0.253513
O O9 0.740599 0.427621 0.333564
O O10 0.567890 0.957850 0.206480
O O11 0.454032 0.262735 0.072266
#
# Coordination Sequence:
#
# PCOD9298348 Si02
#       6
#     4   8   8   8   8   8
#     4  10  24  44  68 102 134 174 240 294 344 406
#     4  12  25  42  69 105 141 191 228 282 343 414
#     4  11  23  45  68  98 136 184 231 291 343 411
#     4  11  23  45  68  98 136 184 231 291 343 411
#     4  12  26  45  72 102 144 183 232 284 348 414
#     4  11  24  42  68 100 145 179 234 283 342 410
#
# _framework density 22.761537000000001
#
# number of rings (size 3 to 8) (size 9 to 14) (size 15 to 20)
#    0.000    0.727    3.636    4.909    2.545    3.636 
#    0.000    1.818    0.000    0.000    0.000    0.000 
#    0.000    0.000    0.000    0.000    0.000    0.000 
#
# Total GULP energy -122912.850720 kJ/mol
# GULP energy per Si atom -5586.947760 kJ/mol
# Density = 2.270973 g / cm^3
# Si number density = 22.761537 Si / 1000 Ang^3
#
#
#
# Elastic Constant Matrix: (Units=GPa)
#
#
# Indices 1 2 3 4 5 6 
#
# 1 120.6642 33.9752 27.9748 -0.0001 -14.2533 -0.0001
# 2 33.9752 88.6551 11.9801 0.0000 2.2036 0.0000
# 3 27.9748 11.9801 49.7555 -0.0002 -0.9540 -0.0003
# 4 -0.0001 0.0000 -0.0002 23.4040 -0.0002 10.7255
# 5 -14.2533 2.2036 -0.9540 -0.0002 38.6110 -0.0002
# 6 -0.0001 0.0000 -0.0003 10.7255 -0.0002 14.9329
#
#
#
# Elastic Compliance Matrix: (Units=1/GPa)
#
#
# Indices 1 2 3 4 5 6 
#
# 1 0.011009 -0.003614 -0.005240 0.000000 0.004141 0.000000
# 2 -0.003614 0.012866 -0.001106 0.000000 -0.002096 0.000000
# 3 -0.005240 -0.001106 0.023286 0.000000 -0.001296 0.000000
# 4 0.000000 0.000000 0.000000 0.063693 0.000000 -0.045747
# 5 0.004141 -0.002096 -0.001296 0.000000 0.027516 0.000000
# 6 0.000000 0.000000 0.000000 -0.045747 0.000000 0.099824
#
#
# Mechanical properties :
#
#
# Convention : Reuss Voigt Hill
#
# Bulk Modulus (GPa) = 36.70978 45.21501 40.96239
# Shear Modulus (GPa) = 18.71300 27.73256 23.22278
#
# Velocity S-wave (km/s) = 2.87040 3.49434 3.19762
# Velocity P-wave (km/s) = 5.21043 6.01567 5.62747
#
# Compressibility (1/GPa) = 0.02724070
#
# Stress axis : x y z
#
# Youngs Moduli (GPa) = 90.83473 77.72338 42.94409
#
# Poissons Ratio (x) = 0.28087 0.22504
# Poissons Ratio (y) = 0.32826 0.04751
# Poissons Ratio (z) = 0.47600 0.08598
#
# Static dielectric constant tensor:
#      x y z
#    x 1.886390 0.000000 0.032840 
#    y 0.000000 1.854030 0.000000 
#    z 0.032840 0.000000 1.861950 
# 
# From -- ./inp_files/284362.got.cif
#   From: 2010.05.17/outbox.cif.g08.bks.cpg/sg15_143_cif.got.tgz:284362.got - 2010.06.03 18:47:42.
