data_PCOD9298206
_publ_section_title
;
Structure prediction by ZEFSAII (Michael W. Deem and Ramdas Pophale) SiO2 
 PCOD9298206
Probable space group: C 2/C
;
_chemical_formula_sum "Si O2"
_cell_formula_units_Z 32
_cell_length_a 17.827942
_cell_length_b 9.814460
_cell_length_c 24.359588
_cell_angle_alpha 90.000000
_cell_angle_beta 17.131030
_cell_angle_gamma 90.000000
_cell_volume 1255.475551
_symmetry_space_group_name_H-M "C 2/C"
_symmetry_group_IT_number 15
_symmetry_cell_setting 'monoclinic'
loop_
_space_group_symop_operation_xyz
x,y,z
-x,y,1/2-z
-x,-y,-z
x,-y,1/2+z
1/2+x,1/2+y,z
1/2-x,1/2+y,1/2-z
1/2-x,1/2-y,-z
1/2+x,1/2-y,1/2+z
loop_
_atom_site_type_symbol
_atom_site_label
_atom_site_fract_x
_atom_site_fract_y
_atom_site_fract_z
Si Si1 0.729378 0.375024 0.470854
Si Si2 0.340256 0.553993 0.681984
Si Si3 0.611871 0.083733 0.060370
Si Si4 0.776668 0.287151 0.129199
O O1 0.750000 0.250000 0.500000
O O2 0.497433 0.417033 0.591525
O O3 0.000000 0.376602 0.250000
O O4 0.709561 0.504672 0.524115
O O5 0.129645 0.511367 0.785623
O O6 0.196216 0.624454 0.834487
O O7 0.518214 0.669464 0.529916
O O8 0.487776 0.209897 0.178236
O O9 0.721821 0.120262 0.925038
#
# Coordination Sequence:
#
# PCOD9298206 Si02
#       4
#     8   8   8   8
#     4  12  30  45  69 102 140 179 226 278 344 409
#     4  11  25  45  71 102 140 178 228 281 340 399
#     4  11  25  45  71 102 140 178 228 281 340 399
#     4  10  24  43  74  97 134 184 232 275 338 399
#
# _framework density 25.488347999999998
#
# number of rings (size 3 to 8) (size 9 to 14) (size 15 to 20)
#    0.000    1.000    2.500    1.500   10.500    6.000 
#    0.000    0.000    0.000    0.000    0.000    0.000 
#    0.000    0.000    0.000    0.000    0.000    0.000 
#
# Total GULP energy -89594.878752 kJ/mol
# GULP energy per Si atom -5599.679922 kJ/mol
# Density = 2.543034 g / cm^3
# Si number density = 25.488348 Si / 1000 Ang^3
#
#
#
# Elastic Constant Matrix: (Units=GPa)
#
#
# Indices 1 2 3 4 5 6 
#
# 1 81.9580 12.4471 36.6120 -0.0035 16.8859 -0.0056
# 2 12.4471 94.9922 32.0268 -0.0393 18.8237 0.0077
# 3 36.6120 32.0268 115.9296 -0.0691 35.2606 -0.0359
# 4 -0.0035 -0.0393 -0.0691 38.6015 -0.0595 17.1213
# 5 16.8859 18.8237 35.2606 -0.0595 67.6419 -0.0237
# 6 -0.0056 0.0077 -0.0359 17.1213 -0.0237 36.5732
#
#
#
# Elastic Compliance Matrix: (Units=1/GPa)
#
#
# Indices 1 2 3 4 5 6 
#
# 1 0.014329 -0.000239 -0.004030 -0.000009 -0.001409 0.000002
# 2 -0.000239 0.011811 -0.002621 0.000009 -0.001861 -0.000011
# 3 -0.004030 -0.002621 0.011997 0.000010 -0.004518 0.000004
# 4 -0.000009 0.000009 0.000010 0.032694 0.000018 -0.015305
# 5 -0.001409 -0.001861 -0.004518 0.000018 0.018009 -0.000001
# 6 0.000002 -0.000011 0.000004 -0.015305 -0.000001 0.034507
#
#
# Mechanical properties :
#
#
# Convention : Reuss Voigt Hill
#
# Bulk Modulus (GPa) = 41.06016 50.56129 45.81073
# Shear Modulus (GPa) = 34.42394 42.68293 38.55344
#
# Velocity S-wave (km/s) = 3.67900 4.09663 3.89342
# Velocity P-wave (km/s) = 5.84732 6.50051 6.18255
#
# Compressibility (1/GPa) = 0.02435451
#
# Stress axis : x y z
#
# Youngs Moduli (GPa) = 69.79089 84.66642 83.35261
#
# Poissons Ratio (x) = 0.02027 0.33594
# Poissons Ratio (y) = 0.01671 0.21850
# Poissons Ratio (z) = 0.28128 0.22195
#
# Static dielectric constant tensor:
#      x y z
#    x 1.935220 -0.000070 -0.052350 
#    y -0.000070 2.145700 0.000040 
#    z -0.052350 0.000040 2.020280 
# 
# From -- ./inp_files/45837.got.cif
#   From: 2010.05.17/outbox.cif.g08.bks.cpg/sg15_23_cif.got.tgz:45837.got - 2010.06.03 18:47:42.
