data_PCOD9298714
_publ_section_title
;
Structure prediction by ZEFSAII (Michael W. Deem and Ramdas Pophale) SiO2 
 PCOD9298714
Probable space group: C 2/C
;
_chemical_formula_sum "Si O2"
_cell_formula_units_Z 44
_cell_length_a 20.538530
_cell_length_b 11.998310
_cell_length_c 9.411021
_cell_angle_alpha 90.000000
_cell_angle_beta 57.061761
_cell_angle_gamma 90.000000
_cell_volume 1946.351326
_symmetry_space_group_name_H-M "C 2/C"
_symmetry_group_IT_number 15
_symmetry_cell_setting 'monoclinic'
loop_
_space_group_symop_operation_xyz
x,y,z
-x,y,1/2-z
-x,-y,-z
x,-y,1/2+z
1/2+x,1/2+y,z
1/2-x,1/2+y,1/2-z
1/2-x,1/2-y,-z
1/2+x,1/2-y,1/2+z
loop_
_atom_site_type_symbol
_atom_site_label
_atom_site_fract_x
_atom_site_fract_y
_atom_site_fract_z
Si Si1 0.654249 0.475782 0.961611
Si Si2 0.944032 0.546441 0.690884
Si Si3 0.121880 0.684031 0.125483
Si Si4 0.291234 0.643198 0.823669
Si Si5 0.588094 0.726252 0.388190
Si Si6 0.000000 0.094334 0.250000
O O1 0.696384 0.576318 0.833849
O O2 0.646379 0.374789 0.857502
O O3 0.695704 0.434134 0.053811
O O4 0.569479 0.517489 0.109774
O O5 0.898247 0.439511 0.803100
O O6 0.893996 0.652947 0.702183
O O7 0.000000 0.585530 0.750000
O O8 0.000000 0.500000 0.500000
O O9 0.142793 0.762137 0.233987
O O10 0.204014 0.685284 0.943568
O O11 0.063705 0.735268 0.077004
O O12 0.529077 0.668623 0.348272
#
# Coordination Sequence:
#
# PCOD9298714 Si02
#       6
#     8   8   8   8   8   4
#     4  11  24  43  69 102 133 176 224 290 339 408
#     4  12  25  41  65  97 132 180 220 270 336 399
#     4  10  25  46  67  93 140 183 228 280 331 415
#     4  10  24  45  70  96 133 182 230 275 350 396
#     4  11  24  42  66 101 135 175 222 277 344 398
#     4  12  24  42  70 106 136 170 230 286 346 406
#
# _framework density 22.606401999999999
#
# number of rings (size 3 to 8) (size 9 to 14) (size 15 to 20)
#    0.000    1.091    4.545    0.545    5.091    1.455 
#    0.000    1.818    0.000    0.000    0.000    0.000 
#    0.000    0.000    0.000    0.000    0.000    0.000 
#
# Total GULP energy -122825.787700 kJ/mol
# GULP energy per Si atom -5582.990350 kJ/mol
# Density = 2.255495 g / cm^3
# Si number density = 22.606402 Si / 1000 Ang^3
#
#
#
# Elastic Constant Matrix: (Units=GPa)
#
#
# Indices 1 2 3 4 5 6 
#
# 1 74.4341 25.4870 30.2999 0.0000 25.1840 0.0000
# 2 25.4870 127.4911 19.3979 0.0000 2.8252 0.0000
# 3 30.2999 19.3979 50.4479 0.0000 -0.6836 0.0000
# 4 0.0000 0.0000 0.0000 30.7618 0.0000 -4.4361
# 5 25.1840 2.8252 -0.6836 0.0000 19.8055 0.0000
# 6 0.0000 0.0000 0.0000 -4.4361 0.0000 31.3929
#
#
#
# Elastic Compliance Matrix: (Units=1/GPa)
#
#
# Indices 1 2 3 4 5 6 
#
# 1 0.044776 -0.003687 -0.026252 0.000000 -0.057316 0.000000
# 2 -0.003687 0.008668 -0.001072 0.000000 0.003415 0.000000
# 3 -0.026252 -0.001072 0.036474 0.000000 0.034793 0.000000
# 4 0.000000 0.000000 0.000000 0.033184 0.000000 0.004689
# 5 -0.057316 0.003415 0.034793 0.000000 0.124086 0.000000
# 6 0.000000 0.000000 0.000000 0.004689 0.000000 0.032517
#
#
# Mechanical properties :
#
#
# Convention : Reuss Voigt Hill
#
# Bulk Modulus (GPa) = 35.84866 44.74917 40.29892
# Shear Modulus (GPa) = 14.24400 28.20458 21.22429
#
# Velocity S-wave (km/s) = 2.51288 3.53602 3.06741
# Velocity P-wave (km/s) = 4.93068 6.04228 5.51456
#
# Compressibility (1/GPa) = 0.02789504
#
# Stress axis : x y z
#
# Youngs Moduli (GPa) = 22.33357 115.36389 27.41706
#
# Poissons Ratio (x) = 0.42532 0.71975
# Poissons Ratio (y) = 0.08234 0.02940
# Poissons Ratio (z) = 0.58630 0.12372
#
# Static dielectric constant tensor:
#      x y z
#    x 1.899430 0.000000 0.001440 
#    y 0.000000 1.918140 0.000000 
#    z 0.001440 0.000000 1.809790 
# 
# From -- ./inp_files/54339.got.cif
#   From: 2010.05.17/outbox.cif.g08.bks.cpg/sg15_28_cif.got.tgz:54339.got - 2010.06.03 18:47:42.
