data_PCOD9298396
_publ_section_title
;
Structure prediction by ZEFSAII (Michael W. Deem and Ramdas Pophale) SiO2 
 PCOD9298396
Probable space group: C 2/C
;
_chemical_formula_sum "Si O2"
_cell_formula_units_Z 56
_cell_length_a 8.342140
_cell_length_b 14.750525
_cell_length_c 22.574615
_cell_angle_alpha 90.000000
_cell_angle_beta 67.933817
_cell_angle_gamma 90.000000
_cell_volume 2574.353276
_symmetry_space_group_name_H-M "C 2/C"
_symmetry_group_IT_number 15
_symmetry_cell_setting 'monoclinic'
loop_
_space_group_symop_operation_xyz
x,y,z
-x,y,1/2-z
-x,-y,-z
x,-y,1/2+z
1/2+x,1/2+y,z
1/2-x,1/2+y,1/2-z
1/2-x,1/2-y,-z
1/2+x,1/2-y,1/2+z
loop_
_atom_site_type_symbol
_atom_site_label
_atom_site_fract_x
_atom_site_fract_y
_atom_site_fract_z
Si Si1 0.202574 0.015722 0.663284
Si Si2 0.818701 0.668932 0.741867
Si Si3 0.563969 0.382080 0.374923
Si Si4 0.873364 0.047148 0.065940
Si Si5 0.482057 0.065352 0.447241
Si Si6 0.829845 0.256190 0.553323
Si Si7 0.002066 0.163158 0.155634
O O1 0.249409 0.086689 0.709160
O O2 0.115416 0.078829 0.624699
O O3 0.382252 0.971703 0.619412
O O4 0.070233 0.927556 0.681562
O O5 0.661671 0.673604 0.810527
O O6 0.000000 0.645001 0.750000
O O7 0.864205 0.766932 0.704515
O O8 0.674133 0.469598 0.379141
O O9 0.560671 0.325265 0.435251
O O10 0.704660 0.073462 0.054271
O O11 0.947317 0.125535 0.098231
O O12 0.000000 0.000000 0.000000
O O13 0.546016 0.159773 0.462046
O O14 0.500000 0.000000 0.500000
O O15 0.750000 0.250000 0.500000
O O16 0.669296 0.275408 0.619365
#
# Coordination Sequence:
#
# PCOD9298396 Si02
#       7
#     8   8   8   8   8   8   8
#     4  10  25  46  68 100 142 192 241 300 366 433
#     4  12  24  43  73 100 140 190 247 296 368 441
#     4  11  23  44  67  98 139 183 238 300 361 433
#     4  11  23  46  71 103 141 186 242 303 379 441
#     4  11  23  41  68 101 141 185 239 295 366 447
#     4  11  23  41  67 101 140 179 234 298 359 432
#     4  10  24  44  69 100 144 185 235 308 362 440
#
# _framework density 21.753035000000001
#
# number of rings (size 3 to 8) (size 9 to 14) (size 15 to 20)
#    0.000    1.143    1.429    5.571    4.000    2.286 
#    0.000    2.143    0.000    0.000    0.000    0.000 
#    0.000    0.000    0.000    0.000    0.000    0.000 
#
# Total GULP energy -156163.429574 kJ/mol
# GULP energy per Si atom -5577.265342 kJ/mol
# Density = 2.170352 g / cm^3
# Si number density = 21.753035 Si / 1000 Ang^3
#
#
#
# Elastic Constant Matrix: (Units=GPa)
#
#
# Indices 1 2 3 4 5 6 
#
# 1 140.6184 49.8836 50.8331 0.0000 17.8680 0.0000
# 2 49.8836 128.9146 51.8518 0.0000 10.3205 0.0000
# 3 50.8331 51.8518 81.2237 0.0000 19.5348 0.0000
# 4 0.0000 0.0000 0.0000 31.7392 0.0000 17.7070
# 5 17.8680 10.3205 19.5348 0.0000 34.4035 0.0000
# 6 0.0000 0.0000 0.0000 17.7070 0.0000 39.6071
#
#
#
# Elastic Compliance Matrix: (Units=1/GPa)
#
#
# Indices 1 2 3 4 5 6 
#
# 1 0.009578 -0.001786 -0.004385 0.000000 -0.001949 0.000000
# 2 -0.001786 0.010787 -0.006038 0.000000 0.001120 0.000000
# 3 -0.004385 -0.006038 0.020763 0.000000 -0.007700 0.000000
# 4 0.000000 0.000000 0.000000 0.041976 0.000000 -0.018766
# 5 -0.001949 0.001120 -0.007700 0.000000 0.034115 0.000000
# 6 0.000000 0.000000 0.000000 -0.018766 0.000000 0.033638
#
#
# Mechanical properties :
#
#
# Convention : Reuss Voigt Hill
#
# Bulk Modulus (GPa) = 59.84816 72.87707 66.36261
# Shear Modulus (GPa) = 27.64795 34.36250 31.00523
#
# Velocity S-wave (km/s) = 3.56897 3.97881 3.77945
# Velocity P-wave (km/s) = 6.67500 7.39477 7.04409
#
# Compressibility (1/GPa) = 0.01670895
#
# Stress axis : x y z
#
# Youngs Moduli (GPa) = 104.40575 92.70314 48.16372
#
# Poissons Ratio (x) = 0.16560 0.21121
# Poissons Ratio (y) = 0.18651 0.29080
# Poissons Ratio (z) = 0.45785 0.55971
#
# Static dielectric constant tensor:
#      x y z
#    x 1.712660 0.000000 0.022300 
#    y 0.000000 1.344680 0.000000 
#    z 0.022300 0.000000 1.846260 
# 
# From -- ./inp_files/264214.got.cif
#   From: 2010.05.17/outbox.cif.g08.bks.cpg/sg15_133_cif.got.tgz:264214.got - 2010.06.03 18:47:42.
