data_PCOD9298463
_publ_section_title
;
Structure prediction by ZEFSAII (Michael W. Deem and Ramdas Pophale) SiO2 
 PCOD9298463
Probable space group: C 2/C
;
_chemical_formula_sum "Si O2"
_cell_formula_units_Z 52
_cell_length_a 22.651539
_cell_length_b 6.487584
_cell_length_c 19.837390
_cell_angle_alpha 90.000000
_cell_angle_beta 119.852712
_cell_angle_gamma 90.000000
_cell_volume 2528.357769
_symmetry_space_group_name_H-M "C 2/C"
_symmetry_group_IT_number 15
_symmetry_cell_setting 'monoclinic'
loop_
_space_group_symop_operation_xyz
x,y,z
-x,y,1/2-z
-x,-y,-z
x,-y,1/2+z
1/2+x,1/2+y,z
1/2-x,1/2+y,1/2-z
1/2-x,1/2-y,-z
1/2+x,1/2-y,1/2+z
loop_
_atom_site_type_symbol
_atom_site_label
_atom_site_fract_x
_atom_site_fract_y
_atom_site_fract_z
Si Si1 0.352007 0.052572 0.322761
Si Si2 0.603259 0.679110 0.888918
Si Si3 0.500000 0.419454 0.750000
Si Si4 0.229311 0.095820 0.665569
Si Si5 0.575443 0.016507 0.773440
Si Si6 0.155307 0.710945 0.557403
Si Si7 0.268802 0.607857 0.073509
O O1 0.278782 0.971322 0.253873
O O2 0.376591 0.900741 0.395585
O O3 0.334370 0.274432 0.342996
O O4 0.399228 0.055969 0.284464
O O5 0.535157 0.559386 0.826779
O O6 0.616016 0.892632 0.854396
O O7 0.665577 0.527469 0.906132
O O8 0.605039 0.723612 0.969310
O O9 0.561324 0.262643 0.763568
O O10 0.272923 0.242368 0.640699
O O11 0.200018 0.902661 0.608529
O O12 0.500000 0.945884 0.750000
O O13 0.207393 0.546919 0.554976
O O14 0.250000 0.750000 0.000000
#
# Coordination Sequence:
#
# PCOD9298463 Si02
#       7
#     8   8   4   8   8   8   8
#     4  11  23  41  66  97 140 178 222 280 350 426
#     4  12  23  43  69  98 138 174 239 282 331 416
#     4  10  24  44  70  96 124 184 244 280 334 380
#     4  11  22  39  62 103 139 179 218 276 367 413
#     4  10  25  45  70  93 128 182 243 280 331 392
#     4  11  25  40  64 107 141 176 219 286 362 409
#     4  11  24  37  68 106 138 177 220 281 358 411
#
# _framework density 20.566708999999999
#
# number of rings (size 3 to 8) (size 9 to 14) (size 15 to 20)
#    0.462    0.615    3.846    2.308    6.462    1.231 
#    0.000    1.538    0.000    0.000    0.000    0.000 
#    0.000    0.000    0.000    0.000    0.000    0.000 
#
# Total GULP energy -145092.616334 kJ/mol
# GULP energy per Si atom -5580.485244 kJ/mol
# Density = 2.051990 g / cm^3
# Si number density = 20.566709 Si / 1000 Ang^3
#
#
#
# Elastic Constant Matrix: (Units=GPa)
#
#
# Indices 1 2 3 4 5 6 
#
# 1 63.0513 16.6064 29.7199 0.0000 -19.8836 0.0000
# 2 16.6064 105.7957 59.1686 -0.0002 -6.5179 -0.0001
# 3 29.7199 59.1686 140.1517 0.0000 -19.7060 0.0000
# 4 0.0000 -0.0002 0.0000 33.3984 0.0000 -17.8363
# 5 -19.8836 -6.5179 -19.7060 0.0000 30.5227 0.0000
# 6 0.0000 -0.0001 0.0000 -17.8363 0.0000 5.3422
#
#
#
# Elastic Compliance Matrix: (Units=1/GPa)
#
#
# Indices 1 2 3 4 5 6 
#
# 1 0.021034 -0.001324 -0.002216 0.000000 0.011989 0.000000
# 2 -0.001324 0.012475 -0.005205 0.000000 -0.001559 0.000000
# 3 -0.002216 -0.005205 0.010386 0.000000 0.004150 0.000000
# 4 0.000000 0.000000 0.000000 -0.038238 0.000000 -0.127666
# 5 0.011989 -0.001559 0.004150 0.000000 0.042919 0.000000
# 6 0.000000 0.000000 0.000000 -0.127666 0.000000 -0.239055
#
#
# Mechanical properties :
#
#
# Convention : Reuss Voigt Hill
#
# Bulk Modulus (GPa) = 37.87057 57.77648 47.82352
# Shear Modulus (GPa) = -30.45312 27.41958 -1.51677
#
# Velocity S-wave (km/s) = -3.85216 3.65527 -0.85970
# Velocity P-wave (km/s) = 1.15413 6.77996 4.72418
#
# Compressibility (1/GPa) = 0.02640573
#
# Stress axis : x y z
#
# Youngs Moduli (GPa) = 47.54198 80.16033 96.28312
#
# Poissons Ratio (x) = 0.10611 0.21334
# Poissons Ratio (y) = 0.06294 0.50116
# Poissons Ratio (z) = 0.10534 0.41724
#
# Static dielectric constant tensor:
#      x y z
#    x 1.718600 0.000000 0.003410 
#    y 0.000000 1.774690 0.000000 
#    z 0.003410 0.000000 1.730880 
# 
# From -- ./inp_files/221162.got.cif
#   From: 2010.05.17/outbox.cif.g08.bks.cpg/sg15_111_cif.got.tgz:221162.got - 2010.06.03 18:47:42.
