data_PCOD9298741
_publ_section_title
;
Structure prediction by ZEFSAII (Michael W. Deem and Ramdas Pophale) SiO2 
 PCOD9298741
Probable space group: C 2/C
;
_chemical_formula_sum "Si O2"
_cell_formula_units_Z 56
_cell_length_a 18.783194
_cell_length_b 18.110095
_cell_length_c 9.411766
_cell_angle_alpha 90.000000
_cell_angle_beta 117.757003
_cell_angle_gamma 90.000000
_cell_volume 2833.156504
_symmetry_space_group_name_H-M "C 2/C"
_symmetry_group_IT_number 15
_symmetry_cell_setting 'monoclinic'
loop_
_space_group_symop_operation_xyz
x,y,z
-x,y,1/2-z
-x,-y,-z
x,-y,1/2+z
1/2+x,1/2+y,z
1/2-x,1/2+y,1/2-z
1/2-x,1/2-y,-z
1/2+x,1/2-y,1/2+z
loop_
_atom_site_type_symbol
_atom_site_label
_atom_site_fract_x
_atom_site_fract_y
_atom_site_fract_z
Si Si1 0.312594 0.580289 0.849383
Si Si2 0.155566 0.069596 0.958412
Si Si3 0.500000 0.186042 0.750000
Si Si4 0.410569 0.070864 0.111018
Si Si5 0.593905 0.728936 0.578601
Si Si6 0.500000 0.659846 0.750000
Si Si7 0.210676 0.316404 0.873801
Si Si8 0.127779 0.428057 0.244409
O O1 0.320007 0.565750 0.686240
O O2 0.365505 0.652267 0.931098
O O3 0.219898 0.594286 0.803657
O O4 0.341846 0.509069 0.963471
O O5 0.068637 0.108014 0.881334
O O6 0.219908 0.124186 0.091779
O O7 0.462969 0.235129 0.590557
O O8 0.428025 0.134216 0.738948
O O9 0.500000 0.083819 0.250000
O O10 0.355424 0.141144 0.093472
O O11 0.375137 0.000717 0.161485
O O12 0.409374 0.054171 0.943771
O O13 0.542595 0.709230 0.670957
O O14 0.664926 0.783677 0.695464
O O15 0.250000 0.250000 0.000000
#
# Coordination Sequence:
#
# PCOD9298741 Si02
#       8
#     8   8   4   8   8   4   8   8
#     4  11  23  46  68  99 134 180 233 275 348 410
#     4  11  24  42  73 102 133 181 233 289 338 419
#     4  12  30  43  65 106 146 174 232 290 354 399
#     4  12  25  40  69  96 135 178 224 289 341 412
#     4  11  27  44  68 101 140 183 224 290 343 416
#     4  10  24  45  71  98 132 182 238 272 354 409
#     4  12  22  42  71 102 131 179 237 276 342 411
#     4  12  24  44  65 100 133 178 229 278 344 422
#
# _framework density 19.765940000000001
#
# number of rings (size 3 to 8) (size 9 to 14) (size 15 to 20)
#    0.000    0.571    6.429    1.286    5.000    6.857 
#    0.000    0.000    0.000    0.000    0.000    0.000 
#    0.000    0.000    0.000    0.000    0.000    0.000 
#
# Total GULP energy -156687.375345 kJ/mol
# GULP energy per Si atom -5595.977691 kJ/mol
# Density = 1.972095 g / cm^3
# Si number density = 19.765940 Si / 1000 Ang^3
#
#
#
# Elastic Constant Matrix: (Units=GPa)
#
#
# Indices 1 2 3 4 5 6 
#
# 1 107.6714 51.6313 26.0454 0.0000 16.7028 0.0000
# 2 51.6313 138.3930 61.1208 0.0000 -2.3374 0.0000
# 3 26.0454 61.1208 89.0790 0.0000 10.6786 0.0000
# 4 0.0000 0.0000 0.0000 2409.8537 0.0000 2538.0887
# 5 16.7028 -2.3374 10.6786 0.0000 22.7499 0.0000
# 6 0.0000 0.0000 0.0000 2538.0887 0.0000 2756.1902
#
#
#
# Elastic Compliance Matrix: (Units=1/GPa)
#
#
# Indices 1 2 3 4 5 6 
#
# 1 0.013476 -0.005834 0.001399 0.000000 -0.011151 0.000000
# 2 -0.005834 0.013383 -0.008641 0.000000 0.009714 0.000000
# 3 0.001399 -0.008641 0.017988 0.000000 -0.010359 0.000000
# 4 0.000000 0.000000 0.000000 0.013773 0.000000 -0.012683
# 5 -0.011151 0.009714 -0.010359 0.000000 0.058003 0.000000
# 6 0.000000 0.000000 0.000000 -0.012683 0.000000 0.012042
#
#
# Mechanical properties :
#
#
# Convention : Reuss Voigt Hill
#
# Bulk Modulus (GPa) = 53.49019 68.08205 60.78612
# Shear Modulus (GPa) = 31.04661 1050.84849 540.94755
#
# Velocity S-wave (km/s) = 3.96752 23.08247 16.56112
# Velocity P-wave (km/s) = 6.93605 27.29321 19.91266
#
# Compressibility (1/GPa) = 0.01869502
#
# Stress axis : x y z
#
# Youngs Moduli (GPa) = 74.20406 74.72261 55.59355
#
# Poissons Ratio (x) = 0.43594 -0.07780
# Poissons Ratio (y) = 0.43291 0.48040
# Poissons Ratio (z) = -0.10384 0.64570
#
# Static dielectric constant tensor:
#      x y z
#    x 1.686440 0.000000 0.006410 
#    y 0.000000 1.674920 0.000000 
#    z 0.006410 0.000000 1.671940 
# 
# From -- ./inp_files/49204.got.cif
#   From: 2010.05.17/outbox.cif.g08.bks.cpg/sg15_25_cif.got.tgz:49204.got - 2010.06.03 18:47:42.
