data_PCOD9298335
_publ_section_title
;
Structure prediction by ZEFSAII (Michael W. Deem and Ramdas Pophale) SiO2 
 PCOD9298335
Probable space group: C 2/C
;
_chemical_formula_sum "Si O2"
_cell_formula_units_Z 40
_cell_length_a 20.935681
_cell_length_b 11.627003
_cell_length_c 12.466817
_cell_angle_alpha 90.000000
_cell_angle_beta 37.883411
_cell_angle_gamma 90.000000
_cell_volume 1863.455138
_symmetry_space_group_name_H-M "C 2/C"
_symmetry_group_IT_number 15
_symmetry_cell_setting 'monoclinic'
loop_
_space_group_symop_operation_xyz
x,y,z
-x,y,1/2-z
-x,-y,-z
x,-y,1/2+z
1/2+x,1/2+y,z
1/2-x,1/2+y,1/2-z
1/2-x,1/2-y,-z
1/2+x,1/2-y,1/2+z
loop_
_atom_site_type_symbol
_atom_site_label
_atom_site_fract_x
_atom_site_fract_y
_atom_site_fract_z
Si Si1 0.023216 0.195699 0.069255
Si Si2 0.751463 0.211383 0.623147
Si Si3 0.000000 0.003696 0.250000
Si Si4 0.414360 0.684222 0.005487
Si Si5 0.500000 0.884570 0.750000
Si Si6 0.576294 0.943867 0.311856
O O1 0.962730 0.092065 0.208085
O O2 0.972781 0.320486 0.155161
O O3 0.137163 0.198818 0.969121
O O4 0.012277 0.172727 0.957360
O O5 0.750000 0.250000 0.500000
O O6 0.688019 0.091291 0.708958
O O7 0.684267 0.298865 0.786655
O O8 0.918210 0.919930 0.416816
O O9 0.434835 0.801222 0.913457
O O10 0.423909 0.967890 0.785232
O O11 0.500000 0.000000 0.500000
#
# Coordination Sequence:
#
# PCOD9298335 Si02
#       6
#     8   8   4   8   4   8
#     4  11  22  42  66  98 135 176 229 278 336 407
#     4  11  23  42  68 104 134 176 233 279 340 402
#     4  11  23  44  66  90 141 187 220 276 340 413
#     4  10  24  44  67  96 135 187 225 278 343 402
#     4  11  19  44  70  94 135 175 232 276 342 399
#     4  11  22  43  72  98 138 180 222 283 346 405
#
# _framework density 21.465502999999998
#
# number of rings (size 3 to 8) (size 9 to 14) (size 15 to 20)
#    0.000    1.200    4.000    4.800    0.000    1.600 
#    7.200    2.000    0.000    0.000    0.000    0.000 
#    0.000    0.000    0.000    0.000    0.000    0.000 
#
# Total GULP energy -111645.767964 kJ/mol
# GULP energy per Si atom -5582.288398 kJ/mol
# Density = 2.141665 g / cm^3
# Si number density = 21.465503 Si / 1000 Ang^3
#
#
#
# Elastic Constant Matrix: (Units=GPa)
#
#
# Indices 1 2 3 4 5 6 
#
# 1 127.0622 43.7011 52.2679 0.0000 -10.1867 0.0000
# 2 43.7011 156.7917 49.8702 0.0000 13.8758 0.0000
# 3 52.2679 49.8702 119.4004 0.0000 13.5819 0.0000
# 4 0.0000 0.0000 0.0000 49.4936 0.0000 22.2036
# 5 -10.1867 13.8758 13.5819 0.0000 41.0334 0.0000
# 6 0.0000 0.0000 0.0000 22.2036 0.0000 40.1051
#
#
#
# Elastic Compliance Matrix: (Units=1/GPa)
#
#
# Indices 1 2 3 4 5 6 
#
# 1 0.010770 -0.002023 -0.004418 0.000000 0.004820 0.000000
# 2 -0.002023 0.007828 -0.002105 0.000000 -0.002453 0.000000
# 3 -0.004418 -0.002105 0.011672 0.000000 -0.004248 0.000000
# 4 0.000000 0.000000 0.000000 0.026881 0.000000 -0.014882
# 5 0.004820 -0.002453 -0.004248 0.000000 0.027802 0.000000
# 6 0.000000 0.000000 0.000000 -0.014882 0.000000 0.033174
#
#
# Mechanical properties :
#
#
# Convention : Reuss Voigt Hill
#
# Bulk Modulus (GPa) = 75.88582 77.21475 76.55028
# Shear Modulus (GPa) = 35.81365 43.28743 39.55054
#
# Velocity S-wave (km/s) = 4.08907 4.49553 4.29711
# Velocity P-wave (km/s) = 7.59758 7.93701 7.76915
#
# Compressibility (1/GPa) = 0.01317769
#
# Stress axis : x y z
#
# Youngs Moduli (GPa) = 92.85319 127.74004 85.67877
#
# Poissons Ratio (x) = 0.25844 0.37851
# Poissons Ratio (y) = 0.18786 0.18036
# Poissons Ratio (z) = 0.41020 0.26890
#
# Static dielectric constant tensor:
#      x y z
#    x 1.795770 0.000000 0.018740 
#    y 0.000000 1.781920 0.000000 
#    z 0.018740 0.000000 1.840860 
# 
# From -- ./inp_files/111418.got.cif
#   From: 2010.05.17/outbox.cif.g08.bks.cpg/sg15_56_cif.got.tgz:111418.got - 2010.06.03 18:47:42.
