data_PCOD9298914
_publ_section_title
;
Structure prediction by ZEFSAII (Michael W. Deem and Ramdas Pophale) SiO2 
 PCOD9298914
Probable space group: C 2/C
;
_chemical_formula_sum "Si O2"
_cell_formula_units_Z 60
_cell_length_a 17.059452
_cell_length_b 13.975206
_cell_length_c 20.220391
_cell_angle_alpha 90.000000
_cell_angle_beta 143.527477
_cell_angle_gamma 90.000000
_cell_volume 2865.621562
_symmetry_space_group_name_H-M "C 2/C"
_symmetry_group_IT_number 15
_symmetry_cell_setting 'monoclinic'
loop_
_space_group_symop_operation_xyz
x,y,z
-x,y,1/2-z
-x,-y,-z
x,-y,1/2+z
1/2+x,1/2+y,z
1/2-x,1/2+y,1/2-z
1/2-x,1/2-y,-z
1/2+x,1/2-y,1/2+z
loop_
_atom_site_type_symbol
_atom_site_label
_atom_site_fract_x
_atom_site_fract_y
_atom_site_fract_z
Si Si1 0.358742 0.850689 0.452302
Si Si2 0.871342 0.351220 0.303285
Si Si3 0.275162 0.671076 0.178115
Si Si4 0.000000 0.937361 0.750000
Si Si5 0.761063 0.029167 0.528002
Si Si6 0.363656 0.920323 0.800383
Si Si7 0.651190 0.830438 0.458378
Si Si8 0.842509 0.682581 0.147880
O O1 0.367602 0.836147 0.379892
O O2 0.286045 0.946175 0.429276
O O3 0.504094 0.868381 0.581504
O O4 0.263041 0.768068 0.416203
O O5 0.766089 0.280240 0.198816
O O6 0.873517 0.465642 0.298619
O O7 0.998031 0.313801 0.348268
O O8 0.402953 0.630360 0.226249
O O9 0.248130 0.605201 0.222742
O O10 0.166839 0.661722 0.047883
O O11 0.914020 0.003302 0.641926
O O12 0.708913 0.113922 0.446026
O O13 0.692773 0.932064 0.457058
O O14 0.334696 0.876744 0.709898
O O15 0.750000 0.750000 0.500000
O O16 0.000000 0.710145 0.250000
#
# Coordination Sequence:
#
# PCOD9298914 Si02
#       8
#     8   8   8   4   8   8   8   8
#     4  12  24  43  69  97 136 186 229 285 342 414
#     4  12  22  42  71  95 136 181 227 283 345 407
#     4  11  24  45  66 102 137 177 231 284 339 415
#     4  10  24  46  70 100 144 184 228 280 354 412
#     4  11  24  44  69 100 135 183 232 278 340 420
#     4  12  25  46  69 101 135 181 240 282 346 416
#     4  11  23  41  70  97 135 177 224 283 345 411
#     4  12  26  45  70 104 138 177 236 292 346 407
#
# _framework density 20.937867000000001
#
# number of rings (size 3 to 8) (size 9 to 14) (size 15 to 20)
#    0.000    0.533    5.333    4.000    2.800    0.000 
#    3.600    0.667    0.000    0.000    0.000    0.000 
#    0.000    0.000    0.000    0.000    0.000    0.000 
#
# Total GULP energy -167292.967868 kJ/mol
# GULP energy per Si atom -5576.432262 kJ/mol
# Density = 2.089021 g / cm^3
# Si number density = 20.937867 Si / 1000 Ang^3
#
#
#
# Elastic Constant Matrix: (Units=GPa)
#
#
# Indices 1 2 3 4 5 6 
#
# 1 103.9143 44.7562 6.4445 0.0000 0.9693 0.0000
# 2 44.7562 138.9386 36.9360 0.0000 2.2220 0.0000
# 3 6.4445 36.9360 67.8450 0.0000 -5.9080 0.0000
# 4 0.0000 0.0000 0.0000 27.2655 0.0000 -4.2105
# 5 0.9693 2.2220 -5.9080 0.0000 27.0755 0.0000
# 6 0.0000 0.0000 0.0000 -4.2105 0.0000 18.3751
#
#
#
# Elastic Compliance Matrix: (Units=1/GPa)
#
#
# Indices 1 2 3 4 5 6 
#
# 1 0.011239 -0.003908 0.001073 0.000000 0.000153 0.000000
# 2 -0.003908 0.009854 -0.005150 0.000000 -0.001792 0.000000
# 3 0.001073 -0.005150 0.017813 0.000000 0.004271 0.000000
# 4 0.000000 0.000000 0.000000 0.038022 0.000000 0.008712
# 5 0.000153 -0.001792 0.004271 0.000000 0.038007 0.000000
# 6 0.000000 0.000000 0.000000 0.008712 0.000000 0.056418
#
#
# Mechanical properties :
#
#
# Convention : Reuss Voigt Hill
#
# Bulk Modulus (GPa) = 43.59768 54.10794 48.85281
# Shear Modulus (GPa) = 25.64543 29.38064 27.51304
#
# Velocity S-wave (km/s) = 3.50356 3.75003 3.62889
# Velocity P-wave (km/s) = 6.10198 6.68196 6.39855
#
# Compressibility (1/GPa) = 0.02293700
#
# Stress axis : x y z
#
# Youngs Moduli (GPa) = 88.97961 101.48202 56.13894
#
# Poissons Ratio (x) = 0.39660 -0.06026
# Poissons Ratio (y) = 0.34774 0.28909
# Poissons Ratio (z) = -0.09551 0.52259
#
# Static dielectric constant tensor:
#      x y z
#    x 1.780780 0.000000 0.066840 
#    y 0.000000 1.767970 0.000000 
#    z 0.066840 0.000000 1.844610 
# 
# From -- ./inp_files/248805.got.cif
#   From: 2010.05.17/outbox.cif.g08.bks.cpg/sg15_125_cif.got.tgz:248805.got - 2010.06.03 18:47:42.
