data_PCOD9298326
_publ_section_title
;
Structure prediction by ZEFSAII (Michael W. Deem and Ramdas Pophale) SiO2 
 PCOD9298326
Probable space group: C 2/C
;
_chemical_formula_sum "Si O2"
_cell_formula_units_Z 32
_cell_length_a 26.386783
_cell_length_b 8.417154
_cell_length_c 9.412055
_cell_angle_alpha 90.000000
_cell_angle_beta 36.614961
_cell_angle_gamma 90.000000
_cell_volume 1246.806107
_symmetry_space_group_name_H-M "C 2/C"
_symmetry_group_IT_number 15
_symmetry_cell_setting 'monoclinic'
loop_
_space_group_symop_operation_xyz
x,y,z
-x,y,1/2-z
-x,-y,-z
x,-y,1/2+z
1/2+x,1/2+y,z
1/2-x,1/2+y,1/2-z
1/2-x,1/2-y,-z
1/2+x,1/2-y,1/2+z
loop_
_atom_site_type_symbol
_atom_site_label
_atom_site_fract_x
_atom_site_fract_y
_atom_site_fract_z
Si Si1 0.596688 0.336218 0.973874
Si Si2 0.774757 0.697760 0.606131
Si Si3 0.098794 0.491254 0.314136
Si Si4 0.097661 0.181737 0.983707
O O1 0.663200 0.317697 0.953237
O O2 0.605243 0.510699 0.885408
O O3 0.614818 0.182992 0.837564
O O4 0.500000 0.319235 0.250000
O O5 0.750000 0.750000 0.500000
O O6 0.832801 0.540449 0.458871
O O7 0.683549 0.674230 0.884659
O O8 0.103362 0.642365 0.407762
O O9 0.000000 0.500000 0.500000
O O10 0.000000 0.173069 0.250000
#
# Coordination Sequence:
#
# PCOD9298326 Si02
#       4
#     8   8   8   8
#     4  11  23  44  68  97 138 177 218 282 335 397
#     4  10  24  44  67 100 134 174 228 278 326 408
#     4  11  23  43  70  99 136 174 225 276 341 399
#     4  10  25  43  65  98 133 179 222 273 335 398
#
# _framework density 25.665576999999999
#
# number of rings (size 3 to 8) (size 9 to 14) (size 15 to 20)
#    0.000    1.500    2.500    0.750    7.000    2.000 
#    4.500    0.000    0.000    0.000    0.000    0.000 
#    0.000    0.000    0.000    0.000    0.000    0.000 
#
# Total GULP energy -89186.621608 kJ/mol
# GULP energy per Si atom -5574.163851 kJ/mol
# Density = 2.560716 g / cm^3
# Si number density = 25.665577 Si / 1000 Ang^3
#
#
#
# Elastic Constant Matrix: (Units=GPa)
#
#
# Indices 1 2 3 4 5 6 
#
# 1 96.2430 33.9538 57.9881 0.0000 -34.5177 0.0000
# 2 33.9538 218.6905 43.7976 0.0000 15.5736 0.0000
# 3 57.9881 43.7976 171.9593 0.0000 -58.9459 0.0000
# 4 0.0000 0.0000 0.0000 43.8249 0.0000 2.7132
# 5 -34.5177 15.5736 -58.9459 0.0000 50.1375 0.0000
# 6 0.0000 0.0000 0.0000 2.7132 0.0000 24.6043
#
#
#
# Elastic Compliance Matrix: (Units=1/GPa)
#
#
# Indices 1 2 3 4 5 6 
#
# 1 0.015895 -0.003079 -0.000832 0.000000 0.010921 0.000000
# 2 -0.003079 0.006269 -0.003271 0.000000 -0.007912 0.000000
# 3 -0.000832 -0.003271 0.011861 0.000000 0.014388 0.000000
# 4 0.000000 0.000000 0.000000 0.022975 0.000000 -0.002534
# 5 0.010921 -0.007912 0.014388 0.000000 0.046837 0.000000
# 6 0.000000 0.000000 0.000000 -0.002534 0.000000 0.040923
#
#
# Mechanical properties :
#
#
# Convention : Reuss Voigt Hill
#
# Bulk Modulus (GPa) = 50.86189 84.26352 67.56271
# Shear Modulus (GPa) = 30.17917 47.12357 38.65137
#
# Velocity S-wave (km/s) = 3.43280 4.28958 3.88488
# Velocity P-wave (km/s) = 5.96426 7.57869 6.81942
#
# Compressibility (1/GPa) = 0.01966109
#
# Stress axis : x y z
#
# Youngs Moduli (GPa) = 62.91373 159.50984 84.30924
#
# Poissons Ratio (x) = 0.49110 0.07018
# Poissons Ratio (y) = 0.19370 0.27576
# Poissons Ratio (z) = 0.05237 0.52173
#
# Static dielectric constant tensor:
#      x y z
#    x 2.080780 0.000000 0.045880 
#    y 0.000000 2.104070 0.000000 
#    z 0.045880 0.000000 2.133670 
# 
# From -- ./inp_files/93229.got.cif
#   From: 2010.05.17/outbox.cif.g08.bks.cpg/sg15_47_cif.got.tgz:93229.got - 2010.06.03 18:47:42.
