data_PCOD9298964
_publ_section_title
;
Structure prediction by ZEFSAII (Michael W. Deem and Ramdas Pophale) SiO2 
 PCOD9298964
Probable space group: C 2/C
;
_chemical_formula_sum "Si O2"
_cell_formula_units_Z 40
_cell_length_a 12.476600
_cell_length_b 15.925120
_cell_length_c 8.513098
_cell_angle_alpha 90.000000
_cell_angle_beta 92.227434
_cell_angle_gamma 90.000000
_cell_volume 1690.200907
_symmetry_space_group_name_H-M "C 2/C"
_symmetry_group_IT_number 15
_symmetry_cell_setting 'monoclinic'
loop_
_space_group_symop_operation_xyz
x,y,z
-x,y,1/2-z
-x,-y,-z
x,-y,1/2+z
1/2+x,1/2+y,z
1/2-x,1/2+y,1/2-z
1/2-x,1/2-y,-z
1/2+x,1/2-y,1/2+z
loop_
_atom_site_type_symbol
_atom_site_label
_atom_site_fract_x
_atom_site_fract_y
_atom_site_fract_z
Si Si1 0.557106 0.912029 0.040534
Si Si2 0.735786 0.653517 0.062441
Si Si3 0.029836 0.089972 0.931644
Si Si4 0.843986 0.646971 0.626477
Si Si5 0.840235 0.841323 0.607282
O O1 0.620008 0.900714 0.211918
O O2 0.455576 0.850823 0.038111
O O3 0.646510 0.885804 0.922446
O O4 0.500000 0.000000 0.000000
O O5 0.674983 0.625795 0.218806
O O6 0.750000 0.750000 0.000000
O O7 0.655190 0.610882 0.936980
O O8 0.000000 0.095643 0.750000
O O9 0.955967 0.151196 0.034265
O O10 0.000000 0.000000 0.000000
O O11 0.813075 0.743976 0.646034
O O12 0.745910 0.615180 0.514597
#
# Coordination Sequence:
#
# PCOD9298964 Si02
#       5
#     8   8   8   8   8
#     4  11  25  45  73 108 157 200 254 326 396 469
#     4  12  25  47  78 112 154 205 263 315 398 480
#     4  12  28  49  79 111 153 202 264 328 402 470
#     4  10  24  46  71 105 155 203 257 314 394 464
#     4  11  24  46  78 108 152 202 264 326 383 476
#
# _framework density 23.665825000000002
#
# number of rings (size 3 to 8) (size 9 to 14) (size 15 to 20)
#    0.000    0.800    2.000    4.200    8.400    4.000 
#    0.000    0.000    0.000    0.000    0.000    0.000 
#    0.000    0.000    0.000    0.000    0.000    0.000 
#
# Total GULP energy -111595.467069 kJ/mol
# GULP energy per Si atom -5579.773353 kJ/mol
# Density = 2.361196 g / cm^3
# Si number density = 23.665825 Si / 1000 Ang^3
#
#
#
# Elastic Constant Matrix: (Units=GPa)
#
#
# Indices 1 2 3 4 5 6 
#
# 1 125.9684 6.1950 4.5952 0.0000 2.1887 0.0000
# 2 6.1950 83.2483 11.2825 0.0000 14.6435 0.0000
# 3 4.5952 11.2825 53.1932 0.0000 -9.6631 0.0000
# 4 0.0000 0.0000 0.0000 13.4318 0.0000 5.4333
# 5 2.1887 14.6435 -9.6631 0.0000 47.3631 0.0000
# 6 0.0000 0.0000 0.0000 5.4333 0.0000 39.1608
#
#
#
# Elastic Compliance Matrix: (Units=1/GPa)
#
#
# Indices 1 2 3 4 5 6 
#
# 1 0.007991 -0.000440 -0.000664 0.000000 -0.000369 0.000000
# 2 -0.000440 0.013403 -0.003691 0.000000 -0.004877 0.000000
# 3 -0.000664 -0.003691 0.020617 0.000000 0.005378 0.000000
# 4 0.000000 0.000000 0.000000 0.078877 0.000000 -0.010944
# 5 -0.000369 -0.004877 0.005378 0.000000 0.023735 0.000000
# 6 0.000000 0.000000 0.000000 -0.010944 0.000000 0.027054
#
#
# Mechanical properties :
#
#
# Convention : Reuss Voigt Hill
#
# Bulk Modulus (GPa) = 30.84395 34.06169 32.45282
# Shear Modulus (GPa) = 26.03180 36.01362 31.02271
#
# Velocity S-wave (km/s) = 3.32018 3.90520 3.62452
# Velocity P-wave (km/s) = 5.26874 5.89560 5.59096
#
# Compressibility (1/GPa) = 0.03242127
#
# Stress axis : x y z
#
# Youngs Moduli (GPa) = 125.14459 74.61034 48.50475
#
# Poissons Ratio (x) = 0.03281 0.03221
# Poissons Ratio (y) = 0.05504 0.17902
# Poissons Ratio (z) = 0.08310 0.27537
#
# Static dielectric constant tensor:
#      x y z
#    x 1.685210 0.000000 0.027930 
#    y 0.000000 1.976830 0.000000 
#    z 0.027930 0.000000 1.779060 
# 
# From -- ./inp_files/29237.got.cif
#   From: 2010.05.17/outbox.cif.g08.bks.cpg/sg15_15_cif.got.tgz:29237.got - 2010.06.03 18:47:42.
