data_PCOD9298094
_publ_section_title
;
Structure prediction by ZEFSAII (Michael W. Deem and Ramdas Pophale) SiO2 
 PCOD9298094
Probable space group: C 2/C
;
_chemical_formula_sum "Si O2"
_cell_formula_units_Z 24
_cell_length_a 7.854957
_cell_length_b 25.060278
_cell_length_c 5.152419
_cell_angle_alpha 90.000000
_cell_angle_beta 78.126563
_cell_angle_gamma 90.000000
_cell_volume 992.540115
_symmetry_space_group_name_H-M "C 2/C"
_symmetry_group_IT_number 15
_symmetry_cell_setting 'monoclinic'
loop_
_space_group_symop_operation_xyz
x,y,z
-x,y,1/2-z
-x,-y,-z
x,-y,1/2+z
1/2+x,1/2+y,z
1/2-x,1/2+y,1/2-z
1/2-x,1/2-y,-z
1/2+x,1/2-y,1/2+z
loop_
_atom_site_type_symbol
_atom_site_label
_atom_site_fract_x
_atom_site_fract_y
_atom_site_fract_z
Si Si1 0.000000 0.119916 0.250000
Si Si2 0.822542 0.616134 0.474762
Si Si3 0.500000 0.962166 0.250000
Si Si4 0.830500 0.792216 0.169783
O O1 0.842962 0.094166 0.135486
O O2 0.902976 0.158962 0.478705
O O3 0.786815 0.676808 0.581622
O O4 0.000000 0.614243 0.250000
O O5 0.847939 0.579001 0.719355
O O6 0.500000 0.000000 0.500000
O O7 0.000000 0.767917 0.250000
O O8 0.750000 0.750000 0.000000
#
# Coordination Sequence:
#
# PCOD9298094 Si02
#       4
#     4   8   4   8
#     4  10  24  43  68 106 144 200 247 304 380 444
#     4  11  24  47  77 105 154 196 250 320 377 444
#     4  12  26  47  80 120 144 198 255 312 392 456
#     4  10  24  43  68 104 147 201 256 302 375 447
#
# _framework density 24.180381000000001
#
# number of rings (size 3 to 8) (size 9 to 14) (size 15 to 20)
#    0.000    1.333    1.667    2.000    0.000   13.333 
#    0.000    6.667    0.000    0.000    0.000    0.000 
#    0.000    0.000    0.000    0.000    0.000    0.000 
#
# Total GULP energy -67062.930937 kJ/mol
# GULP energy per Si atom -5588.577578 kJ/mol
# Density = 2.412535 g / cm^3
# Si number density = 24.180381 Si / 1000 Ang^3
#
#
#
# Elastic Constant Matrix: (Units=GPa)
#
#
# Indices 1 2 3 4 5 6 
#
# 1 173.2783 81.3925 84.0785 0.0000 56.0210 0.0000
# 2 81.3925 96.8448 51.0434 0.0000 14.9335 0.0000
# 3 84.0785 51.0434 143.9785 0.0000 31.5475 0.0000
# 4 0.0000 0.0000 0.0000 66.2959 0.0000 20.6120
# 5 56.0210 14.9335 31.5475 0.0000 77.7366 0.0000
# 6 0.0000 0.0000 0.0000 20.6120 0.0000 16.8885
#
#
#
# Elastic Compliance Matrix: (Units=1/GPa)
#
#
# Indices 1 2 3 4 5 6 
#
# 1 0.013716 -0.008660 -0.003445 0.000000 -0.006823 0.000000
# 2 -0.008660 0.018198 -0.002191 0.000000 0.003634 0.000000
# 3 -0.003445 -0.002191 0.009985 0.000000 -0.001149 0.000000
# 4 0.000000 0.000000 0.000000 0.024308 0.000000 -0.029667
# 5 -0.006823 0.003634 -0.001149 0.000000 0.017549 0.000000
# 6 0.000000 0.000000 0.000000 -0.029667 0.000000 0.095420
#
#
# Mechanical properties :
#
#
# Convention : Reuss Voigt Hill
#
# Bulk Modulus (GPa) = 75.13598 94.12560 84.63079
# Shear Modulus (GPa) = 23.56229 45.35667 34.45948
#
# Velocity S-wave (km/s) = 3.12499 4.33571 3.77915
# Velocity P-wave (km/s) = 6.64540 8.00471 7.35652
#
# Compressibility (1/GPa) = 0.01330920
#
# Stress axis : x y z
#
# Youngs Moduli (GPa) = 72.90702 54.95008 100.14540
#
# Poissons Ratio (x) = 0.47587 0.34496
# Poissons Ratio (y) = 0.63137 0.21940
# Poissons Ratio (z) = 0.25113 0.12039
#
# Static dielectric constant tensor:
#      x y z
#    x 1.944540 0.000000 0.146000 
#    y 0.000000 1.924020 0.000000 
#    z 0.146000 0.000000 1.844750 
# 
# From -- ./inp_files/1855.got.cif
#   From: 2010.05.17/outbox.cif.g08.bks.cpg/sg15_1_cif.got.tgz:1855.got - 2010.06.03 18:47:42.
