data_PCOD9298185
_publ_section_title
;
Structure prediction by ZEFSAII (Michael W. Deem and Ramdas Pophale) SiO2 
 PCOD9298185
Probable space group: C 2/C
;
_chemical_formula_sum "Si O2"
_cell_formula_units_Z 56
_cell_length_a 20.410086
_cell_length_b 5.241600
_cell_length_c 21.418767
_cell_angle_alpha 90.000000
_cell_angle_beta 87.474000
_cell_angle_gamma 90.000000
_cell_volume 2289.185459
_symmetry_space_group_name_H-M "C 2/C"
_symmetry_group_IT_number 15
_symmetry_cell_setting 'monoclinic'
loop_
_space_group_symop_operation_xyz
x,y,z
-x,y,1/2-z
-x,-y,-z
x,-y,1/2+z
1/2+x,1/2+y,z
1/2-x,1/2+y,1/2-z
1/2-x,1/2-y,-z
1/2+x,1/2-y,1/2+z
loop_
_atom_site_type_symbol
_atom_site_label
_atom_site_fract_x
_atom_site_fract_y
_atom_site_fract_z
Si Si1 0.678347 0.312744 0.524979
Si Si2 0.982599 0.619974 0.812408
Si Si3 0.373533 0.447966 0.849580
Si Si4 0.204954 0.150512 0.754664
Si Si5 0.402055 0.442131 0.645393
Si Si6 0.888089 0.685760 0.525457
Si Si7 0.986717 0.764745 0.421639
O O1 0.750000 0.250000 0.500000
O O2 0.676264 0.325725 0.599829
O O3 0.656743 0.588188 0.500400
O O4 0.633163 0.084101 0.501794
O O5 0.039928 0.832677 0.813297
O O6 0.000000 0.456504 0.750000
O O7 0.910369 0.732947 0.808925
O O8 0.984209 0.485635 0.879020
O O9 0.340308 0.647218 0.805290
O O10 0.431467 0.562499 0.890009
O O11 0.256066 0.915602 0.742781
O O12 0.156134 0.076424 0.814169
O O13 0.380099 0.214047 0.600092
O O14 0.441837 0.623027 0.595385
O O15 0.960751 0.734082 0.492969
#
# Coordination Sequence:
#
# PCOD9298185 Si02
#       7
#     8   8   8   8   8   8   8
#     4  11  25  44  72  96 139 192 232 280 335 419
#     4  11  22  41  72  99 134 180 232 288 343 413
#     4  10  24  46  66 102 136 178 239 281 347 401
#     4  12  31  47  70 102 144 188 231 287 340 412
#     4  11  27  43  71 104 140 182 230 285 360 409
#     4  11  25  45  68 108 139 174 235 288 355 405
#     4  10  24  43  73 102 138 181 225 303 341 420
#
# _framework density 24.46285
#
# number of rings (size 3 to 8) (size 9 to 14) (size 15 to 20)
#    0.000    1.143    2.857    0.857   12.000    0.571 
#    0.000    0.000    0.000    0.000    0.000    0.000 
#    0.000    0.000    0.000    0.000    0.000    0.000 
#
# Total GULP energy -156618.337783 kJ/mol
# GULP energy per Si atom -5593.512064 kJ/mol
# Density = 2.440717 g / cm^3
# Si number density = 24.462850 Si / 1000 Ang^3
#
#
#
# Elastic Constant Matrix: (Units=GPa)
#
#
# Indices 1 2 3 4 5 6 
#
# 1 55.2773 9.8753 43.2869 0.0000 -36.9206 0.0000
# 2 9.8753 81.7610 -0.9484 0.0000 -4.2420 0.0000
# 3 43.2869 -0.9484 126.2435 0.0000 -28.7469 0.0000
# 4 0.0000 0.0000 0.0000 19.4228 0.0000 -5.6429
# 5 -36.9206 -4.2420 -28.7469 0.0000 44.0820 0.0000
# 6 0.0000 0.0000 0.0000 -5.6429 0.0000 21.3764
#
#
#
# Elastic Compliance Matrix: (Units=1/GPa)
#
#
# Indices 1 2 3 4 5 6 
#
# 1 0.049211 -0.004233 -0.008940 0.000000 0.034978 0.000000
# 2 -0.004233 0.012676 0.001194 0.000000 -0.001546 0.000000
# 3 -0.008940 0.001194 0.010942 0.000000 -0.000238 0.000000
# 4 0.000000 0.000000 0.000000 0.055763 0.000000 0.014720
# 5 0.034978 -0.001546 -0.000238 0.000000 0.051677 0.000000
# 6 0.000000 0.000000 0.000000 0.014720 0.000000 0.050666
#
#
# Mechanical properties :
#
#
# Convention : Reuss Voigt Hill
#
# Bulk Modulus (GPa) = 20.46228 40.85660 30.65944
# Shear Modulus (GPa) = 18.43786 31.04745 24.74266
#
# Velocity S-wave (km/s) = 2.74835 3.56640 3.18376
# Velocity P-wave (km/s) = 4.29582 5.80489 5.10641
#
# Compressibility (1/GPa) = 0.04887042
#
# Stress axis : x y z
#
# Youngs Moduli (GPa) = 20.32085 78.89158 91.39473
#
# Poissons Ratio (x) = 0.33392 0.81711
# Poissons Ratio (y) = 0.08601 -0.10916
# Poissons Ratio (z) = 0.18168 -0.09423
#
# Static dielectric constant tensor:
#      x y z
#    x 1.956210 0.000000 0.042140 
#    y 0.000000 2.044650 0.000000 
#    z 0.042140 0.000000 1.987650 
# 
# From -- ./inp_files/278632.got.cif
#   From: 2010.05.17/outbox.cif.g08.bks.cpg/sg15_140_cif.got.tgz:278632.got - 2010.06.03 18:47:42.
