data_PCOD9298950
_publ_section_title
;
Structure prediction by ZEFSAII (Michael W. Deem and Ramdas Pophale) SiO2 
 PCOD9298950
Probable space group: C 2/C
;
_chemical_formula_sum "Si O2"
_cell_formula_units_Z 52
_cell_length_a 8.242857
_cell_length_b 19.766605
_cell_length_c 14.183076
_cell_angle_alpha 90.000000
_cell_angle_beta 89.968895
_cell_angle_gamma 90.000000
_cell_volume 2310.895013
_symmetry_space_group_name_H-M "C 2/C"
_symmetry_group_IT_number 15
_symmetry_cell_setting 'monoclinic'
loop_
_space_group_symop_operation_xyz
x,y,z
-x,y,1/2-z
-x,-y,-z
x,-y,1/2+z
1/2+x,1/2+y,z
1/2-x,1/2+y,1/2-z
1/2-x,1/2-y,-z
1/2+x,1/2-y,1/2+z
loop_
_atom_site_type_symbol
_atom_site_label
_atom_site_fract_x
_atom_site_fract_y
_atom_site_fract_z
Si Si1 0.388267 0.334183 0.668533
Si Si2 0.234952 0.580020 0.858822
Si Si3 0.500000 0.984264 0.750000
Si Si4 0.858676 0.223016 0.824012
Si Si5 0.418010 0.289706 0.000483
Si Si6 0.178914 0.447009 0.575086
Si Si7 0.922453 0.056702 0.567937
O O1 0.500000 0.363542 0.750000
O O2 0.243477 0.287940 0.706674
O O3 0.498875 0.288306 0.601203
O O4 0.313222 0.392602 0.605170
O O5 0.143710 0.532773 0.785878
O O6 0.237723 0.659561 0.836137
O O7 0.428227 0.564322 0.860202
O O8 0.157096 0.565526 0.963247
O O9 0.543294 0.941077 0.656271
O O10 0.000000 0.207200 0.750000
O O11 0.951078 0.236285 0.922930
O O12 0.392164 0.368970 0.026342
O O13 0.250000 0.250000 0.000000
O O14 0.252546 0.521818 0.590610
O O15 0.000000 0.000000 0.500000
#
# Coordination Sequence:
#
# PCOD9298950 Si02
#       7
#     8   8   4   8   8   8   8
#     4  12  26  44  68 103 142 188 242 302 358 432
#     4  10  24  46  71 100 137 186 233 290 362 429
#     4  12  28  38  74 108 142 180 232 306 344 438
#     4  11  25  46  69 100 144 189 242 299 361 433
#     4  11  23  44  74 105 132 190 236 301 368 428
#     4  11  25  47  68 104 141 189 230 297 364 425
#     4   9  19  43  70  93 135 177 233 275 352 432
#
# _framework density 22.502106000000001
#
# number of rings (size 3 to 8) (size 9 to 14) (size 15 to 20)
#    0.000    1.231    4.615    1.846    8.615    1.231 
#    5.538    0.000    0.000    0.000    0.000    0.000 
#    0.000    0.000    0.000    0.000    0.000    0.000 
#
# Total GULP energy -145196.381841 kJ/mol
# GULP energy per Si atom -5584.476225 kJ/mol
# Density = 2.245089 g / cm^3
# Si number density = 22.502106 Si / 1000 Ang^3
#
#
#
# Elastic Constant Matrix: (Units=GPa)
#
#
# Indices 1 2 3 4 5 6 
#
# 1 45.7028 35.1378 13.2522 0.0000 -11.8318 0.0000
# 2 35.1378 86.8068 3.2403 0.0000 1.9329 0.0000
# 3 13.2522 3.2403 114.5183 0.0000 -14.2554 0.0000
# 4 0.0000 0.0000 0.0000 8.8768 0.0000 -9.9727
# 5 -11.8318 1.9329 -14.2554 0.0000 36.2767 0.0000
# 6 0.0000 0.0000 0.0000 -9.9727 0.0000 27.1479
#
#
#
# Elastic Compliance Matrix: (Units=1/GPa)
#
#
# Indices 1 2 3 4 5 6 
#
# 1 0.037532 -0.015373 -0.002400 0.000000 0.012117 0.000000
# 2 -0.015373 0.017849 0.000559 0.000000 -0.005745 0.000000
# 3 -0.002400 0.000559 0.009350 0.000000 0.002862 0.000000
# 4 0.000000 0.000000 0.000000 0.191814 0.000000 0.070462
# 5 0.012117 -0.005745 0.002862 0.000000 0.032949 0.000000
# 6 0.000000 0.000000 0.000000 0.070462 0.000000 0.062719
#
#
# Mechanical properties :
#
#
# Convention : Reuss Voigt Hill
#
# Bulk Modulus (GPa) = 32.99846 38.92094 35.95970
# Shear Modulus (GPa) = 12.60262 27.48680 20.04471
#
# Velocity S-wave (km/s) = 2.36913 3.49882 2.98785
# Velocity P-wave (km/s) = 4.70958 5.80142 5.28378
#
# Compressibility (1/GPa) = 0.03030445
#
# Stress axis : x y z
#
# Youngs Moduli (GPa) = 26.64370 56.02405 106.94736
#
# Poissons Ratio (x) = 0.86124 0.25667
# Poissons Ratio (y) = 0.40958 -0.05975
# Poissons Ratio (z) = 0.06394 -0.03130
#
# Static dielectric constant tensor:
#      x y z
#    x 1.900500 0.000000 -0.057070 
#    y 0.000000 1.849420 0.000000 
#    z -0.057070 0.000000 1.900800 
# 
# From -- ./inp_files/135974.got.cif
#   From: 2010.05.17/outbox.cif.g08.bks.cpg/sg15_68_cif.got.tgz:135974.got - 2010.06.03 18:47:42.
