data_PCOD9298592
_publ_section_title
;
Structure prediction by ZEFSAII (Michael W. Deem and Ramdas Pophale) SiO2 
 PCOD9298592
Probable space group: C 2/C
;
_chemical_formula_sum "Si O2"
_cell_formula_units_Z 32
_cell_length_a 14.196478
_cell_length_b 12.206194
_cell_length_c 9.210576
_cell_angle_alpha 90.000000
_cell_angle_beta 45.343745
_cell_angle_gamma 90.000000
_cell_volume 1135.331393
_symmetry_space_group_name_H-M "C 2/C"
_symmetry_group_IT_number 15
_symmetry_cell_setting 'monoclinic'
loop_
_space_group_symop_operation_xyz
x,y,z
-x,y,1/2-z
-x,-y,-z
x,-y,1/2+z
1/2+x,1/2+y,z
1/2-x,1/2+y,1/2-z
1/2-x,1/2-y,-z
1/2+x,1/2-y,1/2+z
loop_
_atom_site_type_symbol
_atom_site_label
_atom_site_fract_x
_atom_site_fract_y
_atom_site_fract_z
Si Si1 0.862376 0.849161 0.606669
Si Si2 0.812496 0.973571 0.373650
Si Si3 0.060093 0.392266 0.522220
Si Si4 0.648844 0.166085 0.543008
O O1 0.868573 0.900843 0.440807
O O2 0.941133 0.735497 0.529710
O O3 0.704815 0.838132 0.817464
O O4 0.902029 0.939137 0.687482
O O5 0.720869 0.906195 0.362723
O O6 0.698392 0.053210 0.559680
O O7 0.000000 0.389229 0.750000
O O8 0.000000 0.500000 0.500000
O O9 0.500000 0.184045 0.750000
O O10 0.750000 0.250000 0.500000
#
# Coordination Sequence:
#
# PCOD9298592 Si02
#       4
#     8   8   8   8
#     4  10  26  46  77 120 168 217 292 361 435 517
#     4  10  24  44  77 110 168 215 287 352 437 499
#     4  12  27  47  80 121 164 228 291 355 432 535
#     4  10  25  43  80 121 173 228 295 353 444 511
#
# _framework density 28.185603
#
# number of rings (size 3 to 8) (size 9 to 14) (size 15 to 20)
#    1.500    0.000    0.000    3.000   10.500    1.000 
#    0.000    5.000    0.000    0.000    0.000    0.000 
#    0.000    0.000    0.000    0.000    0.000    0.000 
#
# Total GULP energy -89251.188650 kJ/mol
# GULP energy per Si atom -5578.199291 kJ/mol
# Density = 2.812145 g / cm^3
# Si number density = 28.185603 Si / 1000 Ang^3
#
#
#
# Elastic Constant Matrix: (Units=GPa)
#
#
# Indices 1 2 3 4 5 6 
#
# 1 101.7560 86.1563 108.1934 0.0000 -3.3274 0.0000
# 2 86.1563 198.3103 111.4579 0.0000 8.0870 0.0000
# 3 108.1934 111.4579 212.2068 0.0000 -4.2148 0.0000
# 4 0.0000 0.0000 0.0000 63.9145 0.0000 1.9099
# 5 -3.3274 8.0870 -4.2148 0.0000 76.9590 0.0000
# 6 0.0000 0.0000 0.0000 1.9099 0.0000 45.2478
#
#
#
# Elastic Compliance Matrix: (Units=1/GPa)
#
#
# Indices 1 2 3 4 5 6 
#
# 1 0.024818 -0.005288 -0.009854 0.000000 0.001089 0.000000
# 2 -0.005288 0.008353 -0.001715 0.000000 -0.001200 0.000000
# 3 -0.009854 -0.001715 0.010644 0.000000 0.000337 0.000000
# 4 0.000000 0.000000 0.000000 0.015666 0.000000 -0.000661
# 5 0.001089 -0.001200 0.000337 0.000000 0.013186 0.000000
# 6 0.000000 0.000000 0.000000 -0.000661 0.000000 0.022128
#
#
# Mechanical properties :
#
#
# Convention : Reuss Voigt Hill
#
# Bulk Modulus (GPa) = 99.00725 124.87647 111.94186
# Shear Modulus (GPa) = 37.91416 50.98865 44.45140
#
# Velocity S-wave (km/s) = 3.67162 4.25789 3.97558
# Velocity P-wave (km/s) = 7.29229 8.28094 7.80229
#
# Compressibility (1/GPa) = 0.01010027
#
# Stress axis : x y z
#
# Youngs Moduli (GPa) = 40.29258 119.71996 93.94924
#
# Poissons Ratio (x) = 0.63311 0.92582
# Poissons Ratio (y) = 0.21308 0.16110
# Poissons Ratio (z) = 0.39706 0.20530
#
# Static dielectric constant tensor:
#      x y z
#    x 2.953400 0.000000 0.031210 
#    y 0.000000 2.764010 0.000000 
#    z 0.031210 0.000000 2.279690 
# 
# From -- ./inp_files/39810.got.cif
#   From: 2010.05.17/outbox.cif.g08.bks.cpg/sg15_20_cif.got.tgz:39810.got - 2010.06.03 18:47:42.
