data_PCOD9298579
_publ_section_title
;
Structure prediction by ZEFSAII (Michael W. Deem and Ramdas Pophale) SiO2 
 PCOD9298579
Probable space group: C 2/C
;
_chemical_formula_sum "Si O2"
_cell_formula_units_Z 52
_cell_length_a 8.815639
_cell_length_b 13.907139
_cell_length_c 29.185077
_cell_angle_alpha 90.000000
_cell_angle_beta 36.819856
_cell_angle_gamma 90.000000
_cell_volume 2144.358930
_symmetry_space_group_name_H-M "C 2/C"
_symmetry_group_IT_number 15
_symmetry_cell_setting 'monoclinic'
loop_
_space_group_symop_operation_xyz
x,y,z
-x,y,1/2-z
-x,-y,-z
x,-y,1/2+z
1/2+x,1/2+y,z
1/2-x,1/2+y,1/2-z
1/2-x,1/2-y,-z
1/2+x,1/2-y,1/2+z
loop_
_atom_site_type_symbol
_atom_site_label
_atom_site_fract_x
_atom_site_fract_y
_atom_site_fract_z
Si Si1 0.580405 0.193170 0.128649
Si Si2 0.163775 0.690314 0.671839
Si Si3 0.000000 0.336182 0.750000
Si Si4 0.023473 0.127485 0.158992
Si Si5 0.126053 0.538099 0.922377
Si Si6 0.212023 0.521069 0.584116
Si Si7 0.941314 0.277965 0.493558
O O1 0.546801 0.219364 0.190749
O O2 0.407045 0.254259 0.135115
O O3 0.554597 0.075105 0.137824
O O4 0.868562 0.194965 0.039284
O O5 0.268530 0.389183 0.692531
O O6 0.986743 0.782574 0.701333
O O7 0.201644 0.611460 0.622309
O O8 0.000000 0.637148 0.750000
O O9 0.137969 0.027422 0.148162
O O10 0.257197 0.174046 0.074221
O O11 0.926961 0.544245 0.929858
O O12 0.163426 0.648120 0.925486
O O13 0.000000 0.500000 0.000000
O O14 0.500000 0.500000 0.500000
O O15 0.750000 0.250000 0.500000
#
# Coordination Sequence:
#
# PCOD9298579 Si02
#       7
#     8   8   4   8   8   8   8
#     4  12  27  47  77 111 158 211 267 345 409 494
#     4  12  27  50  77 114 164 219 272 340 429 510
#     4  12  26  44  76 108 152 218 268 328 420 492
#     4  11  23  46  74 108 160 201 271 336 411 490
#     4  10  24  44  75 113 150 201 264 334 410 478
#     4  12  28  47  77 119 158 207 274 340 411 496
#     4  11  22  43  76 111 148 203 263 336 396 481
#
# _framework density 24.249670999999999
#
# number of rings (size 3 to 8) (size 9 to 14) (size 15 to 20)
#    0.000    0.615    4.615    2.769    7.538    1.231 
#    0.000    0.000    3.385    0.000    0.000    0.000 
#    0.000    0.000    0.000    0.000    0.000    0.000 
#
# Total GULP energy -144780.314655 kJ/mol
# GULP energy per Si atom -5568.473641 kJ/mol
# Density = 2.419448 g / cm^3
# Si number density = 24.249671 Si / 1000 Ang^3
#
#
#
# Elastic Constant Matrix: (Units=GPa)
#
#
# Indices 1 2 3 4 5 6 
#
# 1 183.6568 52.3049 43.5633 0.0005 -11.0316 0.0002
# 2 52.3049 113.4980 39.4208 -0.0010 1.5676 -0.0001
# 3 43.5633 39.4208 108.0951 0.0032 12.2163 -0.0039
# 4 0.0005 -0.0010 0.0032 19.1483 -0.0021 6.0849
# 5 -11.0316 1.5676 12.2163 -0.0021 42.1539 0.0012
# 6 0.0002 -0.0001 -0.0039 6.0849 0.0012 36.1252
#
#
#
# Elastic Compliance Matrix: (Units=1/GPa)
#
#
# Indices 1 2 3 4 5 6 
#
# 1 0.006790 -0.002422 -0.002134 0.000000 0.002486 0.000000
# 2 -0.002422 0.010974 -0.003006 0.000001 -0.000171 0.000000
# 3 -0.002134 -0.003006 0.011639 -0.000003 -0.003820 0.000002
# 4 0.000000 0.000001 -0.000003 0.055177 0.000004 -0.009294
# 5 0.002486 -0.000171 -0.003820 0.000004 0.025486 -0.000002
# 6 0.000000 0.000000 0.000002 -0.009294 -0.000002 0.029247
#
#
# Mechanical properties :
#
#
# Convention : Reuss Voigt Hill
#
# Bulk Modulus (GPa) = 70.04019 75.09198 72.56608
# Shear Modulus (GPa) = 31.40732 37.48290 34.44511
#
# Velocity S-wave (km/s) = 3.60274 3.93581 3.77296
# Velocity P-wave (km/s) = 6.80088 7.18941 6.99784
#
# Compressibility (1/GPa) = 0.01427752
#
# Stress axis : x y z
#
# Youngs Moduli (GPa) = 147.26846 91.12758 85.91631
#
# Poissons Ratio (x) = 0.22075 0.18335
# Poissons Ratio (y) = 0.35674 0.25830
# Poissons Ratio (z) = 0.31428 0.27396
#
# Static dielectric constant tensor:
#      x y z
#    x 1.761360 0.000030 0.008790 
#    y 0.000030 2.320940 0.000000 
#    z 0.008790 0.000000 2.020930 
# 
# From -- ./inp_files/288354.got.cif
#   From: 2010.05.17/outbox.cif.g08.bks.cpg/sg15_145_cif.got.tgz:288354.got - 2010.06.03 18:47:42.
