data_PCOD9298647
_publ_section_title
;
Structure prediction by ZEFSAII (Michael W. Deem and Ramdas Pophale) SiO2 
 PCOD9298647
Probable space group: C 2/C
;
_chemical_formula_sum "Si O2"
_cell_formula_units_Z 44
_cell_length_a 11.423686
_cell_length_b 8.804244
_cell_length_c 24.049564
_cell_angle_alpha 90.000000
_cell_angle_beta 131.403963
_cell_angle_gamma 90.000000
_cell_volume 1814.281300
_symmetry_space_group_name_H-M "C 2/C"
_symmetry_group_IT_number 15
_symmetry_cell_setting 'monoclinic'
loop_
_space_group_symop_operation_xyz
x,y,z
-x,y,1/2-z
-x,-y,-z
x,-y,1/2+z
1/2+x,1/2+y,z
1/2-x,1/2+y,1/2-z
1/2-x,1/2-y,-z
1/2+x,1/2-y,1/2+z
loop_
_atom_site_type_symbol
_atom_site_label
_atom_site_fract_x
_atom_site_fract_y
_atom_site_fract_z
Si Si1 0.000000 0.181869 0.250000
Si Si2 0.217662 0.892770 0.175544
Si Si3 0.843108 0.724444 0.233276
Si Si4 0.528760 0.847487 0.081420
Si Si5 0.560693 0.564851 0.386995
Si Si6 0.853206 0.370350 0.498849
O O1 0.151631 0.286332 0.311054
O O2 0.980469 0.088332 0.301124
O O3 0.312259 0.044392 0.222026
O O4 0.053659 0.971332 0.106650
O O5 0.153712 0.785747 0.204024
O O6 0.698561 0.812908 0.159960
O O7 0.000000 0.756204 0.250000
O O8 0.420997 0.728839 0.079725
O O9 0.544908 0.812044 0.020851
O O10 0.464859 0.017692 0.068833
O O11 0.723107 0.481524 0.431394
O O12 0.750000 0.250000 0.500000
#
# Coordination Sequence:
#
# PCOD9298647 Si02
#       6
#     4   8   8   8   8   8
#     4  12  24  42  68 102 142 180 222 284 354 420
#     4  11  23  39  65 100 135 181 216 276 344 416
#     4  11  23  39  66  99 139 175 220 277 340 410
#     4  10  24  45  68 101 136 178 233 283 340 415
#     4  11  26  44  69 102 139 182 225 286 350 412
#     4  11  26  46  73  97 132 188 237 293 335 402
#
# _framework density 24.252026999999998
#
# number of rings (size 3 to 8) (size 9 to 14) (size 15 to 20)
#    0.000    1.091    4.545    1.636    3.818    9.455 
#    0.000    0.000    0.000    0.000    0.000    0.000 
#    0.000    0.000    0.000    0.000    0.000    0.000 
#
# Total GULP energy -122915.383468 kJ/mol
# GULP energy per Si atom -5587.062885 kJ/mol
# Density = 2.419683 g / cm^3
# Si number density = 24.252027 Si / 1000 Ang^3
#
#
#
# Elastic Constant Matrix: (Units=GPa)
#
#
# Indices 1 2 3 4 5 6 
#
# 1 119.0724 44.9342 9.0635 0.0000 3.6730 0.0000
# 2 44.9342 91.4701 32.6815 0.0000 -7.9112 0.0000
# 3 9.0635 32.6815 43.9369 0.0000 7.7891 0.0000
# 4 0.0000 0.0000 0.0000 28.6679 0.0000 10.3949
# 5 3.6730 -7.9112 7.7891 0.0000 33.2281 0.0000
# 6 0.0000 0.0000 0.0000 10.3949 0.0000 45.7388
#
#
#
# Elastic Compliance Matrix: (Units=1/GPa)
#
#
# Indices 1 2 3 4 5 6 
#
# 1 0.010853 -0.006924 0.003564 0.000000 -0.003684 0.000000
# 2 -0.006924 0.020740 -0.015661 0.000000 0.009374 0.000000
# 3 0.003564 -0.015661 0.035896 0.000000 -0.012537 0.000000
# 4 0.000000 0.000000 0.000000 0.038015 0.000000 -0.008639
# 5 -0.003684 0.009374 -0.012537 0.000000 0.035673 0.000000
# 6 0.000000 0.000000 0.000000 -0.008639 0.000000 0.023827
#
#
# Mechanical properties :
#
#
# Convention : Reuss Voigt Hill
#
# Bulk Modulus (GPa) = 33.95685 47.53754 40.74720
# Shear Modulus (GPa) = 23.48961 32.71367 28.10164
#
# Velocity S-wave (km/s) = 3.11555 3.67673 3.40771
# Velocity P-wave (km/s) = 5.19367 6.13746 5.68519
#
# Compressibility (1/GPa) = 0.02944914
#
# Stress axis : x y z
#
# Youngs Moduli (GPa) = 92.13728 48.21621 27.85831
#
# Poissons Ratio (x) = 0.33384 -0.09929
# Poissons Ratio (y) = 0.63793 0.43628
# Poissons Ratio (z) = -0.32839 0.75509
#
# Static dielectric constant tensor:
#      x y z
#    x 1.884810 0.000000 0.023710 
#    y 0.000000 1.972440 0.000000 
#    z 0.023710 0.000000 2.011990 
# 
# From -- ./inp_files/236044.got.cif
#   From: 2010.05.17/outbox.cif.g08.bks.cpg/sg15_119_cif.got.tgz:236044.got - 2010.06.03 18:47:42.
