data_PCOD9298917
_publ_section_title
;
Structure prediction by ZEFSAII (Michael W. Deem and Ramdas Pophale) SiO2 
 PCOD9298917
Probable space group: C 2/C
;
_chemical_formula_sum "Si O2"
_cell_formula_units_Z 44
_cell_length_a 5.970160
_cell_length_b 13.326595
_cell_length_c 25.230424
_cell_angle_alpha 90.000000
_cell_angle_beta 100.953100
_cell_angle_gamma 90.000000
_cell_volume 1970.812217
_symmetry_space_group_name_H-M "C 2/C"
_symmetry_group_IT_number 15
_symmetry_cell_setting 'monoclinic'
loop_
_space_group_symop_operation_xyz
x,y,z
-x,y,1/2-z
-x,-y,-z
x,-y,1/2+z
1/2+x,1/2+y,z
1/2-x,1/2+y,1/2-z
1/2-x,1/2-y,-z
1/2+x,1/2-y,1/2+z
loop_
_atom_site_type_symbol
_atom_site_label
_atom_site_fract_x
_atom_site_fract_y
_atom_site_fract_z
Si Si1 0.210851 0.905211 0.616145
Si Si2 0.472538 0.031007 0.937807
Si Si3 0.170944 0.761299 0.305914
Si Si4 0.000000 0.149968 0.250000
Si Si5 0.979616 0.248620 0.470524
Si Si6 0.367998 0.504409 0.668236
O O1 0.367637 0.815039 0.646878
O O2 0.044527 0.844035 0.570022
O O3 0.311760 0.988814 0.582674
O O4 0.117809 0.968512 0.661472
O O5 0.450397 0.149515 0.936694
O O6 0.273495 0.987557 0.891909
O O7 0.500000 0.000000 0.000000
O O8 0.410622 0.723760 0.292069
O O9 0.157442 0.879216 0.318324
O O10 0.000000 0.743577 0.250000
O O11 0.821199 0.072183 0.214324
O O12 0.750000 0.250000 0.500000
O O13 0.250000 0.250000 0.500000
#
# Coordination Sequence:
#
# PCOD9298917 Si02
#       6
#     8   8   8   4   8   8
#     4  11  26  45  71 106 144 194 247 313 371 455
#     4  12  25  44  72 102 150 193 247 302 376 445
#     4  11  23  46  72 100 144 187 242 312 385 445
#     4  10  24  46  70 102 140 182 246 312 370 452
#     4  12  27  47  74 108 150 200 252 307 372 446
#     4  11  24  45  70 106 140 190 247 304 379 449
#
# _framework density 22.325821000000001
#
# number of rings (size 3 to 8) (size 9 to 14) (size 15 to 20)
#    0.000    0.727    4.545    2.182    2.545    2.909 
#    1.636    0.000    0.000    0.000    0.000    0.000 
#    0.000    0.000    0.000    0.000    0.000    0.000 
#
# Total GULP energy -122492.909541 kJ/mol
# GULP energy per Si atom -5567.859525 kJ/mol
# Density = 2.227501 g / cm^3
# Si number density = 22.325821 Si / 1000 Ang^3
#
#
#
# Elastic Constant Matrix: (Units=GPa)
#
#
# Indices 1 2 3 4 5 6 
#
# 1 58.0400 60.0218 39.3613 0.0000 -7.0034 0.0000
# 2 60.0218 171.3327 34.1717 0.0000 -26.7675 0.0000
# 3 39.3613 34.1717 121.4517 0.0000 0.9606 0.0000
# 4 0.0000 0.0000 0.0000 41.4770 0.0000 -15.2131
# 5 -7.0034 -26.7675 0.9606 0.0000 42.0653 0.0000
# 6 0.0000 0.0000 0.0000 -15.2131 0.0000 33.2178
#
#
#
# Elastic Compliance Matrix: (Units=1/GPa)
#
#
# Indices 1 2 3 4 5 6 
#
# 1 0.032842 -0.010067 -0.007805 0.000000 -0.000760 0.000000
# 2 -0.010067 0.010014 0.000408 0.000000 0.004687 0.000000
# 3 -0.007805 0.000408 0.010659 0.000000 -0.001283 0.000000
# 4 0.000000 0.000000 0.000000 0.028977 0.000000 0.013271
# 5 -0.000760 0.004687 -0.001283 0.000000 0.026658 0.000000
# 6 0.000000 0.000000 0.000000 0.013271 0.000000 0.036182
#
#
# Mechanical properties :
#
#
# Convention : Reuss Voigt Hill
#
# Bulk Modulus (GPa) = 53.80398 68.65934 61.23166
# Shear Modulus (GPa) = 26.81578 37.83667 32.32622
#
# Velocity S-wave (km/s) = 3.46946 4.12120 3.80930
# Velocity P-wave (km/s) = 6.34045 7.31203 6.84351
#
# Compressibility (1/GPa) = 0.01858599
#
# Stress axis : x y z
#
# Youngs Moduli (GPa) = 30.44853 99.85696 93.82026
#
# Poissons Ratio (x) = 1.00530 0.73229
# Poissons Ratio (y) = 0.30654 -0.03828
# Poissons Ratio (z) = 0.23766 -0.04075
#
# Static dielectric constant tensor:
#      x y z
#    x 2.000460 0.000000 0.021940 
#    y 0.000000 1.794550 0.000000 
#    z 0.021940 0.000000 1.938730 
# 
# From -- ./inp_files/285489.got.cif
#   From: 2010.05.17/outbox.cif.g08.bks.cpg/sg15_143_cif.got.tgz:285489.got - 2010.06.03 18:47:42.
