data_PCOD9298289
_publ_section_title
;
Structure prediction by ZEFSAII (Michael W. Deem and Ramdas Pophale) SiO2 
 PCOD9298289
Probable space group: C 2/C
;
_chemical_formula_sum "Si O2"
_cell_formula_units_Z 56
_cell_length_a 15.783413
_cell_length_b 6.793945
_cell_length_c 24.647609
_cell_angle_alpha 90.000000
_cell_angle_beta 66.663594
_cell_angle_gamma 90.000000
_cell_volume 2426.792269
_symmetry_space_group_name_H-M "C 2/C"
_symmetry_group_IT_number 15
_symmetry_cell_setting 'monoclinic'
loop_
_space_group_symop_operation_xyz
x,y,z
-x,y,1/2-z
-x,-y,-z
x,-y,1/2+z
1/2+x,1/2+y,z
1/2-x,1/2+y,1/2-z
1/2-x,1/2-y,-z
1/2+x,1/2-y,1/2+z
loop_
_atom_site_type_symbol
_atom_site_label
_atom_site_fract_x
_atom_site_fract_y
_atom_site_fract_z
Si Si1 0.775806 0.242479 0.300774
Si Si2 0.466612 0.265109 0.698572
Si Si3 0.867551 0.975525 0.368864
Si Si4 0.245463 0.143095 0.370881
Si Si5 0.642559 0.515342 0.503677
Si Si6 0.966650 0.707846 0.028054
Si Si7 0.381435 0.007701 0.644772
O O1 0.857544 0.215987 0.236694
O O2 0.812555 0.130782 0.345609
O O3 0.752514 0.460027 0.328149
O O4 0.691071 0.112535 0.300597
O O5 0.500000 0.207932 0.750000
O O6 0.526427 0.451329 0.663592
O O7 0.469582 0.094473 0.653323
O O8 0.841193 0.763416 0.351407
O O9 0.832251 0.980167 0.439665
O O10 0.216075 0.070093 0.438615
O O11 0.169255 0.307185 0.371830
O O12 0.600022 0.305520 0.498747
O O13 0.555185 0.659950 0.517836
O O14 0.910239 0.661400 0.095990
O O15 0.000000 0.500000 0.000000
#
# Coordination Sequence:
#
# PCOD9298289 Si02
#       7
#     8   8   8   8   8   8   8
#     4  10  24  46  67 100 133 181 234 287 346 408
#     4  10  24  47  68  98 135 179 238 289 350 405
#     4  10  24  44  66 100 143 178 225 289 341 412
#     4  11  23  43  68 104 136 183 231 276 354 415
#     4  11  23  39  67 103 137 181 229 271 347 421
#     4  11  22  39  63  99 137 178 221 278 340 413
#     4  11  23  43  69  97 140 177 230 289 343 417
#
# _framework density 23.075728000000002
#
# number of rings (size 3 to 8) (size 9 to 14) (size 15 to 20)
#    0.000    1.429    2.857    1.286    4.000    4.000 
#    0.000   13.571    0.000    0.000    0.000    0.000 
#    0.000    0.000    0.000    0.000    0.000    0.000 
#
# Total GULP energy -156435.410472 kJ/mol
# GULP energy per Si atom -5586.978945 kJ/mol
# Density = 2.302321 g / cm^3
# Si number density = 23.075728 Si / 1000 Ang^3
#
#
#
# Elastic Constant Matrix: (Units=GPa)
#
#
# Indices 1 2 3 4 5 6 
#
# 1 41.5851 35.1148 17.6201 -0.0001 -10.6664 0.0001
# 2 35.1148 129.7484 30.6988 -0.0003 -8.3403 0.0003
# 3 17.6201 30.6988 95.8474 0.0000 3.1080 0.0000
# 4 -0.0001 -0.0003 0.0000 15.9849 0.0000 -4.2015
# 5 -10.6664 -8.3403 3.1080 0.0000 40.5075 0.0000
# 6 0.0001 0.0003 0.0000 -4.2015 0.0000 36.3163
#
#
#
# Elastic Compliance Matrix: (Units=1/GPa)
#
#
# Indices 1 2 3 4 5 6 
#
# 1 0.034379 -0.007846 -0.004058 0.000000 0.007749 0.000000
# 2 -0.007846 0.010283 -0.001857 0.000000 0.000194 0.000000
# 3 -0.004058 -0.001857 0.011851 0.000000 -0.002360 0.000000
# 4 0.000000 0.000000 0.000000 0.064521 0.000000 0.007465
# 5 0.007749 0.000194 -0.002360 0.000000 0.026948 0.000000
# 6 0.000000 0.000000 0.000000 0.007465 0.000000 0.028399
#
#
# Mechanical properties :
#
#
# Convention : Reuss Voigt Hill
#
# Bulk Modulus (GPa) = 34.49556 48.22760 41.36158
# Shear Modulus (GPa) = 23.41176 30.81155 27.11165
#
# Velocity S-wave (km/s) = 3.18867 3.65805 3.43140
# Velocity P-wave (km/s) = 5.34211 6.22791 5.80194
#
# Compressibility (1/GPa) = 0.02898923
#
# Stress axis : x y z
#
# Youngs Moduli (GPa) = 29.08716 97.25218 84.38305
#
# Poissons Ratio (x) = 0.76305 0.34246
# Poissons Ratio (y) = 0.22822 0.15672
# Poissons Ratio (z) = 0.11805 0.18062
#
# Static dielectric constant tensor:
#      x y z
#    x 2.085770 0.000000 -0.462180 
#    y 0.000000 1.852320 0.000000 
#    z -0.462180 0.000000 3.145970 
# 
# From -- ./inp_files/297723.got.cif
#   From: 2010.05.17/outbox.cif.g08.bks.cpg/sg15_149_cif.got.tgz:297723.got - 2010.06.03 18:47:42.
