data_PCOD9298953
_publ_section_title
;
Structure prediction by ZEFSAII (Michael W. Deem and Ramdas Pophale) SiO2 
 PCOD9298953
Probable space group: C 2/C
;
_chemical_formula_sum "Si O2"
_cell_formula_units_Z 44
_cell_length_a 23.719653
_cell_length_b 11.024628
_cell_length_c 17.894869
_cell_angle_alpha 90.000000
_cell_angle_beta 21.892177
_cell_angle_gamma 90.000000
_cell_volume 1744.808907
_symmetry_space_group_name_H-M "C 2/C"
_symmetry_group_IT_number 15
_symmetry_cell_setting 'monoclinic'
loop_
_space_group_symop_operation_xyz
x,y,z
-x,y,1/2-z
-x,-y,-z
x,-y,1/2+z
1/2+x,1/2+y,z
1/2-x,1/2+y,1/2-z
1/2-x,1/2-y,-z
1/2+x,1/2-y,1/2+z
loop_
_atom_site_type_symbol
_atom_site_label
_atom_site_fract_x
_atom_site_fract_y
_atom_site_fract_z
Si Si1 0.710773 0.507408 0.219534
Si Si2 0.500000 0.703273 0.250000
Si Si3 0.391372 0.166451 0.313705
Si Si4 0.722281 0.447088 0.369947
Si Si5 0.959299 0.849840 0.464497
Si Si6 0.554600 0.087214 0.790209
O O1 0.710131 0.424180 0.295891
O O2 0.607783 0.437048 0.287196
O O3 0.622043 0.628257 0.356131
O O4 0.880417 0.547031 0.994713
O O5 0.387859 0.625596 0.439333
O O6 0.420577 0.793206 0.288057
O O7 0.500000 0.180196 0.250000
O O8 0.250000 0.250000 0.500000
O O9 0.485386 0.219628 0.128166
O O10 0.350831 0.026501 0.356599
O O11 0.661028 0.587336 0.444499
O O12 0.888463 0.413925 0.194976
#
# Coordination Sequence:
#
# PCOD9298953 Si02
#       6
#     8   4   8   8   8   8
#     4   9  22  46  70 103 142 177 240 284 347 423
#     4  12  28  44  70 100 154 178 236 296 354 420
#     4  12  25  42  71 102 141 176 230 293 345 413
#     4  10  24  46  71 101 136 191 228 283 356 425
#     4   9  22  44  73 100 138 187 226 285 357 415
#     4  12  25  45  69 106 136 183 237 291 345 416
#
# _framework density 25.217662000000001
#
# number of rings (size 3 to 8) (size 9 to 14) (size 15 to 20)
#    1.091    0.364    0.909    3.273    3.818    2.909 
#    6.545    0.000    0.000    0.000    0.000    0.000 
#    0.000    0.000    0.000    0.000    0.000    0.000 
#
# Total GULP energy -122918.288466 kJ/mol
# GULP energy per Si atom -5587.194930 kJ/mol
# Density = 2.516027 g / cm^3
# Si number density = 25.217662 Si / 1000 Ang^3
#
#
#
# Elastic Constant Matrix: (Units=GPa)
#
#
# Indices 1 2 3 4 5 6 
#
# 1 77.5586 -5.7361 6.1103 0.0000 -13.5450 0.0000
# 2 -5.7361 70.9189 11.4464 0.0000 11.9706 0.0000
# 3 6.1103 11.4464 76.4336 -0.0001 4.9766 0.0001
# 4 0.0000 0.0000 -0.0001 24.3985 0.0000 4.2945
# 5 -13.5450 11.9706 4.9766 0.0000 42.3083 0.0000
# 6 0.0000 0.0000 0.0001 4.2945 0.0000 28.5484
#
#
#
# Elastic Compliance Matrix: (Units=1/GPa)
#
#
# Indices 1 2 3 4 5 6 
#
# 1 0.013829 0.000611 -0.001485 0.000000 0.004429 0.000000
# 2 0.000611 0.015132 -0.002065 0.000000 -0.003843 0.000000
# 3 -0.001485 -0.002065 0.013608 0.000000 -0.001492 0.000000
# 4 0.000000 0.000000 0.000000 0.042101 0.000000 -0.006333
# 5 0.004429 -0.003843 -0.001492 0.000000 0.026317 0.000000
# 6 0.000000 0.000000 0.000000 -0.006333 0.000000 0.035981
#
#
# Mechanical properties :
#
#
# Convention : Reuss Voigt Hill
#
# Bulk Modulus (GPa) = 27.25493 27.61692 27.43593
# Shear Modulus (GPa) = 30.28884 33.25708 31.77296
#
# Velocity S-wave (km/s) = 3.46944 3.63547 3.55343
# Velocity P-wave (km/s) = 5.18466 5.34765 5.26679
#
# Compressibility (1/GPa) = 0.03669060
#
# Stress axis : x y z
#
# Youngs Moduli (GPa) = 72.31071 66.08546 73.48429
#
# Poissons Ratio (x) = -0.04036 0.10915
# Poissons Ratio (y) = -0.04416 0.15172
# Poissons Ratio (z) = 0.10741 0.13645
#
# Static dielectric constant tensor:
#      x y z
#    x 2.058830 0.000000 0.031190 
#    y 0.000000 2.013860 0.000000 
#    z 0.031190 0.000000 2.020220 
# 
# From -- ./inp_files/257472.got.cif
#   From: 2010.05.17/outbox.cif.g08.bks.cpg/sg15_129_cif.got.tgz:257472.got - 2010.06.03 18:47:42.
