data_PCOD9298961
_publ_section_title
;
Structure prediction by ZEFSAII (Michael W. Deem and Ramdas Pophale) SiO2 
 PCOD9298961
Probable space group: C 2/C
;
_chemical_formula_sum "Si O2"
_cell_formula_units_Z 52
_cell_length_a 18.051082
_cell_length_b 13.576765
_cell_length_c 15.152711
_cell_angle_alpha 90.000000
_cell_angle_beta 40.976377
_cell_angle_gamma 90.000000
_cell_volume 2435.155658
_symmetry_space_group_name_H-M "C 2/C"
_symmetry_group_IT_number 15
_symmetry_cell_setting 'monoclinic'
loop_
_space_group_symop_operation_xyz
x,y,z
-x,y,1/2-z
-x,-y,-z
x,-y,1/2+z
1/2+x,1/2+y,z
1/2-x,1/2+y,1/2-z
1/2-x,1/2-y,-z
1/2+x,1/2-y,1/2+z
loop_
_atom_site_type_symbol
_atom_site_label
_atom_site_fract_x
_atom_site_fract_y
_atom_site_fract_z
Si Si1 0.984154 0.501891 0.409563
Si Si2 0.105479 0.851427 0.706686
Si Si3 0.759344 0.034417 0.929537
Si Si4 0.068805 0.183675 0.779990
Si Si5 0.000000 0.663947 0.750000
Si Si6 0.293693 0.880072 0.836787
Si Si7 0.430365 0.397244 0.561637
O O1 0.863736 0.551538 0.499167
O O2 0.984609 0.402272 0.350747
O O3 0.000000 0.500000 0.500000
O O4 0.090335 0.560828 0.276826
O O5 0.103221 0.740149 0.673111
O O6 0.072049 0.851411 0.839099
O O7 0.000000 0.900892 0.750000
O O8 0.213186 0.918655 0.591869
O O9 0.861178 0.082367 0.784404
O O10 0.761134 0.087408 0.021994
O O11 0.163844 0.267968 0.703215
O O12 0.000000 0.196995 0.750000
O O13 0.985943 0.174686 0.938174
O O14 0.200892 0.908460 0.847742
O O15 0.500000 0.500000 0.500000
#
# Coordination Sequence:
#
# PCOD9298961 Si02
#       7
#     8   8   8   8   4   8   8
#     4  12  27  48  70 107 150 200 246 311 379 453
#     4  10  24  46  71 105 143 192 248 303 370 447
#     4  12  22  47  73 104 153 192 245 312 377 444
#     4  12  26  44  76 111 148 192 245 313 375 455
#     4  10  26  50  70 102 144 192 254 304 376 446
#     4  12  27  45  76 106 150 192 246 310 378 449
#     4  12  25  48  74 110 146 195 253 306 379 451
#
# _framework density 21.353871000000002
#
# number of rings (size 3 to 8) (size 9 to 14) (size 15 to 20)
#    0.462    0.000    4.615    3.692    4.308    0.615 
#    0.000    0.000    0.000    0.000    0.000    0.000 
#    0.000    0.000    0.000    0.000    0.000    0.000 
#
# Total GULP energy -145256.138321 kJ/mol
# GULP energy per Si atom -5586.774551 kJ/mol
# Density = 2.130527 g / cm^3
# Si number density = 21.353871 Si / 1000 Ang^3
#
#
#
# Elastic Constant Matrix: (Units=GPa)
#
#
# Indices 1 2 3 4 5 6 
#
# 1 150.1565 32.4725 33.2927 0.0000 -2.2148 0.0000
# 2 32.4725 99.7298 22.7217 0.0000 11.1007 0.0000
# 3 33.2927 22.7217 76.2223 0.0000 -0.7358 0.0000
# 4 0.0000 0.0000 0.0000 73.7361 0.0000 0.5115
# 5 -2.2148 11.1007 -0.7358 0.0000 35.2920 0.0000
# 6 0.0000 0.0000 0.0000 0.5115 0.0000 36.7546
#
#
#
# Elastic Compliance Matrix: (Units=1/GPa)
#
#
# Indices 1 2 3 4 5 6 
#
# 1 0.007721 -0.002002 -0.002766 0.000000 0.001056 0.000000
# 2 -0.002002 0.011714 -0.002655 0.000000 -0.003865 0.000000
# 3 -0.002766 -0.002655 0.015128 0.000000 0.000977 0.000000
# 4 0.000000 0.000000 0.000000 0.013563 0.000000 -0.000189
# 5 0.001056 -0.003865 0.000977 0.000000 0.029638 0.000000
# 6 0.000000 0.000000 0.000000 -0.000189 0.000000 0.027210
#
#
# Mechanical properties :
#
#
# Convention : Reuss Voigt Hill
#
# Bulk Modulus (GPa) = 50.71191 55.89804 53.30498
# Shear Modulus (GPa) = 39.55940 44.99798 42.27869
#
# Velocity S-wave (km/s) = 4.30881 4.59546 4.45444
# Velocity P-wave (km/s) = 6.96810 7.37506 7.17446
#
# Compressibility (1/GPa) = 0.01971923
#
# Stress axis : x y z
#
# Youngs Moduli (GPa) = 129.51064 85.36813 66.10078
#
# Poissons Ratio (x) = 0.17087 0.18282
# Poissons Ratio (y) = 0.25923 0.17550
# Poissons Ratio (z) = 0.35819 0.22665
#
# Static dielectric constant tensor:
#      x y z
#    x 1.800570 0.000000 0.086440 
#    y 0.000000 1.791380 0.000000 
#    z 0.086440 0.000000 2.111010 
# 
# From -- ./inp_files/162496.got.cif
#   From: 2010.05.17/outbox.cif.g08.bks.cpg/sg15_82_cif.got.tgz:162496.got - 2010.06.03 18:47:42.
