data_PCOD9298701
_publ_section_title
;
Structure prediction by ZEFSAII (Michael W. Deem and Ramdas Pophale) SiO2 
 PCOD9298701
Probable space group: C 2/C
;
_chemical_formula_sum "Si O2"
_cell_formula_units_Z 40
_cell_length_a 12.844860
_cell_length_b 8.566275
_cell_length_c 15.746803
_cell_angle_alpha 90.000000
_cell_angle_beta 66.335001
_cell_angle_gamma 90.000000
_cell_volume 1586.958675
_symmetry_space_group_name_H-M "C 2/C"
_symmetry_group_IT_number 15
_symmetry_cell_setting 'monoclinic'
loop_
_space_group_symop_operation_xyz
x,y,z
-x,y,1/2-z
-x,-y,-z
x,-y,1/2+z
1/2+x,1/2+y,z
1/2-x,1/2+y,1/2-z
1/2-x,1/2-y,-z
1/2+x,1/2-y,1/2+z
loop_
_atom_site_type_symbol
_atom_site_label
_atom_site_fract_x
_atom_site_fract_y
_atom_site_fract_z
Si Si1 0.873093 0.144581 0.381429
Si Si2 0.733664 0.027349 0.264408
Si Si3 0.712775 0.985166 0.080656
Si Si4 0.556518 0.382553 0.315950
Si Si5 0.500969 0.896550 0.916897
O O1 0.806168 0.070181 0.482963
O O2 0.870478 0.331702 0.385967
O O3 0.796941 0.113913 0.321777
O O4 0.992774 0.050548 0.341644
O O5 0.755360 0.047778 0.156847
O O6 0.809499 0.869955 0.247242
O O7 0.600239 0.030018 0.325378
O O8 0.627679 0.111630 0.071628
O O9 0.500000 0.309016 0.250000
O O10 0.537263 0.284085 0.407061
O O11 0.500000 0.000000 0.000000
#
# Coordination Sequence:
#
# PCOD9298701 Si02
#       5
#     8   8   8   8   8
#     4  10  24  47  68 109 139 182 239 291 350 424
#     4  11  23  43  72  99 136 184 231 289 346 415
#     4  11  24  44  74  99 144 185 233 293 353 418
#     4  10  24  45  70 102 142 179 240 291 351 421
#     4  12  25  46  68 104 142 185 236 293 351 420
#
# _framework density 25.205445999999998
#
# number of rings (size 3 to 8) (size 9 to 14) (size 15 to 20)
#    0.000    1.200    2.000    3.000    2.800    9.600 
#    7.200    0.000    0.000    0.000    0.000    0.000 
#    0.000    0.000    0.000    0.000    0.000    0.000 
#
# Total GULP energy -111450.105010 kJ/mol
# GULP energy per Si atom -5572.505250 kJ/mol
# Density = 2.514808 g / cm^3
# Si number density = 25.205446 Si / 1000 Ang^3
#
#
#
# Elastic Constant Matrix: (Units=GPa)
#
#
# Indices 1 2 3 4 5 6 
#
# 1 90.5205 -7.9355 28.6454 0.0000 7.5073 0.0000
# 2 -7.9355 55.1533 0.0190 0.0000 -16.3098 0.0000
# 3 28.6454 0.0190 91.7863 0.0000 6.6173 0.0000
# 4 0.0000 0.0000 0.0000 29.4067 0.0000 -8.5917
# 5 7.5073 -16.3098 6.6173 0.0000 40.6921 0.0000
# 6 0.0000 0.0000 0.0000 -8.5917 0.0000 39.0932
#
#
#
# Elastic Compliance Matrix: (Units=1/GPa)
#
#
# Indices 1 2 3 4 5 6 
#
# 1 0.012474 0.001474 -0.003815 0.000000 -0.001090 0.000000
# 2 0.001474 0.020777 -0.001057 0.000000 0.008228 0.000000
# 3 -0.003815 -0.001057 0.012209 0.000000 -0.001705 0.000000
# 4 0.000000 0.000000 0.000000 0.036339 0.000000 0.007986
# 5 -0.001090 0.008228 -0.001705 0.000000 0.028351 0.000000
# 6 0.000000 0.000000 0.000000 0.007986 0.000000 0.027335
#
#
# Mechanical properties :
#
#
# Convention : Reuss Voigt Hill
#
# Bulk Modulus (GPa) = 25.86487 30.99087 28.42787
# Shear Modulus (GPa) = 31.81290 36.28713 34.05001
#
# Velocity S-wave (km/s) = 3.55652 3.79839 3.67945
# Velocity P-wave (km/s) = 5.21047 5.61775 5.41794
#
# Compressibility (1/GPa) = 0.03866248
#
# Stress axis : x y z
#
# Youngs Moduli (GPa) = 80.16676 48.13077 81.90973
#
# Poissons Ratio (x) = -0.07093 0.31246
# Poissons Ratio (y) = -0.11814 0.08661
# Poissons Ratio (z) = 0.30581 0.05089
#
# Static dielectric constant tensor:
#      x y z
#    x 2.019900 0.000000 0.031490 
#    y 0.000000 2.114090 0.000000 
#    z 0.031490 0.000000 2.008420 
# 
# From -- ./inp_files/150585.got.cif
#   From: 2010.05.17/outbox.cif.g08.bks.cpg/sg15_76_cif.got.tgz:150585.got - 2010.06.03 18:47:42.
