data_PCOD9298008
_publ_section_title
;
Structure prediction by ZEFSAII (Michael W. Deem and Ramdas Pophale) SiO2 
 PCOD9298008
Probable space group: C 2/C
;
_chemical_formula_sum "Si O2"
_cell_formula_units_Z 36
_cell_length_a 6.695880
_cell_length_b 18.888005
_cell_length_c 12.000637
_cell_angle_alpha 90.000000
_cell_angle_beta 83.768381
_cell_angle_gamma 90.000000
_cell_volume 1508.774325
_symmetry_space_group_name_H-M "C 2/C"
_symmetry_group_IT_number 15
_symmetry_cell_setting 'monoclinic'
loop_
_space_group_symop_operation_xyz
x,y,z
-x,y,1/2-z
-x,-y,-z
x,-y,1/2+z
1/2+x,1/2+y,z
1/2-x,1/2+y,1/2-z
1/2-x,1/2-y,-z
1/2+x,1/2-y,1/2+z
loop_
_atom_site_type_symbol
_atom_site_label
_atom_site_fract_x
_atom_site_fract_y
_atom_site_fract_z
Si Si1 0.602074 0.642142 0.478292
Si Si2 0.336222 0.694386 0.665014
Si Si3 0.241895 0.057537 0.939420
Si Si4 0.027880 0.415781 0.620624
Si Si5 0.000000 0.805630 0.750000
O O1 0.480675 0.704075 0.548212
O O2 0.497731 0.572442 0.537885
O O3 0.839846 0.637362 0.463499
O O4 0.550530 0.647760 0.352727
O O5 0.500000 0.678952 0.750000
O O6 0.204988 0.625543 0.640736
O O7 0.191218 0.757105 0.708168
O O8 0.336717 0.987165 0.883915
O O9 0.333855 0.067453 0.057849
O O10 0.000000 0.392054 0.750000
#
# Coordination Sequence:
#
# PCOD9298008 Si02
#       5
#     8   8   8   8   4
#     4  10  24  43  64  96 132 169 220 274 324 388
#     4  10  26  42  65  96 130 183 216 277 318 392
#     4   9  24  42  64 100 133 170 220 270 329 396
#     4  11  22  41  71  99 133 175 213 276 336 395
#     4  12  24  44  68  96 132 180 228 266 326 392
#
# _framework density 23.860427999999999
#
# number of rings (size 3 to 8) (size 9 to 14) (size 15 to 20)
#    1.333    0.444    0.000    2.667    4.667    5.333 
#    2.000    0.000    0.000    0.000    0.000    0.000 
#    0.000    0.000    0.000    0.000    0.000    0.000 
#
# Total GULP energy -100386.475390 kJ/mol
# GULP energy per Si atom -5577.026411 kJ/mol
# Density = 2.380612 g / cm^3
# Si number density = 23.860428 Si / 1000 Ang^3
#
#
#
# Elastic Constant Matrix: (Units=GPa)
#
#
# Indices 1 2 3 4 5 6 
#
# 1 92.6932 19.5795 32.6344 0.0000 -19.8609 0.0000
# 2 19.5795 72.8980 -18.2053 0.0000 -9.7743 0.0000
# 3 32.6344 -18.2053 71.1273 0.0000 -5.8799 0.0000
# 4 0.0000 0.0000 0.0000 166.7965 0.0000 181.3043
# 5 -19.8609 -9.7743 -5.8799 0.0000 47.8868 0.0000
# 6 0.0000 0.0000 0.0000 181.3043 0.0000 265.7157
#
#
#
# Elastic Compliance Matrix: (Units=1/GPa)
#
#
# Indices 1 2 3 4 5 6 
#
# 1 0.015916 -0.005790 -0.008422 0.000000 0.004385 0.000000
# 2 -0.005790 0.017361 0.007268 0.000000 0.002035 0.000000
# 3 -0.008422 0.007268 0.019819 0.000000 0.000424 0.000000
# 4 0.000000 0.000000 0.000000 0.023208 0.000000 -0.015836
# 5 0.004385 0.002035 0.000424 0.000000 0.023169 0.000000
# 6 0.000000 0.000000 0.000000 -0.015836 0.000000 0.014568
#
#
# Mechanical properties :
#
#
# Convention : Reuss Voigt Hill
#
# Bulk Modulus (GPa) = 25.50479 33.85951 29.68215
# Shear Modulus (GPa) = 35.46142 109.59378 72.52760
#
# Velocity S-wave (km/s) = 3.85931 6.78461 5.51929
# Velocity P-wave (km/s) = 5.52914 8.69460 7.28586
#
# Compressibility (1/GPa) = 0.03920832
#
# Stress axis : x y z
#
# Youngs Moduli (GPa) = 62.82960 57.60051 50.45685
#
# Poissons Ratio (x) = 0.33352 0.42495
# Poissons Ratio (y) = 0.36379 -0.36674
# Poissons Ratio (z) = 0.52915 -0.41866
#
# Static dielectric constant tensor:
#      x y z
#    x 1.998060 0.000000 -0.088410 
#    y 0.000000 1.978210 0.000000 
#    z -0.088410 0.000000 1.911230 
# 
# From -- ./inp_files/76368.got.cif
#   From: 2010.05.17/outbox.cif.g08.bks.cpg/sg15_39_cif.got.tgz:76368.got - 2010.06.03 18:47:42.
