data_PCOD9298042
_publ_section_title
;
Structure prediction by ZEFSAII (Michael W. Deem and Ramdas Pophale) SiO2 
 PCOD9298042
Probable space group: C 2/C
;
_chemical_formula_sum "Si O2"
_cell_formula_units_Z 64
_cell_length_a 17.108859
_cell_length_b 32.998424
_cell_length_c 11.638206
_cell_angle_alpha 90.000000
_cell_angle_beta 29.541363
_cell_angle_gamma 90.000000
_cell_volume 3239.610505
_symmetry_space_group_name_H-M "C 2/C"
_symmetry_group_IT_number 15
_symmetry_cell_setting 'monoclinic'
loop_
_space_group_symop_operation_xyz
x,y,z
-x,y,1/2-z
-x,-y,-z
x,-y,1/2+z
1/2+x,1/2+y,z
1/2-x,1/2+y,1/2-z
1/2-x,1/2-y,-z
1/2+x,1/2-y,1/2+z
loop_
_atom_site_type_symbol
_atom_site_label
_atom_site_fract_x
_atom_site_fract_y
_atom_site_fract_z
Si Si1 0.810610 0.408861 0.802213
Si Si2 0.337892 0.554060 0.777558
Si Si3 0.175904 0.587851 0.559399
Si Si4 0.190519 0.844990 0.777090
Si Si5 0.195102 0.968426 0.771628
Si Si6 0.831319 0.387388 0.172732
Si Si7 0.093674 0.822635 0.510357
Si Si8 0.160474 0.734196 0.498548
O O1 0.716737 0.371609 0.858856
O O2 0.814147 0.444813 0.703131
O O3 0.988191 0.392913 0.600048
O O4 0.727571 0.429553 0.017734
O O5 0.262193 0.514046 0.815167
O O6 0.521729 0.540278 0.547240
O O7 0.292328 0.590019 0.750538
O O8 0.215527 0.628989 0.439753
O O9 0.301387 0.555606 0.352837
O O10 0.181043 0.592938 0.686836
O O11 0.000000 0.574634 0.750000
O O12 0.254748 0.799201 0.687499
O O13 0.013568 0.839454 0.955694
O O14 0.766245 0.342311 0.277618
O O15 0.112847 0.774396 0.490018
O O16 0.000000 0.833289 0.750000
O O17 0.250000 0.750000 0.500000
O O18 0.000000 0.714295 0.750000
#
# Coordination Sequence:
#
# PCOD9298042 Si02
#       8
#     8   8   8   8   8   8   8   8
#     4  11  25  43  63  90 127 176 215 261 330 402
#     4  11  26  44  63  92 122 165 225 266 325 393
#     4  11  20  37  61  95 124 161 211 256 334 391
#     4  11  21  38  61  89 136 179 208 265 331 388
#     4  10  24  43  66  88 122 166 207 276 326 391
#     4  12  23  38  64  91 129 168 210 277 324 391
#     4  11  22  35  57  98 134 166 215 265 324 389
#     4  11  20  33  58  98 140 174 211 277 330 389
#
# _framework density 19.755461
#
# number of rings (size 3 to 8) (size 9 to 14) (size 15 to 20)
#    0.000    1.000    6.250    2.625    3.500    1.500 
#    0.000    0.000    0.000    0.750    0.000    3.500 
#    0.000    0.000    0.000    0.000    0.000    0.000 
#
# Total GULP energy -178412.624055 kJ/mol
# GULP energy per Si atom -5575.394502 kJ/mol
# Density = 1.971050 g / cm^3
# Si number density = 19.755461 Si / 1000 Ang^3
#
#
#
# Elastic Constant Matrix: (Units=GPa)
#
#
# Indices 1 2 3 4 5 6 
#
# 1 55.2297 29.8043 26.3245 0.0000 8.7132 0.0000
# 2 29.8043 119.3888 43.4381 0.0000 2.5777 0.0000
# 3 26.3245 43.4381 94.9095 0.0000 5.7714 0.0000
# 4 0.0000 0.0000 0.0000 33.5631 0.0000 -4.1790
# 5 8.7132 2.5777 5.7714 0.0000 29.4749 0.0000
# 6 0.0000 0.0000 0.0000 -4.1790 0.0000 15.5531
#
#
#
# Elastic Compliance Matrix: (Units=1/GPa)
#
#
# Indices 1 2 3 4 5 6 
#
# 1 0.023246 -0.004152 -0.004202 0.000000 -0.005686 0.000000
# 2 -0.004152 0.010791 -0.003850 0.000000 0.001038 0.000000
# 3 -0.004202 -0.003850 0.013529 0.000000 -0.001070 0.000000
# 4 0.000000 0.000000 0.000000 0.030826 0.000000 0.008283
# 5 -0.005686 0.001038 -0.001070 0.000000 0.035727 0.000000
# 6 0.000000 0.000000 0.000000 0.008283 0.000000 0.066521
#
#
# Mechanical properties :
#
#
# Convention : Reuss Voigt Hill
#
# Bulk Modulus (GPa) = 43.18022 52.07353 47.62687
# Shear Modulus (GPa) = 23.49979 27.04897 25.27438
#
# Velocity S-wave (km/s) = 3.45270 3.70427 3.58070
# Velocity P-wave (km/s) = 6.14815 6.68669 6.42306
#
# Compressibility (1/GPa) = 0.02315875
#
# Stress axis : x y z
#
# Youngs Moduli (GPa) = 43.01731 92.67040 73.91486
#
# Poissons Ratio (x) = 0.38474 0.31057
# Poissons Ratio (y) = 0.17860 0.28460
# Poissons Ratio (z) = 0.18075 0.35681
#
# Static dielectric constant tensor:
#      x y z
#    x 1.757170 0.000000 -0.047700 
#    y 0.000000 1.737070 0.000000 
#    z -0.047700 0.000000 1.737840 
# 
# From -- ./inp_files/108644.got.cif
#   From: 2010.05.17/outbox.cif.g08.bks.cpg/sg15_55_cif.got.tgz:108644.got - 2010.06.03 18:47:42.
