data_PCOD9298228
_publ_section_title
;
Structure prediction by ZEFSAII (Michael W. Deem and Ramdas Pophale) SiO2 
 PCOD9298228
Probable space group: C 2/C
;
_chemical_formula_sum "Si O2"
_cell_formula_units_Z 44
_cell_length_a 11.274114
_cell_length_b 26.401045
_cell_length_c 10.291243
_cell_angle_alpha 90.000000
_cell_angle_beta 135.584442
_cell_angle_gamma 90.000000
_cell_volume 2143.783296
_symmetry_space_group_name_H-M "C 2/C"
_symmetry_group_IT_number 15
_symmetry_cell_setting 'monoclinic'
loop_
_space_group_symop_operation_xyz
x,y,z
-x,y,1/2-z
-x,-y,-z
x,-y,1/2+z
1/2+x,1/2+y,z
1/2-x,1/2+y,1/2-z
1/2-x,1/2-y,-z
1/2+x,1/2-y,1/2+z
loop_
_atom_site_type_symbol
_atom_site_label
_atom_site_fract_x
_atom_site_fract_y
_atom_site_fract_z
Si Si1 0.481759 0.810565 0.945984
Si Si2 0.500000 0.106767 0.250000
Si Si3 0.500000 0.453261 0.750000
Si Si4 0.663756 0.393454 0.090705
Si Si5 0.500000 0.148712 0.750000
Si Si6 0.309234 0.551613 0.628130
Si Si7 0.367803 0.704179 0.762612
O O1 0.434430 0.857767 0.817500
O O2 0.382776 0.759574 0.836662
O O3 0.480752 0.821231 0.099162
O O4 0.678139 0.801919 0.061812
O O5 0.658980 0.073941 0.424699
O O6 0.479631 0.419127 0.607765
O O7 0.341254 0.491888 0.635402
O O8 0.827643 0.382436 0.131711
O O9 0.721649 0.431565 0.248989
O O10 0.608528 0.340826 0.114581
O O11 0.500000 0.573263 0.750000
O O12 0.500000 0.699840 0.750000
#
# Coordination Sequence:
#
# PCOD9298228 Si02
#       7
#     8   4   4   8   4   8   8
#     4  11  25  40  68 106 142 189 238 286 361 430
#     4  12  22  45  73 106 144 193 231 300 358 410
#     4  10  26  45  71 102 136 183 245 302 374 422
#     4  11  23  46  66 100 141 188 231 308 361 426
#     4  10  24  44  62 102 150 178 240 288 360 440
#     4  10  24  45  72 102 138 180 251 294 352 429
#     4  11  23  41  68 101 140 182 243 291 354 431
#
# _framework density 20.524463000000001
#
# number of rings (size 3 to 8) (size 9 to 14) (size 15 to 20)
#    0.545    0.727    4.545    1.636    0.000    7.273 
#    0.000    1.818    0.000    0.000    0.000    0.000 
#    0.000    0.000    0.000    0.000    0.000    0.000 
#
# Total GULP energy -122853.455869 kJ/mol
# GULP energy per Si atom -5584.247994 kJ/mol
# Density = 2.047775 g / cm^3
# Si number density = 20.524463 Si / 1000 Ang^3
#
#
#
# Elastic Constant Matrix: (Units=GPa)
#
#
# Indices 1 2 3 4 5 6 
#
# 1 78.2436 -4.0133 12.9714 0.0000 2.3005 0.0000
# 2 -4.0133 90.2337 49.8369 0.0000 -1.5710 0.0000
# 3 12.9714 49.8369 132.7706 0.0000 -11.7003 0.0000
# 4 0.0000 0.0000 0.0000 50.4400 0.0000 -3.0355
# 5 2.3005 -1.5710 -11.7003 0.0000 23.8055 0.0000
# 6 0.0000 0.0000 0.0000 -3.0355 0.0000 6.5444
#
#
#
# Elastic Compliance Matrix: (Units=1/GPa)
#
#
# Indices 1 2 3 4 5 6 
#
# 1 0.013291 0.001738 -0.002147 0.000000 -0.002225 0.000000
# 2 0.001738 0.014277 -0.005708 0.000000 -0.002031 0.000000
# 3 -0.002147 -0.005708 0.010316 0.000000 0.004901 0.000000
# 4 0.000000 0.000000 0.000000 0.020395 0.000000 0.009460
# 5 -0.002225 -0.002031 0.004901 0.000000 0.044497 0.000000
# 6 0.000000 0.000000 0.000000 0.009460 0.000000 0.157191
#
#
# Mechanical properties :
#
#
# Convention : Reuss Voigt Hill
#
# Bulk Modulus (GPa) = 38.98537 46.53755 42.76146
# Shear Modulus (GPa) = 17.80945 32.32149 25.06547
#
# Velocity S-wave (km/s) = 2.94890 3.97265 3.49843
# Velocity P-wave (km/s) = 5.53448 6.61559 6.09904
#
# Compressibility (1/GPa) = 0.02565065
#
# Stress axis : x y z
#
# Youngs Moduli (GPa) = 75.23820 70.04408 96.93757
#
# Poissons Ratio (x) = -0.12175 0.20813
# Poissons Ratio (y) = -0.13078 0.55329
# Poissons Ratio (z) = 0.16154 0.39979
#
# Static dielectric constant tensor:
#      x y z
#    x 1.746480 0.000000 0.001930 
#    y 0.000000 1.746610 0.000000 
#    z 0.001930 0.000000 1.755360 
# 
# From -- ./inp_files/91411.got.cif
#   From: 2010.05.17/outbox.cif.g08.bks.cpg/sg15_46_cif.got.tgz:91411.got - 2010.06.03 18:47:42.
