data_PCOD9298794
_publ_section_title
;
Structure prediction by ZEFSAII (Michael W. Deem and Ramdas Pophale) SiO2 
 PCOD9298794
Probable space group: C 2/C
;
_chemical_formula_sum "Si O2"
_cell_formula_units_Z 60
_cell_length_a 17.567112
_cell_length_b 14.447392
_cell_length_c 11.165989
_cell_angle_alpha 90.000000
_cell_angle_beta 110.474469
_cell_angle_gamma 90.000000
_cell_volume 2654.892581
_symmetry_space_group_name_H-M "C 2/C"
_symmetry_group_IT_number 15
_symmetry_cell_setting 'monoclinic'
loop_
_space_group_symop_operation_xyz
x,y,z
-x,y,1/2-z
-x,-y,-z
x,-y,1/2+z
1/2+x,1/2+y,z
1/2-x,1/2+y,1/2-z
1/2-x,1/2-y,-z
1/2+x,1/2-y,1/2+z
loop_
_atom_site_type_symbol
_atom_site_label
_atom_site_fract_x
_atom_site_fract_y
_atom_site_fract_z
Si Si1 0.471093 0.658706 0.426533
Si Si2 0.107639 0.857673 0.361877
Si Si3 0.187873 0.770004 0.784088
Si Si4 0.565711 0.835051 0.385758
Si Si5 0.407407 0.152042 0.189122
Si Si6 0.177063 0.421239 0.628739
Si Si7 0.785272 0.626991 0.912188
Si Si8 0.500000 0.485428 0.750000
O O1 0.447702 0.642655 0.550115
O O2 0.385234 0.670952 0.312593
O O3 0.521294 0.752920 0.434386
O O4 0.514102 0.578071 0.374416
O O5 0.094123 0.762035 0.284424
O O6 0.202991 0.861412 0.443207
O O7 0.077338 0.947598 0.274689
O O8 0.142452 0.709880 0.859598
O O9 0.257691 0.840379 0.861698
O O10 0.217783 0.699642 0.697861
O O11 0.500000 0.867023 0.250000
O O12 0.601449 0.909497 0.496106
O O13 0.500000 0.120789 0.250000
O O14 0.354365 0.096857 0.255066
O O15 0.364729 0.144258 0.036498
O O16 0.212214 0.523020 0.634417
#
# Coordination Sequence:
#
# PCOD9298794 Si02
#       8
#     8   8   8   8   8   8   8   4
#     4  11  22  45  72 101 143 187 229 303 366 426
#     4  12  24  45  72 106 148 184 241 304 367 432
#     4  11  22  48  71 101 154 186 236 299 369 438
#     4  10  24  45  74  99 144 190 235 300 372 421
#     4  12  26  49  73 105 145 193 251 303 366 432
#     4  12  27  46  73 109 140 194 252 294 363 453
#     4  12  28  45  75 108 149 198 238 306 370 430
#     4  12  24  42  70 112 134 188 252 292 372 442
#
# _framework density 22.599786000000002
#
# number of rings (size 3 to 8) (size 9 to 14) (size 15 to 20)
#    0.000    0.533    5.333    3.600    3.733    1.067 
#    0.000    0.000    0.000    0.000    0.000    0.000 
#    0.000    0.000    0.000    0.000    0.000    0.000 
#
# Total GULP energy -167931.695326 kJ/mol
# GULP energy per Si atom -5597.723178 kJ/mol
# Density = 2.254835 g / cm^3
# Si number density = 22.599786 Si / 1000 Ang^3
#
#
#
# Elastic Constant Matrix: (Units=GPa)
#
#
# Indices 1 2 3 4 5 6 
#
# 1 106.8359 21.5542 24.7122 0.0000 2.3896 0.0000
# 2 21.5542 94.6656 33.5323 0.0000 0.1175 0.0000
# 3 24.7122 33.5323 45.9656 0.0000 11.8223 0.0000
# 4 0.0000 0.0000 0.0000 21.3743 0.0000 3.0105
# 5 2.3896 0.1175 11.8223 0.0000 37.2440 0.0000
# 6 0.0000 0.0000 0.0000 3.0105 0.0000 19.7273
#
#
#
# Elastic Compliance Matrix: (Units=1/GPa)
#
#
# Indices 1 2 3 4 5 6 
#
# 1 0.010753 -0.000401 -0.005784 0.000000 0.001147 0.000000
# 2 -0.000401 0.014702 -0.011438 0.000000 0.003610 0.000000
# 3 -0.005784 -0.011438 0.036047 0.000000 -0.011035 0.000000
# 4 0.000000 0.000000 0.000000 0.047813 0.000000 -0.007297
# 5 0.001147 0.003610 -0.011035 0.000000 0.030268 0.000000
# 6 0.000000 0.000000 0.000000 -0.007297 0.000000 0.051805
#
#
# Mechanical properties :
#
#
# Convention : Reuss Voigt Hill
#
# Bulk Modulus (GPa) = 38.08538 45.22938 41.65738
# Shear Modulus (GPa) = 21.24173 26.84702 24.04437
#
# Velocity S-wave (km/s) = 3.06912 3.45038 3.26532
# Velocity P-wave (km/s) = 5.42660 5.99417 5.71743
#
# Compressibility (1/GPa) = 0.02625680
#
# Stress axis : x y z
#
# Youngs Moduli (GPa) = 92.99531 68.01828 27.74132
#
# Poissons Ratio (x) = 0.02728 0.16045
# Poissons Ratio (y) = 0.03730 0.31731
# Poissons Ratio (z) = 0.53785 0.77800
#
# Static dielectric constant tensor:
#      x y z
#    x 1.827080 0.000000 -0.009980 
#    y 0.000000 1.828180 0.000000 
#    z -0.009980 0.000000 1.854850 
# 
# From -- ./inp_files/105761.got.cif
#   From: 2010.05.17/outbox.cif.g08.bks.cpg/sg15_53_cif.got.tgz:105761.got - 2010.06.03 18:47:42.
