data_PCOD9298513
_publ_section_title
;
Structure prediction by ZEFSAII (Michael W. Deem and Ramdas Pophale) SiO2 
 PCOD9298513
Probable space group: C 2/C
;
_chemical_formula_sum "Si O2"
_cell_formula_units_Z 36
_cell_length_a 8.221383
_cell_length_b 7.179979
_cell_length_c 26.271749
_cell_angle_alpha 90.000000
_cell_angle_beta 64.875081
_cell_angle_gamma 90.000000
_cell_volume 1404.073887
_symmetry_space_group_name_H-M "C 2/C"
_symmetry_group_IT_number 15
_symmetry_cell_setting 'monoclinic'
loop_
_space_group_symop_operation_xyz
x,y,z
-x,y,1/2-z
-x,-y,-z
x,-y,1/2+z
1/2+x,1/2+y,z
1/2-x,1/2+y,1/2-z
1/2-x,1/2-y,-z
1/2+x,1/2-y,1/2+z
loop_
_atom_site_type_symbol
_atom_site_label
_atom_site_fract_x
_atom_site_fract_y
_atom_site_fract_z
Si Si1 0.568988 0.781425 0.089225
Si Si2 0.732760 0.350552 0.948479
Si Si3 0.092798 0.418887 0.188495
Si Si4 0.008658 0.103324 0.857619
Si Si5 0.500000 0.282880 0.250000
O O1 0.441681 0.723667 0.058768
O O2 0.776844 0.571801 0.948434
O O3 0.480737 0.880990 0.151859
O O4 0.599750 0.576593 0.108897
O O5 0.892240 0.272943 0.892560
O O6 0.750000 0.250000 0.000000
O O7 0.293214 0.364385 0.146480
O O8 0.373663 0.127088 0.293226
O O9 0.000000 0.324428 0.250000
O O10 0.048596 0.097849 0.792143
#
# Coordination Sequence:
#
# PCOD9298513 Si02
#       5
#     8   8   8   8   4
#     4  12  26  51  72 116 151 203 270 331 400 496
#     4  12  29  53  78 109 158 211 278 345 409 484
#     4  10  25  44  70 110 157 192 262 310 405 501
#     4  12  26  45  78 109 157 208 258 333 410 495
#     4  10  24  44  72 106 156 200 244 312 412 482
#
# _framework density 25.639676000000001
#
# number of rings (size 3 to 8) (size 9 to 14) (size 15 to 20)
#    0.667    0.000    4.444    0.667   10.889    1.778 
#    0.000    0.000    0.000    0.000    0.000    0.000 
#    0.000    0.000    0.000    0.000    0.000    0.000 
#
# Total GULP energy -100218.690390 kJ/mol
# GULP energy per Si atom -5567.705022 kJ/mol
# Density = 2.558132 g / cm^3
# Si number density = 25.639676 Si / 1000 Ang^3
#
#
#
# Elastic Constant Matrix: (Units=GPa)
#
#
# Indices 1 2 3 4 5 6 
#
# 1 95.8008 52.9341 56.2139 0.0000 19.4340 0.0000
# 2 52.9341 145.1493 28.7726 0.0000 8.4423 0.0000
# 3 56.2139 28.7726 126.1091 0.0000 22.3946 0.0000
# 4 0.0000 0.0000 0.0000 29.4180 0.0000 18.5252
# 5 19.4340 8.4423 22.3946 0.0000 43.1497 0.0000
# 6 0.0000 0.0000 0.0000 18.5252 0.0000 12.5358
#
#
#
# Elastic Compliance Matrix: (Units=1/GPa)
#
#
# Indices 1 2 3 4 5 6 
#
# 1 0.017454 -0.004960 -0.005976 0.000000 -0.003789 0.000000
# 2 -0.004960 0.008640 0.000158 0.000000 0.000462 0.000000
# 3 -0.005976 0.000158 0.011109 0.000000 -0.003105 0.000000
# 4 0.000000 0.000000 0.000000 0.489720 0.000000 -0.723696
# 5 -0.003789 0.000462 -0.003105 0.000000 0.026403 0.000000
# 6 0.000000 0.000000 0.000000 -0.723696 0.000000 1.149230
#
#
# Mechanical properties :
#
#
# Convention : Reuss Voigt Hill
#
# Bulk Modulus (GPa) = 63.91131 71.43339 67.67235
# Shear Modulus (GPa) = 2.89130 32.29662 17.59396
#
# Velocity S-wave (km/s) = 1.06307 3.55298 2.62238
# Velocity P-wave (km/s) = 5.14662 6.68974 5.96826
#
# Compressibility (1/GPa) = 0.01564668
#
# Stress axis : x y z
#
# Youngs Moduli (GPa) = 57.29259 115.73647 90.01942
#
# Poissons Ratio (x) = 0.57410 0.53793
# Poissons Ratio (y) = 0.28419 -0.01420
# Poissons Ratio (z) = 0.34236 -0.01826
#
# Static dielectric constant tensor:
#      x y z
#    x 2.138090 0.000000 0.125700 
#    y 0.000000 2.190290 0.000000 
#    z 0.125700 0.000000 2.243270 
# 
# From -- ./inp_files/262310.got.cif
#   From: 2010.05.17/outbox.cif.g08.bks.cpg/sg15_132_cif.got.tgz:262310.got - 2010.06.03 18:47:42.
