data_PCOD9298321
_publ_section_title
;
Structure prediction by ZEFSAII (Michael W. Deem and Ramdas Pophale) SiO2 
 PCOD9298321
Probable space group: C 2/C
;
_chemical_formula_sum "Si O2"
_cell_formula_units_Z 56
_cell_length_a 17.702508
_cell_length_b 11.335519
_cell_length_c 13.078542
_cell_angle_alpha 90.000000
_cell_angle_beta 66.194563
_cell_angle_gamma 90.000000
_cell_volume 2401.150112
_symmetry_space_group_name_H-M "C 2/C"
_symmetry_group_IT_number 15
_symmetry_cell_setting 'monoclinic'
loop_
_space_group_symop_operation_xyz
x,y,z
-x,y,1/2-z
-x,-y,-z
x,-y,1/2+z
1/2+x,1/2+y,z
1/2-x,1/2+y,1/2-z
1/2-x,1/2-y,-z
1/2+x,1/2-y,1/2+z
loop_
_atom_site_type_symbol
_atom_site_label
_atom_site_fract_x
_atom_site_fract_y
_atom_site_fract_z
Si Si1 0.596248 0.643740 0.839965
Si Si2 0.406834 0.805662 0.822155
Si Si3 0.745055 0.370479 0.388521
Si Si4 0.247535 0.594444 0.394270
Si Si5 0.932240 0.900897 0.706592
Si Si6 0.381000 0.025509 0.689282
Si Si7 0.544329 0.786262 0.479656
O O1 0.641204 0.709098 0.719626
O O2 0.666371 0.584205 0.870498
O O3 0.540022 0.533360 0.839066
O O4 0.544522 0.741619 0.931061
O O5 0.500000 0.761865 0.750000
O O6 0.402650 0.928881 0.763511
O O7 0.400371 0.805849 0.947912
O O8 0.756477 0.443265 0.485693
O O9 0.725631 0.232888 0.412240
O O10 0.827733 0.377968 0.278363
O O11 0.342030 0.586053 0.306052
O O12 0.182391 0.532098 0.356683
O O13 0.927226 0.817977 0.610579
O O14 0.000000 0.852963 0.750000
O O15 0.452417 0.094365 0.589484
#
# Coordination Sequence:
#
# PCOD9298321 Si02
#       7
#     8   8   8   8   8   8   8
#     4  11  23  45  69  98 144 181 230 295 350 411
#     4  10  24  44  66  98 138 181 228 294 348 410
#     4  11  23  44  67  97 143 182 228 288 344 413
#     4  11  24  43  67  99 138 187 230 282 348 409
#     4  12  24  44  70 103 140 182 238 286 345 426
#     4  12  23  46  70 103 138 180 236 286 347 429
#     4  11  25  43  70 104 134 182 236 284 353 415
#
# _framework density 23.322157000000001
#
# number of rings (size 3 to 8) (size 9 to 14) (size 15 to 20)
#    0.000    0.857    4.286    3.429    0.000    4.000 
#    5.143    1.429    0.000    0.000    0.000    0.000 
#    0.000    0.000    0.000    0.000    0.000    0.000 
#
# Total GULP energy -156357.910284 kJ/mol
# GULP energy per Si atom -5584.211082 kJ/mol
# Density = 2.326907 g / cm^3
# Si number density = 23.322157 Si / 1000 Ang^3
#
#
#
# Elastic Constant Matrix: (Units=GPa)
#
#
# Indices 1 2 3 4 5 6 
#
# 1 63.5287 17.2454 36.5043 0.0000 11.4166 0.0000
# 2 17.2454 96.4758 48.9314 0.0000 17.6917 0.0000
# 3 36.5043 48.9314 143.6651 0.0000 21.7377 0.0000
# 4 0.0000 0.0000 0.0000 22.7742 0.0000 7.3035
# 5 11.4166 17.6917 21.7377 0.0000 39.6674 0.0000
# 6 0.0000 0.0000 0.0000 7.3035 0.0000 10.7847
#
#
#
# Elastic Compliance Matrix: (Units=1/GPa)
#
#
# Indices 1 2 3 4 5 6 
#
# 1 0.018808 -0.000769 -0.004089 0.000000 -0.002829 0.000000
# 2 -0.000769 0.013035 -0.003705 0.000000 -0.003562 0.000000
# 3 -0.004089 -0.003705 0.009632 0.000000 -0.002449 0.000000
# 4 0.000000 0.000000 0.000000 0.056091 0.000000 -0.037986
# 5 -0.002829 -0.003562 -0.002449 0.000000 0.028954 0.000000
# 6 0.000000 0.000000 0.000000 -0.037986 0.000000 0.118449
#
#
# Mechanical properties :
#
#
# Convention : Reuss Voigt Hill
#
# Bulk Modulus (GPa) = 41.07082 56.55909 48.81496
# Shear Modulus (GPa) = 18.50398 28.04450 23.27424
#
# Velocity S-wave (km/s) = 2.81981 3.47145 3.16245
# Velocity P-wave (km/s) = 5.31509 6.35388 5.85756
#
# Compressibility (1/GPa) = 0.02434819
#
# Stress axis : x y z
#
# Youngs Moduli (GPa) = 53.16982 76.71498 103.81928
#
# Poissons Ratio (x) = 0.05902 0.42449
# Poissons Ratio (y) = 0.04091 0.38468
# Poissons Ratio (z) = 0.21740 0.28425
#
# Static dielectric constant tensor:
#      x y z
#    x 1.904880 0.000000 0.075480 
#    y 0.000000 1.902120 0.000000 
#    z 0.075480 0.000000 1.945290 
# 
# From -- ./inp_files/111571.got.cif
#   From: 2010.05.17/outbox.cif.g08.bks.cpg/sg15_56_cif.got.tgz:111571.got - 2010.06.03 18:47:42.
