data_PCOD9298260
_publ_section_title
;
Structure prediction by ZEFSAII (Michael W. Deem and Ramdas Pophale) SiO2 
 PCOD9298260
Probable space group: C 2/C
;
_chemical_formula_sum "Si O2"
_cell_formula_units_Z 36
_cell_length_a 14.162080
_cell_length_b 7.463820
_cell_length_c 20.205549
_cell_angle_alpha 90.000000
_cell_angle_beta 134.367222
_cell_angle_gamma 90.000000
_cell_volume 1526.819318
_symmetry_space_group_name_H-M "C 2/C"
_symmetry_group_IT_number 15
_symmetry_cell_setting 'monoclinic'
loop_
_space_group_symop_operation_xyz
x,y,z
-x,y,1/2-z
-x,-y,-z
x,-y,1/2+z
1/2+x,1/2+y,z
1/2-x,1/2+y,1/2-z
1/2-x,1/2-y,-z
1/2+x,1/2-y,1/2+z
loop_
_atom_site_type_symbol
_atom_site_label
_atom_site_fract_x
_atom_site_fract_y
_atom_site_fract_z
Si Si1 0.805971 0.239678 0.454365
Si Si2 0.172409 0.919628 0.266939
Si Si3 0.592661 0.151474 0.113888
Si Si4 0.739311 0.337090 0.067059
Si Si5 0.000000 0.778645 0.750000
O O1 0.750000 0.250000 0.500000
O O2 0.703602 0.309913 0.349338
O O3 0.939506 0.355577 0.520585
O O4 0.830329 0.028089 0.458350
O O5 0.109422 0.801619 0.178715
O O6 0.319071 0.986101 0.317053
O O7 0.076984 0.086684 0.237627
O O8 0.666935 0.209656 0.083441
O O9 0.891309 0.345593 0.163474
O O10 0.750000 0.250000 0.000000
#
# Coordination Sequence:
#
# PCOD9298260 Si02
#       5
#     8   8   8   8   4
#     4  12  25  41  66  97 129 169 215 269 322 382
#     4  11  23  42  65  96 131 171 216 267 322 384
#     4  11  24  42  65  94 130 171 213 264 322 385
#     4  11  24  43  66  93 128 172 216 267 323 383
#     4  10  24  44  64  92 130 170 218 270 324 384
#
# _framework density 23.578427999999999
#
# number of rings (size 3 to 8) (size 9 to 14) (size 15 to 20)
#    0.000    0.889    0.000    8.000    0.000    9.778 
#    0.000    0.000    0.000    0.000    0.000    0.000 
#    0.000    0.000    0.000    0.000    0.000    0.000 
#
# Total GULP energy -100747.891242 kJ/mol
# GULP energy per Si atom -5597.105069 kJ/mol
# Density = 2.352476 g / cm^3
# Si number density = 23.578428 Si / 1000 Ang^3
#
#
#
# Elastic Constant Matrix: (Units=GPa)
#
#
# Indices 1 2 3 4 5 6 
#
# 1 83.1650 -12.7548 32.9327 0.0000 3.2108 0.0000
# 2 -12.7548 71.7459 7.8111 0.0000 -0.5974 0.0000
# 3 32.9327 7.8111 110.1486 0.0000 3.3773 0.0000
# 4 0.0000 0.0000 0.0000 29.2354 0.0000 6.2456
# 5 3.2108 -0.5974 3.3773 0.0000 37.7598 0.0000
# 6 0.0000 0.0000 0.0000 6.2456 0.0000 29.3477
#
#
#
# Elastic Compliance Matrix: (Units=1/GPa)
#
#
# Indices 1 2 3 4 5 6 
#
# 1 0.014283 0.003019 -0.004461 0.000000 -0.000768 0.000000
# 2 0.003019 0.014688 -0.001949 0.000000 0.000150 0.000000
# 3 -0.004461 -0.001949 0.010569 0.000000 -0.000597 0.000000
# 4 0.000000 0.000000 0.000000 0.035834 0.000000 -0.007626
# 5 -0.000768 0.000150 -0.000597 0.000000 0.026604 0.000000
# 6 0.000000 0.000000 0.000000 -0.007626 0.000000 0.035697
#
#
# Mechanical properties :
#
#
# Convention : Reuss Voigt Hill
#
# Bulk Modulus (GPa) = 30.52679 35.67083 33.09881
# Shear Modulus (GPa) = 32.17962 35.07328 33.62645
#
# Velocity S-wave (km/s) = 3.69832 3.86102 3.78054
# Velocity P-wave (km/s) = 5.58675 5.91929 5.75542
#
# Compressibility (1/GPa) = 0.03275811
#
# Stress axis : x y z
#
# Youngs Moduli (GPa) = 70.01126 68.08221 94.61713
#
# Poissons Ratio (x) = -0.20551 0.42209
# Poissons Ratio (y) = -0.21133 0.18438
# Poissons Ratio (z) = 0.31232 0.13267
#
# Static dielectric constant tensor:
#      x y z
#    x 1.880530 0.000000 0.003620 
#    y 0.000000 8.793180 0.000000 
#    z 0.003620 0.000000 2.002490 
# 
# From -- ./inp_files/242751.got.cif
#   From: 2010.05.17/outbox.cif.g08.bks.cpg/sg15_122_cif.got.tgz:242751.got - 2010.06.03 18:47:42.
