data_PCOD9298624
_publ_section_title
;
Structure prediction by ZEFSAII (Michael W. Deem and Ramdas Pophale) SiO2 
 PCOD9298624
Probable space group: C 2/C
;
_chemical_formula_sum "Si O2"
_cell_formula_units_Z 48
_cell_length_a 17.120700
_cell_length_b 6.025828
_cell_length_c 26.179087
_cell_angle_alpha 90.000000
_cell_angle_beta 42.307271
_cell_angle_gamma 90.000000
_cell_volume 1817.927022
_symmetry_space_group_name_H-M "C 2/C"
_symmetry_group_IT_number 15
_symmetry_cell_setting 'monoclinic'
loop_
_space_group_symop_operation_xyz
x,y,z
-x,y,1/2-z
-x,-y,-z
x,-y,1/2+z
1/2+x,1/2+y,z
1/2-x,1/2+y,1/2-z
1/2-x,1/2-y,-z
1/2+x,1/2-y,1/2+z
loop_
_atom_site_type_symbol
_atom_site_label
_atom_site_fract_x
_atom_site_fract_y
_atom_site_fract_z
Si Si1 0.006326 0.069820 0.401704
Si Si2 0.268333 0.124293 0.294726
Si Si3 0.929809 0.295091 0.335679
Si Si4 0.249173 0.118017 0.184282
Si Si5 0.880613 0.341566 0.931453
Si Si6 0.663278 0.826604 0.958171
O O1 0.996324 0.207149 0.353652
O O2 0.901791 0.106561 0.492337
O O3 0.128447 0.120905 0.367859
O O4 0.982110 0.828611 0.392030
O O5 0.286432 0.115047 0.225016
O O6 0.309245 0.369275 0.294371
O O7 0.300908 0.875234 0.299017
O O8 0.900770 0.546847 0.366441
O O9 0.802920 0.180567 0.397051
O O10 0.000000 0.256501 0.250000
O O11 0.351991 0.115279 0.093077
O O12 0.750000 0.250000 0.000000
O O13 0.885527 0.509695 0.976201
#
# Coordination Sequence:
#
# PCOD9298624 Si02
#       6
#     8   8   8   8   8   8
#     4  11  23  41  65  91 130 172 215 273 334 401
#     4  10  24  45  66  94 133 174 222 279 336 393
#     4  11  23  40  63  97 129 168 221 272 335 401
#     4  10  24  45  66  95 132 174 223 280 334 395
#     4  11  21  42  62  93 133 171 211 270 338 398
#     4  11  23  40  65  93 128 170 218 275 331 400
#
# _framework density 26.403701000000002
#
# number of rings (size 3 to 8) (size 9 to 14) (size 15 to 20)
#    0.000    1.333    3.333    2.000    7.000    2.000 
#    6.000    0.000    0.000    0.000    0.000    0.000 
#    0.000    0.000    0.000    0.000    0.000    0.000 
#
# Total GULP energy -134022.480865 kJ/mol
# GULP energy per Si atom -5584.270036 kJ/mol
# Density = 2.634361 g / cm^3
# Si number density = 26.403701 Si / 1000 Ang^3
#
#
#
# Elastic Constant Matrix: (Units=GPa)
#
#
# Indices 1 2 3 4 5 6 
#
# 1 65.5631 26.4410 1.5334 -0.0037 -22.4323 -0.0157
# 2 26.4410 168.4307 48.7246 -0.0159 -0.9519 -0.0360
# 3 1.5334 48.7246 183.8087 -0.0027 7.1801 -0.0162
# 4 -0.0037 -0.0159 -0.0027 36.6340 -0.0022 1.1902
# 5 -22.4323 -0.9519 7.1801 -0.0022 38.1891 -0.0066
# 6 -0.0157 -0.0360 -0.0162 1.1902 -0.0066 30.2490
#
#
#
# Elastic Compliance Matrix: (Units=1/GPa)
#
#
# Indices 1 2 3 4 5 6 
#
# 1 0.020665 -0.003239 0.000217 0.000001 0.012017 0.000010
# 2 -0.003239 0.006947 -0.001760 0.000002 -0.001399 0.000005
# 3 0.000217 -0.001760 0.005946 0.000000 -0.001034 0.000001
# 4 0.000001 0.000002 0.000000 0.027332 0.000002 -0.001075
# 5 0.012017 -0.001399 -0.001034 0.000002 0.033404 0.000011
# 6 0.000010 0.000005 0.000001 -0.001075 0.000011 0.033101
#
#
# Mechanical properties :
#
#
# Convention : Reuss Voigt Hill
#
# Bulk Modulus (GPa) = 41.67756 63.46672 52.57214
# Shear Modulus (GPa) = 34.49298 43.75466 39.12382
#
# Velocity S-wave (km/s) = 3.61829 4.07522 3.85353
# Velocity P-wave (km/s) = 5.76846 6.79944 6.30506
#
# Compressibility (1/GPa) = 0.02399373
#
# Stress axis : x y z
#
# Youngs Moduli (GPa) = 48.39008 143.95087 168.19332
#
# Poissons Ratio (x) = 0.46625 -0.03646
# Poissons Ratio (y) = 0.15673 0.29599
# Poissons Ratio (z) = -0.01049 0.25333
#
# Static dielectric constant tensor:
#      x y z
#    x 2.113440 -0.000020 -0.048560 
#    y -0.000020 2.325060 0.000010 
#    z -0.048560 0.000010 2.043570 
# 
# From -- ./inp_files/278817.got.cif
#   From: 2010.05.17/outbox.cif.g08.bks.cpg/sg15_140_cif.got.tgz:278817.got - 2010.06.03 18:47:42.
