data_PCOD9298769
_publ_section_title
;
Structure prediction by ZEFSAII (Michael W. Deem and Ramdas Pophale) SiO2 
 PCOD9298769
Probable space group: C 2/C
;
_chemical_formula_sum "Si O2"
_cell_formula_units_Z 32
_cell_length_a 5.577055
_cell_length_b 13.640535
_cell_length_c 17.883412
_cell_angle_alpha 90.000000
_cell_angle_beta 104.743922
_cell_angle_gamma 90.000000
_cell_volume 1315.666891
_symmetry_space_group_name_H-M "C 2/C"
_symmetry_group_IT_number 15
_symmetry_cell_setting 'monoclinic'
loop_
_space_group_symop_operation_xyz
x,y,z
-x,y,1/2-z
-x,-y,-z
x,-y,1/2+z
1/2+x,1/2+y,z
1/2-x,1/2+y,1/2-z
1/2-x,1/2-y,-z
1/2+x,1/2-y,1/2+z
loop_
_atom_site_type_symbol
_atom_site_label
_atom_site_fract_x
_atom_site_fract_y
_atom_site_fract_z
Si Si1 0.272799 0.930996 0.277752
Si Si2 0.223011 0.209327 0.216838
Si Si3 0.974427 0.170664 0.040084
Si Si4 0.250982 0.959475 0.445616
O O1 0.500000 0.973097 0.250000
O O2 0.249240 0.819491 0.248792
O O3 0.325006 0.930427 0.368775
O O4 0.000000 0.973820 0.250000
O O5 0.500000 0.168734 0.250000
O O6 0.000000 0.168792 0.250000
O O7 0.135399 0.209465 0.123233
O O8 0.905109 0.060534 0.064769
O O9 0.750000 0.250000 0.000000
O O10 0.128183 0.133277 0.979056
O O11 0.500000 0.000000 0.500000
#
# Coordination Sequence:
#
# PCOD9298769 Si02
#       4
#     8   8   8   8
#     4  10  24  45  75 104 148 195 245 317 384 461
#     4  10  24  45  73 110 148 197 254 314 390 463
#     4  11  27  47  79 111 154 205 262 329 391 484
#     4  11  27  47  74 112 149 204 261 320 403 472
#
# _framework density 24.322268999999999
#
# number of rings (size 3 to 8) (size 9 to 14) (size 15 to 20)
#    0.000    1.500    0.000    1.500   21.000    3.000 
#    0.000    0.000    0.000    0.000    0.000    0.000 
#    0.000    0.000    0.000    0.000    0.000    0.000 
#
# Total GULP energy -89166.295973 kJ/mol
# GULP energy per Si atom -5572.893498 kJ/mol
# Density = 2.426691 g / cm^3
# Si number density = 24.322269 Si / 1000 Ang^3
#
#
#
# Elastic Constant Matrix: (Units=GPa)
#
#
# Indices 1 2 3 4 5 6 
#
# 1 242.8543 59.8658 102.1570 0.0000 -13.6716 0.0000
# 2 59.8658 173.1121 20.2530 0.0000 -3.2346 0.0000
# 3 102.1570 20.2530 141.9950 0.0000 -5.0326 0.0000
# 4 0.0000 0.0000 0.0000 -2.9404 0.0000 56.1556
# 5 -13.6716 -3.2346 -5.0326 0.0000 56.9773 0.0000
# 6 0.0000 0.0000 0.0000 56.1556 0.0000 -88.6598
#
#
#
# Elastic Compliance Matrix: (Units=1/GPa)
#
#
# Indices 1 2 3 4 5 6 
#
# 1 0.006420 -0.001693 -0.004340 0.000000 0.001061 0.000000
# 2 -0.001693 0.006325 0.000315 0.000000 -0.000019 0.000000
# 3 -0.004340 0.000315 0.010115 0.000000 -0.000130 0.000000
# 4 0.000000 0.000000 0.000000 0.030649 0.000000 0.019412
# 5 0.001061 -0.000019 -0.000130 0.000000 0.017793 0.000000
# 6 0.000000 0.000000 0.000000 0.019412 0.000000 0.001016
#
#
# Mechanical properties :
#
#
# Convention : Reuss Voigt Hill
#
# Bulk Modulus (GPa) = 87.52718 102.50144 95.01431
# Shear Modulus (GPa) = 57.10209 18.12111 37.61160
#
# Velocity S-wave (km/s) = 4.85059 2.73251 3.93668
# Velocity P-wave (km/s) = 8.21192 7.22426 7.73387
#
# Compressibility (1/GPa) = 0.01142502
#
# Stress axis : x y z
#
# Youngs Moduli (GPa) = 155.75525 158.10869 98.85975
#
# Poissons Ratio (x) = 0.26763 0.42905
# Poissons Ratio (y) = 0.26365 -0.03114
# Poissons Ratio (z) = 0.67598 -0.04981
#
# Static dielectric constant tensor:
#      x y z
#    x 4.139900 0.000000 0.524650 
#    y 0.000000 1.258650 0.000000 
#    z 0.524650 0.000000 1.993680 
# 
# From -- ./inp_files/183826.got.cif
#   From: 2010.05.17/outbox.cif.g08.bks.cpg/sg15_92_cif.got.tgz:183826.got - 2010.06.03 18:47:42.
