data_PCOD9298282
_publ_section_title
;
Structure prediction by ZEFSAII (Michael W. Deem and Ramdas Pophale) SiO2 
 PCOD9298282
Probable space group: C 2/C
;
_chemical_formula_sum "Si O2"
_cell_formula_units_Z 32
_cell_length_a 18.316576
_cell_length_b 6.864601
_cell_length_c 10.075089
_cell_angle_alpha 90.000000
_cell_angle_beta 87.045439
_cell_angle_gamma 90.000000
_cell_volume 1265.117323
_symmetry_space_group_name_H-M "C 2/C"
_symmetry_group_IT_number 15
_symmetry_cell_setting 'monoclinic'
loop_
_space_group_symop_operation_xyz
x,y,z
-x,y,1/2-z
-x,-y,-z
x,-y,1/2+z
1/2+x,1/2+y,z
1/2-x,1/2+y,1/2-z
1/2-x,1/2-y,-z
1/2+x,1/2-y,1/2+z
loop_
_atom_site_type_symbol
_atom_site_label
_atom_site_fract_x
_atom_site_fract_y
_atom_site_fract_z
Si Si1 0.693436 0.840023 0.607961
Si Si2 0.962494 0.221749 0.618617
Si Si3 0.835439 0.997326 0.700449
Si Si4 0.580889 0.856839 0.405959
O O1 0.750000 0.750000 0.500000
O O2 0.748316 0.972268 0.687856
O O3 0.659431 0.653736 0.683499
O O4 0.631375 0.931202 0.523538
O O5 0.942721 0.444241 0.658817
O O6 0.000000 0.135350 0.750000
O O7 0.015291 0.242945 0.486319
O O8 0.887676 0.108469 0.589710
O O9 0.873520 0.785930 0.694307
#
# Coordination Sequence:
#
# PCOD9298282 Si02
#       4
#     8   8   8   8
#     4  10  24  44  65  99 137 176 229 273 344 410
#     4  11  23  45  72 101 137 176 234 287 348 412
#     4  11  24  44  69  98 139 180 227 290 340 408
#     4  10  24  46  68 101 135 181 232 287 343 413
#
# _framework density 25.294098999999999
#
# number of rings (size 3 to 8) (size 9 to 14) (size 15 to 20)
#    0.000    1.500    2.500    0.750    7.000    2.000 
#   22.500    0.000    0.000    0.000    0.000    0.000 
#    0.000    0.000    0.000    0.000    0.000    0.000 
#
# Total GULP energy -89294.719851 kJ/mol
# GULP energy per Si atom -5580.919991 kJ/mol
# Density = 2.523653 g / cm^3
# Si number density = 25.294099 Si / 1000 Ang^3
#
#
#
# Elastic Constant Matrix: (Units=GPa)
#
#
# Indices 1 2 3 4 5 6 
#
# 1 112.2119 46.1864 19.0204 0.0000 -11.1872 0.0000
# 2 46.1864 87.8373 29.7162 0.0000 -3.0065 0.0000
# 3 19.0204 29.7162 42.3942 0.0000 5.1861 0.0000
# 4 0.0000 0.0000 0.0000 26.1050 0.0000 -12.4027
# 5 -11.1872 -3.0065 5.1861 0.0000 45.0246 0.0000
# 6 0.0000 0.0000 0.0000 -12.4027 0.0000 61.4595
#
#
#
# Elastic Compliance Matrix: (Units=1/GPa)
#
#
# Indices 1 2 3 4 5 6 
#
# 1 0.011742 -0.005484 -0.001761 0.000000 0.002754 0.000000
# 2 -0.005484 0.017710 -0.010073 0.000000 0.000980 0.000000
# 3 -0.001761 -0.010073 0.032026 0.000000 -0.004799 0.000000
# 4 0.000000 0.000000 0.000000 0.042369 0.000000 0.008550
# 5 0.002754 0.000980 -0.004799 0.000000 0.023513 0.000000
# 6 0.000000 0.000000 0.000000 0.008550 0.000000 0.017996
#
#
# Mechanical properties :
#
#
# Convention : Reuss Voigt Hill
#
# Bulk Modulus (GPa) = 37.25579 48.03216 42.64398
# Shear Modulus (GPa) = 26.46355 36.35251 31.40803
#
# Velocity S-wave (km/s) = 3.23806 3.79515 3.52762
# Velocity P-wave (km/s) = 5.36107 6.18344 5.78688
#
# Compressibility (1/GPa) = 0.02684147
#
# Stress axis : x y z
#
# Youngs Moduli (GPa) = 85.16387 56.46619 31.22470
#
# Poissons Ratio (x) = 0.30967 0.05498
# Poissons Ratio (y) = 0.46705 0.31453
# Poissons Ratio (z) = 0.14997 0.56878
#
# Static dielectric constant tensor:
#      x y z
#    x 2.909070 0.000000 -0.106810 
#    y 0.000000 1.974800 0.000000 
#    z -0.106810 0.000000 2.034960 
# 
# From -- ./inp_files/109061.got.cif
#   From: 2010.05.17/outbox.cif.g08.bks.cpg/sg15_55_cif.got.tgz:109061.got - 2010.06.03 18:47:42.
