data_PCOD9298607
_publ_section_title
;
Structure prediction by ZEFSAII (Michael W. Deem and Ramdas Pophale) SiO2 
 PCOD9298607
Probable space group: C 2/C
;
_chemical_formula_sum "Si O2"
_cell_formula_units_Z 40
_cell_length_a 7.069447
_cell_length_b 17.676172
_cell_length_c 15.648705
_cell_angle_alpha 90.000000
_cell_angle_beta 76.941047
_cell_angle_gamma 90.000000
_cell_volume 1904.901795
_symmetry_space_group_name_H-M "C 2/C"
_symmetry_group_IT_number 15
_symmetry_cell_setting 'monoclinic'
loop_
_space_group_symop_operation_xyz
x,y,z
-x,y,1/2-z
-x,-y,-z
x,-y,1/2+z
1/2+x,1/2+y,z
1/2-x,1/2+y,1/2-z
1/2-x,1/2-y,-z
1/2+x,1/2-y,1/2+z
loop_
_atom_site_type_symbol
_atom_site_label
_atom_site_fract_x
_atom_site_fract_y
_atom_site_fract_z
Si Si1 0.500000 0.498839 0.750000
Si Si2 0.926697 0.124965 0.896888
Si Si3 0.550408 0.917811 0.534138
Si Si4 0.714033 0.625007 0.321907
Si Si5 0.500000 0.248908 0.250000
Si Si6 0.165610 0.167790 0.034135
O O1 0.448880 0.552003 0.834744
O O2 0.331946 0.443101 0.736789
O O3 0.966627 0.197922 0.834734
O O4 0.082759 0.127080 0.957141
O O5 0.710366 0.122860 0.957149
O O6 0.652092 0.909880 0.616183
O O7 0.347994 0.874979 0.554242
O O8 0.500000 0.000000 0.500000
O O9 0.818717 0.693171 0.263313
O O10 0.518160 0.659835 0.383829
O O11 0.250000 0.250000 0.000000
#
# Coordination Sequence:
#
# PCOD9298607 Si02
#       6
#     4   8   8   8   4   8
#     4  11  24  44  64  95 140 172 216 285 332 400
#     4  10  24  45  64  98 136 172 224 276 336 401
#     4  11  23  43  70  96 129 177 223 275 330 401
#     4  11  26  41  66  99 132 172 226 269 336 403
#     4  11  24  44  64  95 140 172 216 285 332 400
#     4  11  23  43  70  96 129 177 223 275 330 401
#
# _framework density 20.998459
#
# number of rings (size 3 to 8) (size 9 to 14) (size 15 to 20)
#    0.000    1.200    0.000    4.800    8.400    6.400 
#    0.000    2.000    0.000    0.000    0.000    0.000 
#    0.000    0.000    0.000    0.000    0.000    0.000 
#
# Total GULP energy -111858.622058 kJ/mol
# GULP energy per Si atom -5592.931103 kJ/mol
# Density = 2.095067 g / cm^3
# Si number density = 20.998459 Si / 1000 Ang^3
#
#
#
# Elastic Constant Matrix: (Units=GPa)
#
#
# Indices 1 2 3 4 5 6 
#
# 1 173.5080 70.0471 65.7668 0.0000 -0.1236 0.0000
# 2 70.0471 141.9407 54.6538 0.0000 0.0743 0.0000
# 3 65.7668 54.6538 103.7838 0.0000 0.0627 0.0000
# 4 0.0000 0.0000 0.0000 1.5981 0.0000 -0.1788
# 5 -0.1236 0.0743 0.0627 0.0000 21.7497 0.0000
# 6 0.0000 0.0000 0.0000 -0.1788 0.0000 47.6446
#
#
#
# Elastic Compliance Matrix: (Units=1/GPa)
#
#
# Indices 1 2 3 4 5 6 
#
# 1 0.008282 -0.002592 -0.003883 0.000000 0.000067 0.000000
# 2 -0.002592 0.009648 -0.003438 0.000000 -0.000038 0.000000
# 3 -0.003883 -0.003438 0.013907 0.000000 -0.000050 0.000000
# 4 0.000000 0.000000 0.000000 0.625997 0.000000 0.002349
# 5 0.000067 -0.000038 -0.000050 0.000000 0.045978 0.000000
# 6 0.000000 0.000000 0.000000 0.002349 0.000000 0.020998
#
#
# Mechanical properties :
#
#
# Convention : Reuss Voigt Hill
#
# Bulk Modulus (GPa) = 83.26436 88.90755 86.08595
# Shear Modulus (GPa) = 6.67878 29.44947 18.06412
#
# Velocity S-wave (km/s) = 1.78536 3.74900 2.93620
# Velocity P-wave (km/s) = 6.63240 7.82125 7.25123
#
# Compressibility (1/GPa) = 0.01200994
#
# Stress axis : x y z
#
# Youngs Moduli (GPa) = 120.74797 103.64603 71.90663
#
# Poissons Ratio (x) = 0.26863 0.27923
# Poissons Ratio (y) = 0.31296 0.24725
# Poissons Ratio (z) = 0.46889 0.35638
#
# Static dielectric constant tensor:
#      x y z
#    x 1.713570 0.000000 0.000270 
#    y 0.000000 1.767850 0.000000 
#    z 0.000270 0.000000 1.771000 
# 
# From -- ./inp_files/184309.got.cif
#   From: 2010.05.17/outbox.cif.g08.bks.cpg/sg15_93_cif.got.tgz:184309.got - 2010.06.03 18:47:42.
