data_PCOD9298902
_publ_section_title
;
Structure prediction by ZEFSAII (Michael W. Deem and Ramdas Pophale) SiO2 
 PCOD9298902
Probable space group: C 2/C
;
_chemical_formula_sum "Si O2"
_cell_formula_units_Z 44
_cell_length_a 15.837503
_cell_length_b 18.254269
_cell_length_c 8.270562
_cell_angle_alpha 90.000000
_cell_angle_beta 134.009513
_cell_angle_gamma 90.000000
_cell_volume 1719.691811
_symmetry_space_group_name_H-M "C 2/C"
_symmetry_group_IT_number 15
_symmetry_cell_setting 'monoclinic'
loop_
_space_group_symop_operation_xyz
x,y,z
-x,y,1/2-z
-x,-y,-z
x,-y,1/2+z
1/2+x,1/2+y,z
1/2-x,1/2+y,1/2-z
1/2-x,1/2-y,-z
1/2+x,1/2-y,1/2+z
loop_
_atom_site_type_symbol
_atom_site_label
_atom_site_fract_x
_atom_site_fract_y
_atom_site_fract_z
Si Si1 0.500000 0.765408 0.250000
Si Si2 0.817187 0.890267 0.821051
Si Si3 0.725610 0.538787 0.583834
Si Si4 0.581279 0.355732 0.094716
Si Si5 0.685953 0.840416 0.889517
Si Si6 0.433360 0.138103 0.958203
O O1 0.575705 0.708635 0.456617
O O2 0.563659 0.815916 0.202696
O O3 0.785642 0.929104 0.610382
O O4 0.730314 0.826608 0.763530
O O5 0.786549 0.952038 0.917063
O O6 0.952150 0.867853 0.993460
O O7 0.620578 0.571723 0.551391
O O8 0.844636 0.570274 0.820260
O O9 0.682277 0.338632 0.356634
O O10 0.565888 0.885460 0.676945
O O11 0.620691 0.813124 0.968338
#
# Coordination Sequence:
#
# PCOD9298902 Si02
#       6
#     4   8   8   8   8   8
#     4  12  24  48  74 102 152 188 250 292 350 440
#     4  12  23  44  73 110 142 185 237 305 364 430
#     4  11  23  42  74 103 146 185 239 300 359 430
#     4  11  24  45  69 109 142 193 235 300 366 417
#     4  10  24  46  69 103 147 184 250 292 361 426
#     4  10  24  47  69 105 139 199 244 288 357 425
#
# _framework density 25.585978999999998
#
# number of rings (size 3 to 8) (size 9 to 14) (size 15 to 20)
#    0.000    1.091    1.818    4.364    0.000    5.818 
#   13.091    3.636    0.000    0.000    0.000    0.000 
#    0.000    0.000    0.000    0.000    0.000    0.000 
#
# Total GULP energy -122511.165299 kJ/mol
# GULP energy per Si atom -5568.689332 kJ/mol
# Density = 2.552774 g / cm^3
# Si number density = 25.585979 Si / 1000 Ang^3
#
#
#
# Elastic Constant Matrix: (Units=GPa)
#
#
# Indices 1 2 3 4 5 6 
#
# 1 192.1367 12.5394 80.8112 0.0000 10.1265 0.0000
# 2 12.5394 82.0256 46.1336 0.0000 8.5498 0.0000
# 3 80.8112 46.1336 149.4465 0.0000 20.4492 0.0000
# 4 0.0000 0.0000 0.0000 92.7884 0.0000 -12.9935
# 5 10.1265 8.5498 20.4492 0.0000 55.5570 0.0000
# 6 0.0000 0.0000 0.0000 -12.9935 0.0000 25.4812
#
#
#
# Elastic Compliance Matrix: (Units=1/GPa)
#
#
# Indices 1 2 3 4 5 6 
#
# 1 0.006842 0.001250 -0.004095 0.000000 0.000068 0.000000
# 2 0.001250 0.015002 -0.005223 0.000000 -0.000614 0.000000
# 3 -0.004095 -0.005223 0.010852 0.000000 -0.002444 0.000000
# 4 0.000000 0.000000 0.000000 0.011606 0.000000 0.005918
# 5 0.000068 -0.000614 -0.002444 0.000000 0.018981 0.000000
# 6 0.000000 0.000000 0.000000 0.005918 0.000000 0.042262
#
#
# Mechanical properties :
#
#
# Convention : Reuss Voigt Hill
#
# Bulk Modulus (GPa) = 60.38448 78.06414 69.22431
# Shear Modulus (GPa) = 39.30796 53.70696 46.50746
#
# Velocity S-wave (km/s) = 3.92383 4.58654 4.26807
# Velocity P-wave (km/s) = 6.64684 7.65671 7.16958
#
# Compressibility (1/GPa) = 0.01656055
#
# Stress axis : x y z
#
# Youngs Moduli (GPa) = 146.16309 66.65899 92.14676
#
# Poissons Ratio (x) = -0.08332 0.37731
# Poissons Ratio (y) = -0.18271 0.48127
# Poissons Ratio (z) = 0.59849 0.34815
#
# Static dielectric constant tensor:
#      x y z
#    x 2.123920 0.000000 0.020770 
#    y 0.000000 3.079130 0.000000 
#    z 0.020770 0.000000 2.047440 
# 
# From -- ./inp_files/42378.got.cif
#   From: 2010.05.17/outbox.cif.g08.bks.cpg/sg15_22_cif.got.tgz:42378.got - 2010.06.03 18:47:42.
