data_PCOD9298968
_publ_section_title
;
Structure prediction by ZEFSAII (Michael W. Deem and Ramdas Pophale) SiO2 
 PCOD9298968
Probable space group: C 2/C
;
_chemical_formula_sum "Si O2"
_cell_formula_units_Z 48
_cell_length_a 10.248782
_cell_length_b 9.271218
_cell_length_c 25.375458
_cell_angle_alpha 90.000000
_cell_angle_beta 64.527689
_cell_angle_gamma 90.000000
_cell_volume 2176.763424
_symmetry_space_group_name_H-M "C 2/C"
_symmetry_group_IT_number 15
_symmetry_cell_setting 'monoclinic'
loop_
_space_group_symop_operation_xyz
x,y,z
-x,y,1/2-z
-x,-y,-z
x,-y,1/2+z
1/2+x,1/2+y,z
1/2-x,1/2+y,1/2-z
1/2-x,1/2-y,-z
1/2+x,1/2-y,1/2+z
loop_
_atom_site_type_symbol
_atom_site_label
_atom_site_fract_x
_atom_site_fract_y
_atom_site_fract_z
Si Si1 0.172047 0.890948 0.233129
Si Si2 0.823088 0.902061 0.860062
Si Si3 0.896400 0.605653 0.549418
Si Si4 0.359353 0.581517 0.046065
Si Si5 0.830851 0.333155 0.438551
Si Si6 0.839753 0.094975 0.175445
O O1 0.251137 0.740585 0.205315
O O2 0.000000 0.869063 0.250000
O O3 0.216752 0.030669 0.189447
O O4 0.209137 0.949548 0.285079
O O5 0.782167 0.749327 0.893782
O O6 0.995224 0.894701 0.833480
O O7 0.748282 0.022312 0.910192
O O8 0.864914 0.754963 0.526854
O O9 0.000000 0.500000 0.500000
O O10 0.998075 0.658210 0.580907
O O11 0.223175 0.494860 0.049687
O O12 0.345046 0.575490 0.111825
O O13 0.500000 0.500000 0.000000
O O14 0.750000 0.250000 0.500000
#
# Coordination Sequence:
#
# PCOD9298968 Si02
#       6
#     8   8   8   8   8   8
#     4  10  24  46  71  99 135 182 234 292 346 415
#     4  11  21  46  71  96 142 183 227 294 348 407
#     4  12  24  44  68 102 145 186 234 286 349 426
#     4  12  24  44  71 102 143 184 230 289 357 421
#     4  12  23  42  64 101 145 182 231 284 347 422
#     4  11  24  48  72 101 142 178 239 290 350 422
#
# _framework density 22.051086000000002
#
# number of rings (size 3 to 8) (size 9 to 14) (size 15 to 20)
#    0.000    0.667    6.667    0.000    2.333    0.667 
#    9.000    0.000    0.000    0.000    0.000    0.000 
#    0.000    0.000    0.000    0.000    0.000    0.000 
#
# Total GULP energy -133897.097980 kJ/mol
# GULP energy per Si atom -5579.045749 kJ/mol
# Density = 2.200090 g / cm^3
# Si number density = 22.051086 Si / 1000 Ang^3
#
#
#
# Elastic Constant Matrix: (Units=GPa)
#
#
# Indices 1 2 3 4 5 6 
#
# 1 75.1372 52.4923 22.6859 0.0000 -4.9003 0.0000
# 2 52.4923 169.0900 52.5058 0.0000 -9.7719 0.0000
# 3 22.6859 52.5058 115.4562 0.0000 4.2095 0.0000
# 4 0.0000 0.0000 0.0000 45.2624 0.0000 -8.1535
# 5 -4.9003 -9.7719 4.2095 0.0000 31.4984 0.0000
# 6 0.0000 0.0000 0.0000 -8.1535 0.0000 44.9809
#
#
#
# Elastic Compliance Matrix: (Units=1/GPa)
#
#
# Indices 1 2 3 4 5 6 
#
# 1 0.017167 -0.004880 -0.001202 0.000000 0.001317 0.000000
# 2 -0.004880 0.008487 -0.002983 0.000000 0.002272 0.000000
# 3 -0.001202 -0.002983 0.010345 0.000000 -0.002495 0.000000
# 4 0.000000 0.000000 0.000000 0.022839 0.000000 0.004140
# 5 0.001317 0.002272 -0.002495 0.000000 0.032991 0.000000
# 6 0.000000 0.000000 0.000000 0.004140 0.000000 0.022982
#
#
# Mechanical properties :
#
#
# Convention : Reuss Voigt Hill
#
# Bulk Modulus (GPa) = 55.96524 68.33906 62.15215
# Shear Modulus (GPa) = 35.99761 39.81495 37.90628
#
# Velocity S-wave (km/s) = 4.04476 4.25382 4.15061
# Velocity P-wave (km/s) = 6.87374 7.42867 7.15659
#
# Compressibility (1/GPa) = 0.01786824
#
# Stress axis : x y z
#
# Youngs Moduli (GPa) = 58.25109 117.83132 96.66304
#
# Poissons Ratio (x) = 0.57502 0.11618
# Poissons Ratio (y) = 0.28427 0.28839
# Poissons Ratio (z) = 0.07001 0.35155
#
# Static dielectric constant tensor:
#      x y z
#    x 2.034860 0.000000 0.401270 
#    y 0.000000 1.815260 0.000000 
#    z 0.401270 0.000000 2.646960 
# 
# From -- ./inp_files/291048.got.cif
#   From: 2010.05.17/outbox.cif.g08.bks.cpg/sg15_146_cif.got.tgz:291048.got - 2010.06.03 18:47:42.
