data_PCOD9298723
_publ_section_title
;
Structure prediction by ZEFSAII (Michael W. Deem and Ramdas Pophale) SiO2 
 PCOD9298723
Probable space group: C 2/C
;
_chemical_formula_sum "Si O2"
_cell_formula_units_Z 32
_cell_length_a 9.227253
_cell_length_b 12.207068
_cell_length_c 14.480051
_cell_angle_alpha 90.000000
_cell_angle_beta 114.906162
_cell_angle_gamma 90.000000
_cell_volume 1479.314662
_symmetry_space_group_name_H-M "C 2/C"
_symmetry_group_IT_number 15
_symmetry_cell_setting 'monoclinic'
loop_
_space_group_symop_operation_xyz
x,y,z
-x,y,1/2-z
-x,-y,-z
x,-y,1/2+z
1/2+x,1/2+y,z
1/2-x,1/2+y,1/2-z
1/2-x,1/2-y,-z
1/2+x,1/2-y,1/2+z
loop_
_atom_site_type_symbol
_atom_site_label
_atom_site_fract_x
_atom_site_fract_y
_atom_site_fract_z
Si Si1 0.677789 0.543138 0.786158
Si Si2 0.479805 0.795227 0.351641
Si Si3 0.166824 0.475383 0.496112
Si Si4 0.374461 0.580148 0.416357
O O1 0.500000 0.591740 0.750000
O O2 0.818644 0.631329 0.815584
O O3 0.711076 0.469169 0.885801
O O4 0.679390 0.470751 0.695040
O O5 0.500000 0.762173 0.250000
O O6 0.630329 0.869210 0.424403
O O7 0.451939 0.695794 0.414118
O O8 0.225181 0.574067 0.446239
O O9 0.000000 0.500000 0.500000
O O10 0.500000 0.500000 0.500000
#
# Coordination Sequence:
#
# PCOD9298723 Si02
#       4
#     8   8   8   8
#     4  11  23  46  68 104 140 183 240 299 354 430
#     4  11  25  46  73 103 143 197 235 290 373 419
#     4  10  24  45  71 100 141 181 240 293 354 424
#     4  12  25  44  69 105 143 181 243 298 350 431
#
# _framework density 21.631639
#
# number of rings (size 3 to 8) (size 9 to 14) (size 15 to 20)
#    0.000    1.000    5.000    0.750    0.000    7.000 
#    9.000    0.000    0.000    0.000    0.000    0.000 
#    0.000    0.000    0.000    0.000    0.000    0.000 
#
# Total GULP energy -89405.655557 kJ/mol
# GULP energy per Si atom -5587.853472 kJ/mol
# Density = 2.158240 g / cm^3
# Si number density = 21.631639 Si / 1000 Ang^3
#
#
#
# Elastic Constant Matrix: (Units=GPa)
#
#
# Indices 1 2 3 4 5 6 
#
# 1 113.6562 15.3905 31.0598 0.0000 -8.2426 0.0000
# 2 15.3905 72.7366 36.7154 0.0000 5.9122 0.0000
# 3 31.0598 36.7154 153.2695 0.0000 -9.6112 0.0000
# 4 0.0000 0.0000 0.0000 38.9607 0.0000 -6.1159
# 5 -8.2426 5.9122 -9.6112 0.0000 45.9104 0.0000
# 6 0.0000 0.0000 0.0000 -6.1159 0.0000 39.3468
#
#
#
# Elastic Compliance Matrix: (Units=1/GPa)
#
#
# Indices 1 2 3 4 5 6 
#
# 1 0.009509 -0.001384 -0.001497 0.000000 0.001572 0.000000
# 2 -0.001384 0.016214 -0.003800 0.000000 -0.003132 0.000000
# 3 -0.001497 -0.003800 0.007855 0.000000 0.001865 0.000000
# 4 0.000000 0.000000 0.000000 0.026309 0.000000 0.004089
# 5 0.001572 -0.003132 0.001865 0.000000 0.022858 0.000000
# 6 0.000000 0.000000 0.000000 0.004089 0.000000 0.026051
#
#
# Mechanical properties :
#
#
# Convention : Reuss Voigt Hill
#
# Bulk Modulus (GPa) = 49.46606 56.22152 52.84379
# Shear Modulus (GPa) = 38.79119 41.94334 40.36727
#
# Velocity S-wave (km/s) = 4.23929 4.40816 4.32455
# Velocity P-wave (km/s) = 6.84684 7.20805 7.02977
#
# Compressibility (1/GPa) = 0.02021588
#
# Stress axis : x y z
#
# Youngs Moduli (GPa) = 105.16392 61.67594 127.30785
#
# Poissons Ratio (x) = 0.08538 0.19055
# Poissons Ratio (y) = 0.14558 0.48375
# Poissons Ratio (z) = 0.15741 0.23436
#
# Static dielectric constant tensor:
#      x y z
#    x 1.856600 0.000000 0.008500 
#    y 0.000000 1.783020 0.000000 
#    z 0.008500 0.000000 1.790890 
# 
# From -- ./inp_files/132069.got.cif
#   From: 2010.05.17/outbox.cif.g08.bks.cpg/sg15_67_cif.got.tgz:132069.got - 2010.06.03 18:47:42.
