data_PCOD9298195
_publ_section_title
;
Structure prediction by ZEFSAII (Michael W. Deem and Ramdas Pophale) SiO2 
 PCOD9298195
Probable space group: C 2/C
;
_chemical_formula_sum "Si O2"
_cell_formula_units_Z 36
_cell_length_a 5.114945
_cell_length_b 13.698720
_cell_length_c 19.939948
_cell_angle_alpha 90.000000
_cell_angle_beta 103.856016
_cell_angle_gamma 90.000000
_cell_volume 1356.499858
_symmetry_space_group_name_H-M "C 2/C"
_symmetry_group_IT_number 15
_symmetry_cell_setting 'monoclinic'
loop_
_space_group_symop_operation_xyz
x,y,z
-x,y,1/2-z
-x,-y,-z
x,-y,1/2+z
1/2+x,1/2+y,z
1/2-x,1/2+y,1/2-z
1/2-x,1/2-y,-z
1/2+x,1/2-y,1/2+z
loop_
_atom_site_type_symbol
_atom_site_label
_atom_site_fract_x
_atom_site_fract_y
_atom_site_fract_z
Si Si1 0.282859 0.345439 0.453449
Si Si2 0.072029 0.698424 0.389433
Si Si3 0.189830 0.430164 0.316765
Si Si4 0.000000 0.225565 0.750000
Si Si5 0.079826 0.077897 0.413627
O O1 0.250000 0.250000 0.500000
O O2 0.528989 0.301737 0.423746
O O3 0.085098 0.380393 0.380128
O O4 0.275290 0.435175 0.505309
O O5 0.133585 0.711339 0.315255
O O6 0.798173 0.636899 0.383168
O O7 0.329507 0.640074 0.428278
O O8 0.297897 0.342920 0.277521
O O9 0.433191 0.496729 0.360162
O O10 0.000000 0.483380 0.250000
#
# Coordination Sequence:
#
# PCOD9298195 Si02
#       5
#     8   8   8   4   8
#     4   9  21  47  73 102 136 193 239 289 346 425
#     4  10  24  43  73  99 138 186 241 287 344 424
#     4  11  26  44  69 106 151 184 232 299 359 420
#     4  10  26  42  66 100 146 192 230 292 354 420
#     4  11  24  45  71 104 137 185 238 291 355 418
#
# _framework density 26.538889000000001
#
# number of rings (size 3 to 8) (size 9 to 14) (size 15 to 20)
#    0.000    1.778    0.000    1.333   14.000    0.000 
#    4.000    5.556    0.000    0.000    0.000    0.000 
#    0.000    0.000    0.000    0.000    0.000    0.000 
#
# Total GULP energy -100292.533124 kJ/mol
# GULP energy per Si atom -5571.807396 kJ/mol
# Density = 2.647849 g / cm^3
# Si number density = 26.538889 Si / 1000 Ang^3
#
#
#
# Elastic Constant Matrix: (Units=GPa)
#
#
# Indices 1 2 3 4 5 6 
#
# 1 100.2050 44.4995 35.5440 0.0000 3.4433 0.0000
# 2 44.4995 92.2190 55.2056 0.0000 8.6800 0.0000
# 3 35.5440 55.2056 264.2423 0.0000 -7.0805 0.0000
# 4 0.0000 0.0000 0.0000 -1.6096 0.0000 6.8388
# 5 3.4433 8.6800 -7.0805 0.0000 24.5800 0.0000
# 6 0.0000 0.0000 0.0000 6.8388 0.0000 40.6174
#
#
#
# Elastic Compliance Matrix: (Units=1/GPa)
#
#
# Indices 1 2 3 4 5 6 
#
# 1 0.012757 -0.005881 -0.000483 0.000000 0.000150 0.000000
# 2 -0.005881 0.015791 -0.002656 0.000000 -0.005517 0.000000
# 3 -0.000483 -0.002656 0.004466 0.000000 0.002292 0.000000
# 4 0.000000 0.000000 0.000000 -0.362179 0.000000 0.060981
# 5 0.000150 -0.005517 0.002292 0.000000 0.043271 0.000000
# 6 0.000000 0.000000 0.000000 0.060981 0.000000 0.014353
#
#
# Mechanical properties :
#
#
# Convention : Reuss Voigt Hill
#
# Bulk Modulus (GPa) = 66.78308 80.79603 73.78956
# Shear Modulus (GPa) = -20.11990 34.14537 7.01273
#
# Velocity S-wave (km/s) = -2.75640 3.59083 1.62732
# Velocity P-wave (km/s) = 3.88440 6.90671 5.60317
#
# Compressibility (1/GPa) = 0.01497385
#
# Stress axis : x y z
#
# Youngs Moduli (GPa) = 78.38602 63.32874 223.92945
#
# Poissons Ratio (x) = 0.37242 0.10825
# Poissons Ratio (y) = 0.46097 0.59471
# Poissons Ratio (z) = 0.03789 0.16819
#
# Static dielectric constant tensor:
#      x y z
#    x 2.447470 0.000000 0.259380 
#    y 0.000000 2.258140 0.000000 
#    z 0.259380 0.000000 2.282830 
# 
# From -- ./inp_files/226529.got.cif
#   From: 2010.05.17/outbox.cif.g08.bks.cpg/sg15_114_cif.got.tgz:226529.got - 2010.06.03 18:47:42.
