data_PCOD9298371
_publ_section_title
;
Structure prediction by ZEFSAII (Michael W. Deem and Ramdas Pophale) SiO2 
 PCOD9298371
Probable space group: C 2/C
;
_chemical_formula_sum "Si O2"
_cell_formula_units_Z 52
_cell_length_a 10.522150
_cell_length_b 26.143206
_cell_length_c 8.694436
_cell_angle_alpha 90.000000
_cell_angle_beta 72.746405
_cell_angle_gamma 90.000000
_cell_volume 2284.066415
_symmetry_space_group_name_H-M "C 2/C"
_symmetry_group_IT_number 15
_symmetry_cell_setting 'monoclinic'
loop_
_space_group_symop_operation_xyz
x,y,z
-x,y,1/2-z
-x,-y,-z
x,-y,1/2+z
1/2+x,1/2+y,z
1/2-x,1/2+y,1/2-z
1/2-x,1/2-y,-z
1/2+x,1/2-y,1/2+z
loop_
_atom_site_type_symbol
_atom_site_label
_atom_site_fract_x
_atom_site_fract_y
_atom_site_fract_z
Si Si1 0.710058 0.042856 0.031549
Si Si2 0.521375 0.794840 0.492612
Si Si3 0.996610 0.182342 0.576357
Si Si4 0.772762 0.438172 0.338864
Si Si5 0.500000 0.878964 0.750000
Si Si6 0.978401 0.080156 0.076945
Si Si7 0.689310 0.175872 0.664058
O O1 0.617644 0.084210 0.149890
O O2 0.857813 0.048250 0.049721
O O3 0.666820 0.985200 0.088027
O O4 0.714179 0.051887 0.847696
O O5 0.552028 0.739594 0.551885
O O6 0.471407 0.838739 0.624355
O O7 0.404465 0.790519 0.409024
O O8 0.650478 0.813730 0.354214
O O9 0.842787 0.186049 0.584385
O O10 0.000000 0.162442 0.750000
O O11 0.058636 0.139627 0.443967
O O12 0.617261 0.431210 0.440879
O O13 0.838297 0.383925 0.355868
O O14 0.000000 0.071249 0.250000
#
# Coordination Sequence:
#
# PCOD9298371 Si02
#       7
#     8   8   8   8   4   8   8
#     4  12  26  45  69 101 138 177 232 277 345 405
#     4  11  24  45  66  96 140 183 225 276 338 404
#     4  11  24  42  69 102 134 179 225 282 346 397
#     4  11  24  46  71 100 134 178 221 290 341 397
#     4  12  28  42  68 102 138 190 224 276 330 414
#     4  11  25  44  72 102 134 175 229 287 341 402
#     4  10  24  44  68  94 137 179 227 281 337 410
#
# _framework density 22.766414000000001
#
# number of rings (size 3 to 8) (size 9 to 14) (size 15 to 20)
#    0.000    0.923    2.308    4.154    8.615    3.692 
#    0.000    0.000    0.000    0.000    0.000    0.000 
#    0.000    0.000    0.000    0.000    0.000    0.000 
#
# Total GULP energy -145495.343390 kJ/mol
# GULP energy per Si atom -5595.974746 kJ/mol
# Density = 2.271460 g / cm^3
# Si number density = 22.766414 Si / 1000 Ang^3
#
#
#
# Elastic Constant Matrix: (Units=GPa)
#
#
# Indices 1 2 3 4 5 6 
#
# 1 21.8734 -5.3429 -1.7839 0.0000 -1.4191 0.0000
# 2 -5.3429 127.7677 33.8305 0.0000 -7.8276 0.0000
# 3 -1.7839 33.8305 109.8695 0.0000 2.2720 0.0000
# 4 0.0000 0.0000 0.0000 31.3478 0.0000 11.6282
# 5 -1.4191 -7.8276 2.2720 0.0000 32.2889 0.0000
# 6 0.0000 0.0000 0.0000 11.6282 0.0000 20.0517
#
#
#
# Elastic Compliance Matrix: (Units=1/GPa)
#
#
# Indices 1 2 3 4 5 6 
#
# 1 0.046395 0.002080 0.000060 0.000000 0.002539 0.000000
# 2 0.002080 0.008782 -0.002720 0.000000 0.002412 0.000000
# 3 0.000060 -0.002720 0.009968 0.000000 -0.001358 0.000000
# 4 0.000000 0.000000 0.000000 0.040643 0.000000 -0.023569
# 5 0.002539 0.002412 -0.001358 0.000000 0.031762 0.000000
# 6 0.000000 0.000000 0.000000 -0.023569 0.000000 0.063539
#
#
# Mechanical properties :
#
#
# Convention : Reuss Voigt Hill
#
# Bulk Modulus (GPa) = 15.62862 34.76867 25.19865
# Shear Modulus (GPa) = 22.36353 32.25812 27.31082
#
# Velocity S-wave (km/s) = 3.13757 3.76828 3.46730
# Velocity P-wave (km/s) = 4.47275 5.85135 5.20787
#
# Compressibility (1/GPa) = 0.06398516
#
# Stress axis : x y z
#
# Youngs Moduli (GPa) = 21.55394 113.87377 100.31764
#
# Poissons Ratio (x) = -0.23682 -0.00606
# Poissons Ratio (y) = -0.04483 0.27287
# Poissons Ratio (z) = -0.00130 0.30975
#
# Static dielectric constant tensor:
#      x y z
#    x 1.816550 0.000000 -0.013810 
#    y 0.000000 1.869390 0.000000 
#    z -0.013810 0.000000 1.833540 
# 
# From -- ./inp_files/33517.got.cif
#   From: 2010.05.17/outbox.cif.g08.bks.cpg/sg15_17_cif.got.tgz:33517.got - 2010.06.03 18:47:42.
