data_PCOD9298408
_publ_section_title
;
Structure prediction by ZEFSAII (Michael W. Deem and Ramdas Pophale) SiO2 
 PCOD9298408
Probable space group: C 2/C
;
_chemical_formula_sum "Si O2"
_cell_formula_units_Z 36
_cell_length_a 12.942484
_cell_length_b 12.427894
_cell_length_c 24.330303
_cell_angle_alpha 90.000000
_cell_angle_beta 156.690540
_cell_angle_gamma 90.000000
_cell_volume 1548.551332
_symmetry_space_group_name_H-M "C 2/C"
_symmetry_group_IT_number 15
_symmetry_cell_setting 'monoclinic'
loop_
_space_group_symop_operation_xyz
x,y,z
-x,y,1/2-z
-x,-y,-z
x,-y,1/2+z
1/2+x,1/2+y,z
1/2-x,1/2+y,1/2-z
1/2-x,1/2-y,-z
1/2+x,1/2-y,1/2+z
loop_
_atom_site_type_symbol
_atom_site_label
_atom_site_fract_x
_atom_site_fract_y
_atom_site_fract_z
Si Si1 0.729259 0.935162 0.638790
Si Si2 0.121312 0.121010 0.994740
Si Si3 0.500000 0.774026 0.250000
Si Si4 0.114716 0.878061 0.997721
Si Si5 0.350907 0.190672 0.293533
O O1 0.765481 0.812658 0.634984
O O2 0.677878 0.908185 0.677128
O O3 0.000000 0.987422 0.750000
O O4 0.500000 0.000000 0.500000
O O5 0.013428 0.119117 0.003964
O O6 0.421539 0.158971 0.137767
O O7 0.957830 0.203458 0.876900
O O8 0.105974 0.997328 0.968291
O O9 0.414461 0.846457 0.157184
O O10 0.932643 0.801118 0.872571
#
# Coordination Sequence:
#
# PCOD9298408 Si02
#       5
#     8   8   4   8   8
#     4  10  24  47  67 102 146 183 238 299 369 429
#     4  10  24  44  69 110 137 189 243 289 370 432
#     4  10  24  46  66 100 138 192 238 294 354 430
#     4  11  24  44  72 101 149 188 238 298 358 445
#     4  11  24  44  70 107 139 188 239 301 362 430
#
# _framework density 23.247534999999999
#
# number of rings (size 3 to 8) (size 9 to 14) (size 15 to 20)
#    0.667    0.889    2.222    0.667    9.333    2.667 
#    4.000    0.000    0.000    0.000    0.000    0.000 
#    0.000    0.000    0.000    0.000    0.000    0.000 
#
# Total GULP energy -100328.425113 kJ/mol
# GULP energy per Si atom -5573.801395 kJ/mol
# Density = 2.319462 g / cm^3
# Si number density = 23.247535 Si / 1000 Ang^3
#
#
#
# Elastic Constant Matrix: (Units=GPa)
#
#
# Indices 1 2 3 4 5 6 
#
# 1 58.6988 20.7124 19.3931 0.0027 14.1836 0.0003
# 2 20.7124 108.8112 79.3486 0.0023 -7.0889 0.0002
# 3 19.3931 79.3486 187.1086 0.0108 -6.8504 0.0013
# 4 0.0027 0.0023 0.0108 11.0954 0.0005 -2.1049
# 5 14.1836 -7.0889 -6.8504 0.0005 39.2118 0.0000
# 6 0.0003 0.0002 0.0013 -2.1049 0.0000 22.2774
#
#
#
# Elastic Compliance Matrix: (Units=1/GPa)
#
#
# Indices 1 2 3 4 5 6 
#
# 1 0.020687 -0.003901 -0.000795 -0.000003 -0.008327 0.000000
# 2 -0.003901 0.014120 -0.005474 0.000003 0.003007 0.000001
# 3 -0.000795 -0.005474 0.007772 -0.000006 0.000656 -0.000001
# 4 -0.000003 0.000003 -0.000006 0.091773 0.000000 0.008671
# 5 -0.008327 0.003007 0.000656 0.000000 0.029173 0.000000
# 6 0.000000 0.000001 -0.000001 0.008671 0.000000 0.045708
#
#
# Mechanical properties :
#
#
# Convention : Reuss Voigt Hill
#
# Bulk Modulus (GPa) = 44.96172 65.94741 55.45456
# Shear Modulus (GPa) = 21.09837 30.19455 25.64646
#
# Velocity S-wave (km/s) = 3.01583 3.60784 3.32503
# Velocity P-wave (km/s) = 5.61332 6.76641 6.21666
#
# Compressibility (1/GPa) = 0.02224114
#
# Stress axis : x y z
#
# Youngs Moduli (GPa) = 48.33914 70.82028 128.66467
#
# Poissons Ratio (x) = 0.27625 0.10226
# Poissons Ratio (y) = 0.18856 0.70427
# Poissons Ratio (z) = 0.03842 0.38765
#
# Static dielectric constant tensor:
#      x y z
#    x 2.003550 0.000000 0.132580 
#    y 0.000000 1.870040 0.000000 
#    z 0.132580 0.000000 2.027470 
# 
# From -- ./inp_files/296472.got.cif
#   From: 2010.05.17/outbox.cif.g08.bks.cpg/sg15_149_cif.got.tgz:296472.got - 2010.06.03 18:47:42.
