data_PCOD9298415
_publ_section_title
;
Structure prediction by ZEFSAII (Michael W. Deem and Ramdas Pophale) SiO2 
 PCOD9298415
Probable space group: C 2/C
;
_chemical_formula_sum "Si O2"
_cell_formula_units_Z 56
_cell_length_a 17.258310
_cell_length_b 27.075480
_cell_length_c 9.129853
_cell_angle_alpha 90.000000
_cell_angle_beta 39.028649
_cell_angle_gamma 90.000000
_cell_volume 2686.445578
_symmetry_space_group_name_H-M "C 2/C"
_symmetry_group_IT_number 15
_symmetry_cell_setting 'monoclinic'
loop_
_space_group_symop_operation_xyz
x,y,z
-x,y,1/2-z
-x,-y,-z
x,-y,1/2+z
1/2+x,1/2+y,z
1/2-x,1/2+y,1/2-z
1/2-x,1/2-y,-z
1/2+x,1/2-y,1/2+z
loop_
_atom_site_type_symbol
_atom_site_label
_atom_site_fract_x
_atom_site_fract_y
_atom_site_fract_z
Si Si1 0.398631 0.819135 0.520847
Si Si2 0.638754 0.964616 0.091664
Si Si3 0.816669 0.106675 0.151899
Si Si4 0.702595 0.722069 0.718145
Si Si5 0.424780 0.167772 0.487508
Si Si6 0.804462 0.562873 0.653805
Si Si7 0.399326 0.386088 0.198573
O O1 0.266575 0.844643 0.697688
O O2 0.381125 0.761665 0.578761
O O3 0.469984 0.842520 0.551557
O O4 0.500000 0.826612 0.250000
O O5 0.500000 0.949319 0.250000
O O6 0.665815 0.954167 0.223455
O O7 0.736824 0.935383 0.847814
O O8 0.653832 0.021403 0.021719
O O9 0.839686 0.099961 0.944195
O O10 0.953962 0.109478 0.013897
O O11 0.750000 0.750000 0.500000
O O12 0.809453 0.704062 0.674244
O O13 0.635758 0.671315 0.773149
O O14 0.372084 0.114595 0.523692
O O15 0.500000 0.193841 0.250000
O O16 0.663193 0.578357 0.829990
#
# Coordination Sequence:
#
# PCOD9298415 Si02
#       7
#     8   8   8   8   8   8   8
#     4  12  25  41  64 100 138 174 229 285 342 396
#     4  12  25  43  72 101 138 175 223 279 346 408
#     4  11  23  43  69  96 134 179 226 280 341 402
#     4  11  22  41  66  97 132 183 231 275 337 408
#     4  11  22  40  68  93 133 174 224 281 337 406
#     4  11  24  44  66 102 134 175 223 280 342 406
#     4  10  24  44  69  96 135 181 231 278 333 415
#
# _framework density 20.845388
#
# number of rings (size 3 to 8) (size 9 to 14) (size 15 to 20)
#    0.000    0.857    2.857    4.714    2.000    1.714 
#    5.143    0.000    0.000    0.000    0.000    0.000 
#    0.000    0.000    0.000    0.000    0.000    0.000 
#
# Total GULP energy -156270.401985 kJ/mol
# GULP energy per Si atom -5581.085785 kJ/mol
# Density = 2.079794 g / cm^3
# Si number density = 20.845388 Si / 1000 Ang^3
#
#
#
# Elastic Constant Matrix: (Units=GPa)
#
#
# Indices 1 2 3 4 5 6 
#
# 1 138.0167 41.5561 56.0251 0.0000 -26.3569 0.0000
# 2 41.5561 83.8508 17.0077 0.0000 -18.0166 0.0000
# 3 56.0251 17.0077 98.9848 0.0000 -28.5567 0.0000
# 4 0.0000 0.0000 0.0000 34.7614 0.0000 1.7249
# 5 -26.3569 -18.0166 -28.5567 0.0000 28.9110 0.0000
# 6 0.0000 0.0000 0.0000 1.7249 0.0000 17.5151
#
#
#
# Elastic Compliance Matrix: (Units=1/GPa)
#
#
# Indices 1 2 3 4 5 6 
#
# 1 0.010828 -0.003797 -0.004631 0.000000 0.002931 0.000000
# 2 -0.003797 0.015103 0.001777 0.000000 0.007705 0.000000
# 3 -0.004631 0.001777 0.016111 0.000000 0.012799 0.000000
# 4 0.000000 0.000000 0.000000 0.028909 0.000000 -0.002847
# 5 0.002931 0.007705 0.012799 0.000000 0.054705 0.000000
# 6 0.000000 0.000000 0.000000 -0.002847 0.000000 0.057374
#
#
# Mechanical properties :
#
#
# Convention : Reuss Voigt Hill
#
# Bulk Modulus (GPa) = 34.79413 61.11446 47.95430
# Shear Modulus (GPa) = 24.28221 29.98840 27.13531
#
# Velocity S-wave (km/s) = 3.41673 3.79702 3.61188
# Velocity P-wave (km/s) = 5.68270 6.97171 6.35995
#
# Compressibility (1/GPa) = 0.02874048
#
# Stress axis : x y z
#
# Youngs Moduli (GPa) = 92.34965 66.21178 62.07081
#
# Poissons Ratio (x) = 0.25143 0.28743
# Poissons Ratio (y) = 0.35069 -0.11032
# Poissons Ratio (z) = 0.42764 -0.11768
#
# Static dielectric constant tensor:
#      x y z
#    x 1.822080 0.000000 0.000440 
#    y 0.000000 1.730440 0.000000 
#    z 0.000440 0.000000 1.733280 
# 
# From -- ./inp_files/34363.got.cif
#   From: 2010.05.17/outbox.cif.g08.bks.cpg/sg15_18_cif.got.tgz:34363.got - 2010.06.03 18:47:42.
