data_PCOD9298561
_publ_section_title
;
Structure prediction by ZEFSAII (Michael W. Deem and Ramdas Pophale) SiO2 
 PCOD9298561
Probable space group: C 2/C
;
_chemical_formula_sum "Si O2"
_cell_formula_units_Z 60
_cell_length_a 12.639081
_cell_length_b 22.113980
_cell_length_c 8.475480
_cell_angle_alpha 90.000000
_cell_angle_beta 91.223749
_cell_angle_gamma 90.000000
_cell_volume 2368.359613
_symmetry_space_group_name_H-M "C 2/C"
_symmetry_group_IT_number 15
_symmetry_cell_setting 'monoclinic'
loop_
_space_group_symop_operation_xyz
x,y,z
-x,y,1/2-z
-x,-y,-z
x,-y,1/2+z
1/2+x,1/2+y,z
1/2-x,1/2+y,1/2-z
1/2-x,1/2-y,-z
1/2+x,1/2-y,1/2+z
loop_
_atom_site_type_symbol
_atom_site_label
_atom_site_fract_x
_atom_site_fract_y
_atom_site_fract_z
Si Si1 0.087963 0.755743 0.520311
Si Si2 0.998231 0.567880 0.060833
Si Si3 0.261031 0.067141 0.987716
Si Si4 0.693435 0.344758 0.758304
Si Si5 0.642746 0.554278 0.479998
Si Si6 0.500000 0.475016 0.250000
Si Si7 0.867857 0.683740 0.489891
Si Si8 0.262388 0.677878 0.694636
O O1 0.110937 0.801479 0.667904
O O2 0.029913 0.728258 0.997161
O O3 0.174144 0.703858 0.567450
O O4 0.130392 0.790785 0.366354
O O5 0.882680 0.583900 0.999853
O O6 0.000000 0.569398 0.250000
O O7 0.000000 0.500000 0.000000
O O8 0.083192 0.615883 0.001861
O O9 0.211291 0.100768 0.136047
O O10 0.224243 0.105783 0.834894
O O11 0.237619 0.995374 0.001909
O O12 0.662000 0.379583 0.915147
O O13 0.801903 0.313296 0.823516
O O14 0.576796 0.518332 0.347669
O O15 0.566059 0.560355 0.624612
O O16 0.789645 0.691413 0.637054
#
# Coordination Sequence:
#
# PCOD9298561 Si02
#       8
#     8   8   8   8   8   4   8   8
#     4  10  24  50  75 111 161 209 274 342 401 478
#     4  12  27  41  70 120 161 206 257 315 409 498
#     4  11  23  43  72 107 160 197 248 333 390 480
#     4  11  25  47  78 116 155 211 265 334 407 474
#     4  11  23  46  74 115 158 206 264 327 394 491
#     4  10  24  44  74 108 160 214 258 322 404 462
#     4  12  25  49  81 113 159 215 273 340 408 491
#     4  10  24  45  77 108 149 215 267 333 406 472
#
# _framework density 25.333988999999999
#
# number of rings (size 3 to 8) (size 9 to 14) (size 15 to 20)
#    0.000    1.067    4.000    1.200    3.733    0.533 
#    2.400    4.000    5.867    0.000    0.000    0.000 
#    0.000    0.000    0.000    0.000    0.000    0.000 
#
# Total GULP energy -167736.951134 kJ/mol
# GULP energy per Si atom -5591.231704 kJ/mol
# Density = 2.527633 g / cm^3
# Si number density = 25.333989 Si / 1000 Ang^3
#
#
#
# Elastic Constant Matrix: (Units=GPa)
#
#
# Indices 1 2 3 4 5 6 
#
# 1 108.0210 60.3553 55.2494 0.0000 -2.3531 0.0000
# 2 60.3553 158.6090 51.3784 0.0000 -8.6169 0.0000
# 3 55.2494 51.3784 69.6538 0.0000 -18.2609 0.0000
# 4 0.0000 0.0000 0.0000 62.3629 0.0000 32.3821
# 5 -2.3531 -8.6169 -18.2609 0.0000 39.0037 0.0000
# 6 0.0000 0.0000 0.0000 32.3821 0.0000 -14.5640
#
#
#
# Elastic Compliance Matrix: (Units=1/GPa)
#
#
# Indices 1 2 3 4 5 6 
#
# 1 0.017473 -0.002603 -0.013467 0.000000 -0.005826 0.000000
# 2 -0.002603 0.008720 -0.004449 0.000000 -0.000314 0.000000
# 3 -0.013467 -0.004449 0.031746 0.000000 0.013068 0.000000
# 4 0.000000 0.000000 0.000000 0.007443 0.000000 0.016548
# 5 -0.005826 -0.000314 0.013068 0.000000 0.031336 0.000000
# 6 0.000000 0.000000 0.000000 0.016548 0.000000 -0.031869
#
#
# Mechanical properties :
#
#
# Convention : Reuss Voigt Hill
#
# Bulk Modulus (GPa) = 59.16940 74.47222 66.82081
# Shear Modulus (GPa) = 44.83527 28.64724 36.74126
#
# Velocity S-wave (km/s) = 4.21142 3.36636 3.81238
# Velocity P-wave (km/s) = 6.85963 6.67606 6.76847
#
# Compressibility (1/GPa) = 0.01690063
#
# Stress axis : x y z
#
# Youngs Moduli (GPa) = 57.23195 114.68444 31.49989
#
# Poissons Ratio (x) = 0.29854 0.42420
# Poissons Ratio (y) = 0.14898 0.14015
# Poissons Ratio (z) = 0.77072 0.51025
#
# Static dielectric constant tensor:
#      x y z
#    x 2.124160 0.000000 -0.039740 
#    y 0.000000 2.081080 0.000000 
#    z -0.039740 0.000000 2.017390 
# 
# From -- ./inp_files/42203.got.cif
#   From: 2010.05.17/outbox.cif.g08.bks.cpg/sg15_22_cif.got.tgz:42203.got - 2010.06.03 18:47:42.
