data_PCOD9298306
_publ_section_title
;
Structure prediction by ZEFSAII (Michael W. Deem and Ramdas Pophale) SiO2 
 PCOD9298306
Probable space group: C 2/C
;
_chemical_formula_sum "Si O2"
_cell_formula_units_Z 60
_cell_length_a 30.157930
_cell_length_b 11.579476
_cell_length_c 9.402603
_cell_angle_alpha 90.000000
_cell_angle_beta 58.341493
_cell_angle_gamma 90.000000
_cell_volume 2794.896799
_symmetry_space_group_name_H-M "C 2/C"
_symmetry_group_IT_number 15
_symmetry_cell_setting 'monoclinic'
loop_
_space_group_symop_operation_xyz
x,y,z
-x,y,1/2-z
-x,-y,-z
x,-y,1/2+z
1/2+x,1/2+y,z
1/2-x,1/2+y,1/2-z
1/2-x,1/2-y,-z
1/2+x,1/2-y,1/2+z
loop_
_atom_site_type_symbol
_atom_site_label
_atom_site_fract_x
_atom_site_fract_y
_atom_site_fract_z
Si Si1 0.499876 0.362488 0.981696
Si Si2 0.681944 0.468310 0.797018
Si Si3 0.618676 0.275489 0.742756
Si Si4 0.243766 0.884599 0.967396
Si Si5 0.000000 0.710580 0.250000
Si Si6 0.601009 0.076577 0.984905
Si Si7 0.391578 0.318522 0.047487
Si Si8 0.639321 0.111801 0.233754
O O1 0.558840 0.320811 0.855092
O O2 0.500000 0.500000 0.000000
O O3 0.482582 0.295684 0.153837
O O4 0.453854 0.331262 0.949932
O O5 0.657359 0.372087 0.736348
O O6 0.706208 0.410845 0.897092
O O7 0.723291 0.542908 0.636897
O O8 0.635237 0.556518 0.913480
O O9 0.625322 0.164945 0.830491
O O10 0.626843 0.253105 0.563124
O O11 0.302011 0.921395 0.826156
O O12 0.250000 0.750000 0.000000
O O13 0.955141 0.628437 0.383918
O O14 0.600377 0.955880 0.904142
O O15 0.630133 0.078813 0.086074
O O16 0.370770 0.246642 0.217393
#
# Coordination Sequence:
#
# PCOD9298306 Si02
#       8
#     8   8   8   8   4   8   8   8
#     4  11  23  38  70 101 146 183 229 283 361 434
#     4  12  25  44  73 104 144 179 241 305 354 430
#     4  11  25  42  67 104 145 182 232 292 361 429
#     4  12  26  47  72 105 140 191 242 303 369 426
#     4  10  24  44  66 110 144 188 238 294 354 424
#     4  11  25  47  71 104 140 193 238 297 354 435
#     4  12  24  44  68 107 139 189 229 296 360 430
#     4  12  25  48  74  95 144 187 246 293 359 428
#
# _framework density 21.467697000000001
#
# number of rings (size 3 to 8) (size 9 to 14) (size 15 to 20)
#    0.000    0.533    5.333    2.800    1.867    0.533 
#    2.400    2.000    0.000    0.000    0.000    0.000 
#    0.000    0.000    0.000    0.000    0.000    0.000 
#
# Total GULP energy -167753.888508 kJ/mol
# GULP energy per Si atom -5591.796284 kJ/mol
# Density = 2.141884 g / cm^3
# Si number density = 21.467697 Si / 1000 Ang^3
#
#
#
# Elastic Constant Matrix: (Units=GPa)
#
#
# Indices 1 2 3 4 5 6 
#
# 1 106.6596 37.8198 27.2668 0.0000 20.9421 0.0000
# 2 37.8198 89.6783 18.5843 0.0000 11.7197 0.0000
# 3 27.2668 18.5843 67.0313 0.0000 23.7926 0.0000
# 4 0.0000 0.0000 0.0000 32.1841 0.0000 2.1239
# 5 20.9421 11.7197 23.7926 0.0000 45.4547 0.0000
# 6 0.0000 0.0000 0.0000 2.1239 0.0000 28.3986
#
#
#
# Elastic Compliance Matrix: (Units=1/GPa)
#
#
# Indices 1 2 3 4 5 6 
#
# 1 0.012149 -0.004160 -0.002680 0.000000 -0.003122 0.000000
# 2 -0.004160 0.013355 -0.001804 0.000000 -0.000583 0.000000
# 3 -0.002680 -0.001804 0.019535 0.000000 -0.008525 0.000000
# 4 0.000000 0.000000 0.000000 0.031225 0.000000 -0.002335
# 5 -0.003122 -0.000583 -0.008525 0.000000 0.028051 0.000000
# 6 0.000000 0.000000 0.000000 -0.002335 0.000000 0.035388
#
#
# Mechanical properties :
#
#
# Convention : Reuss Voigt Hill
#
# Bulk Modulus (GPa) = 36.03538 47.85676 41.94607
# Shear Modulus (GPa) = 30.07674 33.18738 31.63206
#
# Velocity S-wave (km/s) = 3.74708 3.93609 3.84275
# Velocity P-wave (km/s) = 5.96181 6.55728 6.26662
#
# Compressibility (1/GPa) = 0.02775051
#
# Stress axis : x y z
#
# Youngs Moduli (GPa) = 82.31207 74.87659 51.19063
#
# Poissons Ratio (x) = 0.31149 0.13722
# Poissons Ratio (y) = 0.34242 0.09233
# Poissons Ratio (z) = 0.22064 0.13505
#
# Static dielectric constant tensor:
#      x y z
#    x 1.765380 0.000000 -0.006690 
#    y 0.000000 1.787940 0.000000 
#    z -0.006690 0.000000 1.788130 
# 
# From -- ./inp_files/69333.got.cif
#   From: 2010.05.17/outbox.cif.g08.bks.cpg/sg15_35_cif.got.tgz:69333.got - 2010.06.03 18:47:42.
