data_PCOD9298272
_publ_section_title
;
Structure prediction by ZEFSAII (Michael W. Deem and Ramdas Pophale) SiO2 
 PCOD9298272
Probable space group: C 2/C
;
_chemical_formula_sum "Si O2"
_cell_formula_units_Z 32
_cell_length_a 6.191291
_cell_length_b 32.896384
_cell_length_c 7.544732
_cell_angle_alpha 90.000000
_cell_angle_beta 114.013097
_cell_angle_gamma 90.000000
_cell_volume 1403.651023
_symmetry_space_group_name_H-M "C 2/C"
_symmetry_group_IT_number 15
_symmetry_cell_setting 'monoclinic'
loop_
_space_group_symop_operation_xyz
x,y,z
-x,y,1/2-z
-x,-y,-z
x,-y,1/2+z
1/2+x,1/2+y,z
1/2-x,1/2+y,1/2-z
1/2-x,1/2-y,-z
1/2+x,1/2-y,1/2+z
loop_
_atom_site_type_symbol
_atom_site_label
_atom_site_fract_x
_atom_site_fract_y
_atom_site_fract_z
Si Si1 0.500000 0.906539 0.750000
Si Si2 0.531681 0.452696 0.469688
Si Si3 0.500000 0.751808 0.250000
Si Si4 0.295167 0.116984 0.535047
Si Si5 0.551052 0.304713 0.058244
O O1 0.283969 0.934826 0.612833
O O2 0.587168 0.879080 0.616586
O O3 0.500000 0.445724 0.250000
O O4 0.500000 0.500000 0.500000
O O5 0.326342 0.427012 0.496137
O O6 0.397954 0.722397 0.371190
O O7 0.302235 0.782613 0.116388
O O8 0.500000 0.120693 0.750000
O O9 0.090424 0.149467 0.507657
O O10 0.500000 0.303786 0.250000
#
# Coordination Sequence:
#
# PCOD9298272 Si02
#       5
#     4   8   4   8   8
#     4  12  28  48  73 104 146 192 238 299 360 426
#     4  12  27  48  75 108 146 189 241 299 361 431
#     4  10  24  44  65 104 138 184 234 291 364 422
#     4  12  26  46  72 105 143 191 242 295 361 431
#     4  11  24  44  70 100 139 184 236 295 355 426
#
# _framework density 22.797689999999999
#
# number of rings (size 3 to 8) (size 9 to 14) (size 15 to 20)
#    0.000    0.500    3.750    3.750    5.250    2.000 
#    9.000    0.000    0.000    0.000    0.000    0.000 
#    0.000    0.000    0.000    0.000    0.000    0.000 
#
# Total GULP energy -89553.769577 kJ/mol
# GULP energy per Si atom -5597.110599 kJ/mol
# Density = 2.274580 g / cm^3
# Si number density = 22.797690 Si / 1000 Ang^3
#
#
#
# Elastic Constant Matrix: (Units=GPa)
#
#
# Indices 1 2 3 4 5 6 
#
# 1 44.7682 -2.8486 27.9142 0.0000 -22.3869 0.0000
# 2 -2.8486 106.8672 7.1310 0.0000 -11.3647 0.0000
# 3 27.9142 7.1310 135.0861 0.0000 -20.5901 0.0000
# 4 0.0000 0.0000 0.0000 39.1547 0.0000 -11.3601
# 5 -22.3869 -11.3647 -20.5901 0.0000 62.3132 0.0000
# 6 0.0000 0.0000 0.0000 -11.3601 0.0000 31.1521
#
#
#
# Elastic Compliance Matrix: (Units=1/GPa)
#
#
# Indices 1 2 3 4 5 6 
#
# 1 0.030385 0.002168 -0.004917 0.000000 0.009687 0.000000
# 2 0.002168 0.009705 -0.000602 0.000000 0.002350 0.000000
# 3 -0.004917 -0.000602 0.008597 0.000000 0.000965 0.000000
# 4 0.000000 0.000000 0.000000 0.028562 0.000000 0.010415
# 5 0.009687 0.002350 0.000965 0.000000 0.020276 0.000000
# 6 0.000000 0.000000 0.000000 0.010415 0.000000 0.035899
#
#
# Mechanical properties :
#
#
# Convention : Reuss Voigt Hill
#
# Bulk Modulus (GPa) = 23.81717 39.01275 31.41496
# Shear Modulus (GPa) = 32.44210 43.49231 37.96721
#
# Velocity S-wave (km/s) = 3.77642 4.37252 4.08536
# Velocity P-wave (km/s) = 5.43001 6.53006 6.00527
#
# Compressibility (1/GPa) = 0.04198652
#
# Stress axis : x y z
#
# Youngs Moduli (GPa) = 32.91082 103.03653 116.31290
#
# Poissons Ratio (x) = -0.22340 0.57188
# Poissons Ratio (y) = -0.07136 0.07004
# Poissons Ratio (z) = 0.16181 0.06205
#
# Static dielectric constant tensor:
#      x y z
#    x 1.846160 0.000000 0.006670 
#    y 0.000000 1.806960 0.000000 
#    z 0.006670 0.000000 2.006240 
# 
# From -- ./inp_files/20335.got.cif
#   From: 2010.05.17/outbox.cif.g08.bks.cpg/sg15_11_cif.got.tgz:20335.got - 2010.06.03 18:47:42.
