data_PCOD9298932
_publ_section_title
;
Structure prediction by ZEFSAII (Michael W. Deem and Ramdas Pophale) SiO2 
 PCOD9298932
Probable space group: C 2/C
;
_chemical_formula_sum "Si O2"
_cell_formula_units_Z 48
_cell_length_a 22.160269
_cell_length_b 4.737033
_cell_length_c 16.720026
_cell_angle_alpha 90.000000
_cell_angle_beta 94.309125
_cell_angle_gamma 90.000000
_cell_volume 1750.205223
_symmetry_space_group_name_H-M "C 2/C"
_symmetry_group_IT_number 15
_symmetry_cell_setting 'monoclinic'
loop_
_space_group_symop_operation_xyz
x,y,z
-x,y,1/2-z
-x,-y,-z
x,-y,1/2+z
1/2+x,1/2+y,z
1/2-x,1/2+y,1/2-z
1/2-x,1/2-y,-z
1/2+x,1/2-y,1/2+z
loop_
_atom_site_type_symbol
_atom_site_label
_atom_site_fract_x
_atom_site_fract_y
_atom_site_fract_z
Si Si1 0.752580 0.601858 0.646127
Si Si2 0.059208 0.465073 0.886883
Si Si3 0.000000 0.827682 0.750000
Si Si4 0.322045 0.091534 0.814630
Si Si5 0.750000 0.750000 0.000000
Si Si6 0.064801 0.212479 0.623827
Si Si7 0.617750 0.478216 0.971812
O O1 0.729655 0.923668 0.638376
O O2 0.801863 0.558749 0.720776
O O3 0.776115 0.473652 0.568078
O O4 0.693958 0.416401 0.668847
O O5 0.045753 0.623586 0.802712
O O6 0.091093 0.163921 0.896597
O O7 0.991764 0.398801 0.910616
O O8 0.099521 0.664023 0.945664
O O9 0.038588 0.024660 0.694066
O O10 0.382757 0.932147 0.844532
O O11 0.814236 0.930946 0.007301
O O12 0.084717 0.003924 0.554545
#
# Coordination Sequence:
#
# PCOD9298932 Si02
#       7
#     8   8   4   8   4   8   8
#     4  10  24  46  70 112 152 200 261 321 407 477
#     4  12  29  52  79 119 159 213 271 341 413 494
#     4  12  30  50  80 120 154 212 270 340 410 480
#     4  10  24  46  76 104 150 208 255 329 397 485
#     4  12  28  50  78 122 152 212 264 334 406 492
#     4  12  27  53  80 118 157 217 272 345 416 501
#     4  12  30  50  81 114 167 213 270 337 415 505
#
# _framework density 27.425357999999999
#
# number of rings (size 3 to 8) (size 9 to 14) (size 15 to 20)
#    0.000    0.667    3.333    1.500    9.333    2.667 
#    3.000    0.000    0.000    0.000    0.000    0.000 
#    0.000    0.000    0.000    0.000    0.000    0.000 
#
# Total GULP energy -134151.064055 kJ/mol
# GULP energy per Si atom -5589.627669 kJ/mol
# Density = 2.736294 g / cm^3
# Si number density = 27.425358 Si / 1000 Ang^3
#
#
#
# Elastic Constant Matrix: (Units=GPa)
#
#
# Indices 1 2 3 4 5 6 
#
# 1 185.0036 53.5581 55.2494 0.0000 18.3602 0.0000
# 2 53.5581 123.9048 14.6299 0.0000 -6.7296 0.0000
# 3 55.2494 14.6299 96.6008 0.0000 -1.6595 0.0000
# 4 0.0000 0.0000 0.0000 1.3229 0.0000 12.4231
# 5 18.3602 -6.7296 -1.6595 0.0000 42.5135 0.0000
# 6 0.0000 0.0000 0.0000 12.4231 0.0000 61.6132
#
#
#
# Elastic Compliance Matrix: (Units=1/GPa)
#
#
# Indices 1 2 3 4 5 6 
#
# 1 0.007972 -0.003179 -0.004149 0.000000 -0.004108 0.000000
# 2 -0.003179 0.009553 0.000421 0.000000 0.002902 0.000000
# 3 -0.004149 0.000421 0.012701 0.000000 0.002354 0.000000
# 4 0.000000 0.000000 0.000000 -0.846049 0.000000 0.170589
# 5 -0.004108 0.002902 0.002354 0.000000 0.025847 0.000000
# 6 0.000000 0.000000 0.000000 0.170589 0.000000 -0.018165
#
#
# Mechanical properties :
#
#
# Convention : Reuss Voigt Hill
#
# Bulk Modulus (GPa) = 60.92633 72.48713 66.70673
# Shear Modulus (GPa) = -6.33829 39.89472 16.77821
#
# Velocity S-wave (km/s) = -1.52188 3.81815 2.47610
# Velocity P-wave (km/s) = 4.37897 6.77685 5.70531
#
# Compressibility (1/GPa) = 0.01641327
#
# Stress axis : x y z
#
# Youngs Moduli (GPa) = 125.43238 104.68106 78.73198
#
# Poissons Ratio (x) = 0.33282 0.32664
# Poissons Ratio (y) = 0.39880 -0.03319
# Poissons Ratio (z) = 0.52039 -0.04412
#
# Static dielectric constant tensor:
#      x y z
#    x 2.003700 0.000000 0.163290 
#    y 0.000000 2.152820 0.000000 
#    z 0.163290 0.000000 1.789760 
# 
# From -- ./inp_files/217555.got.cif
#   From: 2010.05.17/outbox.cif.g08.bks.cpg/sg15_109_cif.got.tgz:217555.got - 2010.06.03 18:47:42.
