data_PCOD9298969
_publ_section_title
;
Structure prediction by ZEFSAII (Michael W. Deem and Ramdas Pophale) SiO2 
 PCOD9298969
Probable space group: C 2/C
;
_chemical_formula_sum "Si O2"
_cell_formula_units_Z 36
_cell_length_a 17.530322
_cell_length_b 11.486200
_cell_length_c 9.043704
_cell_angle_alpha 90.000000
_cell_angle_beta 121.349596
_cell_angle_gamma 90.000000
_cell_volume 1555.159567
_symmetry_space_group_name_H-M "C 2/C"
_symmetry_group_IT_number 15
_symmetry_cell_setting 'monoclinic'
loop_
_space_group_symop_operation_xyz
x,y,z
-x,y,1/2-z
-x,-y,-z
x,-y,1/2+z
1/2+x,1/2+y,z
1/2-x,1/2+y,1/2-z
1/2-x,1/2-y,-z
1/2+x,1/2-y,1/2+z
loop_
_atom_site_type_symbol
_atom_site_label
_atom_site_fract_x
_atom_site_fract_y
_atom_site_fract_z
Si Si1 0.706515 0.594530 0.802861
Si Si2 0.687548 0.364231 0.941156
Si Si3 0.965915 0.629034 0.438263
Si Si4 0.500000 0.274252 0.750000
Si Si5 0.626086 0.777869 0.909536
O O1 0.729050 0.466816 0.884168
O O2 0.680511 0.596743 0.605687
O O3 0.634468 0.652066 0.842278
O O4 0.789266 0.682254 0.910841
O O5 0.586161 0.344337 0.780690
O O6 0.750000 0.250000 0.000000
O O7 0.954934 0.692580 0.581275
O O8 0.883702 0.635863 0.242528
O O9 0.000000 0.500000 0.500000
O O10 0.042297 0.700688 0.429303
#
# Coordination Sequence:
#
# PCOD9298969 Si02
#       5
#     8   8   8   4   8
#     4  11  27  48  72 103 147 194 239 303 364 437
#     4  12  30  48  76 108 147 191 249 300 367 446
#     4  11  24  42  71 107 141 189 241 305 359 429
#     4  12  26  46  70 108 146 182 248 288 366 436
#     4  10  24  46  71  99 144 189 243 293 374 423
#
# _framework density 23.14875
#
# number of rings (size 3 to 8) (size 9 to 14) (size 15 to 20)
#    0.000    0.889    2.222    2.667   18.667    2.667 
#    0.000    0.000    0.000    0.000    0.000    0.000 
#    0.000    0.000    0.000    0.000    0.000    0.000 
#
# Total GULP energy -100655.639031 kJ/mol
# GULP energy per Si atom -5591.979946 kJ/mol
# Density = 2.309606 g / cm^3
# Si number density = 23.148750 Si / 1000 Ang^3
#
#
#
# Elastic Constant Matrix: (Units=GPa)
#
#
# Indices 1 2 3 4 5 6 
#
# 1 60.5126 7.9282 -8.3722 0.0000 2.3511 0.0000
# 2 7.9282 106.0796 12.9026 0.0000 -12.6084 0.0000
# 3 -8.3722 12.9026 101.3728 0.0000 0.3300 0.0000
# 4 0.0000 0.0000 0.0000 36.5737 0.0000 0.8871
# 5 2.3511 -12.6084 0.3300 0.0000 36.2059 0.0000
# 6 0.0000 0.0000 0.0000 0.8871 0.0000 28.9220
#
#
#
# Elastic Compliance Matrix: (Units=1/GPa)
#
#
# Indices 1 2 3 4 5 6 
#
# 1 0.017036 -0.001673 0.001625 0.000000 -0.001704 0.000000
# 2 -0.001673 0.010163 -0.001444 0.000000 0.003661 0.000000
# 3 0.001625 -0.001444 0.010185 0.000000 -0.000701 0.000000
# 4 0.000000 0.000000 0.000000 0.027362 0.000000 -0.000839
# 5 -0.001704 0.003661 -0.000701 0.000000 0.029012 0.000000
# 6 0.000000 0.000000 0.000000 -0.000839 0.000000 0.034602
#
#
# Mechanical properties :
#
#
# Convention : Reuss Voigt Hill
#
# Bulk Modulus (GPa) = 29.06960 32.54248 30.80604
# Shear Modulus (GPa) = 35.01184 37.37408 36.19296
#
# Velocity S-wave (km/s) = 3.89327 4.02247 3.95840
# Velocity P-wave (km/s) = 5.72670 5.97178 5.85052
#
# Compressibility (1/GPa) = 0.03440020
#
# Stress axis : x y z
#
# Youngs Moduli (GPa) = 58.69981 98.39933 98.18504
#
# Poissons Ratio (x) = 0.16467 -0.15960
# Poissons Ratio (y) = 0.09823 0.14174
# Poissons Ratio (z) = -0.09542 0.14205
#
# Static dielectric constant tensor:
#      x y z
#    x 1.992020 0.000000 0.044010 
#    y 0.000000 1.854130 0.000000 
#    z 0.044010 0.000000 1.864910 
# 
# From -- ./inp_files/45927.got.cif
#   From: 2010.05.17/outbox.cif.g08.bks.cpg/sg15_23_cif.got.tgz:45927.got - 2010.06.03 18:47:42.
