data_PCOD9298641
_publ_section_title
;
Structure prediction by ZEFSAII (Michael W. Deem and Ramdas Pophale) SiO2 
 PCOD9298641
Probable space group: C 2/C
;
_chemical_formula_sum "Si O2"
_cell_formula_units_Z 48
_cell_length_a 14.067766
_cell_length_b 11.578752
_cell_length_c 13.508171
_cell_angle_alpha 90.000000
_cell_angle_beta 114.057172
_cell_angle_gamma 90.000000
_cell_volume 2009.187180
_symmetry_space_group_name_H-M "C 2/C"
_symmetry_group_IT_number 15
_symmetry_cell_setting 'monoclinic'
loop_
_space_group_symop_operation_xyz
x,y,z
-x,y,1/2-z
-x,-y,-z
x,-y,1/2+z
1/2+x,1/2+y,z
1/2-x,1/2+y,1/2-z
1/2-x,1/2-y,-z
1/2+x,1/2-y,1/2+z
loop_
_atom_site_type_symbol
_atom_site_label
_atom_site_fract_x
_atom_site_fract_y
_atom_site_fract_z
Si Si1 0.725533 0.401799 0.709900
Si Si2 0.102586 0.922990 0.041388
Si Si3 0.759538 0.622748 0.455745
Si Si4 0.087340 0.305509 0.846112
Si Si5 0.520009 0.951024 0.369255
Si Si6 0.436414 0.241873 0.956811
O O1 0.684627 0.529073 0.657771
O O2 0.756286 0.390000 0.836945
O O3 0.819157 0.355603 0.679667
O O4 0.627235 0.318922 0.647326
O O5 0.160609 0.940411 0.962215
O O6 0.052108 0.795116 0.024472
O O7 0.000000 0.000000 0.000000
O O8 0.750000 0.750000 0.500000
O O9 0.863990 0.572020 0.545658
O O10 0.015402 0.411794 0.856744
O O11 0.000000 0.232540 0.750000
O O12 0.121832 0.249542 0.963190
O O13 0.500000 0.904033 0.250000
O O14 0.445576 0.884742 0.413006
#
# Coordination Sequence:
#
# PCOD9298641 Si02
#       6
#     8   8   8   8   8   8
#     4  11  25  46  69  99 138 178 228 284 338 409
#     4  10  24  45  67  99 136 176 227 280 338 402
#     4  12  23  45  72 100 134 182 234 277 338 413
#     4  11  24  44  63 100 138 178 226 284 348 403
#     4  11  23  42  68  99 137 178 226 282 338 405
#     4  11  23  43  69  99 135 180 232 277 343 404
#
# _framework density 23.890257999999999
#
# number of rings (size 3 to 8) (size 9 to 14) (size 15 to 20)
#    0.000    1.000    3.333    3.000    0.000    3.333 
#    9.000    0.000    0.000    0.000    0.000    0.000 
#    0.000    0.000    0.000    0.000    0.000    0.000 
#
# Total GULP energy -134096.498301 kJ/mol
# GULP energy per Si atom -5587.354096 kJ/mol
# Density = 2.383588 g / cm^3
# Si number density = 23.890258 Si / 1000 Ang^3
#
#
#
# Elastic Constant Matrix: (Units=GPa)
#
#
# Indices 1 2 3 4 5 6 
#
# 1 124.8528 5.6682 64.5096 0.0000 -7.6743 0.0000
# 2 5.6682 36.3162 7.4273 0.0000 -1.2855 0.0000
# 3 64.5096 7.4273 198.8852 0.0000 -19.4261 0.0000
# 4 0.0000 0.0000 0.0000 28.8603 0.0000 2.8506
# 5 -7.6743 -1.2855 -19.4261 0.0000 45.0747 0.0000
# 6 0.0000 0.0000 0.0000 2.8506 0.0000 29.7080
#
#
#
# Elastic Compliance Matrix: (Units=1/GPa)
#
#
# Indices 1 2 3 4 5 6 
#
# 1 0.009653 -0.000868 -0.003070 0.000000 0.000296 0.000000
# 2 -0.000868 0.027832 -0.000725 0.000000 0.000333 0.000000
# 3 -0.003070 -0.000725 0.006261 0.000000 0.002155 0.000000
# 4 0.000000 0.000000 0.000000 0.034981 0.000000 -0.003357
# 5 0.000296 0.000333 0.002155 0.000000 0.023174 0.000000
# 6 0.000000 0.000000 0.000000 -0.003357 0.000000 0.033983
#
#
# Mechanical properties :
#
#
# Convention : Reuss Voigt Hill
#
# Bulk Modulus (GPa) = 29.05327 57.25159 43.15243
# Shear Modulus (GPa) = 31.91137 39.55854 35.73495
#
# Velocity S-wave (km/s) = 3.65875 4.07362 3.87175
# Velocity P-wave (km/s) = 5.48053 6.79281 6.17165
#
# Compressibility (1/GPa) = 0.03441953
#
# Stress axis : x y z
#
# Youngs Moduli (GPa) = 103.59345 35.93039 159.71136
#
# Poissons Ratio (x) = 0.03120 0.49027
# Poissons Ratio (y) = 0.08996 0.11581
# Poissons Ratio (z) = 0.31800 0.02605
#
# Static dielectric constant tensor:
#      x y z
#    x 1.907570 0.000000 0.018530 
#    y 0.000000 2.015350 0.000000 
#    z 0.018530 0.000000 2.031990 
# 
# From -- ./inp_files/97169.got.cif
#   From: 2010.05.17/outbox.cif.g08.bks.cpg/sg15_49_cif.got.tgz:97169.got - 2010.06.03 18:47:42.
