data_PCOD9298419
_publ_section_title
;
Structure prediction by ZEFSAII (Michael W. Deem and Ramdas Pophale) SiO2 
 PCOD9298419
Probable space group: C 2/C
;
_chemical_formula_sum "Si O2"
_cell_formula_units_Z 48
_cell_length_a 7.925350
_cell_length_b 30.009384
_cell_length_c 14.819881
_cell_angle_alpha 90.000000
_cell_angle_beta 40.532409
_cell_angle_gamma 90.000000
_cell_volume 2290.615132
_symmetry_space_group_name_H-M "C 2/C"
_symmetry_group_IT_number 15
_symmetry_cell_setting 'monoclinic'
loop_
_space_group_symop_operation_xyz
x,y,z
-x,y,1/2-z
-x,-y,-z
x,-y,1/2+z
1/2+x,1/2+y,z
1/2-x,1/2+y,1/2-z
1/2-x,1/2-y,-z
1/2+x,1/2-y,1/2+z
loop_
_atom_site_type_symbol
_atom_site_label
_atom_site_fract_x
_atom_site_fract_y
_atom_site_fract_z
Si Si1 0.711490 0.539283 0.908367
Si Si2 0.117980 0.653454 0.904968
Si Si3 0.536759 0.628564 0.887024
Si Si4 0.969846 0.742521 0.655863
Si Si5 0.372369 0.405716 0.887745
Si Si6 0.797035 0.165729 0.155051
O O1 0.563018 0.579183 0.915535
O O2 0.000000 0.529437 0.750000
O O3 0.500000 0.500000 0.000000
O O4 0.746480 0.559567 0.994292
O O5 0.313870 0.638142 0.903565
O O6 0.197321 0.633549 0.775750
O O7 0.142781 0.705230 0.866963
O O8 0.839170 0.633410 0.043254
O O9 0.478818 0.663377 0.991305
O O10 0.828068 0.789702 0.700750
O O11 0.000000 0.730884 0.750000
O O12 0.250000 0.750000 0.500000
O O13 0.500000 0.428746 0.750000
O O14 0.611633 0.378218 0.831370
O O15 0.500000 0.161725 0.250000
#
# Coordination Sequence:
#
# PCOD9298419 Si02
#       6
#     8   8   8   8   8   8
#     4  11  25  48  76 106 141 180 228 287 354 432
#     4  11  23  42  68  96 135 180 237 277 342 409
#     4  10  24  44  69  97 132 185 224 285 349 414
#     4  12  26  40  63  96 134 186 239 283 339 394
#     4  11  23  44  71  98 136 182 224 284 351 413
#     4  11  24  39  63  97 142 179 237 288 342 398
#
# _framework density 20.955071
#
# number of rings (size 3 to 8) (size 9 to 14) (size 15 to 20)
#    0.000    1.000    3.333    2.500    7.000    4.667 
#    3.000    1.667    0.000    0.000    0.000    0.000 
#    0.000    0.000    0.000    0.000    0.000    0.000 
#
# Total GULP energy -133826.254290 kJ/mol
# GULP energy per Si atom -5576.093929 kJ/mol
# Density = 2.090738 g / cm^3
# Si number density = 20.955071 Si / 1000 Ang^3
#
#
#
# Elastic Constant Matrix: (Units=GPa)
#
#
# Indices 1 2 3 4 5 6 
#
# 1 68.4549 17.6510 39.4382 0.0000 -5.5449 0.0000
# 2 17.6510 90.4845 30.9604 0.0000 -2.2408 0.0000
# 3 39.4382 30.9604 139.3965 0.0000 9.8634 0.0000
# 4 0.0000 0.0000 0.0000 24.2951 0.0000 -10.1671
# 5 -5.5449 -2.2408 9.8634 0.0000 38.8504 0.0000
# 6 0.0000 0.0000 0.0000 -10.1671 0.0000 22.6615
#
#
#
# Elastic Compliance Matrix: (Units=1/GPa)
#
#
# Indices 1 2 3 4 5 6 
#
# 1 0.018275 -0.001743 -0.005051 0.000000 0.003790 0.000000
# 2 -0.001743 0.012201 -0.002290 0.000000 0.001036 0.000000
# 3 -0.005051 -0.002290 0.009340 0.000000 -0.003224 0.000000
# 4 0.000000 0.000000 0.000000 0.050675 0.000000 0.022735
# 5 0.003790 0.001036 -0.003224 0.000000 0.027159 0.000000
# 6 0.000000 0.000000 0.000000 0.022735 0.000000 0.054328
#
#
# Mechanical properties :
#
#
# Convention : Reuss Voigt Hill
#
# Bulk Modulus (GPa) = 46.19608 52.71501 49.45555
# Shear Modulus (GPa) = 25.33426 31.18050 28.25738
#
# Velocity S-wave (km/s) = 3.48081 3.86161 3.67614
# Velocity P-wave (km/s) = 6.18449 6.71517 6.45528
#
# Compressibility (1/GPa) = 0.02164686
#
# Stress axis : x y z
#
# Youngs Moduli (GPa) = 54.72036 81.96170 107.06940
#
# Poissons Ratio (x) = 0.14283 0.54086
# Poissons Ratio (y) = 0.09536 0.24521
# Poissons Ratio (z) = 0.27642 0.18771
#
# Static dielectric constant tensor:
#      x y z
#    x 1.798870 0.000000 0.033430 
#    y 0.000000 0.298590 0.000000 
#    z 0.033430 0.000000 1.812830 
# 
# From -- ./inp_files/138938.got.cif
#   From: 2010.05.17/outbox.cif.g08.bks.cpg/sg15_70_cif.got.tgz:138938.got - 2010.06.03 18:47:42.
