data_PCOD9298526
_publ_section_title
;
Structure prediction by ZEFSAII (Michael W. Deem and Ramdas Pophale) SiO2 
 PCOD9298526
Probable space group: C 2/C
;
_chemical_formula_sum "Si O2"
_cell_formula_units_Z 36
_cell_length_a 11.411534
_cell_length_b 11.551511
_cell_length_c 16.699063
_cell_angle_alpha 90.000000
_cell_angle_beta 138.276740
_cell_angle_gamma 90.000000
_cell_volume 1465.024165
_symmetry_space_group_name_H-M "C 2/C"
_symmetry_group_IT_number 15
_symmetry_cell_setting 'monoclinic'
loop_
_space_group_symop_operation_xyz
x,y,z
-x,y,1/2-z
-x,-y,-z
x,-y,1/2+z
1/2+x,1/2+y,z
1/2-x,1/2+y,1/2-z
1/2-x,1/2-y,-z
1/2+x,1/2-y,1/2+z
loop_
_atom_site_type_symbol
_atom_site_label
_atom_site_fract_x
_atom_site_fract_y
_atom_site_fract_z
Si Si1 0.500000 0.064052 0.750000
Si Si2 0.417412 0.148864 0.308022
Si Si3 0.828703 0.000988 0.717501
Si Si4 0.836802 0.715909 0.937785
Si Si5 0.886147 0.112455 0.918765
O O1 0.687190 0.123997 0.846981
O O2 0.512640 0.975985 0.682428
O O3 0.320913 0.211027 0.184073
O O4 0.582642 0.215176 0.430866
O O5 0.267091 0.113138 0.296327
O O6 0.699002 0.083151 0.600553
O O7 0.872210 0.085130 0.816030
O O8 0.000000 0.978632 0.750000
O O9 0.005931 0.781998 0.988332
O O10 0.000000 0.000000 0.000000
#
# Coordination Sequence:
#
# PCOD9298526 Si02
#       5
#     4   8   8   8   8
#     4  10  24  44  72  96 146 180 224 292 344 406
#     4  11  26  45  68 105 136 182 228 286 347 412
#     4  11  26  45  69 102 141 178 231 291 341 413
#     4  12  24  44  72 101 136 179 235 280 344 415
#     4  11  23  46  69 103 138 182 230 285 350 407
#
# _framework density 24.572975
#
# number of rings (size 3 to 8) (size 9 to 14) (size 15 to 20)
#    0.000    0.889    6.667    0.667    4.667    1.778 
#    2.000    5.556    0.000    0.000    0.000    0.000 
#    0.000    0.000    0.000    0.000    0.000    0.000 
#
# Total GULP energy -100286.971953 kJ/mol
# GULP energy per Si atom -5571.498442 kJ/mol
# Density = 2.451705 g / cm^3
# Si number density = 24.572975 Si / 1000 Ang^3
#
#
#
# Elastic Constant Matrix: (Units=GPa)
#
#
# Indices 1 2 3 4 5 6 
#
# 1 157.8495 25.5620 71.6161 0.0000 35.1862 0.0000
# 2 25.5620 52.6669 50.1000 0.0000 20.4426 0.0000
# 3 71.6161 50.1000 219.7726 0.0000 18.7295 0.0000
# 4 0.0000 0.0000 0.0000 50.2174 0.0000 16.0978
# 5 35.1862 20.4426 18.7295 0.0000 53.9672 0.0000
# 6 0.0000 0.0000 0.0000 16.0978 0.0000 -44.9094
#
#
#
# Elastic Compliance Matrix: (Units=1/GPa)
#
#
# Indices 1 2 3 4 5 6 
#
# 1 0.008449 -0.000059 -0.002341 0.000000 -0.004673 0.000000
# 2 -0.000059 0.027585 -0.005546 0.000000 -0.008486 0.000000
# 3 -0.002341 -0.005546 0.006459 0.000000 0.001386 0.000000
# 4 0.000000 0.000000 0.000000 0.017861 0.000000 0.006402
# 5 -0.004673 -0.008486 0.001386 0.000000 0.024310 0.000000
# 6 0.000000 0.000000 0.000000 0.006402 0.000000 -0.019972
#
#
# Mechanical properties :
#
#
# Convention : Reuss Voigt Hill
#
# Bulk Modulus (GPa) = 37.59368 80.53835 59.06602
# Shear Modulus (GPa) = 55.89528 30.72242 43.30885
#
# Velocity S-wave (km/s) = 4.77452 3.53973 4.20272
# Velocity P-wave (km/s) = 6.76215 7.03936 6.90215
#
# Compressibility (1/GPa) = 0.02660022
#
# Stress axis : x y z
#
# Youngs Moduli (GPa) = 118.36017 36.25095 154.81558
#
# Poissons Ratio (x) = 0.00215 0.36247
# Poissons Ratio (y) = 0.00703 0.85860
# Poissons Ratio (z) = 0.27712 0.20104
#
# Static dielectric constant tensor:
#      x y z
#    x 2.021900 0.000000 -0.144660 
#    y 0.000000 2.024430 0.000000 
#    z -0.144660 0.000000 1.860870 
# 
# From -- ./inp_files/197504.got.cif
#   From: 2010.05.17/outbox.cif.g08.bks.cpg/sg15_99_cif.got.tgz:197504.got - 2010.06.03 18:47:42.
