data_PCOD9298874
_publ_section_title
;
Structure prediction by ZEFSAII (Michael W. Deem and Ramdas Pophale) SiO2 
 PCOD9298874
Probable space group: C 2/C
;
_chemical_formula_sum "Si O2"
_cell_formula_units_Z 44
_cell_length_a 5.580567
_cell_length_b 24.234502
_cell_length_c 14.727952
_cell_angle_alpha 90.000000
_cell_angle_beta 64.710322
_cell_angle_gamma 90.000000
_cell_volume 1800.942505
_symmetry_space_group_name_H-M "C 2/C"
_symmetry_group_IT_number 15
_symmetry_cell_setting 'monoclinic'
loop_
_space_group_symop_operation_xyz
x,y,z
-x,y,1/2-z
-x,-y,-z
x,-y,1/2+z
1/2+x,1/2+y,z
1/2-x,1/2+y,1/2-z
1/2-x,1/2-y,-z
1/2+x,1/2-y,1/2+z
loop_
_atom_site_type_symbol
_atom_site_label
_atom_site_fract_x
_atom_site_fract_y
_atom_site_fract_z
Si Si1 0.651313 0.186139 0.631186
Si Si2 0.507341 0.790377 0.544845
Si Si3 0.915758 0.598181 0.366945
Si Si4 0.360233 0.540451 0.422206
Si Si5 0.930919 0.567439 0.857148
Si Si6 0.500000 0.550777 0.750000
O O1 0.500000 0.188477 0.750000
O O2 0.539124 0.184279 0.546954
O O3 0.752042 0.121834 0.621976
O O4 0.783208 0.246794 0.608296
O O5 0.750000 0.750000 0.500000
O O6 0.572391 0.838563 0.603645
O O7 0.615002 0.575304 0.414414
O O8 0.000000 0.593374 0.250000
O O9 0.146388 0.570497 0.391498
O O10 0.187380 0.531542 0.542457
O O11 0.474819 0.490459 0.342275
O O12 0.000000 0.537678 0.750000
O O13 0.239055 0.586632 0.817951
#
# Coordination Sequence:
#
# PCOD9298874 Si02
#       6
#     8   8   8   8   8   4
#     4  10  24  46  68 106 153 196 259 310 390 467
#     4  11  25  42  74 108 148 202 258 318 393 468
#     4  12  26  48  81 114 157 204 260 332 399 468
#     4  12  27  52  77 116 158 199 273 329 392 476
#     4  11  27  48  76 108 158 212 258 327 403 472
#     4  12  28  48  80 114 156 210 270 332 404 466
#
# _framework density 24.431649
#
# number of rings (size 3 to 8) (size 9 to 14) (size 15 to 20)
#    0.000    0.727    3.636    1.636   10.182    3.636 
#    0.000    0.000    0.000    0.000    0.000    0.000 
#    0.000    0.000    0.000    0.000    0.000    0.000 
#
# Total GULP energy -122516.886006 kJ/mol
# GULP energy per Si atom -5568.949364 kJ/mol
# Density = 2.437604 g / cm^3
# Si number density = 24.431649 Si / 1000 Ang^3
#
#
#
# Elastic Constant Matrix: (Units=GPa)
#
#
# Indices 1 2 3 4 5 6 
#
# 1 115.7245 46.5743 46.7966 0.0000 2.2841 0.0000
# 2 46.5743 138.3160 60.0749 0.0000 8.2057 0.0000
# 3 46.7966 60.0749 219.6399 0.0000 7.3894 0.0000
# 4 0.0000 0.0000 0.0000 49.7309 0.0000 12.5014
# 5 2.2841 8.2057 7.3894 0.0000 39.5646 0.0000
# 6 0.0000 0.0000 0.0000 12.5014 0.0000 6.8430
#
#
#
# Elastic Compliance Matrix: (Units=1/GPa)
#
#
# Indices 1 2 3 4 5 6 
#
# 1 0.010377 -0.002889 -0.001430 0.000000 0.000267 0.000000
# 2 -0.002889 0.009075 -0.001820 0.000000 -0.001375 0.000000
# 3 -0.001430 -0.001820 0.005374 0.000000 -0.000544 0.000000
# 4 0.000000 0.000000 0.000000 0.037185 0.000000 -0.067934
# 5 0.000267 -0.001375 -0.000544 0.000000 0.025646 0.000000
# 6 0.000000 0.000000 0.000000 -0.067934 0.000000 0.270241
#
#
# Mechanical properties :
#
#
# Convention : Reuss Voigt Hill
#
# Bulk Modulus (GPa) = 79.69833 86.73023 83.21428
# Shear Modulus (GPa) = 13.35617 40.57668 26.96643
#
# Velocity S-wave (km/s) = 2.34064 4.07974 3.32588
# Velocity P-wave (km/s) = 6.32428 7.60057 6.99161
#
# Compressibility (1/GPa) = 0.01254731
#
# Stress axis : x y z
#
# Youngs Moduli (GPa) = 96.36905 110.19500 186.09208
#
# Poissons Ratio (x) = 0.31835 0.26605
# Poissons Ratio (y) = 0.27841 0.33874
# Poissons Ratio (z) = 0.13778 0.20059
#
# Static dielectric constant tensor:
#      x y z
#    x 2.280510 0.000000 0.075520 
#    y 0.000000 1.848830 0.000000 
#    z 0.075520 0.000000 1.859820 
# 
# From -- ./inp_files/129966.got.cif
#   From: 2010.05.17/outbox.cif.g08.bks.cpg/sg15_65_cif.got.tgz:129966.got - 2010.06.03 18:47:42.
