data_PCOD9298376
_publ_section_title
;
Structure prediction by ZEFSAII (Michael W. Deem and Ramdas Pophale) SiO2 
 PCOD9298376
Probable space group: C 2/C
;
_chemical_formula_sum "Si O2"
_cell_formula_units_Z 44
_cell_length_a 7.717207
_cell_length_b 31.157045
_cell_length_c 9.043569
_cell_angle_alpha 90.000000
_cell_angle_beta 67.407809
_cell_angle_gamma 90.000000
_cell_volume 2007.619956
_symmetry_space_group_name_H-M "C 2/C"
_symmetry_group_IT_number 15
_symmetry_cell_setting 'monoclinic'
loop_
_space_group_symop_operation_xyz
x,y,z
-x,y,1/2-z
-x,-y,-z
x,-y,1/2+z
1/2+x,1/2+y,z
1/2-x,1/2+y,1/2-z
1/2-x,1/2-y,-z
1/2+x,1/2-y,1/2+z
loop_
_atom_site_type_symbol
_atom_site_label
_atom_site_fract_x
_atom_site_fract_y
_atom_site_fract_z
Si Si1 0.731318 0.874679 0.010399
Si Si2 0.300605 0.870581 0.141797
Si Si3 0.725709 0.954859 0.507148
Si Si4 0.500000 0.703408 0.750000
Si Si5 0.731297 0.959089 0.845653
Si Si6 0.580549 0.717343 0.057002
O O1 0.518363 0.862697 0.029736
O O2 0.709006 0.887978 0.188207
O O3 0.800879 0.915756 0.899108
O O4 0.858452 0.832641 0.961409
O O5 0.182530 0.827241 0.182949
O O6 0.215878 0.908075 0.069030
O O7 0.776388 0.959545 0.659778
O O8 0.497334 0.955974 0.566462
O O9 0.793476 0.996518 0.397957
O O10 0.505228 0.724735 0.582751
O O11 0.500000 0.724669 0.250000
O O12 0.750000 0.750000 0.000000
#
# Coordination Sequence:
#
# PCOD9298376 Si02
#       6
#     8   8   8   4   8   8
#     4   9  19  37  61  87 123 163 211 259 320 377
#     4   9  18  35  61  86 124 166 208 257 313 375
#     4   9  16  26  48  82 120 158 210 249 303 355
#     4  10  24  44  68  96 134 166 210 264 328 382
#     4   9  16  27  48  82 117 159 206 258 296 366
#     4  11  27  47  71  98 131 165 212 270 331 398
#
# _framework density 21.916499000000002
#
# number of rings (size 3 to 8) (size 9 to 14) (size 15 to 20)
#    0.000    2.545    0.000    1.091    7.636    5.091 
#    0.000    0.000    2.000    3.273    0.000    0.000 
#    0.000    0.000    0.000    0.000    0.000    0.000 
#
# Total GULP energy -122699.709666 kJ/mol
# GULP energy per Si atom -5577.259530 kJ/mol
# Density = 2.186662 g / cm^3
# Si number density = 21.916499 Si / 1000 Ang^3
#
#
#
# Elastic Constant Matrix: (Units=GPa)
#
#
# Indices 1 2 3 4 5 6 
#
# 1 44.2234 0.5368 26.1759 0.0000 2.8492 0.0000
# 2 0.5368 31.9093 44.3993 0.0000 16.5931 0.0000
# 3 26.1759 44.3993 152.7658 0.0000 17.0316 0.0000
# 4 0.0000 0.0000 0.0000 14.3943 0.0000 5.3637
# 5 2.8492 16.5931 17.0316 0.0000 31.1783 0.0000
# 6 0.0000 0.0000 0.0000 5.3637 0.0000 11.0356
#
#
#
# Elastic Compliance Matrix: (Units=1/GPa)
#
#
# Indices 1 2 3 4 5 6 
#
# 1 0.027558 0.013502 -0.008055 0.000000 -0.005304 0.000000
# 2 0.013502 0.076179 -0.021080 0.000000 -0.030261 0.000000
# 3 -0.008055 -0.021080 0.013545 0.000000 0.004556 0.000000
# 4 0.000000 0.000000 0.000000 0.084836 0.000000 -0.041234
# 5 -0.005304 -0.030261 0.004556 0.000000 0.046174 0.000000
# 6 0.000000 0.000000 0.000000 -0.041234 0.000000 0.110657
#
#
# Mechanical properties :
#
#
# Convention : Reuss Voigt Hill
#
# Bulk Modulus (GPa) = 11.62565 41.23584 26.43074
# Shear Modulus (GPa) = 11.93637 21.84076 16.88857
#
# Velocity S-wave (km/s) = 2.33626 3.16023 2.77896
# Velocity P-wave (km/s) = 3.54874 5.67203 4.73104
#
# Compressibility (1/GPa) = 0.08601673
#
# Stress axis : x y z
#
# Youngs Moduli (GPa) = 36.28702 13.12693 73.82836
#
# Poissons Ratio (x) = -0.17725 0.59468
# Poissons Ratio (y) = -0.48996 1.55633
# Poissons Ratio (z) = 0.29229 0.27672
#
# Static dielectric constant tensor:
#      x y z
#    x 1.886960 0.000000 -0.031010 
#    y 0.000000 1.752440 0.000000 
#    z -0.031010 0.000000 1.810440 
# 
# From -- ./inp_files/25449.got.cif
#   From: 2010.05.17/outbox.cif.g08.bks.cpg/sg15_13_cif.got.tgz:25449.got - 2010.06.03 18:47:42.
