data_PCOD9298505
_publ_section_title
;
Structure prediction by ZEFSAII (Michael W. Deem and Ramdas Pophale) SiO2 
 PCOD9298505
Probable space group: C 2/C
;
_chemical_formula_sum "Si O2"
_cell_formula_units_Z 32
_cell_length_a 8.974977
_cell_length_b 4.580729
_cell_length_c 30.469607
_cell_angle_alpha 90.000000
_cell_angle_beta 67.113639
_cell_angle_gamma 90.000000
_cell_volume 1154.052326
_symmetry_space_group_name_H-M "C 2/C"
_symmetry_group_IT_number 15
_symmetry_cell_setting 'monoclinic'
loop_
_space_group_symop_operation_xyz
x,y,z
-x,y,1/2-z
-x,-y,-z
x,-y,1/2+z
1/2+x,1/2+y,z
1/2-x,1/2+y,1/2-z
1/2-x,1/2-y,-z
1/2+x,1/2-y,1/2+z
loop_
_atom_site_type_symbol
_atom_site_label
_atom_site_fract_x
_atom_site_fract_y
_atom_site_fract_z
Si Si1 0.103170 0.037733 0.094623
Si Si2 0.145387 0.442030 0.652294
Si Si3 0.175985 0.865341 0.283655
Si Si4 0.594916 0.929084 0.533020
O O1 0.210407 0.794991 0.109110
O O2 0.143451 0.278436 0.053091
O O3 0.073563 0.272766 0.136820
O O4 0.003232 0.796651 0.076974
O O5 0.273838 0.533022 0.673649
O O6 0.997681 0.282838 0.693562
O O7 0.305351 0.628823 0.252063
O O8 0.750000 0.750000 0.500000
O O9 0.500000 0.000000 0.500000
#
# Coordination Sequence:
#
# PCOD9298505 Si02
#       4
#     8   8   8   8
#     4  10  24  44  72 104 146 190 238 300 362 431
#     4  11  25  46  71 110 145 194 244 301 368 437
#     4  12  26  46  76 106 147 192 246 304 366 435
#     4  11  24  44  72 106 143 190 242 297 362 433
#
# _framework density 27.728376999999998
#
# number of rings (size 3 to 8) (size 9 to 14) (size 15 to 20)
#    0.000    1.000    0.000    5.250    0.000   10.000 
#    0.000    0.000    0.000    0.000    0.000    0.000 
#    0.000    0.000    0.000    0.000    0.000    0.000 
#
# Total GULP energy -89542.090717 kJ/mol
# GULP energy per Si atom -5596.380670 kJ/mol
# Density = 2.766527 g / cm^3
# Si number density = 27.728377 Si / 1000 Ang^3
#
#
#
# Elastic Constant Matrix: (Units=GPa)
#
#
# Indices 1 2 3 4 5 6 
#
# 1 90.2961 38.3059 37.9008 0.0000 11.4328 0.0001
# 2 38.3059 248.1656 80.6087 0.0000 11.4595 0.0002
# 3 37.9008 80.6087 132.9804 -0.0001 25.9372 0.0000
# 4 0.0000 0.0000 -0.0001 101.1425 0.0000 -3.4231
# 5 11.4328 11.4595 25.9372 0.0000 30.0939 0.0000
# 6 0.0001 0.0002 0.0000 -3.4231 0.0000 35.3345
#
#
#
# Elastic Compliance Matrix: (Units=1/GPa)
#
#
# Indices 1 2 3 4 5 6 
#
# 1 0.012895 -0.001040 -0.002604 0.000000 -0.002258 0.000000
# 2 -0.001040 0.005120 -0.003010 0.000000 0.001040 0.000000
# 3 -0.002604 -0.003010 0.011624 0.000000 -0.007883 0.000000
# 4 0.000000 0.000000 0.000000 0.009920 0.000000 0.000961
# 5 -0.002258 0.001040 -0.007883 0.000000 0.040486 0.000000
# 6 0.000000 0.000000 0.000000 0.000961 0.000000 0.028394
#
#
# Mechanical properties :
#
#
# Convention : Reuss Voigt Hill
#
# Bulk Modulus (GPa) = 61.23506 87.23031 74.23269
# Shear Modulus (GPa) = 39.31132 54.28930 46.80031
#
# Velocity S-wave (km/s) = 3.76936 4.42961 4.11276
# Velocity P-wave (km/s) = 6.40905 7.59534 7.02727
#
# Compressibility (1/GPa) = 0.01633051
#
# Stress axis : x y z
#
# Youngs Moduli (GPa) = 77.54953 195.32220 86.02824
#
# Poissons Ratio (x) = 0.20319 0.22403
# Poissons Ratio (y) = 0.08067 0.25892
# Poissons Ratio (z) = 0.20195 0.58787
#
# Static dielectric constant tensor:
#      x y z
#    x 2.218310 0.000000 -0.198840 
#    y 0.000000 2.084480 0.000000 
#    z -0.198840 0.000000 2.374510 
# 
# From -- ./inp_files/290355.got.cif
#   From: 2010.05.17/outbox.cif.g08.bks.cpg/sg15_146_cif.got.tgz:290355.got - 2010.06.03 18:47:42.
