data_PCOD9298021
_publ_section_title
;
Structure prediction by ZEFSAII (Michael W. Deem and Ramdas Pophale) SiO2 
 PCOD9298021
Probable space group: C 2/C
;
_chemical_formula_sum "Si O2"
_cell_formula_units_Z 52
_cell_length_a 11.761793
_cell_length_b 27.569588
_cell_length_c 8.291857
_cell_angle_alpha 90.000000
_cell_angle_beta 105.581419
_cell_angle_gamma 90.000000
_cell_volume 2589.968643
_symmetry_space_group_name_H-M "C 2/C"
_symmetry_group_IT_number 15
_symmetry_cell_setting 'monoclinic'
loop_
_space_group_symop_operation_xyz
x,y,z
-x,y,1/2-z
-x,-y,-z
x,-y,1/2+z
1/2+x,1/2+y,z
1/2-x,1/2+y,1/2-z
1/2-x,1/2-y,-z
1/2+x,1/2-y,1/2+z
loop_
_atom_site_type_symbol
_atom_site_label
_atom_site_fract_x
_atom_site_fract_y
_atom_site_fract_z
Si Si1 0.384799 0.695203 0.596435
Si Si2 0.155551 0.685396 0.024427
Si Si3 0.217573 0.389223 0.014446
Si Si4 0.903099 0.485153 0.596918
Si Si5 0.861125 0.593613 0.663219
Si Si6 0.823721 0.253283 0.274278
Si Si7 0.500000 0.836817 0.750000
O O1 0.500000 0.690848 0.750000
O O2 0.332272 0.642878 0.522071
O O3 0.281385 0.720169 0.665518
O O4 0.400874 0.727736 0.441967
O O5 0.169892 0.627977 0.997855
O O6 0.128147 0.709220 0.840530
O O7 0.269685 0.710685 0.142620
O O8 0.057661 0.692030 0.124379
O O9 0.202916 0.387867 0.201953
O O10 0.198363 0.446298 0.972988
O O11 0.108388 0.364505 0.877850
O O12 0.847826 0.536079 0.632306
O O13 0.000000 0.461107 0.750000
O O14 0.000000 0.500000 0.500000
O O15 0.000000 0.599916 0.750000
#
# Coordination Sequence:
#
# PCOD9298021 Si02
#       7
#     8   8   8   8   8   8   4
#     4  11  25  44  66  93 128 176 227 271 327 395
#     4  11  22  38  62 100 129 166 216 274 335 391
#     4  12  22  39  61  93 134 170 211 269 331 397
#     4  11  20  33  56  97 128 163 201 258 338 394
#     4  11  21  34  57  94 134 164 201 263 339 401
#     4  10  24  43  65  91 125 174 224 275 327 382
#     4  12  22  34  68  96 130 168 214 268 336 396
#
# _framework density 20.077463000000002
#
# number of rings (size 3 to 8) (size 9 to 14) (size 15 to 20)
#    0.000    0.923    8.462    0.000    1.077    1.231 
#    0.000    2.308    0.000    0.923    0.000    0.000 
#    0.000    0.000    0.000    0.000    0.000    0.000 
#
# Total GULP energy -145005.278175 kJ/mol
# GULP energy per Si atom -5577.126084 kJ/mol
# Density = 2.003177 g / cm^3
# Si number density = 20.077463 Si / 1000 Ang^3
#
#
#
# Elastic Constant Matrix: (Units=GPa)
#
#
# Indices 1 2 3 4 5 6 
#
# 1 41.9913 34.7219 37.5533 0.0000 6.9339 0.0000
# 2 34.7219 132.2334 44.7696 0.0000 16.3665 0.0000
# 3 37.5533 44.7696 112.8208 0.0000 -2.1050 0.0000
# 4 0.0000 0.0000 0.0000 34.3903 0.0000 6.1367
# 5 6.9339 16.3665 -2.1050 0.0000 42.4500 0.0000
# 6 0.0000 0.0000 0.0000 6.1367 0.0000 26.2492
#
#
#
# Elastic Compliance Matrix: (Units=1/GPa)
#
#
# Indices 1 2 3 4 5 6 
#
# 1 0.039192 -0.006098 -0.010711 0.000000 -0.004582 0.000000
# 2 -0.006098 0.010252 -0.002096 0.000000 -0.003060 0.000000
# 3 -0.010711 -0.002096 0.013321 0.000000 0.003218 0.000000
# 4 0.000000 0.000000 0.000000 0.030344 0.000000 -0.007094
# 5 -0.004582 -0.003060 0.003218 0.000000 0.025645 0.000000
# 6 0.000000 0.000000 0.000000 -0.007094 0.000000 0.039755
#
#
# Mechanical properties :
#
#
# Convention : Reuss Voigt Hill
#
# Bulk Modulus (GPa) = 40.07096 57.90389 48.98743
# Shear Modulus (GPa) = 24.43362 31.95128 28.19245
#
# Velocity S-wave (km/s) = 3.49229 3.99356 3.75131
# Velocity P-wave (km/s) = 6.02187 7.08291 6.57383
#
# Compressibility (1/GPa) = 0.02495573
#
# Stress axis : x y z
#
# Youngs Moduli (GPa) = 25.51520 97.54418 75.07175
#
# Poissons Ratio (x) = 0.59478 0.80412
# Poissons Ratio (y) = 0.15558 0.15732
# Poissons Ratio (z) = 0.27330 0.20441
#
# Static dielectric constant tensor:
#      x y z
#    x 1.759960 0.000000 -0.062070 
#    y 0.000000 1.808610 0.000000 
#    z -0.062070 0.000000 1.789290 
# 
# From -- ./inp_files/33670.got.cif
#   From: 2010.05.17/outbox.cif.g08.bks.cpg/sg15_17_cif.got.tgz:33670.got - 2010.06.03 18:47:42.
