data_PCOD9298779
_publ_section_title
;
Structure prediction by ZEFSAII (Michael W. Deem and Ramdas Pophale) SiO2 
 PCOD9298779
Probable space group: C 2/C
;
_chemical_formula_sum "Si O2"
_cell_formula_units_Z 36
_cell_length_a 10.829988
_cell_length_b 28.308562
_cell_length_c 4.935268
_cell_angle_alpha 90.000000
_cell_angle_beta 94.048276
_cell_angle_gamma 90.000000
_cell_volume 1509.286100
_symmetry_space_group_name_H-M "C 2/C"
_symmetry_group_IT_number 15
_symmetry_cell_setting 'monoclinic'
loop_
_space_group_symop_operation_xyz
x,y,z
-x,y,1/2-z
-x,-y,-z
x,-y,1/2+z
1/2+x,1/2+y,z
1/2-x,1/2+y,1/2-z
1/2-x,1/2-y,-z
1/2+x,1/2-y,1/2+z
loop_
_atom_site_type_symbol
_atom_site_label
_atom_site_fract_x
_atom_site_fract_y
_atom_site_fract_z
Si Si1 0.500000 0.845365 0.750000
Si Si2 0.500000 0.640705 0.750000
Si Si3 0.653993 0.217133 0.832234
Si Si4 0.266999 0.121696 0.913012
Si Si5 0.854893 0.530483 0.653714
Si Si6 0.500000 0.702477 0.250000
O O1 0.562039 0.812125 0.525300
O O2 0.384017 0.878470 0.640214
O O3 0.618125 0.615971 0.914812
O O4 0.549288 0.671509 0.503719
O O5 0.715881 0.175661 0.675653
O O6 0.593772 0.258935 0.642085
O O7 0.750000 0.250000 0.000000
O O8 0.298430 0.081011 0.705796
O O9 0.818639 0.511059 0.356611
O O10 0.000000 0.535390 0.750000
#
# Coordination Sequence:
#
# PCOD9298779 Si02
#       6
#     4   4   8   8   8   4
#     4  12  25  42  68 103 138 189 242 294 339 420
#     4  12  29  46  70  99 152 189 240 276 355 420
#     4  12  24  39  67  99 148 186 242 287 347 409
#     4  12  27  44  71 105 140 189 235 294 353 422
#     4  10  24  45  74 105 135 174 232 300 357 415
#     4  12  24  44  62 102 140 200 230 284 330 416
#
# _framework density 23.852338
#
# number of rings (size 3 to 8) (size 9 to 14) (size 15 to 20)
#    0.000    0.444    4.444    3.333    7.778    1.778 
#    0.000    1.111    0.000    0.000    0.000    0.000 
#    0.000    0.000    0.000    0.000    0.000    0.000 
#
# Total GULP energy -100236.502781 kJ/mol
# GULP energy per Si atom -5568.694599 kJ/mol
# Density = 2.379805 g / cm^3
# Si number density = 23.852338 Si / 1000 Ang^3
#
#
#
# Elastic Constant Matrix: (Units=GPa)
#
#
# Indices 1 2 3 4 5 6 
#
# 1 113.0194 20.3984 22.4205 0.0000 29.0109 0.0000
# 2 20.3984 81.7326 -5.9431 0.0000 -7.5904 0.0000
# 3 22.4205 -5.9431 30.4974 0.0000 5.9873 0.0000
# 4 0.0000 0.0000 0.0000 27.9678 0.0000 -36.4990
# 5 29.0109 -7.5904 5.9873 0.0000 38.3664 0.0000
# 6 0.0000 0.0000 0.0000 -36.4990 0.0000 95.7962
#
#
#
# Elastic Compliance Matrix: (Units=1/GPa)
#
#
# Indices 1 2 3 4 5 6 
#
# 1 0.014356 -0.005242 -0.009533 0.000000 -0.010405 0.000000
# 2 -0.005242 0.014499 0.005507 0.000000 0.005973 0.000000
# 3 -0.009533 0.005507 0.040482 0.000000 0.001980 0.000000
# 4 0.000000 0.000000 0.000000 0.071116 0.000000 0.027096
# 5 -0.010405 0.005973 0.001980 0.000000 0.034805 0.000000
# 6 0.000000 0.000000 0.000000 0.027096 0.000000 0.020762
#
#
# Mechanical properties :
#
#
# Convention : Reuss Voigt Hill
#
# Bulk Modulus (GPa) = 19.68518 33.22232 26.45375
# Shear Modulus (GPa) = 21.59911 44.98434 33.29172
#
# Velocity S-wave (km/s) = 3.01247 4.34746 3.74002
# Velocity P-wave (km/s) = 4.51341 6.25773 5.45573
#
# Compressibility (1/GPa) = 0.05079963
#
# Stress axis : x y z
#
# Youngs Moduli (GPa) = 69.65636 68.97249 24.70221
#
# Poissons Ratio (x) = 0.36158 0.23549
# Poissons Ratio (y) = 0.36517 -0.13603
# Poissons Ratio (z) = 0.66403 -0.37981
#
# Static dielectric constant tensor:
#      x y z
#    x 2.096530 0.000000 0.090440 
#    y 0.000000 1.834830 0.000000 
#    z 0.090440 0.000000 2.004860 
# 
# From -- ./inp_files/4329.got.cif
#   From: 2010.05.17/outbox.cif.g08.bks.cpg/sg15_3_cif.got.tgz:4329.got - 2010.06.03 18:47:42.
