data_PCOD9298410
_publ_section_title
;
Structure prediction by ZEFSAII (Michael W. Deem and Ramdas Pophale) SiO2 
 PCOD9298410
Probable space group: C 2/C
;
_chemical_formula_sum "Si O2"
_cell_formula_units_Z 28
_cell_length_a 8.224381
_cell_length_b 23.295913
_cell_length_c 5.474836
_cell_angle_alpha 90.000000
_cell_angle_beta 86.532766
_cell_angle_gamma 90.000000
_cell_volume 1047.028220
_symmetry_space_group_name_H-M "C 2/C"
_symmetry_group_IT_number 15
_symmetry_cell_setting 'monoclinic'
loop_
_space_group_symop_operation_xyz
x,y,z
-x,y,1/2-z
-x,-y,-z
x,-y,1/2+z
1/2+x,1/2+y,z
1/2-x,1/2+y,1/2-z
1/2-x,1/2-y,-z
1/2+x,1/2-y,1/2+z
loop_
_atom_site_type_symbol
_atom_site_label
_atom_site_fract_x
_atom_site_fract_y
_atom_site_fract_z
Si Si1 0.180998 0.536751 0.206798
Si Si2 0.500000 0.766310 0.750000
Si Si3 0.000000 0.886657 0.750000
Si Si4 0.500000 0.162185 0.750000
Si Si5 0.163026 0.156138 0.818123
O O1 0.184193 0.500256 0.458402
O O2 0.349935 0.572246 0.186267
O O3 0.000000 0.566798 0.250000
O O4 0.483741 0.801685 0.502109
O O5 0.647507 0.719763 0.714315
O O6 0.118250 0.841113 0.601942
O O7 0.332343 0.128163 0.745581
O O8 0.000000 0.122617 0.750000
#
# Coordination Sequence:
#
# PCOD9298410 Si02
#       5
#     8   4   4   4   8
#     4  10  24  46  74 102 130 176 222 262 327 405
#     4  10  24  44  69  92 130 180 238 280 323 392
#     4  12  25  44  67 102 146 168 216 282 335 398
#     4  12  23  46  68  90 134 184 230 284 322 394
#     4  10  27  39  66 100 132 177 227 271 348 382
#
# _framework density 26.742353000000001
#
# number of rings (size 3 to 8) (size 9 to 14) (size 15 to 20)
#    0.857    0.571    0.000    3.429    8.000    2.286 
#    2.571    0.000    0.000    0.000    0.000    0.000 
#    0.000    0.000    0.000    0.000    0.000    0.000 
#
# Total GULP energy -77984.278682 kJ/mol
# GULP energy per Si atom -5570.305620 kJ/mol
# Density = 2.668149 g / cm^3
# Si number density = 26.742353 Si / 1000 Ang^3
#
#
#
# Elastic Constant Matrix: (Units=GPa)
#
#
# Indices 1 2 3 4 5 6 
#
# 1 287.4186 49.6739 52.3079 0.0000 -37.3815 0.0000
# 2 49.6739 65.2727 56.3740 0.0000 8.1087 0.0000
# 3 52.3079 56.3740 134.9875 0.0000 -13.2578 0.0000
# 4 0.0000 0.0000 0.0000 26.9555 0.0000 -6.4008
# 5 -37.3815 8.1087 -13.2578 0.0000 48.0786 0.0000
# 6 0.0000 0.0000 0.0000 -6.4008 0.0000 32.7518
#
#
#
# Elastic Compliance Matrix: (Units=1/GPa)
#
#
# Indices 1 2 3 4 5 6 
#
# 1 0.004803 -0.004738 0.000578 0.000000 0.004693 0.000000
# 2 -0.004738 0.031164 -0.012393 0.000000 -0.012357 0.000000
# 3 0.000578 -0.012393 0.012960 0.000000 0.006113 0.000000
# 4 0.000000 0.000000 0.000000 0.038904 0.000000 0.007603
# 5 0.004693 -0.012357 0.006113 0.000000 0.028218 0.000000
# 6 0.000000 0.000000 0.000000 0.007603 0.000000 0.032019
#
#
# Mechanical properties :
#
#
# Convention : Reuss Voigt Hill
#
# Bulk Modulus (GPa) = 63.19925 89.37668 76.28797
# Shear Modulus (GPa) = 26.81743 43.51205 35.16474
#
# Velocity S-wave (km/s) = 3.17015 4.03809 3.63015
# Velocity P-wave (km/s) = 6.08964 7.43206 6.79409
#
# Compressibility (1/GPa) = 0.01582297
#
# Stress axis : x y z
#
# Youngs Moduli (GPa) = 208.19466 32.08820 77.16126
#
# Poissons Ratio (x) = 0.15203 -0.04462
# Poissons Ratio (y) = 0.98639 0.95623
# Poissons Ratio (z) = -0.12040 0.39766
#
# Static dielectric constant tensor:
#      x y z
#    x 2.227960 0.000000 -0.078880 
#    y 0.000000 2.067740 0.000000 
#    z -0.078880 0.000000 -1.048700 
# 
# From -- ./inp_files/1981.got.cif
#   From: 2010.05.17/outbox.cif.g08.bks.cpg/sg15_1_cif.got.tgz:1981.got - 2010.06.03 18:47:42.
