data_PCOD9298091
_publ_section_title
;
Structure prediction by ZEFSAII (Michael W. Deem and Ramdas Pophale) SiO2 
 PCOD9298091
Probable space group: C 2/C
;
_chemical_formula_sum "Si O2"
_cell_formula_units_Z 48
_cell_length_a 17.161215
_cell_length_b 5.266321
_cell_length_c 23.433631
_cell_angle_alpha 90.000000
_cell_angle_beta 115.346867
_cell_angle_gamma 90.000000
_cell_volume 1913.969142
_symmetry_space_group_name_H-M "C 2/C"
_symmetry_group_IT_number 15
_symmetry_cell_setting 'monoclinic'
loop_
_space_group_symop_operation_xyz
x,y,z
-x,y,1/2-z
-x,-y,-z
x,-y,1/2+z
1/2+x,1/2+y,z
1/2-x,1/2+y,1/2-z
1/2-x,1/2-y,-z
1/2+x,1/2-y,1/2+z
loop_
_atom_site_type_symbol
_atom_site_label
_atom_site_fract_x
_atom_site_fract_y
_atom_site_fract_z
Si Si1 0.493791 0.681189 0.687689
Si Si2 0.583423 0.674542 0.522214
Si Si3 0.334202 0.657559 0.161025
Si Si4 0.994075 0.512271 0.904485
Si Si5 0.258482 0.644024 0.385042
Si Si6 0.643843 0.640674 0.202270
O O1 0.500000 0.827874 0.750000
O O2 0.430695 0.447684 0.683010
O O3 0.590538 0.614742 0.698456
O O4 0.459715 0.807769 0.620183
O O5 0.500000 0.500000 0.500000
O O6 0.567128 0.825080 0.458970
O O7 0.663224 0.485043 0.555259
O O8 0.568870 0.879543 0.568486
O O9 0.315854 0.934358 0.131212
O O10 0.317172 0.690288 0.223576
O O11 0.273417 0.432686 0.116419
O O12 0.932122 0.674162 0.843876
O O13 0.290949 0.636793 0.329444
#
# Coordination Sequence:
#
# PCOD9298091 Si02
#       6
#     8   8   8   8   8   8
#     4  10  24  43  68 103 141 196 232 299 361 453
#     4  11  23  42  72 105 139 191 255 304 343 438
#     4  11  28  42  68 106 154 177 230 300 383 421
#     4  11  22  41  76 102 138 186 263 293 350 420
#     4  12  24  45  67 106 140 188 234 303 361 423
#     4  11  23  42  72 101 136 193 244 293 349 441
#
# _framework density 25.078773999999999
#
# number of rings (size 3 to 8) (size 9 to 14) (size 15 to 20)
#    0.000    1.000    3.333    2.000    9.333    0.667 
#    0.000    1.667    0.000    0.000    0.000    0.000 
#    0.000    0.000    0.000    0.000    0.000    0.000 
#
# Total GULP energy -134184.925039 kJ/mol
# GULP energy per Si atom -5591.038543 kJ/mol
# Density = 2.502169 g / cm^3
# Si number density = 25.078774 Si / 1000 Ang^3
#
#
#
# Elastic Constant Matrix: (Units=GPa)
#
#
# Indices 1 2 3 4 5 6 
#
# 1 65.4410 0.5958 -12.7699 -0.0001 2.2482 0.0000
# 2 0.5958 59.8344 31.8739 -0.0003 -6.1699 0.0003
# 3 -12.7699 31.8739 28.2818 -0.0003 18.9397 0.0002
# 4 -0.0001 -0.0003 -0.0003 41.4143 0.0001 15.2055
# 5 2.2482 -6.1699 18.9397 0.0001 34.7129 -0.0001
# 6 0.0000 0.0003 0.0002 15.2055 -0.0001 31.6708
#
#
#
# Elastic Compliance Matrix: (Units=1/GPa)
#
#
# Indices 1 2 3 4 5 6 
#
# 1 0.007579 0.020643 -0.034622 0.000000 0.022068 0.000000
# 2 0.020643 -0.039421 0.093499 0.000001 -0.059358 -0.000001
# 3 -0.034622 0.093499 -0.154864 -0.000001 0.103357 0.000001
# 4 0.000000 0.000001 -0.000001 0.029313 0.000001 -0.014074
# 5 0.022068 -0.059358 0.103357 0.000001 -0.039564 0.000000
# 6 0.000000 -0.000001 0.000001 -0.014074 0.000000 0.038332
#
#
# Mechanical properties :
#
#
# Convention : Reuss Voigt Hill
#
# Bulk Modulus (GPa) = -36.14642 21.43965 -7.35338
# Shear Modulus (GPa) = -15.29576 30.48343 7.59383
#
# Velocity S-wave (km/s) = -2.47231 3.49019 1.74200
# Velocity P-wave (km/s) = 4.75334 4.98091 1.05243
#
# Compressibility (1/GPa) = -0.02766526
#
# Stress axis : x y z
#
# Youngs Moduli (GPa) = 131.94571 -25.36744 -6.45726
#
# Poissons Ratio (x) = 0.52367 -0.22356
# Poissons Ratio (y) = -2.72378 0.60375
# Poissons Ratio (z) = 4.56819 2.37183
#
# Static dielectric constant tensor:
#      x y z
#    x 1.961130 0.000000 0.046810 
#    y 0.000000 2.100670 0.000000 
#    z 0.046810 0.000000 2.628900 
# 
# From -- ./inp_files/275694.got.cif
#   From: 2010.05.17/outbox.cif.g08.bks.cpg/sg15_138_cif.got.tgz:275694.got - 2010.06.03 18:47:42.
