data_PCOD9298038
_publ_section_title
;
Structure prediction by ZEFSAII (Michael W. Deem and Ramdas Pophale) SiO2 
 PCOD9298038
Probable space group: C 2/C
;
_chemical_formula_sum "Si O2"
_cell_formula_units_Z 60
_cell_length_a 13.494044
_cell_length_b 16.909691
_cell_length_c 11.845179
_cell_angle_alpha 90.000000
_cell_angle_beta 85.649086
_cell_angle_gamma 90.000000
_cell_volume 2695.045035
_symmetry_space_group_name_H-M "C 2/C"
_symmetry_group_IT_number 15
_symmetry_cell_setting 'monoclinic'
loop_
_space_group_symop_operation_xyz
x,y,z
-x,y,1/2-z
-x,-y,-z
x,-y,1/2+z
1/2+x,1/2+y,z
1/2-x,1/2+y,1/2-z
1/2-x,1/2-y,-z
1/2+x,1/2-y,1/2+z
loop_
_atom_site_type_symbol
_atom_site_label
_atom_site_fract_x
_atom_site_fract_y
_atom_site_fract_z
Si Si1 0.501831 0.640630 0.525977
Si Si2 0.151115 0.071105 0.331674
Si Si3 0.512452 0.079079 0.878327
Si Si4 0.159792 0.264349 0.594451
Si Si5 0.383443 0.215298 0.975291
Si Si6 0.000000 0.037584 0.750000
Si Si7 0.149421 0.554401 0.053757
Si Si8 0.753651 0.219479 0.307696
O O1 0.560590 0.595303 0.422545
O O2 0.572200 0.711309 0.559584
O O3 0.408752 0.691631 0.491159
O O4 0.488621 0.586984 0.636246
O O5 0.240978 0.036845 0.403202
O O6 0.189697 0.149373 0.263211
O O7 0.100897 0.014236 0.243982
O O8 0.500000 0.100929 0.750000
O O9 0.471711 0.154005 0.951214
O O10 0.435305 0.006164 0.898935
O O11 0.621267 0.059105 0.921751
O O12 0.250000 0.250000 0.500000
O O13 0.134287 0.356702 0.600422
O O14 0.190159 0.238571 0.716615
O O15 0.323601 0.218052 0.863641
O O16 0.317851 0.188336 0.087031
#
# Coordination Sequence:
#
# PCOD9298038 Si02
#       8
#     8   8   8   8   8   4   8   8
#     4  12  24  44  71 104 136 183 237 293 356 418
#     4  11  25  46  73  95 145 189 235 294 358 437
#     4  11  26  42  70 105 140 194 234 291 358 429
#     4  11  21  43  72  99 132 187 236 279 348 425
#     4  11  25  42  69 104 143 176 238 300 348 420
#     4  12  28  44  68 110 136 190 238 302 360 426
#     4  10  24  44  63 104 140 178 238 288 353 411
#     4  10  24  43  66 104 138 186 229 294 356 413
#
# _framework density 22.263079000000001
#
# number of rings (size 3 to 8) (size 9 to 14) (size 15 to 20)
#    0.000    1.067    4.000    2.000    3.733    9.600 
#    1.200    0.000    0.000    0.000    0.000    0.000 
#    0.000    0.000    0.000    0.000    0.000    0.000 
#
# Total GULP energy -167432.277214 kJ/mol
# GULP energy per Si atom -5581.075907 kJ/mol
# Density = 2.221241 g / cm^3
# Si number density = 22.263079 Si / 1000 Ang^3
#
#
#
# Elastic Constant Matrix: (Units=GPa)
#
#
# Indices 1 2 3 4 5 6 
#
# 1 70.7907 9.6013 30.0845 0.0000 21.8414 0.0000
# 2 9.6013 61.7378 10.7435 0.0000 -2.1669 0.0000
# 3 30.0845 10.7435 105.8131 0.0000 10.7193 0.0000
# 4 0.0000 0.0000 0.0000 19.0951 0.0000 6.5512
# 5 21.8414 -2.1669 10.7193 0.0000 41.4672 0.0000
# 6 0.0000 0.0000 0.0000 6.5512 0.0000 28.6480
#
#
#
# Elastic Compliance Matrix: (Units=1/GPa)
#
#
# Indices 1 2 3 4 5 6 
#
# 1 0.019079 -0.002547 -0.004245 0.000000 -0.009085 0.000000
# 2 -0.002547 0.016901 -0.001250 0.000000 0.002548 0.000000
# 3 -0.004245 -0.001250 0.010849 0.000000 -0.000634 0.000000
# 4 0.000000 0.000000 0.000000 0.056828 0.000000 -0.012995
# 5 -0.009085 0.002548 -0.000634 0.000000 0.029197 0.000000
# 6 0.000000 0.000000 0.000000 -0.012995 0.000000 0.037878
#
#
# Mechanical properties :
#
#
# Convention : Reuss Voigt Hill
#
# Bulk Modulus (GPa) = 32.52755 37.68890 35.10822
# Shear Modulus (GPa) = 25.37240 30.36955 27.87097
#
# Velocity S-wave (km/s) = 3.37955 3.69741 3.54205
# Velocity P-wave (km/s) = 5.46541 5.93240 5.70369
#
# Compressibility (1/GPa) = 0.03074317
#
# Stress axis : x y z
#
# Youngs Moduli (GPa) = 52.41409 59.16955 92.17626
#
# Poissons Ratio (x) = 0.15071 0.39133
# Poissons Ratio (y) = 0.13351 0.11521
# Poissons Ratio (z) = 0.22252 0.07395
#
# Static dielectric constant tensor:
#      x y z
#    x 1.898240 0.000000 0.025240 
#    y 0.000000 1.817670 0.000000 
#    z 0.025240 0.000000 1.816240 
# 
# From -- ./inp_files/98328.got.cif
#   From: 2010.05.17/outbox.cif.g08.bks.cpg/sg15_50_cif.got.tgz:98328.got - 2010.06.03 18:47:42.
