data_PCOD9298193
_publ_section_title
;
Structure prediction by ZEFSAII (Michael W. Deem and Ramdas Pophale) SiO2 
 PCOD9298193
Probable space group: C 2/C
;
_chemical_formula_sum "Si O2"
_cell_formula_units_Z 28
_cell_length_a 11.426391
_cell_length_b 20.414463
_cell_length_c 5.301404
_cell_angle_alpha 90.000000
_cell_angle_beta 110.674533
_cell_angle_gamma 90.000000
_cell_volume 1156.987440
_symmetry_space_group_name_H-M "C 2/C"
_symmetry_group_IT_number 15
_symmetry_cell_setting 'monoclinic'
loop_
_space_group_symop_operation_xyz
x,y,z
-x,y,1/2-z
-x,-y,-z
x,-y,1/2+z
1/2+x,1/2+y,z
1/2-x,1/2+y,1/2-z
1/2-x,1/2-y,-z
1/2+x,1/2-y,1/2+z
loop_
_atom_site_type_symbol
_atom_site_label
_atom_site_fract_x
_atom_site_fract_y
_atom_site_fract_z
Si Si1 0.414102 0.234971 0.431958
Si Si2 0.000000 0.044760 0.250000
Si Si3 0.723362 0.637855 0.545394
Si Si4 0.557353 0.073363 0.544890
O O1 0.500000 0.228907 0.250000
O O2 0.340592 0.303615 0.349629
O O3 0.310503 0.178477 0.413389
O O4 0.500000 0.241656 0.750000
O O5 0.121214 0.091869 0.338009
O O6 0.000000 0.000000 0.500000
O O7 0.799463 0.589222 0.793926
O O8 0.500000 0.104032 0.750000
O O9 0.500000 0.000000 0.500000
O O10 0.500000 0.100982 0.250000
#
# Coordination Sequence:
#
# PCOD9298193 Si02
#       4
#     8   4   8   8
#     4  11  27  51  84 118 153 214 271 345 399 467
#     4  12  32  50  82 120 168 222 254 326 416 492
#     4  11  27  52  82 118 168 205 275 332 405 488
#     4  10  24  43  73 109 150 202 259 314 382 462
#
# _framework density 24.200778
#
# number of rings (size 3 to 8) (size 9 to 14) (size 15 to 20)
#    0.000    1.143    1.429    0.857   10.000   13.714 
#    0.000    0.000    3.143    0.000    0.000    0.000 
#    0.000    0.000    0.000    0.000    0.000    0.000 
#
# Total GULP energy -78163.358010 kJ/mol
# GULP energy per Si atom -5583.097001 kJ/mol
# Density = 2.414570 g / cm^3
# Si number density = 24.200778 Si / 1000 Ang^3
#
#
#
# Elastic Constant Matrix: (Units=GPa)
#
#
# Indices 1 2 3 4 5 6 
#
# 1 162.2506 91.6375 94.8825 0.0000 -6.9569 0.0000
# 2 91.6375 207.9106 64.0417 0.0000 25.7365 0.0000
# 3 94.8825 64.0417 200.3198 0.0000 3.0889 0.0000
# 4 0.0000 0.0000 0.0000 35.0715 0.0000 41.2672
# 5 -6.9569 25.7365 3.0889 0.0000 65.1645 0.0000
# 6 0.0000 0.0000 0.0000 41.2672 0.0000 48.5468
#
#
#
# Elastic Compliance Matrix: (Units=1/GPa)
#
#
# Indices 1 2 3 4 5 6 
#
# 1 0.010770 -0.003902 -0.003898 0.000000 0.002876 0.000000
# 2 -0.003902 0.007031 -0.000350 0.000000 -0.003177 0.000000
# 3 -0.003898 -0.000350 0.006960 0.000000 -0.000608 0.000000
# 4 0.000000 0.000000 0.000000********** 0.000000109.817535
# 5 0.002876 -0.003177 -0.000608 0.000000 0.016936 0.000000
# 6 0.000000 0.000000 0.000000109.817535 0.000000-93.329833
#
#
# Mechanical properties :
#
#
# Convention : Reuss Voigt Hill
#
# Bulk Modulus (GPa) = 118.21506 119.06715 118.64111
# Shear Modulus (GPa) = -0.02248 51.08451 25.53102
#
# Velocity S-wave (km/s) = -0.09648 4.59940 3.25155
# Velocity P-wave (km/s) = 6.99580 8.80412 7.95153
#
# Compressibility (1/GPa) = 0.00845916
#
# Stress axis : x y z
#
# Youngs Moduli (GPa) = 92.84923 142.22968 143.68229
#
# Poissons Ratio (x) = 0.55501 0.56009
# Poissons Ratio (y) = 0.36232 0.05035
# Poissons Ratio (z) = 0.36194 0.04984
#
# Static dielectric constant tensor:
#      x y z
#    x 2.024350 0.000000 0.068520 
#    y 0.000000 -0.437960 0.000000 
#    z 0.068520 0.000000 2.075100 
# 
# From -- ./inp_files/3762.got.cif
#   From: 2010.05.17/outbox.cif.g08.bks.cpg/sg15_2_cif.got.tgz:3762.got - 2010.06.03 18:47:42.
