data_PCOD9298912
_publ_section_title
;
Structure prediction by ZEFSAII (Michael W. Deem and Ramdas Pophale) SiO2 
 PCOD9298912
Probable space group: C 2/C
;
_chemical_formula_sum "Si O2"
_cell_formula_units_Z 64
_cell_length_a 12.018971
_cell_length_b 26.789978
_cell_length_c 13.721292
_cell_angle_alpha 90.000000
_cell_angle_beta 41.752611
_cell_angle_gamma 90.000000
_cell_volume 2942.075959
_symmetry_space_group_name_H-M "C 2/C"
_symmetry_group_IT_number 15
_symmetry_cell_setting 'monoclinic'
loop_
_space_group_symop_operation_xyz
x,y,z
-x,y,1/2-z
-x,-y,-z
x,-y,1/2+z
1/2+x,1/2+y,z
1/2-x,1/2+y,1/2-z
1/2-x,1/2-y,-z
1/2+x,1/2-y,1/2+z
loop_
_atom_site_type_symbol
_atom_site_label
_atom_site_fract_x
_atom_site_fract_y
_atom_site_fract_z
Si Si1 0.254448 0.274058 0.390271
Si Si2 0.809348 0.112055 0.907136
Si Si3 0.931942 0.860085 0.956993
Si Si4 0.744556 0.838646 0.881375
Si Si5 0.237187 0.506205 0.751122
Si Si6 0.399390 0.260533 0.093436
Si Si7 0.000452 0.426027 0.493924
Si Si8 0.556222 0.560243 0.515431
O O1 0.250000 0.250000 0.500000
O O2 0.271382 0.332496 0.397798
O O3 0.383734 0.258596 0.221417
O O4 0.083623 0.258591 0.450441
O O5 0.836838 0.103604 0.003348
O O6 0.000000 0.102007 0.750000
O O7 0.654861 0.078967 0.969522
O O8 0.808828 0.854722 0.945795
O O9 0.113737 0.851397 0.790423
O O10 0.883170 0.816772 0.065472
O O11 0.949711 0.912697 0.000248
O O12 0.715338 0.779632 0.886827
O O13 0.582149 0.872298 0.966621
O O14 0.146122 0.463721 0.875776
O O15 0.413998 0.530561 0.669181
O O16 0.304786 0.478300 0.611901
O O17 0.097293 0.549359 0.839057
#
# Coordination Sequence:
#
# PCOD9298912 Si02
#       8
#     8   8   8   8   8   8   8   8
#     4  12  25  42  69 107 146 191 232 287 355 431
#     4  12  24  43  73 100 144 188 228 289 367 416
#     4  11  24  46  73 102 143 190 240 288 361 427
#     4  11  24  46  72 104 140 193 236 297 355 423
#     4  10  24  46  69  98 137 179 236 295 358 422
#     4  12  24  45  71 103 150 183 240 290 348 435
#     4  11  23  48  69 104 139 178 244 296 358 432
#     4  11  23  47  70 105 139 182 239 292 362 432
#
# _framework density 21.753346000000001
#
# number of rings (size 3 to 8) (size 9 to 14) (size 15 to 20)
#    0.000    0.750    5.000    3.000    0.000    0.500 
#   15.750    1.250    0.000    0.000    0.000    0.000 
#    0.000    0.000    0.000    0.000    0.000    0.000 
#
# Total GULP energy -178366.874094 kJ/mol
# GULP energy per Si atom -5573.964815 kJ/mol
# Density = 2.170383 g / cm^3
# Si number density = 21.753346 Si / 1000 Ang^3
#
#
#
# Elastic Constant Matrix: (Units=GPa)
#
#
# Indices 1 2 3 4 5 6 
#
# 1 79.3551 25.8929 31.3881 0.0000 4.1143 0.0000
# 2 25.8929 88.2759 31.7587 0.0000 1.0510 0.0000
# 3 31.3881 31.7587 116.2817 0.0000 -15.9186 0.0000
# 4 0.0000 0.0000 0.0000 29.0581 0.0000 -14.1547
# 5 4.1143 1.0510 -15.9186 0.0000 25.0441 0.0000
# 6 0.0000 0.0000 0.0000 -14.1547 0.0000 6.4605
#
#
#
# Elastic Compliance Matrix: (Units=1/GPa)
#
#
# Indices 1 2 3 4 5 6 
#
# 1 0.015435 -0.003022 -0.004021 0.000000 -0.004965 0.000000
# 2 -0.003022 0.013359 -0.003112 0.000000 -0.002042 0.000000
# 3 -0.004021 -0.003112 0.011658 0.000000 0.008201 0.000000
# 4 0.000000 0.000000 0.000000 -0.511598 0.000000 -1.120900
# 5 -0.004965 -0.002042 0.008201 0.000000 0.046044 0.000000
# 6 0.000000 0.000000 0.000000 -1.120900 0.000000 -2.301079
#
#
# Mechanical properties :
#
#
# Convention : Reuss Voigt Hill
#
# Bulk Modulus (GPa) = 49.64808 51.33247 50.49027
# Shear Modulus (GPa) = -1.85243 25.10406 11.62581
#
# Velocity S-wave (km/s) = -0.92380 3.40079 2.31430
# Velocity P-wave (km/s) = 4.66207 6.25054 5.51380
#
# Compressibility (1/GPa) = 0.02014177
#
# Stress axis : x y z
#
# Youngs Moduli (GPa) = 64.78627 74.85857 85.77856
#
# Poissons Ratio (x) = 0.22621 0.34490
# Poissons Ratio (y) = 0.19577 0.26698
# Poissons Ratio (z) = 0.26049 0.23299
#
# Static dielectric constant tensor:
#      x y z
#    x 1.869940 0.000000 0.057940 
#    y 0.000000 1.906880 0.000000 
#    z 0.057940 0.000000 1.850790 
# 
# From -- ./inp_files/148751.got.cif
#   From: 2010.05.17/outbox.cif.g08.bks.cpg/sg15_75_cif.got.tgz:148751.got - 2010.06.03 18:47:42.
