data_PCOD9298826
_publ_section_title
;
Structure prediction by ZEFSAII (Michael W. Deem and Ramdas Pophale) SiO2 
 PCOD9298826
Probable space group: C 2/C
;
_chemical_formula_sum "Si O2"
_cell_formula_units_Z 44
_cell_length_a 10.395772
_cell_length_b 27.119489
_cell_length_c 14.039690
_cell_angle_alpha 90.000000
_cell_angle_beta 32.798319
_cell_angle_gamma 90.000000
_cell_volume 2144.082107
_symmetry_space_group_name_H-M "C 2/C"
_symmetry_group_IT_number 15
_symmetry_cell_setting 'monoclinic'
loop_
_space_group_symop_operation_xyz
x,y,z
-x,y,1/2-z
-x,-y,-z
x,-y,1/2+z
1/2+x,1/2+y,z
1/2-x,1/2+y,1/2-z
1/2-x,1/2-y,-z
1/2+x,1/2-y,1/2+z
loop_
_atom_site_type_symbol
_atom_site_label
_atom_site_fract_x
_atom_site_fract_y
_atom_site_fract_z
Si Si1 0.500000 0.882157 0.250000
Si Si2 0.281346 0.682910 0.730090
Si Si3 0.235262 0.915132 0.155571
Si Si4 0.268884 0.215334 0.328179
Si Si5 0.873121 0.387549 0.726713
Si Si6 0.107054 0.945607 0.440479
O O1 0.386050 0.844982 0.242761
O O2 0.288476 0.921547 0.404098
O O3 0.301441 0.642982 0.801111
O O4 0.191428 0.735457 0.822622
O O5 0.544879 0.694786 0.526602
O O6 0.241462 0.938648 0.255949
O O7 0.000000 0.934532 0.250000
O O8 0.466711 0.918207 0.946178
O O9 0.500000 0.226688 0.250000
O O10 0.342161 0.169440 0.215457
O O11 0.000000 0.385515 0.750000
O O12 0.622089 0.411589 0.904121
O O13 0.000000 0.000000 0.500000
#
# Coordination Sequence:
#
# PCOD9298826 Si02
#       6
#     4   8   8   8   8   8
#     4  10  24  46  62  94 144 176 226 276 340 412
#     4  11  22  39  61  96 140 184 218 277 328 405
#     4  11  20  39  67  99 131 166 223 281 338 395
#     4  11  20  36  63 100 135 175 229 272 330 390
#     4  11  21  40  67 100 131 169 223 283 336 394
#     4  11  25  45  69  94 134 174 221 289 345 403
#
# _framework density 20.521602000000001
#
# number of rings (size 3 to 8) (size 9 to 14) (size 15 to 20)
#    0.000    1.091    5.455    3.273    1.273    1.455 
#    0.000    5.455    0.000    0.000    0.000    0.000 
#    0.000    0.000    0.000    0.000    0.000    0.000 
#
# Total GULP energy -122598.926947 kJ/mol
# GULP energy per Si atom -5572.678498 kJ/mol
# Density = 2.047489 g / cm^3
# Si number density = 20.521602 Si / 1000 Ang^3
#
#
#
# Elastic Constant Matrix: (Units=GPa)
#
#
# Indices 1 2 3 4 5 6 
#
# 1 90.2416 31.7330 16.7440 0.0000 -24.6625 0.0000
# 2 31.7330 130.7573 19.6105 0.0000 -12.4444 0.0000
# 3 16.7440 19.6105 88.3332 0.0000 -1.2440 0.0000
# 4 0.0000 0.0000 0.0000 -6.8049 0.0000 27.0102
# 5 -24.6625 -12.4444 -1.2440 0.0000 34.5840 0.0000
# 6 0.0000 0.0000 0.0000 27.0102 0.0000 -20.2272
#
#
#
# Elastic Compliance Matrix: (Units=1/GPa)
#
#
# Indices 1 2 3 4 5 6 
#
# 1 0.014988 -0.002383 -0.002175 0.000000 0.009753 0.000000
# 2 -0.002383 0.008568 -0.001432 0.000000 0.001332 0.000000
# 3 -0.002175 -0.001432 0.012028 0.000000 -0.001633 0.000000
# 4 0.000000 0.000000 0.000000 0.034173 0.000000 0.045633
# 5 0.009753 0.001332 -0.001633 0.000000 0.036290 0.000000
# 6 0.000000 0.000000 0.000000 0.045633 0.000000 0.011497
#
#
# Mechanical properties :
#
#
# Convention : Reuss Voigt Hill
#
# Bulk Modulus (GPa) = 42.36413 49.50081 45.93247
# Shear Modulus (GPa) = 36.39260 17.59335 26.99298
#
# Velocity S-wave (km/s) = 4.21572 2.93116 3.63070
# Velocity P-wave (km/s) = 6.66220 5.96903 6.32512
#
# Compressibility (1/GPa) = 0.02360487
#
# Stress axis : x y z
#
# Youngs Moduli (GPa) = 66.71911 116.71927 83.14069
#
# Poissons Ratio (x) = 0.27815 0.18080
# Poissons Ratio (y) = 0.15900 0.11902
# Poissons Ratio (z) = 0.14509 0.16709
#
# Static dielectric constant tensor:
#      x y z
#    x 1.896240 0.000000 0.045420 
#    y 0.000000 1.791330 0.000000 
#    z 0.045420 0.000000 1.757090 
# 
# From -- ./inp_files/148487.got.cif
#   From: 2010.05.17/outbox.cif.g08.bks.cpg/sg15_75_cif.got.tgz:148487.got - 2010.06.03 18:47:42.
