data_PCOD9298913
_publ_section_title
;
Structure prediction by ZEFSAII (Michael W. Deem and Ramdas Pophale) SiO2 
 PCOD9298913
Probable space group: C 2/C
;
_chemical_formula_sum "Si O2"
_cell_formula_units_Z 40
_cell_length_a 9.511451
_cell_length_b 18.554953
_cell_length_c 10.758994
_cell_angle_alpha 90.000000
_cell_angle_beta 107.427145
_cell_angle_gamma 90.000000
_cell_volume 1811.638462
_symmetry_space_group_name_H-M "C 2/C"
_symmetry_group_IT_number 15
_symmetry_cell_setting 'monoclinic'
loop_
_space_group_symop_operation_xyz
x,y,z
-x,y,1/2-z
-x,-y,-z
x,-y,1/2+z
1/2+x,1/2+y,z
1/2-x,1/2+y,1/2-z
1/2-x,1/2-y,-z
1/2+x,1/2-y,1/2+z
loop_
_atom_site_type_symbol
_atom_site_label
_atom_site_fract_x
_atom_site_fract_y
_atom_site_fract_z
Si Si1 0.305373 0.282416 0.385703
Si Si2 0.844611 0.918116 0.250858
Si Si3 0.407795 0.967592 0.854917
Si Si4 0.665924 0.350991 0.743460
Si Si5 0.867204 0.810774 0.030813
O O1 0.250000 0.250000 0.500000
O O2 0.312250 0.369121 0.365096
O O3 0.209328 0.233669 0.267678
O O4 0.478593 0.269096 0.424302
O O5 0.000000 0.955573 0.250000
O O6 0.712729 0.971935 0.204717
O O7 0.846161 0.857206 0.146919
O O8 0.500000 0.957124 0.750000
O O9 0.300361 0.896685 0.840257
O O10 0.500000 0.000000 0.000000
O O11 0.500000 0.362313 0.750000
O O12 0.652296 0.363061 0.592335
O O13 0.750000 0.750000 0.000000
#
# Coordination Sequence:
#
# PCOD9298913 Si02
#       5
#     8   8   8   8   8
#     4  11  24  41  70 104 135 179 233 283 347 417
#     4  10  24  46  69  99 139 186 225 284 353 419
#     4  12  30  47  72 104 139 188 239 297 347 417
#     4  12  26  45  70 102 143 188 230 288 352 423
#     4  11  23  41  69 102 138 175 226 288 342 414
#
# _framework density 22.079460999999998
#
# number of rings (size 3 to 8) (size 9 to 14) (size 15 to 20)
#    0.000    0.800    4.000    1.800    8.400    0.800 
#    0.000    5.000    0.000    0.000    0.000    0.000 
#    0.000    0.000    0.000    0.000    0.000    0.000 
#
# Total GULP energy -111348.051176 kJ/mol
# GULP energy per Si atom -5567.402559 kJ/mol
# Density = 2.202921 g / cm^3
# Si number density = 22.079461 Si / 1000 Ang^3
#
#
#
# Elastic Constant Matrix: (Units=GPa)
#
#
# Indices 1 2 3 4 5 6 
#
# 1 126.4071 68.5589 4.9593 0.0000 8.2374 0.0000
# 2 68.5589 53.8799 9.0571 0.0000 6.4621 0.0000
# 3 4.9593 9.0571 69.7051 0.0000 -7.7868 0.0000
# 4 0.0000 0.0000 0.0000 25.6439 0.0000 15.1265
# 5 8.2374 6.4621 -7.7868 0.0000 38.8758 0.0000
# 6 0.0000 0.0000 0.0000 15.1265 0.0000 43.6834
#
#
#
# Elastic Compliance Matrix: (Units=1/GPa)
#
#
# Indices 1 2 3 4 5 6 
#
# 1 0.025961 -0.033538 0.002577 0.000000 0.000590 0.000000
# 2 -0.033538 0.062845 -0.006293 0.000000 -0.004600 0.000000
# 3 0.002577 -0.006293 0.015381 0.000000 0.003581 0.000000
# 4 0.000000 0.000000 0.000000 0.049005 0.000000 -0.016969
# 5 0.000590 -0.004600 0.003581 0.000000 0.027080 0.000000
# 6 0.000000 0.000000 0.000000 -0.016969 0.000000 0.028768
#
#
# Mechanical properties :
#
#
# Convention : Reuss Voigt Hill
#
# Bulk Modulus (GPa) = 33.69655 46.12697 39.91176
# Shear Modulus (GPa) = 17.03914 32.80173 24.92043
#
# Velocity S-wave (km/s) = 2.78100 3.85856 3.36321
# Velocity P-wave (km/s) = 5.06029 6.38655 5.76171
#
# Compressibility (1/GPa) = 0.02967663
#
# Stress axis : x y z
#
# Youngs Moduli (GPa) = 38.51881 15.91226 65.01695
#
# Poissons Ratio (x) = 0.53367 -0.16752
# Poissons Ratio (y) = 1.29185 0.40918
# Poissons Ratio (z) = -0.09925 0.10014
#
# Static dielectric constant tensor:
#      x y z
#    x 2.266410 0.000000 -0.875160 
#    y 0.000000 1.852070 0.000000 
#    z -0.875160 0.000000 3.533730 
# 
# From -- ./inp_files/76642.got.cif
#   From: 2010.05.17/outbox.cif.g08.bks.cpg/sg15_39_cif.got.tgz:76642.got - 2010.06.03 18:47:42.
