data_PCOD9298287
_publ_section_title
;
Structure prediction by ZEFSAII (Michael W. Deem and Ramdas Pophale) SiO2 
 PCOD9298287
Probable space group: C 2/C
;
_chemical_formula_sum "Si O2"
_cell_formula_units_Z 52
_cell_length_a 11.360057
_cell_length_b 7.743944
_cell_length_c 30.186738
_cell_angle_alpha 90.000000
_cell_angle_beta 123.230255
_cell_angle_gamma 90.000000
_cell_volume 2221.323926
_symmetry_space_group_name_H-M "C 2/C"
_symmetry_group_IT_number 15
_symmetry_cell_setting 'monoclinic'
loop_
_space_group_symop_operation_xyz
x,y,z
-x,y,1/2-z
-x,-y,-z
x,-y,1/2+z
1/2+x,1/2+y,z
1/2-x,1/2+y,1/2-z
1/2-x,1/2-y,-z
1/2+x,1/2-y,1/2+z
loop_
_atom_site_type_symbol
_atom_site_label
_atom_site_fract_x
_atom_site_fract_y
_atom_site_fract_z
Si Si1 0.392653 0.734917 0.058272
Si Si2 0.500000 0.128624 0.250000
Si Si3 0.695190 0.734234 0.672129
Si Si4 0.920389 0.312341 0.482697
Si Si5 0.785240 0.862037 0.777384
Si Si6 0.090454 0.841899 0.423887
Si Si7 0.066538 0.360261 0.342719
O O1 0.519341 0.738625 0.049943
O O2 0.407401 0.547273 0.082773
O O3 0.399701 0.879245 0.098022
O O4 0.250000 0.750000 0.000000
O O5 0.355037 0.225052 0.230470
O O6 0.530611 0.011498 0.300084
O O7 0.754916 0.870734 0.718938
O O8 0.709748 0.548473 0.699128
O O9 0.530803 0.750395 0.628762
O O10 0.794017 0.727853 0.649548
O O11 0.950466 0.207548 0.533955
O O12 0.751722 0.300856 0.446746
O O13 0.000000 0.500000 0.500000
O O14 0.928070 0.758806 0.813229
#
# Coordination Sequence:
#
# PCOD9298287 Si02
#       7
#     8   4   8   8   8   8   8
#     4  12  24  44  73  99 138 190 224 283 359 413
#     4  10  24  44  66 100 138 172 232 290 336 416
#     4  11  24  44  71  99 139 180 229 288 346 413
#     4  11  25  46  67 105 141 177 240 289 340 423
#     4  11  21  45  66  97 135 175 227 280 344 403
#     4  11  25  46  69 102 142 182 233 288 351 422
#     4  11  22  44  69  96 138 179 228 283 343 412
#
# _framework density 23.409462999999999
#
# number of rings (size 3 to 8) (size 9 to 14) (size 15 to 20)
#    0.000    0.923    6.154    1.385    0.000    2.462 
#    2.769    0.000    0.000    0.000    0.000    0.000 
#    0.000    0.000    0.000    0.000    0.000    0.000 
#
# Total GULP energy -145270.786453 kJ/mol
# GULP energy per Si atom -5587.337940 kJ/mol
# Density = 2.335618 g / cm^3
# Si number density = 23.409463 Si / 1000 Ang^3
#
#
#
# Elastic Constant Matrix: (Units=GPa)
#
#
# Indices 1 2 3 4 5 6 
#
# 1 149.3962 26.9130 55.7431 0.0000 -3.7772 0.0000
# 2 26.9130 48.8361 11.0562 0.0000 12.8274 0.0000
# 3 55.7431 11.0562 144.2683 0.0000 13.5635 0.0000
# 4 0.0000 0.0000 0.0000 20.9891 0.0000 -4.4332
# 5 -3.7772 12.8274 13.5635 0.0000 36.5553 0.0000
# 6 0.0000 0.0000 0.0000 -4.4332 0.0000 36.6911
#
#
#
# Elastic Compliance Matrix: (Units=1/GPa)
#
#
# Indices 1 2 3 4 5 6 
#
# 1 0.009041 -0.005265 -0.003472 0.000000 0.004070 0.000000
# 2 -0.005265 0.025768 0.000996 0.000000 -0.009955 0.000000
# 3 -0.003472 0.000996 0.008562 0.000000 -0.003885 0.000000
# 4 0.000000 0.000000 0.000000 0.048892 0.000000 0.005907
# 5 0.004070 -0.009955 -0.003885 0.000000 0.032711 0.000000
# 6 0.000000 0.000000 0.000000 0.005907 0.000000 0.027968
#
#
# Mechanical properties :
#
#
# Convention : Reuss Voigt Hill
#
# Bulk Modulus (GPa) = 35.85927 58.88058 47.36993
# Shear Modulus (GPa) = 28.13403 35.43299 31.78351
#
# Velocity S-wave (km/s) = 3.47049 3.89475 3.68872
# Velocity P-wave (km/s) = 5.60452 6.74036 6.19851
#
# Compressibility (1/GPa) = 0.02788679
#
# Stress axis : x y z
#
# Youngs Moduli (GPa) = 110.61227 38.80825 116.79338
#
# Poissons Ratio (x) = 0.20433 0.40554
# Poissons Ratio (y) = 0.58238 -0.11628
# Poissons Ratio (z) = 0.38408 -0.03864
#
# Static dielectric constant tensor:
#      x y z
#    x 1.906000 0.000000 0.027660 
#    y 0.000000 2.217370 0.000000 
#    z 0.027660 0.000000 1.928160 
# 
# From -- ./inp_files/291680.got.cif
#   From: 2010.05.17/outbox.cif.g08.bks.cpg/sg15_146_cif.got.tgz:291680.got - 2010.06.03 18:47:42.
