data_PCOD9298847
_publ_section_title
;
Structure prediction by ZEFSAII (Michael W. Deem and Ramdas Pophale) SiO2 
 PCOD9298847
Probable space group: C 2/C
;
_chemical_formula_sum "Si O2"
_cell_formula_units_Z 44
_cell_length_a 7.132291
_cell_length_b 11.711191
_cell_length_c 21.870116
_cell_angle_alpha 90.000000
_cell_angle_beta 85.965144
_cell_angle_gamma 90.000000
_cell_volume 1822.231035
_symmetry_space_group_name_H-M "C 2/C"
_symmetry_group_IT_number 15
_symmetry_cell_setting 'monoclinic'
loop_
_space_group_symop_operation_xyz
x,y,z
-x,y,1/2-z
-x,-y,-z
x,-y,1/2+z
1/2+x,1/2+y,z
1/2-x,1/2+y,1/2-z
1/2-x,1/2-y,-z
1/2+x,1/2-y,1/2+z
loop_
_atom_site_type_symbol
_atom_site_label
_atom_site_fract_x
_atom_site_fract_y
_atom_site_fract_z
Si Si1 0.000000 0.435482 0.750000
Si Si2 0.025392 0.251621 0.642860
Si Si3 0.801656 0.382546 0.552390
Si Si4 0.146956 0.983946 0.318535
Si Si5 0.455476 0.695369 0.125522
Si Si6 0.420439 0.927080 0.412193
O O1 0.979051 0.350170 0.693219
O O2 0.813432 0.510165 0.765306
O O3 0.905843 0.279716 0.585331
O O4 0.241756 0.266594 0.619633
O O5 0.975049 0.129650 0.673675
O O6 0.581807 0.364714 0.570229
O O7 0.855339 0.387908 0.480533
O O8 0.894978 0.495790 0.580716
O O9 0.036650 0.103725 0.320095
O O10 0.255914 0.993694 0.381492
O O11 0.547451 0.819122 0.132414
#
# Coordination Sequence:
#
# PCOD9298847 Si02
#       6
#     4   8   8   8   8   8
#     4  10  24  46  66  96 128 178 230 276 342 396
#     4  11  24  47  67  98 137 172 232 278 333 415
#     4  11  23  44  68 100 141 181 219 282 337 407
#     4  11  24  46  70  98 135 174 227 284 333 409
#     4  11  23  42  69  99 136 180 218 270 350 398
#     4  11  23  43  69 102 140 176 228 275 340 411
#
# _framework density 24.146222999999999
#
# number of rings (size 3 to 8) (size 9 to 14) (size 15 to 20)
#    0.000    1.091    5.455    1.636    0.000    4.364 
#    3.273    0.000    0.000    0.000    0.000    0.000 
#    0.000    0.000    0.000    0.000    0.000    0.000 
#
# Total GULP energy -122923.122599 kJ/mol
# GULP energy per Si atom -5587.414664 kJ/mol
# Density = 2.409127 g / cm^3
# Si number density = 24.146223 Si / 1000 Ang^3
#
#
#
# Elastic Constant Matrix: (Units=GPa)
#
#
# Indices 1 2 3 4 5 6 
#
# 1 126.3008 59.3832 42.4058 0.0000 -35.0759 0.0000
# 2 59.3832 152.9945 32.5012 0.0000 -28.2209 0.0000
# 3 42.4058 32.5012 73.8579 0.0000 -0.8557 0.0000
# 4 0.0000 0.0000 0.0000 19.0128 0.0000 -6.0776
# 5 -35.0759 -28.2209 -0.8557 0.0000 49.6571 0.0000
# 6 0.0000 0.0000 0.0000 -6.0776 0.0000 40.6488
#
#
#
# Elastic Compliance Matrix: (Units=1/GPa)
#
#
# Indices 1 2 3 4 5 6 
#
# 1 0.013483 -0.002336 -0.006620 0.000000 0.008082 0.000000
# 2 -0.002336 0.008530 -0.002376 0.000000 0.003156 0.000000
# 3 -0.006620 -0.002376 0.018319 0.000000 -0.005710 0.000000
# 4 0.000000 0.000000 0.000000 0.055236 0.000000 0.008259
# 5 0.008082 0.003156 -0.005710 0.000000 0.027543 0.000000
# 6 0.000000 0.000000 0.000000 0.008259 0.000000 0.025836
#
#
# Mechanical properties :
#
#
# Convention : Reuss Voigt Hill
#
# Bulk Modulus (GPa) = 56.59526 69.08153 62.83840
# Shear Modulus (GPa) = 28.16900 36.45461 32.31181
#
# Velocity S-wave (km/s) = 3.41926 3.88976 3.66207
# Velocity P-wave (km/s) = 6.25123 6.98895 6.63036
#
# Compressibility (1/GPa) = 0.01766932
#
# Stress axis : x y z
#
# Youngs Moduli (GPa) = 74.16615 117.23492 54.58669
#
# Poissons Ratio (x) = 0.27390 0.36135
# Poissons Ratio (y) = 0.17327 0.12968
# Poissons Ratio (z) = 0.49096 0.27850
#
# Static dielectric constant tensor:
#      x y z
#    x 1.964230 0.000000 -0.011200 
#    y 0.000000 1.967880 0.000000 
#    z -0.011200 0.000000 1.891530 
# 
# From -- ./inp_files/263023.got.cif
#   From: 2010.05.17/outbox.cif.g08.bks.cpg/sg15_132_cif.got.tgz:263023.got - 2010.06.03 18:47:42.
