data_PCOD9298755
_publ_section_title
;
Structure prediction by ZEFSAII (Michael W. Deem and Ramdas Pophale) SiO2 
 PCOD9298755
Probable space group: C 2/C
;
_chemical_formula_sum "Si O2"
_cell_formula_units_Z 48
_cell_length_a 7.602307
_cell_length_b 17.405881
_cell_length_c 13.956186
_cell_angle_alpha 90.000000
_cell_angle_beta 89.125634
_cell_angle_gamma 90.000000
_cell_volume 1846.535197
_symmetry_space_group_name_H-M "C 2/C"
_symmetry_group_IT_number 15
_symmetry_cell_setting 'monoclinic'
loop_
_space_group_symop_operation_xyz
x,y,z
-x,y,1/2-z
-x,-y,-z
x,-y,1/2+z
1/2+x,1/2+y,z
1/2-x,1/2+y,1/2-z
1/2-x,1/2-y,-z
1/2+x,1/2-y,1/2+z
loop_
_atom_site_type_symbol
_atom_site_label
_atom_site_fract_x
_atom_site_fract_y
_atom_site_fract_z
Si Si1 0.500000 0.451611 0.750000
Si Si2 0.496957 0.845371 0.355187
Si Si3 0.201264 0.809370 0.830180
Si Si4 0.358317 0.679396 0.551774
Si Si5 0.000000 0.220975 0.750000
Si Si6 0.784961 0.040107 0.434204
Si Si7 0.380458 0.915078 0.962309
O O1 0.636993 0.390841 0.793308
O O2 0.389254 0.489695 0.838582
O O3 0.500000 0.875957 0.250000
O O4 0.560990 0.756553 0.355629
O O5 0.300428 0.856231 0.388409
O O6 0.607230 0.894749 0.426259
O O7 0.324262 0.771224 0.749442
O O8 0.320078 0.835543 0.917168
O O9 0.250000 0.750000 0.500000
O O10 0.499015 0.688156 0.638986
O O11 0.392096 0.616179 0.469172
O O12 0.575939 0.063998 0.420316
O O13 0.759457 0.983913 0.526557
#
# Coordination Sequence:
#
# PCOD9298755 Si02
#       7
#     4   8   8   8   4   8   8
#     4  12  24  44  69  98 147 180 230 302 350 408
#     4  11  21  42  67 101 135 174 229 293 348 409
#     4  12  22  40  66 103 136 178 234 285 348 418
#     4  11  22  42  70 100 143 184 235 298 349 420
#     4  12  22  38  71 112 137 188 242 282 364 428
#     4  10  24  48  68 100 140 188 234 290 354 418
#     4  10  24  45  72  97 135 191 234 283 356 430
#
# _framework density 25.994630000000001
#
# number of rings (size 3 to 8) (size 9 to 14) (size 15 to 20)
#    0.000    1.000    2.500    5.500    0.000    2.000 
#    9.000    1.667    0.000    0.000    0.000    0.000 
#    0.000    0.000    0.000    0.000    0.000    0.000 
#
# Total GULP energy -133772.325796 kJ/mol
# GULP energy per Si atom -5573.846908 kJ/mol
# Density = 2.593546 g / cm^3
# Si number density = 25.994630 Si / 1000 Ang^3
#
#
#
# Elastic Constant Matrix: (Units=GPa)
#
#
# Indices 1 2 3 4 5 6 
#
# 1 105.1843 22.4551 24.8227 0.0000 -28.4955 0.0000
# 2 22.4551 64.3775 20.5207 0.0000 1.5204 0.0000
# 3 24.8227 20.5207 121.8643 0.0000 -9.6412 0.0000
# 4 0.0000 0.0000 0.0000 20.7406 0.0000 10.1708
# 5 -28.4955 1.5204 -9.6412 0.0000 46.1994 0.0000
# 6 0.0000 0.0000 0.0000 10.1708 0.0000 13.8167
#
#
#
# Elastic Compliance Matrix: (Units=1/GPa)
#
#
# Indices 1 2 3 4 5 6 
#
# 1 0.012825 -0.004249 -0.001281 0.000000 0.007783 0.000000
# 2 -0.004249 0.017881 -0.002440 0.000000 -0.003718 0.000000
# 3 -0.001281 -0.002440 0.008970 0.000000 0.001162 0.000000
# 4 0.000000 0.000000 0.000000 0.075451 0.000000 -0.055541
# 5 0.007783 -0.003718 0.001162 0.000000 0.026811 0.000000
# 6 0.000000 0.000000 0.000000 -0.055541 0.000000 0.113261
#
#
# Mechanical properties :
#
#
# Convention : Reuss Voigt Hill
#
# Bulk Modulus (GPa) = 42.12995 47.44701 44.78848
# Shear Modulus (GPa) = 17.91799 31.05985 24.48892
#
# Velocity S-wave (km/s) = 2.62829 3.46042 3.07266
# Velocity P-wave (km/s) = 5.04509 5.85305 5.46403
#
# Compressibility (1/GPa) = 0.02373608
#
# Stress axis : x y z
#
# Youngs Moduli (GPa) = 77.97288 55.92572 111.48834
#
# Poissons Ratio (x) = 0.23762 0.14283
# Poissons Ratio (y) = 0.33129 0.27199
# Poissons Ratio (z) = 0.09989 0.13644
#
# Static dielectric constant tensor:
#      x y z
#    x 2.379090 0.000000 0.772580 
#    y 0.000000 2.133980 0.000000 
#    z 0.772580 0.000000 3.303430 
# 
# From -- ./inp_files/136235.got.cif
#   From: 2010.05.17/outbox.cif.g08.bks.cpg/sg15_69_cif.got.tgz:136235.got - 2010.06.03 18:47:42.
