data_PCOD9298226
_publ_section_title
;
Structure prediction by ZEFSAII (Michael W. Deem and Ramdas Pophale) SiO2 
 PCOD9298226
Probable space group: C 2/C
;
_chemical_formula_sum "Si O2"
_cell_formula_units_Z 52
_cell_length_a 11.230568
_cell_length_b 24.227228
_cell_length_c 17.314095
_cell_angle_alpha 90.000000
_cell_angle_beta 30.308609
_cell_angle_gamma 90.000000
_cell_volume 2377.397739
_symmetry_space_group_name_H-M "C 2/C"
_symmetry_group_IT_number 15
_symmetry_cell_setting 'monoclinic'
loop_
_space_group_symop_operation_xyz
x,y,z
-x,y,1/2-z
-x,-y,-z
x,-y,1/2+z
1/2+x,1/2+y,z
1/2-x,1/2+y,1/2-z
1/2-x,1/2-y,-z
1/2+x,1/2-y,1/2+z
loop_
_atom_site_type_symbol
_atom_site_label
_atom_site_fract_x
_atom_site_fract_y
_atom_site_fract_z
Si Si1 0.807579 0.327698 0.485094
Si Si2 0.369259 0.678991 0.117409
Si Si3 0.231116 0.431375 0.905038
Si Si4 0.486763 0.270634 0.124988
Si Si5 0.133402 0.446832 0.517676
Si Si6 0.000000 0.857722 0.250000
Si Si7 0.500000 0.905740 0.750000
Si Si8 0.000000 0.746139 0.750000
O O1 0.580543 0.337709 0.556421
O O2 0.893970 0.384850 0.472897
O O3 0.993173 0.294829 0.327917
O O4 0.712484 0.287453 0.606340
O O5 0.194316 0.720916 0.259407
O O6 0.199589 0.631778 0.178503
O O7 0.484168 0.707460 0.977864
O O8 0.500000 0.413022 0.750000
O O9 0.219272 0.492439 0.946893
O O10 0.113412 0.436469 0.887502
O O11 0.424601 0.318400 0.221516
O O12 0.750000 0.250000 0.000000
O O13 0.298999 0.398303 0.393614
O O14 0.113876 0.441645 0.619437
#
# Coordination Sequence:
#
# PCOD9298226 Si02
#       8
#     8   8   8   8   8   4   4   4
#     4  11  24  44  67  96 135 180 222 270 334 399
#     4  12  23  38  63  97 138 176 220 274 336 403
#     4  11  24  49  73  95 132 187 222 277 343 408
#     4  12  21  38  60  99 139 182 223 271 339 397
#     4  11  26  44  73 100 132 171 238 279 339 404
#     4  12  21  41  66  98 139 181 222 286 328 400
#     4  12  23  41  62 104 129 165 220 290 328 388
#     4  10  24  44  62 100 132 172 228 262 324 408
#
# _framework density 21.872655000000002
#
# number of rings (size 3 to 8) (size 9 to 14) (size 15 to 20)
#    0.000    0.615    6.154    1.846    0.000    4.308 
#    0.000    4.615    0.000    0.000    0.000    0.000 
#    0.000    0.000    0.000    0.000    0.000    0.000 
#
# Total GULP energy -145546.545636 kJ/mol
# GULP energy per Si atom -5597.944063 kJ/mol
# Density = 2.182287 g / cm^3
# Si number density = 21.872655 Si / 1000 Ang^3
#
#
#
# Elastic Constant Matrix: (Units=GPa)
#
#
# Indices 1 2 3 4 5 6 
#
# 1 96.5932 33.1518 20.2297 -0.0143 17.7861 0.0000
# 2 33.1518 75.9119 -2.2131 -0.0233 16.9167 -0.0170
# 3 20.2297 -2.2131 87.2814 -0.0403 23.7220 -0.0159
# 4 -0.0143 -0.0233 -0.0403 6.6331 0.0151 -11.9167
# 5 17.7861 16.9167 23.7220 0.0151 44.0900 0.0071
# 6 0.0000 -0.0170 -0.0159 -11.9167 0.0071 7.2908
#
#
#
# Elastic Compliance Matrix: (Units=1/GPa)
#
#
# Indices 1 2 3 4 5 6 
#
# 1 0.013096 -0.005406 -0.002694 0.000017 -0.001759 0.000011
# 2 -0.005406 0.017002 0.003355 -0.000092 -0.006147 -0.000097
# 3 -0.002694 0.003355 0.014314 -0.000101 -0.007902 -0.000118
# 4 0.000017 -0.000092 -0.000101 -0.077853 0.000130 -0.127250
# 5 -0.001759 -0.006147 -0.007902 0.000130 0.030001 0.000151
# 6 0.000011 -0.000097 -0.000118 -0.127250 0.000151 -0.070829
#
#
# Mechanical properties :
#
#
# Convention : Reuss Voigt Hill
#
# Bulk Modulus (GPa) = 28.63559 40.23592 34.43576
# Shear Modulus (GPa) = -94.09389 25.51067 -34.29161
#
# Velocity S-wave (km/s) = -6.56600 3.41886 -3.96382
# Velocity P-wave (km/s) = 6.66054 5.83269 2.27404
#
# Compressibility (1/GPa) = 0.03492157
#
# Stress axis : x y z
#
# Youngs Moduli (GPa) = 76.35780 58.81787 69.86042
#
# Poissons Ratio (x) = 0.31796 0.18822
# Poissons Ratio (y) = 0.41277 -0.23436
# Poissons Ratio (z) = 0.20573 -0.19732
#
# Static dielectric constant tensor:
#      x y z
#    x 1.819470 0.000000 -0.056070 
#    y 0.000000 1.761910 0.000010 
#    z -0.056070 0.000010 1.802260 
# 
# From -- ./inp_files/33538.got.cif
#   From: 2010.05.17/outbox.cif.g08.bks.cpg/sg15_17_cif.got.tgz:33538.got - 2010.06.03 18:47:42.
