data_PCOD9298900
_publ_section_title
;
Structure prediction by ZEFSAII (Michael W. Deem and Ramdas Pophale) SiO2 
 PCOD9298900
Probable space group: C 2/C
;
_chemical_formula_sum "Si O2"
_cell_formula_units_Z 44
_cell_length_a 11.382885
_cell_length_b 23.527668
_cell_length_c 11.180528
_cell_angle_alpha 90.000000
_cell_angle_beta 140.758090
_cell_angle_gamma 90.000000
_cell_volume 1894.174444
_symmetry_space_group_name_H-M "C 2/C"
_symmetry_group_IT_number 15
_symmetry_cell_setting 'monoclinic'
loop_
_space_group_symop_operation_xyz
x,y,z
-x,y,1/2-z
-x,-y,-z
x,-y,1/2+z
1/2+x,1/2+y,z
1/2-x,1/2+y,1/2-z
1/2-x,1/2-y,-z
1/2+x,1/2-y,1/2+z
loop_
_atom_site_type_symbol
_atom_site_label
_atom_site_fract_x
_atom_site_fract_y
_atom_site_fract_z
Si Si1 0.289215 0.333562 0.822654
Si Si2 0.796929 0.085514 0.131044
Si Si3 0.803932 0.782333 0.329059
Si Si4 0.500000 0.158409 0.750000
Si Si5 0.779438 0.855501 0.082876
Si Si6 0.898412 0.475585 0.539645
O O1 0.277676 0.394897 0.752973
O O2 0.181179 0.285419 0.664215
O O3 0.501571 0.311780 0.986459
O O4 0.223740 0.336829 0.906517
O O5 0.000000 0.105162 0.250000
O O6 0.631663 0.117571 0.932146
O O7 0.773145 0.019284 0.087309
O O8 0.642904 0.802741 0.289606
O O9 0.756640 0.805252 0.159410
O O10 0.000000 0.869101 0.250000
O O11 0.668397 0.911380 0.033744
O O12 0.000000 0.478165 0.750000
O O13 0.000000 0.500000 0.500000
#
# Coordination Sequence:
#
# PCOD9298900 Si02
#       6
#     8   8   8   4   8   8
#     4  11  24  44  69 103 141 190 239 294 362 424
#     4  12  25  44  70 104 141 188 234 294 358 426
#     4  11  24  42  71 103 145 188 239 299 356 429
#     4  12  24  44  68 104 146 180 242 292 356 428
#     4  10  24  46  69 102 141 191 240 295 359 430
#     4  12  26  45  73 106 144 188 242 301 364 430
#
# _framework density 23.229116999999999
#
# number of rings (size 3 to 8) (size 9 to 14) (size 15 to 20)
#    0.000    0.727    2.727    4.364    1.273    2.909 
#    0.000    4.545    0.000    0.000    0.000    0.000 
#    0.000    0.000    0.000    0.000    0.000    0.000 
#
# Total GULP energy -123204.894277 kJ/mol
# GULP energy per Si atom -5600.222467 kJ/mol
# Density = 2.317625 g / cm^3
# Si number density = 23.229117 Si / 1000 Ang^3
#
#
#
# Elastic Constant Matrix: (Units=GPa)
#
#
# Indices 1 2 3 4 5 6 
#
# 1 103.5423 -6.4264 24.3454 0.0000 13.0434 0.0000
# 2 -6.4264 74.7868 -6.3017 0.0000 7.7948 0.0000
# 3 24.3454 -6.3017 80.0328 0.0000 14.7788 0.0000
# 4 0.0000 0.0000 0.0000 22.8939 0.0000 -19.4933
# 5 13.0434 7.7948 14.7788 0.0000 38.2008 0.0000
# 6 0.0000 0.0000 0.0000 -19.4933 0.0000 2.1057
#
#
#
# Elastic Compliance Matrix: (Units=1/GPa)
#
#
# Indices 1 2 3 4 5 6 
#
# 1 0.010700 0.000991 -0.002655 0.000000 -0.002829 0.000000
# 2 0.000991 0.013975 0.001495 0.000000 -0.003768 0.000000
# 3 -0.002655 0.001495 0.014333 0.000000 -0.004944 0.000000
# 4 0.000000 0.000000 0.000000 -0.006347 0.000000 -0.058754
# 5 -0.002829 -0.003768 -0.004944 0.000000 0.029825 0.000000
# 6 0.000000 0.000000 0.000000 -0.058754 0.000000 -0.069003
#
#
# Mechanical properties :
#
#
# Convention : Reuss Voigt Hill
#
# Bulk Modulus (GPa) = 25.85993 31.28851 28.57422
# Shear Modulus (GPa) = 745.05333 29.08972 387.07153
#
# Velocity S-wave (km/s) = 17.92868 3.54262 12.92261
# Velocity P-wave (km/s) = 20.96998 5.49839 15.32926
#
# Compressibility (1/GPa) = 0.03866987
#
# Stress axis : x y z
#
# Youngs Moduli (GPa) = 93.45944 71.55549 69.76929
#
# Poissons Ratio (x) = -0.07088 0.18520
# Poissons Ratio (y) = -0.09258 -0.10430
# Poissons Ratio (z) = 0.24809 -0.10697
#
# Static dielectric constant tensor:
#      x y z
#    x 1.866800 0.000000 0.009430 
#    y 0.000000 1.810730 0.000000 
#    z 0.009430 0.000000 1.892610 
# 
# From -- ./inp_files/91354.got.cif
#   From: 2010.05.17/outbox.cif.g08.bks.cpg/sg15_46_cif.got.tgz:91354.got - 2010.06.03 18:47:42.
