data_PCOD9298947
_publ_section_title
;
Structure prediction by ZEFSAII (Michael W. Deem and Ramdas Pophale) SiO2 
 PCOD9298947
Probable space group: C 2/C
;
_chemical_formula_sum "Si O2"
_cell_formula_units_Z 44
_cell_length_a 8.518834
_cell_length_b 28.530777
_cell_length_c 8.984558
_cell_angle_alpha 90.000000
_cell_angle_beta 100.625629
_cell_angle_gamma 90.000000
_cell_volume 2146.243657
_symmetry_space_group_name_H-M "C 2/C"
_symmetry_group_IT_number 15
_symmetry_cell_setting 'monoclinic'
loop_
_space_group_symop_operation_xyz
x,y,z
-x,y,1/2-z
-x,-y,-z
x,-y,1/2+z
1/2+x,1/2+y,z
1/2-x,1/2+y,1/2-z
1/2-x,1/2-y,-z
1/2+x,1/2-y,1/2+z
loop_
_atom_site_type_symbol
_atom_site_label
_atom_site_fract_x
_atom_site_fract_y
_atom_site_fract_z
Si Si1 0.526516 0.550135 0.576831
Si Si2 0.995241 0.210397 0.077952
Si Si3 0.500000 0.843173 0.750000
Si Si4 0.371324 0.805724 0.015320
Si Si5 0.215967 0.868798 0.493555
Si Si6 0.662958 0.101969 0.809072
O O1 0.500000 0.546334 0.750000
O O2 0.500000 0.500000 0.500000
O O3 0.404888 0.588906 0.491852
O O4 0.703424 0.570972 0.588817
O O5 0.003510 0.266990 0.081898
O O6 0.000000 0.193717 0.250000
O O7 0.121314 0.179961 0.007455
O O8 0.814573 0.205065 0.984428
O O9 0.604867 0.812192 0.656247
O O10 0.372579 0.870073 0.624813
O O11 0.392678 0.855080 0.098585
O O12 0.261708 0.876926 0.329282
O O13 0.500000 0.074016 0.750000
#
# Coordination Sequence:
#
# PCOD9298947 Si02
#       6
#     8   8   4   8   8   8
#     4  10  24  46  70  99 126 169 214 269 339 401
#     4  11  23  39  61  92 129 178 227 264 322 379
#     4  12  24  40  60  98 128 174 224 264 322 378
#     4  11  24  39  62  93 130 176 221 267 322 381
#     4  11  24  43  67  93 135 175 220 272 334 383
#     4  11  22  44  69  95 135 176 215 274 333 390
#
# _framework density 20.500934000000001
#
# number of rings (size 3 to 8) (size 9 to 14) (size 15 to 20)
#    0.000    1.091    5.455    0.545    0.000    5.818 
#    1.636    1.818    0.000    0.000    0.000    0.000 
#    0.000    0.000    0.000    0.000    0.000    0.000 
#
# Total GULP energy -122761.036562 kJ/mol
# GULP energy per Si atom -5580.047116 kJ/mol
# Density = 2.045427 g / cm^3
# Si number density = 20.500934 Si / 1000 Ang^3
#
#
#
# Elastic Constant Matrix: (Units=GPa)
#
#
# Indices 1 2 3 4 5 6 
#
# 1 130.3423 61.6138 21.5524 0.0000 14.6190 0.0000
# 2 61.6138 119.1619 29.3895 0.0000 12.2894 0.0000
# 3 21.5524 29.3895 66.0336 0.0000 -2.1429 0.0000
# 4 0.0000 0.0000 0.0000 34.6546 0.0000 8.2283
# 5 14.6190 12.2894 -2.1429 0.0000 34.3557 0.0000
# 6 0.0000 0.0000 0.0000 8.2283 0.0000 2.1589
#
#
#
# Elastic Compliance Matrix: (Units=1/GPa)
#
#
# Indices 1 2 3 4 5 6 
#
# 1 0.010481 -0.004786 -0.001383 0.000000 -0.002834 0.000000
# 2 -0.004786 0.012090 -0.003901 0.000000 -0.002531 0.000000
# 3 -0.001383 -0.003901 0.017431 0.000000 0.003071 0.000000
# 4 0.000000 0.000000 0.000000 0.303623 0.000000 -1.157219
# 5 -0.002834 -0.002531 0.003071 0.000000 0.031410 0.000000
# 6 0.000000 0.000000 0.000000 -1.157219 0.000000 4.873800
#
#
# Mechanical properties :
#
#
# Convention : Reuss Voigt Hill
#
# Bulk Modulus (GPa) = 50.34598 60.07210 55.20904
# Shear Modulus (GPa) = 0.94776 27.76598 14.35687
#
# Velocity S-wave (km/s) = 0.68066 3.68418 2.64920
# Velocity P-wave (km/s) = 5.02284 6.88936 6.02877
#
# Compressibility (1/GPa) = 0.01986256
#
# Stress axis : x y z
#
# Youngs Moduli (GPa) = 95.41097 82.71488 57.36937
#
# Poissons Ratio (x) = 0.39587 0.07933
# Poissons Ratio (y) = 0.45663 0.22379
# Poissons Ratio (z) = 0.13193 0.32266
#
# Static dielectric constant tensor:
#      x y z
#    x 1.819810 0.000000 0.049290 
#    y 0.000000 1.762360 0.000000 
#    z 0.049290 0.000000 1.765570 
# 
# From -- ./inp_files/25538.got.cif
#   From: 2010.05.17/outbox.cif.g08.bks.cpg/sg15_13_cif.got.tgz:25538.got - 2010.06.03 18:47:42.
