data_PCOD9298534
_publ_section_title
;
Structure prediction by ZEFSAII (Michael W. Deem and Ramdas Pophale) SiO2 
 PCOD9298534
Probable space group: C 2/C
;
_chemical_formula_sum "Si O2"
_cell_formula_units_Z 56
_cell_length_a 19.656170
_cell_length_b 5.868084
_cell_length_c 24.348992
_cell_angle_alpha 90.000000
_cell_angle_beta 68.237490
_cell_angle_gamma 90.000000
_cell_volume 2608.345030
_symmetry_space_group_name_H-M "C 2/C"
_symmetry_group_IT_number 15
_symmetry_cell_setting 'monoclinic'
loop_
_space_group_symop_operation_xyz
x,y,z
-x,y,1/2-z
-x,-y,-z
x,-y,1/2+z
1/2+x,1/2+y,z
1/2-x,1/2+y,1/2-z
1/2-x,1/2-y,-z
1/2+x,1/2-y,1/2+z
loop_
_atom_site_type_symbol
_atom_site_label
_atom_site_fract_x
_atom_site_fract_y
_atom_site_fract_z
Si Si1 0.779537 0.886362 0.938716
Si Si2 0.968075 0.137381 0.562225
Si Si3 0.832055 0.461894 0.340470
Si Si4 0.622032 0.993269 0.470266
Si Si5 0.792614 0.389761 0.234808
Si Si6 0.607165 0.224252 0.084160
Si Si7 0.834763 0.859017 0.618401
O O1 0.830285 0.757063 0.880190
O O2 0.702850 0.922302 0.930907
O O3 0.822725 0.110616 0.944390
O O4 0.750000 0.750000 0.000000
O O5 0.939353 0.370883 0.543341
O O6 0.032510 0.159161 0.587349
O O7 0.895459 0.044880 0.614625
O O8 0.000000 0.000000 0.500000
O O9 0.843486 0.411418 0.273288
O O10 0.884968 0.635962 0.356129
O O11 0.747797 0.557191 0.366896
O O12 0.612876 0.983077 0.538386
O O13 0.630017 0.735944 0.447780
O O14 0.752214 0.642318 0.243195
O O15 0.832018 0.333455 0.165992
#
# Coordination Sequence:
#
# PCOD9298534 Si02
#       7
#     8   8   8   8   8   8   8
#     4  12  21  35  63  96 133 171 227 286 348 404
#     4  12  26  41  61 101 142 187 227 278 356 434
#     4  11  23  41  67 101 133 176 233 300 350 411
#     4  12  22  39  63  94 133 181 228 276 349 423
#     4  10  24  44  73 109 134 180 243 304 353 414
#     4  12  25  37  62 102 141 176 226 289 358 417
#     4  11  23  42  69  97 134 181 233 288 345 426
#
# _framework density 21.469552
#
# number of rings (size 3 to 8) (size 9 to 14) (size 15 to 20)
#    0.000    0.571    5.714    3.429    4.000    0.000 
#    0.000    0.000    0.000    5.143    0.000    0.000 
#    0.000    0.000    0.000    0.000    0.000    0.000 
#
# Total GULP energy -155976.386797 kJ/mol
# GULP energy per Si atom -5570.585243 kJ/mol
# Density = 2.142069 g / cm^3
# Si number density = 21.469552 Si / 1000 Ang^3
#
#
#
# Elastic Constant Matrix: (Units=GPa)
#
#
# Indices 1 2 3 4 5 6 
#
# 1 113.5009 22.7361 27.9962 -0.0017 20.5574 -0.0044
# 2 22.7361 45.6899 14.6905 -0.0094 10.1046 -0.0019
# 3 27.9962 14.6905 92.4984 -0.0019 39.1549 -0.0018
# 4 -0.0017 -0.0094 -0.0019 40.2846 0.0001 -0.0703
# 5 20.5574 10.1046 39.1549 0.0001 31.0179 -0.0028
# 6 -0.0044 -0.0019 -0.0018 -0.0703 -0.0028 29.9594
#
#
#
# Elastic Compliance Matrix: (Units=1/GPa)
#
#
# Indices 1 2 3 4 5 6 
#
# 1 0.010665 -0.004020 -0.000326 0.000000 -0.005347 0.000001
# 2 -0.004020 0.025149 -0.000939 0.000006 -0.004344 0.000001
# 3 -0.000326 -0.000939 0.023275 0.000001 -0.028858 -0.000001
# 4 0.000000 0.000006 0.000001 0.024824 -0.000003 0.000058
# 5 -0.005347 -0.004344 -0.028858 -0.000003 0.073627 0.000004
# 6 0.000001 0.000001 -0.000001 0.000058 0.000004 0.033379
#
#
# Mechanical properties :
#
#
# Convention : Reuss Voigt Hill
#
# Bulk Modulus (GPa) = 20.61019 42.50386 31.55702
# Shear Modulus (GPa) = 22.97159 32.67013 27.82086
#
# Velocity S-wave (km/s) = 3.27458 3.90512 3.60367
# Velocity P-wave (km/s) = 4.89057 6.33826 5.66089
#
# Compressibility (1/GPa) = 0.04851969
#
# Stress axis : x y z
#
# Youngs Moduli (GPa) = 93.76853 39.76240 42.96521
#
# Poissons Ratio (x) = 0.15983 0.01401
# Poissons Ratio (y) = 0.37690 0.04034
# Poissons Ratio (z) = 0.03057 0.03733
#
# Static dielectric constant tensor:
#      x y z
#    x 1.878650 0.000000 0.048660 
#    y 0.000000 2.079910 0.000000 
#    z 0.048660 0.000000 1.785780 
# 
# From -- ./inp_files/278642.got.cif
#   From: 2010.05.17/outbox.cif.g08.bks.cpg/sg15_140_cif.got.tgz:278642.got - 2010.06.03 18:47:42.
