data_PCOD9298970
_publ_section_title
;
Structure prediction by ZEFSAII (Michael W. Deem and Ramdas Pophale) SiO2 
 PCOD9298970
Probable space group: C 2/C
;
_chemical_formula_sum "Si O2"
_cell_formula_units_Z 48
_cell_length_a 5.545350
_cell_length_b 26.629636
_cell_length_c 14.270960
_cell_angle_alpha 90.000000
_cell_angle_beta 71.311979
_cell_angle_gamma 90.000000
_cell_volume 1996.294022
_symmetry_space_group_name_H-M "C 2/C"
_symmetry_group_IT_number 15
_symmetry_cell_setting 'monoclinic'
loop_
_space_group_symop_operation_xyz
x,y,z
-x,y,1/2-z
-x,-y,-z
x,-y,1/2+z
1/2+x,1/2+y,z
1/2-x,1/2+y,1/2-z
1/2-x,1/2-y,-z
1/2+x,1/2-y,1/2+z
loop_
_atom_site_type_symbol
_atom_site_label
_atom_site_fract_x
_atom_site_fract_y
_atom_site_fract_z
Si Si1 0.882416 0.446794 0.170357
Si Si2 0.744726 0.280658 0.325270
Si Si3 0.843251 0.951166 0.981514
Si Si4 0.500000 0.468589 0.750000
Si Si5 0.306990 0.336565 0.979169
Si Si6 0.150356 0.295154 0.579338
Si Si7 0.500000 0.370295 0.250000
O O1 0.741048 0.494921 0.231338
O O2 0.669432 0.407044 0.165218
O O3 0.000000 0.423435 0.250000
O O4 0.063922 0.460991 0.062492
O O5 0.768448 0.297345 0.429930
O O6 0.536284 0.238576 0.337408
O O7 0.672695 0.332217 0.284719
O O8 0.000000 0.261037 0.250000
O O9 0.925006 0.945287 0.860758
O O10 0.859073 0.892662 0.010770
O O11 0.000000 0.000000 0.000000
O O12 0.591985 0.319414 0.911621
O O13 0.054965 0.333556 0.944003
O O14 0.250000 0.250000 0.500000
#
# Coordination Sequence:
#
# PCOD9298970 Si02
#       7
#     8   8   8   4   8   8   4
#     4  11  23  45  70 105 145 190 254 318 381 434
#     4  11  24  40  72 106 144 186 246 310 375 437
#     4  12  26  47  78 106 148 202 251 315 384 460
#     4  11  26  46  70 104 146 194 250 302 383 464
#     4  11  26  47  72 104 147 198 249 303 376 449
#     4  10  24  46  71  99 147 193 246 300 374 450
#     4  11  24  36  70 114 144 180 254 322 367 440
#
# _framework density 24.044554999999999
#
# number of rings (size 3 to 8) (size 9 to 14) (size 15 to 20)
#    0.000    1.000    1.667    5.000   14.000    1.333 
#    1.500    0.000    0.000    0.000    0.000    0.000 
#    0.000    0.000    0.000    0.000    0.000    0.000 
#
# Total GULP energy -133624.636752 kJ/mol
# GULP energy per Si atom -5567.693198 kJ/mol
# Density = 2.398983 g / cm^3
# Si number density = 24.044555 Si / 1000 Ang^3
#
#
#
# Elastic Constant Matrix: (Units=GPa)
#
#
# Indices 1 2 3 4 5 6 
#
# 1 119.3633 39.8277 56.8689 0.0000 -36.0707 0.0000
# 2 39.8277 96.0546 24.8443 0.0000 -11.5247 0.0000
# 3 56.8689 24.8443 161.4638 0.0000 -34.9772 0.0000
# 4 0.0000 0.0000 0.0000 106.9787 0.0000 96.3407
# 5 -36.0707 -11.5247 -34.9772 0.0000 54.4111 0.0000
# 6 0.0000 0.0000 0.0000 96.3407 0.0000 164.5289
#
#
#
# Elastic Compliance Matrix: (Units=1/GPa)
#
#
# Indices 1 2 3 4 5 6 
#
# 1 0.012701 -0.003884 -0.002591 0.000000 0.005931 0.000000
# 2 -0.003884 0.012126 -0.000580 0.000000 -0.000379 0.000000
# 3 -0.002591 -0.000580 0.007896 0.000000 0.003235 0.000000
# 4 0.000000 0.000000 0.000000 0.019776 0.000000 -0.011580
# 5 0.005931 -0.000379 0.003235 0.000000 0.024310 0.000000
# 6 0.000000 0.000000 0.000000 -0.011580 0.000000 0.012859
#
#
# Mechanical properties :
#
#
# Convention : Reuss Voigt Hill
#
# Bulk Modulus (GPa) = 53.72745 68.88483 61.30614
# Shear Modulus (GPa) = 45.46220 82.20647 63.83434
#
# Velocity S-wave (km/s) = 4.35299 5.85350 5.15810
# Velocity P-wave (km/s) = 6.90349 8.62529 7.81197
#
# Compressibility (1/GPa) = 0.01861246
#
# Stress axis : x y z
#
# Youngs Moduli (GPa) = 78.73637 82.46874 126.64787
#
# Poissons Ratio (x) = 0.32034 0.32810
# Poissons Ratio (y) = 0.30584 0.07344
# Poissons Ratio (z) = 0.20398 0.04782
#
# Static dielectric constant tensor:
#      x y z
#    x 1.999660 0.000000 0.126490 
#    y 0.000000 1.926620 0.000000 
#    z 0.126490 0.000000 1.962380 
# 
# From -- ./inp_files/130623.got.cif
#   From: 2010.05.17/outbox.cif.g08.bks.cpg/sg15_66_cif.got.tgz:130623.got - 2010.06.03 18:47:42.
