data_PCOD9298017
_publ_section_title
;
Structure prediction by ZEFSAII (Michael W. Deem and Ramdas Pophale) SiO2 
 PCOD9298017
Probable space group: C 2/C
;
_chemical_formula_sum "Si O2"
_cell_formula_units_Z 48
_cell_length_a 9.989153
_cell_length_b 13.539545
_cell_length_c 19.333330
_cell_angle_alpha 90.000000
_cell_angle_beta 135.003114
_cell_angle_gamma 90.000000
_cell_volume 1848.846248
_symmetry_space_group_name_H-M "C 2/C"
_symmetry_group_IT_number 15
_symmetry_cell_setting 'monoclinic'
loop_
_space_group_symop_operation_xyz
x,y,z
-x,y,1/2-z
-x,-y,-z
x,-y,1/2+z
1/2+x,1/2+y,z
1/2-x,1/2+y,1/2-z
1/2-x,1/2-y,-z
1/2+x,1/2-y,1/2+z
loop_
_atom_site_type_symbol
_atom_site_label
_atom_site_fract_x
_atom_site_fract_y
_atom_site_fract_z
Si Si1 0.074882 0.404534 0.985152
Si Si2 0.136352 0.786224 0.051751
Si Si3 0.780931 0.328474 0.254279
Si Si4 0.987243 0.959003 0.158876
Si Si5 0.893537 0.532859 0.279170
Si Si6 0.519731 0.350717 0.869193
O O1 0.016576 0.302492 0.000375
O O2 0.972389 0.411307 0.873923
O O3 0.302844 0.409489 0.059741
O O4 0.000000 0.500000 0.000000
O O5 0.171250 0.829504 0.140655
O O6 0.330570 0.735267 0.100697
O O7 0.077067 0.862971 0.971150
O O8 0.627211 0.382931 0.246849
O O9 0.937158 0.415093 0.306445
O O10 0.834917 0.219037 0.292737
O O11 0.161580 0.028723 0.187260
O O12 0.902427 0.062085 0.153619
O O13 0.000000 0.566478 0.250000
#
# Coordination Sequence:
#
# PCOD9298017 Si02
#       6
#     8   8   8   8   8   8
#     4  12  24  45  71 111 146 189 248 313 371 436
#     4  11  24  40  74 100 145 186 245 296 367 441
#     4  10  24  43  65 104 138 186 251 290 355 440
#     4  10  26  43  74 102 146 194 244 306 369 437
#     4  10  24  43  69 100 143 194 244 302 362 449
#     4  11  22  44  68 105 140 195 236 301 363 444
#
# _framework density 25.962136000000001
#
# number of rings (size 3 to 8) (size 9 to 14) (size 15 to 20)
#    1.000    0.333    1.667    3.500    4.667    4.000 
#    0.000    1.667    0.000    0.000    0.000    0.000 
#    0.000    0.000    0.000    0.000    0.000    0.000 
#
# Total GULP energy -133672.834145 kJ/mol
# GULP energy per Si atom -5569.701423 kJ/mol
# Density = 2.590304 g / cm^3
# Si number density = 25.962136 Si / 1000 Ang^3
#
#
#
# Elastic Constant Matrix: (Units=GPa)
#
#
# Indices 1 2 3 4 5 6 
#
# 1 65.9711 -49.2380 10.8569 0.0000 -2.3747 0.0000
# 2 -49.2380 90.1625 -0.0589 0.0000 3.8817 0.0000
# 3 10.8569 -0.0589 79.8347 0.0000 6.2373 0.0000
# 4 0.0000 0.0000 0.0000 350.1314 0.0000 -48.6263
# 5 -2.3747 3.8817 6.2373 0.0000 46.4562 0.0000
# 6 0.0000 0.0000 0.0000 -48.6263 0.0000 14.2768
#
#
#
# Elastic Compliance Matrix: (Units=1/GPa)
#
#
# Indices 1 2 3 4 5 6 
#
# 1 0.026604 0.014499 -0.003657 0.000000 0.000640 0.000000
# 2 0.014499 0.019033 -0.001911 0.000000 -0.000593 0.000000
# 3 -0.003657 -0.001911 0.013162 0.000000 -0.001794 0.000000
# 4 0.000000 0.000000 0.000000 0.005420 0.000000 0.018459
# 5 0.000640 -0.000593 -0.001794 0.000000 0.021849 0.000000
# 6 0.000000 0.000000 0.000000 0.018459 0.000000 0.132917
#
#
# Mechanical properties :
#
#
# Convention : Reuss Voigt Hill
#
# Bulk Modulus (GPa) = 13.04466 17.67648 15.36057
# Shear Modulus (GPa) = 22.05777 100.46675 61.26226
#
# Velocity S-wave (km/s) = 2.91797 6.22747 4.86292
# Velocity P-wave (km/s) = 4.04823 7.65061 6.12046
#
# Compressibility (1/GPa) = 0.07665973
#
# Stress axis : x y z
#
# Youngs Moduli (GPa) = 37.58793 52.53988 75.97617
#
# Poissons Ratio (x) = -0.76176 0.27786
# Poissons Ratio (y) = -0.54498 0.14522
# Poissons Ratio (z) = 0.13747 0.10042
#
# Static dielectric constant tensor:
#      x y z
#    x 1.547570 0.000000 1.195060 
#    y 0.000000 2.379810 0.000000 
#    z 1.195060 0.000000 0.700950 
# 
# From -- ./inp_files/239014.got.cif
#   From: 2010.05.17/outbox.cif.g08.bks.cpg/sg15_120_cif.got.tgz:239014.got - 2010.06.03 18:47:42.
