data_PCOD9298118
_publ_section_title
;
Structure prediction by ZEFSAII (Michael W. Deem and Ramdas Pophale) SiO2 
 PCOD9298118
Probable space group: C 2/C
;
_chemical_formula_sum "Si O2"
_cell_formula_units_Z 32
_cell_length_a 26.402988
_cell_length_b 5.473651
_cell_length_c 9.365264
_cell_angle_alpha 90.000000
_cell_angle_beta 122.268665
_cell_angle_gamma 90.000000
_cell_volume 1144.436038
_symmetry_space_group_name_H-M "C 2/C"
_symmetry_group_IT_number 15
_symmetry_cell_setting 'monoclinic'
loop_
_space_group_symop_operation_xyz
x,y,z
-x,y,1/2-z
-x,-y,-z
x,-y,1/2+z
1/2+x,1/2+y,z
1/2-x,1/2+y,1/2-z
1/2-x,1/2-y,-z
1/2+x,1/2-y,1/2+z
loop_
_atom_site_type_symbol
_atom_site_label
_atom_site_fract_x
_atom_site_fract_y
_atom_site_fract_z
Si Si1 0.190271 0.523883 0.334412
Si Si2 0.433508 0.915876 0.358061
Si Si3 0.432470 0.418043 0.205375
Si Si4 0.315314 0.332876 0.406643
O O1 0.130672 0.428229 0.160646
O O2 0.253906 0.460206 0.360254
O O3 0.186394 0.801649 0.269346
O O4 0.186977 0.398904 0.484396
O O5 0.420129 0.137835 0.226850
O O6 0.500000 0.000000 0.500000
O O7 0.438985 0.632431 0.331746
O O8 0.500000 0.412919 0.250000
O O9 0.377171 0.529156 0.033453
#
# Coordination Sequence:
#
# PCOD9298118 Si02
#       4
#     8   8   8   8
#     4  10  24  44  69 104 143 190 241 299 362 429
#     4  11  24  43  69 103 142 186 239 294 356 428
#     4  11  24  43  70 103 143 187 236 296 360 426
#     4  10  24  43  69 104 146 191 242 300 361 430
#
# _framework density 27.961371
#
# number of rings (size 3 to 8) (size 9 to 14) (size 15 to 20)
#    0.000    1.500    0.000    3.000    0.000   16.000 
#    0.000    0.000    0.000    0.000    0.000    0.000 
#    0.000    0.000    0.000    0.000    0.000    0.000 
#
# Total GULP energy -89110.280422 kJ/mol
# GULP energy per Si atom -5569.392526 kJ/mol
# Density = 2.789773 g / cm^3
# Si number density = 27.961371 Si / 1000 Ang^3
#
#
#
# Elastic Constant Matrix: (Units=GPa)
#
#
# Indices 1 2 3 4 5 6 
#
# 1 146.0441 21.0128 67.7624 0.0000 36.2582 0.0000
# 2 21.0128 69.1283 52.0734 0.0000 0.9247 0.0000
# 3 67.7624 52.0734 146.6154 0.0000 35.9336 0.0000
# 4 0.0000 0.0000 0.0000 64.6245 0.0000 9.6165
# 5 36.2582 0.9247 35.9336 0.0000 65.6544 0.0000
# 6 0.0000 0.0000 0.0000 9.6165 0.0000 42.2668
#
#
#
# Elastic Compliance Matrix: (Units=1/GPa)
#
#
# Indices 1 2 3 4 5 6 
#
# 1 0.009267 -0.000200 -0.003417 0.000000 -0.003245 0.000000
# 2 -0.000200 0.020765 -0.008359 0.000000 0.004393 0.000000
# 3 -0.003417 -0.008359 0.012563 0.000000 -0.004871 0.000000
# 4 0.000000 0.000000 0.000000 0.016016 0.000000 -0.003644
# 5 -0.003245 0.004393 -0.004871 0.000000 0.019627 0.000000
# 6 0.000000 0.000000 0.000000 -0.003644 0.000000 0.024488
#
#
# Mechanical properties :
#
#
# Convention : Reuss Voigt Hill
#
# Bulk Modulus (GPa) = 53.64065 71.49831 62.56948
# Shear Modulus (GPa) = 37.62449 49.23843 43.43146
#
# Velocity S-wave (km/s) = 3.67221 4.20091 3.94543
# Velocity P-wave (km/s) = 6.09964 7.01114 6.57122
#
# Compressibility (1/GPa) = 0.01864258
#
# Stress axis : x y z
#
# Youngs Moduli (GPa) = 107.91080 48.15835 79.60153
#
# Poissons Ratio (x) = 0.00961 0.27198
# Poissons Ratio (y) = 0.02154 0.66543
# Poissons Ratio (z) = 0.36871 0.40258
#
# Static dielectric constant tensor:
#      x y z
#    x 2.273750 0.000000 -0.071470 
#    y 0.000000 2.414680 0.000000 
#    z -0.071470 0.000000 2.320800 
# 
# From -- ./inp_files/124879.got.cif
#   From: 2010.05.17/outbox.cif.g08.bks.cpg/sg15_63_cif.got.tgz:124879.got - 2010.06.03 18:47:42.
