data_PCOD9298820
_publ_section_title
;
Structure prediction by ZEFSAII (Michael W. Deem and Ramdas Pophale) SiO2 
 PCOD9298820
Probable space group: C 2/C
;
_chemical_formula_sum "Si O2"
_cell_formula_units_Z 28
_cell_length_a 7.424170
_cell_length_b 26.524559
_cell_length_c 5.603813
_cell_angle_alpha 90.000000
_cell_angle_beta 72.842914
_cell_angle_gamma 90.000000
_cell_volume 1054.411693
_symmetry_space_group_name_H-M "C 2/C"
_symmetry_group_IT_number 15
_symmetry_cell_setting 'monoclinic'
loop_
_space_group_symop_operation_xyz
x,y,z
-x,y,1/2-z
-x,-y,-z
x,-y,1/2+z
1/2+x,1/2+y,z
1/2-x,1/2+y,1/2-z
1/2-x,1/2-y,-z
1/2+x,1/2-y,1/2+z
loop_
_atom_site_type_symbol
_atom_site_label
_atom_site_fract_x
_atom_site_fract_y
_atom_site_fract_z
Si Si1 0.194929 0.624670 0.034457
Si Si2 0.271831 0.474473 0.302977
Si Si3 0.500000 0.628693 0.250000
Si Si4 0.723104 0.198182 0.656635
O O1 0.357696 0.600696 0.135799
O O2 0.000000 0.629782 0.250000
O O3 0.192078 0.582808 0.831922
O O4 0.264659 0.680067 0.914293
O O5 0.500000 0.475086 0.250000
O O6 0.209623 0.501548 0.574318
O O7 0.357310 0.662172 0.456466
O O8 0.500000 0.187954 0.750000
O O9 0.750000 0.250000 0.500000
#
# Coordination Sequence:
#
# PCOD9298820 Si02
#       4
#     8   8   4   8
#     4  12  28  49  80 114 159 211 268 330 407 484
#     4  10  24  45  79 116 160 211 270 333 406 483
#     4  12  26  50  78 108 160 204 262 332 394 474
#     4  12  26  50  78 114 153 208 266 326 406 477
#
# _framework density 26.555091999999998
#
# number of rings (size 3 to 8) (size 9 to 14) (size 15 to 20)
#    0.000    0.571    4.286    2.571   10.000    2.286 
#    5.143    0.000    0.000    0.000    0.000    0.000 
#    0.000    0.000    0.000    0.000    0.000    0.000 
#
# Total GULP energy -78206.607205 kJ/mol
# GULP energy per Si atom -5586.186229 kJ/mol
# Density = 2.649465 g / cm^3
# Si number density = 26.555092 Si / 1000 Ang^3
#
#
#
# Elastic Constant Matrix: (Units=GPa)
#
#
# Indices 1 2 3 4 5 6 
#
# 1 123.6518 13.7353 57.6969 0.0000 -8.7568 0.0000
# 2 13.7353 133.4667 88.4735 0.0000 -4.3113 0.0000
# 3 57.6969 88.4735 195.4986 0.0000 -20.2709 0.0000
# 4 0.0000 0.0000 0.0000 44.9541 0.0000 0.6203
# 5 -8.7568 -4.3113 -20.2709 0.0000 55.6381 0.0000
# 6 0.0000 0.0000 0.0000 0.6203 0.0000 16.2570
#
#
#
# Elastic Compliance Matrix: (Units=1/GPa)
#
#
# Indices 1 2 3 4 5 6 
#
# 1 0.009533 0.001243 -0.003336 0.000000 0.000381 0.000000
# 2 0.001243 0.010916 -0.005403 0.000000 -0.000927 0.000000
# 3 -0.003336 -0.005403 0.008779 0.000000 0.002255 0.000000
# 4 0.000000 0.000000 0.000000 0.022257 0.000000 -0.000849
# 5 0.000381 -0.000927 0.002255 0.000000 0.018783 0.000000
# 6 0.000000 0.000000 0.000000 -0.000849 0.000000 0.061545
#
#
# Mechanical properties :
#
#
# Convention : Reuss Voigt Hill
#
# Bulk Modulus (GPa) = 70.25050 85.82538 78.03794
# Shear Modulus (GPa) = 32.99235 42.88394 37.93814
#
# Velocity S-wave (km/s) = 3.52861 4.02295 3.78386
# Velocity P-wave (km/s) = 6.56609 7.34634 6.96714
#
# Compressibility (1/GPa) = 0.01423477
#
# Stress axis : x y z
#
# Youngs Moduli (GPa) = 104.89948 91.60583 113.91107
#
# Poissons Ratio (x) = -0.11386 0.38005
# Poissons Ratio (y) = -0.13038 0.61548
# Poissons Ratio (z) = 0.34999 0.49496
#
# Static dielectric constant tensor:
#      x y z
#    x 2.126040 0.000000 0.151160 
#    y 0.000000 2.054750 0.000000 
#    z 0.151160 0.000000 2.177320 
# 
# From -- ./inp_files/2525.got.cif
#   From: 2010.05.17/outbox.cif.g08.bks.cpg/sg15_2_cif.got.tgz:2525.got - 2010.06.03 18:47:42.
