data_PCOD9298529
_publ_section_title
;
Structure prediction by ZEFSAII (Michael W. Deem and Ramdas Pophale) SiO2 
 PCOD9298529
Probable space group: C 2/C
;
_chemical_formula_sum "Si O2"
_cell_formula_units_Z 28
_cell_length_a 11.088615
_cell_length_b 12.241672
_cell_length_c 8.361124
_cell_angle_alpha 90.000000
_cell_angle_beta 118.195859
_cell_angle_gamma 90.000000
_cell_volume 1000.287883
_symmetry_space_group_name_H-M "C 2/C"
_symmetry_group_IT_number 15
_symmetry_cell_setting 'monoclinic'
loop_
_space_group_symop_operation_xyz
x,y,z
-x,y,1/2-z
-x,-y,-z
x,-y,1/2+z
1/2+x,1/2+y,z
1/2-x,1/2+y,1/2-z
1/2-x,1/2-y,-z
1/2+x,1/2-y,1/2+z
loop_
_atom_site_type_symbol
_atom_site_label
_atom_site_fract_x
_atom_site_fract_y
_atom_site_fract_z
Si Si1 0.847931 0.276909 0.208103
Si Si2 0.134626 0.338724 0.723736
Si Si3 0.299350 0.958643 0.418509
Si Si4 0.500000 0.372679 0.250000
O O1 0.794557 0.197565 0.315092
O O2 0.822257 0.395444 0.266003
O O3 0.000000 0.258416 0.250000
O O4 0.750000 0.250000 0.000000
O O5 0.130935 0.425758 0.577797
O O6 0.057974 0.221798 0.663433
O O7 0.123769 0.394375 0.891602
O O8 0.135730 0.948956 0.354245
#
# Coordination Sequence:
#
# PCOD9298529 Si02
#       4
#     8   8   8   4
#     4  11  26  45  74 110 147 193 250 310 379 444
#     4  11  26  46  73 104 145 196 245 310 370 451
#     4  11  26  46  73 104 145 196 245 310 370 451
#     4  10  24  44  72  98 146 180 252 290 380 422
#
# _framework density 27.99194
#
# number of rings (size 3 to 8) (size 9 to 14) (size 15 to 20)
#    0.000    1.143    0.000    5.143   20.000    2.286 
#    0.000    0.000    0.000    0.000    0.000    0.000 
#    0.000    0.000    0.000    0.000    0.000    0.000 
#
# Total GULP energy -78275.832054 kJ/mol
# GULP energy per Si atom -5591.130861 kJ/mol
# Density = 2.792823 g / cm^3
# Si number density = 27.991940 Si / 1000 Ang^3
#
#
#
# Elastic Constant Matrix: (Units=GPa)
#
#
# Indices 1 2 3 4 5 6 
#
# 1 171.3725 18.5366 56.1726 0.0000 13.8452 0.0000
# 2 18.5366 84.8008 15.2660 0.0000 -9.5876 0.0000
# 3 56.1726 15.2660 128.7065 0.0000 20.3774 0.0000
# 4 0.0000 0.0000 0.0000 39.3285 0.0000 -12.9791
# 5 13.8452 -9.5876 20.3774 0.0000 57.9091 0.0000
# 6 0.0000 0.0000 0.0000 -12.9791 0.0000 66.1770
#
#
#
# Elastic Compliance Matrix: (Units=1/GPa)
#
#
# Indices 1 2 3 4 5 6 
#
# 1 0.006929 -0.001118 -0.002753 0.000000 -0.000873 0.000000
# 2 -0.001118 0.012625 -0.001465 0.000000 0.002873 0.000000
# 3 -0.002753 -0.001465 0.009615 0.000000 -0.002967 0.000000
# 4 0.000000 0.000000 0.000000 0.027187 0.000000 0.005332
# 5 -0.000873 0.002873 -0.002967 0.000000 0.018997 0.000000
# 6 0.000000 0.000000 0.000000 0.005332 0.000000 0.016157
#
#
# Mechanical properties :
#
#
# Convention : Reuss Voigt Hill
#
# Bulk Modulus (GPa) = 54.06010 62.75893 58.40951
# Shear Modulus (GPa) = 46.14824 52.34321 49.24573
#
# Velocity S-wave (km/s) = 4.06473 4.32897 4.19893
# Velocity P-wave (km/s) = 6.43304 6.88881 6.66482
#
# Compressibility (1/GPa) = 0.01849793
#
# Stress axis : x y z
#
# Youngs Moduli (GPa) = 144.31769 79.20735 104.00587
#
# Poissons Ratio (x) = 0.08853 0.28637
# Poissons Ratio (y) = 0.16130 0.15232
# Poissons Ratio (z) = 0.39736 0.11600
#
# Static dielectric constant tensor:
#      x y z
#    x 2.445570 0.000000 0.016730 
#    y 0.000000 2.272570 0.000000 
#    z 0.016730 0.000000 2.140210 
# 
# From -- ./inp_files/27740.got.cif
#   From: 2010.05.17/outbox.cif.g08.bks.cpg/sg15_14_cif.got.tgz:27740.got - 2010.06.03 18:47:42.
