data_PCOD9298522
_publ_section_title
;
Structure prediction by ZEFSAII (Michael W. Deem and Ramdas Pophale) SiO2 
 PCOD9298522
Probable space group: C 2/C
;
_chemical_formula_sum "Si O2"
_cell_formula_units_Z 52
_cell_length_a 6.484883
_cell_length_b 19.135343
_cell_length_c 25.060160
_cell_angle_alpha 90.000000
_cell_angle_beta 126.439034
_cell_angle_gamma 90.000000
_cell_volume 2501.742029
_symmetry_space_group_name_H-M "C 2/C"
_symmetry_group_IT_number 15
_symmetry_cell_setting 'monoclinic'
loop_
_space_group_symop_operation_xyz
x,y,z
-x,y,1/2-z
-x,-y,-z
x,-y,1/2+z
1/2+x,1/2+y,z
1/2-x,1/2+y,1/2-z
1/2-x,1/2-y,-z
1/2+x,1/2-y,1/2+z
loop_
_atom_site_type_symbol
_atom_site_label
_atom_site_fract_x
_atom_site_fract_y
_atom_site_fract_z
Si Si1 0.870608 0.275628 0.174054
Si Si2 0.542374 0.385903 0.841510
Si Si3 0.950536 0.366340 0.083741
Si Si4 0.056837 0.885999 0.554690
Si Si5 0.472973 0.986067 0.864641
Si Si6 0.000000 0.540896 0.250000
Si Si7 0.222896 0.761905 0.432562
O O1 0.925524 0.194446 0.169248
O O2 0.973083 0.322694 0.141558
O O3 0.563411 0.282885 0.127423
O O4 0.000000 0.293484 0.250000
O O5 0.589171 0.396676 0.911829
O O6 0.740674 0.433252 0.839584
O O7 0.252733 0.411351 0.788329
O O8 0.067384 0.442722 0.109763
O O9 0.081497 0.320346 0.058001
O O10 0.652587 0.377712 0.023398
O O11 0.265422 0.946425 0.578285
O O12 0.206283 0.812563 0.582559
O O13 0.499117 0.000839 0.805361
O O14 0.250000 0.750000 0.500000
#
# Coordination Sequence:
#
# PCOD9298522 Si02
#       7
#     8   8   8   8   8   4   8
#     4  12  26  43  72 104 140 182 236 288 348 419
#     4  11  23  44  72 100 133 186 235 284 340 420
#     4  12  27  44  69 107 141 178 230 293 353 409
#     4  11  23  44  73 101 134 183 236 282 343 423
#     4  11  25  44  69 102 140 181 228 289 349 413
#     4  10  24  44  72  94 140 184 238 272 354 418
#     4  12  24  46  74  99 141 186 231 286 350 410
#
# _framework density 20.785516000000001
#
# number of rings (size 3 to 8) (size 9 to 14) (size 15 to 20)
#    0.000    0.615    4.615    3.231    3.231    3.692 
#    2.769    0.000    0.000    0.000    0.000    0.000 
#    0.000    0.000    0.000    0.000    0.000    0.000 
#
# Total GULP energy -145488.400926 kJ/mol
# GULP energy per Si atom -5595.707728 kJ/mol
# Density = 2.073821 g / cm^3
# Si number density = 20.785516 Si / 1000 Ang^3
#
#
#
# Elastic Constant Matrix: (Units=GPa)
#
#
# Indices 1 2 3 4 5 6 
#
# 1 84.1884 26.7164 42.4149 0.0000 -10.6830 0.0000
# 2 26.7164 105.8296 32.9789 0.0000 -16.8669 0.0000
# 3 42.4149 32.9789 123.6905 0.0000 -0.5187 0.0000
# 4 0.0000 0.0000 0.0000 8.0800 0.0000 -7.1643
# 5 -10.6830 -16.8669 -0.5187 0.0000 33.7501 0.0000
# 6 0.0000 0.0000 0.0000 -7.1643 0.0000 13.1947
#
#
#
# Elastic Compliance Matrix: (Units=1/GPa)
#
#
# Indices 1 2 3 4 5 6 
#
# 1 0.015337 -0.001763 -0.004773 0.000000 0.003900 0.000000
# 2 -0.001763 0.011471 -0.002432 0.000000 0.005137 0.000000
# 3 -0.004773 -0.002432 0.010359 0.000000 -0.002567 0.000000
# 4 0.000000 0.000000 0.000000 0.238668 0.000000 0.129590
# 5 0.003900 0.005137 -0.002567 0.000000 0.033392 0.000000
# 6 0.000000 0.000000 0.000000 0.129590 0.000000 0.146152
#
#
# Mechanical properties :
#
#
# Convention : Reuss Voigt Hill
#
# Bulk Modulus (GPa) = 51.99959 57.54767 54.77363
# Shear Modulus (GPa) = 10.42262 25.11150 17.76706
#
# Velocity S-wave (km/s) = 2.24171 3.47958 2.92684
# Velocity P-wave (km/s) = 5.63665 6.62494 6.15068
#
# Compressibility (1/GPa) = 0.01923092
#
# Stress axis : x y z
#
# Youngs Moduli (GPa) = 65.20135 87.17686 96.53310
#
# Poissons Ratio (x) = 0.15368 0.46074
# Poissons Ratio (y) = 0.11494 0.23481
# Poissons Ratio (z) = 0.31120 0.21205
#
# Static dielectric constant tensor:
#      x y z
#    x 1.726400 0.000000 -0.023250 
#    y 0.000000 1.708450 0.000000 
#    z -0.023250 0.000000 1.763280 
# 
# From -- ./inp_files/227479.got.cif
#   From: 2010.05.17/outbox.cif.g08.bks.cpg/sg15_114_cif.got.tgz:227479.got - 2010.06.03 18:47:42.
