data_PCOD9298966
_publ_section_title
;
Structure prediction by ZEFSAII (Michael W. Deem and Ramdas Pophale) SiO2 
 PCOD9298966
Probable space group: C 2/C
;
_chemical_formula_sum "Si O2"
_cell_formula_units_Z 40
_cell_length_a 14.822131
_cell_length_b 23.150747
_cell_length_c 7.962569
_cell_angle_alpha 90.000000
_cell_angle_beta 29.748452
_cell_angle_gamma 90.000000
_cell_volume 1355.749769
_symmetry_space_group_name_H-M "C 2/C"
_symmetry_group_IT_number 15
_symmetry_cell_setting 'monoclinic'
loop_
_space_group_symop_operation_xyz
x,y,z
-x,y,1/2-z
-x,-y,-z
x,-y,1/2+z
1/2+x,1/2+y,z
1/2-x,1/2+y,1/2-z
1/2-x,1/2-y,-z
1/2+x,1/2-y,1/2+z
loop_
_atom_site_type_symbol
_atom_site_label
_atom_site_fract_x
_atom_site_fract_y
_atom_site_fract_z
Si Si1 0.886270 0.559742 0.265208
Si Si2 0.211131 0.826389 0.068414
Si Si3 0.371866 0.542428 0.308095
Si Si4 0.649067 0.855896 0.127282
Si Si5 0.000000 0.251736 0.750000
Si Si6 0.000000 0.809548 0.750000
O O1 0.725950 0.605768 0.560311
O O2 0.787454 0.500968 0.367566
O O3 0.000000 0.548081 0.250000
O O4 0.014926 0.599073 0.941653
O O5 0.077680 0.804367 0.431177
O O6 0.155008 0.797422 0.983153
O O7 0.405411 0.797307 0.783024
O O8 0.500000 0.568454 0.250000
O O9 0.286852 0.593773 0.335483
O O10 0.500000 0.500000 0.000000
O O11 0.500000 0.824340 0.250000
O O12 0.785187 0.820771 0.026542
#
# Coordination Sequence:
#
# PCOD9298966 Si02
#       6
#     8   8   8   8   4   4
#     4  12  23  43  66  96 136 178 226 279 335 399
#     4  11  24  45  71  99 133 173 220 282 342 411
#     4  12  24  41  64  98 135 182 231 276 326 390
#     4  12  25  43  66 100 140 183 228 276 330 392
#     4  10  24  46  71  98 130 172 217 278 354 410
#     4  12  24  46  69 104 138 176 225 280 330 406
#
# _framework density 29.503969999999999
#
# number of rings (size 3 to 8) (size 9 to 14) (size 15 to 20)
#    0.000    0.400    4.000    4.800    4.200    0.800 
#    0.000    0.000    0.000    0.000    0.000    0.000 
#    0.000    0.000    0.000    0.000    0.000    0.000 
#
# Total GULP energy -111366.947564 kJ/mol
# GULP energy per Si atom -5568.347378 kJ/mol
# Density = 2.943682 g / cm^3
# Si number density = 29.503970 Si / 1000 Ang^3
#
#
#
# Elastic Constant Matrix: (Units=GPa)
#
#
# Indices 1 2 3 4 5 6 
#
# 1 199.7735 17.5389 37.0479 -0.0005 -57.7501 0.0005
# 2 17.5389 92.5898 -3.6011 0.0000 -10.2369 0.0001
# 3 37.0479 -3.6011 142.4873 -0.0015 -4.5717 0.0010
# 4 -0.0005 0.0000 -0.0015 21.0278 0.0007 1.1027
# 5 -57.7501 -10.2369 -4.5717 0.0007 69.0143 -0.0005
# 6 0.0005 0.0001 0.0010 1.1027 -0.0005 41.4357
#
#
#
# Elastic Compliance Matrix: (Units=1/GPa)
#
#
# Indices 1 2 3 4 5 6 
#
# 1 0.007013 -0.000769 -0.001662 0.000000 0.005644 0.000000
# 2 -0.000769 0.011080 0.000513 0.000000 0.001034 0.000000
# 3 -0.001662 0.000513 0.007437 0.000001 -0.000822 0.000000
# 4 0.000000 0.000000 0.000001 0.047623 -0.000001 -0.001267
# 5 0.005644 0.001034 -0.000822 -0.000001 0.019312 0.000000
# 6 0.000000 0.000000 0.000000 -0.001267 0.000000 0.024168
#
#
# Mechanical properties :
#
#
# Convention : Reuss Voigt Hill
#
# Bulk Modulus (GPa) = 46.09399 59.64689 52.87044
# Shear Modulus (GPa) = 39.15466 51.88655 45.52060
#
# Velocity S-wave (km/s) = 3.64689 4.19815 3.93219
# Velocity P-wave (km/s) = 5.77840 6.61512 6.21087
#
# Compressibility (1/GPa) = 0.02169480
#
# Stress axis : x y z
#
# Youngs Moduli (GPa) = 142.59291 90.25046 134.46563
#
# Poissons Ratio (x) = 0.06941 0.22345
# Poissons Ratio (y) = 0.10966 -0.06900
# Poissons Ratio (z) = 0.23696 -0.04631
#
# Static dielectric constant tensor:
#      x y z
#    x 2.429190 0.000000 0.009210 
#    y 0.000000 2.374830 0.000000 
#    z 0.009210 0.000000 2.494440 
# 
# From -- ./inp_files/23523.got.cif
#   From: 2010.05.17/outbox.cif.g08.bks.cpg/sg15_12_cif.got.tgz:23523.got - 2010.06.03 18:47:42.
