data_PCOD9298443
_publ_section_title
;
Structure prediction by ZEFSAII (Michael W. Deem and Ramdas Pophale) SiO2 
 PCOD9298443
Probable space group: C 2/C
;
_chemical_formula_sum "Si O2"
_cell_formula_units_Z 36
_cell_length_a 5.131713
_cell_length_b 34.324219
_cell_length_c 10.466182
_cell_angle_alpha 90.000000
_cell_angle_beta 66.743541
_cell_angle_gamma 90.000000
_cell_volume 1693.741391
_symmetry_space_group_name_H-M "C 2/C"
_symmetry_group_IT_number 15
_symmetry_cell_setting 'monoclinic'
loop_
_space_group_symop_operation_xyz
x,y,z
-x,y,1/2-z
-x,-y,-z
x,-y,1/2+z
1/2+x,1/2+y,z
1/2-x,1/2+y,1/2-z
1/2-x,1/2-y,-z
1/2+x,1/2-y,1/2+z
loop_
_atom_site_type_symbol
_atom_site_label
_atom_site_fract_x
_atom_site_fract_y
_atom_site_fract_z
Si Si1 0.560510 0.627719 0.087666
Si Si2 0.000000 0.517925 0.250000
Si Si3 0.970749 0.784747 0.976409
Si Si4 0.000000 0.034165 0.750000
Si Si5 0.607471 0.081130 0.015498
Si Si6 0.000000 0.245011 0.750000
O O1 0.500000 0.624267 0.250000
O O2 0.288913 0.612195 0.062650
O O3 0.833501 0.601273 0.007872
O O4 0.625020 0.672392 0.041987
O O5 0.283202 0.492218 0.209510
O O6 0.011628 0.546252 0.126505
O O7 0.012654 0.781952 0.121381
O O8 0.750000 0.750000 0.000000
O O9 0.236275 0.773411 0.834323
O O10 0.191383 0.061488 0.625960
#
# Coordination Sequence:
#
# PCOD9298443 Si02
#       6
#     8   4   8   4   8   4
#     4  12  25  45  73  97 147 187 234 295 347 420
#     4  12  22  47  76 100 141 182 237 278 352 438
#     4  11  25  45  72 102 140 189 247 289 354 420
#     4  12  26  45  72 108 139 180 227 300 348 424
#     4  12  26  46  70 109 139 184 233 286 362 424
#     4  10  24  44  70 104 136 178 258 290 348 420
#
# _framework density 21.254719000000001
#
# number of rings (size 3 to 8) (size 9 to 14) (size 15 to 20)
#    0.000    0.444    2.222    6.000    9.333    0.889 
#    4.000    0.000    0.000    0.000    0.000    0.000 
#    0.000    0.000    0.000    0.000    0.000    0.000 
#
# Total GULP energy -100715.354933 kJ/mol
# GULP energy per Si atom -5595.297496 kJ/mol
# Density = 2.120634 g / cm^3
# Si number density = 21.254719 Si / 1000 Ang^3
#
#
#
# Elastic Constant Matrix: (Units=GPa)
#
#
# Indices 1 2 3 4 5 6 
#
# 1 69.4529 13.6561 -1.5968 0.0000 -22.1036 0.0000
# 2 13.6561 102.9692 31.8410 0.0000 -21.3217 0.0000
# 3 -1.5968 31.8410 112.4948 0.0000 -34.5754 0.0000
# 4 0.0000 0.0000 0.0000 13.3660 0.0000 -20.5294
# 5 -22.1036 -21.3217 -34.5754 0.0000 29.1664 0.0000
# 6 0.0000 0.0000 0.0000 -20.5294 0.0000 -9.3784
#
#
#
# Elastic Compliance Matrix: (Units=1/GPa)
#
#
# Indices 1 2 3 4 5 6 
#
# 1 0.023870 -0.000014 0.009281 0.000000 0.029081 0.000000
# 2 -0.000014 0.011523 -0.001063 0.000000 0.007153 0.000000
# 3 0.009281 -0.001063 0.017690 0.000000 0.027227 0.000000
# 4 0.000000 0.000000 0.000000 0.017151 0.000000 -0.037544
# 5 0.029081 0.007153 0.027227 0.000000 0.093831 0.000000
# 6 0.000000 0.000000 0.000000 -0.037544 0.000000 -0.024444
#
#
# Mechanical properties :
#
#
# Convention : Reuss Voigt Hill
#
# Bulk Modulus (GPa) = 14.39034 41.41305 27.90170
# Shear Modulus (GPa) = 34.15826 22.69860 28.42843
#
# Velocity S-wave (km/s) = 4.01320 3.27147 3.66117
# Velocity P-wave (km/s) = 5.31597 5.81347 5.57028
#
# Compressibility (1/GPa) = 0.06949106
#
# Stress axis : x y z
#
# Youngs Moduli (GPa) = 41.89432 86.77948 56.52818
#
# Poissons Ratio (x) = 0.00119 -0.52463
# Poissons Ratio (y) = 0.00058 0.06011
# Poissons Ratio (z) = -0.38882 0.09227
#
# Static dielectric constant tensor:
#      x y z
#    x 1.863570 0.000000 0.085650 
#    y 0.000000 1.746030 0.000000 
#    z 0.085650 0.000000 1.773010 
# 
# From -- ./inp_files/73573.got.cif
#   From: 2010.05.17/outbox.cif.g08.bks.cpg/sg15_37_cif.got.tgz:73573.got - 2010.06.03 18:47:42.
