data_PCOD9298297
_publ_section_title
;
Structure prediction by ZEFSAII (Michael W. Deem and Ramdas Pophale) SiO2 
 PCOD9298297
Probable space group: C 2/C
;
_chemical_formula_sum "Si O2"
_cell_formula_units_Z 32
_cell_length_a 12.373113
_cell_length_b 17.625083
_cell_length_c 16.145976
_cell_angle_alpha 90.000000
_cell_angle_beta 25.116726
_cell_angle_gamma 90.000000
_cell_volume 1494.565907
_symmetry_space_group_name_H-M "C 2/C"
_symmetry_group_IT_number 15
_symmetry_cell_setting 'monoclinic'
loop_
_space_group_symop_operation_xyz
x,y,z
-x,y,1/2-z
-x,-y,-z
x,-y,1/2+z
1/2+x,1/2+y,z
1/2-x,1/2+y,1/2-z
1/2-x,1/2-y,-z
1/2+x,1/2-y,1/2+z
loop_
_atom_site_type_symbol
_atom_site_label
_atom_site_fract_x
_atom_site_fract_y
_atom_site_fract_z
Si Si1 0.000000 0.292439 0.750000
Si Si2 0.870480 0.695023 0.604511
Si Si3 0.500000 0.030742 0.750000
Si Si4 0.234672 0.327915 0.139826
Si Si5 0.290810 0.909334 0.017452
O O1 0.853245 0.240520 0.786672
O O2 0.194360 0.346739 0.566334
O O3 0.809330 0.655819 0.733080
O O4 0.943043 0.630723 0.487384
O O5 0.056344 0.762980 0.502567
O O6 0.260288 0.088182 0.903585
O O7 0.568441 0.980044 0.622881
O O8 0.000000 0.293440 0.250000
O O9 0.000000 0.923527 0.250000
#
# Coordination Sequence:
#
# PCOD9298297 Si02
#       5
#     4   8   4   8   8
#     4  11  22  40  70 112 131 166 242 305 330 382
#     4  12  20  42  75  99 134 177 242 290 330 409
#     4   9  26  48  60 102 155 174 226 279 354 418
#     4  10  24  44  66 103 139 186 228 281 344 415
#     4  11  22  42  72 103 137 179 228 289 347 403
#
# _framework density 21.410900000000002
#
# number of rings (size 3 to 8) (size 9 to 14) (size 15 to 20)
#    0.750    0.500    3.750    3.000    0.000    1.000 
#    4.500   11.250    0.000    0.000    0.000    0.000 
#    0.000    0.000    0.000    0.000    0.000    0.000 
#
# Total GULP energy -89084.036670 kJ/mol
# GULP energy per Si atom -5567.752292 kJ/mol
# Density = 2.136217 g / cm^3
# Si number density = 21.410900 Si / 1000 Ang^3
#
#
#
# Elastic Constant Matrix: (Units=GPa)
#
#
# Indices 1 2 3 4 5 6 
#
# 1 90.2890 5.4890 -16.1817 0.0060 -13.4879 -0.0020
# 2 5.4890 83.4485 -13.2739 -0.0437 -14.6737 -0.0152
# 3 -16.1817 -13.2739 26.5608 -0.1892 -7.4614 -0.0729
# 4 0.0060 -0.0437 -0.1892 2.3550 -0.0257 -3.3522
# 5 -13.4879 -14.6737 -7.4614 -0.0257 37.6462 -0.0210
# 6 -0.0020 -0.0152 -0.0729 -3.3522 -0.0210 23.5912
#
#
#
# Elastic Compliance Matrix: (Units=1/GPa)
#
#
# Indices 1 2 3 4 5 6 
#
# 1 0.014462 0.002569 0.012541 0.001483 0.008670 0.000260
# 2 0.002569 0.015322 0.011831 0.001764 0.009239 0.000306
# 3 0.012541 0.011831 0.056985 0.006616 0.020404 0.001143
# 4 0.001483 0.001764 0.006616 0.533069 0.002937 0.075771
# 5 0.008670 0.009239 0.020404 0.002937 0.037317 0.000520
# 6 0.000260 0.000306 0.001143 0.075771 0.000520 0.053160
#
#
# Mechanical properties :
#
#
# Convention : Reuss Voigt Hill
#
# Bulk Modulus (GPa) = 7.10977 16.92944 12.01960
# Shear Modulus (GPa) = 7.10919 27.66950 17.38934
#
# Velocity S-wave (km/s) = 1.82416 3.59877 2.85296
# Velocity P-wave (km/s) = 2.78650 5.01919 4.05936
#
# Compressibility (1/GPa) = 0.14065152
#
# Stress axis : x y z
#
# Youngs Moduli (GPa) = 69.14635 65.26596 17.54852
#
# Poissons Ratio (x) = -0.16766 -0.22008
# Poissons Ratio (y) = -0.17763 -0.20762
# Poissons Ratio (z) = -0.86719 -0.77216
#
# Static dielectric constant tensor:
#      x y z
#    x 1.788270 -0.000010 -0.025880 
#    y -0.000010 1.811400 0.000030 
#    z -0.025880 0.000030 1.888050 
# 
# From -- ./inp_files/98059.got.cif
#   From: 2010.05.17/outbox.cif.g08.bks.cpg/sg15_50_cif.got.tgz:98059.got - 2010.06.03 18:47:42.
