data_PCOD9298132
_publ_section_title
;
Structure prediction by ZEFSAII (Michael W. Deem and Ramdas Pophale) SiO2 
 PCOD9298132
Probable space group: C 2/C
;
_chemical_formula_sum "Si O2"
_cell_formula_units_Z 48
_cell_length_a 20.767793
_cell_length_b 16.965002
_cell_length_c 18.001519
_cell_angle_alpha 90.000000
_cell_angle_beta 161.157571
_cell_angle_gamma 90.000000
_cell_volume 2048.382514
_symmetry_space_group_name_H-M "C 2/C"
_symmetry_group_IT_number 15
_symmetry_cell_setting 'monoclinic'
loop_
_space_group_symop_operation_xyz
x,y,z
-x,y,1/2-z
-x,-y,-z
x,-y,1/2+z
1/2+x,1/2+y,z
1/2-x,1/2+y,1/2-z
1/2-x,1/2-y,-z
1/2+x,1/2-y,1/2+z
loop_
_atom_site_type_symbol
_atom_site_label
_atom_site_fract_x
_atom_site_fract_y
_atom_site_fract_z
Si Si1 0.430116 0.490328 0.753696
Si Si2 0.376209 0.134393 0.338215
Si Si3 0.063433 0.814788 0.102376
Si Si4 0.715851 0.842794 0.454957
Si Si5 0.109618 0.617361 0.445967
Si Si6 0.267006 0.909687 0.190600
O O1 0.500000 0.523860 0.750000
O O2 0.358086 0.400997 0.656932
O O3 0.245093 0.539304 0.582986
O O4 0.623085 0.483629 0.016810
O O5 0.462583 0.223487 0.445278
O O6 0.444978 0.110621 0.330724
O O7 0.504734 0.080941 0.534619
O O8 0.144247 0.146171 0.100762
O O9 0.226502 0.820029 0.346425
O O10 0.155621 0.862365 0.134232
O O11 0.500000 0.861438 0.250000
O O12 0.750000 0.750000 0.500000
O O13 0.725796 0.864592 0.379585
O O14 0.000000 0.636584 0.250000
#
# Coordination Sequence:
#
# PCOD9298132 Si02
#       6
#     8   8   8   8   8   8
#     4  10  24  46  67 103 138 183 238 285 352 424
#     4  11  24  44  69 107 136 189 231 293 356 417
#     4  11  24  44  70 104 144 180 238 290 353 421
#     4  11  24  38  68 107 133 182 234 283 350 418
#     4  11  26  47  72  98 140 186 237 299 358 410
#     4  10  24  43  69  98 146 181 225 289 345 421
#
# _framework density 23.433122000000001
#
# number of rings (size 3 to 8) (size 9 to 14) (size 15 to 20)
#    0.000    1.333    3.333    2.000    9.333    3.333 
#    0.000    1.667    0.000    0.000    0.000    0.000 
#    0.000    0.000    0.000    0.000    0.000    0.000 
#
# Total GULP energy -134276.698236 kJ/mol
# GULP energy per Si atom -5594.862426 kJ/mol
# Density = 2.337979 g / cm^3
# Si number density = 23.433122 Si / 1000 Ang^3
#
#
#
# Elastic Constant Matrix: (Units=GPa)
#
#
# Indices 1 2 3 4 5 6 
#
# 1 102.4901 -2.0516 53.2493 0.0031 22.5195 0.0052
# 2 -2.0516 78.1743 -0.3641 0.0012 5.3641 0.0090
# 3 53.2493 -0.3641 171.2839 -0.0114 13.4016 -0.0008
# 4 0.0031 0.0012 -0.0114 35.0829 0.0097 15.9710
# 5 22.5195 5.3641 13.4016 0.0097 52.8243 0.0164
# 6 0.0052 0.0090 -0.0008 15.9710 0.0164 20.6472
#
#
#
# Elastic Compliance Matrix: (Units=1/GPa)
#
#
# Indices 1 2 3 4 5 6 
#
# 1 0.012620 0.000626 -0.003567 -0.000002 -0.004539 0.000001
# 2 0.000626 0.012916 -0.000045 0.000003 -0.001567 -0.000007
# 3 -0.003567 -0.000045 0.006966 0.000003 -0.000242 -0.000001
# 4 -0.000002 0.000003 0.000003 0.043997 0.000002 -0.034032
# 5 -0.004539 -0.001567 -0.000242 0.000002 0.021086 -0.000017
# 6 0.000001 -0.000007 -0.000001 -0.034032 -0.000017 0.074758
#
#
# Mechanical properties :
#
#
# Convention : Reuss Voigt Hill
#
# Bulk Modulus (GPa) = 37.69197 50.40170 44.04683
# Shear Modulus (GPa) = 26.71559 41.78519 34.25039
#
# Velocity S-wave (km/s) = 3.38017 4.22734 3.82727
# Velocity P-wave (km/s) = 5.59945 6.73666 6.19421
#
# Compressibility (1/GPa) = 0.02653085
#
# Stress axis : x y z
#
# Youngs Moduli (GPa) = 79.23906 77.42521 143.55432
#
# Poissons Ratio (x) = -0.04847 0.51205
# Poissons Ratio (y) = -0.04960 0.00639
# Poissons Ratio (z) = 0.28264 0.00345
#
# Static dielectric constant tensor:
#      x y z
#    x 1.830300 0.000000 -0.001460 
#    y 0.000000 1.987800 0.000000 
#    z -0.001460 0.000000 1.952820 
# 
# From -- ./inp_files/216287.got.cif
#   From: 2010.05.17/outbox.cif.g08.bks.cpg/sg15_109_cif.got.tgz:216287.got - 2010.06.03 18:47:42.
