data_PCOD9298163
_publ_section_title
;
Structure prediction by ZEFSAII (Michael W. Deem and Ramdas Pophale) SiO2 
 PCOD9298163
Probable space group: C 2/C
;
_chemical_formula_sum "Si O2"
_cell_formula_units_Z 60
_cell_length_a 27.548452
_cell_length_b 11.023006
_cell_length_c 18.282505
_cell_angle_alpha 90.000000
_cell_angle_beta 150.181181
_cell_angle_gamma 90.000000
_cell_volume 2760.676749
_symmetry_space_group_name_H-M "C 2/C"
_symmetry_group_IT_number 15
_symmetry_cell_setting 'monoclinic'
loop_
_space_group_symop_operation_xyz
x,y,z
-x,y,1/2-z
-x,-y,-z
x,-y,1/2+z
1/2+x,1/2+y,z
1/2-x,1/2+y,1/2-z
1/2-x,1/2-y,-z
1/2+x,1/2-y,1/2+z
loop_
_atom_site_type_symbol
_atom_site_label
_atom_site_fract_x
_atom_site_fract_y
_atom_site_fract_z
Si Si1 0.647713 0.681814 0.870109
Si Si2 0.000000 0.365472 0.750000
Si Si3 0.522070 0.990985 0.419574
Si Si4 0.409551 0.796384 0.077894
Si Si5 0.346017 0.062694 0.776744
Si Si6 0.291992 0.309183 0.630165
Si Si7 0.955331 0.985671 0.360328
Si Si8 0.367096 0.490380 0.517534
O O1 0.575661 0.779903 0.808965
O O2 0.611493 0.631432 0.744499
O O3 0.639706 0.567891 0.916656
O O4 0.750000 0.750000 0.000000
O O5 0.956704 0.447353 0.629467
O O6 0.584128 0.054044 0.562998
O O7 0.554485 0.850536 0.452192
O O8 0.408280 0.996355 0.292092
O O9 0.500000 0.818070 0.250000
O O10 0.388511 0.652951 0.055755
O O11 0.307812 0.861125 0.965853
O O12 0.326231 0.199157 0.725933
O O13 0.242336 0.001567 0.657000
O O14 0.250000 0.250000 0.500000
O O15 0.382429 0.401997 0.744879
O O16 0.000000 0.000000 0.500000
O O17 0.046781 0.970764 0.424240
#
# Coordination Sequence:
#
# PCOD9298163 Si02
#       8
#     8   4   8   8   8   8   8   8
#     4  12  27  48  74 102 148 206 250 309 380 464
#     4  12  26  44  70  98 144 192 238 298 376 468
#     4  11  24  43  68 106 146 184 244 300 387 442
#     4  11  22  41  75 105 136 184 247 306 361 442
#     4  10  24  43  71 105 145 185 235 318 369 446
#     4  11  24  42  74 104 141 187 248 301 371 441
#     4  12  27  45  73 109 150 191 257 312 382 452
#     4  11  23  49  73 101 144 193 251 306 377 448
#
# _framework density 21.733802000000001
#
# number of rings (size 3 to 8) (size 9 to 14) (size 15 to 20)
#    0.000    0.800    2.000    5.600    5.600    0.000 
#    4.800    0.000    0.000    0.000    0.000    0.000 
#    0.000    0.000    0.000    0.000    0.000    0.000 
#
# Total GULP energy -167551.663203 kJ/mol
# GULP energy per Si atom -5585.055440 kJ/mol
# Density = 2.168433 g / cm^3
# Si number density = 21.733802 Si / 1000 Ang^3
#
#
#
# Elastic Constant Matrix: (Units=GPa)
#
#
# Indices 1 2 3 4 5 6 
#
# 1 82.8346 39.6393 67.0746 0.0000 0.1357 0.0000
# 2 39.6393 97.3107 57.2753 0.0000 -2.5986 0.0000
# 3 67.0746 57.2753 146.4788 0.0000 19.9668 0.0000
# 4 0.0000 0.0000 0.0000 30.4123 0.0000 9.8486
# 5 0.1357 -2.5986 19.9668 0.0000 40.4280 0.0000
# 6 0.0000 0.0000 0.0000 9.8486 0.0000 23.4911
#
#
#
# Elastic Compliance Matrix: (Units=1/GPa)
#
#
# Indices 1 2 3 4 5 6 
#
# 1 0.020699 -0.003139 -0.008807 0.000000 0.004078 0.000000
# 2 -0.003139 0.014357 -0.004614 0.000000 0.003212 0.000000
# 3 -0.008807 -0.004614 0.013617 0.000000 -0.006992 0.000000
# 4 0.000000 0.000000 0.000000 0.038047 0.000000 -0.015951
# 5 0.004078 0.003212 -0.006992 0.000000 0.028381 0.000000
# 6 0.000000 0.000000 0.000000 -0.015951 0.000000 0.049257
#
#
# Mechanical properties :
#
#
# Convention : Reuss Voigt Hill
#
# Bulk Modulus (GPa) = 64.29835 72.73361 68.51598
# Shear Modulus (GPa) = 24.67158 29.70859 27.19009
#
# Velocity S-wave (km/s) = 3.37289 3.70121 3.54086
# Velocity P-wave (km/s) = 6.69456 7.19747 6.95057
#
# Compressibility (1/GPa) = 0.01555250
#
# Stress axis : x y z
#
# Youngs Moduli (GPa) = 48.31143 69.65431 73.43806
#
# Poissons Ratio (x) = 0.21867 0.64675
# Poissons Ratio (y) = 0.15166 0.33884
# Poissons Ratio (z) = 0.42547 0.32138
#
# Static dielectric constant tensor:
#      x y z
#    x 1.820580 0.000000 0.012770 
#    y 0.000000 1.862270 0.000000 
#    z 0.012770 0.000000 1.808020 
# 
# From -- ./inp_files/222578.got.cif
#   From: 2010.05.17/outbox.cif.g08.bks.cpg/sg15_112_cif.got.tgz:222578.got - 2010.06.03 18:47:42.
