data_PCOD9298761
_publ_section_title
;
Structure prediction by ZEFSAII (Michael W. Deem and Ramdas Pophale) SiO2 
 PCOD9298761
Probable space group: C 2/C
;
_chemical_formula_sum "Si O2"
_cell_formula_units_Z 52
_cell_length_a 5.213875
_cell_length_b 17.198679
_cell_length_c 26.009549
_cell_angle_alpha 90.000000
_cell_angle_beta 113.539524
_cell_angle_gamma 90.000000
_cell_volume 2138.237426
_symmetry_space_group_name_H-M "C 2/C"
_symmetry_group_IT_number 15
_symmetry_cell_setting 'monoclinic'
loop_
_space_group_symop_operation_xyz
x,y,z
-x,y,1/2-z
-x,-y,-z
x,-y,1/2+z
1/2+x,1/2+y,z
1/2-x,1/2+y,1/2-z
1/2-x,1/2-y,-z
1/2+x,1/2-y,1/2+z
loop_
_atom_site_type_symbol
_atom_site_label
_atom_site_fract_x
_atom_site_fract_y
_atom_site_fract_z
Si Si1 0.981490 0.493458 0.824243
Si Si2 0.500000 0.739668 0.250000
Si Si3 0.484472 0.129743 0.097546
Si Si4 0.334666 0.416400 0.532251
Si Si5 0.443933 0.422694 0.426527
Si Si6 0.500000 0.396240 0.250000
Si Si7 0.000000 0.634116 0.250000
Si Si8 0.438695 0.702485 0.848269
O O1 0.853527 0.440047 0.859532
O O2 0.762529 0.545117 0.775565
O O3 0.216550 0.545408 0.868332
O O4 0.116920 0.425492 0.801218
O O5 0.752499 0.686391 0.251387
O O6 0.391533 0.788893 0.192723
O O7 0.160805 0.106060 0.066382
O O8 0.488539 0.209411 0.129887
O O9 0.634495 0.131133 0.054116
O O10 0.292657 0.404859 0.468250
O O11 0.332311 0.509307 0.544115
O O12 0.545745 0.347194 0.404919
O O13 0.475953 0.341825 0.197544
#
# Coordination Sequence:
#
# PCOD9298761 Si02
#       8
#     8   4   8   8   8   4   4   8
#     4  11  24  44  74 104 139 198 233 301 351 449
#     4  12  27  43  68 106 146 190 234 292 359 441
#     4  11  26  43  74 102 140 189 245 285 374 418
#     4  10  25  49  72 105 137 194 244 303 348 450
#     4  10  24  45  73 101 148 184 247 301 371 408
#     4  12  26  46  70 116 152 190 248 296 372 434
#     4  12  25  45  72 106 140 192 248 288 349 451
#     4  12  26  43  70 109 148 193 229 313 353 440
#
# _framework density 24.319096999999999
#
# number of rings (size 3 to 8) (size 9 to 14) (size 15 to 20)
#    0.000    0.923    1.538    3.692    4.308    9.231 
#    0.000    0.000    0.000    0.000    0.000    0.000 
#    0.000    0.000    0.000    0.000    0.000    0.000 
#
# Total GULP energy -145360.608998 kJ/mol
# GULP energy per Si atom -5590.792654 kJ/mol
# Density = 2.426375 g / cm^3
# Si number density = 24.319097 Si / 1000 Ang^3
#
#
#
# Elastic Constant Matrix: (Units=GPa)
#
#
# Indices 1 2 3 4 5 6 
#
# 1 105.1345 42.2270 18.4342 0.0000 -10.2439 0.0000
# 2 42.2270 127.7645 29.1776 0.0000 -14.8282 0.0000
# 3 18.4342 29.1776 73.6701 0.0000 -17.9629 0.0000
# 4 0.0000 0.0000 0.0000 36.3049 0.0000 -3.2206
# 5 -10.2439 -14.8282 -17.9629 0.0000 42.0036 0.0000
# 6 0.0000 0.0000 0.0000 -3.2206 0.0000 40.6128
#
#
#
# Elastic Compliance Matrix: (Units=1/GPa)
#
#
# Indices 1 2 3 4 5 6 
#
# 1 0.011147 -0.003282 -0.001238 0.000000 0.001031 0.000000
# 2 -0.003282 0.009690 -0.002654 0.000000 0.001485 0.000000
# 3 -0.001238 -0.002654 0.016337 0.000000 0.005747 0.000000
# 4 0.000000 0.000000 0.000000 0.027740 0.000000 0.002200
# 5 0.001031 0.001485 0.005747 0.000000 0.027041 0.000000
# 6 0.000000 0.000000 0.000000 0.002200 0.000000 0.024797
#
#
# Mechanical properties :
#
#
# Convention : Reuss Voigt Hill
#
# Bulk Modulus (GPa) = 43.81210 54.02740 48.91975
# Shear Modulus (GPa) = 36.04657 38.23294 37.13976
#
# Velocity S-wave (km/s) = 3.85415 3.96932 3.91216
# Velocity P-wave (km/s) = 6.15310 6.57811 6.36915
#
# Compressibility (1/GPa) = 0.02282475
#
# Stress axis : x y z
#
# Youngs Moduli (GPa) = 89.70772 103.19742 61.21237
#
# Poissons Ratio (x) = 0.33868 0.07580
# Poissons Ratio (y) = 0.29441 0.16249
# Poissons Ratio (z) = 0.11108 0.27394
#
# Static dielectric constant tensor:
#      x y z
#    x 1.956550 0.000000 -0.050350 
#    y 0.000000 1.968330 0.000000 
#    z -0.050350 0.000000 2.027470 
# 
# From -- ./inp_files/285919.got.cif
#   From: 2010.05.17/outbox.cif.g08.bks.cpg/sg15_143_cif.got.tgz:285919.got - 2010.06.03 18:47:42.
