data_PCOD9298622
_publ_section_title
;
Structure prediction by ZEFSAII (Michael W. Deem and Ramdas Pophale) SiO2 
 PCOD9298622
Probable space group: C 2/C
;
_chemical_formula_sum "Si O2"
_cell_formula_units_Z 40
_cell_length_a 7.594347
_cell_length_b 22.013002
_cell_length_c 9.765406
_cell_angle_alpha 90.000000
_cell_angle_beta 83.716163
_cell_angle_gamma 90.000000
_cell_volume 1622.717228
_symmetry_space_group_name_H-M "C 2/C"
_symmetry_group_IT_number 15
_symmetry_cell_setting 'monoclinic'
loop_
_space_group_symop_operation_xyz
x,y,z
-x,y,1/2-z
-x,-y,-z
x,-y,1/2+z
1/2+x,1/2+y,z
1/2-x,1/2+y,1/2-z
1/2-x,1/2-y,-z
1/2+x,1/2-y,1/2+z
loop_
_atom_site_type_symbol
_atom_site_label
_atom_site_fract_x
_atom_site_fract_y
_atom_site_fract_z
Si Si1 0.000000 0.620114 0.750000
Si Si2 0.945583 0.276412 0.472725
Si Si3 0.309036 0.607772 0.892136
Si Si4 0.500000 0.508913 0.750000
Si Si5 0.000000 0.182597 0.250000
Si Si6 0.288338 0.907033 0.787458
Si Si7 0.500000 0.276138 0.250000
O O1 0.054474 0.662790 0.616490
O O2 0.159083 0.583418 0.801676
O O3 0.750000 0.250000 0.500000
O O4 0.002577 0.270218 0.623066
O O5 0.045191 0.226775 0.371266
O O6 0.462648 0.557511 0.874565
O O7 0.359938 0.672763 0.819646
O O8 0.243815 0.611623 0.051750
O O9 0.668528 0.466475 0.766767
O O10 0.175004 0.142452 0.208982
O O11 0.500000 0.912962 0.750000
#
# Coordination Sequence:
#
# PCOD9298622 Si02
#       7
#     4   8   8   4   4   8   4
#     4  11  26  41  68 105 139 191 238 283 350 428
#     4  11  23  42  67 101 143 191 236 286 348 421
#     4  11  24  46  70 102 146 184 240 295 359 421
#     4  10  26  49  74 104 140 183 238 309 363 426
#     4  10  24  45  66 104 150 180 243 292 350 424
#     4  11  25  45  75 107 138 192 236 297 365 432
#     4  11  22  43  72  95 141 196 229 298 353 404
#
# _framework density 24.650010999999999
#
# number of rings (size 3 to 8) (size 9 to 14) (size 15 to 20)
#    0.000    1.200    4.000    0.600    4.200    3.200 
#    3.600    0.000    0.000    0.000    0.000    0.000 
#    0.000    0.000    0.000    0.000    0.000    0.000 
#
# Total GULP energy -111617.280425 kJ/mol
# GULP energy per Si atom -5580.864021 kJ/mol
# Density = 2.459391 g / cm^3
# Si number density = 24.650011 Si / 1000 Ang^3
#
#
#
# Elastic Constant Matrix: (Units=GPa)
#
#
# Indices 1 2 3 4 5 6 
#
# 1 125.9885 47.1686 20.9193 0.0000 -14.5941 0.0000
# 2 47.1686 111.0638 38.2454 0.0000 -4.3388 0.0000
# 3 20.9193 38.2454 166.1948 0.0000 3.8426 0.0000
# 4 0.0000 0.0000 0.0000 10.4927 0.0000 -0.7489
# 5 -14.5941 -4.3388 3.8426 0.0000 40.1355 0.0000
# 6 0.0000 0.0000 0.0000 -0.7489 0.0000 37.5857
#
#
#
# Elastic Compliance Matrix: (Units=1/GPa)
#
#
# Indices 1 2 3 4 5 6 
#
# 1 0.009841 -0.003913 -0.000412 0.000000 0.003195 0.000000
# 2 -0.003913 0.011400 -0.002131 0.000000 0.000014 0.000000
# 3 -0.000412 -0.002131 0.006583 0.000000 -0.001010 0.000000
# 4 0.000000 0.000000 0.000000 0.095440 0.000000 0.001902
# 5 0.003195 0.000014 -0.001010 0.000000 0.026175 0.000000
# 6 0.000000 0.000000 0.000000 0.001902 0.000000 0.026644
#
#
# Mechanical properties :
#
#
# Convention : Reuss Voigt Hill
#
# Bulk Modulus (GPa) = 67.06295 68.43483 67.74889
# Shear Modulus (GPa) = 25.77791 37.43705 31.60748
#
# Velocity S-wave (km/s) = 3.23732 3.90133 3.58474
# Velocity P-wave (km/s) = 6.42174 6.93662 6.68414
#
# Compressibility (1/GPa) = 0.01491136
#
# Stress axis : x y z
#
# Youngs Moduli (GPa) = 101.62050 87.71995 151.91283
#
# Poissons Ratio (x) = 0.34321 0.06261
# Poissons Ratio (y) = 0.39759 0.32376
# Poissons Ratio (z) = 0.04188 0.18695
#
# Static dielectric constant tensor:
#      x y z
#    x 2.002080 0.000000 -0.236070 
#    y 0.000000 1.938090 0.000000 
#    z -0.236070 0.000000 1.355760 
# 
# From -- ./inp_files/23579.got.cif
#   From: 2010.05.17/outbox.cif.g08.bks.cpg/sg15_12_cif.got.tgz:23579.got - 2010.06.03 18:47:42.
