data_PCOD9298152
_publ_section_title
;
Structure prediction by ZEFSAII (Michael W. Deem and Ramdas Pophale) SiO2 
 PCOD9298152
Probable space group: C 2/C
;
_chemical_formula_sum "Si O2"
_cell_formula_units_Z 40
_cell_length_a 16.911946
_cell_length_b 19.168523
_cell_length_c 5.038030
_cell_angle_alpha 90.000000
_cell_angle_beta 96.409381
_cell_angle_gamma 90.000000
_cell_volume 1623.005434
_symmetry_space_group_name_H-M "C 2/C"
_symmetry_group_IT_number 15
_symmetry_cell_setting 'monoclinic'
loop_
_space_group_symop_operation_xyz
x,y,z
-x,y,1/2-z
-x,-y,-z
x,-y,1/2+z
1/2+x,1/2+y,z
1/2-x,1/2+y,1/2-z
1/2-x,1/2-y,-z
1/2+x,1/2-y,1/2+z
loop_
_atom_site_type_symbol
_atom_site_label
_atom_site_fract_x
_atom_site_fract_y
_atom_site_fract_z
Si Si1 0.175418 0.311813 0.537020
Si Si2 0.357043 0.881243 0.469603
Si Si3 0.646064 0.345606 0.992813
Si Si4 0.699310 0.543661 0.914114
Si Si5 0.500000 0.443603 0.750000
Si Si6 0.500000 0.949376 0.250000
O O1 0.178337 0.318366 0.218231
O O2 0.267622 0.337780 0.630822
O O3 0.138398 0.235564 0.567968
O O4 0.127682 0.360522 0.724790
O O5 0.293472 0.943037 0.439228
O O6 0.428401 0.900779 0.307407
O O7 0.573047 0.387275 0.826097
O O8 0.659366 0.389358 0.268909
O O9 0.679834 0.483168 0.696494
O O10 0.500000 0.500000 0.500000
O O11 0.500000 0.000000 0.500000
#
# Coordination Sequence:
#
# PCOD9298152 Si02
#       6
#     8   8   8   8   4   4
#     4  10  24  43  70  99 132 179 235 292 345 418
#     4  11  23  41  65  98 132 173 226 284 354 420
#     4  10  24  45  70 100 138 183 237 293 353 423
#     4  11  21  36  62  93 128 171 219 274 337 414
#     4  12  28  47  70 105 148 194 238 296 368 438
#     4  12  24  41  64  95 136 174 218 282 352 428
#
# _framework density 24.645638000000002
#
# number of rings (size 3 to 8) (size 9 to 14) (size 15 to 20)
#    0.000    1.200    0.000    6.000    0.000   14.400 
#    0.000    0.000    0.000    0.000    0.000    0.000 
#    0.000    0.000    0.000    0.000    0.000    0.000 
#
# Total GULP energy -111399.066344 kJ/mol
# GULP energy per Si atom -5569.953317 kJ/mol
# Density = 2.458954 g / cm^3
# Si number density = 24.645638 Si / 1000 Ang^3
#
#
#
# Elastic Constant Matrix: (Units=GPa)
#
#
# Indices 1 2 3 4 5 6 
#
# 1 69.5432 29.1995 42.3585 0.0000 -7.5739 0.0000
# 2 29.1995 129.6314 47.4527 0.0000 8.8383 0.0000
# 3 42.3585 47.4527 142.7209 0.0000 -16.0547 0.0000
# 4 0.0000 0.0000 0.0000 27.8078 0.0000 -2.0344
# 5 -7.5739 8.8383 -16.0547 0.0000 23.0310 0.0000
# 6 0.0000 0.0000 0.0000 -2.0344 0.0000 33.4233
#
#
#
# Elastic Compliance Matrix: (Units=1/GPa)
#
#
# Indices 1 2 3 4 5 6 
#
# 1 0.018576 -0.003024 -0.004004 0.000000 0.004478 0.000000
# 2 -0.003024 0.010072 -0.003253 0.000000 -0.007127 0.000000
# 3 -0.004004 -0.003253 0.010058 0.000000 0.006943 0.000000
# 4 0.000000 0.000000 0.000000 0.036122 0.000000 0.002199
# 5 0.004478 -0.007127 0.006943 0.000000 0.052467 0.000000
# 6 0.000000 0.000000 0.000000 0.002199 0.000000 0.030053
#
#
# Mechanical properties :
#
#
# Convention : Reuss Voigt Hill
#
# Bulk Modulus (GPa) = 55.11608 64.43519 59.77563
# Shear Modulus (GPa) = 27.18018 31.71141 29.44579
#
# Velocity S-wave (km/s) = 3.32451 3.59094 3.46029
# Velocity P-wave (km/s) = 6.09495 6.58746 6.34598
#
# Compressibility (1/GPa) = 0.01814353
#
# Stress axis : x y z
#
# Youngs Moduli (GPa) = 53.83377 99.28449 99.42658
#
# Poissons Ratio (x) = 0.30021 0.39811
# Poissons Ratio (y) = 0.16278 0.32345
# Poissons Ratio (z) = 0.21555 0.32299
#
# Static dielectric constant tensor:
#      x y z
#    x 2.096770 0.000000 0.063120 
#    y 0.000000 1.816270 0.000000 
#    z 0.063120 0.000000 1.894480 
# 
# From -- ./inp_files/9921.got.cif
#   From: 2010.05.17/outbox.cif.g08.bks.cpg/sg15_5_cif.got.tgz:9921.got - 2010.06.03 18:47:42.
