data_PCOD9298764
_publ_section_title
;
Structure prediction by ZEFSAII (Michael W. Deem and Ramdas Pophale) SiO2 
 PCOD9298764
Probable space group: C 2/C
;
_chemical_formula_sum "Si O2"
_cell_formula_units_Z 40
_cell_length_a 4.935193
_cell_length_b 20.088954
_cell_length_c 22.615926
_cell_angle_alpha 90.000000
_cell_angle_beta 52.729216
_cell_angle_gamma 90.000000
_cell_volume 1784.309382
_symmetry_space_group_name_H-M "C 2/C"
_symmetry_group_IT_number 15
_symmetry_cell_setting 'monoclinic'
loop_
_space_group_symop_operation_xyz
x,y,z
-x,y,1/2-z
-x,-y,-z
x,-y,1/2+z
1/2+x,1/2+y,z
1/2-x,1/2+y,1/2-z
1/2-x,1/2-y,-z
1/2+x,1/2-y,1/2+z
loop_
_atom_site_type_symbol
_atom_site_label
_atom_site_fract_x
_atom_site_fract_y
_atom_site_fract_z
Si Si1 0.891272 0.782636 0.541448
Si Si2 0.709886 0.568767 0.465872
Si Si3 0.764263 0.192727 0.834627
Si Si4 0.872718 0.891434 0.122961
Si Si5 0.597900 0.979121 0.802220
O O1 0.750000 0.750000 0.500000
O O2 0.935704 0.861703 0.539541
O O3 0.705701 0.752311 0.622515
O O4 0.250000 0.750000 0.500000
O O5 0.500000 0.500000 0.500000
O O6 0.693633 0.590755 0.537387
O O7 0.003502 0.555072 0.378535
O O8 0.385960 0.166166 0.867259
O O9 0.000000 0.212698 0.750000
O O10 0.954839 0.131037 0.839924
O O11 0.633031 0.954632 0.164486
O O12 0.500000 0.947974 0.750000
O O13 0.000000 0.990319 0.750000
#
# Coordination Sequence:
#
# PCOD9298764 Si02
#       5
#     8   8   8   8   8
#     4  12  24  46  69 100 143 183 230 286 348 413
#     4  10  24  45  73 103 138 190 238 281 349 427
#     4  12  23  39  69 102 135 177 232 290 346 402
#     4  11  22  42  68 100 134 182 235 283 343 421
#     4  11  24  42  65  99 143 182 226 293 355 412
#
# _framework density 22.417636000000002
#
# number of rings (size 3 to 8) (size 9 to 14) (size 15 to 20)
#    0.000    0.800    4.000    3.600    0.000    4.000 
#    0.000   11.000    0.000    0.000    0.000    0.000 
#    0.000    0.000    0.000    0.000    0.000    0.000 
#
# Total GULP energy -111358.517078 kJ/mol
# GULP energy per Si atom -5567.925854 kJ/mol
# Density = 2.236661 g / cm^3
# Si number density = 22.417636 Si / 1000 Ang^3
#
#
#
# Elastic Constant Matrix: (Units=GPa)
#
#
# Indices 1 2 3 4 5 6 
#
# 1 115.7521 10.4948 39.9453 0.0000 0.2548 0.0000
# 2 10.4948 112.4846 37.0708 0.0000 -9.2605 0.0000
# 3 39.9453 37.0708 221.4789 0.0000 12.7741 0.0000
# 4 0.0000 0.0000 0.0000 44.7041 0.0000 11.2354
# 5 0.2548 -9.2605 12.7741 0.0000 29.2386 0.0000
# 6 0.0000 0.0000 0.0000 11.2354 0.0000 10.9776
#
#
#
# Elastic Compliance Matrix: (Units=1/GPa)
#
#
# Indices 1 2 3 4 5 6 
#
# 1 0.009233 -0.000271 -0.001652 0.000000 0.000555 0.000000
# 2 -0.000271 0.009839 -0.001824 0.000000 0.003915 0.000000
# 3 -0.001652 -0.001824 0.005284 0.000000 -0.002872 0.000000
# 4 0.000000 0.000000 0.000000 0.030116 0.000000 -0.030824
# 5 0.000555 0.003915 -0.002872 0.000000 0.036691 0.000000
# 6 0.000000 0.000000 0.000000 -0.030824 0.000000 0.122643
#
#
# Mechanical properties :
#
#
# Convention : Reuss Voigt Hill
#
# Bulk Modulus (GPa) = 59.30616 69.41528 64.36072
# Shear Modulus (GPa) = 22.03426 41.13102 31.58264
#
# Velocity S-wave (km/s) = 3.13852 4.28806 3.75751
# Velocity P-wave (km/s) = 6.29653 7.45308 6.89908
#
# Compressibility (1/GPa) = 0.01686165
#
# Stress axis : x y z
#
# Youngs Moduli (GPa) = 108.31251 101.63869 189.25466
#
# Poissons Ratio (x) = 0.02758 0.31260
# Poissons Ratio (y) = 0.02939 0.34514
# Poissons Ratio (z) = 0.17891 0.18536
#
# Static dielectric constant tensor:
#      x y z
#    x 1.693870 0.000000 0.419920 
#    y 0.000000 1.750720 0.000000 
#    z 0.419920 0.000000 0.834220 
# 
# From -- ./inp_files/260982.got.cif
#   From: 2010.05.17/outbox.cif.g08.bks.cpg/sg15_131_cif.got.tgz:260982.got - 2010.06.03 18:47:42.
