data_PCOD9298406
_publ_section_title
;
Structure prediction by ZEFSAII (Michael W. Deem and Ramdas Pophale) SiO2 
 PCOD9298406
Probable space group: C 2/C
;
_chemical_formula_sum "Si O2"
_cell_formula_units_Z 32
_cell_length_a 13.466059
_cell_length_b 7.493574
_cell_length_c 23.764444
_cell_angle_alpha 90.000000
_cell_angle_beta 148.744819
_cell_angle_gamma 90.000000
_cell_volume 1244.226545
_symmetry_space_group_name_H-M "C 2/C"
_symmetry_group_IT_number 15
_symmetry_cell_setting 'monoclinic'
loop_
_space_group_symop_operation_xyz
x,y,z
-x,y,1/2-z
-x,-y,-z
x,-y,1/2+z
1/2+x,1/2+y,z
1/2-x,1/2+y,1/2-z
1/2-x,1/2-y,-z
1/2+x,1/2-y,1/2+z
loop_
_atom_site_type_symbol
_atom_site_label
_atom_site_fract_x
_atom_site_fract_y
_atom_site_fract_z
Si Si1 0.971825 0.682086 0.070948
Si Si2 0.231024 0.646160 0.359508
Si Si3 0.668419 0.105015 0.918045
Si Si4 0.715339 0.861119 0.221023
O O1 0.836640 0.580658 0.049947
O O2 0.077391 0.848600 0.151038
O O3 0.143370 0.532568 0.150497
O O4 0.859826 0.724720 0.960475
O O5 0.256923 0.451006 0.401378
O O6 0.289400 0.694844 0.324651
O O7 0.000000 0.680146 0.250000
O O8 0.443811 0.153349 0.807110
O O9 0.750000 0.250000 0.000000
#
# Coordination Sequence:
#
# PCOD9298406 Si02
#       4
#     8   8   8   8
#     4  10  24  44  69 105 153 190 246 320 361 450
#     4  12  23  46  74 104 145 202 246 303 386 442
#     4  10  25  43  66 103 142 195 246 305 369 444
#     4  10  24  44  70 107 144 200 244 308 381 433
#
# _framework density 25.718791
#
# number of rings (size 3 to 8) (size 9 to 14) (size 15 to 20)
#    1.500    0.000    2.500    1.500    3.500    1.000 
#    4.500    1.250    0.000    0.000    0.000    0.000 
#    0.000    0.000    0.000    0.000    0.000    0.000 
#
# Total GULP energy -89262.926182 kJ/mol
# GULP energy per Si atom -5578.932886 kJ/mol
# Density = 2.566025 g / cm^3
# Si number density = 25.718791 Si / 1000 Ang^3
#
#
#
# Elastic Constant Matrix: (Units=GPa)
#
#
# Indices 1 2 3 4 5 6 
#
# 1 91.0883 36.7517 22.9934 0.0000 -17.7474 0.0000
# 2 36.7517 113.8733 59.0355 0.0000 0.6470 0.0000
# 3 22.9934 59.0355 195.0855 0.0000 -16.7507 0.0000
# 4 0.0000 0.0000 0.0000 53.3069 0.0000 0.9388
# 5 -17.7474 0.6470 -16.7507 0.0000 43.8757 0.0000
# 6 0.0000 0.0000 0.0000 0.9388 0.0000 50.1551
#
#
#
# Elastic Compliance Matrix: (Units=1/GPa)
#
#
# Indices 1 2 3 4 5 6 
#
# 1 0.013924 -0.004666 0.000269 0.000000 0.005804 0.000000
# 2 -0.004666 0.012064 -0.003389 0.000000 -0.003359 0.000000
# 3 0.000269 -0.003389 0.006341 0.000000 0.002580 0.000000
# 4 0.000000 0.000000 0.000000 0.018765 0.000000 -0.000351
# 5 0.005804 -0.003359 0.002580 0.000000 0.026174 0.000000
# 6 0.000000 0.000000 0.000000 -0.000351 0.000000 0.019945
#
#
# Mechanical properties :
#
#
# Convention : Reuss Voigt Hill
#
# Bulk Modulus (GPa) = 59.67772 70.84534 65.26153
# Shear Modulus (GPa) = 42.24005 48.21865 45.22935
#
# Velocity S-wave (km/s) = 4.05703 4.33464 4.19813
# Velocity P-wave (km/s) = 6.72311 7.25659 6.99494
#
# Compressibility (1/GPa) = 0.01675667
#
# Stress axis : x y z
#
# Youngs Moduli (GPa) = 71.81871 82.89218 157.69571
#
# Poissons Ratio (x) = 0.38681 -0.04247
# Poissons Ratio (y) = 0.33514 0.53445
# Poissons Ratio (z) = -0.01934 0.28093
#
# Static dielectric constant tensor:
#      x y z
#    x 2.103810 0.000000 0.062950 
#    y 0.000000 2.159060 0.000000 
#    z 0.062950 0.000000 2.042450 
# 
# From -- ./inp_files/272983.got.cif
#   From: 2010.05.17/outbox.cif.g08.bks.cpg/sg15_137_cif.got.tgz:272983.got - 2010.06.03 18:47:42.
