data_PCOD9298162
_publ_section_title
;
Structure prediction by ZEFSAII (Michael W. Deem and Ramdas Pophale) SiO2 
 PCOD9298162
Probable space group: C 2/C
;
_chemical_formula_sum "Si O2"
_cell_formula_units_Z 40
_cell_length_a 5.030096
_cell_length_b 26.861718
_cell_length_c 13.874594
_cell_angle_alpha 90.000000
_cell_angle_beta 113.630326
_cell_angle_gamma 90.000000
_cell_volume 1717.502038
_symmetry_space_group_name_H-M "C 2/C"
_symmetry_group_IT_number 15
_symmetry_cell_setting 'monoclinic'
loop_
_space_group_symop_operation_xyz
x,y,z
-x,y,1/2-z
-x,-y,-z
x,-y,1/2+z
1/2+x,1/2+y,z
1/2-x,1/2+y,1/2-z
1/2-x,1/2-y,-z
1/2+x,1/2-y,1/2+z
loop_
_atom_site_type_symbol
_atom_site_label
_atom_site_fract_x
_atom_site_fract_y
_atom_site_fract_z
Si Si1 0.323814 0.130285 0.822226
Si Si2 0.715332 0.552789 0.147779
Si Si3 0.276517 0.468736 0.071294
Si Si4 0.266894 0.328689 0.851648
Si Si5 0.891499 0.300067 0.976348
O O1 0.500000 0.123786 0.750000
O O2 0.283732 0.077000 0.867790
O O3 0.000000 0.149805 0.750000
O O4 0.507075 0.165729 0.919542
O O5 0.490183 0.510015 0.144054
O O6 0.719248 0.611874 0.163097
O O7 0.000000 0.536844 0.250000
O O8 0.644352 0.552936 0.021971
O O9 0.000000 0.500000 0.000000
O O10 0.601224 0.317159 0.878850
O O11 0.000000 0.308404 0.750000
O O12 0.163640 0.307683 0.942134
O O13 0.750000 0.250000 0.000000
#
# Coordination Sequence:
#
# PCOD9298162 Si02
#       5
#     8   8   8   8   8
#     4  12  29  48  73 106 156 203 250 312 383 453
#     4  10  24  43  71 105 142 190 244 300 362 436
#     4  11  25  42  70 103 148 192 251 294 365 437
#     4  11  24  47  76 108 145 185 241 312 378 438
#     4  12  26  49  76 109 145 190 251 314 381 457
#
# _framework density 23.289639999999999
#
# number of rings (size 3 to 8) (size 9 to 14) (size 15 to 20)
#    0.000    0.800    2.000    3.600    8.400    2.400 
#    0.000    0.000    0.000    0.000    0.000    0.000 
#    0.000    0.000    0.000    0.000    0.000    0.000 
#
# Total GULP energy -111393.592415 kJ/mol
# GULP energy per Si atom -5569.679621 kJ/mol
# Density = 2.323663 g / cm^3
# Si number density = 23.289640 Si / 1000 Ang^3
#
#
#
# Elastic Constant Matrix: (Units=GPa)
#
#
# Indices 1 2 3 4 5 6 
#
# 1 108.7249 18.4529 34.9388 0.0000 5.2909 0.0000
# 2 18.4529 102.7376 20.9677 0.0000 9.9857 0.0000
# 3 34.9388 20.9677 114.4468 0.0000 1.7760 0.0000
# 4 0.0000 0.0000 0.0000-1862.6473 0.0000 3220.3038
# 5 5.2909 9.9857 1.7760 0.0000 62.5305 0.0000
# 6 0.0000 0.0000 0.0000 3220.3038 0.0000-5461.8084
#
#
#
# Elastic Compliance Matrix: (Units=1/GPa)
#
#
# Indices 1 2 3 4 5 6 
#
# 1 0.010375 -0.001206 -0.002937 0.000000 -0.000602 0.000000
# 2 -0.001206 0.010407 -0.001515 0.000000 -0.001517 0.000000
# 3 -0.002937 -0.001515 0.009909 0.000000 0.000209 0.000000
# 4 0.000000 0.000000 0.000000 0.027734 0.000000 0.016352
# 5 -0.000602 -0.001517 0.000209 0.000000 0.016279 0.000000
# 6 0.000000 0.000000 0.000000 0.016352 0.000000 0.009458
#
#
# Mechanical properties :
#
#
# Convention : Reuss Voigt Hill
#
# Bulk Modulus (GPa) = 51.61263 52.73646 52.17455
# Shear Modulus (GPa) = 49.05011 -1435.61504 -693.28247
#
# Velocity S-wave (km/s) = 4.59420 -24.85470 -17.27208
# Velocity P-wave (km/s) = 7.09588 28.30162 19.37305
#
# Compressibility (1/GPa) = 0.01937510
#
# Stress axis : x y z
#
# Youngs Moduli (GPa) = 96.38280 96.09193 100.92160
#
# Poissons Ratio (x) = 0.11585 0.29643
# Poissons Ratio (y) = 0.11620 0.15290
# Poissons Ratio (z) = 0.28310 0.14558
#
# Static dielectric constant tensor:
#      x y z
#    x 1.931950 0.000000 -0.030060 
#    y 0.000000 1.870250 0.000000 
#    z -0.030060 0.000000 1.884510 
# 
# From -- ./inp_files/130540.got.cif
#   From: 2010.05.17/outbox.cif.g08.bks.cpg/sg15_66_cif.got.tgz:130540.got - 2010.06.03 18:47:42.
