data_PCOD9298834
_publ_section_title
;
Structure prediction by ZEFSAII (Michael W. Deem and Ramdas Pophale) SiO2 
 PCOD9298834
Probable space group: C 2/C
;
_chemical_formula_sum "Si O2"
_cell_formula_units_Z 60
_cell_length_a 12.715818
_cell_length_b 13.821893
_cell_length_c 16.312908
_cell_angle_alpha 90.000000
_cell_angle_beta 79.449103
_cell_angle_gamma 90.000000
_cell_volume 2818.627338
_symmetry_space_group_name_H-M "C 2/C"
_symmetry_group_IT_number 15
_symmetry_cell_setting 'monoclinic'
loop_
_space_group_symop_operation_xyz
x,y,z
-x,y,1/2-z
-x,-y,-z
x,-y,1/2+z
1/2+x,1/2+y,z
1/2-x,1/2+y,1/2-z
1/2-x,1/2-y,-z
1/2+x,1/2-y,1/2+z
loop_
_atom_site_type_symbol
_atom_site_label
_atom_site_fract_x
_atom_site_fract_y
_atom_site_fract_z
Si Si1 0.800767 0.147699 0.518312
Si Si2 0.775106 0.541422 0.230977
Si Si3 0.608598 0.365398 0.852837
Si Si4 0.385091 0.935222 0.348236
Si Si5 0.036736 0.811964 0.043127
Si Si6 0.985461 0.371829 0.655449
Si Si7 0.500000 0.226655 0.750000
Si Si8 0.100751 0.996167 0.625866
O O1 0.750000 0.250000 0.500000
O O2 0.715402 0.088955 0.582677
O O3 0.911096 0.164322 0.550564
O O4 0.834995 0.079801 0.438927
O O5 0.726448 0.595179 0.317872
O O6 0.846928 0.458107 0.260890
O O7 0.857654 0.607146 0.167230
O O8 0.673051 0.502428 0.196663
O O9 0.587528 0.293216 0.780410
O O10 0.517698 0.448690 0.855092
O O11 0.588884 0.318118 0.944657
O O12 0.453183 0.838318 0.329079
O O13 0.453290 0.026855 0.367395
O O14 0.034669 0.709821 0.090180
O O15 0.089660 0.898271 0.087890
O O16 0.000000 0.346113 0.750000
#
# Coordination Sequence:
#
# PCOD9298834 Si02
#       8
#     8   8   8   8   8   8   4   8
#     4  11  23  41  70  95 127 175 220 272 329 398
#     4  11  21  43  67  94 131 176 220 274 327 404
#     4  11  23  41  67  99 134 166 226 275 328 397
#     4  11  23  45  64  93 133 170 219 280 327 393
#     4  11  24  43  67 100 138 176 214 285 335 398
#     4  10  24  46  64  94 136 176 227 273 332 396
#     4  12  22  42  66  94 126 174 222 272 328 384
#     4  11  22  42  64 102 129 169 221 272 340 392
#
# _framework density 21.286957999999998
#
# number of rings (size 3 to 8) (size 9 to 14) (size 15 to 20)
#    0.000    1.067    3.333    5.600    1.867    2.133 
#    4.800    5.333    0.000    0.000    0.000    0.000 
#    0.000    0.000    0.000    0.000    0.000    0.000 
#
# Total GULP energy -167568.495474 kJ/mol
# GULP energy per Si atom -5585.616516 kJ/mol
# Density = 2.123851 g / cm^3
# Si number density = 21.286958 Si / 1000 Ang^3
#
#
#
# Elastic Constant Matrix: (Units=GPa)
#
#
# Indices 1 2 3 4 5 6 
#
# 1 43.6943 29.8162 30.6487 0.0000 0.4800 0.0000
# 2 29.8162 109.7591 47.5649 0.0000 -2.8468 0.0000
# 3 30.6487 47.5649 64.2371 0.0000 -6.6279 0.0000
# 4 0.0000 0.0000 0.0000 36.5721 0.0000 -2.3334
# 5 0.4800 -2.8468 -6.6279 0.0000 25.8928 0.0000
# 6 0.0000 0.0000 0.0000 -2.3334 0.0000 24.9872
#
#
#
# Elastic Compliance Matrix: (Units=1/GPa)
#
#
# Indices 1 2 3 4 5 6 
#
# 1 0.035818 -0.003287 -0.015162 0.000000 -0.004906 0.000000
# 2 -0.003287 0.013748 -0.008678 0.000000 -0.000649 0.000000
# 3 -0.015162 -0.008678 0.029949 0.000000 0.006993 0.000000
# 4 0.000000 0.000000 0.000000 0.027507 0.000000 0.002569
# 5 -0.004906 -0.000649 0.006993 0.000000 0.040430 0.000000
# 6 0.000000 0.000000 0.000000 0.002569 0.000000 0.040260
#
#
# Mechanical properties :
#
#
# Convention : Reuss Voigt Hill
#
# Bulk Modulus (GPa) = 39.58759 48.19444 43.89102
# Shear Modulus (GPa) = 19.96906 24.80114 22.38510
#
# Velocity S-wave (km/s) = 3.06615 3.41704 3.24634
# Velocity P-wave (km/s) = 5.58323 6.18528 5.89195
#
# Compressibility (1/GPa) = 0.02526044
#
# Stress axis : x y z
#
# Youngs Moduli (GPa) = 27.91881 72.73931 33.39010
#
# Poissons Ratio (x) = 0.23907 0.50626
# Poissons Ratio (y) = 0.09176 0.28977
# Poissons Ratio (z) = 0.42331 0.63126
#
# Static dielectric constant tensor:
#      x y z
#    x 1.778160 0.000000 -0.011430 
#    y 0.000000 1.761190 0.000000 
#    z -0.011430 0.000000 1.810010 
# 
# From -- ./inp_files/204018.got.cif
#   From: 2010.05.17/outbox.cif.g08.bks.cpg/sg15_103_cif.got.tgz:204018.got - 2010.06.03 18:47:42.
