data_PCOD9298394
_publ_section_title
;
Structure prediction by ZEFSAII (Michael W. Deem and Ramdas Pophale) SiO2 
 PCOD9298394
Probable space group: C 2/C
;
_chemical_formula_sum "Si O2"
_cell_formula_units_Z 44
_cell_length_a 25.504728
_cell_length_b 6.803057
_cell_length_c 17.527964
_cell_angle_alpha 90.000000
_cell_angle_beta 42.995773
_cell_angle_gamma 90.000000
_cell_volume 2073.983264
_symmetry_space_group_name_H-M "C 2/C"
_symmetry_group_IT_number 15
_symmetry_cell_setting 'monoclinic'
loop_
_space_group_symop_operation_xyz
x,y,z
-x,y,1/2-z
-x,-y,-z
x,-y,1/2+z
1/2+x,1/2+y,z
1/2-x,1/2+y,1/2-z
1/2-x,1/2-y,-z
1/2+x,1/2-y,1/2+z
loop_
_atom_site_type_symbol
_atom_site_label
_atom_site_fract_x
_atom_site_fract_y
_atom_site_fract_z
Si Si1 0.982896 0.705754 0.852009
Si Si2 0.832988 0.221843 0.868939
Si Si3 0.500000 0.821173 0.750000
Si Si4 0.354907 0.331741 0.092567
Si Si5 0.883555 0.096735 0.196558
Si Si6 0.803882 0.500715 0.262482
O O1 0.000000 0.787027 0.750000
O O2 0.990745 0.471425 0.831724
O O3 0.042211 0.807112 0.844991
O O4 0.900655 0.760720 0.971013
O O5 0.834815 0.403420 0.807291
O O6 0.915078 0.223932 0.827959
O O7 0.837227 0.028522 0.810085
O O8 0.750000 0.250000 0.000000
O O9 0.401062 0.452864 0.107770
O O10 0.287035 0.473420 0.138335
O O11 0.325397 0.141593 0.169893
O O12 0.836083 0.283120 0.218533
#
# Coordination Sequence:
#
# PCOD9298394 Si02
#       6
#     8   8   4   8   8   8
#     4  10  24  44  69 100 138 186 224 295 348 408
#     4  11  27  43  71 102 139 186 231 292 348 418
#     4  10  24  46  64 106 140 174 238 284 352 414
#     4  11  24  42  71 100 140 181 233 286 347 421
#     4  11  24  45  66 102 137 179 234 280 353 415
#     4  11  23  44  66 103 133 178 236 285 344 416
#
# _framework density 21.215212999999999
#
# number of rings (size 3 to 8) (size 9 to 14) (size 15 to 20)
#    0.545    0.727    3.636    0.545    6.364    1.455 
#    3.273    0.000    0.000    0.000    0.000    0.000 
#    0.000    0.000    0.000    0.000    0.000    0.000 
#
# Total GULP energy -122680.856540 kJ/mol
# GULP energy per Si atom -5576.402570 kJ/mol
# Density = 2.116693 g / cm^3
# Si number density = 21.215213 Si / 1000 Ang^3
#
#
#
# Elastic Constant Matrix: (Units=GPa)
#
#
# Indices 1 2 3 4 5 6 
#
# 1 93.1799 15.8852 32.3663 0.0202 -19.4470 -0.0148
# 2 15.8852 81.7660 10.6592 0.2600 -6.3542 -0.0898
# 3 32.3663 10.6592 110.1738 0.0794 -4.4653 -0.0403
# 4 0.0202 0.2600 0.0794 307.9436 -0.0473 -56.0743
# 5 -19.4470 -6.3542 -4.4653 -0.0473 23.1732 0.0100
# 6 -0.0148 -0.0898 -0.0403 -56.0743 0.0100 33.8420
#
#
#
# Elastic Compliance Matrix: (Units=1/GPa)
#
#
# Indices 1 2 3 4 5 6 
#
# 1 0.014589 -0.001489 -0.003691 0.000003 0.011124 0.000000
# 2 -0.001489 0.012777 -0.000713 -0.000006 0.002117 0.000021
# 3 -0.003691 -0.000713 0.010176 0.000000 -0.001332 0.000008
# 4 0.000003 -0.000006 0.000000 0.004650 0.000007 0.007706
# 5 0.011124 0.002117 -0.001332 0.000007 0.052812 0.000005
# 6 0.000000 0.000021 0.000008 0.007706 0.000005 0.042317
#
#
# Mechanical properties :
#
#
# Convention : Reuss Voigt Hill
#
# Bulk Modulus (GPa) = 38.82529 44.77124 41.79826
# Shear Modulus (GPa) = 31.70717 88.07235 59.88976
#
# Velocity S-wave (km/s) = 3.87013 6.45011 5.31892
# Velocity P-wave (km/s) = 6.18959 8.75334 7.58063
#
# Compressibility (1/GPa) = 0.02575641
#
# Stress axis : x y z
#
# Youngs Moduli (GPa) = 68.54250 78.26732 98.27120
#
# Poissons Ratio (x) = 0.11652 0.36273
# Poissons Ratio (y) = 0.10204 0.07006
# Poissons Ratio (z) = 0.25300 0.05580
#
# Static dielectric constant tensor:
#      x y z
#    x 1.848670 -0.000010 -0.050980 
#    y -0.000010 1.760970 0.000000 
#    z -0.050980 0.000000 1.765770 
# 
# From -- ./inp_files/218481.got.cif
#   From: 2010.05.17/outbox.cif.g08.bks.cpg/sg15_110_cif.got.tgz:218481.got - 2010.06.03 18:47:42.
