data_PCOD9298772
_publ_section_title
;
Structure prediction by ZEFSAII (Michael W. Deem and Ramdas Pophale) SiO2 
 PCOD9298772
Probable space group: C 2/C
;
_chemical_formula_sum "Si O2"
_cell_formula_units_Z 40
_cell_length_a 5.184574
_cell_length_b 15.250468
_cell_length_c 20.422751
_cell_angle_alpha 90.000000
_cell_angle_beta 104.881141
_cell_angle_gamma 90.000000
_cell_volume 1560.611034
_symmetry_space_group_name_H-M "C 2/C"
_symmetry_group_IT_number 15
_symmetry_cell_setting 'monoclinic'
loop_
_space_group_symop_operation_xyz
x,y,z
-x,y,1/2-z
-x,-y,-z
x,-y,1/2+z
1/2+x,1/2+y,z
1/2-x,1/2+y,1/2-z
1/2-x,1/2-y,-z
1/2+x,1/2-y,1/2+z
loop_
_atom_site_type_symbol
_atom_site_label
_atom_site_fract_x
_atom_site_fract_y
_atom_site_fract_z
Si Si1 0.766447 0.962592 0.692395
Si Si2 0.500000 0.898791 0.250000
Si Si3 0.270016 0.858247 0.934901
Si Si4 0.449498 0.699179 0.857137
Si Si5 0.871550 0.906480 0.012376
Si Si6 0.500000 0.193244 0.250000
O O1 0.541757 0.034709 0.690897
O O2 0.000000 0.004372 0.750000
O O3 0.924431 0.124434 0.589891
O O4 0.696130 0.873434 0.726270
O O5 0.267596 0.837864 0.207230
O O6 0.328091 0.769996 0.898913
O O7 0.556917 0.894104 0.979078
O O8 0.044486 0.844856 0.974647
O O9 0.176570 0.932041 0.876578
O O10 0.634600 0.752834 0.818233
O O11 0.000000 0.000000 0.000000
#
# Coordination Sequence:
#
# PCOD9298772 Si02
#       6
#     8   4   8   8   8   4
#     4  10  24  45  73  98 144 189 245 306 366 439
#     4  11  26  44  66 115 136 194 238 309 368 438
#     4  11  27  47  76 103 147 194 245 299 372 432
#     4  11  26  44  73 105 151 184 247 298 373 437
#     4  12  27  49  74 107 146 198 244 305 360 446
#     4   9  24  42  68 103 136 188 238 301 366 434
#
# _framework density 25.630987999999999
#
# number of rings (size 3 to 8) (size 9 to 14) (size 15 to 20)
#    0.000    1.200    0.000    3.000   18.200    1.600 
#    0.000    0.000    0.000    0.000    0.000    0.000 
#    0.000    0.000    0.000    0.000    0.000    0.000 
#
# Total GULP energy -111895.785447 kJ/mol
# GULP energy per Si atom -5594.789272 kJ/mol
# Density = 2.557265 g / cm^3
# Si number density = 25.630988 Si / 1000 Ang^3
#
#
#
# Elastic Constant Matrix: (Units=GPa)
#
#
# Indices 1 2 3 4 5 6 
#
# 1 68.6063 -14.2247 29.5543 0.0000 3.6672 0.0000
# 2 -14.2247 108.1480 30.5709 0.0000 -0.6633 0.0000
# 3 29.5543 30.5709 123.6362 0.0000 -1.9315 0.0000
# 4 0.0000 0.0000 0.0000 19.7584 0.0000 18.7934
# 5 3.6672 -0.6633 -1.9315 0.0000 50.0788 0.0000
# 6 0.0000 0.0000 0.0000 18.7934 0.0000 30.4166
#
#
#
# Elastic Compliance Matrix: (Units=1/GPa)
#
#
# Indices 1 2 3 4 5 6 
#
# 1 0.017668 0.003780 -0.005181 0.000000 -0.001444 0.000000
# 2 0.003780 0.010750 -0.003566 0.000000 -0.000272 0.000000
# 3 -0.005181 -0.003566 0.010220 0.000000 0.000726 0.000000
# 4 0.000000 0.000000 0.000000 0.122751 0.000000 -0.075844
# 5 -0.001444 -0.000272 0.000726 0.000000 0.020099 0.000000
# 6 0.000000 0.000000 0.000000 -0.075844 0.000000 0.079738
#
#
# Mechanical properties :
#
#
# Convention : Reuss Voigt Hill
#
# Bulk Modulus (GPa) = 34.83798 43.57682 39.20740
# Shear Modulus (GPa) = 17.81082 37.01677 27.41380
#
# Velocity S-wave (km/s) = 2.63894 3.80441 3.27396
# Velocity P-wave (km/s) = 4.78613 6.02798 5.44259
#
# Compressibility (1/GPa) = 0.02870431
#
# Stress axis : x y z
#
# Youngs Moduli (GPa) = 56.59821 93.02313 97.85049
#
# Poissons Ratio (x) = -0.35158 0.50692
# Poissons Ratio (y) = -0.21391 0.34892
# Poissons Ratio (z) = 0.29321 0.33170
#
# Static dielectric constant tensor:
#      x y z
#    x 3.307300 0.000000 0.143600 
#    y 0.000000 2.080300 0.000000 
#    z 0.143600 0.000000 1.989350 
# 
# From -- ./inp_files/285353.got.cif
#   From: 2010.05.17/outbox.cif.g08.bks.cpg/sg15_143_cif.got.tgz:285353.got - 2010.06.03 18:47:42.
