data_PCOD9298446
_publ_section_title
;
Structure prediction by ZEFSAII (Michael W. Deem and Ramdas Pophale) SiO2 
 PCOD9298446
Probable space group: C 2/C
;
_chemical_formula_sum "Si O2"
_cell_formula_units_Z 40
_cell_length_a 8.512670
_cell_length_b 17.253122
_cell_length_c 12.023629
_cell_angle_alpha 90.000000
_cell_angle_beta 105.569231
_cell_angle_gamma 90.000000
_cell_volume 1701.115117
_symmetry_space_group_name_H-M "C 2/C"
_symmetry_group_IT_number 15
_symmetry_cell_setting 'monoclinic'
loop_
_space_group_symop_operation_xyz
x,y,z
-x,y,1/2-z
-x,-y,-z
x,-y,1/2+z
1/2+x,1/2+y,z
1/2-x,1/2+y,1/2-z
1/2-x,1/2-y,-z
1/2+x,1/2-y,1/2+z
loop_
_atom_site_type_symbol
_atom_site_label
_atom_site_fract_x
_atom_site_fract_y
_atom_site_fract_z
Si Si1 0.331356 0.189430 0.273793
Si Si2 0.163083 0.326131 0.339859
Si Si3 0.669382 0.390849 0.550774
Si Si4 0.602463 0.448306 0.160736
Si Si5 0.517491 0.909478 0.524405
O O1 0.500000 0.218054 0.250000
O O2 0.276504 0.251280 0.354583
O O3 0.195063 0.170905 0.154864
O O4 0.381963 0.110024 0.344791
O O5 0.246596 0.393694 0.282656
O O6 0.000000 0.300739 0.250000
O O7 0.113649 0.366276 0.445164
O O8 0.511125 0.395608 0.442628
O O9 0.662496 0.475684 0.607527
O O10 0.833266 0.380403 0.509867
O O11 0.500000 0.469896 0.250000
O O12 0.500000 0.000000 0.500000
#
# Coordination Sequence:
#
# PCOD9298446 Si02
#       5
#     8   8   8   8   8
#     4  10  25  45  69 100 147 192 240 298 367 432
#     4  12  26  43  69 105 144 189 243 298 367 433
#     4  10  24  44  70 104 141 189 238 305 360 426
#     4  11  24  42  70 103 145 188 244 299 359 435
#     4  11  23  43  73 103 141 189 248 302 357 430
#
# _framework density 23.513987
#
# number of rings (size 3 to 8) (size 9 to 14) (size 15 to 20)
#    0.000    1.200    2.000    2.400    5.600    4.000 
#    0.000    5.000    0.000    0.000    0.000    0.000 
#    0.000    0.000    0.000    0.000    0.000    0.000 
#
# Total GULP energy -111824.965295 kJ/mol
# GULP energy per Si atom -5591.248265 kJ/mol
# Density = 2.346047 g / cm^3
# Si number density = 23.513987 Si / 1000 Ang^3
#
#
#
# Elastic Constant Matrix: (Units=GPa)
#
#
# Indices 1 2 3 4 5 6 
#
# 1 85.0572 39.8335 37.2854 0.0000 -21.8026 0.0000
# 2 39.8335 95.9342 32.7479 0.0000 -16.1266 0.0000
# 3 37.2854 32.7479 86.4578 0.0000 -17.6377 0.0000
# 4 0.0000 0.0000 0.0000 30.3894 0.0000 -3.4070
# 5 -21.8026 -16.1266 -17.6377 0.0000 34.9597 0.0000
# 6 0.0000 0.0000 0.0000 -3.4070 0.0000 14.6475
#
#
#
# Elastic Compliance Matrix: (Units=1/GPa)
#
#
# Indices 1 2 3 4 5 6 
#
# 1 0.017588 -0.004672 -0.004478 0.000000 0.006554 0.000000
# 2 -0.004672 0.013635 -0.002743 0.000000 0.001992 0.000000
# 3 -0.004478 -0.002743 0.015282 0.000000 0.003652 0.000000
# 4 0.000000 0.000000 0.000000 0.033787 0.000000 0.007859
# 5 0.006554 0.001992 0.003652 0.000000 0.035453 0.000000
# 6 0.000000 0.000000 0.000000 0.007859 0.000000 0.070099
#
#
# Mechanical properties :
#
#
# Convention : Reuss Voigt Hill
#
# Bulk Modulus (GPa) = 44.01968 54.13141 49.07554
# Shear Modulus (GPa) = 23.01987 26.50480 24.76234
#
# Velocity S-wave (km/s) = 3.13227 3.36101 3.24865
# Velocity P-wave (km/s) = 5.64294 6.17517 5.91505
#
# Compressibility (1/GPa) = 0.02271711
#
# Stress axis : x y z
#
# Youngs Moduli (GPa) = 56.85705 73.33989 65.43838
#
# Poissons Ratio (x) = 0.34268 0.29304
# Poissons Ratio (y) = 0.26566 0.17952
# Poissons Ratio (z) = 0.25461 0.20119
#
# Static dielectric constant tensor:
#      x y z
#    x 1.871330 0.000000 -0.009380 
#    y 0.000000 1.839570 0.000000 
#    z -0.009380 0.000000 1.910950 
# 
# From -- ./inp_files/76720.got.cif
#   From: 2010.05.17/outbox.cif.g08.bks.cpg/sg15_39_cif.got.tgz:76720.got - 2010.06.03 18:47:42.
