data_PCOD9298375
_publ_section_title
;
Structure prediction by ZEFSAII (Michael W. Deem and Ramdas Pophale) SiO2 
 PCOD9298375
Probable space group: C 2/C
;
_chemical_formula_sum "Si O2"
_cell_formula_units_Z 52
_cell_length_a 5.146296
_cell_length_b 18.553470
_cell_length_c 25.478408
_cell_angle_alpha 90.000000
_cell_angle_beta 105.512605
_cell_angle_gamma 90.000000
_cell_volume 2344.100376
_symmetry_space_group_name_H-M "C 2/C"
_symmetry_group_IT_number 15
_symmetry_cell_setting 'monoclinic'
loop_
_space_group_symop_operation_xyz
x,y,z
-x,y,1/2-z
-x,-y,-z
x,-y,1/2+z
1/2+x,1/2+y,z
1/2-x,1/2+y,1/2-z
1/2-x,1/2-y,-z
1/2+x,1/2-y,1/2+z
loop_
_atom_site_type_symbol
_atom_site_label
_atom_site_fract_x
_atom_site_fract_y
_atom_site_fract_z
Si Si1 0.494017 0.200140 0.494246
Si Si2 0.182712 0.597706 0.330798
Si Si3 0.714287 0.661468 0.374545
Si Si4 0.154412 0.048011 0.629091
Si Si5 0.791121 0.699260 0.689848
Si Si6 0.445864 0.050279 0.946192
Si Si7 0.000000 0.294547 0.750000
O O1 0.750000 0.250000 0.500000
O O2 0.409596 0.168389 0.433948
O O3 0.549690 0.133426 0.535392
O O4 0.250000 0.250000 0.500000
O O5 0.442330 0.622113 0.378103
O O6 0.226892 0.513514 0.326177
O O7 0.220106 0.647452 0.281143
O O8 0.896318 0.618592 0.341289
O O9 0.631387 0.740919 0.349177
O O10 0.210762 0.125308 0.658342
O O11 0.321765 0.039732 0.584312
O O12 0.841452 0.037318 0.597564
O O13 0.546026 0.740971 0.704648
O O14 0.000000 0.690918 0.750000
O O15 0.500000 0.000000 0.000000
#
# Coordination Sequence:
#
# PCOD9298375 Si02
#       7
#     8   8   8   8   8   8   4
#     4  12  24  41  68 100 132 176 226 281 331 401
#     4  11  23  43  66  93 128 174 229 263 331 401
#     4  11  23  43  67  94 131 176 225 271 330 403
#     4  12  27  43  71 104 140 182 227 289 344 420
#     4  11  24  44  67 100 139 177 225 286 350 397
#     4  12  26  48  69 102 143 182 229 285 355 407
#     4  10  24  44  68  96 132 188 224 284 332 414
#
# _framework density 22.183350999999998
#
# number of rings (size 3 to 8) (size 9 to 14) (size 15 to 20)
#    0.000    0.615    1.538    6.923    3.231    1.231 
#    0.000    0.000    0.000    0.000    0.000    0.000 
#    0.000    0.000    0.000    0.000    0.000    0.000 
#
# Total GULP energy -145250.969295 kJ/mol
# GULP energy per Si atom -5586.575742 kJ/mol
# Density = 2.213286 g / cm^3
# Si number density = 22.183351 Si / 1000 Ang^3
#
#
#
# Elastic Constant Matrix: (Units=GPa)
#
#
# Indices 1 2 3 4 5 6 
#
# 1 98.5690 25.4779 4.2939 0.0000 4.2594 0.0000
# 2 25.4779 160.4138 13.9053 0.0000 0.3484 0.0000
# 3 4.2939 13.9053 59.2583 0.0000 6.2345 0.0000
# 4 0.0000 0.0000 0.0000 50.8931 0.0000 2.1678
# 5 4.2594 0.3484 6.2345 0.0000 37.4829 0.0000
# 6 0.0000 0.0000 0.0000 2.1678 0.0000 28.7367
#
#
#
# Elastic Compliance Matrix: (Units=1/GPa)
#
#
# Indices 1 2 3 4 5 6 
#
# 1 0.010636 -0.001664 -0.000259 0.000000 -0.001150 0.000000
# 2 -0.001664 0.006625 -0.001473 0.000000 0.000373 0.000000
# 3 -0.000259 -0.001473 0.017542 0.000000 -0.002875 0.000000
# 4 0.000000 0.000000 0.000000 0.019712 0.000000 -0.001487
# 5 -0.001150 0.000373 -0.002875 0.000000 0.027284 0.000000
# 6 0.000000 0.000000 0.000000 -0.001487 0.000000 0.034911
#
#
# Mechanical properties :
#
#
# Convention : Reuss Voigt Hill
#
# Bulk Modulus (GPa) = 35.70134 45.06615 40.38374
# Shear Modulus (GPa) = 37.63888 41.72680 39.68284
#
# Velocity S-wave (km/s) = 4.12359 4.34175 4.23408
# Velocity P-wave (km/s) = 6.22902 6.74491 6.49209
#
# Compressibility (1/GPa) = 0.02801016
#
# Stress axis : x y z
#
# Youngs Moduli (GPa) = 94.01707 150.94066 57.00545
#
# Poissons Ratio (x) = 0.25122 0.01477
# Poissons Ratio (y) = 0.15648 0.08398
# Poissons Ratio (z) = 0.02437 0.22237
#
# Static dielectric constant tensor:
#      x y z
#    x 1.861500 0.000000 -0.000450 
#    y 0.000000 1.819030 0.000000 
#    z -0.000450 0.000000 1.885710 
# 
# From -- ./inp_files/285910.got.cif
#   From: 2010.05.17/outbox.cif.g08.bks.cpg/sg15_143_cif.got.tgz:285910.got - 2010.06.03 18:47:42.
