data_PCOD9298777
_publ_section_title
;
Structure prediction by ZEFSAII (Michael W. Deem and Ramdas Pophale) SiO2 
 PCOD9298777
Probable space group: C 2/C
;
_chemical_formula_sum "Si O2"
_cell_formula_units_Z 28
_cell_length_a 5.072077
_cell_length_b 14.791794
_cell_length_c 17.817781
_cell_angle_alpha 90.000000
_cell_angle_beta 116.418831
_cell_angle_gamma 90.000000
_cell_volume 1197.175159
_symmetry_space_group_name_H-M "C 2/C"
_symmetry_group_IT_number 15
_symmetry_cell_setting 'monoclinic'
loop_
_space_group_symop_operation_xyz
x,y,z
-x,y,1/2-z
-x,-y,-z
x,-y,1/2+z
1/2+x,1/2+y,z
1/2-x,1/2+y,1/2-z
1/2-x,1/2-y,-z
1/2+x,1/2-y,1/2+z
loop_
_atom_site_type_symbol
_atom_site_label
_atom_site_fract_x
_atom_site_fract_y
_atom_site_fract_z
Si Si1 0.789218 0.433235 0.425677
Si Si2 0.000000 0.972753 0.750000
Si Si3 0.321484 0.793199 0.797354
Si Si4 0.681837 0.315113 0.060457
O O1 0.559928 0.474109 0.334739
O O2 0.587142 0.384557 0.463247
O O3 0.000000 0.500000 0.500000
O O4 0.016125 0.373588 0.404021
O O5 0.729303 0.900489 0.716250
O O6 0.500000 0.760285 0.750000
O O7 0.416480 0.757051 0.888413
O O8 0.000000 0.751231 0.750000
O O9 0.750000 0.250000 0.000000
#
# Coordination Sequence:
#
# PCOD9298777 Si02
#       4
#     8   4   8   8
#     4  12  28  48  76 112 152 195 254 315 382 440
#     4  10  28  44  80 104 158 188 248 314 378 440
#     4  10  24  45  74 104 148 190 248 294 376 443
#     4  12  27  49  76 106 152 200 253 308 376 460
#
# _framework density 23.388387000000002
#
# number of rings (size 3 to 8) (size 9 to 14) (size 15 to 20)
#    0.857    0.000    0.000    5.143   10.000    2.286 
#    0.000    0.000    0.000    0.000    0.000    0.000 
#    0.000    0.000    0.000    0.000    0.000    0.000 
#
# Total GULP energy -77935.917677 kJ/mol
# GULP energy per Si atom -5566.851263 kJ/mol
# Density = 2.333515 g / cm^3
# Si number density = 23.388387 Si / 1000 Ang^3
#
#
#
# Elastic Constant Matrix: (Units=GPa)
#
#
# Indices 1 2 3 4 5 6 
#
# 1 190.9215 61.0450 34.2645 0.0000 -39.4061 0.0000
# 2 61.0450 105.5892 72.0915 0.0000 -2.9933 0.0000
# 3 34.2645 72.0915 118.0889 0.0000 -26.7168 0.0000
# 4 0.0000 0.0000 0.0000 30.4751 0.0000 15.2133
# 5 -39.4061 -2.9933 -26.7168 0.0000 43.3769 0.0000
# 6 0.0000 0.0000 0.0000 15.2133 0.0000 39.6463
#
#
#
# Elastic Compliance Matrix: (Units=1/GPa)
#
#
# Indices 1 2 3 4 5 6 
#
# 1 0.009292 -0.008408 0.004898 0.000000 0.010878 0.000000
# 2 -0.008408 0.025204 -0.016594 0.000000 -0.016119 0.000000
# 3 0.004898 -0.016594 0.020827 0.000000 0.016132 0.000000
# 4 0.000000 0.000000 0.000000 0.040589 0.000000 -0.015575
# 5 0.010878 -0.016119 0.016132 0.000000 0.041760 0.000000
# 6 0.000000 0.000000 0.000000 -0.015575 0.000000 0.031199
#
#
# Mechanical properties :
#
#
# Convention : Reuss Voigt Hill
#
# Bulk Modulus (GPa) = 66.15766 83.26682 74.71224
# Shear Modulus (GPa) = 23.35155 39.17959 31.26557
#
# Velocity S-wave (km/s) = 3.16321 4.09733 3.66019
# Velocity P-wave (km/s) = 6.45672 7.61992 7.06231
#
# Compressibility (1/GPa) = 0.01511541
#
# Stress axis : x y z
#
# Youngs Moduli (GPa) = 107.61654 39.67594 48.01379
#
# Poissons Ratio (x) = 0.33358 -0.23515
# Poissons Ratio (y) = 0.90480 0.79675
# Poissons Ratio (z) = -0.52706 0.65839
#
# Static dielectric constant tensor:
#      x y z
#    x 1.859340 0.000000 -0.090630 
#    y 0.000000 2.033210 0.000000 
#    z -0.090630 0.000000 2.966390 
# 
# From -- ./inp_files/128103.got.cif
#   From: 2010.05.17/outbox.cif.g08.bks.cpg/sg15_65_cif.got.tgz:128103.got - 2010.06.03 18:47:42.
