data_PCOD9298894
_publ_section_title
;
Structure prediction by ZEFSAII (Michael W. Deem and Ramdas Pophale) SiO2 
 PCOD9298894
Probable space group: C 2/C
;
_chemical_formula_sum "Si O2"
_cell_formula_units_Z 56
_cell_length_a 19.383164
_cell_length_b 8.294052
_cell_length_c 17.800398
_cell_angle_alpha 90.000000
_cell_angle_beta 61.792179
_cell_angle_gamma 90.000000
_cell_volume 2521.824248
_symmetry_space_group_name_H-M "C 2/C"
_symmetry_group_IT_number 15
_symmetry_cell_setting 'monoclinic'
loop_
_space_group_symop_operation_xyz
x,y,z
-x,y,1/2-z
-x,-y,-z
x,-y,1/2+z
1/2+x,1/2+y,z
1/2-x,1/2+y,1/2-z
1/2-x,1/2-y,-z
1/2+x,1/2-y,1/2+z
loop_
_atom_site_type_symbol
_atom_site_label
_atom_site_fract_x
_atom_site_fract_y
_atom_site_fract_z
Si Si1 0.577547 0.433556 0.560342
Si Si2 0.360192 0.909875 0.423066
Si Si3 0.001465 0.424313 0.916598
Si Si4 0.646692 0.052779 0.749953
Si Si5 0.720277 0.591007 0.557602
Si Si6 0.423069 0.571638 0.613450
Si Si7 0.275536 0.701414 0.776109
O O1 0.605224 0.252654 0.560417
O O2 0.630959 0.547754 0.584228
O O3 0.484571 0.450671 0.619825
O O4 0.591890 0.475701 0.465216
O O5 0.417224 0.052694 0.422012
O O6 0.360924 0.902254 0.332973
O O7 0.274326 0.947257 0.498594
O O8 0.064464 0.516125 0.832109
O O9 0.029793 0.241259 0.910017
O O10 0.000000 0.500000 0.000000
O O11 0.695098 0.884314 0.729592
O O12 0.696027 0.184106 0.770414
O O13 0.750000 0.750000 0.500000
O O14 0.733557 0.620371 0.638266
O O15 0.343233 0.605957 0.696935
#
# Coordination Sequence:
#
# PCOD9298894 Si02
#       7
#     8   8   8   8   8   8   8
#     4  11  25  44  71  99 135 178 223 281 336 404
#     4  12  24  45  69 102 135 177 227 277 337 403
#     4  11  22  45  70  98 134 180 222 276 339 401
#     4  11  26  44  69  98 137 176 228 278 333 402
#     4  12  25  45  70  98 137 179 225 278 340 399
#     4  10  24  46  68  99 137 177 225 276 338 402
#     4  11  26  45  67 100 134 179 224 280 334 401
#
# _framework density 22.206146
#
# number of rings (size 3 to 8) (size 9 to 14) (size 15 to 20)
#    0.000    0.857    2.857    3.429    4.000    1.714 
#    2.571    0.000    0.000    0.000    0.000    0.000 
#    0.000    0.000    0.000    0.000    0.000    0.000 
#
# Total GULP energy -156879.108823 kJ/mol
# GULP energy per Si atom -5602.825315 kJ/mol
# Density = 2.215560 g / cm^3
# Si number density = 22.206146 Si / 1000 Ang^3
#
#
#
# Elastic Constant Matrix: (Units=GPa)
#
#
# Indices 1 2 3 4 5 6 
#
# 1 99.1253 2.4205 19.1324 0.0000 19.8665 -0.0004
# 2 2.4205 54.1894 -11.9138 0.0000 -4.7143 -0.0006
# 3 19.1324 -11.9138 86.4142 0.0000 15.2382 0.0001
# 4 0.0000 0.0000 0.0000 12.5981 0.0000 1.1036
# 5 19.8665 -4.7143 15.2382 0.0000 38.2588 0.0000
# 6 -0.0004 -0.0006 0.0001 1.1036 0.0000 46.2832
#
#
#
# Elastic Compliance Matrix: (Units=1/GPa)
#
#
# Indices 1 2 3 4 5 6 
#
# 1 0.011562 -0.001385 -0.001787 0.000000 -0.005462 0.000000
# 2 -0.001385 0.019266 0.002600 0.000000 0.002057 0.000000
# 3 -0.001787 0.002600 0.013021 0.000000 -0.003937 0.000000
# 4 0.000000 0.000000 0.000000 0.079543 0.000000 -0.001897
# 5 -0.005462 0.002057 -0.003937 0.000000 0.030796 0.000000
# 6 0.000000 0.000000 0.000000 -0.001897 0.000000 0.021651
#
#
# Mechanical properties :
#
#
# Convention : Reuss Voigt Hill
#
# Bulk Modulus (GPa) = 23.41678 28.77858 26.09768
# Shear Modulus (GPa) = 26.14811 34.76733 30.45772
#
# Velocity S-wave (km/s) = 3.43522 3.96114 3.70752
# Velocity P-wave (km/s) = 5.12858 5.82312 5.48685
#
# Compressibility (1/GPa) = 0.04270442
#
# Stress axis : x y z
#
# Youngs Moduli (GPa) = 86.49164 51.90425 76.80075
#
# Poissons Ratio (x) = 0.07187 0.13728
# Poissons Ratio (y) = 0.11976 -0.19968
# Poissons Ratio (z) = 0.15460 -0.13495
#
# Static dielectric constant tensor:
#      x y z
#    x 1.789670 0.000000 -0.019760 
#    y 0.000000 1.838430 0.000000 
#    z -0.019760 0.000000 1.750610 
# 
# From -- ./inp_files/209510.got.cif
#   From: 2010.05.17/outbox.cif.g08.bks.cpg/sg15_105_cif.got.tgz:209510.got - 2010.06.03 18:47:42.
