data_PCOD9298427
_publ_section_title
;
Structure prediction by ZEFSAII (Michael W. Deem and Ramdas Pophale) SiO2 
 PCOD9298427
Probable space group: C 2/C
;
_chemical_formula_sum "Si O2"
_cell_formula_units_Z 32
_cell_length_a 15.643007
_cell_length_b 6.768019
_cell_length_c 11.633399
_cell_angle_alpha 90.000000
_cell_angle_beta 116.003116
_cell_angle_gamma 90.000000
_cell_volume 1106.973181
_symmetry_space_group_name_H-M "C 2/C"
_symmetry_group_IT_number 15
_symmetry_cell_setting 'monoclinic'
loop_
_space_group_symop_operation_xyz
x,y,z
-x,y,1/2-z
-x,-y,-z
x,-y,1/2+z
1/2+x,1/2+y,z
1/2-x,1/2+y,1/2-z
1/2-x,1/2-y,-z
1/2+x,1/2-y,1/2+z
loop_
_atom_site_type_symbol
_atom_site_label
_atom_site_fract_x
_atom_site_fract_y
_atom_site_fract_z
Si Si1 0.403631 0.310811 0.128709
Si Si2 0.260759 0.635336 0.104464
Si Si3 0.577793 0.107133 0.944108
Si Si4 0.613199 0.184110 0.629296
O O1 0.500000 0.363580 0.250000
O O2 0.315203 0.425306 0.126208
O O3 0.401110 0.071108 0.134879
O O4 0.395799 0.329640 0.986328
O O5 0.326860 0.748485 0.029494
O O6 0.302944 0.755140 0.235407
O O7 0.157458 0.527952 0.098485
O O8 0.484270 0.232183 0.858913
O O9 0.500000 0.000000 0.000000
#
# Coordination Sequence:
#
# PCOD9298427 Si02
#       4
#     8   8   8   8
#     4  10  24  44  70 100 135 189 231 284 354 422
#     4  12  27  39  73 104 140 178 239 289 355 421
#     4   9  23  48  69  96 143 184 226 296 343 425
#     4   9  24  44  72  99 139 183 231 293 350 411
#
# _framework density 28.907658000000001
#
# number of rings (size 3 to 8) (size 9 to 14) (size 15 to 20)
#    1.500    0.500    0.000    0.750   10.500    3.000 
#    0.000    0.000    0.000    0.000    0.000    0.000 
#    0.000    0.000    0.000    0.000    0.000    0.000 
#
# Total GULP energy -89169.060752 kJ/mol
# GULP energy per Si atom -5573.066297 kJ/mol
# Density = 2.884186 g / cm^3
# Si number density = 28.907658 Si / 1000 Ang^3
#
#
#
# Elastic Constant Matrix: (Units=GPa)
#
#
# Indices 1 2 3 4 5 6 
#
# 1 356.5374 97.0588 109.3518 0.0000 65.6283 0.0000
# 2 97.0588 134.5297 50.2725 0.0000 6.4709 0.0000
# 3 109.3518 50.2725 230.3068 0.0000 16.8403 0.0000
# 4 0.0000 0.0000 0.0000 57.2455 0.0000 -28.0340
# 5 65.6283 6.4709 16.8403 0.0000 64.2905 0.0000
# 6 0.0000 0.0000 0.0000 -28.0340 0.0000 54.9962
#
#
#
# Elastic Compliance Matrix: (Units=1/GPa)
#
#
# Indices 1 2 3 4 5 6 
#
# 1 0.004728 -0.002705 -0.001347 0.000000 -0.004201 0.000000
# 2 -0.002705 0.009650 -0.000971 0.000000 0.002045 0.000000
# 3 -0.001347 -0.000971 0.005185 0.000000 0.000115 0.000000
# 4 0.000000 0.000000 0.000000 0.023280 0.000000 0.011867
# 5 -0.004201 0.002045 0.000115 0.000000 0.019607 0.000000
# 6 0.000000 0.000000 0.000000 0.011867 0.000000 0.024232
#
#
# Mechanical properties :
#
#
# Convention : Reuss Voigt Hill
#
# Bulk Modulus (GPa) = 105.09587 137.19334 121.14460
# Shear Modulus (GPa) = 50.04958 66.28584 58.16771
#
# Velocity S-wave (km/s) = 4.16548 4.79374 4.49061
# Velocity P-wave (km/s) = 7.71813 8.84320 8.29975
#
# Compressibility (1/GPa) = 0.00951512
#
# Stress axis : x y z
#
# Youngs Moduli (GPa) = 211.52247 103.62909 192.85425
#
# Poissons Ratio (x) = 0.28036 0.25977
# Poissons Ratio (y) = 0.57225 0.18733
# Poissons Ratio (z) = 0.28492 0.10066
#
# Static dielectric constant tensor:
#      x y z
#    x 1.744900 0.000000 -0.598290 
#    y 0.000000 1.339860 0.000000 
#    z -0.598290 0.000000 1.695680 
# 
# From -- ./inp_files/102285.got.cif
#   From: 2010.05.17/outbox.cif.g08.bks.cpg/sg15_52_cif.got.tgz:102285.got - 2010.06.03 18:47:42.
