data_PCOD9298090
_publ_section_title
;
Structure prediction by ZEFSAII (Michael W. Deem and Ramdas Pophale) SiO2 
 PCOD9298090
Probable space group: C 2/C
;
_chemical_formula_sum "Si O2"
_cell_formula_units_Z 48
_cell_length_a 6.399267
_cell_length_b 18.623472
_cell_length_c 22.620079
_cell_angle_alpha 90.000000
_cell_angle_beta 128.888545
_cell_angle_gamma 90.000000
_cell_volume 2098.313385
_symmetry_space_group_name_H-M "C 2/C"
_symmetry_group_IT_number 15
_symmetry_cell_setting 'monoclinic'
loop_
_space_group_symop_operation_xyz
x,y,z
-x,y,1/2-z
-x,-y,-z
x,-y,1/2+z
1/2+x,1/2+y,z
1/2-x,1/2+y,1/2-z
1/2-x,1/2-y,-z
1/2+x,1/2-y,1/2+z
loop_
_atom_site_type_symbol
_atom_site_label
_atom_site_fract_x
_atom_site_fract_y
_atom_site_fract_z
Si Si1 0.932278 0.564454 0.118335
Si Si2 0.626752 0.319753 0.413182
Si Si3 0.500000 0.000000 0.500000
Si Si4 0.586210 0.475862 0.142755
Si Si5 0.823462 0.715418 0.449800
Si Si6 0.274083 0.803929 0.659678
Si Si7 0.500000 0.457556 0.750000
O O1 0.827341 0.507947 0.148256
O O2 0.779365 0.637697 0.107466
O O3 0.240965 0.585507 0.184117
O O4 0.909252 0.526176 0.051818
O O5 0.464675 0.391851 0.374446
O O6 0.469348 0.271947 0.432938
O O7 0.662664 0.272144 0.360519
O O8 0.931527 0.339119 0.490107
O O9 0.185441 0.013437 0.427775
O O10 0.597652 0.493929 0.213366
O O11 0.750000 0.750000 0.500000
O O12 0.533937 0.693846 0.372523
O O13 0.500000 0.818935 0.750000
#
# Coordination Sequence:
#
# PCOD9298090 Si02
#       7
#     8   8   4   8   8   8   4
#     4  11  25  47  70 103 140 187 236 297 357 431
#     4  10  24  43  68 102 138 181 227 291 353 417
#     4  10  26  42  72 102 138 178 240 288 356 430
#     4  11  24  43  71 103 137 182 232 289 356 425
#     4   9  22  43  66  97 140 181 223 288 347 416
#     4  11  25  44  71 103 140 187 238 287 357 435
#     4  10  24  46  68  98 144 184 224 290 354 418
#
# _framework density 22.875515
#
# number of rings (size 3 to 8) (size 9 to 14) (size 15 to 20)
#    0.000    1.667    0.000    2.000   10.500    8.667 
#    3.000    0.000    0.000    0.000    0.000    0.000 
#    0.000    0.000    0.000    0.000    0.000    0.000 
#
# Total GULP energy -133635.171894 kJ/mol
# GULP energy per Si atom -5568.132162 kJ/mol
# Density = 2.282345 g / cm^3
# Si number density = 22.875515 Si / 1000 Ang^3
#
#
#
# Elastic Constant Matrix: (Units=GPa)
#
#
# Indices 1 2 3 4 5 6 
#
# 1 159.9510 43.5420 64.3785 0.0000 -5.8221 0.0000
# 2 43.5420 70.8872 -0.1365 0.0000 -1.3534 0.0000
# 3 64.3785 -0.1365 119.0106 0.0000 8.1660 0.0000
# 4 0.0000 0.0000 0.0000 20.6407 0.0000 -4.3310
# 5 -5.8221 -1.3534 8.1660 0.0000 47.0034 0.0000
# 6 0.0000 0.0000 0.0000 -4.3310 0.0000 39.6140
#
#
#
# Elastic Compliance Matrix: (Units=1/GPa)
#
#
# Indices 1 2 3 4 5 6 
#
# 1 0.010376 -0.006344 -0.005764 0.000000 0.002104 0.000000
# 2 -0.006344 0.017994 0.003513 0.000000 -0.000878 0.000000
# 3 -0.005764 0.003513 0.011706 0.000000 -0.002647 0.000000
# 4 0.000000 0.000000 0.000000 0.049586 0.000000 0.005421
# 5 0.002104 -0.000878 -0.002647 0.000000 0.021970 0.000000
# 6 0.000000 0.000000 0.000000 0.005421 0.000000 0.025836
#
#
# Mechanical properties :
#
#
# Convention : Reuss Voigt Hill
#
# Bulk Modulus (GPa) = 43.69786 62.82407 53.26097
# Shear Modulus (GPa) = 30.80959 37.58927 34.19943
#
# Velocity S-wave (km/s) = 3.67391 4.05805 3.87075
# Velocity P-wave (km/s) = 6.09432 7.03421 6.58107
#
# Compressibility (1/GPa) = 0.02288442
#
# Stress axis : x y z
#
# Youngs Moduli (GPa) = 96.38059 55.57495 85.42328
#
# Poissons Ratio (x) = 0.35257 0.49240
# Poissons Ratio (y) = 0.61144 -0.30006
# Poissons Ratio (z) = 0.55556 -0.19522
#
# Static dielectric constant tensor:
#      x y z
#    x 1.821410 0.000000 0.002900 
#    y 0.000000 1.880360 0.000000 
#    z 0.002900 0.000000 1.893310 
# 
# From -- ./inp_files/261471.got.cif
#   From: 2010.05.17/outbox.cif.g08.bks.cpg/sg15_131_cif.got.tgz:261471.got - 2010.06.03 18:47:42.
