data_PCOD9298103
_publ_section_title
;
Structure prediction by ZEFSAII (Michael W. Deem and Ramdas Pophale) SiO2 
 PCOD9298103
Probable space group: C 2/C
;
_chemical_formula_sum "Si O2"
_cell_formula_units_Z 44
_cell_length_a 10.815530
_cell_length_b 15.296214
_cell_length_c 12.816000
_cell_angle_alpha 90.000000
_cell_angle_beta 86.458493
_cell_angle_gamma 90.000000
_cell_volume 2116.187260
_symmetry_space_group_name_H-M "C 2/C"
_symmetry_group_IT_number 15
_symmetry_cell_setting 'monoclinic'
loop_
_space_group_symop_operation_xyz
x,y,z
-x,y,1/2-z
-x,-y,-z
x,-y,1/2+z
1/2+x,1/2+y,z
1/2-x,1/2+y,1/2-z
1/2-x,1/2-y,-z
1/2+x,1/2-y,1/2+z
loop_
_atom_site_type_symbol
_atom_site_label
_atom_site_fract_x
_atom_site_fract_y
_atom_site_fract_z
Si Si1 0.328723 0.662968 0.978034
Si Si2 0.239804 0.956602 0.215631
Si Si3 0.500000 0.872630 0.250000
Si Si4 0.627557 0.507372 0.926742
Si Si5 0.761769 0.627803 0.078539
Si Si6 0.444450 0.761875 0.451087
O O1 0.300448 0.613055 0.871290
O O2 0.250000 0.750000 0.000000
O O3 0.308320 0.587378 0.064917
O O4 0.467743 0.695763 0.991634
O O5 0.371436 0.926728 0.257674
O O6 0.131512 0.966048 0.306728
O O7 0.260555 0.052418 0.164333
O O8 0.508184 0.814291 0.354154
O O9 0.500000 0.500000 0.000000
O O10 0.711248 0.577952 0.979785
O O11 0.665589 0.707100 0.098635
O O12 0.890046 0.671149 0.038743
#
# Coordination Sequence:
#
# PCOD9298103 Si02
#       6
#     8   8   4   8   8   8
#     4  11  24  43  69 103 136 181 233 289 339 418
#     4  11  26  43  69 104 135 191 231 277 360 412
#     4  12  24  42  72  96 144 180 230 290 352 418
#     4  11  23  45  64  99 138 180 227 284 338 410
#     4  10  24  43  68  96 138 178 228 280 345 411
#     4  11  23  44  67 101 137 181 227 295 342 405
#
# _framework density 20.792110999999998
#
# number of rings (size 3 to 8) (size 9 to 14) (size 15 to 20)
#    0.000    1.091    5.455    0.000    2.545    5.091 
#    0.000    0.000    0.000    0.000    0.000    0.000 
#    0.000    0.000    0.000    0.000    0.000    0.000 
#
# Total GULP energy -122765.689451 kJ/mol
# GULP energy per Si atom -5580.258611 kJ/mol
# Density = 2.074479 g / cm^3
# Si number density = 20.792111 Si / 1000 Ang^3
#
#
#
# Elastic Constant Matrix: (Units=GPa)
#
#
# Indices 1 2 3 4 5 6 
#
# 1 68.7957 17.9488 42.9068 0.0000 -1.8052 0.0000
# 2 17.9488 107.9784 47.7709 0.0000 -12.5543 0.0000
# 3 42.9068 47.7709 117.4144 0.0000 -12.3325 0.0000
# 4 0.0000 0.0000 0.0000 2.4400 0.0000 10.9599
# 5 -1.8052 -12.5543 -12.3325 0.0000 28.1283 0.0000
# 6 0.0000 0.0000 0.0000 10.9599 0.0000 43.1605
#
#
#
# Elastic Compliance Matrix: (Units=1/GPa)
#
#
# Indices 1 2 3 4 5 6 
#
# 1 0.018930 -0.000274 -0.007014 0.000000 -0.001983 0.000000
# 2 -0.000274 0.011575 -0.004265 0.000000 0.003279 0.000000
# 3 -0.007014 -0.004265 0.013175 0.000000 0.003423 0.000000
# 4 0.000000 0.000000 0.000000 -2.915225 0.000000 0.740272
# 5 -0.001983 0.003279 0.003423 0.000000 0.038388 0.000000
# 6 0.000000 0.000000 0.000000 0.740272 0.000000 -0.164810
#
#
# Mechanical properties :
#
#
# Convention : Reuss Voigt Hill
#
# Bulk Modulus (GPa) = 48.60690 56.82683 52.71686
# Shear Modulus (GPa) = -1.68463 27.11656 12.71596
#
# Velocity S-wave (km/s) = -0.90110 3.61525 2.47569
# Velocity P-wave (km/s) = 4.72712 6.69455 5.79494
#
# Compressibility (1/GPa) = 0.02057321
#
# Stress axis : x y z
#
# Youngs Moduli (GPa) = 52.82613 86.39602 75.90264
#
# Poissons Ratio (x) = 0.02367 0.53241
# Poissons Ratio (y) = 0.01447 0.32371
# Poissons Ratio (z) = 0.37054 0.36846
#
# Static dielectric constant tensor:
#      x y z
#    x 1.814320 0.000000 -0.034660 
#    y 0.000000 1.748600 0.000000 
#    z -0.034660 0.000000 1.810200 
# 
# From -- ./inp_files/86065.got.cif
#   From: 2010.05.17/outbox.cif.g08.bks.cpg/sg15_44_cif.got.tgz:86065.got - 2010.06.03 18:47:42.
