data_PCOD9298448
_publ_section_title
;
Structure prediction by ZEFSAII (Michael W. Deem and Ramdas Pophale) SiO2 
 PCOD9298448
Probable space group: C 2/C
;
_chemical_formula_sum "Si O2"
_cell_formula_units_Z 44
_cell_length_a 19.948535
_cell_length_b 8.948331
_cell_length_c 11.832481
_cell_angle_alpha 90.000000
_cell_angle_beta 58.487280
_cell_angle_gamma 90.000000
_cell_volume 1800.675897
_symmetry_space_group_name_H-M "C 2/C"
_symmetry_group_IT_number 15
_symmetry_cell_setting 'monoclinic'
loop_
_space_group_symop_operation_xyz
x,y,z
-x,y,1/2-z
-x,-y,-z
x,-y,1/2+z
1/2+x,1/2+y,z
1/2-x,1/2+y,1/2-z
1/2-x,1/2-y,-z
1/2+x,1/2-y,1/2+z
loop_
_atom_site_type_symbol
_atom_site_label
_atom_site_fract_x
_atom_site_fract_y
_atom_site_fract_z
Si Si1 0.589132 0.734038 0.625251
Si Si2 0.155153 0.626107 0.266315
Si Si3 0.162191 0.070669 0.083778
Si Si4 0.500000 0.294257 0.750000
Si Si5 0.722386 0.194497 0.711436
Si Si6 0.494680 0.824767 0.015840
O O1 0.500000 0.707259 0.750000
O O2 0.624407 0.874343 0.663646
O O3 0.652527 0.606693 0.597998
O O4 0.570092 0.754496 0.510231
O O5 0.230954 0.726751 0.227882
O O6 0.173129 0.454916 0.286565
O O7 0.083852 0.710967 0.395885
O O8 0.185066 0.165390 0.174906
O O9 0.072029 0.111960 0.140828
O O10 0.217490 0.124338 0.934361
O O11 0.476121 0.203890 0.661616
O O12 0.500000 0.000000 0.000000
#
# Coordination Sequence:
#
# PCOD9298448 Si02
#       6
#     8   8   8   4   8   8
#     4  10  24  44  70 105 144 186 245 303 356 423
#     4  11  24  46  70 106 148 190 242 298 363 431
#     4  11  24  44  70 105 143 192 241 297 365 427
#     4  12  24  46  74 104 146 186 246 298 354 434
#     4  11  25  43  72 107 150 190 238 293 367 442
#     4  11  26  42  75 107 143 188 241 300 364 421
#
# _framework density 24.435269000000002
#
# number of rings (size 3 to 8) (size 9 to 14) (size 15 to 20)
#    0.000    1.091    2.727    2.182    6.364    5.818 
#    0.000    0.000    0.000    0.000    0.000    0.000 
#    0.000    0.000    0.000    0.000    0.000    0.000 
#
# Total GULP energy -122847.321728 kJ/mol
# GULP energy per Si atom -5583.969169 kJ/mol
# Density = 2.437965 g / cm^3
# Si number density = 24.435269 Si / 1000 Ang^3
#
#
#
# Elastic Constant Matrix: (Units=GPa)
#
#
# Indices 1 2 3 4 5 6 
#
# 1 125.2582 58.7286 31.9360 0.0000 16.0918 0.0000
# 2 58.7286 105.9931 17.4424 0.0000 19.3307 0.0000
# 3 31.9360 17.4424 93.1897 0.0000 23.2882 0.0000
# 4 0.0000 0.0000 0.0000 22.4806 0.0000 -10.1853
# 5 16.0918 19.3307 23.2882 0.0000 48.0444 0.0000
# 6 0.0000 0.0000 0.0000 -10.1853 0.0000 52.7019
#
#
#
# Elastic Compliance Matrix: (Units=1/GPa)
#
#
# Indices 1 2 3 4 5 6 
#
# 1 0.011465 -0.005870 -0.002800 0.000000 -0.000121 0.000000
# 2 -0.005870 0.013270 0.000422 0.000000 -0.003578 0.000000
# 3 -0.002800 0.000422 0.012993 0.000000 -0.005530 0.000000
# 4 0.000000 0.000000 0.000000 0.048752 0.000000 0.009422
# 5 -0.000121 -0.003578 -0.005530 0.000000 0.024975 0.000000
# 6 0.000000 0.000000 0.000000 0.009422 0.000000 0.020796
#
#
# Mechanical properties :
#
#
# Convention : Reuss Voigt Hill
#
# Bulk Modulus (GPa) = 47.09779 60.07279 53.58529
# Shear Modulus (GPa) = 32.08754 39.06763 35.57758
#
# Velocity S-wave (km/s) = 3.62769 4.00286 3.81989
# Velocity P-wave (km/s) = 6.07151 6.78246 6.43681
#
# Compressibility (1/GPa) = 0.02123242
#
# Stress axis : x y z
#
# Youngs Moduli (GPa) = 87.22160 75.35848 76.96205
#
# Poissons Ratio (x) = 0.44233 0.21551
# Poissons Ratio (y) = 0.51196 -0.03247
# Poissons Ratio (z) = 0.24423 -0.03179
#
# Static dielectric constant tensor:
#      x y z
#    x 2.072810 0.000000 -0.175160 
#    y 0.000000 1.646860 0.000000 
#    z -0.175160 0.000000 2.252380 
# 
# From -- ./inp_files/109931.got.cif
#   From: 2010.05.17/outbox.cif.g08.bks.cpg/sg15_55_cif.got.tgz:109931.got - 2010.06.03 18:47:42.
