data_PCOD9298679
_publ_section_title
;
Structure prediction by ZEFSAII (Michael W. Deem and Ramdas Pophale) SiO2 
 PCOD9298679
Probable space group: C 2/C
;
_chemical_formula_sum "Si O2"
_cell_formula_units_Z 24
_cell_length_a 9.812393
_cell_length_b 21.655021
_cell_length_c 5.408868
_cell_angle_alpha 90.000000
_cell_angle_beta 56.988475
_cell_angle_gamma 90.000000
_cell_volume 963.772622
_symmetry_space_group_name_H-M "C 2/C"
_symmetry_group_IT_number 15
_symmetry_cell_setting 'monoclinic'
loop_
_space_group_symop_operation_xyz
x,y,z
-x,y,1/2-z
-x,-y,-z
x,-y,1/2+z
1/2+x,1/2+y,z
1/2-x,1/2+y,1/2-z
1/2-x,1/2-y,-z
1/2+x,1/2-y,1/2+z
loop_
_atom_site_type_symbol
_atom_site_label
_atom_site_fract_x
_atom_site_fract_y
_atom_site_fract_z
Si Si1 0.601473 0.221588 0.894943
Si Si2 0.679960 0.647893 0.513431
Si Si3 0.686316 0.024748 0.301873
O O1 0.500000 0.210909 0.750000
O O2 0.746747 0.174297 0.802885
O O3 0.500000 0.214589 0.250000
O O4 0.662099 0.292247 0.854253
O O5 0.500000 0.623586 0.750000
O O6 0.794861 0.596002 0.286436
O O7 0.500000 0.000000 0.500000
O O8 0.761128 0.011196 0.494607
#
# Coordination Sequence:
#
# PCOD9298679 Si02
#       3
#     8   8   8
#     4  10  24  45  73 109 146 197 236 296 375 443
#     4  10  24  45  74 110 152 186 247 308 362 433
#     4  10  24  45  69 104 138 197 246 295 361 433
#
# _framework density 24.902138000000001
#
# number of rings (size 3 to 8) (size 9 to 14) (size 15 to 20)
#    0.000    2.000    0.000    0.000    4.667   21.333 
#    0.000    0.000    0.000    0.000    0.000    0.000 
#    0.000    0.000    0.000    0.000    0.000    0.000 
#
# Total GULP energy -67166.888237 kJ/mol
# GULP energy per Si atom -5597.240686 kJ/mol
# Density = 2.484546 g / cm^3
# Si number density = 24.902138 Si / 1000 Ang^3
#
#
#
# Elastic Constant Matrix: (Units=GPa)
#
#
# Indices 1 2 3 4 5 6 
#
# 1 155.5885 51.7657 75.8965 0.0000 22.3530 0.0000
# 2 51.7657 153.9469 53.6272 0.0000 0.0025 0.0000
# 3 75.8965 53.6272 140.6154 0.0000 37.1568 0.0000
# 4 0.0000 0.0000 0.0000 25.7286 0.0000 -14.6031
# 5 22.3530 0.0025 37.1568 0.0000 58.0768 0.0000
# 6 0.0000 0.0000 0.0000 -14.6031 0.0000 32.4418
#
#
#
# Elastic Compliance Matrix: (Units=1/GPa)
#
#
# Indices 1 2 3 4 5 6 
#
# 1 0.009071 -0.001648 -0.004025 0.000000 -0.000916 0.000000
# 2 -0.001648 0.008031 -0.002817 0.000000 0.002436 0.000000
# 3 -0.004025 -0.002817 0.011974 0.000000 -0.006111 0.000000
# 4 0.000000 0.000000 0.000000 0.052205 0.000000 0.023499
# 5 -0.000916 0.002436 -0.006111 0.000000 0.021481 0.000000
# 6 0.000000 0.000000 0.000000 0.023499 0.000000 0.041402
#
#
# Mechanical properties :
#
#
# Convention : Reuss Voigt Hill
#
# Bulk Modulus (GPa) = 82.68340 90.30331 86.49336
# Shear Modulus (GPa) = 30.27081 41.17352 35.72216
#
# Velocity S-wave (km/s) = 3.49031 4.07063 3.79159
# Velocity P-wave (km/s) = 7.03694 7.64430 7.34690
#
# Compressibility (1/GPa) = 0.01209433
#
# Stress axis : x y z
#
# Youngs Moduli (GPa) = 110.24606 124.51454 83.51726
#
# Poissons Ratio (x) = 0.20517 0.33619
# Poissons Ratio (y) = 0.18166 0.23529
# Poissons Ratio (z) = 0.44379 0.35079
#
# Static dielectric constant tensor:
#      x y z
#    x 2.020260 0.000000 -0.068230 
#    y 0.000000 1.974240 0.000000 
#    z -0.068230 0.000000 2.061710 
# 
# From -- ./inp_files/3408.got.cif
#   From: 2010.05.17/outbox.cif.g08.bks.cpg/sg15_2_cif.got.tgz:3408.got - 2010.06.03 18:47:42.
