data_PCOD9298762
_publ_section_title
;
Structure prediction by ZEFSAII (Michael W. Deem and Ramdas Pophale) SiO2 
 PCOD9298762
Probable space group: C 2/C
;
_chemical_formula_sum "Si O2"
_cell_formula_units_Z 44
_cell_length_a 14.231770
_cell_length_b 26.648651
_cell_length_c 8.031253
_cell_angle_alpha 90.000000
_cell_angle_beta 46.807588
_cell_angle_gamma 90.000000
_cell_volume 2220.650924
_symmetry_space_group_name_H-M "C 2/C"
_symmetry_group_IT_number 15
_symmetry_cell_setting 'monoclinic'
loop_
_space_group_symop_operation_xyz
x,y,z
-x,y,1/2-z
-x,-y,-z
x,-y,1/2+z
1/2+x,1/2+y,z
1/2-x,1/2+y,1/2-z
1/2-x,1/2-y,-z
1/2+x,1/2-y,1/2+z
loop_
_atom_site_type_symbol
_atom_site_label
_atom_site_fract_x
_atom_site_fract_y
_atom_site_fract_z
Si Si1 0.000000 0.774667 0.250000
Si Si2 0.347498 0.451759 0.416587
Si Si3 0.500000 0.883339 0.250000
Si Si4 0.945097 0.323113 0.991139
Si Si5 0.000000 0.876932 0.750000
Si Si6 0.764570 0.941495 0.893744
Si Si7 0.342810 0.653101 0.737660
O O1 0.973207 0.735996 0.433255
O O2 0.882814 0.810334 0.339685
O O3 0.500000 0.463270 0.250000
O O4 0.291491 0.438481 0.664556
O O5 0.277359 0.500561 0.430394
O O6 0.335748 0.403656 0.312675
O O7 0.494971 0.848773 0.420641
O O8 0.372377 0.917394 0.396818
O O9 0.000000 0.345567 0.750000
O O10 0.792578 0.331343 0.174776
O O11 0.878773 0.911230 0.846349
O O12 0.045718 0.845397 0.535913
#
# Coordination Sequence:
#
# PCOD9298762 Si02
#       7
#     4   8   4   8   4   8   8
#     4  10  24  45  73 102 130 181 239 292 364 404
#     4  12  23  41  70  96 139 180 236 289 349 407
#     4  12  26  49  67 104 150 187 235 284 354 424
#     4  10  25  45  71  97 144 183 231 292 351 415
#     4  12  22  40  70  98 136 182 232 284 344 412
#     4  12  25  42  67 102 140 185 232 286 347 420
#     4  12  22  45  70 102 135 182 230 300 349 417
#
# _framework density 19.81401
#
# number of rings (size 3 to 8) (size 9 to 14) (size 15 to 20)
#    0.545    0.000    5.455    3.273    0.000    1.455 
#    1.636    1.818    0.000    0.000    0.000    0.000 
#    0.000    0.000    0.000    0.000    0.000    0.000 
#
# Total GULP energy -122962.207726 kJ/mol
# GULP energy per Si atom -5589.191260 kJ/mol
# Density = 1.976891 g / cm^3
# Si number density = 19.814010 Si / 1000 Ang^3
#
#
#
# Elastic Constant Matrix: (Units=GPa)
#
#
# Indices 1 2 3 4 5 6 
#
# 1 73.9051 40.8703 21.6913 0.0000 -12.0557 0.0000
# 2 40.8703 112.9947 32.9178 0.0000 -11.0322 0.0000
# 3 21.6913 32.9178 91.1603 0.0000 3.2921 0.0000
# 4 0.0000 0.0000 0.0000 6.5135 0.0000 -32.4101
# 5 -12.0557 -11.0322 3.2921 0.0000 45.4673 0.0000
# 6 0.0000 0.0000 0.0000 -32.4101 0.0000 -62.6995
#
#
#
# Elastic Compliance Matrix: (Units=1/GPa)
#
#
# Indices 1 2 3 4 5 6 
#
# 1 0.017805 -0.005384 -0.002422 0.000000 0.003590 0.000000
# 2 -0.005384 0.011851 -0.003059 0.000000 0.001670 0.000000
# 3 -0.002422 -0.003059 0.012734 0.000000 -0.002306 0.000000
# 4 0.000000 0.000000 0.000000 0.042980 0.000000 -0.022217
# 5 0.003590 0.001670 -0.002306 0.000000 0.023518 0.000000
# 6 0.000000 0.000000 0.000000 -0.022217 0.000000 -0.004465
#
#
# Mechanical properties :
#
#
# Convention : Reuss Voigt Hill
#
# Bulk Modulus (GPa) = 48.40154 52.11321 50.25737
# Shear Modulus (GPa) = 37.58298 10.02831 23.80565
#
# Velocity S-wave (km/s) = 4.35994 2.25216 3.46996
# Velocity P-wave (km/s) = 7.05878 5.75511 6.44002
#
# Compressibility (1/GPa) = 0.02066050
#
# Stress axis : x y z
#
# Youngs Moduli (GPa) = 56.16495 84.37816 78.53112
#
# Poissons Ratio (x) = 0.45428 0.19021
# Poissons Ratio (y) = 0.30238 0.24021
# Poissons Ratio (z) = 0.13604 0.25809
#
# Static dielectric constant tensor:
#      x y z
#    x -0.551000 0.000000 -3.387980 
#    y 0.000000 1.686300 0.000000 
#    z -3.387980 0.000000 -3.496350 
# 
# From -- ./inp_files/43375.got.cif
#   From: 2010.05.17/outbox.cif.g08.bks.cpg/sg15_22_cif.got.tgz:43375.got - 2010.06.03 18:47:42.
