data_PCOD9298108
_publ_section_title
;
Structure prediction by ZEFSAII (Michael W. Deem and Ramdas Pophale) SiO2 
 PCOD9298108
Probable space group: C 2/C
;
_chemical_formula_sum "Si O2"
_cell_formula_units_Z 48
_cell_length_a 9.224701
_cell_length_b 21.668132
_cell_length_c 12.658849
_cell_angle_alpha 90.000000
_cell_angle_beta 74.755790
_cell_angle_gamma 90.000000
_cell_volume 2441.245983
_symmetry_space_group_name_H-M "C 2/C"
_symmetry_group_IT_number 15
_symmetry_cell_setting 'monoclinic'
loop_
_space_group_symop_operation_xyz
x,y,z
-x,y,1/2-z
-x,-y,-z
x,-y,1/2+z
1/2+x,1/2+y,z
1/2-x,1/2+y,1/2-z
1/2-x,1/2-y,-z
1/2+x,1/2-y,1/2+z
loop_
_atom_site_type_symbol
_atom_site_label
_atom_site_fract_x
_atom_site_fract_y
_atom_site_fract_z
Si Si1 0.500000 0.413130 0.250000
Si Si2 0.000000 0.472061 0.750000
Si Si3 0.818320 0.603876 0.434816
Si Si4 0.851941 0.871677 0.852765
Si Si5 0.009361 0.833044 0.035081
Si Si6 0.058698 0.699566 0.359894
Si Si7 0.223874 0.509244 0.868941
O O1 0.493013 0.371998 0.146143
O O2 0.646135 0.456057 0.220376
O O3 0.863814 0.429215 0.817139
O O4 0.930850 0.509417 0.666674
O O5 0.676003 0.649000 0.461800
O O6 0.791774 0.549062 0.522232
O O7 0.962430 0.645294 0.433037
O O8 0.731028 0.822152 0.832533
O O9 0.000000 0.874185 0.750000
O O10 0.777120 0.939309 0.875524
O O11 0.900622 0.852567 0.961331
O O12 0.978454 0.762757 0.073154
O O13 0.000000 0.704764 0.250000
#
# Coordination Sequence:
#
# PCOD9298108 Si02
#       7
#     4   4   8   8   8   8   8
#     4  10  24  43  68  98 131 180 216 280 330 392
#     4  12  22  41  62  98 137 168 220 270 336 392
#     4  11  24  40  67  98 124 181 216 275 334 386
#     4  12  25  43  68 102 134 177 224 276 333 398
#     4  11  25  44  68  96 135 175 226 272 333 394
#     4  12  23  45  70  93 134 175 227 274 330 398
#     4  11  24  39  66  98 135 171 222 270 336 394
#
# _framework density 19.662091
#
# number of rings (size 3 to 8) (size 9 to 14) (size 15 to 20)
#    0.000    0.667    4.167    3.500    2.333    1.333 
#    0.000    0.000    0.000    0.000    0.000    0.000 
#    0.000    0.000    0.000    0.000    0.000    0.000 
#
# Total GULP energy -134111.969412 kJ/mol
# GULP energy per Si atom -5587.998725 kJ/mol
# Density = 1.961734 g / cm^3
# Si number density = 19.662091 Si / 1000 Ang^3
#
#
#
# Elastic Constant Matrix: (Units=GPa)
#
#
# Indices 1 2 3 4 5 6 
#
# 1 118.8288 45.6343 41.3372 0.0000 4.4100 0.0000
# 2 45.6343 114.2557 39.0122 0.0000 0.0966 0.0000
# 3 41.3372 39.0122 88.6210 0.0000 2.6880 0.0000
# 4 0.0000 0.0000 0.0000 -33.5368 0.0000 33.1179
# 5 4.4100 0.0966 2.6880 0.0000 38.5264 0.0000
# 6 0.0000 0.0000 0.0000 33.1179 0.0000 -8.5748
#
#
#
# Elastic Compliance Matrix: (Units=1/GPa)
#
#
# Indices 1 2 3 4 5 6 
#
# 1 0.010931 -0.003100 -0.003704 0.000000 -0.000985 0.000000
# 2 -0.003100 0.011183 -0.003494 0.000000 0.000571 0.000000
# 3 -0.003704 -0.003494 0.014568 0.000000 -0.000584 0.000000
# 4 0.000000 0.000000 0.000000 0.010596 0.000000 0.040926
# 5 -0.000985 0.000571 -0.000584 0.000000 0.026108 0.000000
# 6 0.000000 0.000000 0.000000 0.040926 0.000000 0.041443
#
#
# Mechanical properties :
#
#
# Convention : Reuss Voigt Hill
#
# Bulk Modulus (GPa) = 62.17067 63.74143 62.95605
# Shear Modulus (GPa) = 35.51414 12.33107 23.92261
#
# Velocity S-wave (km/s) = 4.25458 2.50701 3.49189
# Velocity P-wave (km/s) = 7.47151 6.39288 6.95314
#
# Compressibility (1/GPa) = 0.01608475
#
# Stress axis : x y z
#
# Youngs Moduli (GPa) = 91.48080 89.41997 68.64515
#
# Poissons Ratio (x) = 0.27724 0.25427
# Poissons Ratio (y) = 0.28363 0.23986
# Poissons Ratio (z) = 0.33886 0.31244
#
# Static dielectric constant tensor:
#      x y z
#    x 1.705130 0.000000 -0.009100 
#    y 0.000000 1.676630 0.000000 
#    z -0.009100 0.000000 1.705410 
# 
# From -- ./inp_files/79836.got.cif
#   From: 2010.05.17/outbox.cif.g08.bks.cpg/sg15_40_cif.got.tgz:79836.got - 2010.06.03 18:47:42.
