data_PCOD9298219
_publ_section_title
;
Structure prediction by ZEFSAII (Michael W. Deem and Ramdas Pophale) SiO2 
 PCOD9298219
Probable space group: C 2/C
;
_chemical_formula_sum "Si O2"
_cell_formula_units_Z 36
_cell_length_a 13.385030
_cell_length_b 14.625353
_cell_length_c 7.944643
_cell_angle_alpha 90.000000
_cell_angle_beta 119.333105
_cell_angle_gamma 90.000000
_cell_volume 1355.845379
_symmetry_space_group_name_H-M "C 2/C"
_symmetry_group_IT_number 15
_symmetry_cell_setting 'monoclinic'
loop_
_space_group_symop_operation_xyz
x,y,z
-x,y,1/2-z
-x,-y,-z
x,-y,1/2+z
1/2+x,1/2+y,z
1/2-x,1/2+y,1/2-z
1/2-x,1/2-y,-z
1/2+x,1/2-y,1/2+z
loop_
_atom_site_type_symbol
_atom_site_label
_atom_site_fract_x
_atom_site_fract_y
_atom_site_fract_z
Si Si1 0.500000 0.841717 0.750000
Si Si2 0.131348 0.883982 0.295037
Si Si3 0.500000 0.295003 0.750000
Si Si4 0.750000 0.250000 0.500000
Si Si5 0.679259 0.578350 0.211752
Si Si6 0.922978 0.615544 0.536079
O O1 0.388578 0.781000 0.614453
O O2 0.524834 0.898833 0.604035
O O3 0.217785 0.807754 0.296894
O O4 0.198796 0.884038 0.537204
O O5 0.000000 0.883039 0.250000
O O6 0.140733 0.973330 0.188212
O O7 0.418308 0.359295 0.790004
O O8 0.431167 0.224781 0.576126
O O9 0.793165 0.583652 0.416290
O O10 0.000000 0.578041 0.750000
#
# Coordination Sequence:
#
# PCOD9298219 Si02
#       6
#     4   8   4   4   8   8
#     4  12  24  47  77 110 154 202 256 320 383 471
#     4  12  27  46  76 110 151 202 258 321 390 467
#     4  10  24  43  79 110 154 190 256 320 389 461
#     4  12  26  46  80 110 148 204 268 314 392 478
#     4  12  25  50  71 113 156 198 257 329 389 456
#     4  10  26  45  74 115 150 204 256 313 390 473
#
# _framework density 26.551701999999999
#
# number of rings (size 3 to 8) (size 9 to 14) (size 15 to 20)
#    0.667    0.000    4.444    2.667    0.000    1.778 
#    2.000    2.222    0.000    0.000    0.000    0.000 
#    0.000    0.000    0.000    0.000    0.000    0.000 
#
# Total GULP energy -100298.460893 kJ/mol
# GULP energy per Si atom -5572.136716 kJ/mol
# Density = 2.649127 g / cm^3
# Si number density = 26.551702 Si / 1000 Ang^3
#
#
#
# Elastic Constant Matrix: (Units=GPa)
#
#
# Indices 1 2 3 4 5 6 
#
# 1 85.7410 12.9599 28.8781 0.0000 16.3674 0.0000
# 2 12.9599 67.3382 29.9588 0.0000 12.2416 0.0000
# 3 28.8781 29.9588 163.3359 0.0000 16.8140 0.0000
# 4 0.0000 0.0000 0.0000 -8.5282 0.0000 -12.5331
# 5 16.3674 12.2416 16.8140 0.0000 65.3639 0.0000
# 6 0.0000 0.0000 0.0000 -12.5331 0.0000 40.2658
#
#
#
# Elastic Compliance Matrix: (Units=1/GPa)
#
#
# Indices 1 2 3 4 5 6 
#
# 1 0.012941 -0.001226 -0.001801 0.000000 -0.002548 0.000000
# 2 -0.001226 0.016638 -0.002615 0.000000 -0.002136 0.000000
# 3 -0.001801 -0.002615 0.007009 0.000000 -0.000862 0.000000
# 4 0.000000 0.000000 0.000000 -0.080455 0.000000 -0.025043
# 5 -0.002548 -0.002136 -0.000862 0.000000 0.016559 0.000000
# 6 0.000000 0.000000 0.000000 -0.025043 0.000000 0.017040
#
#
# Mechanical properties :
#
#
# Convention : Reuss Voigt Hill
#
# Bulk Modulus (GPa) = 39.51910 51.11210 45.31560
# Shear Modulus (GPa) = 529.01962 35.72820 282.37391
#
# Velocity S-wave (km/s) = 14.13060 3.67223 10.32374
# Velocity P-wave (km/s) = 16.76747 6.10510 12.61785
#
# Compressibility (1/GPa) = 0.02530422
#
# Stress axis : x y z
#
# Youngs Moduli (GPa) = 77.27230 60.10260 142.67047
#
# Poissons Ratio (x) = 0.07371 0.25693
# Poissons Ratio (y) = 0.09476 0.37309
# Poissons Ratio (z) = 0.13916 0.15717
#
# Static dielectric constant tensor:
#      x y z
#    x 1.799370 0.000000 -0.019460 
#    y 0.000000 1.683270 0.000000 
#    z -0.019460 0.000000 2.080090 
# 
# From -- ./inp_files/39484.got.cif
#   From: 2010.05.17/outbox.cif.g08.bks.cpg/sg15_20_cif.got.tgz:39484.got - 2010.06.03 18:47:42.
