data_PCOD9298766
_publ_section_title
;
Structure prediction by ZEFSAII (Michael W. Deem and Ramdas Pophale) SiO2 
 PCOD9298766
Probable space group: C 2/C
;
_chemical_formula_sum "Si O2"
_cell_formula_units_Z 48
_cell_length_a 9.033354
_cell_length_b 25.773326
_cell_length_c 10.701982
_cell_angle_alpha 90.000000
_cell_angle_beta 121.516276
_cell_angle_gamma 90.000000
_cell_volume 2124.094695
_symmetry_space_group_name_H-M "C 2/C"
_symmetry_group_IT_number 15
_symmetry_cell_setting 'monoclinic'
loop_
_space_group_symop_operation_xyz
x,y,z
-x,y,1/2-z
-x,-y,-z
x,-y,1/2+z
1/2+x,1/2+y,z
1/2-x,1/2+y,1/2-z
1/2-x,1/2-y,-z
1/2+x,1/2-y,1/2+z
loop_
_atom_site_type_symbol
_atom_site_label
_atom_site_fract_x
_atom_site_fract_y
_atom_site_fract_z
Si Si1 0.805506 0.466158 0.762434
Si Si2 0.958198 0.608537 0.998701
Si Si3 0.500000 0.488134 0.250000
Si Si4 0.109046 0.901356 0.473372
Si Si5 0.000000 0.560925 0.750000
Si Si6 0.035796 0.196747 0.471900
Si Si7 0.789659 0.702458 0.346245
O O1 0.979444 0.442302 0.897411
O O2 0.672234 0.478444 0.814506
O O3 0.712673 0.422965 0.638188
O O4 0.846101 0.519351 0.707943
O O5 0.071844 0.656198 0.099097
O O6 0.001749 0.596313 0.874031
O O7 0.755774 0.616389 0.938743
O O8 0.513601 0.450473 0.373492
O O9 0.982583 0.855578 0.457456
O O10 0.844751 0.206375 0.327787
O O11 0.106808 0.244442 0.584063
O O12 0.168978 0.191715 0.414791
#
# Coordination Sequence:
#
# PCOD9298766 Si02
#       7
#     8   8   4   8   4   8   8
#     4  12  24  45  68 100 142 186 234 280 342 412
#     4  12  25  43  71 100 136 185 235 282 352 405
#     4  12  28  40  64 108 144 186 232 280 344 408
#     4  12  25  44  67 102 141 181 231 290 342 413
#     4  12  24  42  68 100 144 186 230 284 334 426
#     4  10  24  46  73 100 139 177 232 291 349 421
#     4  10  24  45  73 104 133 183 229 286 357 416
#
# _framework density 22.597863
#
# number of rings (size 3 to 8) (size 9 to 14) (size 15 to 20)
#    0.000    0.667    5.000    2.000    4.667    4.667 
#    0.000    0.000    0.000    0.000    0.000    0.000 
#    0.000    0.000    0.000    0.000    0.000    0.000 
#
# Total GULP energy -134319.793142 kJ/mol
# GULP energy per Si atom -5596.658048 kJ/mol
# Density = 2.254643 g / cm^3
# Si number density = 22.597863 Si / 1000 Ang^3
#
#
#
# Elastic Constant Matrix: (Units=GPa)
#
#
# Indices 1 2 3 4 5 6 
#
# 1 76.9194 34.8903 -3.4455 0.0000 9.5658 0.0000
# 2 34.8903 63.2690 3.6446 0.0000 -1.7888 0.0000
# 3 -3.4455 3.6446 47.9300 0.0000 -12.8855 0.0000
# 4 0.0000 0.0000 0.0000 20.8841 0.0000 14.3532
# 5 9.5658 -1.7888 -12.8855 0.0000 26.5873 0.0000
# 6 0.0000 0.0000 0.0000 14.3532 0.0000 45.8317
#
#
#
# Elastic Compliance Matrix: (Units=1/GPa)
#
#
# Indices 1 2 3 4 5 6 
#
# 1 0.018699 -0.010529 0.000168 0.000000 -0.007355 0.000000
# 2 -0.010529 0.021811 -0.001153 0.000000 0.004697 0.000000
# 3 0.000168 -0.001153 0.024061 0.000000 0.011523 0.000000
# 4 0.000000 0.000000 0.000000 0.061016 0.000000 -0.019108
# 5 -0.007355 0.004697 0.011523 0.000000 0.046159 0.000000
# 6 0.000000 0.000000 0.000000 -0.019108 0.000000 0.027803
#
#
# Mechanical properties :
#
#
# Convention : Reuss Voigt Hill
#
# Bulk Modulus (GPa) = 24.07160 28.69969 26.38565
# Shear Modulus (GPa) = 21.14832 28.86258 25.00545
#
# Velocity S-wave (km/s) = 3.06249 3.57771 3.33008
# Velocity P-wave (km/s) = 4.81461 5.45842 5.14659
#
# Compressibility (1/GPa) = 0.04154273
#
# Stress axis : x y z
#
# Youngs Moduli (GPa) = 53.47952 45.84815 41.56037
#
# Poissons Ratio (x) = 0.48274 -0.00696
# Poissons Ratio (y) = 0.56310 0.04790
# Poissons Ratio (z) = -0.00896 0.05285
#
# Static dielectric constant tensor:
#      x y z
#    x 1.845770 0.000000 -0.025530 
#    y 0.000000 1.793850 0.000000 
#    z -0.025530 0.000000 1.879030 
# 
# From -- ./inp_files/80965.got.cif
#   From: 2010.05.17/outbox.cif.g08.bks.cpg/sg15_41_cif.got.tgz:80965.got - 2010.06.03 18:47:42.
