data_PCOD9298119
_publ_section_title
;
Structure prediction by ZEFSAII (Michael W. Deem and Ramdas Pophale) SiO2 
 PCOD9298119
Probable space group: C 2/C
;
_chemical_formula_sum "Si O2"
_cell_formula_units_Z 48
_cell_length_a 18.868579
_cell_length_b 5.343363
_cell_length_c 24.256208
_cell_angle_alpha 90.000000
_cell_angle_beta 66.778585
_cell_angle_gamma 90.000000
_cell_volume 2247.432403
_symmetry_space_group_name_H-M "C 2/C"
_symmetry_group_IT_number 15
_symmetry_cell_setting 'monoclinic'
loop_
_space_group_symop_operation_xyz
x,y,z
-x,y,1/2-z
-x,-y,-z
x,-y,1/2+z
1/2+x,1/2+y,z
1/2-x,1/2+y,1/2-z
1/2-x,1/2-y,-z
1/2+x,1/2-y,1/2+z
loop_
_atom_site_type_symbol
_atom_site_label
_atom_site_fract_x
_atom_site_fract_y
_atom_site_fract_z
Si Si1 0.174728 0.905304 0.397478
Si Si2 0.631032 0.662923 0.526059
Si Si3 0.028485 0.892182 0.365749
Si Si4 0.726031 0.066677 0.226275
Si Si5 0.050062 0.401558 0.289075
Si Si6 0.768426 0.447349 0.541830
O O1 0.100461 0.844434 0.384129
O O2 0.229250 0.084300 0.345281
O O3 0.225597 0.667479 0.399816
O O4 0.148616 0.015343 0.464111
O O5 0.549395 0.591278 0.575006
O O6 0.696403 0.631288 0.553779
O O7 0.648218 0.942094 0.499756
O O8 0.019791 0.648798 0.329885
O O9 0.044391 0.150326 0.327939
O O10 0.767678 0.835049 0.245703
O O11 0.638406 0.972792 0.248075
O O12 0.000000 0.359201 0.250000
O O13 0.750000 0.250000 0.500000
#
# Coordination Sequence:
#
# PCOD9298119 Si02
#       6
#     8   8   8   8   8   8
#     4  11  24  42  73 102 136 187 231 295 353 419
#     4  10  24  43  69 105 144 181 232 290 360 420
#     4  12  27  46  73 104 144 181 238 297 353 427
#     4  12  25  48  72 103 141 183 243 296 346 427
#     4  12  28  49  71 106 141 192 238 294 360 416
#     4   9  22  42  64 103 135 181 228 275 354 418
#
# _framework density 21.357704999999999
#
# number of rings (size 3 to 8) (size 9 to 14) (size 15 to 20)
#    0.000    1.000    3.333    1.000   11.667    3.333 
#    0.000    0.000    0.000    0.000    0.000    0.000 
#    0.000    0.000    0.000    0.000    0.000    0.000 
#
# Total GULP energy -133969.898154 kJ/mol
# GULP energy per Si atom -5582.079090 kJ/mol
# Density = 2.130909 g / cm^3
# Si number density = 21.357705 Si / 1000 Ang^3
#
#
#
# Elastic Constant Matrix: (Units=GPa)
#
#
# Indices 1 2 3 4 5 6 
#
# 1 47.1076 -11.3871 40.6946 -0.0031 8.7488 0.0003
# 2 -11.3871 84.2817 12.3826 -0.0007 21.4708 0.0051
# 3 40.6946 12.3826 99.8945 -0.0030 0.4002 0.0008
# 4 -0.0031 -0.0007 -0.0030 29.3198 0.0023 -3.0838
# 5 8.7488 21.4708 0.4002 0.0023 40.0473 0.0022
# 6 0.0003 0.0051 0.0008 -3.0838 0.0022 23.6720
#
#
#
# Elastic Compliance Matrix: (Units=1/GPa)
#
#
# Indices 1 2 3 4 5 6 
#
# 1 0.044467 0.013114 -0.019674 0.000004 -0.016549 -0.000001
# 2 0.013114 0.017895 -0.007511 0.000002 -0.012384 -0.000002
# 3 -0.019674 -0.007511 0.018924 -0.000001 0.008136 0.000000
# 4 0.000004 0.000002 -0.000001 0.034580 -0.000004 0.004505
# 5 -0.016549 -0.012384 0.008136 -0.000004 0.035144 -0.000001
# 6 -0.000001 -0.000002 0.000000 0.004505 -0.000001 0.042831
#
#
# Mechanical properties :
#
#
# Convention : Reuss Voigt Hill
#
# Bulk Modulus (GPa) = 18.81674 34.96267 26.88971
# Shear Modulus (GPa) = 20.85958 31.24742 26.05350
#
# Velocity S-wave (km/s) = 3.12857 3.82914 3.49644
# Velocity P-wave (km/s) = 4.67761 5.99627 5.37751
#
# Compressibility (1/GPa) = 0.05314417
#
# Stress axis : x y z
#
# Youngs Moduli (GPa) = 22.48849 55.88101 52.84360
#
# Poissons Ratio (x) = -0.73283 1.03965
# Poissons Ratio (y) = -0.29492 0.39691
# Poissons Ratio (z) = 0.44244 0.41972
#
# Static dielectric constant tensor:
#      x y z
#    x 1.765460 0.000000 -0.013520 
#    y 0.000000 1.883940 0.000000 
#    z -0.013520 0.000000 1.784320 
# 
# From -- ./inp_files/275823.got.cif
#   From: 2010.05.17/outbox.cif.g08.bks.cpg/sg15_138_cif.got.tgz:275823.got - 2010.06.03 18:47:42.
