data_PCOD9298001
_publ_section_title
;
Structure prediction by ZEFSAII (Michael W. Deem and Ramdas Pophale) SiO2 
 PCOD9298001
Probable space group: C 2/C
;
_chemical_formula_sum "Si O2"
_cell_formula_units_Z 40
_cell_length_a 25.166549
_cell_length_b 5.437761
_cell_length_c 14.480451
_cell_angle_alpha 90.000000
_cell_angle_beta 45.913763
_cell_angle_gamma 90.000000
_cell_volume 1423.402655
_symmetry_space_group_name_H-M "C 2/C"
_symmetry_group_IT_number 15
_symmetry_cell_setting 'monoclinic'
loop_
_space_group_symop_operation_xyz
x,y,z
-x,y,1/2-z
-x,-y,-z
x,-y,1/2+z
1/2+x,1/2+y,z
1/2-x,1/2+y,1/2-z
1/2-x,1/2-y,-z
1/2+x,1/2-y,1/2+z
loop_
_atom_site_type_symbol
_atom_site_label
_atom_site_fract_x
_atom_site_fract_y
_atom_site_fract_z
Si Si1 0.755747 0.548360 0.612458
Si Si2 0.264539 0.037722 0.812424
Si Si3 0.399688 0.190189 0.331619
Si Si4 0.909297 0.924696 0.506377
Si Si5 0.055440 0.195401 0.326660
O O1 0.704110 0.785759 0.685872
O O2 0.789054 0.544303 0.676675
O O3 0.816834 0.613553 0.465365
O O4 0.721717 0.280191 0.645364
O O5 0.427857 0.047541 0.742720
O O6 0.174428 0.014013 0.915225
O O7 0.432701 0.244547 0.394767
O O8 0.411336 0.455199 0.267226
O O9 0.967234 0.147818 0.433787
O O10 0.918529 0.813154 0.597646
#
# Coordination Sequence:
#
# PCOD9298001 Si02
#       5
#     8   8   8   8   8
#     4   9  18  34  58  88 116 155 207 244 295 365
#     4   9  18  34  59  85 117 161 198 245 305 351
#     4  11  23  41  64  90 124 162 200 253 306 355
#     4  10  24  43  64  90 128 162 200 254 304 356
#     4  11  26  41  63  95 122 160 209 246 300 372
#
# _framework density 28.101675
#
# number of rings (size 3 to 8) (size 9 to 14) (size 15 to 20)
#    0.000    2.000    0.000    3.000    0.000   16.000 
#    0.000    2.000    0.000    0.000    0.000    0.000 
#    0.000    0.000    0.000    0.000    0.000    0.000 
#
# Total GULP energy -112045.107431 kJ/mol
# GULP energy per Si atom -5602.255372 kJ/mol
# Density = 2.803771 g / cm^3
# Si number density = 28.101675 Si / 1000 Ang^3
#
#
#
# Elastic Constant Matrix: (Units=GPa)
#
#
# Indices 1 2 3 4 5 6 
#
# 1 126.4136 77.9074 67.9675 0.0024 23.5436 -0.0019
# 2 77.9074 260.4280 73.8673 -0.0257 34.6663 0.0011
# 3 67.9675 73.8673 157.3893 0.0023 44.5579 -0.0065
# 4 0.0024 -0.0257 0.0023 59.7425 0.0017 2.4046
# 5 23.5436 34.6663 44.5579 0.0017 69.5594 0.0000
# 6 -0.0019 0.0011 -0.0065 2.4046 0.0000 38.8614
#
#
#
# Elastic Compliance Matrix: (Units=1/GPa)
#
#
# Indices 1 2 3 4 5 6 
#
# 1 0.011410 -0.002307 -0.003758 -0.000001 -0.000305 0.000000
# 2 -0.002307 0.004962 -0.001043 0.000002 -0.001024 -0.000001
# 3 -0.003758 -0.001043 0.009722 -0.000001 -0.004436 0.000002
# 4 -0.000001 0.000002 -0.000001 0.016780 -0.000001 -0.001038
# 5 -0.000305 -0.001024 -0.004436 -0.000001 0.017831 -0.000001
# 6 0.000000 -0.000001 0.000002 -0.001038 -0.000001 0.025797
#
#
# Mechanical properties :
#
#
# Convention : Reuss Voigt Hill
#
# Bulk Modulus (GPa) = 84.18866 109.30169 96.74517
# Shear Modulus (GPa) = 47.76631 55.26522 51.51576
#
# Velocity S-wave (km/s) = 4.12730 4.43947 4.28622
# Velocity P-wave (km/s) = 7.26198 8.07824 7.68096
#
# Compressibility (1/GPa) = 0.01187808
#
# Stress axis : x y z
#
# Youngs Moduli (GPa) = 87.64611 201.53342 102.86098
#
# Poissons Ratio (x) = 0.46486 0.38658
# Poissons Ratio (y) = 0.20217 0.10726
# Poissons Ratio (z) = 0.32940 0.21014
#
# Static dielectric constant tensor:
#      x y z
#    x 2.375910 0.000000 -0.070540 
#    y 0.000000 2.238220 0.000010 
#    z -0.070540 0.000010 2.169770 
# 
# From -- ./inp_files/171255.got.cif
#   From: 2010.05.17/outbox.cif.g08.bks.cpg/sg15_86_cif.got.tgz:171255.got - 2010.06.03 18:47:42.
