data_PCOD9298115
_publ_section_title
;
Structure prediction by ZEFSAII (Michael W. Deem and Ramdas Pophale) SiO2 
 PCOD9298115
Probable space group: C 2/C
;
_chemical_formula_sum "Si O2"
_cell_formula_units_Z 40
_cell_length_a 14.782854
_cell_length_b 15.073229
_cell_length_c 13.658027
_cell_angle_alpha 90.000000
_cell_angle_beta 144.992189
_cell_angle_gamma 90.000000
_cell_volume 1745.936307
_symmetry_space_group_name_H-M "C 2/C"
_symmetry_group_IT_number 15
_symmetry_cell_setting 'monoclinic'
loop_
_space_group_symop_operation_xyz
x,y,z
-x,y,1/2-z
-x,-y,-z
x,-y,1/2+z
1/2+x,1/2+y,z
1/2-x,1/2+y,1/2-z
1/2-x,1/2-y,-z
1/2+x,1/2-y,1/2+z
loop_
_atom_site_type_symbol
_atom_site_label
_atom_site_fract_x
_atom_site_fract_y
_atom_site_fract_z
Si Si1 0.618330 0.951635 0.524678
Si Si2 0.677422 0.347712 0.947688
Si Si3 0.134670 0.201369 0.790501
Si Si4 0.988671 0.368633 0.592181
Si Si5 0.142925 0.067815 0.630439
O O1 0.724412 0.908662 0.538046
O O2 0.531246 0.877508 0.513730
O O3 0.513451 0.028148 0.381352
O O4 0.725419 0.011099 0.693726
O O5 0.500000 0.345734 0.750000
O O6 0.750000 0.250000 0.000000
O O7 0.684735 0.390553 0.062419
O O8 0.093365 0.150134 0.654462
O O9 0.000000 0.175629 0.750000
O O10 0.116743 0.306053 0.755433
O O11 0.317899 0.174081 0.967002
O O12 0.000000 0.000000 0.500000
#
# Coordination Sequence:
#
# PCOD9298115 Si02
#       5
#     8   8   8   8   8
#     4  10  24  46  70 104 148 181 250 296 364 444
#     4  12  27  47  76 109 147 196 246 305 369 447
#     4  11  25  43  68 102 141 180 242 294 365 437
#     4  10  24  43  69 101 140 186 229 304 359 437
#     4  11  25  42  75 101 140 192 237 300 368 431
#
# _framework density 22.910342
#
# number of rings (size 3 to 8) (size 9 to 14) (size 15 to 20)
#    0.000    1.200    2.000    1.800    8.400   11.200 
#    0.000    0.000    0.000    0.000    0.000    0.000 
#    0.000    0.000    0.000    0.000    0.000    0.000 
#
# Total GULP energy -111715.521868 kJ/mol
# GULP energy per Si atom -5585.776093 kJ/mol
# Density = 2.285820 g / cm^3
# Si number density = 22.910342 Si / 1000 Ang^3
#
#
#
# Elastic Constant Matrix: (Units=GPa)
#
#
# Indices 1 2 3 4 5 6 
#
# 1 250.5978 94.5407 59.1756 -0.0001 -17.1815 -0.0001
# 2 94.5407 143.3048 48.0620 0.0000 -7.2610 0.0000
# 3 59.1756 48.0620 40.9589 -0.0001 -22.2015 0.0000
# 4 -0.0001 0.0000 -0.0001 41.2381 -0.0001 9.6812
# 5 -17.1815 -7.2610 -22.2015 -0.0001 34.1483 -0.0001
# 6 -0.0001 0.0000 0.0000 9.6812 -0.0001 46.9431
#
#
#
# Elastic Compliance Matrix: (Units=1/GPa)
#
#
# Indices 1 2 3 4 5 6 
#
# 1 0.006541 -0.001148 -0.009962 0.000000 -0.003430 0.000000
# 2 -0.001148 0.014298 -0.021285 0.000000 -0.011376 0.000000
# 3 -0.009962 -0.021285 0.090511 0.000000 0.049307 0.000000
# 4 0.000000 0.000000 0.000000 0.025483 0.000000 -0.005255
# 5 -0.003430 -0.011376 0.049307 0.000000 0.057196 0.000000
# 6 0.000000 0.000000 0.000000 -0.005255 0.000000 0.022386
#
#
# Mechanical properties :
#
#
# Convention : Reuss Voigt Hill
#
# Bulk Modulus (GPa) = 21.47810 93.15758 57.31784
# Shear Modulus (GPa) = 16.85056 40.00477 28.42766
#
# Velocity S-wave (km/s) = 2.71495 4.18322 3.52635
# Velocity P-wave (km/s) = 4.38442 8.00516 6.45390
#
# Compressibility (1/GPa) = 0.04655905
#
# Stress axis : x y z
#
# Youngs Moduli (GPa) = 152.88817 69.94194 11.04832
#
# Poissons Ratio (x) = 0.08027 0.11007
# Poissons Ratio (y) = 0.17545 0.23517
# Poissons Ratio (z) = 1.52314 1.48874
#
# Static dielectric constant tensor:
#      x y z
#    x 1.859470 0.000000 -0.041660 
#    y 0.000000 1.872420 0.000000 
#    z -0.041660 0.000000 1.878660 
# 
# From -- ./inp_files/154166.got.cif
#   From: 2010.05.17/outbox.cif.g08.bks.cpg/sg15_78_cif.got.tgz:154166.got - 2010.06.03 18:47:42.
