data_PCOD9298960
_publ_section_title
;
Structure prediction by ZEFSAII (Michael W. Deem and Ramdas Pophale) SiO2 
 PCOD9298960
Probable space group: C 2/C
;
_chemical_formula_sum "Si O2"
_cell_formula_units_Z 32
_cell_length_a 11.444179
_cell_length_b 22.408727
_cell_length_c 5.223079
_cell_angle_alpha 90.000000
_cell_angle_beta 117.198721
_cell_angle_gamma 90.000000
_cell_volume 1191.347684
_symmetry_space_group_name_H-M "C 2/C"
_symmetry_group_IT_number 15
_symmetry_cell_setting 'monoclinic'
loop_
_space_group_symop_operation_xyz
x,y,z
-x,y,1/2-z
-x,-y,-z
x,-y,1/2+z
1/2+x,1/2+y,z
1/2-x,1/2+y,1/2-z
1/2-x,1/2-y,-z
1/2+x,1/2-y,1/2+z
loop_
_atom_site_type_symbol
_atom_site_label
_atom_site_fract_x
_atom_site_fract_y
_atom_site_fract_z
Si Si1 0.000000 0.540884 0.250000
Si Si2 0.604149 0.631956 0.154156
Si Si3 0.781827 0.958749 0.080255
Si Si4 0.151810 0.698007 0.005298
Si Si5 0.500000 0.741832 0.750000
O O1 0.861670 0.571676 0.087701
O O2 0.000000 0.500000 0.500000
O O3 0.500000 0.606019 0.250000
O O4 0.625683 0.593239 0.923018
O O5 0.750166 0.641803 0.418801
O O6 0.547880 0.696344 0.015794
O O7 0.795041 0.008805 0.866220
O O8 0.000000 0.689361 0.750000
O O9 0.250000 0.750000 0.000000
O O10 0.116992 0.717867 0.260017
#
# Coordination Sequence:
#
# PCOD9298960 Si02
#       5
#     4   8   8   8   4
#     4   8  16  39  64  90 132 178 230 297 350 410
#     4  12  27  45  72 107 144 194 244 298 372 446
#     4  10  24  46  71 104 149 195 249 308 365 436
#     4  12  24  47  71 104 145 185 238 303 369 440
#     4  12  24  45  74 100 152 184 240 303 370 442
#
# _framework density 26.860339
#
# number of rings (size 3 to 8) (size 9 to 14) (size 15 to 20)
#    0.000    1.000    5.000    0.750    3.500    2.000 
#   13.500    0.000    0.000    0.000    0.000    0.000 
#    0.000    0.000    0.000    0.000    0.000    0.000 
#
# Total GULP energy -89420.647970 kJ/mol
# GULP energy per Si atom -5588.790498 kJ/mol
# Density = 2.679920 g / cm^3
# Si number density = 26.860339 Si / 1000 Ang^3
#
#
#
# Elastic Constant Matrix: (Units=GPa)
#
#
# Indices 1 2 3 4 5 6 
#
# 1 236.3489 39.7985 38.1199 0.0000 19.2013 0.0000
# 2 39.7985 63.1342 1.8789 0.0000 10.2755 0.0000
# 3 38.1199 1.8789 98.1831 0.0000 14.9008 0.0000
# 4 0.0000 0.0000 0.0000 96.6971 0.0000 -15.9265
# 5 19.2013 10.2755 14.9008 0.0000 69.4563 0.0000
# 6 0.0000 0.0000 0.0000 -15.9265 0.0000 47.3906
#
#
#
# Elastic Compliance Matrix: (Units=1/GPa)
#
#
# Indices 1 2 3 4 5 6 
#
# 1 0.005087 -0.003061 -0.001832 0.000000 -0.000561 0.000000
# 2 -0.003061 0.018072 0.001158 0.000000 -0.002076 0.000000
# 3 -0.001832 0.001158 0.011187 0.000000 -0.002065 0.000000
# 4 0.000000 0.000000 0.000000 0.010948 0.000000 0.003679
# 5 -0.000561 -0.002076 -0.002065 0.000000 0.015303 0.000000
# 6 0.000000 0.000000 0.000000 0.003679 0.000000 0.022338
#
#
# Mechanical properties :
#
#
# Convention : Reuss Voigt Hill
#
# Bulk Modulus (GPa) = 37.20641 61.91786 49.56214
# Shear Modulus (GPa) = 50.31983 63.90006 57.10994
#
# Velocity S-wave (km/s) = 4.33296 4.88276 4.61606
# Velocity P-wave (km/s) = 6.23816 7.40880 6.84854
#
# Compressibility (1/GPa) = 0.02687709
#
# Stress axis : x y z
#
# Youngs Moduli (GPa) = 196.56143 55.33289 89.38619
#
# Poissons Ratio (x) = 0.16939 0.16372
# Poissons Ratio (y) = 0.60173 -0.10349
# Poissons Ratio (z) = 0.36001 -0.06406
#
# Static dielectric constant tensor:
#      x y z
#    x 2.075450 0.000000 0.071150 
#    y 0.000000 2.094690 0.000000 
#    z 0.071150 0.000000 2.216050 
# 
# From -- ./inp_files/4441.got.cif
#   From: 2010.05.17/outbox.cif.g08.bks.cpg/sg15_3_cif.got.tgz:4441.got - 2010.06.03 18:47:42.
