data_PCOD9298284
_publ_section_title
;
Structure prediction by ZEFSAII (Michael W. Deem and Ramdas Pophale) SiO2 
 PCOD9298284
Probable space group: C 2/C
;
_chemical_formula_sum "Si O2"
_cell_formula_units_Z 56
_cell_length_a 12.416666
_cell_length_b 27.084109
_cell_length_c 8.451571
_cell_angle_alpha 90.000000
_cell_angle_beta 59.319820
_cell_angle_gamma 90.000000
_cell_volume 2444.387228
_symmetry_space_group_name_H-M "C 2/C"
_symmetry_group_IT_number 15
_symmetry_cell_setting 'monoclinic'
loop_
_space_group_symop_operation_xyz
x,y,z
-x,y,1/2-z
-x,-y,-z
x,-y,1/2+z
1/2+x,1/2+y,z
1/2-x,1/2+y,1/2-z
1/2-x,1/2-y,-z
1/2+x,1/2-y,1/2+z
loop_
_atom_site_type_symbol
_atom_site_label
_atom_site_fract_x
_atom_site_fract_y
_atom_site_fract_z
Si Si1 0.038605 0.891670 0.398311
Si Si2 0.445546 0.705442 0.119375
Si Si3 0.404445 0.005594 0.211001
Si Si4 0.436638 0.818097 0.049079
Si Si5 0.300876 0.421480 0.725325
Si Si6 0.799364 0.600402 0.857085
Si Si7 0.691459 0.831662 0.679229
O O1 0.181077 0.902704 0.329661
O O2 0.000000 0.904454 0.250000
O O3 0.012084 0.833255 0.450930
O O4 0.948787 0.921240 0.588228
O O5 0.500000 0.691084 0.250000
O O6 0.469538 0.763149 0.080384
O O7 0.297174 0.698877 0.195176
O O8 0.500000 0.036771 0.250000
O O9 0.276261 0.029422 0.247855
O O10 0.371092 0.951591 0.301196
O O11 0.500000 0.000000 0.000000
O O12 0.382036 0.854353 0.225330
O O13 0.564587 0.837400 0.874415
O O14 0.341016 0.813237 0.971840
O O15 0.252706 0.385295 0.623013
O O16 0.258360 0.396725 0.922663
#
# Coordination Sequence:
#
# PCOD9298284 Si02
#       7
#     8   8   8   8   8   8   8
#     4  11  26  47  74 100 142 184 237 288 352 421
#     4  11  25  44  67 101 141 189 232 297 346 422
#     4  12  27  45  73 106 145 183 228 287 350 416
#     4  11  26  40  72 102 141 185 238 290 355 420
#     4  11  25  47  72 101 144 180 233 290 351 419
#     4  12  26  46  72 105 140 187 232 293 351 420
#     4  10  24  44  65  99 143 182 233 290 353 412
#
# _framework density 22.909628999999999
#
# number of rings (size 3 to 8) (size 9 to 14) (size 15 to 20)
#    0.000    0.857    1.429    5.143   12.000    1.143 
#    0.000    0.000    0.000    0.000    0.000    0.000 
#    0.000    0.000    0.000    0.000    0.000    0.000 
#
# Total GULP energy -156365.451247 kJ/mol
# GULP energy per Si atom -5584.480402 kJ/mol
# Density = 2.285749 g / cm^3
# Si number density = 22.909629 Si / 1000 Ang^3
#
#
#
# Elastic Constant Matrix: (Units=GPa)
#
#
# Indices 1 2 3 4 5 6 
#
# 1 136.5722 9.4636 24.4115 0.0000 3.7639 0.0000
# 2 9.4636 57.5231 5.7155 0.0000 -10.4377 0.0000
# 3 24.4115 5.7155 98.8607 0.0000 4.3722 0.0000
# 4 0.0000 0.0000 0.0000 8.4253 0.0000 5.7573
# 5 3.7639 -10.4377 4.3722 0.0000 44.7789 0.0000
# 6 0.0000 0.0000 0.0000 5.7573 0.0000 21.9487
#
#
#
# Elastic Compliance Matrix: (Units=1/GPa)
#
#
# Indices 1 2 3 4 5 6 
#
# 1 0.007752 -0.001234 -0.001809 0.000000 -0.000763 0.000000
# 2 -0.001234 0.018502 -0.000964 0.000000 0.004511 0.000000
# 3 -0.001809 -0.000964 0.010667 0.000000 -0.001114 0.000000
# 4 0.000000 0.000000 0.000000 0.144611 0.000000 -0.037932
# 5 -0.000763 0.004511 -0.001114 0.000000 0.023556 0.000000
# 6 0.000000 0.000000 0.000000 -0.037932 0.000000 0.055511
#
#
# Mechanical properties :
#
#
# Convention : Reuss Voigt Hill
#
# Bulk Modulus (GPa) = 34.59535 41.34856 37.97196
# Shear Modulus (GPa) = 17.96954 31.92161 24.94558
#
# Velocity S-wave (km/s) = 2.80369 3.73684 3.30338
# Velocity P-wave (km/s) = 5.06108 6.05858 5.58215
#
# Compressibility (1/GPa) = 0.02890562
#
# Stress axis : x y z
#
# Youngs Moduli (GPa) = 128.99854 54.04934 93.74701
#
# Poissons Ratio (x) = 0.06670 0.16960
# Poissons Ratio (y) = 0.15918 0.09041
# Poissons Ratio (z) = 0.23337 0.05213
#
# Static dielectric constant tensor:
#      x y z
#    x 2.098710 0.000000 0.221820 
#    y 0.000000 1.877840 0.000000 
#    z 0.221820 0.000000 2.091530 
# 
# From -- ./inp_files/35593.got.cif
#   From: 2010.05.17/outbox.cif.g08.bks.cpg/sg15_18_cif.got.tgz:35593.got - 2010.06.03 18:47:42.
