data_PCOD9298925
_publ_section_title
;
Structure prediction by ZEFSAII (Michael W. Deem and Ramdas Pophale) SiO2 
 PCOD9298925
Probable space group: C 2/C
;
_chemical_formula_sum "Si O2"
_cell_formula_units_Z 44
_cell_length_a 20.522516
_cell_length_b 5.309261
_cell_length_c 17.691093
_cell_angle_alpha 90.000000
_cell_angle_beta 111.213345
_cell_angle_gamma 90.000000
_cell_volume 1796.994993
_symmetry_space_group_name_H-M "C 2/C"
_symmetry_group_IT_number 15
_symmetry_cell_setting 'monoclinic'
loop_
_space_group_symop_operation_xyz
x,y,z
-x,y,1/2-z
-x,-y,-z
x,-y,1/2+z
1/2+x,1/2+y,z
1/2-x,1/2+y,1/2-z
1/2-x,1/2-y,-z
1/2+x,1/2-y,1/2+z
loop_
_atom_site_type_symbol
_atom_site_label
_atom_site_fract_x
_atom_site_fract_y
_atom_site_fract_z
Si Si1 0.000000 0.430339 0.250000
Si Si2 0.873568 0.897717 0.716936
Si Si3 0.740546 0.111791 0.914035
Si Si4 0.875174 0.851459 0.371408
Si Si5 0.930734 0.341672 0.452422
Si Si6 0.888855 0.273665 0.603938
O O1 0.953888 0.586809 0.171473
O O2 0.940244 0.269778 0.266004
O O3 0.862616 0.101461 0.777423
O O4 0.893551 0.000369 0.642179
O O5 0.801711 0.763603 0.668244
O O6 0.813426 0.066852 0.902725
O O7 0.687425 0.881264 0.906255
O O8 0.750000 0.250000 0.000000
O O9 0.887684 0.555412 0.389041
O O10 0.934372 0.062387 0.417524
O O11 0.896310 0.300120 0.519229
O O12 0.000000 0.500000 0.500000
#
# Coordination Sequence:
#
# PCOD9298925 Si02
#       6
#     4   8   8   8   8   8
#     4  10  24  46  70 108 140 186 256 298 376 432
#     4  11  27  43  76 104 149 194 245 309 369 446
#     4  11  25  48  70 105 144 192 247 297 371 441
#     4  12  29  47  74 109 150 190 249 308 367 443
#     4  12  28  48  77 108 150 192 246 306 376 441
#     4  11  25  45  76 100 145 196 241 303 370 449
#
# _framework density 24.485323999999999
#
# number of rings (size 3 to 8) (size 9 to 14) (size 15 to 20)
#    0.000    0.727    1.818    3.273   17.818    1.455 
#    0.000    0.000    0.000    0.000    0.000    0.000 
#    0.000    0.000    0.000    0.000    0.000    0.000 
#
# Total GULP energy -122964.379341 kJ/mol
# GULP energy per Si atom -5589.289970 kJ/mol
# Density = 2.442959 g / cm^3
# Si number density = 24.485324 Si / 1000 Ang^3
#
#
#
# Elastic Constant Matrix: (Units=GPa)
#
#
# Indices 1 2 3 4 5 6 
#
# 1 72.0276 7.5953 33.5239 0.0000 19.5460 0.0000
# 2 7.5953 58.4855 10.0921 0.0000 2.3717 0.0000
# 3 33.5239 10.0921 71.7998 0.0000 -9.8366 0.0000
# 4 0.0000 0.0000 0.0000 45.9223 0.0000 0.2894
# 5 19.5460 2.3717 -9.8366 0.0000 41.9637 0.0000
# 6 0.0000 0.0000 0.0000 0.2894 0.0000 5.0340
#
#
#
# Elastic Compliance Matrix: (Units=1/GPa)
#
#
# Indices 1 2 3 4 5 6 
#
# 1 0.023797 -0.000274 -0.013007 0.000000 -0.014118 0.000000
# 2 -0.000274 0.017634 -0.002552 0.000000 -0.001467 0.000000
# 3 -0.013007 -0.002552 0.021913 0.000000 0.011339 0.000000
# 4 0.000000 0.000000 0.000000 0.021784 0.000000 -0.001253
# 5 -0.014118 -0.001467 0.011339 0.000000 0.033147 0.000000
# 6 0.000000 0.000000 0.000000 -0.001253 0.000000 0.198723
#
#
# Mechanical properties :
#
#
# Convention : Reuss Voigt Hill
#
# Bulk Modulus (GPa) = 31.56649 33.85951 32.71300
# Shear Modulus (GPa) = 13.91897 28.65743 21.28820
#
# Velocity S-wave (km/s) = 2.38683 3.42481 2.95180
# Velocity P-wave (km/s) = 4.52945 5.43117 5.00068
#
# Compressibility (1/GPa) = 0.03167917
#
# Stress axis : x y z
#
# Youngs Moduli (GPa) = 42.02140 56.70983 45.63542
#
# Poissons Ratio (x) = 0.01551 0.59358
# Poissons Ratio (y) = 0.01149 0.11646
# Poissons Ratio (z) = 0.54657 0.14472
#
# Static dielectric constant tensor:
#      x y z
#    x 2.015930 0.000000 0.078800 
#    y 0.000000 2.073290 0.000000 
#    z 0.078800 0.000000 1.997410 
# 
# From -- ./inp_files/212843.got.cif
#   From: 2010.05.17/outbox.cif.g08.bks.cpg/sg15_107_cif.got.tgz:212843.got - 2010.06.03 18:47:42.
