data_PCOD9298842
_publ_section_title
;
Structure prediction by ZEFSAII (Michael W. Deem and Ramdas Pophale) SiO2 
 PCOD9298842
Probable space group: C 2/C
;
_chemical_formula_sum "Si O2"
_cell_formula_units_Z 40
_cell_length_a 22.214707
_cell_length_b 6.418026
_cell_length_c 12.783183
_cell_angle_alpha 90.000000
_cell_angle_beta 106.434435
_cell_angle_gamma 90.000000
_cell_volume 1748.094608
_symmetry_space_group_name_H-M "C 2/C"
_symmetry_group_IT_number 15
_symmetry_cell_setting 'monoclinic'
loop_
_space_group_symop_operation_xyz
x,y,z
-x,y,1/2-z
-x,-y,-z
x,-y,1/2+z
1/2+x,1/2+y,z
1/2-x,1/2+y,1/2-z
1/2-x,1/2-y,-z
1/2+x,1/2-y,1/2+z
loop_
_atom_site_type_symbol
_atom_site_label
_atom_site_fract_x
_atom_site_fract_y
_atom_site_fract_z
Si Si1 0.908623 0.656067 0.723686
Si Si2 0.707567 0.627190 0.565573
Si Si3 0.604083 0.575454 0.867955
Si Si4 0.193270 0.373259 0.773655
Si Si5 0.021759 0.438984 0.897601
O O1 0.843096 0.594697 0.741090
O O2 0.919025 0.578403 0.609855
O O3 0.960044 0.512672 0.804824
O O4 0.920099 0.899471 0.724282
O O5 0.750000 0.750000 0.500000
O O6 0.646568 0.537450 0.476556
O O7 0.743139 0.428160 0.634438
O O8 0.697280 0.780336 0.659732
O O9 0.650611 0.722483 0.824071
O O10 0.547199 0.707473 0.889625
O O11 0.000000 0.500000 0.000000
#
# Coordination Sequence:
#
# PCOD9298842 Si02
#       5
#     8   8   8   8   8
#     4  10  24  46  66 105 145 185 249 295 373 439
#     4  12  25  46  75 109 146 196 251 306 387 444
#     4  11  25  47  73 109 148 200 241 313 377 446
#     4  11  26  44  71 107 148 189 244 318 365 462
#     4  10  25  43  73 104 144 188 248 306 362 443
#
# _framework density 22.882055000000001
#
# number of rings (size 3 to 8) (size 9 to 14) (size 15 to 20)
#    0.000    1.200    2.000    1.800    5.600    7.200 
#    0.000    0.000    0.000    0.000    0.000    0.000 
#    0.000    0.000    0.000    0.000    0.000    0.000 
#
# Total GULP energy -111639.332383 kJ/mol
# GULP energy per Si atom -5581.966619 kJ/mol
# Density = 2.282997 g / cm^3
# Si number density = 22.882055 Si / 1000 Ang^3
#
#
#
# Elastic Constant Matrix: (Units=GPa)
#
#
# Indices 1 2 3 4 5 6 
#
# 1 95.5240 62.8511 70.0091 0.0000 -0.7900 0.0000
# 2 62.8511 140.3086 60.9157 0.0000 0.5897 0.0000
# 3 70.0091 60.9157 144.4677 0.0000 -16.5097 0.0000
# 4 0.0000 0.0000 0.0000 39.5042 0.0000 0.8181
# 5 -0.7900 0.5897 -16.5097 0.0000 49.4244 0.0000
# 6 0.0000 0.0000 0.0000 0.8181 0.0000 49.0629
#
#
#
# Elastic Compliance Matrix: (Units=1/GPa)
#
#
# Indices 1 2 3 4 5 6 
#
# 1 0.019466 -0.005524 -0.007341 0.000000 -0.002075 0.000000
# 2 -0.005524 0.010384 -0.001794 0.000000 -0.000812 0.000000
# 3 -0.007341 -0.001794 0.011671 0.000000 0.003803 0.000000
# 4 0.000000 0.000000 0.000000 0.025323 0.000000 -0.000422
# 5 -0.002075 -0.000812 0.003803 0.000000 0.021480 0.000000
# 6 0.000000 0.000000 0.000000 -0.000422 0.000000 0.020389
#
#
# Mechanical properties :
#
#
# Convention : Reuss Voigt Hill
#
# Bulk Modulus (GPa) = 81.95468 85.31692 83.63580
# Shear Modulus (GPa) = 35.18672 40.03323 37.60998
#
# Velocity S-wave (km/s) = 3.92566 4.18730 4.05859
# Velocity P-wave (km/s) = 7.51277 7.79387 7.65461
#
# Compressibility (1/GPa) = 0.01220187
#
# Stress axis : x y z
#
# Youngs Moduli (GPa) = 51.37052 96.30179 85.68428
#
# Poissons Ratio (x) = 0.53197 0.62904
# Poissons Ratio (y) = 0.28377 0.15375
# Poissons Ratio (z) = 0.37713 0.17280
#
# Static dielectric constant tensor:
#      x y z
#    x 1.912480 0.000000 0.032590 
#    y 0.000000 1.895310 0.000000 
#    z 0.032590 0.000000 0.717050 
# 
# From -- ./inp_files/170596.got.cif
#   From: 2010.05.17/outbox.cif.g08.bks.cpg/sg15_86_cif.got.tgz:170596.got - 2010.06.03 18:47:42.
