data_PCOD9298945
_publ_section_title
;
Structure prediction by ZEFSAII (Michael W. Deem and Ramdas Pophale) SiO2 
 PCOD9298945
Probable space group: C 2/C
;
_chemical_formula_sum "Si O2"
_cell_formula_units_Z 44
_cell_length_a 4.822658
_cell_length_b 17.522116
_cell_length_c 23.067573
_cell_angle_alpha 90.000000
_cell_angle_beta 104.397375
_cell_angle_gamma 90.000000
_cell_volume 1888.065004
_symmetry_space_group_name_H-M "C 2/C"
_symmetry_group_IT_number 15
_symmetry_cell_setting 'monoclinic'
loop_
_space_group_symop_operation_xyz
x,y,z
-x,y,1/2-z
-x,-y,-z
x,-y,1/2+z
1/2+x,1/2+y,z
1/2-x,1/2+y,1/2-z
1/2-x,1/2-y,-z
1/2+x,1/2-y,1/2+z
loop_
_atom_site_type_symbol
_atom_site_label
_atom_site_fract_x
_atom_site_fract_y
_atom_site_fract_z
Si Si1 0.078595 0.822860 0.016616
Si Si2 0.500000 0.403302 0.750000
Si Si3 0.656835 0.152196 0.596722
Si Si4 0.846156 0.603769 0.098520
Si Si5 0.312367 0.776957 0.689222
Si Si6 0.362734 0.486765 0.633450
O O1 0.347042 0.869885 0.055687
O O2 0.858563 0.809691 0.058020
O O3 0.250000 0.750000 0.000000
O O4 0.880253 0.862623 0.958626
O O5 0.658836 0.344567 0.716068
O O6 0.328444 0.458379 0.697948
O O7 0.627292 0.213319 0.647070
O O8 0.814001 0.075765 0.624759
O O9 0.955567 0.673779 0.144777
O O10 0.667463 0.541455 0.125893
O O11 0.118619 0.560955 0.086710
O O12 0.500000 0.739672 0.750000
#
# Coordination Sequence:
#
# PCOD9298945 Si02
#       6
#     8   4   8   8   8   8
#     4  12  26  46  72 105 143 184 234 293 347 422
#     4  10  24  46  70  98 142 190 226 282 352 424
#     4  12  28  43  72 109 141 179 237 297 350 407
#     4  11  24  45  74  95 140 191 228 280 350 427
#     4  11  24  43  71 101 134 188 236 281 345 424
#     4  11  25  45  68 106 139 181 234 288 354 411
#
# _framework density 23.304279999999999
#
# number of rings (size 3 to 8) (size 9 to 14) (size 15 to 20)
#    0.000    0.727    3.636    2.727    6.364    4.364 
#    0.000    0.000    0.000    0.000    0.000    0.000 
#    0.000    0.000    0.000    0.000    0.000    0.000 
#
# Total GULP energy -122926.979853 kJ/mol
# GULP energy per Si atom -5587.589993 kJ/mol
# Density = 2.325124 g / cm^3
# Si number density = 23.304280 Si / 1000 Ang^3
#
#
#
# Elastic Constant Matrix: (Units=GPa)
#
#
# Indices 1 2 3 4 5 6 
#
# 1 97.4417 5.0686 26.2626 0.0000 5.8750 0.0000
# 2 5.0686 89.1701 47.8810 0.0000 -2.2998 0.0000
# 3 26.2626 47.8810 125.4869 0.0000 11.2872 0.0000
# 4 0.0000 0.0000 0.0000 20.8777 0.0000 3.5986
# 5 5.8750 -2.2998 11.2872 0.0000 32.2441 0.0000
# 6 0.0000 0.0000 0.0000 3.5986 0.0000 33.3737
#
#
#
# Elastic Compliance Matrix: (Units=1/GPa)
#
#
# Indices 1 2 3 4 5 6 
#
# 1 0.010953 0.000663 -0.002447 0.000000 -0.001092 0.000000
# 2 0.000663 0.014428 -0.005912 0.000000 0.002978 0.000000
# 3 -0.002447 -0.005912 0.011084 0.000000 -0.003856 0.000000
# 4 0.000000 0.000000 0.000000 0.048805 0.000000 -0.005262
# 5 -0.001092 0.002978 -0.003856 0.000000 0.032774 0.000000
# 6 0.000000 0.000000 0.000000 -0.005262 0.000000 0.030531
#
#
# Mechanical properties :
#
#
# Convention : Reuss Voigt Hill
#
# Bulk Modulus (GPa) = 47.45281 52.28033 49.86657
# Shear Modulus (GPa) = 29.24113 32.82488 31.03301
#
# Velocity S-wave (km/s) = 3.54609 3.75712 3.65313
# Velocity P-wave (km/s) = 6.09695 6.42680 6.26405
#
# Compressibility (1/GPa) = 0.02107357
#
# Stress axis : x y z
#
# Youngs Moduli (GPa) = 91.29530 69.30945 90.22278
#
# Poissons Ratio (x) = -0.04598 0.22080
# Poissons Ratio (y) = -0.06056 0.53338
# Poissons Ratio (z) = 0.22343 0.40975
#
# Static dielectric constant tensor:
#      x y z
#    x 1.905350 0.000000 0.020040 
#    y 0.000000 1.868050 0.000000 
#    z 0.020040 0.000000 1.967920 
# 
# From -- ./inp_files/260787.got.cif
#   From: 2010.05.17/outbox.cif.g08.bks.cpg/sg15_131_cif.got.tgz:260787.got - 2010.06.03 18:47:42.
