data_PCOD9298855
_publ_section_title
;
Structure prediction by ZEFSAII (Michael W. Deem and Ramdas Pophale) SiO2 
 PCOD9298855
Probable space group: C 2/C
;
_chemical_formula_sum "Si O2"
_cell_formula_units_Z 48
_cell_length_a 12.512781
_cell_length_b 6.996172
_cell_length_c 25.084004
_cell_angle_alpha 90.000000
_cell_angle_beta 65.764126
_cell_angle_gamma 90.000000
_cell_volume 2002.354226
_symmetry_space_group_name_H-M "C 2/C"
_symmetry_group_IT_number 15
_symmetry_cell_setting 'monoclinic'
loop_
_space_group_symop_operation_xyz
x,y,z
-x,y,1/2-z
-x,-y,-z
x,-y,1/2+z
1/2+x,1/2+y,z
1/2-x,1/2+y,1/2-z
1/2-x,1/2-y,-z
1/2+x,1/2-y,1/2+z
loop_
_atom_site_type_symbol
_atom_site_label
_atom_site_fract_x
_atom_site_fract_y
_atom_site_fract_z
Si Si1 0.597591 0.211537 0.684118
Si Si2 0.866614 0.321689 0.787262
Si Si3 0.133673 0.042729 0.080461
Si Si4 0.118479 0.310846 0.991838
Si Si5 0.801636 0.464824 0.685031
Si Si6 0.038092 0.636385 0.076542
O O1 0.500000 0.225509 0.750000
O O2 0.621575 0.986195 0.670359
O O3 0.563142 0.339490 0.640084
O O4 0.715812 0.298212 0.683722
O O5 0.825764 0.435205 0.742639
O O6 0.898240 0.180182 0.911271
O O7 0.000000 0.245296 0.750000
O O8 0.115795 0.112073 0.023562
O O9 0.228925 0.843552 0.185757
O O10 0.267185 0.112494 0.062396
O O11 0.114606 0.457146 0.042772
O O12 0.014845 0.307590 0.970839
O O13 0.926695 0.439025 0.631977
#
# Coordination Sequence:
#
# PCOD9298855 Si02
#       6
#     8   8   8   8   8   8
#     4  11  26  45  70 105 139 188 240 293 373 436
#     4  11  27  47  69 103 144 192 242 296 368 437
#     4  11  24  46  72 100 144 182 238 301 353 430
#     4  10  24  46  67 104 137 189 239 289 361 427
#     4  12  25  45  70 100 144 188 239 302 359 439
#     4  11  25  43  70 104 138 187 237 294 364 423
#
# _framework density 23.971781
#
# number of rings (size 3 to 8) (size 9 to 14) (size 15 to 20)
#    0.000    1.000    3.333    1.500    9.333    1.333 
#   12.000    0.000    0.000    0.000    0.000    0.000 
#    0.000    0.000    0.000    0.000    0.000    0.000 
#
# Total GULP energy -134142.127721 kJ/mol
# GULP energy per Si atom -5589.255322 kJ/mol
# Density = 2.391722 g / cm^3
# Si number density = 23.971781 Si / 1000 Ang^3
#
#
#
# Elastic Constant Matrix: (Units=GPa)
#
#
# Indices 1 2 3 4 5 6 
#
# 1 74.2645 38.6275 25.8893 0.0000 -2.7792 0.0000
# 2 38.6275 153.0515 59.6071 0.0000 -22.1670 0.0000
# 3 25.8893 59.6071 89.9561 0.0000 -18.4965 0.0000
# 4 0.0000 0.0000 0.0000 22.1113 0.0000 -1.2862
# 5 -2.7792 -22.1670 -18.4965 0.0000 44.0661 0.0000
# 6 0.0000 0.0000 0.0000 -1.2862 0.0000 43.7936
#
#
#
# Elastic Compliance Matrix: (Units=1/GPa)
#
#
# Indices 1 2 3 4 5 6 
#
# 1 0.016062 -0.003195 -0.002876 0.000000 -0.001801 0.000000
# 2 -0.003195 0.009635 -0.004936 0.000000 0.002574 0.000000
# 3 -0.002876 -0.004936 0.016053 0.000000 0.004074 0.000000
# 4 0.000000 0.000000 0.000000 0.045303 0.000000 0.001331
# 5 -0.001801 0.002574 0.004074 0.000000 0.025584 0.000000
# 6 0.000000 0.000000 0.000000 0.001331 0.000000 0.022873
#
#
# Mechanical properties :
#
#
# Convention : Reuss Voigt Hill
#
# Bulk Modulus (GPa) = 50.66761 62.83553 56.75157
# Shear Modulus (GPa) = 30.46872 34.87075 32.66974
#
# Velocity S-wave (km/s) = 3.56901 3.81814 3.69567
# Velocity P-wave (km/s) = 6.17787 6.76068 6.47583
#
# Compressibility (1/GPa) = 0.01973648
#
# Stress axis : x y z
#
# Youngs Moduli (GPa) = 62.25772 103.78792 62.29532
#
# Poissons Ratio (x) = 0.33155 0.17918
# Poissons Ratio (y) = 0.19888 0.30748
# Poissons Ratio (z) = 0.17907 0.51228
#
# Static dielectric constant tensor:
#      x y z
#    x 1.925210 0.000000 0.002420 
#    y 0.000000 1.947120 0.000000 
#    z 0.002420 0.000000 2.034580 
# 
# From -- ./inp_files/236542.got.cif
#   From: 2010.05.17/outbox.cif.g08.bks.cpg/sg15_119_cif.got.tgz:236542.got - 2010.06.03 18:47:42.
