data_PCOD9298516
_publ_section_title
;
Structure prediction by ZEFSAII (Michael W. Deem and Ramdas Pophale) SiO2 
 PCOD9298516
Probable space group: C 2/C
;
_chemical_formula_sum "Si O2"
_cell_formula_units_Z 48
_cell_length_a 14.315863
_cell_length_b 11.906379
_cell_length_c 17.318775
_cell_angle_alpha 90.000000
_cell_angle_beta 42.467013
_cell_angle_gamma 90.000000
_cell_volume 1993.079981
_symmetry_space_group_name_H-M "C 2/C"
_symmetry_group_IT_number 15
_symmetry_cell_setting 'monoclinic'
loop_
_space_group_symop_operation_xyz
x,y,z
-x,y,1/2-z
-x,-y,-z
x,-y,1/2+z
1/2+x,1/2+y,z
1/2-x,1/2+y,1/2-z
1/2-x,1/2-y,-z
1/2+x,1/2-y,1/2+z
loop_
_atom_site_type_symbol
_atom_site_label
_atom_site_fract_x
_atom_site_fract_y
_atom_site_fract_z
Si Si1 0.000000 0.367005 0.750000
Si Si2 0.842873 0.468400 0.074956
Si Si3 0.397647 0.716101 0.032911
Si Si4 0.250000 0.750000 0.000000
Si Si5 0.859828 0.868066 0.870991
Si Si6 0.821733 0.180127 0.569396
Si Si7 0.229927 0.537306 0.212620
O O1 0.879095 0.298357 0.865647
O O2 0.921408 0.437021 0.730506
O O3 0.830629 0.338823 0.054530
O O4 0.769684 0.548251 0.058513
O O5 0.769504 0.490710 0.201371
O O6 0.000000 0.500000 0.000000
O O7 0.359633 0.658912 0.976088
O O8 0.321996 0.649328 0.146650
O O9 0.555967 0.734378 0.955123
O O10 0.812845 0.758050 0.851224
O O11 0.000000 0.915051 0.750000
O O12 0.874509 0.831306 0.950000
O O13 0.794331 0.059442 0.621000
#
# Coordination Sequence:
#
# PCOD9298516 Si02
#       7
#     4   8   8   4   8   8   8
#     4  10  24  44  72 110 148 200 258 308 396 448
#     4  12  26  45  75 105 147 191 253 311 384 456
#     4  11  25  48  74 107 149 197 256 315 388 458
#     4  10  24  46  74 110 154 196 260 318 382 468
#     4  11  27  47  73 111 146 199 253 319 386 463
#     4  11  26  46  78 104 153 194 257 313 388 467
#     4  11  27  43  75 105 148 199 247 318 386 461
#
# _framework density 24.083328999999999
#
# number of rings (size 3 to 8) (size 9 to 14) (size 15 to 20)
#    0.000    1.000    1.667    2.500   12.833    1.333 
#    6.000    0.000    0.000    0.000    0.000    0.000 
#    0.000    0.000    0.000    0.000    0.000    0.000 
#
# Total GULP energy -133899.364580 kJ/mol
# GULP energy per Si atom -5579.140191 kJ/mol
# Density = 2.402851 g / cm^3
# Si number density = 24.083329 Si / 1000 Ang^3
#
#
#
# Elastic Constant Matrix: (Units=GPa)
#
#
# Indices 1 2 3 4 5 6 
#
# 1 120.5603 -9.3215 14.6945 0.0000 -12.9630 0.0000
# 2 -9.3215 70.3854 3.1880 0.0000 -1.2728 0.0000
# 3 14.6945 3.1880 66.6673 0.0000 1.4579 0.0000
# 4 0.0000 0.0000 0.0000 26.8965 0.0000 -7.7653
# 5 -12.9630 -1.2728 1.4579 0.0000 36.2414 0.0000
# 6 0.0000 0.0000 0.0000 -7.7653 0.0000 26.2888
#
#
#
# Elastic Compliance Matrix: (Units=1/GPa)
#
#
# Indices 1 2 3 4 5 6 
#
# 1 0.009019 0.001352 -0.002126 0.000000 0.003359 0.000000
# 2 0.001352 0.014451 -0.001011 0.000000 0.001032 0.000000
# 3 -0.002126 -0.001011 0.015548 0.000000 -0.001421 0.000000
# 4 0.000000 0.000000 0.000000 0.040646 0.000000 0.012006
# 5 0.003359 0.001032 -0.001421 0.000000 0.028888 0.000000
# 6 0.000000 0.000000 0.000000 0.012006 0.000000 0.041585
#
#
# Mechanical properties :
#
#
# Convention : Reuss Voigt Hill
#
# Bulk Modulus (GPa) = 28.21180 30.52611 29.36895
# Shear Modulus (GPa) = 30.20695 34.48882 32.34788
#
# Velocity S-wave (km/s) = 3.54541 3.78836 3.66890
# Velocity P-wave (km/s) = 5.33850 5.64255 5.49263
#
# Compressibility (1/GPa) = 0.03544617
#
# Stress axis : x y z
#
# Youngs Moduli (GPa) = 110.87179 69.19963 64.31725
#
# Poissons Ratio (x) = -0.09353 0.13675
# Poissons Ratio (y) = -0.14985 0.06506
# Poissons Ratio (z) = 0.23572 0.06999
#
# Static dielectric constant tensor:
#      x y z
#    x 1.553430 0.000000 -0.123810 
#    y 0.000000 1.817620 0.000000 
#    z -0.123810 0.000000 1.928760 
# 
# From -- ./inp_files/205307.got.cif
#   From: 2010.05.17/outbox.cif.g08.bks.cpg/sg15_103_cif.got.tgz:205307.got - 2010.06.03 18:47:42.
