data_PCOD9298661
_publ_section_title
;
Structure prediction by ZEFSAII (Michael W. Deem and Ramdas Pophale) SiO2 
 PCOD9298661
Probable space group: C 2/C
;
_chemical_formula_sum "Si O2"
_cell_formula_units_Z 48
_cell_length_a 5.715110
_cell_length_b 16.201377
_cell_length_c 27.957587
_cell_angle_alpha 90.000000
_cell_angle_beta 116.180031
_cell_angle_gamma 90.000000
_cell_volume 2323.101428
_symmetry_space_group_name_H-M "C 2/C"
_symmetry_group_IT_number 15
_symmetry_cell_setting 'monoclinic'
loop_
_space_group_symop_operation_xyz
x,y,z
-x,y,1/2-z
-x,-y,-z
x,-y,1/2+z
1/2+x,1/2+y,z
1/2-x,1/2+y,1/2-z
1/2-x,1/2-y,-z
1/2+x,1/2-y,1/2+z
loop_
_atom_site_type_symbol
_atom_site_label
_atom_site_fract_x
_atom_site_fract_y
_atom_site_fract_z
Si Si1 0.135562 0.192428 0.812982
Si Si2 0.011822 0.963055 0.554496
Si Si3 0.018895 0.391875 0.592865
Si Si4 0.242511 0.428862 0.097518
Si Si5 0.135071 0.784601 0.813448
Si Si6 0.420053 0.825289 0.996792
O O1 0.199600 0.108287 0.846124
O O2 0.410163 0.238882 0.824896
O O3 0.000000 0.178132 0.750000
O O4 0.907614 0.236878 0.824453
O O5 0.241617 0.903485 0.592492
O O6 0.768061 0.902273 0.530795
O O7 0.000000 0.000000 0.500000
O O8 0.985533 0.037864 0.588970
O O9 0.064924 0.489045 0.584038
O O10 0.257051 0.361105 0.646107
O O11 0.959559 0.324245 0.545559
O O12 0.114403 0.356550 0.054716
O O13 0.000000 0.803970 0.750000
O O14 0.250000 0.750000 0.000000
#
# Coordination Sequence:
#
# PCOD9298661 Si02
#       6
#     8   8   8   8   8   8
#     4  10  24  46  69  95 129 167 223 280 331 388
#     4  11  21  40  58  91 132 173 210 266 327 393
#     4  11  23  39  63  89 131 170 217 267 327 395
#     4  11  23  38  63  92 130 172 215 272 329 394
#     4  10  24  45  68  94 127 169 219 279 332 387
#     4  11  23  37  57  92 128 168 220 264 325 392
#
# _framework density 20.662033000000001
#
# number of rings (size 3 to 8) (size 9 to 14) (size 15 to 20)
#    0.000    1.333    3.333    2.000    9.333    2.667 
#    0.000    0.000    0.000    0.000    0.000    0.000 
#    0.000    0.000    0.000    0.000    0.000    0.000 
#
# Total GULP energy -133604.920831 kJ/mol
# GULP energy per Si atom -5566.871701 kJ/mol
# Density = 2.061500 g / cm^3
# Si number density = 20.662033 Si / 1000 Ang^3
#
#
#
# Elastic Constant Matrix: (Units=GPa)
#
#
# Indices 1 2 3 4 5 6 
#
# 1 97.8239 31.2997 33.6879 0.0000 1.3375 0.0000
# 2 31.2997 77.6752 41.0437 0.0000 -6.6564 0.0000
# 3 33.6879 41.0437 55.2106 0.0000 2.5615 0.0000
# 4 0.0000 0.0000 0.0000 32.6287 0.0000 0.6795
# 5 1.3375 -6.6564 2.5615 0.0000 24.0369 0.0000
# 6 0.0000 0.0000 0.0000 0.6795 0.0000 27.2124
#
#
#
# Elastic Compliance Matrix: (Units=1/GPa)
#
#
# Indices 1 2 3 4 5 6 
#
# 1 0.013089 -0.001833 -0.006599 0.000000 -0.000533 0.000000
# 2 -0.001833 0.022933 -0.016310 0.000000 0.008191 0.000000
# 3 -0.006599 -0.016310 0.034628 0.000000 -0.007840 0.000000
# 4 0.000000 0.000000 0.000000 0.030664 0.000000 -0.000766
# 5 -0.000533 0.008191 -0.007840 0.000000 0.044736 0.000000
# 6 0.000000 0.000000 0.000000 -0.000766 0.000000 0.036767
#
#
# Mechanical properties :
#
#
# Convention : Reuss Voigt Hill
#
# Bulk Modulus (GPa) = 47.24708 49.19693 48.22200
# Shear Modulus (GPa) = 20.88948 25.08749 22.98849
#
# Velocity S-wave (km/s) = 3.18308 3.48829 3.33918
# Velocity P-wave (km/s) = 6.03537 6.33137 6.18514
#
# Compressibility (1/GPa) = 0.02116533
#
# Stress axis : x y z
#
# Youngs Moduli (GPa) = 76.40159 43.60572 28.87867
#
# Poissons Ratio (x) = 0.07992 0.19057
# Poissons Ratio (y) = 0.14003 0.47101
# Poissons Ratio (z) = 0.50418 0.71121
#
# Static dielectric constant tensor:
#      x y z
#    x 2.204720 0.000000 -0.074070 
#    y 0.000000 1.734120 0.000000 
#    z -0.074070 0.000000 1.569200 
# 
# From -- ./inp_files/305306.got.cif
#   From: 2010.05.17/outbox.cif.g08.bks.cpg/sg15_153_cif.got.tgz:305306.got - 2010.06.03 18:47:42.
