data_PCOD9298191
_publ_section_title
;
Structure prediction by ZEFSAII (Michael W. Deem and Ramdas Pophale) SiO2 
 PCOD9298191
Probable space group: C 2/C
;
_chemical_formula_sum "Si O2"
_cell_formula_units_Z 28
_cell_length_a 5.622427
_cell_length_b 12.847728
_cell_length_c 19.258208
_cell_angle_alpha 90.000000
_cell_angle_beta 125.367336
_cell_angle_gamma 90.000000
_cell_volume 1134.403560
_symmetry_space_group_name_H-M "C 2/C"
_symmetry_group_IT_number 15
_symmetry_cell_setting 'monoclinic'
loop_
_space_group_symop_operation_xyz
x,y,z
-x,y,1/2-z
-x,-y,-z
x,-y,1/2+z
1/2+x,1/2+y,z
1/2-x,1/2+y,1/2-z
1/2-x,1/2-y,-z
1/2+x,1/2-y,1/2+z
loop_
_atom_site_type_symbol
_atom_site_label
_atom_site_fract_x
_atom_site_fract_y
_atom_site_fract_z
Si Si1 0.197796 0.554739 0.727548
Si Si2 0.360594 0.072784 0.536327
Si Si3 0.000000 0.638337 0.250000
Si Si4 0.326151 0.288323 0.935189
O O1 0.500000 0.597142 0.750000
O O2 0.258931 0.444319 0.775912
O O3 0.000000 0.617105 0.750000
O O4 0.982437 0.528736 0.628523
O O5 0.499489 0.188257 0.561886
O O6 0.023310 0.107004 0.473764
O O7 0.500000 0.000000 0.500000
O O8 0.919109 0.695414 0.165131
O O9 0.250000 0.250000 0.000000
#
# Coordination Sequence:
#
# PCOD9298191 Si02
#       4
#     8   8   4   8
#     4  10  24  43  73 107 144 198 252 312 380 468
#     4  11  25  45  73 106 151 203 260 315 399 468
#     4  10  24  44  70 106 150 190 254 320 390 460
#     4  11  26  44  72 112 151 198 256 331 383 480
#
# _framework density 24.682575
#
# number of rings (size 3 to 8) (size 9 to 14) (size 15 to 20)
#    0.857    0.571    0.000    3.429    6.000    4.571 
#    0.000    0.000    0.000    0.000    0.000    0.000 
#    0.000    0.000    0.000    0.000    0.000    0.000 
#
# Total GULP energy -78022.311762 kJ/mol
# GULP energy per Si atom -5573.022269 kJ/mol
# Density = 2.462640 g / cm^3
# Si number density = 24.682575 Si / 1000 Ang^3
#
#
#
# Elastic Constant Matrix: (Units=GPa)
#
#
# Indices 1 2 3 4 5 6 
#
# 1 155.6720 27.8318 77.3638 0.0000 -4.6330 0.0000
# 2 27.8318 106.0562 37.8933 0.0000 5.4951 0.0000
# 3 77.3638 37.8933 193.4963 0.0000 -22.8339 0.0000
# 4 0.0000 0.0000 0.0000 43.0616 0.0000 -0.0857
# 5 -4.6330 5.4951 -22.8339 0.0000 39.9792 0.0000
# 6 0.0000 0.0000 0.0000 -0.0857 0.0000 39.0598
#
#
#
# Elastic Compliance Matrix: (Units=1/GPa)
#
#
# Indices 1 2 3 4 5 6 
#
# 1 0.008142 -0.000974 -0.003150 0.000000 -0.000722 0.000000
# 2 -0.000974 0.010536 -0.001993 0.000000 -0.002699 0.000000
# 3 -0.003150 -0.001993 0.007299 0.000000 0.004078 0.000000
# 4 0.000000 0.000000 0.000000 0.023223 0.000000 0.000051
# 5 -0.000722 -0.002699 0.004078 0.000000 0.027629 0.000000
# 6 0.000000 0.000000 0.000000 0.000051 0.000000 0.025602
#
#
# Mechanical properties :
#
#
# Convention : Reuss Voigt Hill
#
# Bulk Modulus (GPa) = 72.75544 82.37803 77.56673
# Shear Modulus (GPa) = 41.93084 45.22916 43.58000
#
# Velocity S-wave (km/s) = 4.12613 4.28534 4.20648
# Velocity P-wave (km/s) = 7.22775 7.61137 7.42204
#
# Compressibility (1/GPa) = 0.01374468
#
# Stress axis : x y z
#
# Youngs Moduli (GPa) = 122.82499 94.91007 137.01011
#
# Poissons Ratio (x) = 0.09243 0.43153
# Poissons Ratio (y) = 0.11961 0.27300
# Poissons Ratio (z) = 0.38685 0.18911
#
# Static dielectric constant tensor:
#      x y z
#    x 1.832000 0.000000 0.513320 
#    y 0.000000 2.229660 0.000000 
#    z 0.513320 0.000000 1.164760 
# 
# From -- ./inp_files/183933.got.cif
#   From: 2010.05.17/outbox.cif.g08.bks.cpg/sg15_92_cif.got.tgz:183933.got - 2010.06.03 18:47:42.
