data_PCOD9298012
_publ_section_title
;
Structure prediction by ZEFSAII (Michael W. Deem and Ramdas Pophale) SiO2 
 PCOD9298012
Probable space group: C 2/C
;
_chemical_formula_sum "Si O2"
_cell_formula_units_Z 40
_cell_length_a 17.066789
_cell_length_b 6.747784
_cell_length_c 21.594301
_cell_angle_alpha 90.000000
_cell_angle_beta 42.845710
_cell_angle_gamma 90.000000
_cell_volume 1691.133713
_symmetry_space_group_name_H-M "C 2/C"
_symmetry_group_IT_number 15
_symmetry_cell_setting 'monoclinic'
loop_
_space_group_symop_operation_xyz
x,y,z
-x,y,1/2-z
-x,-y,-z
x,-y,1/2+z
1/2+x,1/2+y,z
1/2-x,1/2+y,1/2-z
1/2-x,1/2-y,-z
1/2+x,1/2-y,1/2+z
loop_
_atom_site_type_symbol
_atom_site_label
_atom_site_fract_x
_atom_site_fract_y
_atom_site_fract_z
Si Si1 0.001731 0.571689 0.403353
Si Si2 0.930783 0.102949 0.854404
Si Si3 0.775226 0.398401 0.591083
Si Si4 0.879068 0.164196 0.198631
Si Si5 0.121195 0.083119 0.909416
O O1 0.936353 0.688462 0.386342
O O2 0.899658 0.500394 0.508722
O O3 0.078410 0.388691 0.334562
O O4 0.085897 0.728644 0.387586
O O5 0.000000 0.125628 0.750000
O O6 0.809870 0.000293 0.908302
O O7 0.003569 0.952907 0.854596
O O8 0.703011 0.398938 0.697292
O O9 0.805841 0.163080 0.575057
O O10 0.825247 0.082575 0.165912
O O11 0.000000 0.000000 0.000000
#
# Coordination Sequence:
#
# PCOD9298012 Si02
#       5
#     8   8   8   8   8
#     4  11  23  44  66  95 137 175 221 280 337 397
#     4   9  22  45  64  98 132 171 228 281 331 405
#     4  11  23  42  71  95 132 179 223 271 339 402
#     4  10  24  43  64  98 135 172 225 278 333 404
#     4  11  24  43  64  97 138 170 222 280 329 406
#
# _framework density 23.652771000000001
#
# number of rings (size 3 to 8) (size 9 to 14) (size 15 to 20)
#    0.000    1.600    2.000    1.200    2.800    3.200 
#   10.800    0.000    0.000    0.000    0.000    0.000 
#    0.000    0.000    0.000    0.000    0.000    0.000 
#
# Total GULP energy -111618.599653 kJ/mol
# GULP energy per Si atom -5580.929983 kJ/mol
# Density = 2.359894 g / cm^3
# Si number density = 23.652771 Si / 1000 Ang^3
#
#
#
# Elastic Constant Matrix: (Units=GPa)
#
#
# Indices 1 2 3 4 5 6 
#
# 1 105.5792 60.1990 34.1393 -0.0001 -14.3018 0.0007
# 2 60.1990 138.1365 25.2035 -0.0002 11.4132 0.0007
# 3 34.1393 25.2035 83.1380 -0.0002 1.2256 -0.0001
# 4 -0.0001 -0.0002 -0.0002 32.0166 0.0000 10.8219
# 5 -14.3018 11.4132 1.2256 0.0000 35.7156 0.0000
# 6 0.0007 0.0007 -0.0001 10.8219 0.0000 53.5288
#
#
#
# Elastic Compliance Matrix: (Units=1/GPa)
#
#
# Indices 1 2 3 4 5 6 
#
# 1 0.016101 -0.006896 -0.004651 0.000000 0.008811 0.000000
# 2 -0.006896 0.010823 -0.000358 0.000000 -0.006208 0.000000
# 3 -0.004651 -0.000358 0.014079 0.000000 -0.002231 0.000000
# 4 0.000000 0.000000 0.000000 0.033525 0.000000 -0.006778
# 5 0.008811 -0.006208 -0.002231 0.000000 0.033587 0.000000
# 6 0.000000 0.000000 0.000000 -0.006778 0.000000 0.020052
#
#
# Mechanical properties :
#
#
# Convention : Reuss Voigt Hill
#
# Bulk Modulus (GPa) = 58.16102 62.88194 60.52148
# Shear Modulus (GPa) = 31.70432 38.07298 34.88865
#
# Velocity S-wave (km/s) = 3.66513 4.01641 3.84478
# Velocity P-wave (km/s) = 6.52333 6.93916 6.73445
#
# Compressibility (1/GPa) = 0.01719365
#
# Stress axis : x y z
#
# Youngs Moduli (GPa) = 62.10817 92.39907 71.02603
#
# Poissons Ratio (x) = 0.63719 0.33034
# Poissons Ratio (y) = 0.42830 0.02540
# Poissons Ratio (z) = 0.28886 0.03304
#
# Static dielectric constant tensor:
#      x y z
#    x 1.965440 0.000000 0.013980 
#    y 0.000000 1.942000 0.000000 
#    z 0.013980 0.000000 1.937990 
# 
# From -- ./inp_files/278781.got.cif
#   From: 2010.05.17/outbox.cif.g08.bks.cpg/sg15_140_cif.got.tgz:278781.got - 2010.06.03 18:47:42.
