data_PCOD9298702
_publ_section_title
;
Structure prediction by ZEFSAII (Michael W. Deem and Ramdas Pophale) SiO2 
 PCOD9298702
Probable space group: C 2/C
;
_chemical_formula_sum "Si O2"
_cell_formula_units_Z 44
_cell_length_a 11.360413
_cell_length_b 11.298652
_cell_length_c 14.547260
_cell_angle_alpha 90.000000
_cell_angle_beta 90.837843
_cell_angle_gamma 90.000000
_cell_volume 1867.048149
_symmetry_space_group_name_H-M "C 2/C"
_symmetry_group_IT_number 15
_symmetry_cell_setting 'monoclinic'
loop_
_space_group_symop_operation_xyz
x,y,z
-x,y,1/2-z
-x,-y,-z
x,-y,1/2+z
1/2+x,1/2+y,z
1/2-x,1/2+y,1/2-z
1/2-x,1/2-y,-z
1/2+x,1/2-y,1/2+z
loop_
_atom_site_type_symbol
_atom_site_label
_atom_site_fract_x
_atom_site_fract_y
_atom_site_fract_z
Si Si1 0.884324 0.297426 0.204262
Si Si2 0.335902 0.463892 0.905846
Si Si3 0.821809 0.905050 0.214211
Si Si4 0.099386 0.095829 0.425077
Si Si5 0.071175 0.533282 0.410428
Si Si6 0.000000 0.301280 0.750000
O O1 0.808805 0.352928 0.286183
O O2 0.839032 0.197325 0.134170
O O3 0.911278 0.410691 0.142978
O O4 0.000000 0.243709 0.250000
O O5 0.334059 0.504091 0.799722
O O6 0.456720 0.391352 0.924799
O O7 0.204782 0.416510 0.926693
O O8 0.354090 0.578752 0.971566
O O9 0.892880 0.788307 0.240350
O O10 0.869262 0.972494 0.126251
O O11 0.000000 0.500000 0.500000
O O12 0.000975 0.618844 0.340874
#
# Coordination Sequence:
#
# PCOD9298702 Si02
#       6
#     8   8   8   8   8   4
#     4  11  26  41  70 102 139 181 230 282 346 405
#     4  10  24  45  70 103 130 182 233 274 348 410
#     4  11  25  44  72  98 136 186 225 286 349 404
#     4  11  24  46  72 100 139 174 237 286 340 415
#     4  11  28  44  68 101 143 182 231 281 351 407
#     4  12  26  48  70  98 138 182 230 286 346 414
#
# _framework density 23.566611999999999
#
# number of rings (size 3 to 8) (size 9 to 14) (size 15 to 20)
#    0.000    1.091    2.727    1.091   15.273    1.455 
#    0.000    1.818    0.000    0.000    0.000    0.000 
#    0.000    0.000    0.000    0.000    0.000    0.000 
#
# Total GULP energy -122933.554443 kJ/mol
# GULP energy per Si atom -5587.888838 kJ/mol
# Density = 2.351297 g / cm^3
# Si number density = 23.566612 Si / 1000 Ang^3
#
#
#
# Elastic Constant Matrix: (Units=GPa)
#
#
# Indices 1 2 3 4 5 6 
#
# 1 61.8586 22.3343 36.5767 0.0000 -17.9320 0.0000
# 2 22.3343 64.4205 -3.4216 0.0000 -14.3113 0.0000
# 3 36.5767 -3.4216 72.2000 0.0000 -25.2515 0.0000
# 4 0.0000 0.0000 0.0000 184.7383 0.0000 -84.4898
# 5 -17.9320 -14.3113 -25.2515 0.0000 33.8601 0.0000
# 6 0.0000 0.0000 0.0000 -84.4898 0.0000 62.7990
#
#
#
# Elastic Compliance Matrix: (Units=1/GPa)
#
#
# Indices 1 2 3 4 5 6 
#
# 1 0.029160 -0.011143 -0.015621 0.000000 -0.000916 0.000000
# 2 -0.011143 0.022557 0.010802 0.000000 0.011688 0.000000
# 3 -0.015621 0.010802 0.028382 0.000000 0.017459 0.000000
# 4 0.000000 0.000000 0.000000 0.014071 0.000000 0.018932
# 5 -0.000916 0.011688 0.017459 0.000000 0.047008 0.000000
# 6 0.000000 0.000000 0.000000 0.018932 0.000000 0.041395
#
#
# Mechanical properties :
#
#
# Convention : Reuss Voigt Hill
#
# Bulk Modulus (GPa) = 20.75795 34.38422 27.57108
# Shear Modulus (GPa) = 21.68670 65.81213 43.74941
#
# Velocity S-wave (km/s) = 3.03682 5.29024 4.31329
# Velocity P-wave (km/s) = 4.59605 7.20676 6.04405
#
# Compressibility (1/GPa) = 0.04817432
#
# Stress axis : x y z
#
# Youngs Moduli (GPa) = 34.29328 44.33301 35.23332
#
# Poissons Ratio (x) = 0.49400 0.55039
# Poissons Ratio (y) = 0.38213 -0.38059
# Poissons Ratio (z) = 0.53570 -0.47888
#
# Static dielectric constant tensor:
#      x y z
#    x 1.173040 0.000000 0.131710 
#    y 0.000000 1.893970 0.000000 
#    z 0.131710 0.000000 1.790570 
# 
# From -- ./inp_files/142197.got.cif
#   From: 2010.05.17/outbox.cif.g08.bks.cpg/sg15_72_cif.got.tgz:142197.got - 2010.06.03 18:47:42.
