data_PCOD9298107
_publ_section_title
;
Structure prediction by ZEFSAII (Michael W. Deem and Ramdas Pophale) SiO2 
 PCOD9298107
Probable space group: C 2/C
;
_chemical_formula_sum "Si O2"
_cell_formula_units_Z 40
_cell_length_a 17.103271
_cell_length_b 5.087652
_cell_length_c 18.209049
_cell_angle_alpha 90.000000
_cell_angle_beta 102.576979
_cell_angle_gamma 90.000000
_cell_volume 1546.448937
_symmetry_space_group_name_H-M "C 2/C"
_symmetry_group_IT_number 15
_symmetry_cell_setting 'monoclinic'
loop_
_space_group_symop_operation_xyz
x,y,z
-x,y,1/2-z
-x,-y,-z
x,-y,1/2+z
1/2+x,1/2+y,z
1/2-x,1/2+y,1/2-z
1/2-x,1/2-y,-z
1/2+x,1/2-y,1/2+z
loop_
_atom_site_type_symbol
_atom_site_label
_atom_site_fract_x
_atom_site_fract_y
_atom_site_fract_z
Si Si1 0.838156 0.652783 0.658534
Si Si2 0.129443 0.490540 0.497498
Si Si3 0.764252 0.647609 0.855292
Si Si4 0.019596 0.215687 0.592257
Si Si5 0.433486 0.209291 0.811080
O O1 0.849103 0.654443 0.573250
O O2 0.805017 0.362177 0.668638
O O3 0.917390 0.728683 0.720754
O O4 0.771098 0.861896 0.666570
O O5 0.201671 0.628324 0.554994
O O6 0.087593 0.289423 0.546326
O O7 0.063763 0.711559 0.463238
O O8 0.841325 0.708265 0.822365
O O9 0.031664 0.429188 0.658772
O O10 0.027016 0.935393 0.631367
#
# Coordination Sequence:
#
# PCOD9298107 Si02
#       5
#     8   8   8   8   8
#     4  12  24  40  66  99 133 171 219 277 332 399
#     4  10  24  43  68  98 131 174 225 275 330 393
#     4  11  23  40  65  97 134 171 215 272 337 400
#     4  10  24  44  67  92 131 177 221 271 330 399
#     4  11  23  43  66  94 132 177 219 269 336 400
#
# _framework density 25.865711999999998
#
# number of rings (size 3 to 8) (size 9 to 14) (size 15 to 20)
#    0.000    1.200    0.000    6.000    0.000   14.400 
#    0.000    2.000    0.000    0.000    0.000    0.000 
#    0.000    0.000    0.000    0.000    0.000    0.000 
#
# Total GULP energy -112209.522462 kJ/mol
# GULP energy per Si atom -5610.476123 kJ/mol
# Density = 2.580684 g / cm^3
# Si number density = 25.865712 Si / 1000 Ang^3
#
#
#
# Elastic Constant Matrix: (Units=GPa)
#
#
# Indices 1 2 3 4 5 6 
#
# 1 13.6873 12.3504 8.6934 0.0000 8.7835 0.0000
# 2 12.3504 90.2291 28.3900 0.0000 2.2519 0.0000
# 3 8.6934 28.3900 152.7757 0.0000 16.8982 0.0000
# 4 0.0000 0.0000 0.0000 32.7065 0.0000 20.7555
# 5 8.7835 2.2519 16.8982 0.0000 66.2619 0.0000
# 6 0.0000 0.0000 0.0000 20.7555 0.0000 5.2028
#
#
#
# Elastic Compliance Matrix: (Units=1/GPa)
#
#
# Indices 1 2 3 4 5 6 
#
# 1 0.092095 -0.011756 -0.001801 0.000000 -0.011349 0.000000
# 2 -0.011756 0.013274 -0.001976 0.000000 0.001611 0.000000
# 3 -0.001801 -0.001976 0.007184 0.000000 -0.001526 0.000000
# 4 0.000000 0.000000 0.000000 -0.019963 0.000000 0.079638
# 5 -0.011349 0.001611 -0.001526 0.000000 0.016931 0.000000
# 6 0.000000 0.000000 0.000000 0.079638 0.000000 -0.125494
#
#
# Mechanical properties :
#
#
# Convention : Reuss Voigt Hill
#
# Bulk Modulus (GPa) = 12.27182 39.50664 25.88923
# Shear Modulus (GPa) = 118.33330 34.65146 76.49238
#
# Velocity S-wave (km/s) = 6.77115 3.66412 5.44400
# Velocity P-wave (km/s) = 8.11702 5.76263 7.03896
#
# Compressibility (1/GPa) = 0.08148749
#
# Stress axis : x y z
#
# Youngs Moduli (GPa) = 10.85836 75.33795 139.19856
#
# Poissons Ratio (x) = 0.88567 0.25064
# Poissons Ratio (y) = 0.12765 0.27503
# Poissons Ratio (z) = 0.01955 0.14886
#
# Static dielectric constant tensor:
#      x y z
#    x 2.128160 0.000000 -0.034820 
#    y 0.000000 1.929840 0.000000 
#    z -0.034820 0.000000 2.068560 
# 
# From -- ./inp_files/212736.got.cif
#   From: 2010.05.17/outbox.cif.g08.bks.cpg/sg15_107_cif.got.tgz:212736.got - 2010.06.03 18:47:42.
