data_PCOD9298646
_publ_section_title
;
Structure prediction by ZEFSAII (Michael W. Deem and Ramdas Pophale) SiO2 
 PCOD9298646
Probable space group: C 2/C
;
_chemical_formula_sum "Si O2"
_cell_formula_units_Z 56
_cell_length_a 15.358684
_cell_length_b 29.233607
_cell_length_c 11.232245
_cell_angle_alpha 90.000000
_cell_angle_beta 27.996175
_cell_angle_gamma 90.000000
_cell_volume 2367.324189
_symmetry_space_group_name_H-M "C 2/C"
_symmetry_group_IT_number 15
_symmetry_cell_setting 'monoclinic'
loop_
_space_group_symop_operation_xyz
x,y,z
-x,y,1/2-z
-x,-y,-z
x,-y,1/2+z
1/2+x,1/2+y,z
1/2-x,1/2+y,1/2-z
1/2-x,1/2-y,-z
1/2+x,1/2-y,1/2+z
loop_
_atom_site_type_symbol
_atom_site_label
_atom_site_fract_x
_atom_site_fract_y
_atom_site_fract_z
Si Si1 0.000000 0.038956 0.750000
Si Si2 0.796612 0.984510 0.699606
Si Si3 0.181730 0.394518 0.966309
Si Si4 0.741751 0.656792 0.740241
Si Si5 0.189852 0.568466 0.954376
Si Si6 0.009272 0.222040 0.874002
Si Si7 0.895020 0.310879 0.606880
Si Si8 0.000000 0.857516 0.750000
O O1 0.160495 0.010154 0.490882
O O2 0.131400 0.068372 0.675424
O O3 0.746360 0.932271 0.791914
O O4 0.000000 0.000000 0.500000
O O5 0.660347 0.019513 0.927491
O O6 0.000000 0.413551 0.250000
O O7 0.117520 0.344900 0.991214
O O8 0.350544 0.385407 0.852875
O O9 0.736038 0.602725 0.735283
O O10 0.664481 0.685062 0.721656
O O11 0.960185 0.664047 0.485047
O O12 0.624919 0.669590 0.000401
O O13 0.000000 0.581538 0.250000
O O14 0.000000 0.241858 0.750000
O O15 0.026305 0.259249 0.960593
O O16 0.817916 0.195114 0.107289
#
# Coordination Sequence:
#
# PCOD9298646 Si02
#       8
#     4   8   8   8   8   8   8   4
#     4  10  24  45  68 100 148 192 242 318 358 445
#     4  10  24  47  70 109 149 199 252 301 386 444
#     4  12  26  47  78 109 152 201 254 319 377 458
#     4  12  28  45  75 111 151 201 255 316 381 459
#     4  11  27  43  70 111 144 199 250 307 378 446
#     4  12  28  49  80 108 155 200 251 321 391 456
#     4  12  27  50  73 116 142 197 260 303 395 453
#     4  12  24  49  74 108 148 204 246 310 384 449
#
# _framework density 23.655398999999999
#
# number of rings (size 3 to 8) (size 9 to 14) (size 15 to 20)
#    0.000    0.571    4.286    2.571    5.000    5.714 
#    1.286    2.143    0.000    0.000    0.000    0.000 
#    0.000    0.000    0.000    0.000    0.000    0.000 
#
# Total GULP energy -155933.537319 kJ/mol
# GULP energy per Si atom -5569.054904 kJ/mol
# Density = 2.360156 g / cm^3
# Si number density = 23.655399 Si / 1000 Ang^3
#
#
#
# Elastic Constant Matrix: (Units=GPa)
#
#
# Indices 1 2 3 4 5 6 
#
# 1 97.2248 45.0020 51.7258 0.0017 -21.3492 -0.0010
# 2 45.0020 86.0846 28.1483 -0.0006 8.6737 0.0003
# 3 51.7258 28.1483 109.4595 0.0052 -4.8681 -0.0147
# 4 0.0017 -0.0006 0.0052 26.9729 -0.0035 6.9989
# 5 -21.3492 8.6737 -4.8681 -0.0035 47.8934 0.0058
# 6 -0.0010 0.0003 -0.0147 6.9989 0.0058 46.6771
#
#
#
# Elastic Compliance Matrix: (Units=1/GPa)
#
#
# Indices 1 2 3 4 5 6 
#
# 1 0.020575 -0.009558 -0.006811 0.000002 0.010210 -0.000003
# 2 -0.009558 0.017464 -0.000306 0.000000 -0.007454 0.000001
# 3 -0.006811 -0.000306 0.012356 -0.000003 -0.001725 0.000004
# 4 0.000002 0.000000 -0.000003 0.038575 0.000004 -0.005784
# 5 0.010210 -0.007454 -0.001725 0.000004 0.026606 -0.000004
# 6 -0.000003 0.000001 0.000004 -0.005784 -0.000004 0.022291
#
#
# Mechanical properties :
#
#
# Convention : Reuss Voigt Hill
#
# Bulk Modulus (GPa) = 58.66400 60.28011 59.47206
# Shear Modulus (GPa) = 28.26482 35.50151 31.88316
#
# Velocity S-wave (km/s) = 3.46042 3.87819 3.67525
# Velocity P-wave (km/s) = 6.38900 6.75217 6.57309
#
# Compressibility (1/GPa) = 0.01704623
#
# Stress axis : x y z
#
# Youngs Moduli (GPa) = 48.60291 57.26070 80.93007
#
# Poissons Ratio (x) = 0.54727 0.55121
# Poissons Ratio (y) = 0.46452 0.02477
# Poissons Ratio (z) = 0.33103 0.01752
#
# Static dielectric constant tensor:
#      x y z
#    x 2.170410 0.000010 -0.059530 
#    y 0.000010 2.142150 -0.000110 
#    z -0.059530 -0.000110 3.320190 
# 
# From -- ./inp_files/101790.got.cif
#   From: 2010.05.17/outbox.cif.g08.bks.cpg/sg15_51_cif.got.tgz:101790.got - 2010.06.03 18:47:42.
