data_PCOD9298957
_publ_section_title
;
Structure prediction by ZEFSAII (Michael W. Deem and Ramdas Pophale) SiO2 
 PCOD9298957
Probable space group: C 2/C
;
_chemical_formula_sum "Si O2"
_cell_formula_units_Z 56
_cell_length_a 16.398973
_cell_length_b 4.747593
_cell_length_c 26.589255
_cell_angle_alpha 90.000000
_cell_angle_beta 100.064085
_cell_angle_gamma 90.000000
_cell_volume 2038.270541
_symmetry_space_group_name_H-M "C 2/C"
_symmetry_group_IT_number 15
_symmetry_cell_setting 'monoclinic'
loop_
_space_group_symop_operation_xyz
x,y,z
-x,y,1/2-z
-x,-y,-z
x,-y,1/2+z
1/2+x,1/2+y,z
1/2-x,1/2+y,1/2-z
1/2-x,1/2-y,-z
1/2+x,1/2-y,1/2+z
loop_
_atom_site_type_symbol
_atom_site_label
_atom_site_fract_x
_atom_site_fract_y
_atom_site_fract_z
Si Si1 0.630910 0.680697 0.844921
Si Si2 0.810635 0.893917 0.965383
Si Si3 0.162880 0.318055 0.411382
Si Si4 0.038481 0.254540 0.953583
Si Si5 0.203105 0.069860 0.257886
Si Si6 0.470883 0.336931 0.800593
Si Si7 0.433533 0.219267 0.906733
O O1 0.646050 0.005764 0.858125
O O2 0.693786 0.557188 0.811756
O O3 0.540493 0.574922 0.818123
O O4 0.645835 0.504568 0.897781
O O5 0.754794 0.156722 0.942822
O O6 0.838975 0.770643 0.913861
O O7 0.750000 0.750000 0.000000
O O8 0.900377 0.911242 0.001704
O O9 0.100587 0.498954 0.438910
O O10 0.961208 0.473058 0.948097
O O11 0.988230 0.001187 0.920761
O O12 0.223569 0.396815 0.259663
O O13 0.117493 0.023902 0.219941
O O14 0.500000 0.198834 0.750000
O O15 0.453878 0.156414 0.849898
#
# Coordination Sequence:
#
# PCOD9298957 Si02
#       7
#     8   8   8   8   8   8   8
#     4  11  23  43  68  95 139 182 227 278 338 412
#     4  10  26  44  71 104 142 180 229 284 349 405
#     4  11  22  43  65 101 136 179 225 280 342 402
#     4  11  23  45  70 101 137 182 232 282 338 412
#     4  11  26  44  67 100 139 172 231 286 341 402
#     4  10  24  46  71 103 136 186 229 278 340 410
#     4  12  24  45  72 101 140 180 232 282 340 408
#
# _framework density 27.474273
#
# number of rings (size 3 to 8) (size 9 to 14) (size 15 to 20)
#    0.000    1.143    2.857    1.714    4.000    4.571 
#    0.000   12.857    0.000    0.000    0.000    0.000 
#    0.000    0.000    0.000    0.000    0.000    0.000 
#
# Total GULP energy -156292.078768 kJ/mol
# GULP energy per Si atom -5581.859956 kJ/mol
# Density = 2.741174 g / cm^3
# Si number density = 27.474273 Si / 1000 Ang^3
#
#
#
# Elastic Constant Matrix: (Units=GPa)
#
#
# Indices 1 2 3 4 5 6 
#
# 1 115.9204 22.7603 46.7000 0.0000 -5.1572 0.0000
# 2 22.7603 130.3157 16.9531 0.0000 0.2544 0.0000
# 3 46.7000 16.9531 132.4177 0.0000 -22.5957 0.0000
# 4 0.0000 0.0000 0.0000 40.5739 0.0000 -3.8219
# 5 -5.1572 0.2544 -22.5957 0.0000 59.3802 0.0000
# 6 0.0000 0.0000 0.0000 -3.8219 0.0000 17.4965
#
#
#
# Elastic Compliance Matrix: (Units=1/GPa)
#
#
# Indices 1 2 3 4 5 6 
#
# 1 0.010293 -0.001337 -0.003535 0.000000 -0.000445 0.000000
# 2 -0.001337 0.007988 -0.000617 0.000000 -0.000385 0.000000
# 3 -0.003535 -0.000617 0.009438 0.000000 0.003287 0.000000
# 4 0.000000 0.000000 0.000000 0.025164 0.000000 0.005497
# 5 -0.000445 -0.000385 0.003287 0.000000 0.018054 0.000000
# 6 0.000000 0.000000 0.000000 0.005497 0.000000 0.058355
#
#
# Mechanical properties :
#
#
# Convention : Reuss Voigt Hill
#
# Bulk Modulus (GPa) = 59.72939 61.27563 60.50251
# Shear Modulus (GPa) = 34.28120 42.97279 38.62700
#
# Velocity S-wave (km/s) = 3.53619 3.95917 3.75365
# Velocity P-wave (km/s) = 6.20163 6.57658 6.39185
#
# Compressibility (1/GPa) = 0.01674218
#
# Stress axis : x y z
#
# Youngs Moduli (GPa) = 97.14920 125.18473 105.94926
#
# Poissons Ratio (x) = 0.16738 0.37454
# Poissons Ratio (y) = 0.12989 0.06536
# Poissons Ratio (z) = 0.34343 0.07722
#
# Static dielectric constant tensor:
#      x y z
#    x 2.154020 0.000000 -0.132100 
#    y 0.000000 2.080570 0.000000 
#    z -0.132100 0.000000 2.413260 
# 
# From -- ./inp_files/312343.got.cif
#   From: 2010.05.17/outbox.cif.g08.bks.cpg/sg15_157_cif.got.tgz:312343.got - 2010.06.03 18:47:42.
