data_PCOD9298235
_publ_section_title
;
Structure prediction by ZEFSAII (Michael W. Deem and Ramdas Pophale) SiO2 
 PCOD9298235
Probable space group: C 2/C
;
_chemical_formula_sum "Si O2"
_cell_formula_units_Z 52
_cell_length_a 12.228848
_cell_length_b 24.661960
_cell_length_c 9.164437
_cell_angle_alpha 90.000000
_cell_angle_beta 74.224746
_cell_angle_gamma 90.000000
_cell_volume 2659.778270
_symmetry_space_group_name_H-M "C 2/C"
_symmetry_group_IT_number 15
_symmetry_cell_setting 'monoclinic'
loop_
_space_group_symop_operation_xyz
x,y,z
-x,y,1/2-z
-x,-y,-z
x,-y,1/2+z
1/2+x,1/2+y,z
1/2-x,1/2+y,1/2-z
1/2-x,1/2-y,-z
1/2+x,1/2-y,1/2+z
loop_
_atom_site_type_symbol
_atom_site_label
_atom_site_fract_x
_atom_site_fract_y
_atom_site_fract_z
Si Si1 0.500000 0.867378 0.250000
Si Si2 0.000000 0.006316 0.250000
Si Si3 0.500000 0.856788 0.750000
Si Si4 0.321691 0.943322 0.754357
Si Si5 0.594393 0.307654 0.093258
Si Si6 0.902944 0.074228 0.011680
Si Si7 0.138900 0.698296 0.937589
Si Si8 0.899498 0.531861 0.949393
O O1 0.417587 0.830985 0.180319
O O2 0.566278 0.909668 0.122791
O O3 0.043567 0.044307 0.366233
O O4 0.917665 0.964410 0.366165
O O5 0.416117 0.897738 0.698497
O O6 0.576935 0.825146 0.605744
O O7 0.225900 0.919157 0.890574
O O8 0.295655 0.962192 0.600459
O O9 0.366918 0.994757 0.825958
O O10 0.500000 0.292611 0.250000
O O11 0.724389 0.310554 0.109032
O O12 0.556083 0.365741 0.043504
O O13 0.608250 0.261948 0.963196
O O14 0.000000 0.500000 0.000000
#
# Coordination Sequence:
#
# PCOD9298235 Si02
#       8
#     4   4   4   8   8   8   8   8
#     4  12  23  41  64 102 137 169 214 276 330 390
#     4  10  24  44  62  94 126 174 224 264 320 392
#     4  12  19  37  64  90 129 163 212 264 332 392
#     4  12  22  35  59  93 128 171 206 259 332 388
#     4  11  24  46  71  93 126 178 224 268 325 392
#     4  11  23  42  66  91 129 170 220 271 320 384
#     4  11  25  43  70  97 128 170 221 271 331 391
#     4  12  21  35  57  93 138 169 202 256 329 405
#
# _framework density 19.550502000000002
#
# number of rings (size 3 to 8) (size 9 to 14) (size 15 to 20)
#    0.000    0.615    7.692    0.923    0.000    1.846 
#    2.769    0.769    0.000    0.000    0.000    0.000 
#    0.000    0.000    0.000    0.000    0.000    0.000 
#
# Total GULP energy -144939.385447 kJ/mol
# GULP energy per Si atom -5574.591748 kJ/mol
# Density = 1.950600 g / cm^3
# Si number density = 19.550502 Si / 1000 Ang^3
#
#
#
# Elastic Constant Matrix: (Units=GPa)
#
#
# Indices 1 2 3 4 5 6 
#
# 1 54.1323 30.8909 35.1778 0.0000 -8.3573 0.0000
# 2 30.8909 123.6686 33.0938 0.0000 14.7051 0.0000
# 3 35.1778 33.0938 132.5216 0.0000 -4.6212 0.0000
# 4 0.0000 0.0000 0.0000 18.6378 0.0000 -3.9519
# 5 -8.3573 14.7051 -4.6212 0.0000 34.1408 0.0000
# 6 0.0000 0.0000 0.0000 -3.9519 0.0000 24.0734
#
#
#
# Elastic Compliance Matrix: (Units=1/GPa)
#
#
# Indices 1 2 3 4 5 6 
#
# 1 0.026804 -0.006312 -0.005240 0.000000 0.008571 0.000000
# 2 -0.006312 0.010746 -0.001229 0.000000 -0.006340 0.000000
# 3 -0.005240 -0.001229 0.009261 0.000000 0.000500 0.000000
# 4 0.000000 0.000000 0.000000 0.055589 0.000000 0.009126
# 5 0.008571 -0.006340 0.000500 0.000000 0.034187 0.000000
# 6 0.000000 0.000000 0.000000 0.009126 0.000000 0.043038
#
#
# Mechanical properties :
#
#
# Convention : Reuss Voigt Hill
#
# Bulk Modulus (GPa) = 47.06216 56.51640 51.78928
# Shear Modulus (GPa) = 23.55501 29.44772 26.50137
#
# Velocity S-wave (km/s) = 3.47483 3.88524 3.68575
# Velocity P-wave (km/s) = 6.34221 7.00696 6.68285
#
# Compressibility (1/GPa) = 0.02124849
#
# Stress axis : x y z
#
# Youngs Moduli (GPa) = 37.30833 93.06187 107.97737
#
# Poissons Ratio (x) = 0.58742 0.56579
# Poissons Ratio (y) = 0.23550 0.13270
# Poissons Ratio (z) = 0.19549 0.11437
#
# Static dielectric constant tensor:
#      x y z
#    x 1.756410 0.000000 -0.069850 
#    y 0.000000 1.709840 0.000000 
#    z -0.069850 0.000000 1.733980 
# 
# From -- ./inp_files/33524.got.cif
#   From: 2010.05.17/outbox.cif.g08.bks.cpg/sg15_17_cif.got.tgz:33524.got - 2010.06.03 18:47:42.
