data_PCOD9298644
_publ_section_title
;
Structure prediction by ZEFSAII (Michael W. Deem and Ramdas Pophale) SiO2 
 PCOD9298644
Probable space group: C 2/C
;
_chemical_formula_sum "Si O2"
_cell_formula_units_Z 24
_cell_length_a 4.958849
_cell_length_b 8.885277
_cell_length_c 20.318352
_cell_angle_alpha 90.000000
_cell_angle_beta 69.426060
_cell_angle_gamma 90.000000
_cell_volume 838.142770
_symmetry_space_group_name_H-M "C 2/C"
_symmetry_group_IT_number 15
_symmetry_cell_setting 'monoclinic'
loop_
_space_group_symop_operation_xyz
x,y,z
-x,y,1/2-z
-x,-y,-z
x,-y,1/2+z
1/2+x,1/2+y,z
1/2-x,1/2+y,1/2-z
1/2-x,1/2-y,-z
1/2+x,1/2-y,1/2+z
loop_
_atom_site_type_symbol
_atom_site_label
_atom_site_fract_x
_atom_site_fract_y
_atom_site_fract_z
Si Si1 0.273111 0.999136 0.824299
Si Si2 0.779908 0.680768 0.616035
Si Si3 0.642150 0.342592 0.463169
O O1 0.500000 0.043707 0.750000
O O2 0.245523 0.821062 0.832652
O O3 0.392977 0.077952 0.882796
O O4 0.943626 0.048940 0.842404
O O5 0.538044 0.734887 0.578203
O O6 0.043510 0.725443 0.537555
O O7 0.500000 0.500000 0.500000
#
# Coordination Sequence:
#
# PCOD9298644 Si02
#       3
#     8   8   8
#     4  10  26  43  70  99 140 181 232 290 351 420
#     4  10  25  42  68  99 132 180 230 283 351 415
#     4  10  24  45  68 100 136 179 230 285 349 417
#
# _framework density 28.634741000000002
#
# number of rings (size 3 to 8) (size 9 to 14) (size 15 to 20)
#    2.000    0.000    0.000    1.000    9.333    2.667 
#    0.000    0.000    0.000    0.000    0.000    0.000 
#    0.000    0.000    0.000    0.000    0.000    0.000 
#
# Total GULP energy -67026.400897 kJ/mol
# GULP energy per Si atom -5585.533408 kJ/mol
# Density = 2.856957 g / cm^3
# Si number density = 28.634741 Si / 1000 Ang^3
#
#
#
# Elastic Constant Matrix: (Units=GPa)
#
#
# Indices 1 2 3 4 5 6 
#
# 1 248.1813 90.7079 82.6059 0.0000 -82.7254 0.0000
# 2 90.7079 201.4889 47.7288 0.0000 1.1822 0.0000
# 3 82.6059 47.7288 225.3333 0.0000 -37.4276 0.0000
# 4 0.0000 0.0000 0.0000 42.8279 0.0000 -2.5824
# 5 -82.7254 1.1822 -37.4276 0.0000 61.7063 0.0000
# 6 0.0000 0.0000 0.0000 -2.5824 0.0000 61.4439
#
#
#
# Elastic Compliance Matrix: (Units=1/GPa)
#
#
# Indices 1 2 3 4 5 6 
#
# 1 0.010588 -0.004714 -0.000567 0.000000 0.013940 0.000000
# 2 -0.004714 0.007365 -0.001006 0.000000 -0.007071 0.000000
# 3 -0.000567 -0.001006 0.005267 0.000000 0.002453 0.000000
# 4 0.000000 0.000000 0.000000 0.023409 0.000000 0.000984
# 5 0.013940 -0.007071 0.002453 0.000000 0.036518 0.000000
# 6 0.000000 0.000000 0.000000 0.000984 0.000000 0.016316
#
#
# Mechanical properties :
#
#
# Convention : Reuss Voigt Hill
#
# Bulk Modulus (GPa) = 93.95155 124.12097 109.03626
# Shear Modulus (GPa) = 43.25788 63.45967 53.35877
#
# Velocity S-wave (km/s) = 3.89096 4.71274 4.32143
# Velocity P-wave (km/s) = 7.28476 8.54714 7.94107
#
# Compressibility (1/GPa) = 0.01064378
#
# Stress axis : x y z
#
# Youngs Moduli (GPa) = 94.44850 135.77593 189.87929
#
# Poissons Ratio (x) = 0.64003 0.10775
# Poissons Ratio (y) = 0.44522 0.19111
# Poissons Ratio (z) = 0.05360 0.13665
#
# Static dielectric constant tensor:
#      x y z
#    x 2.394430 0.000000 -0.051120 
#    y 0.000000 2.099560 0.000000 
#    z -0.051120 0.000000 2.495870 
# 
# From -- ./inp_files/183448.got.cif
#   From: 2010.05.17/outbox.cif.g08.bks.cpg/sg15_92_cif.got.tgz:183448.got - 2010.06.03 18:47:42.
