data_PCOD9298264
_publ_section_title
;
Structure prediction by ZEFSAII (Michael W. Deem and Ramdas Pophale) SiO2 
 PCOD9298264
Probable space group: C 2/C
;
_chemical_formula_sum "Si O2"
_cell_formula_units_Z 48
_cell_length_a 8.603588
_cell_length_b 11.970999
_cell_length_c 22.434592
_cell_angle_alpha 90.000000
_cell_angle_beta 81.068798
_cell_angle_gamma 90.000000
_cell_volume 2282.602959
_symmetry_space_group_name_H-M "C 2/C"
_symmetry_group_IT_number 15
_symmetry_cell_setting 'monoclinic'
loop_
_space_group_symop_operation_xyz
x,y,z
-x,y,1/2-z
-x,-y,-z
x,-y,1/2+z
1/2+x,1/2+y,z
1/2-x,1/2+y,1/2-z
1/2-x,1/2-y,-z
1/2+x,1/2-y,1/2+z
loop_
_atom_site_type_symbol
_atom_site_label
_atom_site_fract_x
_atom_site_fract_y
_atom_site_fract_z
Si Si1 0.000000 0.463010 0.750000
Si Si2 0.805500 0.873611 0.682908
Si Si3 0.678404 0.117939 0.830593
Si Si4 0.084428 0.809310 0.497451
Si Si5 0.626047 0.094394 0.974841
Si Si6 0.500000 0.461655 0.250000
Si Si7 0.635900 0.469149 0.938510
O O1 0.851839 0.384595 0.770100
O O2 0.944796 0.542376 0.698856
O O3 0.862791 0.747981 0.674663
O O4 0.763177 0.925338 0.621600
O O5 0.930405 0.957396 0.703657
O O6 0.668413 0.093273 0.902084
O O7 0.851368 0.100425 0.789868
O O8 0.250000 0.750000 0.500000
O O9 0.954913 0.711995 0.502273
O O10 0.022572 0.894575 0.552258
O O11 0.107789 0.898180 0.442197
O O12 0.775204 0.067861 0.006842
O O13 0.500000 0.000000 0.000000
#
# Coordination Sequence:
#
# PCOD9298264 Si02
#       7
#     4   8   8   8   8   4   8
#     4  10  24  44  64  96 122 174 220 266 318 386
#     4  11  23  44  68  92 132 168 219 268 324 384
#     4  11  24  44  67  91 134 166 221 269 324 383
#     4  11  24  42  62  96 133 169 214 258 325 395
#     4  12  24  42  67 101 135 172 210 270 336 396
#     4  10  26  42  68  96 120 178 224 268 316 384
#     4  11  25  41  67  98 132 172 213 265 334 391
#
# _framework density 21.028624000000001
#
# number of rings (size 3 to 8) (size 9 to 14) (size 15 to 20)
#    0.000    1.000    3.333    2.500    4.667    0.000 
#    0.000    6.667    0.000    0.000    0.000    0.000 
#    0.000    0.000    0.000    0.000    0.000    0.000 
#
# Total GULP energy -133944.817496 kJ/mol
# GULP energy per Si atom -5581.034062 kJ/mol
# Density = 2.098076 g / cm^3
# Si number density = 21.028624 Si / 1000 Ang^3
#
#
#
# Elastic Constant Matrix: (Units=GPa)
#
#
# Indices 1 2 3 4 5 6 
#
# 1 71.5416 20.9972 5.1555 0.0000 -1.5012 0.0000
# 2 20.9972 130.1792 33.4099 0.0000 -6.7486 0.0000
# 3 5.1555 33.4099 73.9251 0.0000 13.9638 0.0000
# 4 0.0000 0.0000 0.0000 36.1402 0.0000 -13.5375
# 5 -1.5012 -6.7486 13.9638 0.0000 32.8376 0.0000
# 6 0.0000 0.0000 0.0000 -13.5375 0.0000 33.3648
#
#
#
# Elastic Compliance Matrix: (Units=1/GPa)
#
#
# Indices 1 2 3 4 5 6 
#
# 1 0.014674 -0.002360 0.000009 0.000000 0.000182 0.000000
# 2 -0.002360 0.009517 -0.004878 0.000000 0.003922 0.000000
# 3 0.000009 -0.004878 0.017311 0.000000 -0.008363 0.000000
# 4 0.000000 0.000000 0.000000 0.032629 0.000000 0.013239
# 5 0.000182 0.003922 -0.008363 0.000000 0.034824 0.000000
# 6 0.000000 0.000000 0.000000 0.013239 0.000000 0.035343
#
#
# Mechanical properties :
#
#
# Convention : Reuss Voigt Hill
#
# Bulk Modulus (GPa) = 36.97585 43.86345 40.41965
# Shear Modulus (GPa) = 29.80269 34.87408 32.33838
#
# Velocity S-wave (km/s) = 3.76871 4.07678 3.92577
# Velocity P-wave (km/s) = 6.04643 6.56234 6.30966
#
# Compressibility (1/GPa) = 0.02704468
#
# Stress axis : x y z
#
# Youngs Moduli (GPa) = 68.14960 105.07000 57.76747
#
# Poissons Ratio (x) = 0.24792 -0.00050
# Poissons Ratio (y) = 0.16080 0.28177
# Poissons Ratio (z) = -0.00059 0.51250
#
# Static dielectric constant tensor:
#      x y z
#    x 1.836680 0.000000 -0.051270 
#    y 0.000000 1.755750 0.000000 
#    z -0.051270 0.000000 1.867110 
# 
# From -- ./inp_files/263123.got.cif
#   From: 2010.05.17/outbox.cif.g08.bks.cpg/sg15_132_cif.got.tgz:263123.got - 2010.06.03 18:47:42.
