data_PCOD9298212
_publ_section_title
;
Structure prediction by ZEFSAII (Michael W. Deem and Ramdas Pophale) SiO2 
 PCOD9298212
Probable space group: C 2/C
;
_chemical_formula_sum "Si O2"
_cell_formula_units_Z 28
_cell_length_a 20.494826
_cell_length_b 5.143203
_cell_length_c 13.627883
_cell_angle_alpha 90.000000
_cell_angle_beta 132.792385
_cell_angle_gamma 90.000000
_cell_volume 1054.134281
_symmetry_space_group_name_H-M "C 2/C"
_symmetry_group_IT_number 15
_symmetry_cell_setting 'monoclinic'
loop_
_space_group_symop_operation_xyz
x,y,z
-x,y,1/2-z
-x,-y,-z
x,-y,1/2+z
1/2+x,1/2+y,z
1/2-x,1/2+y,1/2-z
1/2-x,1/2-y,-z
1/2+x,1/2-y,1/2+z
loop_
_atom_site_type_symbol
_atom_site_label
_atom_site_fract_x
_atom_site_fract_y
_atom_site_fract_z
Si Si1 0.750000 0.250000 0.500000
Si Si2 0.678118 0.932068 0.772447
Si Si3 0.518062 0.746219 0.086481
Si Si4 0.333766 0.762077 0.964554
O O1 0.845417 0.228819 0.668988
O O2 0.794829 0.503849 0.484780
O O3 0.618748 0.187552 0.716805
O O4 0.777457 0.993212 0.921680
O O5 0.683721 0.823324 0.669361
O O6 0.500000 0.500000 0.000000
O O7 0.438903 0.736887 0.083940
O O8 0.500000 0.000000 0.000000
#
# Coordination Sequence:
#
# PCOD9298212 Si02
#       4
#     4   8   8   8
#     4  12  26  42  72 112 142 214 258 326 402 466
#     4  11  23  45  73 105 153 203 265 332 407 487
#     4  10  24  43  76 109 148 205 258 324 402 477
#     4  11  23  45  73 105 153 203 265 332 407 487
#
# _framework density 26.562079000000001
#
# number of rings (size 3 to 8) (size 9 to 14) (size 15 to 20)
#    0.000    1.143    2.857    2.571    8.000    1.143 
#    0.000    2.857    0.000    0.000    0.000    0.000 
#    0.000    0.000    0.000    0.000    0.000    0.000 
#
# Total GULP energy -77952.242922 kJ/mol
# GULP energy per Si atom -5568.017352 kJ/mol
# Density = 2.650162 g / cm^3
# Si number density = 26.562079 Si / 1000 Ang^3
#
#
#
# Elastic Constant Matrix: (Units=GPa)
#
#
# Indices 1 2 3 4 5 6 
#
# 1 99.5882 29.5899 43.5941 0.0001 0.5460 -0.0001
# 2 29.5899 181.6056 27.2855 0.0005 5.3791 0.0006
# 3 43.5941 27.2855 112.9533 0.0000 -35.5386 0.0000
# 4 0.0001 0.0005 0.0000 57.7403 0.0000 0.1933
# 5 0.5460 5.3791 -35.5386 0.0000 56.4746 0.0000
# 6 -0.0001 0.0006 0.0000 0.1933 0.0000 47.6422
#
#
#
# Elastic Compliance Matrix: (Units=1/GPa)
#
#
# Indices 1 2 3 4 5 6 
#
# 1 0.012985 -0.001115 -0.005920 0.000000 -0.003745 0.000000
# 2 -0.001115 0.005954 -0.001475 0.000000 -0.001484 0.000000
# 3 -0.005920 -0.001475 0.014410 0.000000 0.009265 0.000000
# 4 0.000000 0.000000 0.000000 0.017319 0.000000 -0.000070
# 5 -0.003745 -0.001484 0.009265 0.000000 0.023715 0.000000
# 6 0.000000 0.000000 0.000000 -0.000070 0.000000 0.020990
#
#
# Mechanical properties :
#
#
# Convention : Reuss Voigt Hill
#
# Bulk Modulus (GPa) = 61.24676 66.12067 63.68372
# Shear Modulus (GPa) = 42.43192 51.94992 47.19092
#
# Velocity S-wave (km/s) = 4.00116 4.42723 4.21958
# Velocity P-wave (km/s) = 6.66737 7.14708 6.91139
#
# Compressibility (1/GPa) = 0.01632739
#
# Stress axis : x y z
#
# Youngs Moduli (GPa) = 77.01299 167.96272 69.39819
#
# Poissons Ratio (x) = 0.18732 0.41086
# Poissons Ratio (y) = 0.08589 0.10235
# Poissons Ratio (z) = 0.45594 0.24771
#
# Static dielectric constant tensor:
#      x y z
#    x 2.254770 0.000000 -0.111480 
#    y 0.000000 2.269470 0.000000 
#    z -0.111480 0.000000 2.330410 
# 
# From -- ./inp_files/164914.got.cif
#   From: 2010.05.17/outbox.cif.g08.bks.cpg/sg15_83_cif.got.tgz:164914.got - 2010.06.03 18:47:42.
