data_PCOD9298627
_publ_section_title
;
Structure prediction by ZEFSAII (Michael W. Deem and Ramdas Pophale) SiO2 
 PCOD9298627
Probable space group: C 2/C
;
_chemical_formula_sum "Si O2"
_cell_formula_units_Z 64
_cell_length_a 9.498478
_cell_length_b 27.532696
_cell_length_c 15.708870
_cell_angle_alpha 90.000000
_cell_angle_beta 42.982113
_cell_angle_gamma 90.000000
_cell_volume 2800.822575
_symmetry_space_group_name_H-M "C 2/C"
_symmetry_group_IT_number 15
_symmetry_cell_setting 'monoclinic'
loop_
_space_group_symop_operation_xyz
x,y,z
-x,y,1/2-z
-x,-y,-z
x,-y,1/2+z
1/2+x,1/2+y,z
1/2-x,1/2+y,1/2-z
1/2-x,1/2-y,-z
1/2+x,1/2-y,1/2+z
loop_
_atom_site_type_symbol
_atom_site_label
_atom_site_fract_x
_atom_site_fract_y
_atom_site_fract_z
Si Si1 0.411917 0.167247 0.602137
Si Si2 0.914034 0.918425 0.696534
Si Si3 0.047007 0.972901 0.127987
Si Si4 0.553488 0.930344 0.634232
Si Si5 0.202967 0.595644 0.710076
Si Si6 0.917682 0.678425 0.399811
Si Si7 0.206893 0.229589 0.342519
Si Si8 0.657245 0.663977 0.997026
O O1 0.341317 0.117403 0.676841
O O2 0.382697 0.171178 0.514463
O O3 0.286452 0.214717 0.688347
O O4 0.649932 0.169834 0.525489
O O5 0.668547 0.924689 0.811593
O O6 0.000000 0.904847 0.750000
O O7 0.997618 0.877459 0.597554
O O8 0.009740 0.970225 0.628983
O O9 0.000000 0.964865 0.250000
O O10 0.884557 0.942587 0.143106
O O11 0.275603 0.957551 0.996798
O O12 0.500000 0.952813 0.750000
O O13 0.629005 0.875039 0.616776
O O14 0.262743 0.642773 0.627502
O O15 0.000000 0.576173 0.750000
O O16 0.791011 0.717224 0.399991
O O17 0.151594 0.696321 0.280522
O O18 0.971295 0.212976 0.448828
#
# Coordination Sequence:
#
# PCOD9298627 Si02
#       8
#     8   8   8   8   8   8   8   8
#     4  11  25  41  68  97 137 186 225 286 349 417
#     4  11  25  44  71 103 137 182 237 295 351 421
#     4  11  26  45  72 107 139 184 236 297 358 425
#     4  12  23  44  70 101 139 184 233 288 353 422
#     4  10  24  45  66  98 145 185 229 286 356 417
#     4  11  22  43  66  96 137 178 232 285 342 413
#     4  11  23  41  64  99 130 178 229 287 336 411
#     4  11  23  44  66  95 135 179 237 284 340 413
#
# _framework density 22.850431
#
# number of rings (size 3 to 8) (size 9 to 14) (size 15 to 20)
#    0.000    1.000    2.500    3.750    1.750    7.500 
#    9.000    0.000    0.000    0.000    0.000    0.000 
#    0.000    0.000    0.000    0.000    0.000    0.000 
#
# Total GULP energy -178938.731178 kJ/mol
# GULP energy per Si atom -5591.835349 kJ/mol
# Density = 2.279842 g / cm^3
# Si number density = 22.850431 Si / 1000 Ang^3
#
#
#
# Elastic Constant Matrix: (Units=GPa)
#
#
# Indices 1 2 3 4 5 6 
#
# 1 90.5979 10.8357 37.9068 0.0000 -1.6018 0.0000
# 2 10.8357 48.8455 25.0998 0.0000 4.7860 0.0000
# 3 37.9068 25.0998 103.3819 0.0000 0.9543 0.0000
# 4 0.0000 0.0000 0.0000 9.8727 0.0000 20.6627
# 5 -1.6018 4.7860 0.9543 0.0000 37.3695 0.0000
# 6 0.0000 0.0000 0.0000 20.6627 0.0000 -14.1316
#
#
#
# Elastic Compliance Matrix: (Units=1/GPa)
#
#
# Indices 1 2 3 4 5 6 
#
# 1 0.013070 -0.000579 -0.004658 0.000000 0.000753 0.000000
# 2 -0.000579 0.023724 -0.005521 0.000000 -0.002922 0.000000
# 3 -0.004658 -0.005521 0.012720 0.000000 0.000183 0.000000
# 4 0.000000 0.000000 0.000000 0.024947 0.000000 0.036477
# 5 0.000753 -0.002922 0.000183 0.000000 0.027162 0.000000
# 6 0.000000 0.000000 0.000000 0.036477 0.000000 -0.017429
#
#
# Mechanical properties :
#
#
# Convention : Reuss Voigt Hill
#
# Bulk Modulus (GPa) = 35.71838 43.38999 39.55419
# Shear Modulus (GPa) = 43.46210 17.88763 30.67487
#
# Velocity S-wave (km/s) = 4.36595 2.80092 3.66788
# Velocity P-wave (km/s) = 6.40942 5.43048 5.94015
#
# Compressibility (1/GPa) = 0.02799679
#
# Stress axis : x y z
#
# Youngs Moduli (GPa) = 76.51386 42.15074 78.61871
#
# Poissons Ratio (x) = 0.02442 0.36624
# Poissons Ratio (y) = 0.04433 0.43402
# Poissons Ratio (z) = 0.35644 0.23270
#
# Static dielectric constant tensor:
#      x y z
#    x 1.845250 0.000000 0.009220 
#    y 0.000000 1.833130 0.000000 
#    z 0.009220 0.000000 1.901490 
# 
# From -- ./inp_files/139818.got.cif
#   From: 2010.05.17/outbox.cif.g08.bks.cpg/sg15_70_cif.got.tgz:139818.got - 2010.06.03 18:47:42.
