data_PCOD9298117
_publ_section_title
;
Structure prediction by ZEFSAII (Michael W. Deem and Ramdas Pophale) SiO2 
 PCOD9298117
Probable space group: C 2/C
;
_chemical_formula_sum "Si O2"
_cell_formula_units_Z 48
_cell_length_a 29.347523
_cell_length_b 5.303793
_cell_length_c 15.143429
_cell_angle_alpha 90.000000
_cell_angle_beta 124.456283
_cell_angle_gamma 90.000000
_cell_volume 1943.584898
_symmetry_space_group_name_H-M "C 2/C"
_symmetry_group_IT_number 15
_symmetry_cell_setting 'monoclinic'
loop_
_space_group_symop_operation_xyz
x,y,z
-x,y,1/2-z
-x,-y,-z
x,-y,1/2+z
1/2+x,1/2+y,z
1/2-x,1/2+y,1/2-z
1/2-x,1/2-y,-z
1/2+x,1/2-y,1/2+z
loop_
_atom_site_type_symbol
_atom_site_label
_atom_site_fract_x
_atom_site_fract_y
_atom_site_fract_z
Si Si1 0.782592 0.005310 0.064350
Si Si2 0.239183 0.395792 0.197116
Si Si3 0.092229 0.059121 0.837304
Si Si4 0.444243 0.565487 0.385962
Si Si5 0.612939 0.856386 0.031436
Si Si6 0.019847 0.631246 0.858204
O O1 0.845165 0.040659 0.102415
O O2 0.779821 0.990606 0.166233
O O3 0.750000 0.750000 0.000000
O O4 0.750000 0.250000 0.000000
O O5 0.245785 0.093655 0.209503
O O6 0.174897 0.450475 0.107382
O O7 0.073568 0.112396 0.715663
O O8 0.051786 0.867031 0.845863
O O9 0.102057 0.280277 0.918071
O O10 0.500000 0.500000 0.500000
O O11 0.398882 0.641778 0.408578
O O12 0.463950 0.802185 0.348457
O O13 0.561911 0.047112 0.981167
O O14 0.000000 0.472378 0.750000
#
# Coordination Sequence:
#
# PCOD9298117 Si02
#       6
#     8   8   8   8   8   8
#     4  12  25  47  75 107 146 197 248 307 377 451
#     4  12  28  49  76 112 153 196 255 319 379 452
#     4  11  25  45  70 105 142 193 242 303 370 449
#     4  11  24  44  70 103 144 187 243 304 372 441
#     4  12  25  45  75 101 144 199 240 309 376 450
#     4  10  24  43  69 104 144 186 247 301 366 451
#
# _framework density 24.696631
#
# number of rings (size 3 to 8) (size 9 to 14) (size 15 to 20)
#    0.000    0.667    3.333    3.500    4.667    1.333 
#    3.000    0.000    0.000    0.000    0.000    0.000 
#    0.000    0.000    0.000    0.000    0.000    0.000 
#
# Total GULP energy -133891.740898 kJ/mol
# GULP energy per Si atom -5578.822537 kJ/mol
# Density = 2.464042 g / cm^3
# Si number density = 24.696631 Si / 1000 Ang^3
#
#
#
# Elastic Constant Matrix: (Units=GPa)
#
#
# Indices 1 2 3 4 5 6 
#
# 1 102.3732 1.8973 9.7127 -0.0001 13.4695 0.0001
# 2 1.8973 62.7446 13.2121 0.0002 5.8461 0.0000
# 3 9.7127 13.2121 117.1036 -0.0001 0.6680 0.0001
# 4 -0.0001 0.0002 -0.0001 36.7046 0.0001 3.5823
# 5 13.4695 5.8461 0.6680 0.0001 45.1610 -0.0001
# 6 0.0001 0.0000 0.0001 3.5823 -0.0001 23.0863
#
#
#
# Elastic Compliance Matrix: (Units=1/GPa)
#
#
# Indices 1 2 3 4 5 6 
#
# 1 0.010249 0.000155 -0.000850 0.000000 -0.003064 0.000000
# 2 0.000155 0.016527 -0.001865 0.000000 -0.002158 0.000000
# 3 -0.000850 -0.001865 0.008818 0.000000 0.000365 0.000000
# 4 0.000000 0.000000 0.000000 0.027663 0.000000 -0.004293
# 5 -0.003064 -0.002158 0.000365 0.000000 0.023331 0.000000
# 6 0.000000 0.000000 0.000000 -0.004293 0.000000 0.043982
#
#
# Mechanical properties :
#
#
# Convention : Reuss Voigt Hill
#
# Bulk Modulus (GPa) = 32.81590 36.87395 34.84493
# Shear Modulus (GPa) = 34.28201 38.15035 36.21618
#
# Velocity S-wave (km/s) = 3.72980 3.93461 3.83357
# Velocity P-wave (km/s) = 5.64491 5.96697 5.80817
#
# Compressibility (1/GPa) = 0.03047303
#
# Stress axis : x y z
#
# Youngs Moduli (GPa) = 97.56918 60.50799 113.40056
#
# Poissons Ratio (x) = -0.00935 0.09639
# Poissons Ratio (y) = -0.01508 0.21151
# Poissons Ratio (z) = 0.08294 0.11285
#
# Static dielectric constant tensor:
#      x y z
#    x 2.388840 0.000000 0.160570 
#    y 0.000000 2.473870 0.000000 
#    z 0.160570 0.000000 2.095610 
# 
# From -- ./inp_files/180213.got.cif
#   From: 2010.05.17/outbox.cif.g08.bks.cpg/sg15_91_cif.got.tgz:180213.got - 2010.06.03 18:47:42.
