data_PCOD9298738
_publ_section_title
;
Structure prediction by ZEFSAII (Michael W. Deem and Ramdas Pophale) SiO2 
 PCOD9298738
Probable space group: C 2/C
;
_chemical_formula_sum "Si O2"
_cell_formula_units_Z 64
_cell_length_a 21.654646
_cell_length_b 7.872479
_cell_length_c 28.987224
_cell_angle_alpha 90.000000
_cell_angle_beta 145.529276
_cell_angle_gamma 90.000000
_cell_volume 2796.882345
_symmetry_space_group_name_H-M "C 2/C"
_symmetry_group_IT_number 15
_symmetry_cell_setting 'monoclinic'
loop_
_space_group_symop_operation_xyz
x,y,z
-x,y,1/2-z
-x,-y,-z
x,-y,1/2+z
1/2+x,1/2+y,z
1/2-x,1/2+y,1/2-z
1/2-x,1/2-y,-z
1/2+x,1/2-y,1/2+z
loop_
_atom_site_type_symbol
_atom_site_label
_atom_site_fract_x
_atom_site_fract_y
_atom_site_fract_z
Si Si1 0.900770 0.877238 0.904834
Si Si2 0.428226 0.068962 0.297446
Si Si3 0.927545 0.046828 0.830555
Si Si4 0.241823 0.551776 0.875534
Si Si5 0.334914 0.470226 0.028231
Si Si6 0.813813 0.534469 0.819539
Si Si7 0.114251 0.351723 0.550450
Si Si8 0.147809 0.433765 0.979292
O O1 0.834080 0.932378 0.908405
O O2 0.826534 0.734731 0.834901
O O3 0.919997 0.035443 0.881985
O O4 0.014517 0.779853 0.982652
O O5 0.431624 0.271554 0.307965
O O6 0.372767 0.011656 0.215701
O O7 0.350731 0.001369 0.290646
O O8 0.550135 0.009050 0.384900
O O9 0.808856 0.978347 0.744680
O O10 0.042852 0.956848 0.891749
O O11 0.263336 0.546347 0.943025
O O12 0.276177 0.739327 0.881776
O O13 0.265108 0.484995 0.031457
O O14 0.350540 0.271991 0.022694
O O15 0.892156 0.445464 0.904735
O O16 0.124464 0.484710 0.514571
#
# Coordination Sequence:
#
# PCOD9298738 Si02
#       8
#     8   8   8   8   8   8   8   8
#     4  12  23  39  63 100 133 173 214 269 336 404
#     4  11  24  40  67  97 133 167 216 276 330 395
#     4  11  22  42  64  95 130 174 211 273 332 390
#     4  12  24  40  65 101 131 173 215 271 336 401
#     4  10  24  45  71  90 125 178 230 272 325 394
#     4  12  23  38  63 101 135 170 207 273 338 396
#     4  12  26  39  66  99 137 175 216 273 330 405
#     4  10  24  47  67  93 126 177 228 274 325 394
#
# _framework density 22.882621
#
# number of rings (size 3 to 8) (size 9 to 14) (size 15 to 20)
#    0.000    0.750    5.000    2.250    5.250    1.000 
#    0.000    0.625    2.750    0.000    0.000    0.000 
#    0.000    0.000    0.000    0.000    0.000    0.000 
#
# Total GULP energy -178796.695293 kJ/mol
# GULP energy per Si atom -5587.396728 kJ/mol
# Density = 2.283054 g / cm^3
# Si number density = 22.882621 Si / 1000 Ang^3
#
#
#
# Elastic Constant Matrix: (Units=GPa)
#
#
# Indices 1 2 3 4 5 6 
#
# 1 48.2348 -4.3917 20.9499 0.0000 17.3954 -0.0001
# 2 -4.3917 53.6755 14.8068 0.0001 -7.5734 -0.0006
# 3 20.9499 14.8068 119.4299 0.0000 18.8246 -0.0001
# 4 0.0000 0.0001 0.0000 32.0387 0.0000 -5.9308
# 5 17.3954 -7.5734 18.8246 0.0000 29.8555 0.0000
# 6 -0.0001 -0.0006 -0.0001 -5.9308 0.0000 18.6755
#
#
#
# Elastic Compliance Matrix: (Units=1/GPa)
#
#
# Indices 1 2 3 4 5 6 
#
# 1 0.026950 0.001005 -0.002684 0.000000 -0.013755 0.000000
# 2 0.001005 0.020789 -0.003878 0.000000 0.007133 0.000001
# 3 -0.002684 -0.003878 0.010252 0.000000 -0.005884 0.000000
# 4 0.000000 0.000000 0.000000 0.033162 0.000000 0.010531
# 5 -0.013755 0.007133 -0.005884 0.000000 0.047029 0.000000
# 6 0.000000 0.000001 0.000000 0.010531 0.000000 0.056891
#
#
# Mechanical properties :
#
#
# Convention : Reuss Voigt Hill
#
# Bulk Modulus (GPa) = 21.33272 31.56335 26.44804
# Shear Modulus (GPa) = 22.54160 28.77894 25.66027
#
# Velocity S-wave (km/s) = 3.14203 3.55022 3.35234
# Velocity P-wave (km/s) = 4.74405 5.53434 5.15437
#
# Compressibility (1/GPa) = 0.04687634
#
# Stress axis : x y z
#
# Youngs Moduli (GPa) = 37.10606 48.10255 97.54037
#
# Poissons Ratio (x) = -0.04832 0.26178
# Poissons Ratio (y) = -0.03727 0.37826
# Poissons Ratio (z) = 0.09959 0.18654
#
# Static dielectric constant tensor:
#      x y z
#    x 1.811820 0.000000 0.033310 
#    y 0.000000 1.893520 0.000000 
#    z 0.033310 0.000000 1.906450 
# 
# From -- ./inp_files/318630.got.cif
#   From: 2010.05.17/outbox.cif.g08.bks.cpg/sg15_160_cif.got.tgz:318630.got - 2010.06.03 18:47:42.
