data_PCOD9298074
_publ_section_title
;
Structure prediction by ZEFSAII (Michael W. Deem and Ramdas Pophale) SiO2 
 PCOD9298074
Probable space group: C 2/C
;
_chemical_formula_sum "Si O2"
_cell_formula_units_Z 56
_cell_length_a 25.524364
_cell_length_b 11.051670
_cell_length_c 27.659554
_cell_angle_alpha 90.000000
_cell_angle_beta 160.262595
_cell_angle_gamma 90.000000
_cell_volume 2634.945858
_symmetry_space_group_name_H-M "C 2/C"
_symmetry_group_IT_number 15
_symmetry_cell_setting 'monoclinic'
loop_
_space_group_symop_operation_xyz
x,y,z
-x,y,1/2-z
-x,-y,-z
x,-y,1/2+z
1/2+x,1/2+y,z
1/2-x,1/2+y,1/2-z
1/2-x,1/2-y,-z
1/2+x,1/2-y,1/2+z
loop_
_atom_site_type_symbol
_atom_site_label
_atom_site_fract_x
_atom_site_fract_y
_atom_site_fract_z
Si Si1 0.169480 0.006113 0.518703
Si Si2 0.633949 0.456144 0.798091
Si Si3 0.794254 0.393898 0.031809
Si Si4 0.897324 0.678294 0.754780
Si Si5 0.447575 0.064520 0.521622
Si Si6 0.419846 0.389843 0.959935
Si Si7 0.863636 0.331098 0.849965
O O1 0.278428 0.022323 0.565517
O O2 0.225331 0.133262 0.591397
O O3 0.005675 0.978710 0.350632
O O4 0.169030 0.925982 0.567322
O O5 0.670636 0.449800 0.886725
O O6 0.595171 0.317941 0.750467
O O7 0.799189 0.490589 0.919684
O O8 0.750000 0.250000 0.000000
O O9 0.965415 0.386160 0.157328
O O10 0.944148 0.643517 0.849448
O O11 0.372513 0.147307 0.414921
O O12 0.548664 0.951712 0.592110
O O13 0.301207 0.331433 0.818841
O O14 0.500000 0.500000 0.000000
O O15 0.548310 0.291801 0.085187
#
# Coordination Sequence:
#
# PCOD9298074 Si02
#       7
#     8   8   8   8   8   8   8
#     4  12  23  38  61  96 136 175 228 270 339 420
#     4  11  22  35  63 100 140 175 221 281 352 415
#     4  11  21  36  59  95 139 178 219 277 355 415
#     4  11  21  37  61 100 139 179 219 283 350 420
#     4  10  24  43  67  97 134 186 224 283 351 408
#     4  12  30  47  73 104 137 185 235 284 350 419
#     4  11  27  48  70  96 143 181 238 289 341 415
#
# _framework density 21.252808000000002
#
# number of rings (size 3 to 8) (size 9 to 14) (size 15 to 20)
#    0.000    0.857    4.286    2.571   12.000    0.000 
#    0.000    0.000    0.000    3.429    0.000    0.000 
#    0.000    0.000    0.000    0.000    0.000    0.000 
#
# Total GULP energy -156042.139413 kJ/mol
# GULP energy per Si atom -5572.933550 kJ/mol
# Density = 2.120444 g / cm^3
# Si number density = 21.252808 Si / 1000 Ang^3
#
#
#
# Elastic Constant Matrix: (Units=GPa)
#
#
# Indices 1 2 3 4 5 6 
#
# 1 91.4593 18.6392 14.8531 0.0014 -27.3333 0.0002
# 2 18.6392 41.1849 4.0109 0.0022 -9.4707 0.0022
# 3 14.8531 4.0109 119.1105 0.0068 -20.7125 0.0038
# 4 0.0014 0.0022 0.0068 34.7979 0.0023 4.2564
# 5 -27.3333 -9.4707 -20.7125 0.0023 37.1272 0.0012
# 6 0.0002 0.0022 0.0038 4.2564 0.0012 17.8012
#
#
#
# Elastic Compliance Matrix: (Units=1/GPa)
#
#
# Indices 1 2 3 4 5 6 
#
# 1 0.014744 -0.004437 0.000002 -0.000001 0.009724 0.000000
# 2 -0.004437 0.027139 0.000305 -0.000001 0.003826 -0.000003
# 3 0.000002 0.000305 0.009301 -0.000002 0.005268 -0.000002
# 4 -0.000001 -0.000001 -0.000002 0.029603 -0.000004 -0.007078
# 5 0.009724 0.003826 0.005268 -0.000004 0.038008 -0.000003
# 6 0.000000 -0.000003 -0.000002 -0.007078 -0.000003 0.057869
#
#
# Mechanical properties :
#
#
# Convention : Reuss Voigt Hill
#
# Bulk Modulus (GPa) = 23.29739 36.30678 29.80208
# Shear Modulus (GPa) = 25.09639 32.22868 28.66254
#
# Velocity S-wave (km/s) = 3.44008 3.89838 3.67638
# Velocity P-wave (km/s) = 5.17346 6.11421 5.66340
#
# Compressibility (1/GPa) = 0.04292326
#
# Stress axis : x y z
#
# Youngs Moduli (GPa) = 67.82547 36.84745 107.51363
#
# Poissons Ratio (x) = 0.16348 -0.00019
# Poissons Ratio (y) = 0.30093 -0.03277
# Poissons Ratio (z) = -0.00012 -0.01123
#
# Static dielectric constant tensor:
#      x y z
#    x 1.877310 0.000000 -0.000690 
#    y 0.000000 1.724270 0.000000 
#    z -0.000690 0.000000 1.834800 
# 
# From -- ./inp_files/303306.got.cif
#   From: 2010.05.17/outbox.cif.g08.bks.cpg/sg15_152_cif.got.tgz:303306.got - 2010.06.03 18:47:42.
