data_PCOD9298489
_publ_section_title
;
Structure prediction by ZEFSAII (Michael W. Deem and Ramdas Pophale) SiO2 
 PCOD9298489
Probable space group: C 2/C
;
_chemical_formula_sum "Si O2"
_cell_formula_units_Z 56
_cell_length_a 17.258012
_cell_length_b 28.975296
_cell_length_c 8.846957
_cell_angle_alpha 90.000000
_cell_angle_beta 38.922850
_cell_angle_gamma 90.000000
_cell_volume 2779.465075
_symmetry_space_group_name_H-M "C 2/C"
_symmetry_group_IT_number 15
_symmetry_cell_setting 'monoclinic'
loop_
_space_group_symop_operation_xyz
x,y,z
-x,y,1/2-z
-x,-y,-z
x,-y,1/2+z
1/2+x,1/2+y,z
1/2-x,1/2+y,1/2-z
1/2-x,1/2-y,-z
1/2+x,1/2-y,1/2+z
loop_
_atom_site_type_symbol
_atom_site_label
_atom_site_fract_x
_atom_site_fract_y
_atom_site_fract_z
Si Si1 0.612069 0.963959 0.840194
Si Si2 0.865844 0.243583 0.208187
Si Si3 0.608512 0.353717 0.974903
Si Si4 0.523492 0.568428 0.375379
Si Si5 0.500000 0.796603 0.250000
Si Si6 0.500000 0.198180 0.250000
Si Si7 0.790179 0.993191 0.321039
Si Si8 0.123496 0.360523 0.833348
O O1 0.689572 0.965672 0.568768
O O2 0.567693 0.911752 0.932913
O O3 0.710943 0.980168 0.815331
O O4 0.500000 0.000000 0.000000
O O5 0.750000 0.250000 0.500000
O O6 0.868346 0.190225 0.165022
O O7 0.971276 0.262979 0.155977
O O8 0.897845 0.271607 0.001772
O O9 0.562911 0.396735 0.945664
O O10 0.729162 0.365592 0.889381
O O11 0.500000 0.339838 0.250000
O O12 0.500000 0.591952 0.250000
O O13 0.634599 0.531318 0.196563
O O14 0.398567 0.540729 0.602689
O O15 0.403465 0.831401 0.473616
O O16 0.430955 0.166278 0.229413
#
# Coordination Sequence:
#
# PCOD9298489 Si02
#       8
#     8   8   8   8   4   4   8   8
#     4  12  26  43  68  97 139 181 230 277 335 406
#     4  11  23  46  71 103 136 179 225 288 347 418
#     4  12  25  44  72 104 137 178 232 283 345 413
#     4  11  24  44  69  99 137 179 223 286 341 404
#     4  10  24  44  71  98 138 179 220 280 360 404
#     4  10  26  48  71  98 142 183 230 288 354 408
#     4  11  24  45  67  97 134 180 226 282 341 397
#     4  11  25  46  68 101 137 183 230 285 342 414
#
# _framework density 20.147762
#
# number of rings (size 3 to 8) (size 9 to 14) (size 15 to 20)
#    0.000    0.857    5.000    1.286    5.000    1.714 
#    2.571    0.000    0.000    0.000    0.000    0.000 
#    0.000    0.000    0.000    0.000    0.000    0.000 
#
# Total GULP energy -156087.617983 kJ/mol
# GULP energy per Si atom -5574.557785 kJ/mol
# Density = 2.010190 g / cm^3
# Si number density = 20.147762 Si / 1000 Ang^3
#
#
#
# Elastic Constant Matrix: (Units=GPa)
#
#
# Indices 1 2 3 4 5 6 
#
# 1 94.6684 37.3029 27.0896 0.0000 1.1376 0.0000
# 2 37.3029 105.0025 15.4406 0.0000 -1.0763 0.0000
# 3 27.0896 15.4406 74.8165 0.0000 -4.3662 0.0000
# 4 0.0000 0.0000 0.0000 25.7123 0.0000 2.9591
# 5 1.1376 -1.0763 -4.3662 0.0000 32.9246 0.0000
# 6 0.0000 0.0000 0.0000 2.9591 0.0000 24.4092
#
#
#
# Elastic Compliance Matrix: (Units=1/GPa)
#
#
# Indices 1 2 3 4 5 6 
#
# 1 0.013378 -0.004169 -0.004050 0.000000 -0.001136 0.000000
# 2 -0.004169 0.011121 -0.000762 0.000000 0.000407 0.000000
# 3 -0.004050 -0.000762 0.015113 0.000000 0.002119 0.000000
# 4 0.000000 0.000000 0.000000 0.039442 0.000000 -0.004782
# 5 -0.001136 0.000407 0.002119 0.000000 0.030706 0.000000
# 6 0.000000 0.000000 0.000000 -0.004782 0.000000 0.041548
#
#
# Mechanical properties :
#
#
# Convention : Reuss Voigt Hill
#
# Bulk Modulus (GPa) = 46.18703 48.23928 47.21315
# Shear Modulus (GPa) = 28.33067 29.58618 28.95843
#
# Velocity S-wave (km/s) = 3.75393 3.83621 3.79529
# Velocity P-wave (km/s) = 6.46245 6.60429 6.53376
#
# Compressibility (1/GPa) = 0.02165110
#
# Stress axis : x y z
#
# Youngs Moduli (GPa) = 74.74720 89.92146 66.16656
#
# Poissons Ratio (x) = 0.37487 0.26797
# Poissons Ratio (y) = 0.31161 0.05041
# Poissons Ratio (z) = 0.30272 0.06851
#
# Static dielectric constant tensor:
#      x y z
#    x 1.734280 0.000000 -0.002390 
#    y 0.000000 1.764020 0.000000 
#    z -0.002390 0.000000 1.744280 
# 
# From -- ./inp_files/52319.got.cif
#   From: 2010.05.17/outbox.cif.g08.bks.cpg/sg15_27_cif.got.tgz:52319.got - 2010.06.03 18:47:42.
