data_PCOD9298304
_publ_section_title
;
Structure prediction by ZEFSAII (Michael W. Deem and Ramdas Pophale) SiO2 
 PCOD9298304
Probable space group: C 2/C
;
_chemical_formula_sum "Si O2"
_cell_formula_units_Z 48
_cell_length_a 25.524392
_cell_length_b 9.650479
_cell_length_c 8.819151
_cell_angle_alpha 90.000000
_cell_angle_beta 106.834557
_cell_angle_gamma 90.000000
_cell_volume 2079.259952
_symmetry_space_group_name_H-M "C 2/C"
_symmetry_group_IT_number 15
_symmetry_cell_setting 'monoclinic'
loop_
_space_group_symop_operation_xyz
x,y,z
-x,y,1/2-z
-x,-y,-z
x,-y,1/2+z
1/2+x,1/2+y,z
1/2-x,1/2+y,1/2-z
1/2-x,1/2-y,-z
1/2+x,1/2-y,1/2+z
loop_
_atom_site_type_symbol
_atom_site_label
_atom_site_fract_x
_atom_site_fract_y
_atom_site_fract_z
Si Si1 0.014006 0.149784 0.939664
Si Si2 0.754422 0.517642 0.028410
Si Si3 0.375731 0.282215 0.811536
Si Si4 0.912757 0.726285 0.500223
Si Si5 0.178547 0.080910 0.721555
Si Si6 0.831996 0.516078 0.338202
O O1 0.973887 0.252719 0.995569
O O2 0.000000 0.148448 0.750000
O O3 0.076376 0.189370 0.026839
O O4 0.000000 0.000000 0.000000
O O5 0.720937 0.423289 0.117174
O O6 0.805494 0.578297 0.164546
O O7 0.711299 0.613171 0.903482
O O8 0.787012 0.440060 0.923834
O O9 0.403180 0.256827 0.669367
O O10 0.340738 0.422028 0.773025
O O11 0.339896 0.147900 0.822775
O O12 0.873429 0.829748 0.370701
O O13 0.889350 0.577016 0.437451
#
# Coordination Sequence:
#
# PCOD9298304 Si02
#       6
#     8   8   8   8   8   8
#     4  12  28  47  78 107 136 178 234 294 356 419
#     4  10  24  44  66 108 140 194 236 286 340 420
#     4  12  26  48  72 106 143 185 235 294 353 417
#     4  12  26  48  72 106 143 185 235 294 353 417
#     4  11  24  41  76 102 140 189 242 285 346 408
#     4  11  26  45  72 100 152 187 232 285 356 412
#
# _framework density 23.085135999999999
#
# number of rings (size 3 to 8) (size 9 to 14) (size 15 to 20)
#    0.000    0.667    5.000    1.500    4.667    8.667 
#    0.000    0.000    0.000    0.000    0.000    0.000 
#    0.000    0.000    0.000    0.000    0.000    0.000 
#
# Total GULP energy -134240.570714 kJ/mol
# GULP energy per Si atom -5593.357113 kJ/mol
# Density = 2.303259 g / cm^3
# Si number density = 23.085136 Si / 1000 Ang^3
#
#
#
# Elastic Constant Matrix: (Units=GPa)
#
#
# Indices 1 2 3 4 5 6 
#
# 1 86.1499 9.5800 20.2256 0.0000 11.6968 0.0000
# 2 9.5800 77.4830 8.4450 0.0000 4.5539 0.0000
# 3 20.2256 8.4450 157.3847 0.0000 13.8939 0.0000
# 4 0.0000 0.0000 0.0000 15.3189 0.0000 12.4019
# 5 11.6968 4.5539 13.8939 0.0000 44.7985 0.0000
# 6 0.0000 0.0000 0.0000 12.4019 0.0000 24.2709
#
#
#
# Elastic Compliance Matrix: (Units=1/GPa)
#
#
# Indices 1 2 3 4 5 6 
#
# 1 0.012417 -0.001235 -0.001290 0.000000 -0.002716 0.000000
# 2 -0.001235 0.013161 -0.000471 0.000000 -0.000869 0.000000
# 3 -0.001290 -0.000471 0.006694 0.000000 -0.001692 0.000000
# 4 0.000000 0.000000 0.000000 0.111337 0.000000 -0.056891
# 5 -0.002716 -0.000869 -0.001692 0.000000 0.023644 0.000000
# 6 0.000000 0.000000 0.000000 -0.056891 0.000000 0.070272
#
#
# Mechanical properties :
#
#
# Convention : Reuss Voigt Hill
#
# Bulk Modulus (GPa) = 38.04989 44.16875 41.10932
# Shear Modulus (GPa) = 19.81956 35.72880 27.77418
#
# Velocity S-wave (km/s) = 2.93327 3.93835 3.47236
# Velocity P-wave (km/s) = 5.29058 6.31310 5.82433
#
# Compressibility (1/GPa) = 0.02628129
#
# Stress axis : x y z
#
# Youngs Moduli (GPa) = 80.53743 75.98115 149.38357
#
# Poissons Ratio (x) = 0.09384 0.19264
# Poissons Ratio (y) = 0.09946 0.07032
# Poissons Ratio (z) = 0.10386 0.03577
#
# Static dielectric constant tensor:
#      x y z
#    x 1.823580 0.000000 0.013020 
#    y 0.000000 1.865700 0.000000 
#    z 0.013020 0.000000 1.956200 
# 
# From -- ./inp_files/60669.got.cif
#   From: 2010.05.17/outbox.cif.g08.bks.cpg/sg15_31_cif.got.tgz:60669.got - 2010.06.03 18:47:42.
