data_PCOD9298793
_publ_section_title
;
Structure prediction by ZEFSAII (Michael W. Deem and Ramdas Pophale) SiO2 
 PCOD9298793
Probable space group: C 2/C
;
_chemical_formula_sum "Si O2"
_cell_formula_units_Z 60
_cell_length_a 28.571589
_cell_length_b 11.538508
_cell_length_c 7.902429
_cell_angle_alpha 90.000000
_cell_angle_beta 105.874386
_cell_angle_gamma 90.000000
_cell_volume 2505.867949
_symmetry_space_group_name_H-M "C 2/C"
_symmetry_group_IT_number 15
_symmetry_cell_setting 'monoclinic'
loop_
_space_group_symop_operation_xyz
x,y,z
-x,y,1/2-z
-x,-y,-z
x,-y,1/2+z
1/2+x,1/2+y,z
1/2-x,1/2+y,1/2-z
1/2-x,1/2-y,-z
1/2+x,1/2-y,1/2+z
loop_
_atom_site_type_symbol
_atom_site_label
_atom_site_fract_x
_atom_site_fract_y
_atom_site_fract_z
Si Si1 0.055484 0.658265 0.088139
Si Si2 0.885618 0.171834 0.407955
Si Si3 0.683771 0.125478 0.560116
Si Si4 0.218674 0.145010 0.635588
Si Si5 0.504613 0.365920 0.551859
Si Si6 0.663673 0.491016 0.363785
Si Si7 0.500000 0.011187 0.750000
Si Si8 0.169061 0.636545 0.150680
O O1 0.035662 0.788132 0.080294
O O2 0.023198 0.594826 0.912564
O O3 0.043074 0.575164 0.233243
O O4 0.111893 0.662778 0.101412
O O5 0.859343 0.293466 0.411887
O O6 0.943079 0.180814 0.454618
O O7 0.867750 0.101174 0.225395
O O8 0.866226 0.087616 0.537000
O O9 0.731628 0.155725 0.714290
O O10 0.688610 0.144541 0.363410
O O11 0.673778 0.991522 0.583899
O O12 0.213552 0.048744 0.484730
O O13 0.199322 0.271760 0.569988
O O14 0.179055 0.092328 0.727398
O O15 0.500000 0.354542 0.750000
O O16 0.500000 0.500000 0.500000
#
# Coordination Sequence:
#
# PCOD9298793 Si02
#       8
#     8   8   8   8   8   8   4   8
#     4  11  26  45  71 101 139 184 233 288 346 412
#     4  11  26  46  72 102 142 183 235 288 348 413
#     4  12  28  46  71 105 142 186 235 290 347 421
#     4  11  25  46  71 102 143 185 235 289 349 412
#     4  12  29  46  73 104 144 183 236 284 349 417
#     4  10  24  45  74  98 142 187 234 287 349 410
#     4  10  24  46  72  96 142 182 234 288 348 404
#     4  12  28  44  72 102 144 183 239 283 355 412
#
# _framework density 23.943798999999999
#
# number of rings (size 3 to 8) (size 9 to 14) (size 15 to 20)
#    0.000    0.800    2.000    2.800   17.733    0.533 
#    0.000    0.000    0.000    0.000    0.000    0.000 
#    0.000    0.000    0.000    0.000    0.000    0.000 
#
# Total GULP energy -168179.833825 kJ/mol
# GULP energy per Si atom -5605.994461 kJ/mol
# Density = 2.388930 g / cm^3
# Si number density = 23.943799 Si / 1000 Ang^3
#
#
#
# Elastic Constant Matrix: (Units=GPa)
#
#
# Indices 1 2 3 4 5 6 
#
# 1 68.7388 19.9811 -10.1099 0.0000 9.0985 0.0000
# 2 19.9811 159.8512 15.3696 0.0000 -7.9982 0.0000
# 3 -10.1099 15.3696 35.9754 0.0000 6.3143 0.0000
# 4 0.0000 0.0000 0.0000 36.1094 0.0000 -0.9774
# 5 9.0985 -7.9982 6.3143 0.0000 20.0753 0.0000
# 6 0.0000 0.0000 0.0000 -0.9774 0.0000 39.2089
#
#
#
# Elastic Compliance Matrix: (Units=1/GPa)
#
#
# Indices 1 2 3 4 5 6 
#
# 1 0.018735 -0.003872 0.009187 0.000000 -0.012923 0.000000
# 2 -0.003872 0.007591 -0.005472 0.000000 0.006500 0.000000
# 3 0.009187 -0.005472 0.035807 0.000000 -0.017606 0.000000
# 4 0.000000 0.000000 0.000000 0.027712 0.000000 0.000691
# 5 -0.012923 0.006500 -0.017606 0.000000 0.063797 0.000000
# 6 0.000000 0.000000 0.000000 0.000691 0.000000 0.025522
#
#
# Mechanical properties :
#
#
# Convention : Reuss Voigt Hill
#
# Bulk Modulus (GPa) = 16.17604 35.00523 25.59063
# Shear Modulus (GPa) = 24.98950 35.03368 30.01159
#
# Velocity S-wave (km/s) = 3.23410 3.82928 3.54421
# Velocity P-wave (km/s) = 4.55152 5.84831 5.24018
#
# Compressibility (1/GPa) = 0.06181983
#
# Stress axis : x y z
#
# Youngs Moduli (GPa) = 53.37566 131.73178 27.92776
#
# Poissons Ratio (x) = 0.51004 -0.25658
# Poissons Ratio (y) = 0.20666 0.15282
# Poissons Ratio (z) = -0.49038 0.72085
#
# Static dielectric constant tensor:
#      x y z
#    x 1.861170 0.000000 -0.039680 
#    y 0.000000 1.866730 0.000000 
#    z -0.039680 0.000000 2.032550 
# 
# From -- ./inp_files/69418.got.cif
#   From: 2010.05.17/outbox.cif.g08.bks.cpg/sg15_35_cif.got.tgz:69418.got - 2010.06.03 18:47:42.
