data_PCOD9298180
_publ_section_title
;
Structure prediction by ZEFSAII (Michael W. Deem and Ramdas Pophale) SiO2 
 PCOD9298180
Probable space group: C 2/C
;
_chemical_formula_sum "Si O2"
_cell_formula_units_Z 48
_cell_length_a 13.547212
_cell_length_b 9.087201
_cell_length_c 17.142019
_cell_angle_alpha 90.000000
_cell_angle_beta 94.585756
_cell_angle_gamma 90.000000
_cell_volume 2103.533989
_symmetry_space_group_name_H-M "C 2/C"
_symmetry_group_IT_number 15
_symmetry_cell_setting 'monoclinic'
loop_
_space_group_symop_operation_xyz
x,y,z
-x,y,1/2-z
-x,-y,-z
x,-y,1/2+z
1/2+x,1/2+y,z
1/2-x,1/2+y,1/2-z
1/2-x,1/2-y,-z
1/2+x,1/2-y,1/2+z
loop_
_atom_site_type_symbol
_atom_site_label
_atom_site_fract_x
_atom_site_fract_y
_atom_site_fract_z
Si Si1 0.177328 0.489796 0.999904
Si Si2 0.960373 0.032589 0.891095
Si Si3 0.500000 0.608650 0.250000
Si Si4 0.136239 0.337077 0.341693
Si Si5 0.843960 0.292975 0.860975
Si Si6 0.500000 0.078359 0.250000
Si Si7 0.112871 0.826961 0.487495
O O1 0.176071 0.569570 0.083357
O O2 0.104963 0.348658 0.989643
O O3 0.154014 0.608492 0.931313
O O4 0.280455 0.402144 0.994119
O O5 0.887202 0.159573 0.915137
O O6 0.950734 0.893803 0.946252
O O7 0.933112 0.989512 0.801901
O O8 0.068071 0.104887 0.905843
O O9 0.561540 0.706606 0.314249
O O10 0.242421 0.273560 0.319810
O O11 0.082634 0.475601 0.297173
O O12 0.931891 0.332109 0.806432
#
# Coordination Sequence:
#
# PCOD9298180 Si02
#       7
#     8   8   4   8   8   4   8
#     4  11  24  46  73 107 139 193 240 309 361 440
#     4  11  24  43  68 107 138 194 237 301 370 440
#     4  11  27  44  70 102 152 190 240 302 366 440
#     4  11  26  47  73 104 147 195 245 301 374 437
#     4  12  26  47  78 104 149 191 247 305 372 440
#     4  11  29  48  68 116 146 198 250 308 372 446
#     4  10  24  43  72 105 144 181 250 300 367 436
#
# _framework density 22.818739999999998
#
# number of rings (size 3 to 8) (size 9 to 14) (size 15 to 20)
#    0.000    1.000    1.667    3.000   11.667    1.333 
#    6.000    0.000    0.000    0.000    0.000    0.000 
#    0.000    0.000    0.000    0.000    0.000    0.000 
#
# Total GULP energy -133922.162058 kJ/mol
# GULP energy per Si atom -5580.090086 kJ/mol
# Density = 2.276680 g / cm^3
# Si number density = 22.818740 Si / 1000 Ang^3
#
#
#
# Elastic Constant Matrix: (Units=GPa)
#
#
# Indices 1 2 3 4 5 6 
#
# 1 102.6413 50.1320 46.1956 0.0000 5.2315 0.0000
# 2 50.1320 129.7026 45.4762 0.0000 -12.1360 0.0000
# 3 46.1956 45.4762 85.4331 0.0000 -5.0007 0.0000
# 4 0.0000 0.0000 0.0000 13.2605 0.0000 17.4244
# 5 5.2315 -12.1360 -5.0007 0.0000 25.5102 0.0000
# 6 0.0000 0.0000 0.0000 17.4244 0.0000 29.5742
#
#
#
# Elastic Compliance Matrix: (Units=1/GPa)
#
#
# Indices 1 2 3 4 5 6 
#
# 1 0.014885 -0.004165 -0.006197 0.000000 -0.006249 0.000000
# 2 -0.004165 0.010975 -0.003272 0.000000 0.005434 0.000000
# 3 -0.006197 -0.003272 0.016976 0.000000 0.003042 0.000000
# 4 0.000000 0.000000 0.000000 0.333944 0.000000 -0.196752
# 5 -0.006249 0.005434 0.003042 0.000000 0.043663 0.000000
# 6 0.000000 0.000000 0.000000 -0.196752 0.000000 0.149735
#
#
# Mechanical properties :
#
#
# Convention : Reuss Voigt Hill
#
# Bulk Modulus (GPa) = 64.23673 66.82049 65.52861
# Shear Modulus (GPa) = 8.29690 25.40055 16.84872
#
# Velocity S-wave (km/s) = 1.90890 3.34000 2.72025
# Velocity P-wave (km/s) = 5.75070 6.64988 6.21657
#
# Compressibility (1/GPa) = 0.01556742
#
# Stress axis : x y z
#
# Youngs Moduli (GPa) = 67.18386 91.11230 58.90731
#
# Poissons Ratio (x) = 0.37948 0.36506
# Poissons Ratio (y) = 0.27982 0.19275
# Poissons Ratio (z) = 0.41635 0.29813
#
# Static dielectric constant tensor:
#      x y z
#    x 1.938220 0.000000 0.012370 
#    y 0.000000 1.860830 0.000000 
#    z 0.012370 0.000000 1.853210 
# 
# From -- ./inp_files/203053.got.cif
#   From: 2010.05.17/outbox.cif.g08.bks.cpg/sg15_102_cif.got.tgz:203053.got - 2010.06.03 18:47:42.
