data_PCOD9298197
_publ_section_title
;
Structure prediction by ZEFSAII (Michael W. Deem and Ramdas Pophale) SiO2 
 PCOD9298197
Probable space group: C 2/C
;
_chemical_formula_sum "Si O2"
_cell_formula_units_Z 40
_cell_length_a 13.284252
_cell_length_b 6.470500
_cell_length_c 16.917796
_cell_angle_alpha 90.000000
_cell_angle_beta 88.653038
_cell_angle_gamma 90.000000
_cell_volume 1453.780065
_symmetry_space_group_name_H-M "C 2/C"
_symmetry_group_IT_number 15
_symmetry_cell_setting 'monoclinic'
loop_
_space_group_symop_operation_xyz
x,y,z
-x,y,1/2-z
-x,-y,-z
x,-y,1/2+z
1/2+x,1/2+y,z
1/2-x,1/2+y,1/2-z
1/2-x,1/2-y,-z
1/2+x,1/2-y,1/2+z
loop_
_atom_site_type_symbol
_atom_site_label
_atom_site_fract_x
_atom_site_fract_y
_atom_site_fract_z
Si Si1 0.327011 0.642532 0.243787
Si Si2 0.371184 0.702501 0.412073
Si Si3 0.570939 0.090355 0.931105
Si Si4 0.810897 0.980079 0.573152
Si Si5 0.606146 0.108312 0.279872
O O1 0.340599 0.575140 0.334514
O O2 0.350330 0.512226 0.164432
O O3 0.383185 0.862017 0.239111
O O4 0.207801 0.690367 0.239732
O O5 0.485656 0.764423 0.394767
O O6 0.361975 0.585632 0.495664
O O7 0.297789 0.904770 0.419815
O O8 0.666857 0.235738 0.944305
O O9 0.604305 0.903620 0.874744
O O10 0.500000 0.000000 0.000000
O O11 0.500000 0.188038 0.250000
#
# Coordination Sequence:
#
# PCOD9298197 Si02
#       5
#     8   8   8   8   8
#     4  11  22  45  72 104 139 191 246 301 369 446
#     4  11  23  47  70 102 149 192 245 311 371 454
#     4  11  25  43  69 103 144 185 244 307 375 452
#     4  10  24  43  74 101 139 196 241 302 380 441
#     4  11  23  46  68  98 143 184 236 304 365 437
#
# _framework density 27.514478
#
# number of rings (size 3 to 8) (size 9 to 14) (size 15 to 20)
#    0.000    1.200    4.000    0.600    5.600    0.800 
#    7.200    1.000    0.000    0.000    0.000    0.000 
#    0.000    0.000    0.000    0.000    0.000    0.000 
#
# Total GULP energy -111769.211263 kJ/mol
# GULP energy per Si atom -5588.460563 kJ/mol
# Density = 2.745185 g / cm^3
# Si number density = 27.514478 Si / 1000 Ang^3
#
#
#
# Elastic Constant Matrix: (Units=GPa)
#
#
# Indices 1 2 3 4 5 6 
#
# 1 170.1641 36.0048 42.9710 0.0000 -6.6482 0.0000
# 2 36.0048 98.9064 69.3099 0.0000 -8.5224 0.0000
# 3 42.9710 69.3099 211.1710 0.0000 -22.1367 0.0000
# 4 0.0000 0.0000 0.0000 59.8090 0.0000 -13.5955
# 5 -6.6482 -8.5224 -22.1367 0.0000 53.7452 0.0000
# 6 0.0000 0.0000 0.0000 -13.5955 0.0000 44.1536
#
#
#
# Elastic Compliance Matrix: (Units=1/GPa)
#
#
# Indices 1 2 3 4 5 6 
#
# 1 0.006449 -0.001851 -0.000681 0.000000 0.000224 0.000000
# 2 -0.001851 0.013667 -0.004082 0.000000 0.000257 0.000000
# 3 -0.000681 -0.004082 0.006414 0.000000 0.001910 0.000000
# 4 0.000000 0.000000 0.000000 0.017978 0.000000 0.005536
# 5 0.000224 0.000257 0.001910 0.000000 0.019462 0.000000
# 6 0.000000 0.000000 0.000000 0.005536 0.000000 0.024353
#
#
# Mechanical properties :
#
#
# Convention : Reuss Voigt Hill
#
# Bulk Modulus (GPa) = 75.17950 86.31254 80.74602
# Shear Modulus (GPa) = 47.17607 53.67194 50.42400
#
# Velocity S-wave (km/s) = 4.14525 4.42144 4.28557
# Velocity P-wave (km/s) = 7.09181 7.58311 7.34157
#
# Compressibility (1/GPa) = 0.01330150
#
# Stress axis : x y z
#
# Youngs Moduli (GPa) = 155.06005 73.16808 155.90247
#
# Poissons Ratio (x) = 0.13543 0.10623
# Poissons Ratio (y) = 0.28700 0.63643
# Poissons Ratio (z) = 0.10566 0.29869
#
# Static dielectric constant tensor:
#      x y z
#    x 2.040890 0.000000 0.066290 
#    y 0.000000 2.378680 0.000000 
#    z 0.066290 0.000000 2.280130 
# 
# From -- ./inp_files/202300.got.cif
#   From: 2010.05.17/outbox.cif.g08.bks.cpg/sg15_102_cif.got.tgz:202300.got - 2010.06.03 18:47:42.
