data_PCOD9298186
_publ_section_title
;
Structure prediction by ZEFSAII (Michael W. Deem and Ramdas Pophale) SiO2 
 PCOD9298186
Probable space group: C 2/C
;
_chemical_formula_sum "Si O2"
_cell_formula_units_Z 60
_cell_length_a 12.326660
_cell_length_b 13.761522
_cell_length_c 16.918037
_cell_angle_alpha 90.000000
_cell_angle_beta 56.762766
_cell_angle_gamma 90.000000
_cell_volume 2400.381053
_symmetry_space_group_name_H-M "C 2/C"
_symmetry_group_IT_number 15
_symmetry_cell_setting 'monoclinic'
loop_
_space_group_symop_operation_xyz
x,y,z
-x,y,1/2-z
-x,-y,-z
x,-y,1/2+z
1/2+x,1/2+y,z
1/2-x,1/2+y,1/2-z
1/2-x,1/2-y,-z
1/2+x,1/2-y,1/2+z
loop_
_atom_site_type_symbol
_atom_site_label
_atom_site_fract_x
_atom_site_fract_y
_atom_site_fract_z
Si Si1 0.560908 0.474840 0.560014
Si Si2 0.500000 0.583391 0.750000
Si Si3 0.148547 0.601172 0.216577
Si Si4 0.238757 0.708425 0.856772
Si Si5 0.178937 0.450803 0.491085
Si Si6 0.399146 0.098425 0.098091
Si Si7 0.851930 0.218827 0.523963
Si Si8 0.644858 0.869122 0.228609
O O1 0.500000 0.500000 0.500000
O O2 0.510986 0.520994 0.663127
O O3 0.711071 0.510187 0.496722
O O4 0.559025 0.358661 0.556262
O O5 0.377428 0.654422 0.789513
O O6 0.240277 0.677389 0.135963
O O7 0.165926 0.639199 0.298783
O O8 0.167729 0.485928 0.215652
O O9 0.000000 0.617832 0.250000
O O10 0.193781 0.657701 0.955545
O O11 0.156902 0.674562 0.812478
O O12 0.189096 0.520736 0.410791
O O13 0.028963 0.457715 0.574600
O O14 0.422860 0.186774 0.029490
O O15 0.750000 0.250000 0.500000
O O16 0.762959 0.174051 0.629289
O O17 0.500000 0.851063 0.250000
#
# Coordination Sequence:
#
# PCOD9298186 Si02
#       8
#     8   4   8   8   8   8   8   8
#     4  11  25  47  75 107 152 199 247 314 377 447
#     4  10  24  48  72 104 152 198 248 304 384 448
#     4  11  24  42  72 101 141 187 238 302 366 438
#     4  11  21  46  70 102 140 191 237 304 372 440
#     4  10  24  43  73 102 142 191 244 299 370 448
#     4  11  23  45  71 103 142 189 244 304 372 440
#     4  12  26  47  72 104 146 193 244 309 376 442
#     4  11  26  43  71 108 143 183 253 307 363 453
#
# _framework density 24.996030999999999
#
# number of rings (size 3 to 8) (size 9 to 14) (size 15 to 20)
#    0.000    1.067    4.667    0.800    5.600    0.000 
#    6.000    1.333    0.000    0.000    0.000    0.000 
#    0.000    0.000    0.000    0.000    0.000    0.000 
#
# Total GULP energy -167758.926330 kJ/mol
# GULP energy per Si atom -5591.964211 kJ/mol
# Density = 2.493914 g / cm^3
# Si number density = 24.996031 Si / 1000 Ang^3
#
#
#
# Elastic Constant Matrix: (Units=GPa)
#
#
# Indices 1 2 3 4 5 6 
#
# 1 155.5395 28.4966 20.1896 0.0000 17.8824 0.0000
# 2 28.4966 108.7027 11.3786 0.0000 10.0413 0.0000
# 3 20.1896 11.3786 81.4644 0.0000 27.5817 0.0000
# 4 0.0000 0.0000 0.0000 33.9908 0.0000 -8.5731
# 5 17.8824 10.0413 27.5817 0.0000 34.2160 0.0000
# 6 0.0000 0.0000 0.0000 -8.5731 0.0000 24.9135
#
#
#
# Elastic Compliance Matrix: (Units=1/GPa)
#
#
# Indices 1 2 3 4 5 6 
#
# 1 0.007110 -0.001544 -0.000608 0.000000 -0.002773 0.000000
# 2 -0.001544 0.009807 -0.000393 0.000000 -0.001754 0.000000
# 3 -0.000608 -0.000393 0.016964 0.000000 -0.013242 0.000000
# 4 0.000000 0.000000 0.000000 0.032216 0.000000 0.011086
# 5 -0.002773 -0.001754 -0.013242 0.000000 0.041865 0.000000
# 6 0.000000 0.000000 0.000000 0.011086 0.000000 0.043954
#
#
# Mechanical properties :
#
#
# Convention : Reuss Voigt Hill
#
# Bulk Modulus (GPa) = 34.73238 51.75960 43.24599
# Shear Modulus (GPa) = 30.01158 37.66686 33.83922
#
# Velocity S-wave (km/s) = 3.46880 3.88611 3.68337
# Velocity P-wave (km/s) = 5.47438 6.39436 5.95217
#
# Compressibility (1/GPa) = 0.02879158
#
# Stress axis : x y z
#
# Youngs Moduli (GPa) = 140.65103 101.96389 58.94772
#
# Poissons Ratio (x) = 0.15744 0.03581
# Poissons Ratio (y) = 0.21718 0.02318
# Poissons Ratio (z) = 0.08545 0.04010
#
# Static dielectric constant tensor:
#      x y z
#    x 1.997600 0.000000 -0.050390 
#    y 0.000000 1.938820 0.000000 
#    z -0.050390 0.000000 2.081160 
# 
# From -- ./inp_files/198278.got.cif
#   From: 2010.05.17/outbox.cif.g08.bks.cpg/sg15_100_cif.got.tgz:198278.got - 2010.06.03 18:47:42.
