data_PCOD9298385
_publ_section_title
;
Structure prediction by ZEFSAII (Michael W. Deem and Ramdas Pophale) SiO2 
 PCOD9298385
Probable space group: C 2/C
;
_chemical_formula_sum "Si O2"
_cell_formula_units_Z 60
_cell_length_a 14.383973
_cell_length_b 8.980291
_cell_length_c 22.997867
_cell_angle_alpha 90.000000
_cell_angle_beta 118.906412
_cell_angle_gamma 90.000000
_cell_volume 2600.569995
_symmetry_space_group_name_H-M "C 2/C"
_symmetry_group_IT_number 15
_symmetry_cell_setting 'monoclinic'
loop_
_space_group_symop_operation_xyz
x,y,z
-x,y,1/2-z
-x,-y,-z
x,-y,1/2+z
1/2+x,1/2+y,z
1/2-x,1/2+y,1/2-z
1/2-x,1/2-y,-z
1/2+x,1/2-y,1/2+z
loop_
_atom_site_type_symbol
_atom_site_label
_atom_site_fract_x
_atom_site_fract_y
_atom_site_fract_z
Si Si1 0.327168 0.475395 0.742914
Si Si2 0.944216 0.138741 0.952984
Si Si3 0.765374 0.932002 0.852637
Si Si4 0.163449 0.370293 0.498157
Si Si5 0.052383 0.481731 0.348444
Si Si6 0.246389 0.116445 0.886379
Si Si7 0.005232 0.802087 0.345321
Si Si8 0.500000 0.734676 0.250000
O O1 0.283026 0.409248 0.789459
O O2 0.241218 0.545086 0.673801
O O3 0.413975 0.597373 0.789880
O O4 0.393846 0.361117 0.723658
O O5 0.917977 0.274092 0.987587
O O6 0.009526 0.181717 0.915947
O O7 0.834521 0.070988 0.895122
O O8 0.000000 0.000000 0.000000
O O9 0.646364 0.975339 0.832352
O O10 0.795444 0.782084 0.897385
O O11 0.250000 0.250000 0.500000
O O12 0.104764 0.446091 0.426140
O O13 0.213676 0.501194 0.553096
O O14 0.982649 0.629253 0.327751
O O15 0.000500 0.335206 0.307333
O O16 0.120266 0.147410 0.856890
#
# Coordination Sequence:
#
# PCOD9298385 Si02
#       8
#     8   8   8   8   8   8   8   4
#     4  11  24  44  69 100 136 181 227 285 343 401
#     4  11  25  43  69  96 143 177 225 275 344 401
#     4  10  26  43  68 101 135 180 229 279 341 408
#     4  12  25  44  70 102 139 179 228 280 343 408
#     4  11  27  45  69 102 137 180 230 282 339 409
#     4  11  24  44  72  97 139 179 229 280 345 406
#     4  10  24  44  68  98 137 180 226 275 341 404
#     4  12  26  42  68  98 138 176 232 282 342 394
#
# _framework density 23.071867000000001
#
# number of rings (size 3 to 8) (size 9 to 14) (size 15 to 20)
#    0.000    1.067    2.667    1.600   11.200    3.733 
#    0.000    0.000    0.000    0.000    0.000    0.000 
#    0.000    0.000    0.000    0.000    0.000    0.000 
#
# Total GULP energy -167957.148562 kJ/mol
# GULP energy per Si atom -5598.571619 kJ/mol
# Density = 2.301935 g / cm^3
# Si number density = 23.071867 Si / 1000 Ang^3
#
#
#
# Elastic Constant Matrix: (Units=GPa)
#
#
# Indices 1 2 3 4 5 6 
#
# 1 37.7147 13.6642 12.3303 0.0000 -24.6752 0.0000
# 2 13.6642 118.3003 35.6881 0.0000 -8.9594 0.0000
# 3 12.3303 35.6881 112.2101 0.0000 -19.2097 0.0000
# 4 0.0000 0.0000 0.0000 24.6601 0.0000 -16.5264
# 5 -24.6752 -8.9594 -19.2097 0.0000 33.1993 0.0000
# 6 0.0000 0.0000 0.0000 -16.5264 0.0000 19.6623
#
#
#
# Elastic Compliance Matrix: (Units=1/GPa)
#
#
# Indices 1 2 3 4 5 6 
#
# 1 0.053200 -0.003786 0.002167 0.000000 0.039772 0.000000
# 2 -0.003786 0.009643 -0.002983 0.000000 -0.001938 0.000000
# 3 0.002167 -0.002983 0.010833 0.000000 0.007074 0.000000
# 4 0.000000 0.000000 0.000000 0.092855 0.000000 0.078045
# 5 0.039772 -0.001938 0.007074 0.000000 0.063252 0.000000
# 6 0.000000 0.000000 0.000000 0.078045 0.000000 0.116457
#
#
# Mechanical properties :
#
#
# Convention : Reuss Voigt Hill
#
# Bulk Modulus (GPa) = 15.51045 43.51004 29.51025
# Shear Modulus (GPa) = 13.26489 29.27384 21.26937
#
# Velocity S-wave (km/s) = 2.40039 3.56590 3.03953
# Velocity P-wave (km/s) = 3.79733 5.98779 5.01365
#
# Compressibility (1/GPa) = 0.06447265
#
# Stress axis : x y z
#
# Youngs Moduli (GPa) = 18.79707 103.69710 92.30703
#
# Poissons Ratio (x) = 0.39264 -0.20004
# Poissons Ratio (y) = 0.07117 0.27533
# Poissons Ratio (z) = -0.04074 0.30930
#
# Static dielectric constant tensor:
#      x y z
#    x 1.878170 0.000000 -0.006620 
#    y 0.000000 1.908070 0.000000 
#    z -0.006620 0.000000 1.841250 
# 
# From -- ./inp_files/273225.got.cif
#   From: 2010.05.17/outbox.cif.g08.bks.cpg/sg15_137_cif.got.tgz:273225.got - 2010.06.03 18:47:42.
