data_PCOD9298858
_publ_section_title
;
Structure prediction by ZEFSAII (Michael W. Deem and Ramdas Pophale) SiO2 
 PCOD9298858
Probable space group: C 2/C
;
_chemical_formula_sum "Si O2"
_cell_formula_units_Z 40
_cell_length_a 20.533670
_cell_length_b 11.941243
_cell_length_c 9.826330
_cell_angle_alpha 90.000000
_cell_angle_beta 140.018475
_cell_angle_gamma 90.000000
_cell_volume 1548.132082
_symmetry_space_group_name_H-M "C 2/C"
_symmetry_group_IT_number 15
_symmetry_cell_setting 'monoclinic'
loop_
_space_group_symop_operation_xyz
x,y,z
-x,y,1/2-z
-x,-y,-z
x,-y,1/2+z
1/2+x,1/2+y,z
1/2-x,1/2+y,1/2-z
1/2-x,1/2-y,-z
1/2+x,1/2-y,1/2+z
loop_
_atom_site_type_symbol
_atom_site_label
_atom_site_fract_x
_atom_site_fract_y
_atom_site_fract_z
Si Si1 0.570632 0.481893 0.743479
Si Si2 0.599834 0.770135 0.255699
Si Si3 0.203483 0.494723 0.477632
Si Si4 0.676284 0.209681 0.574936
Si Si5 0.115262 0.681380 0.187321
O O1 0.500000 0.526902 0.750000
O O2 0.500000 0.500000 0.500000
O O3 0.682945 0.522775 0.889043
O O4 0.811360 0.425766 0.414964
O O5 0.670821 0.866261 0.432807
O O6 0.634022 0.756325 0.152389
O O7 0.597620 0.648219 0.318039
O O8 0.483140 0.805387 0.059343
O O9 0.131548 0.552269 0.250959
O O10 0.784692 0.265662 0.718271
O O11 0.609480 0.234258 0.331801
#
# Coordination Sequence:
#
# PCOD9298858 Si02
#       5
#     8   8   8   8   8
#     4  12  31  50  76 108 149 199 252 308 379 445
#     4  12  24  44  75 105 147 191 246 318 364 435
#     4  10  24  46  67 108 142 195 241 311 363 448
#     4   9  22  41  71 103 149 192 250 292 375 449
#     4   9  21  43  67 107 142 198 246 297 371 449
#
# _framework density 25.837589000000001
#
# number of rings (size 3 to 8) (size 9 to 14) (size 15 to 20)
#    1.200    0.400    0.000    3.000    8.400    0.000 
#    7.200    0.000    0.000    0.000    0.000    0.000 
#    0.000    0.000    0.000    0.000    0.000    0.000 
#
# Total GULP energy -111890.129613 kJ/mol
# GULP energy per Si atom -5594.506481 kJ/mol
# Density = 2.577878 g / cm^3
# Si number density = 25.837589 Si / 1000 Ang^3
#
#
#
# Elastic Constant Matrix: (Units=GPa)
#
#
# Indices 1 2 3 4 5 6 
#
# 1 95.8345 -4.9309 17.4215 0.0000 -7.1633 0.0000
# 2 -4.9309 94.8940 5.0821 0.0000 -0.0815 0.0000
# 3 17.4215 5.0821 95.8292 0.0000 14.4570 0.0000
# 4 0.0000 0.0000 0.0000 39.9721 0.0000 6.5983
# 5 -7.1633 -0.0815 14.4570 0.0000 46.8792 0.0000
# 6 0.0000 0.0000 0.0000 6.5983 0.0000 300.4872
#
#
#
# Elastic Compliance Matrix: (Units=1/GPa)
#
#
# Indices 1 2 3 4 5 6 
#
# 1 0.011094 0.000708 -0.002423 0.000000 0.002444 0.000000
# 2 0.000708 0.010615 -0.000746 0.000000 0.000357 0.000000
# 3 -0.002423 -0.000746 0.011507 0.000000 -0.003920 0.000000
# 4 0.000000 0.000000 0.000000 0.025108 0.000000 -0.000551
# 5 0.002444 0.000357 -0.003920 0.000000 0.022914 0.000000
# 6 0.000000 0.000000 0.000000 -0.000551 0.000000 0.003340
#
#
# Mechanical properties :
#
#
# Convention : Reuss Voigt Hill
#
# Bulk Modulus (GPa) = 35.34139 35.74479 35.54309
# Shear Modulus (GPa) = 50.54008 95.40003 72.97005
#
# Velocity S-wave (km/s) = 4.42754 6.08302 5.32007
# Velocity P-wave (km/s) = 6.31233 7.94996 7.17800
#
# Compressibility (1/GPa) = 0.02829543
#
# Stress axis : x y z
#
# Youngs Moduli (GPa) = 90.13665 94.20526 86.90595
#
# Poissons Ratio (x) = -0.06673 0.21059
# Poissons Ratio (y) = -0.06385 0.06479
# Poissons Ratio (z) = 0.21841 0.07023
#
# Static dielectric constant tensor:
#      x y z
#    x 2.270120 0.000000 -0.228710 
#    y 0.000000 2.088890 0.000000 
#    z -0.228710 0.000000 2.143100 
# 
# From -- ./inp_files/56857.got.cif
#   From: 2010.05.17/outbox.cif.g08.bks.cpg/sg15_29_cif.got.tgz:56857.got - 2010.06.03 18:47:42.
