data_PCOD9298029
_publ_section_title
;
Structure prediction by ZEFSAII (Michael W. Deem and Ramdas Pophale) SiO2 
 PCOD9298029
Probable space group: C 2/C
;
_chemical_formula_sum "Si O2"
_cell_formula_units_Z 36
_cell_length_a 24.626552
_cell_length_b 5.085157
_cell_length_c 11.670781
_cell_angle_alpha 90.000000
_cell_angle_beta 100.484663
_cell_angle_gamma 90.000000
_cell_volume 1437.128322
_symmetry_space_group_name_H-M "C 2/C"
_symmetry_group_IT_number 15
_symmetry_cell_setting 'monoclinic'
loop_
_space_group_symop_operation_xyz
x,y,z
-x,y,1/2-z
-x,-y,-z
x,-y,1/2+z
1/2+x,1/2+y,z
1/2-x,1/2+y,1/2-z
1/2-x,1/2-y,-z
1/2+x,1/2-y,1/2+z
loop_
_atom_site_type_symbol
_atom_site_label
_atom_site_fract_x
_atom_site_fract_y
_atom_site_fract_z
Si Si1 0.807970 0.465005 0.926420
Si Si2 0.535532 0.741171 0.980253
Si Si3 0.388480 0.767099 0.298944
Si Si4 0.182438 0.035301 0.911055
Si Si5 0.000000 0.535657 0.250000
O O1 0.843539 0.517071 0.824759
O O2 0.743254 0.507531 0.877902
O O3 0.817746 0.179630 0.985538
O O4 0.820991 0.674567 0.034714
O O5 0.534690 0.773862 0.845725
O O6 0.500000 0.500000 0.000000
O O7 0.591618 0.682879 0.066678
O O8 0.500000 0.000000 0.000000
O O9 0.361256 0.566153 0.200226
O O10 0.448418 0.863375 0.275847
#
# Coordination Sequence:
#
# PCOD9298029 Si02
#       5
#     8   8   8   8   4
#     4  10  24  44  68 100 137 179 228 286 349 408
#     4  10  24  43  65  96 134 180 229 278 339 407
#     4  11  24  44  74 103 139 187 234 287 351 422
#     4  10  24  45  67  98 137 178 231 288 343 410
#     4  10  24  46  70 106 148 186 234 292 352 422
#
# _framework density 25.049954
#
# number of rings (size 3 to 8) (size 9 to 14) (size 15 to 20)
#    0.000    1.778    0.000    1.333    0.000   23.111 
#    0.000    0.000    0.000    0.000    0.000    0.000 
#    0.000    0.000    0.000    0.000    0.000    0.000 
#
# Total GULP energy -100454.966213 kJ/mol
# GULP energy per Si atom -5580.831456 kJ/mol
# Density = 2.499294 g / cm^3
# Si number density = 25.049954 Si / 1000 Ang^3
#
#
#
# Elastic Constant Matrix: (Units=GPa)
#
#
# Indices 1 2 3 4 5 6 
#
# 1 186.8841 19.4098 49.0857 0.0000 -14.0807 0.0000
# 2 19.4098 91.7755 -8.9729 0.0000 -12.9066 0.0000
# 3 49.0857 -8.9729 68.5092 0.0000 30.5857 0.0000
# 4 0.0000 0.0000 0.0000 6.8077 0.0000 -2.1343
# 5 -14.0807 -12.9066 30.5857 0.0000 53.6914 0.0000
# 6 0.0000 0.0000 0.0000 -2.1343 0.0000 36.5475
#
#
#
# Elastic Compliance Matrix: (Units=1/GPa)
#
#
# Indices 1 2 3 4 5 6 
#
# 1 0.008638 -0.001739 -0.009712 0.000000 0.007380 0.000000
# 2 -0.001739 0.011634 0.002313 0.000000 0.001023 0.000000
# 3 -0.009712 0.002313 0.030505 0.000000 -0.019368 0.000000
# 4 0.000000 0.000000 0.000000 0.149632 0.000000 0.008738
# 5 0.007380 0.001023 -0.019368 0.000000 0.031840 0.000000
# 6 0.000000 0.000000 0.000000 0.008738 0.000000 0.027872
#
#
# Mechanical properties :
#
#
# Convention : Reuss Voigt Hill
#
# Bulk Modulus (GPa) = 30.76789 51.80156 41.28472
# Shear Modulus (GPa) = 17.28732 38.58572 27.93652
#
# Velocity S-wave (km/s) = 2.62985 3.92899 3.34313
# Velocity P-wave (km/s) = 4.64013 6.42704 5.60525
#
# Compressibility (1/GPa) = 0.03250142
#
# Stress axis : x y z
#
# Youngs Moduli (GPa) = 115.76377 85.95602 32.78204
#
# Poissons Ratio (x) = 0.14944 0.31837
# Poissons Ratio (y) = 0.20127 -0.07581
# Poissons Ratio (z) = 1.12425 -0.19878
#
# Static dielectric constant tensor:
#      x y z
#    x 1.998000 0.000000 -0.163920 
#    y 0.000000 1.945810 0.000000 
#    z -0.163920 0.000000 2.101730 
# 
# From -- ./inp_files/115649.got.cif
#   From: 2010.05.17/outbox.cif.g08.bks.cpg/sg15_58_cif.got.tgz:115649.got - 2010.06.03 18:47:42.
