data_PCOD9298327
_publ_section_title
;
Structure prediction by ZEFSAII (Michael W. Deem and Ramdas Pophale) SiO2 
 PCOD9298327
Probable space group: C 2/C
;
_chemical_formula_sum "Si O2"
_cell_formula_units_Z 60
_cell_length_a 25.755224
_cell_length_b 10.817639
_cell_length_c 18.773917
_cell_angle_alpha 90.000000
_cell_angle_beta 147.902829
_cell_angle_gamma 90.000000
_cell_volume 2779.322305
_symmetry_space_group_name_H-M "C 2/C"
_symmetry_group_IT_number 15
_symmetry_cell_setting 'monoclinic'
loop_
_space_group_symop_operation_xyz
x,y,z
-x,y,1/2-z
-x,-y,-z
x,-y,1/2+z
1/2+x,1/2+y,z
1/2-x,1/2+y,1/2-z
1/2-x,1/2-y,-z
1/2+x,1/2-y,1/2+z
loop_
_atom_site_type_symbol
_atom_site_label
_atom_site_fract_x
_atom_site_fract_y
_atom_site_fract_z
Si Si1 0.144741 0.140752 0.813236
Si Si2 0.438359 0.181574 0.405093
Si Si3 0.354490 0.331407 0.437686
Si Si4 0.853316 0.294141 0.090721
Si Si5 0.500000 0.233080 0.250000
Si Si6 0.146790 0.432546 0.145438
Si Si7 0.647301 0.942779 0.979974
Si Si8 0.530916 0.410384 0.706294
O O1 0.101329 0.226045 0.700716
O O2 0.086693 0.189885 0.814586
O O3 0.261164 0.136868 0.942768
O O4 0.116219 0.996142 0.775839
O O5 0.399953 0.239659 0.433519
O O6 0.555124 0.161915 0.540059
O O7 0.388334 0.046234 0.345897
O O8 0.355522 0.270137 0.516280
O O9 0.248343 0.377296 0.291681
O O10 0.439189 0.432791 0.548073
O O11 0.930647 0.230141 0.234926
O O12 0.750000 0.250000 0.000000
O O13 0.864248 0.438511 0.085269
O O14 0.551394 0.141666 0.365572
O O15 0.163229 0.473514 0.081960
O O16 0.500000 0.449095 0.750000
#
# Coordination Sequence:
#
# PCOD9298327 Si02
#       8
#     8   8   8   8   4   8   8   8
#     4  12  24  47  71 103 141 184 237 292 367 428
#     4  11  25  44  71 101 144 191 238 292 355 433
#     4  11  25  43  72  99 141 182 235 300 347 418
#     4  11  24  44  71 105 139 181 238 294 357 435
#     4  12  28  44  68 104 142 184 238 298 348 436
#     4  11  25  46  67 105 145 190 245 291 356 430
#     4  12  25  45  73 101 140 193 237 295 364 424
#     4  10  24  44  67 102 138 181 233 295 357 417
#
# _framework density 21.587996
#
# number of rings (size 3 to 8) (size 9 to 14) (size 15 to 20)
#    0.000    0.800    6.000    0.400    4.667    3.733 
#    0.000    0.000    0.000    0.000    0.000    0.000 
#    0.000    0.000    0.000    0.000    0.000    0.000 
#
# Total GULP energy -167407.573687 kJ/mol
# GULP energy per Si atom -5580.252456 kJ/mol
# Density = 2.153886 g / cm^3
# Si number density = 21.587996 Si / 1000 Ang^3
#
#
#
# Elastic Constant Matrix: (Units=GPa)
#
#
# Indices 1 2 3 4 5 6 
#
# 1 77.6769 17.7214 33.7639 0.0000 16.1597 0.0000
# 2 17.7214 82.5533 60.0910 0.0000 4.9024 0.0000
# 3 33.7639 60.0910 138.5415 0.0000 27.5176 0.0000
# 4 0.0000 0.0000 0.0000 22.1746 0.0000 8.5273
# 5 16.1597 4.9024 27.5176 0.0000 35.7900 0.0000
# 6 0.0000 0.0000 0.0000 8.5273 0.0000 33.1590
#
#
#
# Elastic Compliance Matrix: (Units=1/GPa)
#
#
# Indices 1 2 3 4 5 6 
#
# 1 0.015153 -0.001455 -0.002056 0.000000 -0.005061 0.000000
# 2 -0.001455 0.018369 -0.008549 0.000000 0.004714 0.000000
# 3 -0.002056 -0.008549 0.012995 0.000000 -0.007892 0.000000
# 4 0.000000 0.000000 0.000000 0.050046 0.000000 -0.012870
# 5 -0.005061 0.004714 -0.007892 0.000000 0.035648 0.000000
# 6 0.000000 0.000000 0.000000 -0.012870 0.000000 0.033467
#
#
# Mechanical properties :
#
#
# Convention : Reuss Voigt Hill
#
# Bulk Modulus (GPa) = 44.65311 57.99159 51.32235
# Shear Modulus (GPa) = 25.34689 30.70440 28.02565
#
# Velocity S-wave (km/s) = 3.43026 3.77542 3.60697
# Velocity P-wave (km/s) = 6.03474 6.77689 6.41655
#
# Compressibility (1/GPa) = 0.02239486
#
# Stress axis : x y z
#
# Youngs Moduli (GPa) = 65.99510 54.44075 76.95498
#
# Poissons Ratio (x) = 0.07923 0.15824
# Poissons Ratio (y) = 0.09605 0.65787
# Poissons Ratio (z) = 0.13570 0.46540
#
# Static dielectric constant tensor:
#      x y z
#    x 1.840900 0.000000 0.054610 
#    y 0.000000 1.833910 0.000000 
#    z 0.054610 0.000000 1.829250 
# 
# From -- ./inp_files/222583.got.cif
#   From: 2010.05.17/outbox.cif.g08.bks.cpg/sg15_112_cif.got.tgz:222583.got - 2010.06.03 18:47:42.
