data_PCOD9298719
_publ_section_title
;
Structure prediction by ZEFSAII (Michael W. Deem and Ramdas Pophale) SiO2 
 PCOD9298719
Probable space group: C 2/C
;
_chemical_formula_sum "Si O2"
_cell_formula_units_Z 48
_cell_length_a 27.245820
_cell_length_b 9.487258
_cell_length_c 21.465952
_cell_angle_alpha 90.000000
_cell_angle_beta 159.151950
_cell_angle_gamma 90.000000
_cell_volume 1974.729085
_symmetry_space_group_name_H-M "C 2/C"
_symmetry_group_IT_number 15
_symmetry_cell_setting 'monoclinic'
loop_
_space_group_symop_operation_xyz
x,y,z
-x,y,1/2-z
-x,-y,-z
x,-y,1/2+z
1/2+x,1/2+y,z
1/2-x,1/2+y,1/2-z
1/2-x,1/2-y,-z
1/2+x,1/2-y,1/2+z
loop_
_atom_site_type_symbol
_atom_site_label
_atom_site_fract_x
_atom_site_fract_y
_atom_site_fract_z
Si Si1 0.301423 0.096103 0.437544
Si Si2 0.417199 0.138716 0.992548
Si Si3 0.500000 0.754539 0.250000
Si Si4 0.000000 0.188930 0.750000
Si Si5 0.233406 0.691927 0.364777
Si Si6 0.251103 0.902873 0.177340
Si Si7 0.967076 0.970352 0.820974
O O1 0.372225 0.145949 0.584750
O O2 0.256182 0.241334 0.351730
O O3 0.165077 0.013940 0.293524
O O4 0.404924 0.999848 0.521274
O O5 0.299209 0.244396 0.879345
O O6 0.370151 0.088204 0.868893
O O7 0.568411 0.208002 0.173906
O O8 0.529717 0.662585 0.223552
O O9 0.847226 0.249527 0.550445
O O10 0.025544 0.095615 0.719582
O O11 0.238085 0.519054 0.364968
O O12 0.099249 0.945016 0.021544
#
# Coordination Sequence:
#
# PCOD9298719 Si02
#       7
#     8   8   4   4   8   8   8
#     4  11  24  38  73 100 131 178 230 278 339 403
#     4  12  28  44  68 103 138 187 226 276 340 412
#     4   9  20  37  62 104 132 162 222 296 338 390
#     4   9  22  45  68  92 140 178 220 282 344 398
#     4  11  27  47  69  96 143 182 225 281 343 403
#     4  10  24  45  70  98 136 174 230 291 335 395
#     4   9  20  39  68 100 129 173 221 288 340 394
#
# _framework density 24.307130999999998
#
# number of rings (size 3 to 8) (size 9 to 14) (size 15 to 20)
#    0.000    1.667    0.000    3.000   14.000    2.000 
#    0.000    0.000    0.000    0.000    0.000    0.000 
#    0.000    0.000    0.000    0.000    0.000    0.000 
#
# Total GULP energy -133911.226474 kJ/mol
# GULP energy per Si atom -5579.634436 kJ/mol
# Density = 2.425181 g / cm^3
# Si number density = 24.307131 Si / 1000 Ang^3
#
#
#
# Elastic Constant Matrix: (Units=GPa)
#
#
# Indices 1 2 3 4 5 6 
#
# 1 45.8618 10.7557 60.6056 0.0000 17.8527 0.0000
# 2 10.7557 67.5171 21.1376 0.0000 0.6763 0.0000
# 3 60.6056 21.1376 190.1962 0.0000 10.6961 0.0000
# 4 0.0000 0.0000 0.0000 29.7136 0.0000 2.0250
# 5 17.8527 0.6763 10.6961 0.0000 47.4388 0.0000
# 6 0.0000 0.0000 0.0000 2.0250 0.0000 20.3535
#
#
#
# Elastic Compliance Matrix: (Units=1/GPa)
#
#
# Indices 1 2 3 4 5 6 
#
# 1 0.045814 -0.002938 -0.013476 0.000000 -0.014161 0.000000
# 2 -0.002938 0.015535 -0.000851 0.000000 0.001076 0.000000
# 3 -0.013476 -0.000851 0.009481 0.000000 0.002946 0.000000
# 4 0.000000 0.000000 0.000000 0.033884 0.000000 -0.003371
# 5 -0.014161 0.001076 0.002946 0.000000 0.025729 0.000000
# 6 0.000000 0.000000 0.000000 -0.003371 0.000000 0.049467
#
#
# Mechanical properties :
#
#
# Convention : Reuss Voigt Hill
#
# Bulk Modulus (GPa) = 27.54758 54.28586 40.91672
# Shear Modulus (GPa) = 22.07130 33.57293 27.82211
#
# Velocity S-wave (km/s) = 3.01660 3.72048 3.38687
# Velocity P-wave (km/s) = 4.84674 6.39044 5.67136
#
# Compressibility (1/GPa) = 0.03630083
#
# Stress axis : x y z
#
# Youngs Moduli (GPa) = 21.82744 64.37219 105.47834
#
# Poissons Ratio (x) = 0.18910 1.42139
# Poissons Ratio (y) = 0.06412 0.08975
# Poissons Ratio (z) = 0.29414 0.05477
#
# Static dielectric constant tensor:
#      x y z
#    x 1.923010 0.000000 0.035720 
#    y 0.000000 2.074520 0.000000 
#    z 0.035720 0.000000 2.008760 
# 
# From -- ./inp_files/257675.got.cif
#   From: 2010.05.17/outbox.cif.g08.bks.cpg/sg15_129_cif.got.tgz:257675.got - 2010.06.03 18:47:42.
