data_PCOD9298467
_publ_section_title
;
Structure prediction by ZEFSAII (Michael W. Deem and Ramdas Pophale) SiO2 
 PCOD9298467
Probable space group: C 2/C
;
_chemical_formula_sum "Si O2"
_cell_formula_units_Z 32
_cell_length_a 12.833844
_cell_length_b 4.801267
_cell_length_c 21.673597
_cell_angle_alpha 90.000000
_cell_angle_beta 112.910774
_cell_angle_gamma 90.000000
_cell_volume 1230.144560
_symmetry_space_group_name_H-M "C 2/C"
_symmetry_group_IT_number 15
_symmetry_cell_setting 'monoclinic'
loop_
_space_group_symop_operation_xyz
x,y,z
-x,y,1/2-z
-x,-y,-z
x,-y,1/2+z
1/2+x,1/2+y,z
1/2-x,1/2+y,1/2-z
1/2-x,1/2-y,-z
1/2+x,1/2-y,1/2+z
loop_
_atom_site_type_symbol
_atom_site_label
_atom_site_fract_x
_atom_site_fract_y
_atom_site_fract_z
Si Si1 0.238643 0.258329 0.079972
Si Si2 0.000000 0.996129 0.750000
Si Si3 0.216845 0.350408 0.773988
Si Si4 0.606031 0.250131 0.899671
Si Si5 0.000000 0.000000 0.500000
O O1 0.222845 0.225161 0.149183
O O2 0.277577 0.568633 0.074009
O O3 0.347807 0.063972 0.091297
O O4 0.123308 0.155480 0.024279
O O5 0.095932 0.208343 0.748134
O O6 0.043320 0.828801 0.820643
O O7 0.218437 0.677931 0.763962
O O8 0.532155 0.324420 0.942318
#
# Coordination Sequence:
#
# PCOD9298467 Si02
#       5
#     8   4   8   8   4
#     4  11  26  44  66  99 135 172 225 273 322 395
#     4  10  24  44  70  98 136 172 212 280 336 378
#     4  11  23  41  67 100 132 171 221 270 328 397
#     4  11  26  45  68 101 133 172 223 272 327 397
#     4  12  26  46  72  94 134 184 218 270 334 384
#
# _framework density 26.013203000000001
#
# number of rings (size 3 to 8) (size 9 to 14) (size 15 to 20)
#    0.000    1.000    0.000    6.000    0.000   17.000 
#    0.000    0.000    0.000    0.000    0.000    0.000 
#    0.000    0.000    0.000    0.000    0.000    0.000 
#
# Total GULP energy -89181.911365 kJ/mol
# GULP energy per Si atom -5573.869460 kJ/mol
# Density = 2.595400 g / cm^3
# Si number density = 26.013203 Si / 1000 Ang^3
#
#
#
# Elastic Constant Matrix: (Units=GPa)
#
#
# Indices 1 2 3 4 5 6 
#
# 1 88.1701 14.3069 41.5948 0.0000 4.3230 0.0000
# 2 14.3069 92.7085 13.9861 0.0000 4.1852 0.0000
# 3 41.5948 13.9861 81.5290 0.0000 -5.5549 0.0000
# 4 0.0000 0.0000 0.0000 31.4318 0.0000 -10.0474
# 5 4.3230 4.1852 -5.5549 0.0000 58.7437 0.0000
# 6 0.0000 0.0000 0.0000 -10.0474 0.0000 23.3403
#
#
#
# Elastic Compliance Matrix: (Units=1/GPa)
#
#
# Indices 1 2 3 4 5 6 
#
# 1 0.015245 -0.001110 -0.007708 0.000000 -0.001772 0.000000
# 2 -0.001110 0.011210 -0.001415 0.000000 -0.000851 0.000000
# 3 -0.007708 -0.001415 0.016593 0.000000 0.002237 0.000000
# 4 0.000000 0.000000 0.000000 0.036891 0.000000 0.015881
# 5 -0.001772 -0.000851 0.002237 0.000000 0.017426 0.000000
# 6 0.000000 0.000000 0.000000 0.015881 0.000000 0.049681
#
#
# Mechanical properties :
#
#
# Convention : Reuss Voigt Hill
#
# Bulk Modulus (GPa) = 44.28192 44.68702 44.48447
# Shear Modulus (GPa) = 28.56520 35.53781 32.05150
#
# Velocity S-wave (km/s) = 3.31736 3.70015 3.51397
# Velocity P-wave (km/s) = 5.63320 5.95573 5.79671
#
# Compressibility (1/GPa) = 0.02258258
#
# Stress axis : x y z
#
# Youngs Moduli (GPa) = 65.59526 89.20925 60.26553
#
# Poissons Ratio (x) = 0.09900 0.46453
# Poissons Ratio (y) = 0.07280 0.08526
# Poissons Ratio (z) = 0.50561 0.12621
#
# Static dielectric constant tensor:
#      x y z
#    x 2.091090 0.000000 -0.038410 
#    y 0.000000 1.970380 0.000000 
#    z -0.038410 0.000000 1.954230 
# 
# From -- ./inp_files/235218.got.cif
#   From: 2010.05.17/outbox.cif.g08.bks.cpg/sg15_118_cif.got.tgz:235218.got - 2010.06.03 18:47:42.
