data_PCOD9298974
_publ_section_title
;
Structure prediction by ZEFSAII (Michael W. Deem and Ramdas Pophale) SiO2 
 PCOD9298974
Probable space group: C 2/C
;
_chemical_formula_sum "Si O2"
_cell_formula_units_Z 64
_cell_length_a 8.757326
_cell_length_b 15.137850
_cell_length_c 21.581057
_cell_angle_alpha 90.000000
_cell_angle_beta 93.432297
_cell_angle_gamma 90.000000
_cell_volume 2855.806030
_symmetry_space_group_name_H-M "C 2/C"
_symmetry_group_IT_number 15
_symmetry_cell_setting 'monoclinic'
loop_
_space_group_symop_operation_xyz
x,y,z
-x,y,1/2-z
-x,-y,-z
x,-y,1/2+z
1/2+x,1/2+y,z
1/2-x,1/2+y,1/2-z
1/2-x,1/2-y,-z
1/2+x,1/2-y,1/2+z
loop_
_atom_site_type_symbol
_atom_site_label
_atom_site_fract_x
_atom_site_fract_y
_atom_site_fract_z
Si Si1 0.895743 0.413978 0.160439
Si Si2 0.833658 0.886906 0.715275
Si Si3 0.368746 0.327557 0.491954
Si Si4 0.669122 0.251249 0.138637
Si Si5 0.664761 0.003531 0.970465
Si Si6 0.307197 0.317081 0.949708
Si Si7 0.229313 0.422175 0.209923
Si Si8 0.159176 0.726662 0.313070
O O1 0.802698 0.322888 0.153931
O O2 0.856640 0.474421 0.102175
O O3 0.836316 0.447931 0.224377
O O4 0.078215 0.407650 0.165218
O O5 0.771406 0.837203 0.651726
O O6 0.722217 0.846444 0.766371
O O7 0.000000 0.866886 0.750000
O O8 0.827684 0.991071 0.697991
O O9 0.250000 0.250000 0.500000
O O10 0.412582 0.299090 0.422693
O O11 0.277680 0.419053 0.496108
O O12 0.510337 0.320611 0.540970
O O13 0.520732 0.228928 0.176436
O O14 0.744565 0.909943 0.972893
O O15 0.500000 0.000000 0.000000
O O16 0.245690 0.292536 0.880342
O O17 0.250000 0.250000 0.000000
O O18 0.306563 0.326256 0.210638
#
# Coordination Sequence:
#
# PCOD9298974 Si02
#       8
#     8   8   8   8   8   8   8   8
#     4  10  24  46  72 102 144 188 243 301 368 436
#     4  12  28  45  72 109 143 189 247 300 372 444
#     4  11  26  48  75 104 149 200 244 308 367 441
#     4  11  25  47  72 103 147 191 245 304 368 436
#     4  11  26  46  76 108 149 196 249 303 373 446
#     4  12  26  48  72 109 149 194 249 302 367 438
#     4  11  26  45  74 103 145 193 243 302 376 435
#     4  12  27  48  76 106 152 193 245 313 370 445
#
# _framework density 22.410484
#
# number of rings (size 3 to 8) (size 9 to 14) (size 15 to 20)
#    0.000    0.750    2.500    3.000   14.000    0.000 
#    0.000    0.000    0.000    0.000    0.000    0.000 
#    0.000    0.000    0.000    0.000    0.000    0.000 
#
# Total GULP energy -178500.785025 kJ/mol
# GULP energy per Si atom -5578.149532 kJ/mol
# Density = 2.235948 g / cm^3
# Si number density = 22.410484 Si / 1000 Ang^3
#
#
#
# Elastic Constant Matrix: (Units=GPa)
#
#
# Indices 1 2 3 4 5 6 
#
# 1 151.6424 55.9291 33.5032 0.0000 16.9584 0.0000
# 2 55.9291 161.1639 32.9713 0.0000 4.8630 0.0000
# 3 33.5032 32.9713 66.1123 0.0000 11.7069 0.0000
# 4 0.0000 0.0000 0.0000 26.7747 0.0000 -4.3072
# 5 16.9584 4.8630 11.7069 0.0000 38.4817 0.0000
# 6 0.0000 0.0000 0.0000 -4.3072 0.0000 20.4507
#
#
#
# Elastic Compliance Matrix: (Units=1/GPa)
#
#
# Indices 1 2 3 4 5 6 
#
# 1 0.008296 -0.002266 -0.002619 0.000000 -0.002573 0.000000
# 2 -0.002266 0.007530 -0.002764 0.000000 0.000888 0.000000
# 3 -0.002619 -0.002764 0.018565 0.000000 -0.004145 0.000000
# 4 0.000000 0.000000 0.000000 0.038659 0.000000 0.008142
# 5 -0.002573 0.000888 -0.004145 0.000000 0.028269 0.000000
# 6 0.000000 0.000000 0.000000 0.008142 0.000000 0.050613
#
#
# Mechanical properties :
#
#
# Convention : Reuss Voigt Hill
#
# Bulk Modulus (GPa) = 52.37207 69.30286 60.83747
# Shear Modulus (GPa) = 28.80280 34.24242 31.52261
#
# Velocity S-wave (km/s) = 3.58891 3.91316 3.75454
# Velocity P-wave (km/s) = 6.37133 7.16997 6.78242
#
# Compressibility (1/GPa) = 0.01909415
#
# Stress axis : x y z
#
# Youngs Moduli (GPa) = 120.53343 132.80406 53.86379
#
# Poissons Ratio (x) = 0.30090 0.14105
# Poissons Ratio (y) = 0.27310 0.14890
# Poissons Ratio (z) = 0.31564 0.36711
#
# Static dielectric constant tensor:
#      x y z
#    x 1.837420 0.000000 0.038920 
#    y 0.000000 1.634670 0.000000 
#    z 0.038920 0.000000 1.803200 
# 
# From -- ./inp_files/264702.got.cif
#   From: 2010.05.17/outbox.cif.g08.bks.cpg/sg15_133_cif.got.tgz:264702.got - 2010.06.03 18:47:42.
