data_PCOD9298697
_publ_section_title
;
Structure prediction by ZEFSAII (Michael W. Deem and Ramdas Pophale) SiO2 
 PCOD9298697
Probable space group: C 2/C
;
_chemical_formula_sum "Si O2"
_cell_formula_units_Z 40
_cell_length_a 13.777586
_cell_length_b 21.710455
_cell_length_c 7.975160
_cell_angle_alpha 90.000000
_cell_angle_beta 130.988846
_cell_angle_gamma 90.000000
_cell_volume 1800.672797
_symmetry_space_group_name_H-M "C 2/C"
_symmetry_group_IT_number 15
_symmetry_cell_setting 'monoclinic'
loop_
_space_group_symop_operation_xyz
x,y,z
-x,y,1/2-z
-x,-y,-z
x,-y,1/2+z
1/2+x,1/2+y,z
1/2-x,1/2+y,1/2-z
1/2-x,1/2-y,-z
1/2+x,1/2-y,1/2+z
loop_
_atom_site_type_symbol
_atom_site_label
_atom_site_fract_x
_atom_site_fract_y
_atom_site_fract_z
Si Si1 0.642145 0.125227 0.441520
Si Si2 0.602215 0.987093 0.263798
Si Si3 0.231228 0.121872 0.571523
Si Si4 0.772649 0.191108 0.292040
Si Si5 0.955200 0.784419 0.518975
O O1 0.500000 0.150128 0.250000
O O2 0.670823 0.138538 0.667468
O O3 0.742462 0.152242 0.423146
O O4 0.635425 0.052138 0.388541
O O5 0.500000 0.944770 0.250000
O O6 0.734364 0.950216 0.399841
O O7 0.500000 0.000000 0.000000
O O8 0.244755 0.153757 0.404716
O O9 0.098242 0.146958 0.498600
O O10 0.919779 0.213327 0.454196
O O11 0.667109 0.245026 0.174382
O O12 0.000000 0.758190 0.750000
#
# Coordination Sequence:
#
# PCOD9298697 Si02
#       5
#     8   8   8   8   8
#     4  11  25  39  64 106 129 175 229 265 339 392
#     4  11  20  37  62  96 134 168 224 271 319 389
#     4  11  23  41  68  94 140 171 218 281 329 392
#     4  11  26  45  70  96 139 175 223 280 332 396
#     4  10  24  45  70 100 129 181 226 267 344 397
#
# _framework density 22.213920999999999
#
# number of rings (size 3 to 8) (size 9 to 14) (size 15 to 20)
#    0.000    1.200    4.000    3.600    5.600    1.600 
#    0.000    1.000    4.400    0.000    0.000    0.000 
#    0.000    0.000    0.000    0.000    0.000    0.000 
#
# Total GULP energy -111402.310970 kJ/mol
# GULP energy per Si atom -5570.115548 kJ/mol
# Density = 2.216336 g / cm^3
# Si number density = 22.213921 Si / 1000 Ang^3
#
#
#
# Elastic Constant Matrix: (Units=GPa)
#
#
# Indices 1 2 3 4 5 6 
#
# 1 139.7738 40.5563 11.3424 0.0000 14.8427 0.0000
# 2 40.5563 94.4931 15.8961 0.0000 13.4359 0.0000
# 3 11.3424 15.8961 73.0626 0.0000 -4.4388 0.0000
# 4 0.0000 0.0000 0.0000 35.0461 0.0000 11.6846
# 5 14.8427 13.4359 -4.4388 0.0000 47.1647 0.0000
# 6 0.0000 0.0000 0.0000 11.6846 0.0000 16.2366
#
#
#
# Elastic Compliance Matrix: (Units=1/GPa)
#
#
# Indices 1 2 3 4 5 6 
#
# 1 0.008330 -0.003204 -0.000704 0.000000 -0.001775 0.000000
# 2 -0.003204 0.012778 -0.002457 0.000000 -0.002863 0.000000
# 3 -0.000704 -0.002457 0.014469 0.000000 0.002283 0.000000
# 4 0.000000 0.000000 0.000000 0.037541 0.000000 -0.027017
# 5 -0.001775 -0.002863 0.002283 0.000000 0.022791 0.000000
# 6 0.000000 0.000000 0.000000 -0.027017 0.000000 0.081032
#
#
# Mechanical properties :
#
#
# Convention : Reuss Voigt Hill
#
# Bulk Modulus (GPa) = 43.76766 49.21322 46.49044
# Shear Modulus (GPa) = 25.34370 35.65846 30.50108
#
# Velocity S-wave (km/s) = 3.38137 4.01088 3.70950
# Velocity P-wave (km/s) = 5.91528 6.60696 6.27066
#
# Compressibility (1/GPa) = 0.02284792
#
# Stress axis : x y z
#
# Youngs Moduli (GPa) = 120.05142 78.25672 69.11162
#
# Poissons Ratio (x) = 0.25076 0.04864
# Poissons Ratio (y) = 0.38469 0.16978
# Poissons Ratio (z) = 0.08449 0.19225
#
# Static dielectric constant tensor:
#      x y z
#    x 1.902620 0.000000 -0.032030 
#    y 0.000000 1.914120 0.000000 
#    z -0.032030 0.000000 1.853960 
# 
# From -- ./inp_files/42410.got.cif
#   From: 2010.05.17/outbox.cif.g08.bks.cpg/sg15_22_cif.got.tgz:42410.got - 2010.06.03 18:47:42.
