data_PCOD9298893
_publ_section_title
;
Structure prediction by ZEFSAII (Michael W. Deem and Ramdas Pophale) SiO2 
 PCOD9298893
Probable space group: C 2/C
;
_chemical_formula_sum "Si O2"
_cell_formula_units_Z 32
_cell_length_a 7.411478
_cell_length_b 17.367678
_cell_length_c 11.127964
_cell_angle_alpha 90.000000
_cell_angle_beta 70.215777
_cell_angle_gamma 90.000000
_cell_volume 1347.844907
_symmetry_space_group_name_H-M "C 2/C"
_symmetry_group_IT_number 15
_symmetry_cell_setting 'monoclinic'
loop_
_space_group_symop_operation_xyz
x,y,z
-x,y,1/2-z
-x,-y,-z
x,-y,1/2+z
1/2+x,1/2+y,z
1/2-x,1/2+y,1/2-z
1/2-x,1/2-y,-z
1/2+x,1/2-y,1/2+z
loop_
_atom_site_type_symbol
_atom_site_label
_atom_site_fract_x
_atom_site_fract_y
_atom_site_fract_z
Si Si1 0.186766 0.798446 0.395416
Si Si2 0.000000 0.693756 0.250000
Si Si3 0.000000 0.577179 0.750000
Si Si4 0.664045 0.933133 0.836692
Si Si5 0.506027 0.418173 0.936659
O O1 0.250000 0.750000 0.500000
O O2 0.334936 0.865619 0.329357
O O3 0.994098 0.844348 0.477044
O O4 0.152993 0.749426 0.281231
O O5 0.002586 0.630237 0.140509
O O6 0.921741 0.517849 0.665562
O O7 0.800381 0.917540 0.916614
O O8 0.819800 0.918574 0.695206
O O9 0.500000 0.500000 0.000000
#
# Coordination Sequence:
#
# PCOD9298893 Si02
#       5
#     8   4   4   8   8
#     4  12  27  45  68 101 140 179 222 284 346 396
#     4  11  26  44  66 101 138 178 224 285 336 398
#     4  11  26  44  68  99 136 176 234 273 330 420
#     4  10  24  46  68  99 136 178 233 276 330 421
#     4  11  23  43  71  99 132 180 225 279 343 399
#
# _framework density 23.741606000000001
#
# number of rings (size 3 to 8) (size 9 to 14) (size 15 to 20)
#    0.000    1.000    5.000    0.000    7.000    4.000 
#    0.000    0.000    0.000    0.000    0.000    0.000 
#    0.000    0.000    0.000    0.000    0.000    0.000 
#
# Total GULP energy -89152.871308 kJ/mol
# GULP energy per Si atom -5572.054457 kJ/mol
# Density = 2.368757 g / cm^3
# Si number density = 23.741606 Si / 1000 Ang^3
#
#
#
# Elastic Constant Matrix: (Units=GPa)
#
#
# Indices 1 2 3 4 5 6 
#
# 1 95.7887 47.8702 32.7959 0.0000 28.4498 0.0000
# 2 47.8702 173.2847 38.6344 0.0000 0.2556 0.0000
# 3 32.7959 38.6344 64.9159 0.0000 4.4170 0.0000
# 4 0.0000 0.0000 0.0000 25.8817 0.0000 18.3346
# 5 28.4498 0.2556 4.4170 0.0000 39.9215 0.0000
# 6 0.0000 0.0000 0.0000 18.3346 0.0000 31.2846
#
#
#
# Elastic Compliance Matrix: (Units=1/GPa)
#
#
# Indices 1 2 3 4 5 6 
#
# 1 0.017887 -0.003565 -0.006095 0.000000 -0.012050 0.000000
# 2 -0.003565 0.007370 -0.002776 0.000000 0.002800 0.000000
# 3 -0.006095 -0.002776 0.019990 0.000000 0.002150 0.000000
# 4 0.000000 0.000000 0.000000 0.066065 0.000000 -0.038718
# 5 -0.012050 0.002800 0.002150 0.000000 0.033380 0.000000
# 6 0.000000 0.000000 0.000000 -0.038718 0.000000 0.054656
#
#
# Mechanical properties :
#
#
# Convention : Reuss Voigt Hill
#
# Bulk Modulus (GPa) = 49.07936 63.62116 56.35026
# Shear Modulus (GPa) = 21.64390 33.73015 27.68702
#
# Velocity S-wave (km/s) = 3.02262 3.77333 3.41864
# Velocity P-wave (km/s) = 5.73575 6.77049 6.27449
#
# Compressibility (1/GPa) = 0.02037516
#
# Stress axis : x y z
#
# Youngs Moduli (GPa) = 55.90765 135.67825 50.02548
#
# Poissons Ratio (x) = 0.48363 0.30491
# Poissons Ratio (y) = 0.19928 0.13888
# Poissons Ratio (z) = 0.34077 0.37667
#
# Static dielectric constant tensor:
#      x y z
#    x 2.125750 0.000000 -0.113230 
#    y 0.000000 1.935130 0.000000 
#    z -0.113230 0.000000 2.060860 
# 
# From -- ./inp_files/75382.got.cif
#   From: 2010.05.17/outbox.cif.g08.bks.cpg/sg15_38_cif.got.tgz:75382.got - 2010.06.03 18:47:42.
