data_PCOD9298732
_publ_section_title
;
Structure prediction by ZEFSAII (Michael W. Deem and Ramdas Pophale) SiO2 
 PCOD9298732
Probable space group: C 2/C
;
_chemical_formula_sum "Si O2"
_cell_formula_units_Z 40
_cell_length_a 21.533067
_cell_length_b 7.518896
_cell_length_c 16.421905
_cell_angle_alpha 90.000000
_cell_angle_beta 33.688692
_cell_angle_gamma 90.000000
_cell_volume 1474.776418
_symmetry_space_group_name_H-M "C 2/C"
_symmetry_group_IT_number 15
_symmetry_cell_setting 'monoclinic'
loop_
_space_group_symop_operation_xyz
x,y,z
-x,y,1/2-z
-x,-y,-z
x,-y,1/2+z
1/2+x,1/2+y,z
1/2-x,1/2+y,1/2-z
1/2-x,1/2-y,-z
1/2+x,1/2-y,1/2+z
loop_
_atom_site_type_symbol
_atom_site_label
_atom_site_fract_x
_atom_site_fract_y
_atom_site_fract_z
Si Si1 0.747322 0.552690 0.965884
Si Si2 0.951705 0.923953 0.916673
Si Si3 0.619756 0.011063 0.527800
Si Si4 0.079504 0.575610 0.342227
Si Si5 0.153756 0.034116 0.796503
O O1 0.622388 0.497273 0.076339
O O2 0.824600 0.546841 0.800929
O O3 0.750000 0.750000 0.000000
O O4 0.814841 0.451644 0.962534
O O5 0.930345 0.712682 0.922093
O O6 0.893466 0.002634 0.062331
O O7 0.080026 0.946201 0.804572
O O8 0.514391 0.889119 0.624216
O O9 0.717138 0.009442 0.354362
O O10 0.136196 0.757171 0.304894
O O11 0.000000 0.500000 0.500000
#
# Coordination Sequence:
#
# PCOD9298732 Si02
#       5
#     8   8   8   8   8
#     4  10  25  46  75 103 144 199 249 299 380 452
#     4  10  24  45  71 104 145 194 253 304 375 452
#     4  11  25  46  72 101 148 195 246 303 380 451
#     4  12  25  47  75 106 152 195 253 313 377 447
#     4  11  26  43  74 111 145 191 255 313 373 445
#
# _framework density 27.122755000000002
#
# number of rings (size 3 to 8) (size 9 to 14) (size 15 to 20)
#    0.000    1.200    2.000    1.800    8.400    3.200 
#    3.600    0.000    0.000    0.000    0.000    0.000 
#    0.000    0.000    0.000    0.000    0.000    0.000 
#
# Total GULP energy -111971.954301 kJ/mol
# GULP energy per Si atom -5598.597715 kJ/mol
# Density = 2.706102 g / cm^3
# Si number density = 27.122755 Si / 1000 Ang^3
#
#
#
# Elastic Constant Matrix: (Units=GPa)
#
#
# Indices 1 2 3 4 5 6 
#
# 1 179.3566 17.4954 1.2694 -0.0003 -25.2800 0.0002
# 2 17.4954 85.2224 12.7124 -0.0010 -10.3370 0.0009
# 3 1.2694 12.7124 94.3875 -0.0005 -17.7874 0.0005
# 4 -0.0003 -0.0010 -0.0005 32.8365 0.0005 -3.9082
# 5 -25.2800 -10.3370 -17.7874 0.0005 60.6090 -0.0005
# 6 0.0002 0.0009 0.0005 -3.9082 -0.0005 31.6929
#
#
#
# Elastic Compliance Matrix: (Units=1/GPa)
#
#
# Indices 1 2 3 4 5 6 
#
# 1 0.006022 -0.001012 0.000525 0.000000 0.002493 0.000000
# 2 -0.001012 0.012305 -0.001405 0.000000 0.001264 0.000000
# 3 0.000525 -0.001405 0.011404 0.000000 0.003326 0.000000
# 4 0.000000 0.000000 0.000000 0.030908 0.000000 0.003811
# 5 0.002493 0.001264 0.003326 0.000000 0.018731 0.000000
# 6 0.000000 0.000000 0.000000 0.003811 0.000000 0.032023
#
#
# Mechanical properties :
#
#
# Convention : Reuss Voigt Hill
#
# Bulk Modulus (GPa) = 38.54233 46.88009 42.71121
# Shear Modulus (GPa) = 40.37961 46.86029 43.61995
#
# Velocity S-wave (km/s) = 3.86265 4.16108 4.01464
# Velocity P-wave (km/s) = 5.84248 6.35674 6.10503
#
# Compressibility (1/GPa) = 0.02594550
#
# Stress axis : x y z
#
# Youngs Moduli (GPa) = 166.06010 81.26943 87.69126
#
# Poissons Ratio (x) = 0.08226 -0.04605
# Poissons Ratio (y) = 0.16808 0.12324
# Poissons Ratio (z) = -0.08721 0.11422
#
# Static dielectric constant tensor:
#      x y z
#    x 2.376140 0.000000 0.097150 
#    y 0.000000 2.271100 0.000000 
#    z 0.097150 0.000000 2.152200 
# 
# From -- ./inp_files/218789.got.cif
#   From: 2010.05.17/outbox.cif.g08.bks.cpg/sg15_110_cif.got.tgz:218789.got - 2010.06.03 18:47:42.
