data_PCOD9298111
_publ_section_title
;
Structure prediction by ZEFSAII (Michael W. Deem and Ramdas Pophale) SiO2 
 PCOD9298111
Probable space group: C 2/C
;
_chemical_formula_sum "Si O2"
_cell_formula_units_Z 44
_cell_length_a 25.610284
_cell_length_b 11.232121
_cell_length_c 12.570163
_cell_angle_alpha 90.000000
_cell_angle_beta 144.635385
_cell_angle_gamma 90.000000
_cell_volume 2092.805318
_symmetry_space_group_name_H-M "C 2/C"
_symmetry_group_IT_number 15
_symmetry_cell_setting 'monoclinic'
loop_
_space_group_symop_operation_xyz
x,y,z
-x,y,1/2-z
-x,-y,-z
x,-y,1/2+z
1/2+x,1/2+y,z
1/2-x,1/2+y,1/2-z
1/2-x,1/2-y,-z
1/2+x,1/2-y,1/2+z
loop_
_atom_site_type_symbol
_atom_site_label
_atom_site_fract_x
_atom_site_fract_y
_atom_site_fract_z
Si Si1 0.000000 0.845059 0.250000
Si Si2 0.324628 0.521591 0.368442
Si Si3 0.991783 0.663230 0.052451
Si Si4 0.337757 0.318503 0.684081
Si Si5 0.604246 0.697308 0.441148
Si Si6 0.122847 0.436599 0.591907
O O1 0.023051 0.759769 0.189385
O O2 0.088394 0.918883 0.430439
O O3 0.318261 0.590545 0.245671
O O4 0.350352 0.383489 0.393586
O O5 0.228915 0.531485 0.270355
O O6 0.074391 0.618686 0.116354
O O7 0.916170 0.727936 0.853060
O O8 0.938611 0.555106 0.023132
O O9 0.250000 0.250000 0.500000
O O10 0.364491 0.368161 0.614681
O O11 0.500000 0.688538 0.250000
O O12 0.619519 0.835580 0.494328
#
# Coordination Sequence:
#
# PCOD9298111 Si02
#       6
#     4   8   8   8   8   8
#     4  10  24  44  64  96 140 174 226 284 336 406
#     4  11  25  44  67 100 138 179 226 283 343 404
#     4  10  24  43  68  99 134 179 233 282 335 401
#     4  11  22  43  71  97 136 180 226 281 340 405
#     4  12  24  43  69 101 137 180 226 281 346 405
#     4  11  24  42  68  97 134 179 234 279 341 405
#
# _framework density 21.024412000000002
#
# number of rings (size 3 to 8) (size 9 to 14) (size 15 to 20)
#    0.000    1.091    4.545    1.091    3.818    2.909 
#    3.273    0.000    0.000    0.000    0.000    0.000 
#    0.000    0.000    0.000    0.000    0.000    0.000 
#
# Total GULP energy -122604.640542 kJ/mol
# GULP energy per Si atom -5572.938206 kJ/mol
# Density = 2.097656 g / cm^3
# Si number density = 21.024412 Si / 1000 Ang^3
#
#
#
# Elastic Constant Matrix: (Units=GPa)
#
#
# Indices 1 2 3 4 5 6 
#
# 1 61.2003 32.6181 28.4376 0.0000 12.3925 0.0000
# 2 32.6181 90.3486 21.8533 0.0000 -4.3029 0.0000
# 3 28.4376 21.8533 82.9054 0.0000 4.8070 0.0000
# 4 0.0000 0.0000 0.0000 23.4967 0.0000 5.5839
# 5 12.3925 -4.3029 4.8070 0.0000 37.0431 0.0000
# 6 0.0000 0.0000 0.0000 5.5839 0.0000 49.0272
#
#
#
# Elastic Compliance Matrix: (Units=1/GPa)
#
#
# Indices 1 2 3 4 5 6 
#
# 1 0.025150 -0.008033 -0.006012 0.000000 -0.008567 0.000000
# 2 -0.008033 0.014507 -0.001332 0.000000 0.004546 0.000000
# 3 -0.006012 -0.001332 0.014477 0.000000 -0.000022 0.000000
# 4 0.000000 0.000000 0.000000 0.043743 0.000000 -0.004982
# 5 -0.008567 0.004546 -0.000022 0.000000 0.030392 0.000000
# 6 0.000000 0.000000 0.000000 -0.004982 0.000000 0.020964
#
#
# Mechanical properties :
#
#
# Convention : Reuss Voigt Hill
#
# Bulk Modulus (GPa) = 42.77537 44.47470 43.62503
# Shear Modulus (GPa) = 26.62665 32.01640 29.32152
#
# Velocity S-wave (km/s) = 3.56260 3.90657 3.73854
# Velocity P-wave (km/s) = 6.10840 6.44578 6.27936
#
# Compressibility (1/GPa) = 0.02337794
#
# Stress axis : x y z
#
# Youngs Moduli (GPa) = 39.76174 68.93140 69.07670
#
# Poissons Ratio (x) = 0.55376 0.41532
# Poissons Ratio (y) = 0.31942 0.09201
# Poissons Ratio (z) = 0.23906 0.09182
#
# Static dielectric constant tensor:
#      x y z
#    x 1.805140 0.000000 -0.060100 
#    y 0.000000 1.794120 0.000000 
#    z -0.060100 0.000000 1.716570 
# 
# From -- ./inp_files/118119.got.cif
#   From: 2010.05.17/outbox.cif.g08.bks.cpg/sg15_60_cif.got.tgz:118119.got - 2010.06.03 18:47:42.
