data_PCOD9298251
_publ_section_title
;
Structure prediction by ZEFSAII (Michael W. Deem and Ramdas Pophale) SiO2 
 PCOD9298251
Probable space group: C 2/C
;
_chemical_formula_sum "Si O2"
_cell_formula_units_Z 60
_cell_length_a 19.167144
_cell_length_b 11.172566
_cell_length_c 22.034947
_cell_angle_alpha 90.000000
_cell_angle_beta 144.993824
_cell_angle_gamma 90.000000
_cell_volume 2706.951625
_symmetry_space_group_name_H-M "C 2/C"
_symmetry_group_IT_number 15
_symmetry_cell_setting 'monoclinic'
loop_
_space_group_symop_operation_xyz
x,y,z
-x,y,1/2-z
-x,-y,-z
x,-y,1/2+z
1/2+x,1/2+y,z
1/2-x,1/2+y,1/2-z
1/2-x,1/2-y,-z
1/2+x,1/2-y,1/2+z
loop_
_atom_site_type_symbol
_atom_site_label
_atom_site_fract_x
_atom_site_fract_y
_atom_site_fract_z
Si Si1 0.115753 0.230592 0.432802
Si Si2 0.531402 0.519162 0.921868
Si Si3 0.393532 0.649845 0.630909
Si Si4 0.568278 0.932544 0.638153
Si Si5 0.659779 0.420403 0.636069
Si Si6 0.500000 0.114567 0.750000
Si Si7 0.859858 0.581092 0.090736
Si Si8 0.998695 0.682850 0.965278
O O1 0.250000 0.250000 0.500000
O O2 0.073813 0.093649 0.411589
O O3 0.017442 0.299400 0.320273
O O4 0.104470 0.285665 0.492294
O O5 0.552260 0.637533 0.897954
O O6 0.395407 0.501139 0.849017
O O7 0.614686 0.524343 0.040785
O O8 0.500000 0.604312 0.750000
O O9 0.266881 0.579085 0.535983
O O10 0.364846 0.788035 0.624893
O O11 0.697932 0.908399 0.759355
O O12 0.465616 0.928155 0.616404
O O13 0.544607 0.843929 0.565317
O O14 0.565055 0.064422 0.606004
O O15 0.592204 0.294200 0.596706
O O16 0.613141 0.022848 0.841141
#
# Coordination Sequence:
#
# PCOD9298251 Si02
#       8
#     8   8   8   8   8   4   8   8
#     4  11  25  42  72  99 143 188 238 307 362 447
#     4  10  24  44  66 103 129 183 242 291 364 434
#     4  11  25  43  70 100 146 185 242 299 358 441
#     4  11  24  42  73  98 144 185 238 308 356 434
#     4  10  24  45  70  95 141 183 237 300 357 436
#     4  12  24  46  66 104 148 186 240 302 364 424
#     4  11  25  43  69 107 137 195 241 295 372 432
#     4  10  24  44  64 110 133 184 247 289 366 436
#
# _framework density 22.165154999999999
#
# number of rings (size 3 to 8) (size 9 to 14) (size 15 to 20)
#    0.000    1.333    2.000    1.600    4.667    9.600 
#    0.000    0.000    0.000    0.000    0.000    0.000 
#    0.000    0.000    0.000    0.000    0.000    0.000 
#
# Total GULP energy -167683.411955 kJ/mol
# GULP energy per Si atom -5589.447065 kJ/mol
# Density = 2.211471 g / cm^3
# Si number density = 22.165155 Si / 1000 Ang^3
#
#
#
# Elastic Constant Matrix: (Units=GPa)
#
#
# Indices 1 2 3 4 5 6 
#
# 1 121.9907 22.9818 65.3929 0.0000 7.6938 0.0000
# 2 22.9818 75.4351 23.8035 0.0000 3.5428 0.0000
# 3 65.3929 23.8035 138.7552 0.0000 25.0395 0.0000
# 4 0.0000 0.0000 0.0000 26.2045 0.0000 -12.6426
# 5 7.6938 3.5428 25.0395 0.0000 29.2657 0.0000
# 6 0.0000 0.0000 0.0000 -12.6426 0.0000 32.5183
#
#
#
# Elastic Compliance Matrix: (Units=1/GPa)
#
#
# Indices 1 2 3 4 5 6 
#
# 1 0.011288 -0.001842 -0.005332 0.000000 0.001817 0.000000
# 2 -0.001842 0.014320 -0.001612 0.000000 0.000130 0.000000
# 3 -0.005332 -0.001612 0.011481 0.000000 -0.008226 0.000000
# 4 0.000000 0.000000 0.000000 0.046972 0.000000 0.018262
# 5 0.001817 0.000130 -0.008226 0.000000 0.040714 0.000000
# 6 0.000000 0.000000 0.000000 0.018262 0.000000 0.037852
#
#
# Mechanical properties :
#
#
# Convention : Reuss Voigt Hill
#
# Bulk Modulus (GPa) = 51.23627 62.28194 56.75910
# Shear Modulus (GPa) = 26.78037 32.53122 29.65580
#
# Velocity S-wave (km/s) = 3.47972 3.83518 3.66176
# Velocity P-wave (km/s) = 6.26980 6.91169 6.59856
#
# Compressibility (1/GPa) = 0.01951743
#
# Stress axis : x y z
#
# Youngs Moduli (GPa) = 88.59158 69.83172 87.10310
#
# Poissons Ratio (x) = 0.12862 0.46441
# Poissons Ratio (y) = 0.16317 0.14041
# Poissons Ratio (z) = 0.47234 0.11257
#
# Static dielectric constant tensor:
#      x y z
#    x 1.824480 0.000000 -0.000260 
#    y 0.000000 1.852150 0.000000 
#    z -0.000260 0.000000 1.785360 
# 
# From -- ./inp_files/248792.got.cif
#   From: 2010.05.17/outbox.cif.g08.bks.cpg/sg15_125_cif.got.tgz:248792.got - 2010.06.03 18:47:42.
