data_PCOD9298558
_publ_section_title
;
Structure prediction by ZEFSAII (Michael W. Deem and Ramdas Pophale) SiO2 
 PCOD9298558
Probable space group: C 2/C
;
_chemical_formula_sum "Si O2"
_cell_formula_units_Z 44
_cell_length_a 19.640330
_cell_length_b 9.880318
_cell_length_c 9.871397
_cell_angle_alpha 90.000000
_cell_angle_beta 106.042644
_cell_angle_gamma 90.000000
_cell_volume 1840.971826
_symmetry_space_group_name_H-M "C 2/C"
_symmetry_group_IT_number 15
_symmetry_cell_setting 'monoclinic'
loop_
_space_group_symop_operation_xyz
x,y,z
-x,y,1/2-z
-x,-y,-z
x,-y,1/2+z
1/2+x,1/2+y,z
1/2-x,1/2+y,1/2-z
1/2-x,1/2-y,-z
1/2+x,1/2-y,1/2+z
loop_
_atom_site_type_symbol
_atom_site_label
_atom_site_fract_x
_atom_site_fract_y
_atom_site_fract_z
Si Si1 0.357120 0.796600 0.572539
Si Si2 0.909855 0.646588 0.813451
Si Si3 0.283187 0.934636 0.092756
Si Si4 0.541209 0.564744 0.145173
Si Si5 0.500000 0.089289 0.250000
Si Si6 0.305183 0.532353 0.693073
O O1 0.358879 0.838973 0.415977
O O2 0.310366 0.910077 0.620436
O O3 0.438702 0.818276 0.656447
O O4 0.328793 0.651907 0.602872
O O5 0.856636 0.647250 0.654759
O O6 0.961456 0.773247 0.856139
O O7 0.957766 0.512289 0.828060
O O8 0.233218 0.910906 0.194070
O O9 0.242372 0.931516 0.926648
O O10 0.500000 0.509680 0.250000
O O11 0.623715 0.533436 0.208656
O O12 0.500000 0.500000 0.000000
#
# Coordination Sequence:
#
# PCOD9298558 Si02
#       6
#     8   8   8   8   4   8
#     4  11  24  45  74 101 151 187 244 297 367 435
#     4  11  23  47  74 104 147 184 248 305 352 442
#     4  11  25  46  73 106 140 190 246 294 368 421
#     4  12  27  48  72 106 146 190 240 297 369 436
#     4  10  24  44  74 108 138 190 246 306 356 428
#     4  12  26  47  72 106 146 195 239 302 364 441
#
# _framework density 23.90042
#
# number of rings (size 3 to 8) (size 9 to 14) (size 15 to 20)
#    0.000    0.727    2.727    4.364    6.364    0.727 
#    3.273    0.000    0.000    0.000    0.000    0.000 
#    0.000    0.000    0.000    0.000    0.000    0.000 
#
# Total GULP energy -122988.261908 kJ/mol
# GULP energy per Si atom -5590.375541 kJ/mol
# Density = 2.384602 g / cm^3
# Si number density = 23.900420 Si / 1000 Ang^3
#
#
#
# Elastic Constant Matrix: (Units=GPa)
#
#
# Indices 1 2 3 4 5 6 
#
# 1 90.2585 9.2607 40.4143 0.0000 11.2555 0.0000
# 2 9.2607 65.4747 23.7187 0.0000 4.6632 0.0000
# 3 40.4143 23.7187 135.2678 0.0000 23.0840 0.0000
# 4 0.0000 0.0000 0.0000 28.3526 0.0000 5.1463
# 5 11.2555 4.6632 23.0840 0.0000 63.9720 0.0000
# 6 0.0000 0.0000 0.0000 5.1463 0.0000 51.0353
#
#
#
# Elastic Compliance Matrix: (Units=1/GPa)
#
#
# Indices 1 2 3 4 5 6 
#
# 1 0.012855 -0.000446 -0.003604 0.000000 -0.000929 0.000000
# 2 -0.000446 0.016326 -0.002706 0.000000 -0.000135 0.000000
# 3 -0.003604 -0.002706 0.009380 0.000000 -0.002553 0.000000
# 4 0.000000 0.000000 0.000000 0.035928 0.000000 -0.003623
# 5 -0.000929 -0.000135 -0.002553 0.000000 0.016726 0.000000
# 6 0.000000 0.000000 0.000000 -0.003623 0.000000 0.019960
#
#
# Mechanical properties :
#
#
# Convention : Reuss Voigt Hill
#
# Bulk Modulus (GPa) = 39.92446 48.64316 44.28381
# Shear Modulus (GPa) = 37.58365 43.17912 40.38139
#
# Velocity S-wave (km/s) = 3.96979 4.25505 4.11489
# Velocity P-wave (km/s) = 6.14435 6.67362 6.41445
#
# Compressibility (1/GPa) = 0.02504730
#
# Stress axis : x y z
#
# Youngs Moduli (GPa) = 77.79333 61.25119 106.61287
#
# Poissons Ratio (x) = 0.02735 0.38421
# Poissons Ratio (y) = 0.03473 0.28853
# Poissons Ratio (z) = 0.28035 0.16576
#
# Static dielectric constant tensor:
#      x y z
#    x 2.002080 0.000000 -0.041500 
#    y 0.000000 1.905530 0.000000 
#    z -0.041500 0.000000 1.917190 
# 
# From -- ./inp_files/54520.got.cif
#   From: 2010.05.17/outbox.cif.g08.bks.cpg/sg15_28_cif.got.tgz:54520.got - 2010.06.03 18:47:42.
