data_PCOD9298523
_publ_section_title
;
Structure prediction by ZEFSAII (Michael W. Deem and Ramdas Pophale) SiO2 
 PCOD9298523
Probable space group: C 2/C
;
_chemical_formula_sum "Si O2"
_cell_formula_units_Z 36
_cell_length_a 14.008154
_cell_length_b 4.759305
_cell_length_c 20.135260
_cell_angle_alpha 90.000000
_cell_angle_beta 81.110217
_cell_angle_gamma 90.000000
_cell_volume 1326.273553
_symmetry_space_group_name_H-M "C 2/C"
_symmetry_group_IT_number 15
_symmetry_cell_setting 'monoclinic'
loop_
_space_group_symop_operation_xyz
x,y,z
-x,y,1/2-z
-x,-y,-z
x,-y,1/2+z
1/2+x,1/2+y,z
1/2-x,1/2+y,1/2-z
1/2-x,1/2-y,-z
1/2+x,1/2-y,1/2+z
loop_
_atom_site_type_symbol
_atom_site_label
_atom_site_fract_x
_atom_site_fract_y
_atom_site_fract_z
Si Si1 0.500000 0.196428 0.250000
Si Si2 0.260408 0.884410 0.925039
Si Si3 0.946003 0.855036 0.067026
Si Si4 0.532560 0.151246 0.616201
Si Si5 0.709134 0.564081 0.716414
O O1 0.492956 0.986747 0.312296
O O2 0.402243 0.372348 0.259570
O O3 0.165381 0.069733 0.923343
O O4 0.357311 0.075143 0.913492
O O5 0.266833 0.668924 0.861213
O O6 0.250000 0.750000 0.000000
O O7 0.002748 0.025789 0.118287
O O8 0.965136 0.527974 0.073219
O O9 0.000000 0.000000 0.000000
O O10 0.733186 0.247528 0.734503
#
# Coordination Sequence:
#
# PCOD9298523 Si02
#       5
#     4   8   8   8   8
#     4  10  24  44  72  96 134 174 228 274 330 404
#     4  11  25  44  71 104 134 177 229 280 333 400
#     4  12  25  44  67  96 138 173 217 273 340 392
#     4  11  26  45  67 101 132 178 222 276 336 398
#     4  11  25  47  69  99 137 180 223 277 338 403
#
# _framework density 27.143723000000001
#
# number of rings (size 3 to 8) (size 9 to 14) (size 15 to 20)
#    0.000    0.889    2.222    3.333    0.000   11.556 
#    0.000    0.000    0.000    0.000    0.000    0.000 
#    0.000    0.000    0.000    0.000    0.000    0.000 
#
# Total GULP energy -101172.493364 kJ/mol
# GULP energy per Si atom -5620.694076 kJ/mol
# Density = 2.708194 g / cm^3
# Si number density = 27.143723 Si / 1000 Ang^3
#
#
#
# Elastic Constant Matrix: (Units=GPa)
#
#
# Indices 1 2 3 4 5 6 
#
# 1 172.5033 17.1732 46.0166 0.0000 -23.3034 0.0000
# 2 17.1732 114.3021 26.5533 0.0000 -2.8960 0.0000
# 3 46.0166 26.5533 175.6220 0.0000 -17.4912 0.0000
# 4 0.0000 0.0000 0.0000 35.2477 0.0000 4.7855
# 5 -23.3034 -2.8960 -17.4912 0.0000 38.8877 0.0000
# 6 0.0000 0.0000 0.0000 4.7855 0.0000 34.0990
#
#
#
# Elastic Compliance Matrix: (Units=1/GPa)
#
#
# Indices 1 2 3 4 5 6 
#
# 1 0.006663 -0.000610 -0.001320 0.000000 0.003354 0.000000
# 2 -0.000610 0.009123 -0.001244 0.000000 -0.000245 0.000000
# 3 -0.001320 -0.001244 0.006428 0.000000 0.002008 0.000000
# 4 0.000000 0.000000 0.000000 0.028922 0.000000 -0.004059
# 5 0.003354 -0.000245 0.002008 0.000000 0.028610 0.000000
# 6 0.000000 0.000000 0.000000 -0.004059 0.000000 0.029896
#
#
# Mechanical properties :
#
#
# Convention : Reuss Voigt Hill
#
# Bulk Modulus (GPa) = 63.02279 71.32372 67.17325
# Shear Modulus (GPa) = 41.22807 46.49250 43.86028
#
# Velocity S-wave (km/s) = 3.90151 4.14312 4.02413
# Velocity P-wave (km/s) = 6.60033 7.01574 6.81120
#
# Compressibility (1/GPa) = 0.01586728
#
# Stress axis : x y z
#
# Youngs Moduli (GPa) = 150.08852 109.61156 155.57231
#
# Poissons Ratio (x) = 0.06681 0.20529
# Poissons Ratio (y) = 0.09148 0.19355
# Poissons Ratio (z) = 0.19806 0.13637
#
# Static dielectric constant tensor:
#      x y z
#    x 1.957680 0.000000 -0.077270 
#    y 0.000000 2.057370 0.000000 
#    z -0.077270 0.000000 1.921980 
# 
# From -- ./inp_files/241444.got.cif
#   From: 2010.05.17/outbox.cif.g08.bks.cpg/sg15_121_cif.got.tgz:241444.got - 2010.06.03 18:47:42.
