data_PCOD9298459
_publ_section_title
;
Structure prediction by ZEFSAII (Michael W. Deem and Ramdas Pophale) SiO2 
 PCOD9298459
Probable space group: C 2/C
;
_chemical_formula_sum "Si O2"
_cell_formula_units_Z 64
_cell_length_a 15.736071
_cell_length_b 14.109824
_cell_length_c 13.859890
_cell_angle_alpha 90.000000
_cell_angle_beta 61.817776
_cell_angle_gamma 90.000000
_cell_volume 2712.535169
_symmetry_space_group_name_H-M "C 2/C"
_symmetry_group_IT_number 15
_symmetry_cell_setting 'monoclinic'
loop_
_space_group_symop_operation_xyz
x,y,z
-x,y,1/2-z
-x,-y,-z
x,-y,1/2+z
1/2+x,1/2+y,z
1/2-x,1/2+y,1/2-z
1/2-x,1/2-y,-z
1/2+x,1/2-y,1/2+z
loop_
_atom_site_type_symbol
_atom_site_label
_atom_site_fract_x
_atom_site_fract_y
_atom_site_fract_z
Si Si1 0.705858 0.899388 0.284412
Si Si2 0.894069 0.114564 0.579016
Si Si3 0.107585 0.227652 0.650130
Si Si4 0.902637 0.433023 0.342731
Si Si5 0.631782 0.835419 0.949388
Si Si6 0.885031 0.073710 0.991785
Si Si7 0.071530 0.603866 0.029826
Si Si8 0.765202 0.812306 0.710433
O O1 0.819960 0.904779 0.206395
O O2 0.661760 0.951447 0.215548
O O3 0.651467 0.928456 0.410076
O O4 0.682723 0.786048 0.288466
O O5 0.880948 0.222087 0.552612
O O6 0.001947 0.096666 0.556844
O O7 0.872639 0.038454 0.506693
O O8 0.146932 0.128599 0.587146
O O9 0.101572 0.296627 0.560826
O O10 0.177218 0.277232 0.689258
O O11 0.000000 0.219302 0.750000
O O12 0.852929 0.368278 0.449765
O O13 0.932209 0.528914 0.381755
O O14 0.000000 0.386525 0.250000
O O15 0.531314 0.881991 0.966518
O O16 0.717931 0.858987 0.829716
O O17 0.831252 0.120185 0.111751
#
# Coordination Sequence:
#
# PCOD9298459 Si02
#       8
#     8   8   8   8   8   8   8   8
#     4  11  25  46  67 104 144 183 233 289 356 429
#     4  10  24  44  70  94 141 189 238 290 337 421
#     4  12  22  41  74 111 144 178 240 303 366 423
#     4  12  28  41  73 106 144 179 232 285 373 443
#     4  11  23  48  71 103 142 187 228 297 369 427
#     4  11  23  43  68 101 137 191 242 288 346 416
#     4  12  24  43  73 108 143 179 226 303 368 420
#     4  11  24  41  76 102 142 192 234 296 360 418
#
# _framework density 23.594163000000002
#
# number of rings (size 3 to 8) (size 9 to 14) (size 15 to 20)
#    0.000    0.750    5.000    1.875    3.500    2.000 
#    0.000    0.625    5.500    0.000    0.000    0.000 
#    0.000    0.000    0.000    0.000    0.000    0.000 
#
# Total GULP energy -179312.475839 kJ/mol
# GULP energy per Si atom -5603.514870 kJ/mol
# Density = 2.354046 g / cm^3
# Si number density = 23.594163 Si / 1000 Ang^3
#
#
#
# Elastic Constant Matrix: (Units=GPa)
#
#
# Indices 1 2 3 4 5 6 
#
# 1 60.7585 13.1250 47.7697 0.0000 -14.1419 0.0000
# 2 13.1250 95.7395 41.5851 0.0000 -1.3343 0.0000
# 3 47.7697 41.5851 187.1523 0.0000 -12.6895 0.0000
# 4 0.0000 0.0000 0.0000 41.1438 0.0000 6.1231
# 5 -14.1419 -1.3343 -12.6895 0.0000 41.9576 0.0000
# 6 0.0000 0.0000 0.0000 6.1231 0.0000 25.0372
#
#
#
# Elastic Compliance Matrix: (Units=1/GPa)
#
#
# Indices 1 2 3 4 5 6 
#
# 1 0.021942 -0.000737 -0.005040 0.000000 0.005848 0.000000
# 2 -0.000737 0.011593 -0.002429 0.000000 -0.000615 0.000000
# 3 -0.005040 -0.002429 0.007197 0.000000 0.000400 0.000000
# 4 0.000000 0.000000 0.000000 0.025223 0.000000 -0.006169
# 5 0.005848 -0.000615 0.000400 0.000000 0.025906 0.000000
# 6 0.000000 0.000000 0.000000 -0.006169 0.000000 0.041449
#
#
# Mechanical properties :
#
#
# Convention : Reuss Voigt Hill
#
# Bulk Modulus (GPa) = 41.12281 60.95665 51.03973
# Shear Modulus (GPa) = 31.67988 37.70574 34.69281
#
# Velocity S-wave (km/s) = 3.66826 4.00196 3.83874
# Velocity P-wave (km/s) = 5.95051 6.87356 6.42862
#
# Compressibility (1/GPa) = 0.02431741
#
# Stress axis : x y z
#
# Youngs Moduli (GPa) = 45.57544 86.26089 138.95277
#
# Poissons Ratio (x) = 0.06360 0.70035
# Poissons Ratio (y) = 0.03360 0.33757
# Poissons Ratio (z) = 0.22971 0.20956
#
# Static dielectric constant tensor:
#      x y z
#    x 1.909780 0.000000 -0.002520 
#    y 0.000000 1.937900 0.000000 
#    z -0.002520 0.000000 1.869880 
# 
# From -- ./inp_files/162256.got.cif
#   From: 2010.05.17/outbox.cif.g08.bks.cpg/sg15_82_cif.got.tgz:162256.got - 2010.06.03 18:47:42.
