data_PCOD9298981
_publ_section_title
;
Structure prediction by ZEFSAII (Michael W. Deem and Ramdas Pophale) SiO2 
 PCOD9298981
Probable space group: C 2/C
;
_chemical_formula_sum "Si O2"
_cell_formula_units_Z 44
_cell_length_a 19.977294
_cell_length_b 10.877926
_cell_length_c 8.611762
_cell_angle_alpha 90.000000
_cell_angle_beta 82.069873
_cell_angle_gamma 90.000000
_cell_volume 1853.538710
_symmetry_space_group_name_H-M "C 2/C"
_symmetry_group_IT_number 15
_symmetry_cell_setting 'monoclinic'
loop_
_space_group_symop_operation_xyz
x,y,z
-x,y,1/2-z
-x,-y,-z
x,-y,1/2+z
1/2+x,1/2+y,z
1/2-x,1/2+y,1/2-z
1/2-x,1/2-y,-z
1/2+x,1/2-y,1/2+z
loop_
_atom_site_type_symbol
_atom_site_label
_atom_site_fract_x
_atom_site_fract_y
_atom_site_fract_z
Si Si1 0.500000 0.000000 0.500000
Si Si2 0.603723 0.798457 0.066569
Si Si3 0.848396 0.870803 0.675670
Si Si4 0.632115 0.849930 0.519903
Si Si5 0.546776 0.416161 0.377533
Si Si6 0.696754 0.932210 0.820291
O O1 0.448408 0.910914 0.415877
O O2 0.555194 0.886830 0.506381
O O3 0.574014 0.700894 0.956600
O O4 0.673224 0.850178 0.973196
O O5 0.617847 0.726619 0.218229
O O6 0.852920 0.794472 0.513099
O O7 0.772534 0.904837 0.746378
O O8 0.890933 0.994470 0.677691
O O9 0.650472 0.893124 0.688388
O O10 0.679031 0.930704 0.386204
O O11 0.500000 0.379232 0.250000
O O12 0.500000 0.500000 0.500000
#
# Coordination Sequence:
#
# PCOD9298981 Si02
#       6
#     4   8   8   8   8   8
#     4  10  24  46  72 104 140 184 246 306 370 420
#     4  11  26  46  75 103 148 189 247 311 367 450
#     4  12  27  46  74 100 152 190 247 308 371 453
#     4  11  25  44  72 105 142 191 249 307 368 448
#     4  12  27  46  71 108 142 194 241 303 382 444
#     4  11  27  44  72 105 141 196 243 307 376 439
#
# _framework density 23.738377
#
# number of rings (size 3 to 8) (size 9 to 14) (size 15 to 20)
#    0.000    0.727    1.818    4.364   10.182    5.091 
#    0.000    0.000    0.000    0.000    0.000    0.000 
#    0.000    0.000    0.000    0.000    0.000    0.000 
#
# Total GULP energy -122739.074243 kJ/mol
# GULP energy per Si atom -5579.048829 kJ/mol
# Density = 2.368435 g / cm^3
# Si number density = 23.738377 Si / 1000 Ang^3
#
#
#
# Elastic Constant Matrix: (Units=GPa)
#
#
# Indices 1 2 3 4 5 6 
#
# 1 93.4560 7.1389 -13.3479 0.0000 -13.2637 0.0000
# 2 7.1389 104.3011 2.7080 0.0000 -2.6337 0.0000
# 3 -13.3479 2.7080 49.3711 0.0000 12.2262 0.0000
# 4 0.0000 0.0000 0.0000 8.8526 0.0000 -16.5300
# 5 -13.2637 -2.6337 12.2262 0.0000 33.1205 0.0000
# 6 0.0000 0.0000 0.0000 -16.5300 0.0000 32.0990
#
#
#
# Elastic Compliance Matrix: (Units=1/GPa)
#
#
# Indices 1 2 3 4 5 6 
#
# 1 0.011613 -0.000758 0.002250 0.000000 0.003760 0.000000
# 2 -0.000758 0.009684 -0.000937 0.000000 0.000812 0.000000
# 3 0.002250 -0.000937 0.022793 0.000000 -0.007587 0.000000
# 4 0.000000 0.000000 0.000000 2.939243 0.000000 1.513616
# 5 0.003760 0.000812 -0.007587 0.000000 0.034564 0.000000
# 6 0.000000 0.000000 0.000000 1.513616 0.000000 0.810617
#
#
# Mechanical properties :
#
#
# Convention : Reuss Voigt Hill
#
# Bulk Modulus (GPa) = 22.12389 26.68070 24.40229
# Shear Modulus (GPa) = 1.30125 31.52305 16.41215
#
# Velocity S-wave (km/s) = 0.74118 3.64804 2.63226
# Velocity P-wave (km/s) = 3.17373 5.38592 4.42045
#
# Compressibility (1/GPa) = 0.04520001
#
# Stress axis : x y z
#
# Youngs Moduli (GPa) = 86.10934 103.25900 43.87220
#
# Poissons Ratio (x) = 0.07831 -0.09872
# Poissons Ratio (y) = 0.06530 0.04113
# Poissons Ratio (z) = -0.19377 0.09680
#
# Static dielectric constant tensor:
#      x y z
#    x 1.867500 0.000000 -0.001630 
#    y 0.000000 1.836800 0.000000 
#    z -0.001630 0.000000 2.009900 
# 
# From -- ./inp_files/54442.got.cif
#   From: 2010.05.17/outbox.cif.g08.bks.cpg/sg15_28_cif.got.tgz:54442.got - 2010.06.03 18:47:42.
