data_PCOD9298270
_publ_section_title
;
Structure prediction by ZEFSAII (Michael W. Deem and Ramdas Pophale) SiO2 
 PCOD9298270
Probable space group: C 2/C
;
_chemical_formula_sum "Si O2"
_cell_formula_units_Z 40
_cell_length_a 11.290972
_cell_length_b 9.991294
_cell_length_c 20.533061
_cell_angle_alpha 90.000000
_cell_angle_beta 135.611824
_cell_angle_gamma 90.000000
_cell_volume 1620.333255
_symmetry_space_group_name_H-M "C 2/C"
_symmetry_group_IT_number 15
_symmetry_cell_setting 'monoclinic'
loop_
_space_group_symop_operation_xyz
x,y,z
-x,y,1/2-z
-x,-y,-z
x,-y,1/2+z
1/2+x,1/2+y,z
1/2-x,1/2+y,1/2-z
1/2-x,1/2-y,-z
1/2+x,1/2-y,1/2+z
loop_
_atom_site_type_symbol
_atom_site_label
_atom_site_fract_x
_atom_site_fract_y
_atom_site_fract_z
Si Si1 0.191015 0.283251 0.639800
Si Si2 0.678122 0.497034 0.610807
Si Si3 0.121560 0.652987 0.410147
Si Si4 0.687562 0.887446 0.508792
Si Si5 0.041572 0.012551 0.200870
O O1 0.255416 0.144558 0.635225
O O2 0.094424 0.348876 0.539457
O O3 0.348898 0.368987 0.723845
O O4 0.058522 0.277488 0.647369
O O5 0.500000 0.500000 0.500000
O O6 0.793850 0.380965 0.626174
O O7 0.646704 0.499783 0.675303
O O8 0.250000 0.750000 0.500000
O O9 0.101526 0.501550 0.431643
O O10 0.750000 0.750000 0.500000
O O11 0.859475 0.957555 0.599448
O O12 0.000000 0.924401 0.250000
#
# Coordination Sequence:
#
# PCOD9298270 Si02
#       5
#     8   8   8   8   8
#     4  11  24  43  66 106 137 185 241 296 368 432
#     4  12  22  47  72  98 148 188 237 302 361 430
#     4  12  24  41  73 104 136 185 242 287 364 430
#     4  11  21  43  70  95 135 191 231 288 355 445
#     4  10  24  44  64  98 141 182 226 300 367 413
#
# _framework density 24.686281999999999
#
# number of rings (size 3 to 8) (size 9 to 14) (size 15 to 20)
#    0.000    0.800    6.000    0.600    0.000    2.400 
#   14.400    0.000    0.000    0.000    0.000    0.000 
#    0.000    0.000    0.000    0.000    0.000    0.000 
#
# Total GULP energy -111377.769865 kJ/mol
# GULP energy per Si atom -5568.888493 kJ/mol
# Density = 2.463009 g / cm^3
# Si number density = 24.686282 Si / 1000 Ang^3
#
#
#
# Elastic Constant Matrix: (Units=GPa)
#
#
# Indices 1 2 3 4 5 6 
#
# 1 173.3728 27.0480 21.8095 0.0000 -39.8880 0.0000
# 2 27.0480 91.2608 13.0196 0.0000 -28.1065 0.0000
# 3 21.8095 13.0196 42.4414 0.0000 -23.2390 0.0000
# 4 0.0000 0.0000 0.0000 22.1920 0.0000 1.0020
# 5 -39.8880 -28.1065 -23.2390 0.0000 59.0660 0.0000
# 6 0.0000 0.0000 0.0000 1.0020 0.0000 42.3722
#
#
#
# Elastic Compliance Matrix: (Units=1/GPa)
#
#
# Indices 1 2 3 4 5 6 
#
# 1 0.006918 -0.000686 -0.001230 0.000000 0.003862 0.000000
# 2 -0.000686 0.012926 -0.000635 0.000000 0.005438 0.000000
# 3 -0.001230 -0.000635 0.030295 0.000000 0.010786 0.000000
# 4 0.000000 0.000000 0.000000 0.045110 0.000000 -0.001067
# 5 0.003862 0.005438 0.010786 0.000000 0.026369 0.000000
# 6 0.000000 0.000000 0.000000 -0.001067 0.000000 0.023626
#
#
# Mechanical properties :
#
#
# Convention : Reuss Voigt Hill
#
# Bulk Modulus (GPa) = 22.20409 47.86989 35.03699
# Shear Modulus (GPa) = 30.23730 41.07257 35.65493
#
# Velocity S-wave (km/s) = 3.50360 4.08337 3.80455
# Velocity P-wave (km/s) = 5.03795 6.45487 5.78992
#
# Compressibility (1/GPa) = 0.04503675
#
# Stress axis : x y z
#
# Youngs Moduli (GPa) = 144.54896 77.36201 33.00871
#
# Poissons Ratio (x) = 0.05304 0.04061
# Poissons Ratio (y) = 0.09910 0.02098
# Poissons Ratio (z) = 0.17783 0.04916
#
# Static dielectric constant tensor:
#      x y z
#    x 2.419750 0.000000 -0.223330 
#    y 0.000000 2.086480 0.000000 
#    z -0.223330 0.000000 1.980340 
# 
# From -- ./inp_files/236718.got.cif
#   From: 2010.05.17/outbox.cif.g08.bks.cpg/sg15_119_cif.got.tgz:236718.got - 2010.06.03 18:47:42.
