data_PCOD9298600
_publ_section_title
;
Structure prediction by ZEFSAII (Michael W. Deem and Ramdas Pophale) SiO2 
 PCOD9298600
Probable space group: C 2/C
;
_chemical_formula_sum "Si O2"
_cell_formula_units_Z 36
_cell_length_a 8.750312
_cell_length_b 22.416131
_cell_length_c 8.588049
_cell_angle_alpha 90.000000
_cell_angle_beta 69.977334
_cell_angle_gamma 90.000000
_cell_volume 1582.712215
_symmetry_space_group_name_H-M "C 2/C"
_symmetry_group_IT_number 15
_symmetry_cell_setting 'monoclinic'
loop_
_space_group_symop_operation_xyz
x,y,z
-x,y,1/2-z
-x,-y,-z
x,-y,1/2+z
1/2+x,1/2+y,z
1/2-x,1/2+y,1/2-z
1/2-x,1/2-y,-z
1/2+x,1/2-y,1/2+z
loop_
_atom_site_type_symbol
_atom_site_label
_atom_site_fract_x
_atom_site_fract_y
_atom_site_fract_z
Si Si1 0.500000 0.022881 0.750000
Si Si2 0.309982 0.447310 0.535724
Si Si3 0.685512 0.753707 0.197866
Si Si4 0.000000 0.960504 0.750000
Si Si5 0.624309 0.130156 0.907596
Si Si6 0.000000 0.302944 0.750000
O O1 0.546087 0.069247 0.870465
O O2 0.648159 0.980832 0.650622
O O3 0.392507 0.425288 0.665662
O O4 0.399242 0.496780 0.400150
O O5 0.288574 0.391915 0.430541
O O6 0.500000 0.727448 0.250000
O O7 0.657493 0.821760 0.264093
O O8 0.828129 0.730203 0.266311
O O9 0.750000 0.750000 0.000000
O O10 0.526895 0.158850 0.084232
#
# Coordination Sequence:
#
# PCOD9298600 Si02
#       6
#     4   8   8   4   8   4
#     4  12  23  46  74 101 149 198 239 288 356 460
#     4  11  24  45  70 104 149 193 239 300 353 446
#     4  12  26  53  76 106 150 193 254 319 370 445
#     4  10  24  45  62 101 159 182 239 300 352 414
#     4  12  25  45  77 108 142 200 245 295 386 437
#     4  12  27  49  76 114 150 186 260 322 368 442
#
# _framework density 22.745764999999999
#
# number of rings (size 3 to 8) (size 9 to 14) (size 15 to 20)
#    0.000    0.444    5.556    2.000    3.111    0.889 
#    2.000    0.000    0.000    0.000    0.000    0.000 
#    0.000    0.000    0.000    0.000    0.000    0.000 
#
# Total GULP energy -100451.520878 kJ/mol
# GULP energy per Si atom -5580.640049 kJ/mol
# Density = 2.269399 g / cm^3
# Si number density = 22.745765 Si / 1000 Ang^3
#
#
#
# Elastic Constant Matrix: (Units=GPa)
#
#
# Indices 1 2 3 4 5 6 
#
# 1 150.8690 32.5554 60.2643 0.0000 25.2349 0.0000
# 2 32.5554 64.2327 30.4806 0.0000 14.5669 0.0000
# 3 60.2643 30.4806 136.4901 0.0000 7.8706 0.0000
# 4 0.0000 0.0000 0.0000 18.8229 0.0000 7.9227
# 5 25.2349 14.5669 7.8706 0.0000 57.2044 0.0000
# 6 0.0000 0.0000 0.0000 7.9227 0.0000 8.2777
#
#
#
# Elastic Compliance Matrix: (Units=1/GPa)
#
#
# Indices 1 2 3 4 5 6 
#
# 1 0.008910 -0.002318 -0.003250 0.000000 -0.002893 0.000000
# 2 -0.002318 0.018940 -0.003011 0.000000 -0.003386 0.000000
# 3 -0.003250 -0.003011 0.009381 0.000000 0.000910 0.000000
# 4 0.000000 0.000000 0.000000 0.088967 0.000000 -0.085151
# 5 -0.002893 -0.003386 0.000910 0.000000 0.019495 0.000000
# 6 0.000000 0.000000 0.000000 -0.085151 0.000000 0.202305
#
#
# Mechanical properties :
#
#
# Convention : Reuss Voigt Hill
#
# Bulk Modulus (GPa) = 49.81422 66.46584 58.14003
# Shear Modulus (GPa) = 13.44638 32.08046 22.76342
#
# Velocity S-wave (km/s) = 2.43402 3.75959 3.16694
# Velocity P-wave (km/s) = 5.46326 6.93763 6.24411
#
# Compressibility (1/GPa) = 0.02007459
#
# Stress axis : x y z
#
# Youngs Moduli (GPa) = 112.22720 52.79858 106.59446
#
# Poissons Ratio (x) = 0.12238 0.34641
# Poissons Ratio (y) = 0.26013 0.32095
# Poissons Ratio (z) = 0.36471 0.15897
#
# Static dielectric constant tensor:
#      x y z
#    x 2.031800 0.000000 0.009820 
#    y 0.000000 1.849830 0.000000 
#    z 0.009820 0.000000 1.801980 
# 
# From -- ./inp_files/23372.got.cif
#   From: 2010.05.17/outbox.cif.g08.bks.cpg/sg15_12_cif.got.tgz:23372.got - 2010.06.03 18:47:42.
