data_PCOD9298495
_publ_section_title
;
Structure prediction by ZEFSAII (Michael W. Deem and Ramdas Pophale) SiO2 
 PCOD9298495
Probable space group: C 2/C
;
_chemical_formula_sum "Si O2"
_cell_formula_units_Z 40
_cell_length_a 8.414110
_cell_length_b 23.076729
_cell_length_c 9.973114
_cell_angle_alpha 90.000000
_cell_angle_beta 84.689007
_cell_angle_gamma 90.000000
_cell_volume 1928.167509
_symmetry_space_group_name_H-M "C 2/C"
_symmetry_group_IT_number 15
_symmetry_cell_setting 'monoclinic'
loop_
_space_group_symop_operation_xyz
x,y,z
-x,y,1/2-z
-x,-y,-z
x,-y,1/2+z
1/2+x,1/2+y,z
1/2-x,1/2+y,1/2-z
1/2-x,1/2-y,-z
1/2+x,1/2-y,1/2+z
loop_
_atom_site_type_symbol
_atom_site_label
_atom_site_fract_x
_atom_site_fract_y
_atom_site_fract_z
Si Si1 0.769785 0.749984 0.653328
Si Si2 0.765776 0.400595 0.575104
Si Si3 0.500000 0.671498 0.250000
Si Si4 0.384007 0.016769 0.632282
Si Si5 0.500000 0.159312 0.250000
Si Si6 0.692399 0.377710 0.264239
O O1 0.750000 0.750000 0.500000
O O2 0.937273 0.781927 0.650316
O O3 0.644165 0.796886 0.715131
O O4 0.745489 0.688021 0.724564
O O5 0.628011 0.366896 0.664135
O O6 0.752704 0.466956 0.623460
O O7 0.935250 0.378217 0.627657
O O8 0.740686 0.391651 0.416751
O O9 0.500000 0.010048 0.750000
O O10 0.292844 0.077647 0.662302
O O11 0.500000 0.000000 0.500000
O O12 0.500000 0.382744 0.250000
#
# Coordination Sequence:
#
# PCOD9298495 Si02
#       6
#     8   8   4   8   4   8
#     4  11  25  43  69 105 143 183 237 288 365 427
#     4  11  25  48  72 104 145 188 247 294 371 424
#     4  10  26  40  72 104 142 190 226 304 354 432
#     4  12  27  47  75 107 141 195 248 308 363 432
#     4  10  24  44  72 102 144 188 232 300 348 442
#     4  12  28  47  75 105 148 193 244 301 362 438
#
# _framework density 20.745087000000002
#
# number of rings (size 3 to 8) (size 9 to 14) (size 15 to 20)
#    0.000    0.800    4.000    1.200    8.400    4.000 
#    0.000    0.000    0.000    0.000    0.000    0.000 
#    0.000    0.000    0.000    0.000    0.000    0.000 
#
# Total GULP energy -111355.704200 kJ/mol
# GULP energy per Si atom -5567.785210 kJ/mol
# Density = 2.069787 g / cm^3
# Si number density = 20.745087 Si / 1000 Ang^3
#
#
#
# Elastic Constant Matrix: (Units=GPa)
#
#
# Indices 1 2 3 4 5 6 
#
# 1 69.9725 56.9964 30.4285 0.0000 4.8720 0.0000
# 2 56.9964 123.7005 30.7331 0.0000 -8.6882 0.0000
# 3 30.4285 30.7331 85.1363 0.0000 2.4711 0.0000
# 4 0.0000 0.0000 0.0000 108.1784 0.0000 -38.9913
# 5 4.8720 -8.6882 2.4711 0.0000 32.8994 0.0000
# 6 0.0000 0.0000 0.0000 -38.9913 0.0000 63.8369
#
#
#
# Elastic Compliance Matrix: (Units=1/GPa)
#
#
# Indices 1 2 3 4 5 6 
#
# 1 0.026079 -0.011204 -0.005090 0.000000 -0.006439 0.000000
# 2 -0.011204 0.013920 -0.001178 0.000000 0.005424 0.000000
# 3 -0.005090 -0.001178 0.014008 0.000000 -0.000610 0.000000
# 4 0.000000 0.000000 0.000000 0.011854 0.000000 0.007240
# 5 -0.006439 0.005424 -0.000610 0.000000 0.032827 0.000000
# 6 0.000000 0.000000 0.000000 0.007240 0.000000 0.020087
#
#
# Mechanical properties :
#
#
# Convention : Reuss Voigt Hill
#
# Bulk Modulus (GPa) = 52.45490 57.23616 54.84553
# Shear Modulus (GPa) = 31.23579 51.69301 41.46440
#
# Velocity S-wave (km/s) = 3.88454 4.99723 4.47560
# Velocity P-wave (km/s) = 6.74239 7.80682 7.29405
#
# Compressibility (1/GPa) = 0.01906400
#
# Stress axis : x y z
#
# Youngs Moduli (GPa) = 38.34478 71.83904 71.38850
#
# Poissons Ratio (x) = 0.80488 0.36334
# Poissons Ratio (y) = 0.42961 0.08409
# Poissons Ratio (z) = 0.19516 0.08462
#
# Static dielectric constant tensor:
#      x y z
#    x 1.795180 0.000000 0.014090 
#    y 0.000000 1.745110 0.000000 
#    z 0.014090 0.000000 1.679830 
# 
# From -- ./inp_files/23526.got.cif
#   From: 2010.05.17/outbox.cif.g08.bks.cpg/sg15_12_cif.got.tgz:23526.got - 2010.06.03 18:47:42.
