data_PCOD9298938
_publ_section_title
;
Structure prediction by ZEFSAII (Michael W. Deem and Ramdas Pophale) SiO2 
 PCOD9298938
Probable space group: C 2/C
;
_chemical_formula_sum "Si O2"
_cell_formula_units_Z 56
_cell_length_a 25.166136
_cell_length_b 13.625221
_cell_length_c 8.380261
_cell_angle_alpha 90.000000
_cell_angle_beta 108.582998
_cell_angle_gamma 90.000000
_cell_volume 2723.724753
_symmetry_space_group_name_H-M "C 2/C"
_symmetry_group_IT_number 15
_symmetry_cell_setting 'monoclinic'
loop_
_space_group_symop_operation_xyz
x,y,z
-x,y,1/2-z
-x,-y,-z
x,-y,1/2+z
1/2+x,1/2+y,z
1/2-x,1/2+y,1/2-z
1/2-x,1/2-y,-z
1/2+x,1/2-y,1/2+z
loop_
_atom_site_type_symbol
_atom_site_label
_atom_site_fract_x
_atom_site_fract_y
_atom_site_fract_z
Si Si1 0.439258 0.040719 0.988110
Si Si2 0.383170 0.575013 0.707383
Si Si3 0.240211 0.633836 0.012178
Si Si4 0.000000 0.323621 0.750000
Si Si5 0.000000 0.036311 0.250000
Si Si6 0.801578 0.036412 0.360646
Si Si7 0.548480 0.297378 0.012247
Si Si8 0.392070 0.866069 0.126553
O O1 0.416521 0.100750 0.818677
O O2 0.447875 0.107918 0.152491
O O3 0.500000 0.000000 0.000000
O O4 0.404593 0.946813 0.004164
O O5 0.443125 0.527780 0.712977
O O6 0.337871 0.595764 0.526368
O O7 0.350396 0.500732 0.790016
O O8 0.399637 0.666152 0.831720
O O9 0.259580 0.597344 0.207432
O O10 0.250000 0.750000 0.000000
O O11 0.271495 0.557073 0.919881
O O12 0.174103 0.631501 0.923399
O O13 0.988835 0.262073 0.898049
O O14 0.014148 0.110501 0.409175
O O15 0.574987 0.231454 0.897846
#
# Coordination Sequence:
#
# PCOD9298938 Si02
#       8
#     8   8   8   4   4   8   8   8
#     4  12  22  43  63  97 137 182 212 278 344 410
#     4  11  23  44  66  94 138 178 215 278 343 401
#     4  11  25  47  72 103 131 184 240 292 346 408
#     4  12  25  37  62  96 148 170 224 267 333 404
#     4  12  25  41  68  96 142 180 216 259 347 420
#     4  10  24  46  70  97 138 177 231 294 343 401
#     4  12  25  39  62 105 132 176 227 269 325 425
#     4  12  24  42  71  93 138 181 230 278 342 400
#
# _framework density 20.560079999999999
#
# number of rings (size 3 to 8) (size 9 to 14) (size 15 to 20)
#    0.000    0.571    4.286    3.429    4.000    1.143 
#    0.000    7.857    0.000    0.000    0.000    0.000 
#    0.000    0.000    0.000    0.000    0.000    0.000 
#
# Total GULP energy -156332.739789 kJ/mol
# GULP energy per Si atom -5583.312135 kJ/mol
# Density = 2.051328 g / cm^3
# Si number density = 20.560080 Si / 1000 Ang^3
#
#
#
# Elastic Constant Matrix: (Units=GPa)
#
#
# Indices 1 2 3 4 5 6 
#
# 1 104.2580 25.0567 32.7063 0.0000 20.0917 0.0000
# 2 25.0567 87.6828 48.6623 0.0000 8.2586 0.0000
# 3 32.7063 48.6623 151.5378 0.0000 14.4338 0.0000
# 4 0.0000 0.0000 0.0000 88.9261 0.0000 -42.3938
# 5 20.0917 8.2586 14.4338 0.0000 31.3006 0.0000
# 6 0.0000 0.0000 0.0000 -42.3938 0.0000 39.5683
#
#
#
# Elastic Compliance Matrix: (Units=1/GPa)
#
#
# Indices 1 2 3 4 5 6 
#
# 1 0.011711 -0.002044 -0.001262 0.000000 -0.006396 0.000000
# 2 -0.002044 0.014320 -0.004103 0.000000 -0.000574 0.000000
# 3 -0.001262 -0.004103 0.008376 0.000000 -0.001970 0.000000
# 4 0.000000 0.000000 0.000000 0.022986 0.000000 0.024627
# 5 -0.006396 -0.000574 -0.001970 0.000000 0.037114 0.000000
# 6 0.000000 0.000000 0.000000 0.024627 0.000000 0.051658
#
#
# Mechanical properties :
#
#
# Convention : Reuss Voigt Hill
#
# Bulk Modulus (GPa) = 51.04484 61.81436 56.42960
# Shear Modulus (GPa) = 29.84843 47.76256 38.80549
#
# Velocity S-wave (km/s) = 3.81434 4.82506 4.34916
# Velocity P-wave (km/s) = 6.65432 7.82126 7.26127
#
# Compressibility (1/GPa) = 0.01959062
#
# Stress axis : x y z
#
# Youngs Moduli (GPa) = 85.38734 69.83366 119.38170
#
# Poissons Ratio (x) = 0.14273 0.15067
# Poissons Ratio (y) = 0.17451 0.48977
# Poissons Ratio (z) = 0.10777 0.28650
#
# Static dielectric constant tensor:
#      x y z
#    x 1.689060 0.000000 -0.026350 
#    y 0.000000 1.815280 0.000000 
#    z -0.026350 0.000000 1.765270 
# 
# From -- ./inp_files/62035.got.cif
#   From: 2010.05.17/outbox.cif.g08.bks.cpg/sg15_32_cif.got.tgz:62035.got - 2010.06.03 18:47:42.
