data_PCOD9298510
_publ_section_title
;
Structure prediction by ZEFSAII (Michael W. Deem and Ramdas Pophale) SiO2 
 PCOD9298510
Probable space group: C 2/C
;
_chemical_formula_sum "Si O2"
_cell_formula_units_Z 44
_cell_length_a 17.685506
_cell_length_b 19.589580
_cell_length_c 5.375363
_cell_angle_alpha 90.000000
_cell_angle_beta 93.339586
_cell_angle_gamma 90.000000
_cell_volume 1859.140748
_symmetry_space_group_name_H-M "C 2/C"
_symmetry_group_IT_number 15
_symmetry_cell_setting 'monoclinic'
loop_
_space_group_symop_operation_xyz
x,y,z
-x,y,1/2-z
-x,-y,-z
x,-y,1/2+z
1/2+x,1/2+y,z
1/2-x,1/2+y,1/2-z
1/2-x,1/2-y,-z
1/2+x,1/2-y,1/2+z
loop_
_atom_site_type_symbol
_atom_site_label
_atom_site_fract_x
_atom_site_fract_y
_atom_site_fract_z
Si Si1 0.652584 0.830243 0.491994
Si Si2 0.787940 0.201617 0.714582
Si Si3 0.380535 0.540527 0.236059
Si Si4 0.058566 0.843929 0.469937
Si Si5 0.000000 0.283381 0.250000
Si Si6 0.800760 0.459108 0.753076
O O1 0.721601 0.844496 0.315121
O O2 0.673621 0.753780 0.583495
O O3 0.569947 0.827142 0.361321
O O4 0.660214 0.885641 0.708687
O O5 0.750000 0.250000 0.500000
O O6 0.857544 0.158298 0.630649
O O7 0.399955 0.494490 0.479971
O O8 0.424679 0.610749 0.284508
O O9 0.290048 0.550967 0.240269
O O10 0.032949 0.768372 0.547849
O O11 0.000000 0.868578 0.250000
O O12 0.820837 0.495657 0.499355
#
# Coordination Sequence:
#
# PCOD9298510 Si02
#       6
#     8   8   8   8   4   8
#     4  11  25  42  71 101 138 180 237 289 357 417
#     4  11  23  41  68 101 131 187 230 290 352 411
#     4  10  25  44  69 101 140 191 235 285 343 416
#     4  12  26  42  67  99 148 181 235 288 350 421
#     4  12  26  46  64 106 140 182 230 300 360 414
#     4  10  24  44  72 106 136 182 239 295 344 420
#
# _framework density 23.666847000000001
#
# number of rings (size 3 to 8) (size 9 to 14) (size 15 to 20)
#    0.000    1.091    3.636    1.091   15.273    0.727 
#    0.000    0.909    0.000    0.000    0.000    0.000 
#    0.000    0.000    0.000    0.000    0.000    0.000 
#
# Total GULP energy -123291.876906 kJ/mol
# GULP energy per Si atom -5604.176223 kJ/mol
# Density = 2.361298 g / cm^3
# Si number density = 23.666847 Si / 1000 Ang^3
#
#
#
# Elastic Constant Matrix: (Units=GPa)
#
#
# Indices 1 2 3 4 5 6 
#
# 1 114.5638 19.7262 38.4561 0.0000 21.7192 0.0000
# 2 19.7262 73.2413 33.0399 0.0000 15.4821 0.0000
# 3 38.4561 33.0399 125.9938 0.0000 20.7090 0.0000
# 4 0.0000 0.0000 0.0000 57.3934 0.0000 12.5239
# 5 21.7192 15.4821 20.7090 0.0000 30.0471 0.0000
# 6 0.0000 0.0000 0.0000 12.5239 0.0000 4.7363
#
#
#
# Elastic Compliance Matrix: (Units=1/GPa)
#
#
# Indices 1 2 3 4 5 6 
#
# 1 0.010674 -0.000673 -0.002109 0.000000 -0.005915 0.000000
# 2 -0.000673 0.016494 -0.003161 0.000000 -0.005834 0.000000
# 3 -0.002109 -0.003161 0.010027 0.000000 -0.003758 0.000000
# 4 0.000000 0.000000 0.000000 0.041190 0.000000 -0.108915
# 5 -0.005915 -0.005834 -0.003758 0.000000 0.043152 0.000000
# 6 0.000000 0.000000 0.000000 -0.108915 0.000000 0.499129
#
#
# Mechanical properties :
#
#
# Convention : Reuss Voigt Hill
#
# Bulk Modulus (GPa) = 39.51220 55.13813 47.32516
# Shear Modulus (GPa) = 7.80045 33.27383 20.53714
#
# Velocity S-wave (km/s) = 1.81744 3.75364 2.94897
# Velocity P-wave (km/s) = 4.59734 6.49111 5.62450
#
# Compressibility (1/GPa) = 0.02530864
#
# Stress axis : x y z
#
# Youngs Moduli (GPa) = 93.68505 60.62876 99.72852
#
# Poissons Ratio (x) = 0.04080 0.21035
# Poissons Ratio (y) = 0.06305 0.31524
# Poissons Ratio (z) = 0.19760 0.19165
#
# Static dielectric constant tensor:
#      x y z
#    x 1.949400 0.000000 -0.095510 
#    y 0.000000 1.886050 0.000000 
#    z -0.095510 0.000000 1.953950 
# 
# From -- ./inp_files/10267.got.cif
#   From: 2010.05.17/outbox.cif.g08.bks.cpg/sg15_6_cif.got.tgz:10267.got - 2010.06.03 18:47:42.
