data_PCOD9298521
_publ_section_title
;
Structure prediction by ZEFSAII (Michael W. Deem and Ramdas Pophale) SiO2 
 PCOD9298521
Probable space group: C 2/C
;
_chemical_formula_sum "Si O2"
_cell_formula_units_Z 36
_cell_length_a 23.830664
_cell_length_b 8.314256
_cell_length_c 20.304703
_cell_angle_alpha 90.000000
_cell_angle_beta 24.496837
_cell_angle_gamma 90.000000
_cell_volume 1668.132422
_symmetry_space_group_name_H-M "C 2/C"
_symmetry_group_IT_number 15
_symmetry_cell_setting 'monoclinic'
loop_
_space_group_symop_operation_xyz
x,y,z
-x,y,1/2-z
-x,-y,-z
x,-y,1/2+z
1/2+x,1/2+y,z
1/2-x,1/2+y,1/2-z
1/2-x,1/2-y,-z
1/2+x,1/2-y,1/2+z
loop_
_atom_site_type_symbol
_atom_site_label
_atom_site_fract_x
_atom_site_fract_y
_atom_site_fract_z
Si Si1 0.078895 0.130123 0.796856
Si Si2 0.250000 0.250000 0.500000
Si Si3 0.123003 0.067264 0.073102
Si Si4 0.537560 0.817903 0.976193
Si Si5 0.775897 0.819829 0.824033
O O1 0.130641 0.249522 0.685147
O O2 0.047248 0.218125 0.898596
O O3 0.199782 0.002891 0.680322
O O4 0.949177 0.032705 0.908838
O O5 0.297608 0.432575 0.470862
O O6 0.000000 0.129991 0.250000
O O7 0.212969 0.209348 0.948149
O O8 0.676667 0.811766 0.867751
O O9 0.420545 0.746491 0.147134
O O10 0.500000 0.000000 0.000000
#
# Coordination Sequence:
#
# PCOD9298521 Si02
#       5
#     8   4   8   8   8
#     4  11  25  47  69 103 144 182 241 296 353 428
#     4  10  24  44  72  94 140 184 230 294 348 424
#     4  10  24  47  69 105 139 187 239 298 356 422
#     4  12  27  43  75 106 142 188 238 293 366 428
#     4  12  25  47  73 105 141 189 234 303 353 432
#
# _framework density 21.581019999999999
#
# number of rings (size 3 to 8) (size 9 to 14) (size 15 to 20)
#    0.000    0.889    2.222    3.333    9.333    3.556 
#    8.000    0.000    0.000    0.000    0.000    0.000 
#    0.000    0.000    0.000    0.000    0.000    0.000 
#
# Total GULP energy -100249.337266 kJ/mol
# GULP energy per Si atom -5569.407626 kJ/mol
# Density = 2.153190 g / cm^3
# Si number density = 21.581020 Si / 1000 Ang^3
#
#
#
# Elastic Constant Matrix: (Units=GPa)
#
#
# Indices 1 2 3 4 5 6 
#
# 1 62.1789 31.8055 11.4081 -0.0003 13.1720 0.0001
# 2 31.8055 80.5532 56.7721 -0.0007 22.7489 0.0003
# 3 11.4081 56.7721 100.7026 -0.0003 18.7001 0.0002
# 4 -0.0003 -0.0007 -0.0003 41.2939 0.0002 26.0951
# 5 13.1720 22.7489 18.7001 0.0002 33.4823 -0.0001
# 6 0.0001 0.0003 0.0002 26.0951 -0.0001 5.9330
#
#
#
# Elastic Compliance Matrix: (Units=1/GPa)
#
#
# Indices 1 2 3 4 5 6 
#
# 1 0.021361 -0.010233 0.004037 0.000000 -0.003706 0.000000
# 2 -0.010233 0.027847 -0.013136 -0.000001 -0.007558 0.000001
# 3 0.004037 -0.013136 0.017312 0.000000 -0.002332 0.000000
# 4 0.000000 -0.000001 0.000000 -0.013609 0.000001 0.059857
# 5 -0.003706 -0.007558 -0.002332 0.000001 0.037761 -0.000002
# 6 0.000000 0.000001 0.000000 0.059857 -0.000002 -0.094720
#
#
# Mechanical properties :
#
#
# Convention : Reuss Voigt Hill
#
# Bulk Modulus (GPa) = 35.89949 49.26734 42.58341
# Shear Modulus (GPa) = 113.88959 25.70512 69.79736
#
# Velocity S-wave (km/s) = 7.27239 3.45497 5.69317
# Velocity P-wave (km/s) = 9.33743 6.22851 7.93669
#
# Compressibility (1/GPa) = 0.02785555
#
# Stress axis : x y z
#
# Youngs Moduli (GPa) = 46.81355 35.91023 57.76461
#
# Poissons Ratio (x) = 0.36747 -0.23321
# Poissons Ratio (y) = 0.47905 0.75882
# Poissons Ratio (z) = -0.18900 0.47173
#
# Static dielectric constant tensor:
#      x y z
#    x 1.829170 0.000000 -0.009120 
#    y 0.000000 1.795090 0.000000 
#    z -0.009120 0.000000 1.721570 
# 
# From -- ./inp_files/214187.got.cif
#   From: 2010.05.17/outbox.cif.g08.bks.cpg/sg15_108_cif.got.tgz:214187.got - 2010.06.03 18:47:42.
