data_PCOD9298483
_publ_section_title
;
Structure prediction by ZEFSAII (Michael W. Deem and Ramdas Pophale) SiO2 
 PCOD9298483
Probable space group: C 2/C
;
_chemical_formula_sum "Si O2"
_cell_formula_units_Z 32
_cell_length_a 13.254170
_cell_length_b 13.426821
_cell_length_c 9.447381
_cell_angle_alpha 90.000000
_cell_angle_beta 44.203115
_cell_angle_gamma 90.000000
_cell_volume 1172.187497
_symmetry_space_group_name_H-M "C 2/C"
_symmetry_group_IT_number 15
_symmetry_cell_setting 'monoclinic'
loop_
_space_group_symop_operation_xyz
x,y,z
-x,y,1/2-z
-x,-y,-z
x,-y,1/2+z
1/2+x,1/2+y,z
1/2-x,1/2+y,1/2-z
1/2-x,1/2-y,-z
1/2+x,1/2-y,1/2+z
loop_
_atom_site_type_symbol
_atom_site_label
_atom_site_fract_x
_atom_site_fract_y
_atom_site_fract_z
Si Si1 0.688134 0.052823 0.898806
Si Si2 0.056347 0.120635 0.041010
Si Si3 0.405437 0.837056 0.591923
Si Si4 0.635164 0.354859 0.029221
O O1 0.785606 0.084090 0.665651
O O2 0.781897 0.077186 0.941800
O O3 0.647019 0.936504 0.935939
O O4 0.946137 0.903671 0.523177
O O5 0.000000 0.087014 0.250000
O O6 0.055415 0.241629 0.039402
O O7 0.543277 0.880586 0.537083
O O8 0.270034 0.798744 0.823054
O O9 0.500000 0.308183 0.250000
#
# Coordination Sequence:
#
# PCOD9298483 Si02
#       4
#     8   8   8   8
#     4  10  25  46  73 110 153 199 250 310 378 450
#     4  11  26  47  75 109 150 198 252 310 375 447
#     4  11  24  43  73 110 152 197 249 311 379 449
#     4  10  24  44  71 104 146 193 248 304 369 442
#
# _framework density 27.299388
#
# number of rings (size 3 to 8) (size 9 to 14) (size 15 to 20)
#    0.000    1.500    0.000    2.250    0.000   26.000 
#    0.000    0.000    0.000   12.000    0.000    0.000 
#    0.000    0.000    0.000    0.000    0.000    0.000 
#
# Total GULP energy -89708.854664 kJ/mol
# GULP energy per Si atom -5606.803416 kJ/mol
# Density = 2.723725 g / cm^3
# Si number density = 27.299388 Si / 1000 Ang^3
#
#
#
# Elastic Constant Matrix: (Units=GPa)
#
#
# Indices 1 2 3 4 5 6 
#
# 1 158.2494 36.0740 78.9923 0.0000 -5.4226 0.0000
# 2 36.0740 143.1485 5.9503 0.0000 -6.0710 0.0000
# 3 78.9923 5.9503 154.0684 0.0000 2.0714 0.0000
# 4 0.0000 0.0000 0.0000 40.0726 0.0000 -12.2822
# 5 -5.4226 -6.0710 2.0714 0.0000 62.1758 0.0000
# 6 0.0000 0.0000 0.0000 -12.2822 0.0000 52.1440
#
#
#
# Elastic Compliance Matrix: (Units=1/GPa)
#
#
# Indices 1 2 3 4 5 6 
#
# 1 0.009115 -0.002074 -0.004603 0.000000 0.000746 0.000000
# 2 -0.002074 0.007499 0.000767 0.000000 0.000526 0.000000
# 3 -0.004603 0.000767 0.008830 0.000000 -0.000621 0.000000
# 4 0.000000 0.000000 0.000000 0.026896 0.000000 0.006335
# 5 0.000746 0.000526 -0.000621 0.000000 0.016221 0.000000
# 6 0.000000 0.000000 0.000000 0.006335 0.000000 0.020670
#
#
# Mechanical properties :
#
#
# Convention : Reuss Voigt Hill
#
# Bulk Modulus (GPa) = 73.40985 77.49992 75.45489
# Shear Modulus (GPa) = 47.35154 53.17511 50.26333
#
# Velocity S-wave (km/s) = 4.16928 4.41823 4.29556
# Velocity P-wave (km/s) = 7.07999 7.38094 7.23203
#
# Compressibility (1/GPa) = 0.01362215
#
# Stress axis : x y z
#
# Youngs Moduli (GPa) = 109.70453 133.35340 113.25540
#
# Poissons Ratio (x) = 0.27659 0.52137
# Poissons Ratio (y) = 0.22754 -0.08684
# Poissons Ratio (z) = 0.50502 -0.10225
#
# Static dielectric constant tensor:
#      x y z
#    x 2.071500 0.000000 0.004720 
#    y 0.000000 2.176600 0.000000 
#    z 0.004720 0.000000 2.111040 
# 
# From -- ./inp_files/112216.got.cif
#   From: 2010.05.17/outbox.cif.g08.bks.cpg/sg15_57_cif.got.tgz:112216.got - 2010.06.03 18:47:42.
