data_PCOD9298973
_publ_section_title
;
Structure prediction by ZEFSAII (Michael W. Deem and Ramdas Pophale) SiO2 
 PCOD9298973
Probable space group: C 2/C
;
_chemical_formula_sum "Si O2"
_cell_formula_units_Z 40
_cell_length_a 7.449144
_cell_length_b 12.281542
_cell_length_c 26.503347
_cell_angle_alpha 90.000000
_cell_angle_beta 39.531978
_cell_angle_gamma 90.000000
_cell_volume 1543.349870
_symmetry_space_group_name_H-M "C 2/C"
_symmetry_group_IT_number 15
_symmetry_cell_setting 'monoclinic'
loop_
_space_group_symop_operation_xyz
x,y,z
-x,y,1/2-z
-x,-y,-z
x,-y,1/2+z
1/2+x,1/2+y,z
1/2-x,1/2+y,1/2-z
1/2-x,1/2-y,-z
1/2+x,1/2-y,1/2+z
loop_
_atom_site_type_symbol
_atom_site_label
_atom_site_fract_x
_atom_site_fract_y
_atom_site_fract_z
Si Si1 0.197781 0.890493 0.658692
Si Si2 0.827485 0.980425 0.089183
Si Si3 0.347880 0.795340 0.869628
Si Si4 0.766105 0.579650 0.572293
Si Si5 0.091897 0.316224 0.288801
O O1 0.499520 0.852594 0.614942
O O2 0.000000 0.892511 0.750000
O O3 0.082080 0.787475 0.652867
O O4 0.161038 0.005437 0.640727
O O5 0.785909 0.097639 0.125053
O O6 0.524753 0.918639 0.154252
O O7 0.025277 0.908981 0.082599
O O8 0.000000 0.000000 0.000000
O O9 0.141573 0.699425 0.931437
O O10 0.589640 0.729534 0.786358
O O11 0.000000 0.500000 0.500000
O O12 0.000000 0.338745 0.250000
#
# Coordination Sequence:
#
# PCOD9298973 Si02
#       5
#     8   8   8   8   8
#     4   9  21  45  71  94 136 183 234 292 351 421
#     4  12  26  45  77 107 147 193 240 296 366 430
#     4  10  24  46  72 102 135 194 235 291 369 421
#     4  12  26  45  70 103 149 184 237 299 360 426
#     4   9  20  44  73  94 135 190 234 287 361 424
#
# _framework density 25.917648
#
# number of rings (size 3 to 8) (size 9 to 14) (size 15 to 20)
#    0.000    2.000    4.000    1.200    8.400    2.400 
#    3.600    1.000    0.000    0.000    0.000    0.000 
#    0.000    0.000    0.000    0.000    0.000    0.000 
#
# Total GULP energy -111734.294276 kJ/mol
# GULP energy per Si atom -5586.714714 kJ/mol
# Density = 2.585866 g / cm^3
# Si number density = 25.917648 Si / 1000 Ang^3
#
#
#
# Elastic Constant Matrix: (Units=GPa)
#
#
# Indices 1 2 3 4 5 6 
#
# 1 44.1264 5.7632 12.4377 -0.0044 14.3502 0.0007
# 2 5.7632 171.3278 42.5082 -0.0019 11.7331 -0.0006
# 3 12.4377 42.5082 107.0768 -0.0108 -5.5590 0.0024
# 4 -0.0044 -0.0019 -0.0108 43.6926 0.0067 -8.2000
# 5 14.3502 11.7331 -5.5590 0.0067 26.7535 -0.0017
# 6 0.0007 -0.0006 0.0024 -8.2000 -0.0017 29.4119
#
#
#
# Elastic Compliance Matrix: (Units=1/GPa)
#
#
# Indices 1 2 3 4 5 6 
#
# 1 0.029547 0.001421 -0.004904 0.000004 -0.017491 0.000000
# 2 0.001421 0.006866 -0.003120 0.000000 -0.004422 0.000000
# 3 -0.004904 -0.003120 0.011479 0.000001 0.006384 0.000000
# 4 0.000004 0.000000 0.000001 0.024151 -0.000008 0.006733
# 5 -0.017491 -0.004422 0.006384 -0.000008 0.050026 0.000000
# 6 0.000000 0.000000 0.000000 0.006733 0.000000 0.035877
#
#
# Mechanical properties :
#
#
# Convention : Reuss Voigt Hill
#
# Bulk Modulus (GPa) = 28.83144 49.32768 39.07956
# Shear Modulus (GPa) = 27.36516 37.42640 32.39578
#
# Velocity S-wave (km/s) = 3.25291 3.80419 3.53930
# Velocity P-wave (km/s) = 5.02563 6.19432 5.64033
#
# Compressibility (1/GPa) = 0.03468436
#
# Stress axis : x y z
#
# Youngs Moduli (GPa) = 33.84443 145.64642 87.11656
#
# Poissons Ratio (x) = -0.20691 0.42723
# Poissons Ratio (y) = -0.04808 0.27183
# Poissons Ratio (z) = 0.16598 0.45445
#
# Static dielectric constant tensor:
#      x y z
#    x 2.120720 -0.000020 -0.074590 
#    y -0.000020 2.654730 -0.000030 
#    z -0.074590 -0.000030 2.012890 
# 
# From -- ./inp_files/306997.got.cif
#   From: 2010.05.17/outbox.cif.g08.bks.cpg/sg15_154_cif.got.tgz:306997.got - 2010.06.03 18:47:42.
