data_PCOD9298470
_publ_section_title
;
Structure prediction by ZEFSAII (Michael W. Deem and Ramdas Pophale) SiO2 
 PCOD9298470
Probable space group: C 2/C
;
_chemical_formula_sum "Si O2"
_cell_formula_units_Z 48
_cell_length_a 11.643371
_cell_length_b 10.210569
_cell_length_c 17.265150
_cell_angle_alpha 90.000000
_cell_angle_beta 72.648135
_cell_angle_gamma 90.000000
_cell_volume 1959.164822
_symmetry_space_group_name_H-M "C 2/C"
_symmetry_group_IT_number 15
_symmetry_cell_setting 'monoclinic'
loop_
_space_group_symop_operation_xyz
x,y,z
-x,y,1/2-z
-x,-y,-z
x,-y,1/2+z
1/2+x,1/2+y,z
1/2-x,1/2+y,1/2-z
1/2-x,1/2-y,-z
1/2+x,1/2-y,1/2+z
loop_
_atom_site_type_symbol
_atom_site_label
_atom_site_fract_x
_atom_site_fract_y
_atom_site_fract_z
Si Si1 0.410426 0.063437 0.392800
Si Si2 0.500000 0.103521 0.750000
Si Si3 0.205434 0.189758 0.202174
Si Si4 0.250506 0.598366 0.472928
Si Si5 0.149544 0.929850 0.871153
Si Si6 0.500000 0.500000 0.500000
Si Si7 0.540282 0.320638 0.329682
O O1 0.512676 0.988520 0.322391
O O2 0.367196 0.982381 0.476029
O O3 0.287800 0.061758 0.365657
O O4 0.452881 0.213047 0.384342
O O5 0.388480 0.194610 0.794309
O O6 0.231131 0.103079 0.122449
O O7 0.328348 0.257271 0.204183
O O8 0.147937 0.110320 0.283367
O O9 0.250000 0.750000 0.500000
O O10 0.363602 0.530090 0.490366
O O11 0.063146 0.063201 0.888479
O O12 0.061005 0.857845 0.946495
O O13 0.500000 0.356314 0.250000
#
# Coordination Sequence:
#
# PCOD9298470 Si02
#       7
#     8   4   8   8   8   4   8
#     4  11  23  46  70  96 146 189 233 294 370 420
#     4  12  20  40  68 102 132 186 238 282 362 432
#     4  12  24  42  73 106 138 190 248 295 363 432
#     4  11  23  45  69 104 145 189 239 302 358 437
#     4  11  24  46  66 105 142 185 245 297 353 437
#     4  10  24  44  70  98 148 188 232 304 362 412
#     4  12  25  44  71 103 146 188 235 304 354 435
#
# _framework density 24.500235
#
# number of rings (size 3 to 8) (size 9 to 14) (size 15 to 20)
#    0.000    0.667    5.833    2.000    3.500    0.667 
#    0.000    5.000    0.000    0.000    0.000    0.000 
#    0.000    0.000    0.000    0.000    0.000    0.000 
#
# Total GULP energy -133832.315967 kJ/mol
# GULP energy per Si atom -5576.346499 kJ/mol
# Density = 2.444447 g / cm^3
# Si number density = 24.500235 Si / 1000 Ang^3
#
#
#
# Elastic Constant Matrix: (Units=GPa)
#
#
# Indices 1 2 3 4 5 6 
#
# 1 95.7157 30.6667 11.6873 0.0000 2.9352 0.0000
# 2 30.6667 82.5121 21.8870 0.0000 -3.8383 0.0000
# 3 11.6873 21.8870 142.4318 0.0000 -2.7971 0.0000
# 4 0.0000 0.0000 0.0000 35.5719 0.0000 -7.8980
# 5 2.9352 -3.8383 -2.7971 0.0000 41.5821 0.0000
# 6 0.0000 0.0000 0.0000 -7.8980 0.0000 21.6255
#
#
#
# Elastic Compliance Matrix: (Units=1/GPa)
#
#
# Indices 1 2 3 4 5 6 
#
# 1 0.011939 -0.004410 -0.000327 0.000000 -0.001272 0.000000
# 2 -0.004410 0.014308 -0.001807 0.000000 0.001510 0.000000
# 3 -0.000327 -0.001807 0.007332 0.000000 0.000349 0.000000
# 4 0.000000 0.000000 0.000000 0.030593 0.000000 0.011173
# 5 -0.001272 0.001510 0.000349 0.000000 0.024302 0.000000
# 6 0.000000 0.000000 0.000000 0.011173 0.000000 0.050322
#
#
# Mechanical properties :
#
#
# Convention : Reuss Voigt Hill
#
# Bulk Modulus (GPa) = 48.80024 49.90462 49.35243
# Shear Modulus (GPa) = 31.50298 36.85047 34.17673
#
# Velocity S-wave (km/s) = 3.58973 3.88246 3.73896
# Velocity P-wave (km/s) = 6.09451 6.36485 6.23114
#
# Compressibility (1/GPa) = 0.02049170
#
# Stress axis : x y z
#
# Youngs Moduli (GPa) = 83.75612 69.89077 136.38287
#
# Poissons Ratio (x) = 0.30821 0.04460
# Poissons Ratio (y) = 0.36935 0.24647
# Poissons Ratio (z) = 0.02739 0.12630
#
# Static dielectric constant tensor:
#      x y z
#    x 1.953610 0.000000 0.037710 
#    y 0.000000 2.085130 0.000000 
#    z 0.037710 0.000000 2.512900 
# 
# From -- ./inp_files/196553.got.cif
#   From: 2010.05.17/outbox.cif.g08.bks.cpg/sg15_99_cif.got.tgz:196553.got - 2010.06.03 18:47:42.
