data_PCOD9298165
_publ_section_title
;
Structure prediction by ZEFSAII (Michael W. Deem and Ramdas Pophale) SiO2 
 PCOD9298165
Probable space group: C 2/C
;
_chemical_formula_sum "Si O2"
_cell_formula_units_Z 28
_cell_length_a 15.517483
_cell_length_b 12.482750
_cell_length_c 6.947073
_cell_angle_alpha 90.000000
_cell_angle_beta 63.032155
_cell_angle_gamma 90.000000
_cell_volume 1199.329175
_symmetry_space_group_name_H-M "C 2/C"
_symmetry_group_IT_number 15
_symmetry_cell_setting 'monoclinic'
loop_
_space_group_symop_operation_xyz
x,y,z
-x,y,1/2-z
-x,-y,-z
x,-y,1/2+z
1/2+x,1/2+y,z
1/2-x,1/2+y,1/2-z
1/2-x,1/2-y,-z
1/2+x,1/2-y,1/2+z
loop_
_atom_site_type_symbol
_atom_site_label
_atom_site_fract_x
_atom_site_fract_y
_atom_site_fract_z
Si Si1 0.677094 0.152792 0.584293
Si Si2 0.590246 0.414430 0.012963
Si Si3 0.500000 0.281209 0.750000
Si Si4 0.266281 0.433913 0.335563
O O1 0.750000 0.250000 0.500000
O O2 0.580858 0.199604 0.590348
O O3 0.682500 0.125906 0.805689
O O4 0.717466 0.044979 0.450270
O O5 0.500000 0.428011 0.250000
O O6 0.679918 0.369778 0.049234
O O7 0.552240 0.349257 0.866238
O O8 0.642440 0.525080 0.889357
#
# Coordination Sequence:
#
# PCOD9298165 Si02
#       4
#     8   8   4   8
#     4  11  23  47  68 102 139 178 227 286 332 407
#     4  11  23  40  67 104 128 177 229 282 335 396
#     4  12  26  42  70  98 140 176 230 278 334 406
#     4  10  24  43  71  94 141 179 223 282 346 397
#
# _framework density 23.346388000000001
#
# number of rings (size 3 to 8) (size 9 to 14) (size 15 to 20)
#    0.000    1.143    2.857    2.571    6.000    2.286 
#   10.286    0.000    0.000    0.000    0.000    0.000 
#    0.000    0.000    0.000    0.000    0.000    0.000 
#
# Total GULP energy -78046.309977 kJ/mol
# GULP energy per Si atom -5574.736427 kJ/mol
# Density = 2.329325 g / cm^3
# Si number density = 23.346388 Si / 1000 Ang^3
#
#
#
# Elastic Constant Matrix: (Units=GPa)
#
#
# Indices 1 2 3 4 5 6 
#
# 1 93.4713 41.6290 12.3497 0.0000 15.6633 0.0000
# 2 41.6290 94.0289 9.2784 0.0000 12.0624 0.0000
# 3 12.3497 9.2784 54.9967 0.0000 7.5786 0.0000
# 4 0.0000 0.0000 0.0000 21.3052 0.0000 -5.8273
# 5 15.6633 12.0624 7.5786 0.0000 41.6002 0.0000
# 6 0.0000 0.0000 0.0000 -5.8273 0.0000 50.4447
#
#
#
# Elastic Compliance Matrix: (Units=1/GPa)
#
#
# Indices 1 2 3 4 5 6 
#
# 1 0.013974 -0.005589 -0.001737 0.000000 -0.003325 0.000000
# 2 -0.005589 0.013396 -0.000779 0.000000 -0.001638 0.000000
# 3 -0.001737 -0.000779 0.019062 0.000000 -0.002593 0.000000
# 4 0.000000 0.000000 0.000000 0.048468 0.000000 0.005599
# 5 -0.003325 -0.001638 -0.002593 0.000000 0.026237 0.000000
# 6 0.000000 0.000000 0.000000 0.005599 0.000000 0.020470
#
#
# Mechanical properties :
#
#
# Convention : Reuss Voigt Hill
#
# Bulk Modulus (GPa) = 33.08847 41.00124 37.04486
# Shear Modulus (GPa) = 29.78093 34.61934 32.20014
#
# Velocity S-wave (km/s) = 3.57545 3.85497 3.71783
# Velocity P-wave (km/s) = 5.59005 6.11675 5.85932
#
# Compressibility (1/GPa) = 0.03022201
#
# Stress axis : x y z
#
# Youngs Moduli (GPa) = 71.56067 74.64695 52.46120
#
# Poissons Ratio (x) = 0.41719 0.09112
# Poissons Ratio (y) = 0.39994 0.04089
# Poissons Ratio (z) = 0.12430 0.05818
#
# Static dielectric constant tensor:
#      x y z
#    x 1.843420 0.000000 0.066960 
#    y 0.000000 1.990920 0.000000 
#    z 0.066960 0.000000 2.051790 
# 
# From -- ./inp_files/36463.got.cif
#   From: 2010.05.17/outbox.cif.g08.bks.cpg/sg15_19_cif.got.tgz:36463.got - 2010.06.03 18:47:42.
