data_PCOD9298620
_publ_section_title
;
Structure prediction by ZEFSAII (Michael W. Deem and Ramdas Pophale) SiO2 
 PCOD9298620
Probable space group: C 2/C
;
_chemical_formula_sum "Si O2"
_cell_formula_units_Z 44
_cell_length_a 19.865273
_cell_length_b 7.873764
_cell_length_c 22.095185
_cell_angle_alpha 90.000000
_cell_angle_beta 150.272326
_cell_angle_gamma 90.000000
_cell_volume 1713.758241
_symmetry_space_group_name_H-M "C 2/C"
_symmetry_group_IT_number 15
_symmetry_cell_setting 'monoclinic'
loop_
_space_group_symop_operation_xyz
x,y,z
-x,y,1/2-z
-x,-y,-z
x,-y,1/2+z
1/2+x,1/2+y,z
1/2-x,1/2+y,1/2-z
1/2-x,1/2-y,-z
1/2+x,1/2-y,1/2+z
loop_
_atom_site_type_symbol
_atom_site_label
_atom_site_fract_x
_atom_site_fract_y
_atom_site_fract_z
Si Si1 0.000000 0.881181 0.750000
Si Si2 0.861119 0.785994 0.759769
Si Si3 0.754560 0.974273 0.403569
Si Si4 0.725016 0.937441 0.006764
Si Si5 0.959851 0.915221 0.405635
Si Si6 0.944741 0.444091 0.853949
O O1 0.976208 0.790055 0.796361
O O2 0.865054 0.994837 0.642469
O O3 0.736656 0.704450 0.625261
O O4 0.902795 0.635449 0.839001
O O5 0.854444 0.963615 0.788263
O O6 0.694992 0.951597 0.423295
O O7 0.899432 0.062229 0.521157
O O8 0.651173 0.080080 0.280677
O O9 0.600347 0.943314 0.954879
O O10 0.750000 0.750000 0.000000
O O11 0.920166 0.719024 0.376177
O O12 0.000000 0.000000 0.500000
#
# Coordination Sequence:
#
# PCOD9298620 Si02
#       6
#     4   8   8   8   8   8
#     4  12  24  38  72 106 146 190 222 294 372 436
#     4  10  25  43  66 101 140 177 231 283 354 418
#     4  10  24  45  66 103 140 182 234 281 355 425
#     4  12  23  37  71 105 144 180 223 285 362 426
#     4  12  26  48  70  98 141 190 242 291 347 416
#     4  10  25  44  68 101 139 180 230 291 352 418
#
# _framework density 25.674568000000001
#
# number of rings (size 3 to 8) (size 9 to 14) (size 15 to 20)
#    1.091    0.000    3.636    1.636    7.636    3.636 
#    0.000    0.000    0.000    0.000    0.000    0.000 
#    0.000    0.000    0.000    0.000    0.000    0.000 
#
# Total GULP energy -122988.901697 kJ/mol
# GULP energy per Si atom -5590.404623 kJ/mol
# Density = 2.561613 g / cm^3
# Si number density = 25.674568 Si / 1000 Ang^3
#
#
#
# Elastic Constant Matrix: (Units=GPa)
#
#
# Indices 1 2 3 4 5 6 
#
# 1 78.9586 37.2462 3.6869 0.0000 -5.7508 0.0000
# 2 37.2462 128.8568 34.9414 0.0000 -4.6986 0.0000
# 3 3.6869 34.9414 85.7543 0.0000 2.0866 0.0000
# 4 0.0000 0.0000 0.0000 39.1159 0.0000 -7.8224
# 5 -5.7508 -4.6986 2.0866 0.0000 43.1105 0.0000
# 6 0.0000 0.0000 0.0000 -7.8224 0.0000 35.7962
#
#
#
# Elastic Compliance Matrix: (Units=1/GPa)
#
#
# Indices 1 2 3 4 5 6 
#
# 1 0.014868 -0.004567 0.001187 0.000000 0.001428 0.000000
# 2 -0.004567 0.010182 -0.003969 0.000000 0.000693 0.000000
# 3 0.001187 -0.003969 0.013250 0.000000 -0.000916 0.000000
# 4 0.000000 0.000000 0.000000 0.026733 0.000000 0.005842
# 5 0.001428 0.000693 -0.000916 0.000000 0.023506 0.000000
# 6 0.000000 0.000000 0.000000 0.005842 0.000000 0.029213
#
#
# Mechanical properties :
#
#
# Convention : Reuss Voigt Hill
#
# Bulk Modulus (GPa) = 42.37165 49.47985 45.92575
# Shear Modulus (GPa) = 35.63311 38.11754 36.87533
#
# Velocity S-wave (km/s) = 3.72946 3.85729 3.79391
# Velocity P-wave (km/s) = 5.92321 6.25715 6.09247
#
# Compressibility (1/GPa) = 0.02360069
#
# Stress axis : x y z
#
# Youngs Moduli (GPa) = 67.25866 98.20881 75.47263
#
# Poissons Ratio (x) = 0.44856 -0.08959
# Poissons Ratio (y) = 0.30720 0.29958
# Poissons Ratio (z) = -0.07984 0.38983
#
# Static dielectric constant tensor:
#      x y z
#    x 2.141760 0.000000 -0.004910 
#    y 0.000000 2.176030 0.000000 
#    z -0.004910 0.000000 2.008320 
# 
# From -- ./inp_files/320138.got.cif
#   From: 2010.05.17/outbox.cif.g08.bks.cpg/sg15_161_cif.got.tgz:320138.got - 2010.06.03 18:47:42.
