data_PCOD9298859
_publ_section_title
;
Structure prediction by ZEFSAII (Michael W. Deem and Ramdas Pophale) SiO2 
 PCOD9298859
Probable space group: C 2/C
;
_chemical_formula_sum "Si O2"
_cell_formula_units_Z 40
_cell_length_a 32.782790
_cell_length_b 8.643339
_cell_length_c 19.538164
_cell_angle_alpha 90.000000
_cell_angle_beta 163.807827
_cell_angle_gamma 90.000000
_cell_volume 1543.822296
_symmetry_space_group_name_H-M "C 2/C"
_symmetry_group_IT_number 15
_symmetry_cell_setting 'monoclinic'
loop_
_space_group_symop_operation_xyz
x,y,z
-x,y,1/2-z
-x,-y,-z
x,-y,1/2+z
1/2+x,1/2+y,z
1/2-x,1/2+y,1/2-z
1/2-x,1/2-y,-z
1/2+x,1/2-y,1/2+z
loop_
_atom_site_type_symbol
_atom_site_label
_atom_site_fract_x
_atom_site_fract_y
_atom_site_fract_z
Si Si1 0.026093 0.454111 0.138610
Si Si2 0.500000 0.848398 0.250000
Si Si3 0.469013 0.598303 0.018484
Si Si4 0.696266 0.384884 0.460362
Si Si5 0.221208 0.901334 0.167710
Si Si6 0.000000 0.853123 0.250000
O O1 0.057104 0.424977 0.270660
O O2 0.993148 0.281898 0.055516
O O3 0.153719 0.518370 0.295645
O O4 0.112056 0.430253 0.081222
O O5 0.636825 0.745519 0.499778
O O6 0.584086 0.518128 0.255535
O O7 0.500000 0.500000 0.000000
O O8 0.312905 0.586675 0.806041
O O9 0.750000 0.250000 0.500000
O O10 0.591080 0.277992 0.338380
O O11 0.132667 0.042839 0.991926
#
# Coordination Sequence:
#
# PCOD9298859 Si02
#       6
#     8   4   8   8   8   4
#     4  11  24  45  78 109 142 204 242 300 386 435
#     4   9  22  45  74 112 161 183 248 318 353 451
#     4  10  24  46  67 109 147 182 251 303 363 454
#     4  11  26  46  70 105 144 194 248 305 374 442
#     4   9  21  43  73 105 142 193 235 303 376 424
#     4   9  22  47  64  98 151 181 230 316 357 435
#
# _framework density 25.909718000000002
#
# number of rings (size 3 to 8) (size 9 to 14) (size 15 to 20)
#    0.000    2.000    0.000    1.800    5.600    8.000 
#    7.200    0.000    0.000    0.000    0.000    0.000 
#    0.000    0.000    0.000    0.000    0.000    0.000 
#
# Total GULP energy -111483.331889 kJ/mol
# GULP energy per Si atom -5574.166594 kJ/mol
# Density = 2.585075 g / cm^3
# Si number density = 25.909718 Si / 1000 Ang^3
#
#
#
# Elastic Constant Matrix: (Units=GPa)
#
#
# Indices 1 2 3 4 5 6 
#
# 1 134.9098 22.6321 68.5197 0.0000 25.8979 0.0000
# 2 22.6321 118.5872 35.2086 0.0000 5.8604 0.0000
# 3 68.5197 35.2086 163.7771 0.0000 46.3196 0.0000
# 4 0.0000 0.0000 0.0000 30.0572 0.0000 -5.3273
# 5 25.8979 5.8604 46.3196 0.0000 51.8649 0.0000
# 6 0.0000 0.0000 0.0000 -5.3273 0.0000 28.4249
#
#
#
# Elastic Compliance Matrix: (Units=1/GPa)
#
#
# Indices 1 2 3 4 5 6 
#
# 1 0.009571 -0.000744 -0.003367 0.000000 -0.001688 0.000000
# 2 -0.000744 0.009101 -0.001953 0.000000 0.001087 0.000000
# 3 -0.003367 -0.001953 0.009896 0.000000 -0.006936 0.000000
# 4 0.000000 0.000000 0.000000 0.034413 0.000000 0.006450
# 5 -0.001688 0.001087 -0.006936 0.000000 0.026195 0.000000
# 6 0.000000 0.000000 0.000000 0.006450 0.000000 0.036389
#
#
# Mechanical properties :
#
#
# Convention : Reuss Voigt Hill
#
# Bulk Modulus (GPa) = 60.82311 74.44388 67.63350
# Shear Modulus (GPa) = 34.92288 41.46363 38.19326
#
# Velocity S-wave (km/s) = 3.67532 4.00473 3.84355
# Velocity P-wave (km/s) = 6.44489 7.08366 6.77181
#
# Compressibility (1/GPa) = 0.01644112
#
# Stress axis : x y z
#
# Youngs Moduli (GPa) = 104.47940 109.88307 101.05098
#
# Poissons Ratio (x) = 0.08170 0.34024
# Poissons Ratio (y) = 0.07769 0.19733
# Poissons Ratio (z) = 0.35179 0.21458
#
# Static dielectric constant tensor:
#      x y z
#    x 2.087060 0.000000 -0.227830 
#    y 0.000000 2.148710 0.000000 
#    z -0.227830 0.000000 1.975210 
# 
# From -- ./inp_files/247703.got.cif
#   From: 2010.05.17/outbox.cif.g08.bks.cpg/sg15_124_cif.got.tgz:247703.got - 2010.06.03 18:47:42.
