data_PCOD9298192
_publ_section_title
;
Structure prediction by ZEFSAII (Michael W. Deem and Ramdas Pophale) SiO2 
 PCOD9298192
Probable space group: C 2/C
;
_chemical_formula_sum "Si O2"
_cell_formula_units_Z 24
_cell_length_a 18.541706
_cell_length_b 4.911335
_cell_length_c 9.461582
_cell_angle_alpha 90.000000
_cell_angle_beta 78.947882
_cell_angle_gamma 90.000000
_cell_volume 845.634332
_symmetry_space_group_name_H-M "C 2/C"
_symmetry_group_IT_number 15
_symmetry_cell_setting 'monoclinic'
loop_
_space_group_symop_operation_xyz
x,y,z
-x,y,1/2-z
-x,-y,-z
x,-y,1/2+z
1/2+x,1/2+y,z
1/2-x,1/2+y,1/2-z
1/2-x,1/2-y,-z
1/2+x,1/2-y,1/2+z
loop_
_atom_site_type_symbol
_atom_site_label
_atom_site_fract_x
_atom_site_fract_y
_atom_site_fract_z
Si Si1 0.817690 0.593868 0.544058
Si Si2 0.620900 0.621413 0.830032
Si Si3 0.066103 0.247835 0.126295
O O1 0.750000 0.750000 0.500000
O O2 0.813189 0.330177 0.652023
O O3 0.865283 0.451714 0.402814
O O4 0.858051 0.826441 0.616412
O O5 0.592867 0.534340 0.687426
O O6 0.555709 0.721318 0.960798
O O7 0.000000 0.339675 0.250000
#
# Coordination Sequence:
#
# PCOD9298192 Si02
#       3
#     8   8   8
#     4  10  24  45  71 103 156 203 252 302 377 457
#     4  10  24  43  73 107 152 196 252 314 377 456
#     4  10  24  44  76 114 153 197 251 314 389 452
#
# _framework density 28.381062
#
# number of rings (size 3 to 8) (size 9 to 14) (size 15 to 20)
#    2.000    0.000    0.000    2.000    4.667    2.667 
#    6.000    0.000    0.000    0.000    0.000    0.000 
#    0.000    0.333    0.000    0.000    0.000    0.000 
#
# Total GULP energy -66976.147214 kJ/mol
# GULP energy per Si atom -5581.345601 kJ/mol
# Density = 2.831647 g / cm^3
# Si number density = 28.381062 Si / 1000 Ang^3
#
#
#
# Elastic Constant Matrix: (Units=GPa)
#
#
# Indices 1 2 3 4 5 6 
#
# 1 92.1885 43.5898 35.3512 0.0000 -2.2655 0.0000
# 2 43.5898 185.0680 55.2454 0.0000 5.2789 0.0000
# 3 35.3512 55.2454 114.0108 0.0000 11.1707 0.0000
# 4 0.0000 0.0000 0.0000 53.1215 0.0000 4.3284
# 5 -2.2655 5.2789 11.1707 0.0000 48.4273 0.0000
# 6 0.0000 0.0000 0.0000 4.3284 0.0000 56.9493
#
#
#
# Elastic Compliance Matrix: (Units=1/GPa)
#
#
# Indices 1 2 3 4 5 6 
#
# 1 0.013138 -0.002195 -0.003165 0.000000 0.001584 0.000000
# 2 -0.002195 0.006684 -0.002534 0.000000 -0.000247 0.000000
# 3 -0.003165 -0.002534 0.011222 0.000000 -0.002460 0.000000
# 4 0.000000 0.000000 0.000000 0.018942 0.000000 -0.001440
# 5 0.001584 -0.000247 -0.002460 0.000000 0.021318 0.000000
# 6 0.000000 0.000000 0.000000 -0.001440 0.000000 0.017669
#
#
# Mechanical properties :
#
#
# Convention : Reuss Voigt Hill
#
# Bulk Modulus (GPa) = 65.55238 73.29334 69.42286
# Shear Modulus (GPa) = 45.51853 48.83833 47.17843
#
# Velocity S-wave (km/s) = 4.00913 4.15276 4.08158
# Velocity P-wave (km/s) = 6.67669 6.99104 6.83568
#
# Compressibility (1/GPa) = 0.01525498
#
# Stress axis : x y z
#
# Youngs Moduli (GPa) = 76.11633 149.61482 89.11423
#
# Poissons Ratio (x) = 0.32835 0.28208
# Poissons Ratio (y) = 0.16705 0.22582
# Poissons Ratio (z) = 0.24094 0.37913
#
# Static dielectric constant tensor:
#      x y z
#    x 2.297720 0.000000 0.013630 
#    y 0.000000 2.204130 0.000000 
#    z 0.013630 0.000000 2.525750 
# 
# From -- ./inp_files/108774.got.cif
#   From: 2010.05.17/outbox.cif.g08.bks.cpg/sg15_55_cif.got.tgz:108774.got - 2010.06.03 18:47:42.
