data_PCOD9298405
_publ_section_title
;
Structure prediction by ZEFSAII (Michael W. Deem and Ramdas Pophale) SiO2 
 PCOD9298405
Probable space group: C 2/C
;
_chemical_formula_sum "Si O2"
_cell_formula_units_Z 48
_cell_length_a 10.375986
_cell_length_b 9.720913
_cell_length_c 18.650184
_cell_angle_alpha 90.000000
_cell_angle_beta 75.025819
_cell_angle_gamma 90.000000
_cell_volume 1817.254379
_symmetry_space_group_name_H-M "C 2/C"
_symmetry_group_IT_number 15
_symmetry_cell_setting 'monoclinic'
loop_
_space_group_symop_operation_xyz
x,y,z
-x,y,1/2-z
-x,-y,-z
x,-y,1/2+z
1/2+x,1/2+y,z
1/2-x,1/2+y,1/2-z
1/2-x,1/2-y,-z
1/2+x,1/2-y,1/2+z
loop_
_atom_site_type_symbol
_atom_site_label
_atom_site_fract_x
_atom_site_fract_y
_atom_site_fract_z
Si Si1 0.372785 0.109210 0.214564
Si Si2 0.339285 0.569983 0.782552
Si Si3 0.918667 0.628765 0.041880
Si Si4 0.357385 0.240161 0.730371
Si Si5 0.578686 0.644945 0.435220
Si Si6 0.333867 0.473984 0.445314
O O1 0.500000 0.103249 0.250000
O O2 0.319535 0.272175 0.245892
O O3 0.427348 0.130963 0.125980
O O4 0.330545 0.935800 0.226301
O O5 0.500000 0.559415 0.750000
O O6 0.307709 0.396488 0.774445
O O7 0.314234 0.596494 0.871812
O O8 0.764658 0.603508 0.044241
O O9 0.000000 0.500000 0.000000
O O10 0.983035 0.756917 0.994095
O O11 0.500000 0.230119 0.750000
O O12 0.382564 0.288933 0.644758
O O13 0.488669 0.514833 0.426511
O O14 0.692524 0.602778 0.475643
#
# Coordination Sequence:
#
# PCOD9298405 Si02
#       6
#     8   8   8   8   8   8
#     4  11  25  45  70 106 142 192 238 300 365 438
#     4  11  24  45  70 100 143 183 244 297 361 441
#     4  11  25  44  70 106 148 184 247 300 363 444
#     4  12  26  45  70 103 141 189 237 301 370 432
#     4  11  24  45  73 100 145 186 241 303 364 440
#     4  10  24  44  69 105 135 195 234 300 371 429
#
# _framework density 26.413471000000001
#
# number of rings (size 3 to 8) (size 9 to 14) (size 15 to 20)
#    0.000    1.000    0.000    7.000    7.000    1.333 
#    3.000    0.000    0.000    0.000    0.000    0.000 
#    0.000    0.000    0.000    0.000    0.000    0.000 
#
# Total GULP energy -134155.986541 kJ/mol
# GULP energy per Si atom -5589.832773 kJ/mol
# Density = 2.635335 g / cm^3
# Si number density = 26.413471 Si / 1000 Ang^3
#
#
#
# Elastic Constant Matrix: (Units=GPa)
#
#
# Indices 1 2 3 4 5 6 
#
# 1 160.0268 62.3326 89.5033 0.0000 38.5861 0.0000
# 2 62.3326 144.3718 53.7657 0.0000 13.2754 0.0000
# 3 89.5033 53.7657 207.8931 0.0000 21.2502 0.0000
# 4 0.0000 0.0000 0.0000 45.7494 0.0000 9.4904
# 5 38.5861 13.2754 21.2502 0.0000 50.3190 0.0000
# 6 0.0000 0.0000 0.0000 9.4904 0.0000 64.1195
#
#
#
# Elastic Compliance Matrix: (Units=1/GPa)
#
#
# Indices 1 2 3 4 5 6 
#
# 1 0.010602 -0.002825 -0.003218 0.000000 -0.006026 0.000000
# 2 -0.002825 0.008492 -0.001016 0.000000 0.000355 0.000000
# 3 -0.003218 -0.001016 0.006458 0.000000 0.000009 0.000000
# 4 0.000000 0.000000 0.000000 0.022551 0.000000 -0.003338
# 5 -0.006026 0.000355 0.000009 0.000000 0.024397 0.000000
# 6 0.000000 0.000000 0.000000 -0.003338 0.000000 0.016090
#
#
# Mechanical properties :
#
#
# Convention : Reuss Voigt Hill
#
# Bulk Modulus (GPa) = 87.46426 102.61056 95.03741
# Shear Modulus (GPa) = 46.94033 52.48357 49.71195
#
# Velocity S-wave (km/s) = 4.22018 4.46241 4.34299
# Velocity P-wave (km/s) = 7.54533 8.09216 7.82352
#
# Compressibility (1/GPa) = 0.01143324
#
# Stress axis : x y z
#
# Youngs Moduli (GPa) = 94.32152 117.75681 154.85830
#
# Poissons Ratio (x) = 0.33266 0.49832
# Poissons Ratio (y) = 0.26645 0.15738
# Poissons Ratio (z) = 0.30352 0.11968
#
# Static dielectric constant tensor:
#      x y z
#    x 2.170280 0.000000 -0.010240 
#    y 0.000000 2.517210 0.000000 
#    z -0.010240 0.000000 1.942500 
# 
# From -- ./inp_files/196467.got.cif
#   From: 2010.05.17/outbox.cif.g08.bks.cpg/sg15_99_cif.got.tgz:196467.got - 2010.06.03 18:47:42.
