data_PCOD9298154
_publ_section_title
;
Structure prediction by ZEFSAII (Michael W. Deem and Ramdas Pophale) SiO2 
 PCOD9298154
Probable space group: C 2/C
;
_chemical_formula_sum "Si O2"
_cell_formula_units_Z 64
_cell_length_a 28.935933
_cell_length_b 16.481056
_cell_length_c 8.653952
_cell_angle_alpha 90.000000
_cell_angle_beta 139.407819
_cell_angle_gamma 90.000000
_cell_volume 2685.333243
_symmetry_space_group_name_H-M "C 2/C"
_symmetry_group_IT_number 15
_symmetry_cell_setting 'monoclinic'
loop_
_space_group_symop_operation_xyz
x,y,z
-x,y,1/2-z
-x,-y,-z
x,-y,1/2+z
1/2+x,1/2+y,z
1/2-x,1/2+y,1/2-z
1/2-x,1/2-y,-z
1/2+x,1/2-y,1/2+z
loop_
_atom_site_type_symbol
_atom_site_label
_atom_site_fract_x
_atom_site_fract_y
_atom_site_fract_z
Si Si1 0.822053 0.378265 0.616892
Si Si2 0.402419 0.534948 0.103950
Si Si3 0.714769 0.262105 0.668343
Si Si4 0.923450 0.357962 0.122453
Si Si5 0.446735 0.614441 0.497589
Si Si6 0.857869 0.267283 0.220250
Si Si7 0.185036 0.077899 0.898065
Si Si8 0.946594 0.538034 0.239282
O O1 0.771761 0.312179 0.409933
O O2 0.765060 0.440546 0.542984
O O3 0.883401 0.414939 0.663721
O O4 0.862725 0.328275 0.853470
O O5 0.426957 0.457379 0.066095
O O6 0.365762 0.589339 0.879779
O O7 0.462306 0.575761 0.366763
O O8 0.345391 0.496602 0.078297
O O9 0.656413 0.223377 0.635690
O O10 0.688565 0.342528 0.515120
O O11 0.783523 0.281409 0.944672
O O12 0.911975 0.323770 0.263997
O O13 0.914671 0.455254 0.087180
O O14 0.000000 0.336427 0.250000
O O15 0.384685 0.674898 0.286859
O O16 0.500000 0.662209 0.750000
O O17 0.000000 0.578284 0.250000
O O18 0.000000 0.500000 0.500000
#
# Coordination Sequence:
#
# PCOD9298154 Si02
#       8
#     8   8   8   8   8   8   8   8
#     4  12  25  40  71  97 136 184 232 279 352 413
#     4  10  24  43  70  99 144 174 233 296 351 420
#     4  11  25  44  70  99 141 183 226 294 349 422
#     4  11  25  45  66 101 141 183 234 286 339 415
#     4  11  23  45  69 100 134 183 231 287 352 424
#     4  11  25  46  68 101 140 178 233 287 351 415
#     4  11  23  44  67 106 139 183 235 290 359 421
#     4  11  24  46  65  97 141 182 230 286 336 408
#
# _framework density 23.833169000000002
#
# number of rings (size 3 to 8) (size 9 to 14) (size 15 to 20)
#    0.000    1.000    5.000    1.500    5.250    1.000 
#    2.250    0.625    0.000    0.000    0.000    0.000 
#    0.000    0.000    0.000    0.000    0.000    0.000 
#
# Total GULP energy -178521.316471 kJ/mol
# GULP energy per Si atom -5578.791140 kJ/mol
# Density = 2.377892 g / cm^3
# Si number density = 23.833169 Si / 1000 Ang^3
#
#
#
# Elastic Constant Matrix: (Units=GPa)
#
#
# Indices 1 2 3 4 5 6 
#
# 1 154.7952 33.0349 33.1807 0.0000 -4.1736 0.0000
# 2 33.0349 57.8070 23.4819 0.0000 -9.9723 0.0000
# 3 33.1807 23.4819 106.0760 0.0000 -24.6123 0.0000
# 4 0.0000 0.0000 0.0000 40.0819 0.0000 -7.5556
# 5 -4.1736 -9.9723 -24.6123 0.0000 34.8684 0.0000
# 6 0.0000 0.0000 0.0000 -7.5556 0.0000 34.8107
#
#
#
# Elastic Compliance Matrix: (Units=1/GPa)
#
#
# Indices 1 2 3 4 5 6 
#
# 1 0.007649 -0.003866 -0.001891 0.000000 -0.001525 0.000000
# 2 -0.003866 0.021220 -0.002616 0.000000 0.003760 0.000000
# 3 -0.001891 -0.002616 0.012403 0.000000 0.007780 0.000000
# 4 0.000000 0.000000 0.000000 0.026013 0.000000 0.005646
# 5 -0.001525 0.003760 0.007780 0.000000 0.035064 0.000000
# 6 0.000000 0.000000 0.000000 0.005646 0.000000 0.029952
#
#
# Mechanical properties :
#
#
# Convention : Reuss Voigt Hill
#
# Bulk Modulus (GPa) = 40.77212 55.34147 48.05680
# Shear Modulus (GPa) = 31.80217 37.21758 34.50987
#
# Velocity S-wave (km/s) = 3.65686 3.95598 3.80936
# Velocity P-wave (km/s) = 5.91393 6.64358 6.28935
#
# Compressibility (1/GPa) = 0.02452657
#
# Stress axis : x y z
#
# Youngs Moduli (GPa) = 130.72859 47.12637 80.62684
#
# Poissons Ratio (x) = 0.18221 0.15243
# Poissons Ratio (y) = 0.50546 0.21088
# Poissons Ratio (z) = 0.24716 0.12326
#
# Static dielectric constant tensor:
#      x y z
#    x 2.031450 0.000000 -0.043190 
#    y 0.000000 2.002300 0.000000 
#    z -0.043190 0.000000 2.132340 
# 
# From -- ./inp_files/70633.got.cif
#   From: 2010.05.17/outbox.cif.g08.bks.cpg/sg15_36_cif.got.tgz:70633.got - 2010.06.03 18:47:42.
