data_PCOD9298128
_publ_section_title
;
Structure prediction by ZEFSAII (Michael W. Deem and Ramdas Pophale) SiO2 
 PCOD9298128
Probable space group: C 2/C
;
_chemical_formula_sum "Si O2"
_cell_formula_units_Z 32
_cell_length_a 16.412483
_cell_length_b 7.593556
_cell_length_c 11.516476
_cell_angle_alpha 90.000000
_cell_angle_beta 69.368317
_cell_angle_gamma 90.000000
_cell_volume 1343.235697
_symmetry_space_group_name_H-M "C 2/C"
_symmetry_group_IT_number 15
_symmetry_cell_setting 'monoclinic'
loop_
_space_group_symop_operation_xyz
x,y,z
-x,y,1/2-z
-x,-y,-z
x,-y,1/2+z
1/2+x,1/2+y,z
1/2-x,1/2+y,1/2-z
1/2-x,1/2-y,-z
1/2+x,1/2-y,1/2+z
loop_
_atom_site_type_symbol
_atom_site_label
_atom_site_fract_x
_atom_site_fract_y
_atom_site_fract_z
Si Si1 0.114820 0.858104 0.008857
Si Si2 0.973061 0.763250 0.897176
Si Si3 0.712089 0.728662 0.670620
Si Si4 0.304183 0.140969 0.067819
O O1 0.131411 0.761021 0.123030
O O2 0.073824 0.046940 0.059664
O O3 0.211521 0.863263 0.904390
O O4 0.054059 0.766006 0.944170
O O5 0.000000 0.746992 0.750000
O O6 0.900613 0.621803 0.968494
O O7 0.687371 0.756061 0.815010
O O8 0.755254 0.538503 0.624899
O O9 0.250000 0.250000 0.000000
#
# Coordination Sequence:
#
# PCOD9298128 Si02
#       4
#     8   8   8   8
#     4  10  24  43  69  98 132 176 227 276 334 408
#     4  11  24  43  68 101 135 179 222 275 343 404
#     4  11  25  45  70 101 132 179 231 278 342 394
#     4  12  25  43  72  99 138 177 228 284 333 405
#
# _framework density 23.823070999999999
#
# number of rings (size 3 to 8) (size 9 to 14) (size 15 to 20)
#    0.000    1.000    2.500    3.000   10.500    1.000 
#    0.000    1.250    0.000    0.000    0.000    0.000 
#    0.000    0.000    0.000    0.000    0.000    0.000 
#
# Total GULP energy -89625.726286 kJ/mol
# GULP energy per Si atom -5601.607893 kJ/mol
# Density = 2.376885 g / cm^3
# Si number density = 23.823071 Si / 1000 Ang^3
#
#
#
# Elastic Constant Matrix: (Units=GPa)
#
#
# Indices 1 2 3 4 5 6 
#
# 1 169.6686 34.9774 74.3249 0.0000 44.1635 0.0000
# 2 34.9774 101.1898 57.6697 0.0000 11.0987 0.0000
# 3 74.3249 57.6697 221.4167 0.0000 37.0281 0.0000
# 4 0.0000 0.0000 0.0000 30.2976 0.0000 -0.8643
# 5 44.1635 11.0987 37.0281 0.0000 43.6842 0.0000
# 6 0.0000 0.0000 0.0000 -0.8643 0.0000 29.9573
#
#
#
# Elastic Compliance Matrix: (Units=1/GPa)
#
#
# Indices 1 2 3 4 5 6 
#
# 1 0.008661 -0.001447 -0.001314 0.000000 -0.007275 0.000000
# 2 -0.001447 0.011854 -0.002730 0.000000 0.000765 0.000000
# 3 -0.001314 -0.002730 0.006211 0.000000 -0.003242 0.000000
# 4 0.000000 0.000000 0.000000 0.033033 0.000000 0.000953
# 5 -0.007275 0.000765 -0.003242 0.000000 0.032801 0.000000
# 6 0.000000 0.000000 0.000000 0.000953 0.000000 0.033408
#
#
# Mechanical properties :
#
#
# Convention : Reuss Voigt Hill
#
# Bulk Modulus (GPa) = 63.51259 91.80211 77.65735
# Shear Modulus (GPa) = 35.16217 42.47470 38.81844
#
# Velocity S-wave (km/s) = 3.84601 4.22705 4.04102
# Velocity P-wave (km/s) = 6.81471 7.90206 7.37844
#
# Compressibility (1/GPa) = 0.01574491
#
# Stress axis : x y z
#
# Youngs Moduli (GPa) = 115.45508 84.35638 161.01359
#
# Poissons Ratio (x) = 0.12208 0.21155
# Poissons Ratio (y) = 0.16708 0.43953
# Poissons Ratio (z) = 0.15170 0.23027
#
# Static dielectric constant tensor:
#      x y z
#    x 1.919140 0.000000 0.005250 
#    y 0.000000 1.975410 0.000000 
#    z 0.005250 0.000000 1.865890 
# 
# From -- ./inp_files/93441.got.cif
#   From: 2010.05.17/outbox.cif.g08.bks.cpg/sg15_47_cif.got.tgz:93441.got - 2010.06.03 18:47:42.
