data_PCOD9298729
_publ_section_title
;
Structure prediction by ZEFSAII (Michael W. Deem and Ramdas Pophale) SiO2 
 PCOD9298729
Probable space group: C 2/C
;
_chemical_formula_sum "Si O2"
_cell_formula_units_Z 48
_cell_length_a 15.801513
_cell_length_b 10.043990
_cell_length_c 25.344621
_cell_angle_alpha 90.000000
_cell_angle_beta 150.523187
_cell_angle_gamma 90.000000
_cell_volume 1979.332600
_symmetry_space_group_name_H-M "C 2/C"
_symmetry_group_IT_number 15
_symmetry_cell_setting 'monoclinic'
loop_
_space_group_symop_operation_xyz
x,y,z
-x,y,1/2-z
-x,-y,-z
x,-y,1/2+z
1/2+x,1/2+y,z
1/2-x,1/2+y,1/2-z
1/2-x,1/2-y,-z
1/2+x,1/2-y,1/2+z
loop_
_atom_site_type_symbol
_atom_site_label
_atom_site_fract_x
_atom_site_fract_y
_atom_site_fract_z
Si Si1 0.587021 0.722905 0.448002
Si Si2 0.344522 0.095013 0.880710
Si Si3 0.753491 0.830458 0.705331
Si Si4 0.772112 0.189500 0.425301
Si Si5 0.797136 0.413172 0.154443
Si Si6 0.514425 0.279876 0.151454
O O1 0.750000 0.750000 0.500000
O O2 0.493418 0.852260 0.422634
O O3 0.439945 0.652557 0.333021
O O4 0.667102 0.639815 0.539232
O O5 0.343340 0.184830 0.932126
O O6 0.166260 0.129835 0.754679
O O7 0.685764 0.061294 0.126723
O O8 0.759440 0.682522 0.683365
O O9 0.614110 0.838999 0.676241
O O10 0.599149 0.230675 0.361717
O O11 0.896921 0.155762 0.542086
O O12 0.742553 0.070269 0.368038
O O13 0.000000 0.395823 0.250000
#
# Coordination Sequence:
#
# PCOD9298729 Si02
#       6
#     8   8   8   8   8   8
#     4  11  25  46  72 110 145 196 241 299 362 438
#     4  11  25  46  73 107 148 185 244 302 364 427
#     4  11  26  47  75 107 145 187 243 301 363 428
#     4  11  25  46  74 105 146 190 244 297 370 429
#     4  12  25  44  74 106 144 189 243 298 359 433
#     4  10  24  45  71 104 142 195 238 298 358 440
#
# _framework density 24.250598
#
# number of rings (size 3 to 8) (size 9 to 14) (size 15 to 20)
#    0.000    1.000    1.667    3.500    2.333   12.000 
#    3.000    0.000    0.000    0.000    0.000    0.000 
#    0.000    0.000    0.000    0.000    0.000    0.000 
#
# Total GULP energy -134262.763730 kJ/mol
# GULP energy per Si atom -5594.281822 kJ/mol
# Density = 2.419540 g / cm^3
# Si number density = 24.250598 Si / 1000 Ang^3
#
#
#
# Elastic Constant Matrix: (Units=GPa)
#
#
# Indices 1 2 3 4 5 6 
#
# 1 124.1615 35.3208 60.2077 -0.0001 17.8734 0.0000
# 2 35.3208 107.2171 69.8929 0.0000 -1.9422 0.0000
# 3 60.2077 69.8929 135.0518 0.0008 7.0539 0.0000
# 4 -0.0001 0.0000 0.0008 33.3689 0.0001 -10.9702
# 5 17.8734 -1.9422 7.0539 0.0001 54.4774 0.0000
# 6 0.0000 0.0000 0.0000 -10.9702 0.0000 16.5842
#
#
#
# Elastic Compliance Matrix: (Units=1/GPa)
#
#
# Indices 1 2 3 4 5 6 
#
# 1 0.010770 -0.000869 -0.004194 0.000000 -0.003021 0.000000
# 2 -0.000869 0.014261 -0.007082 0.000000 0.001711 0.000000
# 3 -0.004194 -0.007082 0.012969 0.000000 -0.000556 0.000000
# 4 0.000000 0.000000 0.000000 0.038296 0.000000 0.025332
# 5 -0.003021 0.001711 -0.000556 0.000000 0.019480 0.000000
# 6 0.000000 0.000000 0.000000 0.025332 0.000000 0.077055
#
#
# Mechanical properties :
#
#
# Convention : Reuss Voigt Hill
#
# Bulk Modulus (GPa) = 72.94371 77.47478 75.20924
# Shear Modulus (GPa) = 24.79039 34.28671 29.53855
#
# Velocity S-wave (km/s) = 3.20075 3.76420 3.49385
# Velocity P-wave (km/s) = 6.61847 7.13507 6.88162
#
# Compressibility (1/GPa) = 0.01370920
#
# Stress axis : x y z
#
# Youngs Moduli (GPa) = 92.85248 70.12139 77.10897
#
# Poissons Ratio (x) = 0.06092 0.32339
# Poissons Ratio (y) = 0.08066 0.54612
# Poissons Ratio (z) = 0.38941 0.49663
#
# Static dielectric constant tensor:
#      x y z
#    x 1.915790 0.000000 -0.026500 
#    y 0.000000 1.996510 0.000000 
#    z -0.026500 0.000000 1.969130 
# 
# From -- ./inp_files/274366.got.cif
#   From: 2010.05.17/outbox.cif.g08.bks.cpg/sg15_138_cif.got.tgz:274366.got - 2010.06.03 18:47:42.
