data_PCOD9298784
_publ_section_title
;
Structure prediction by ZEFSAII (Michael W. Deem and Ramdas Pophale) SiO2 
 PCOD9298784
Probable space group: C 2/C
;
_chemical_formula_sum "Si O2"
_cell_formula_units_Z 36
_cell_length_a 23.054256
_cell_length_b 10.990962
_cell_length_c 11.603770
_cell_angle_alpha 90.000000
_cell_angle_beta 151.724781
_cell_angle_gamma 90.000000
_cell_volume 1392.823393
_symmetry_space_group_name_H-M "C 2/C"
_symmetry_group_IT_number 15
_symmetry_cell_setting 'monoclinic'
loop_
_space_group_symop_operation_xyz
x,y,z
-x,y,1/2-z
-x,-y,-z
x,-y,1/2+z
1/2+x,1/2+y,z
1/2-x,1/2+y,1/2-z
1/2-x,1/2-y,-z
1/2+x,1/2-y,1/2+z
loop_
_atom_site_type_symbol
_atom_site_label
_atom_site_fract_x
_atom_site_fract_y
_atom_site_fract_z
Si Si1 0.342794 0.275521 0.972915
Si Si2 0.500000 0.498640 0.750000
Si Si3 0.616138 0.154681 0.234764
Si Si4 0.422323 0.066037 0.711658
Si Si5 0.305708 0.696976 0.979478
O O1 0.219293 0.291490 0.834037
O O2 0.301398 0.180492 0.801894
O O3 0.397157 0.404841 0.023610
O O4 0.425144 0.232824 0.226718
O O5 0.410999 0.406196 0.666519
O O6 0.665392 0.029460 0.379044
O O7 0.503773 0.120987 0.956567
O O8 0.500000 0.998550 0.750000
O O9 0.366817 0.177111 0.545128
O O10 0.250000 0.750000 0.000000
#
# Coordination Sequence:
#
# PCOD9298784 Si02
#       5
#     8   4   8   8   8
#     4  11  26  48  72 110 152 195 250 314 379 459
#     4  12  28  50  76 116 150 202 258 314 390 456
#     4  10  24  45  74 106 150 195 249 312 383 451
#     4  11  22  44  73 105 141 197 245 309 381 455
#     4  12  27  48  75 108 154 197 256 317 379 457
#
# _framework density 25.846781
#
# number of rings (size 3 to 8) (size 9 to 14) (size 15 to 20)
#    0.000    0.889    3.333    1.333    7.778    2.667 
#    0.000    0.000    0.000    0.000    0.000    0.000 
#    0.000    0.000    0.000    0.000    0.000    0.000 
#
# Total GULP energy -100282.100329 kJ/mol
# GULP energy per Si atom -5571.227796 kJ/mol
# Density = 2.578795 g / cm^3
# Si number density = 25.846781 Si / 1000 Ang^3
#
#
#
# Elastic Constant Matrix: (Units=GPa)
#
#
# Indices 1 2 3 4 5 6 
#
# 1 154.8699 32.1319 53.6682 0.0000 -17.9143 0.0000
# 2 32.1319 83.8226 18.4529 0.0000 -0.7295 0.0000
# 3 53.6682 18.4529 78.8150 0.0000 -18.0911 0.0000
# 4 0.0000 0.0000 0.0000 48.5259 0.0000 15.2896
# 5 -17.9143 -0.7295 -18.0911 0.0000 43.0949 0.0000
# 6 0.0000 0.0000 0.0000 15.2896 0.0000 44.4622
#
#
#
# Elastic Compliance Matrix: (Units=1/GPa)
#
#
# Indices 1 2 3 4 5 6 
#
# 1 0.008894 -0.002254 -0.005189 0.000000 0.001481 0.000000
# 2 -0.002254 0.013200 -0.001903 0.000000 -0.001512 0.000000
# 3 -0.005189 -0.001903 0.017888 0.000000 0.005320 0.000000
# 4 0.000000 0.000000 0.000000 0.023112 0.000000 -0.007948
# 5 0.001481 -0.001512 0.005320 0.000000 0.026028 0.000000
# 6 0.000000 0.000000 0.000000 -0.007948 0.000000 0.025224
#
#
# Mechanical properties :
#
#
# Convention : Reuss Voigt Hill
#
# Bulk Modulus (GPa) = 46.96904 58.44595 52.70749
# Shear Modulus (GPa) = 35.68037 41.43355 38.55696
#
# Velocity S-wave (km/s) = 3.71948 4.00815 3.86651
# Velocity P-wave (km/s) = 6.05455 6.63942 6.35372
#
# Compressibility (1/GPa) = 0.02129062
#
# Stress axis : x y z
#
# Youngs Moduli (GPa) = 112.43415 75.75885 55.90440
#
# Poissons Ratio (x) = 0.17078 0.29007
# Poissons Ratio (y) = 0.25346 0.10636
# Poissons Ratio (z) = 0.58338 0.14414
#
# Static dielectric constant tensor:
#      x y z
#    x 2.143890 0.000000 0.152480 
#    y 0.000000 2.173550 0.000000 
#    z 0.152480 0.000000 2.195990 
# 
# From -- ./inp_files/118156.got.cif
#   From: 2010.05.17/outbox.cif.g08.bks.cpg/sg15_60_cif.got.tgz:118156.got - 2010.06.03 18:47:42.
