data_PCOD9298861
_publ_section_title
;
Structure prediction by ZEFSAII (Michael W. Deem and Ramdas Pophale) SiO2 
 PCOD9298861
Probable space group: C 2/C
;
_chemical_formula_sum "Si O2"
_cell_formula_units_Z 52
_cell_length_a 8.643457
_cell_length_b 18.862483
_cell_length_c 19.335647
_cell_angle_alpha 90.000000
_cell_angle_beta 49.205188
_cell_angle_gamma 90.000000
_cell_volume 2386.558199
_symmetry_space_group_name_H-M "C 2/C"
_symmetry_group_IT_number 15
_symmetry_cell_setting 'monoclinic'
loop_
_space_group_symop_operation_xyz
x,y,z
-x,y,1/2-z
-x,-y,-z
x,-y,1/2+z
1/2+x,1/2+y,z
1/2-x,1/2+y,1/2-z
1/2-x,1/2-y,-z
1/2+x,1/2-y,1/2+z
loop_
_atom_site_type_symbol
_atom_site_label
_atom_site_fract_x
_atom_site_fract_y
_atom_site_fract_z
Si Si1 0.759699 0.948890 0.080462
Si Si2 0.330679 0.979609 0.189178
Si Si3 0.855270 0.667509 0.543020
Si Si4 0.772338 0.556840 0.064364
Si Si5 0.176363 0.078035 0.334077
Si Si6 0.392885 0.668595 0.025338
Si Si7 0.500000 0.381989 0.250000
O O1 0.520358 0.933860 0.159862
O O2 0.905836 0.881124 0.038909
O O3 0.824291 0.010544 0.113314
O O4 0.747178 0.978547 0.005494
O O5 0.127638 0.934378 0.262791
O O6 0.316819 0.002671 0.113122
O O7 0.332290 0.053341 0.230197
O O8 0.744383 0.656008 0.501906
O O9 0.933850 0.748251 0.520014
O O10 0.678186 0.656696 0.653683
O O11 0.050768 0.615877 0.491851
O O12 0.543406 0.587971 0.138767
O O13 0.216503 0.143350 0.372161
#
# Coordination Sequence:
#
# PCOD9298861 Si02
#       7
#     8   8   8   8   8   8   4
#     4  11  23  38  67  98 130 174 223 280 329 387
#     4  12  23  40  67 104 135 172 220 284 338 392
#     4  11  25  46  68  93 133 188 225 270 332 408
#     4  11  22  40  68  96 131 179 221 266 338 405
#     4  11  23  40  67 103 142 165 223 284 330 386
#     4  10  24  46  67  93 132 180 231 269 332 405
#     4  12  24  42  68  96 132 168 228 274 334 396
#
# _framework density 21.788701
#
# number of rings (size 3 to 8) (size 9 to 14) (size 15 to 20)
#    0.000    0.923    3.077    4.615    2.154    2.462 
#    8.308    0.000    0.000    1.846    0.000    0.000 
#    0.000    0.000    0.000    0.000    0.000    0.000 
#
# Total GULP energy -145129.292041 kJ/mol
# GULP energy per Si atom -5581.895848 kJ/mol
# Density = 2.173911 g / cm^3
# Si number density = 21.788701 Si / 1000 Ang^3
#
#
#
# Elastic Constant Matrix: (Units=GPa)
#
#
# Indices 1 2 3 4 5 6 
#
# 1 126.1301 56.9326 45.0038 0.0000 -6.3892 -0.0002
# 2 56.9326 116.1963 29.9860 0.0000 -4.1778 0.0000
# 3 45.0038 29.9860 62.5924 0.0000 -0.6822 0.0000
# 4 0.0000 0.0000 0.0000 28.0724 0.0000 -2.4383
# 5 -6.3892 -4.1778 -0.6822 0.0000 47.9219 0.0001
# 6 -0.0002 0.0000 0.0000 -2.4383 0.0001 33.4310
#
#
#
# Elastic Compliance Matrix: (Units=1/GPa)
#
#
# Indices 1 2 3 4 5 6 
#
# 1 0.012338 -0.004241 -0.006826 0.000000 0.001178 0.000000
# 2 -0.004241 0.011308 -0.002364 0.000000 0.000387 0.000000
# 3 -0.006826 -0.002364 0.022008 0.000000 -0.000803 0.000000
# 4 0.000000 0.000000 0.000000 0.035849 0.000000 0.002615
# 5 0.001178 0.000387 -0.000803 0.000000 0.021047 0.000000
# 6 0.000000 0.000000 0.000000 0.002615 0.000000 0.030103
#
#
# Mechanical properties :
#
#
# Convention : Reuss Voigt Hill
#
# Bulk Modulus (GPa) = 53.21498 63.19598 58.20548
# Shear Modulus (GPa) = 30.16050 33.41816 31.78933
#
# Velocity S-wave (km/s) = 3.72456 3.92055 3.82381
# Velocity P-wave (km/s) = 6.55535 7.03997 6.80198
#
# Compressibility (1/GPa) = 0.01879170
#
# Stress axis : x y z
#
# Youngs Moduli (GPa) = 81.04968 88.43215 45.43783
#
# Poissons Ratio (x) = 0.37507 0.31017
# Poissons Ratio (y) = 0.34376 0.10740
# Poissons Ratio (z) = 0.55327 0.20902
#
# Static dielectric constant tensor:
#      x y z
#    x 1.810730 0.000000 -0.040480 
#    y 0.000000 1.764170 0.000000 
#    z -0.040480 0.000000 1.974460 
# 
# From -- ./inp_files/232985.got.cif
#   From: 2010.05.17/outbox.cif.g08.bks.cpg/sg15_117_cif.got.tgz:232985.got - 2010.06.03 18:47:42.
