data_PCOD9298867
_publ_section_title
;
Structure prediction by ZEFSAII (Michael W. Deem and Ramdas Pophale) SiO2 
 PCOD9298867
Probable space group: C 2/C
;
_chemical_formula_sum "Si O2"
_cell_formula_units_Z 28
_cell_length_a 13.563124
_cell_length_b 16.363586
_cell_length_c 8.552799
_cell_angle_alpha 90.000000
_cell_angle_beta 36.465640
_cell_angle_gamma 90.000000
_cell_volume 1128.189069
_symmetry_space_group_name_H-M "C 2/C"
_symmetry_group_IT_number 15
_symmetry_cell_setting 'monoclinic'
loop_
_space_group_symop_operation_xyz
x,y,z
-x,y,1/2-z
-x,-y,-z
x,-y,1/2+z
1/2+x,1/2+y,z
1/2-x,1/2+y,1/2-z
1/2-x,1/2-y,-z
1/2+x,1/2-y,1/2+z
loop_
_atom_site_type_symbol
_atom_site_label
_atom_site_fract_x
_atom_site_fract_y
_atom_site_fract_z
Si Si1 0.890304 0.437521 0.239249
Si Si2 0.847302 0.707743 0.560858
Si Si3 0.000000 0.028953 0.250000
Si Si4 0.505781 0.630819 0.916030
O O1 0.711295 0.477292 0.493179
O O2 0.000000 0.422096 0.250000
O O3 0.866742 0.351905 0.181521
O O4 0.000000 0.500000 0.000000
O O5 0.674484 0.682597 0.703123
O O6 0.000000 0.690852 0.250000
O O7 0.861189 0.802313 0.594436
O O8 0.993597 0.076913 0.431460
O O9 0.500000 0.582798 0.750000
#
# Coordination Sequence:
#
# PCOD9298867 Si02
#       4
#     8   8   4   8
#     4  12  27  45  72 104 145 185 231 289 356 415
#     4  11  21  41  70 106 130 177 238 289 342 412
#     4  10  24  46  68 104 138 182 240 278 340 422
#     4   9  20  37  69  98 130 177 234 282 330 410
#
# _framework density 24.818536000000002
#
# number of rings (size 3 to 8) (size 9 to 14) (size 15 to 20)
#    0.857    0.571    0.000    7.714    4.000    4.571 
#    0.000    1.429    0.000    0.000    0.000    0.000 
#    0.000    0.000    0.000    0.000    0.000    0.000 
#
# Total GULP energy -78256.305786 kJ/mol
# GULP energy per Si atom -5589.736128 kJ/mol
# Density = 2.476205 g / cm^3
# Si number density = 24.818536 Si / 1000 Ang^3
#
#
#
# Elastic Constant Matrix: (Units=GPa)
#
#
# Indices 1 2 3 4 5 6 
#
# 1 231.4043 107.1967 57.3956 -0.0011 -8.8084 0.0003
# 2 107.1967 177.9119 52.3800 -0.0006 -0.2808 0.0002
# 3 57.3956 52.3800 153.4260 -0.0016 -34.2474 0.0008
# 4 -0.0011 -0.0006 -0.0016 41.2346 0.0007 -19.3974
# 5 -8.8084 -0.2808 -34.2474 0.0007 40.7205 -0.0003
# 6 0.0003 0.0002 0.0008 -19.3974 -0.0003 16.7845
#
#
#
# Elastic Compliance Matrix: (Units=1/GPa)
#
#
# Indices 1 2 3 4 5 6 
#
# 1 0.006180 -0.003413 -0.001050 0.000000 0.000430 0.000000
# 2 -0.003413 0.008292 -0.002100 0.000000 -0.002448 0.000000
# 3 -0.001050 -0.002100 0.009324 0.000000 0.007600 0.000000
# 4 0.000000 0.000000 0.000000 0.053142 0.000000 0.061415
# 5 0.000430 -0.002448 0.007600 0.000000 0.031026 0.000000
# 6 0.000000 0.000000 0.000000 0.061415 0.000000 0.130554
#
#
# Mechanical properties :
#
#
# Convention : Reuss Voigt Hill
#
# Bulk Modulus (GPa) = 93.74264 110.74298 102.24281
# Shear Modulus (GPa) = 19.59234 42.79925 31.19579
#
# Velocity S-wave (km/s) = 2.81272 4.15720 3.54920
# Velocity P-wave (km/s) = 6.95713 8.23171 7.62111
#
# Compressibility (1/GPa) = 0.01066750
#
# Stress axis : x y z
#
# Youngs Moduli (GPa) = 161.82296 120.59906 107.24584
#
# Poissons Ratio (x) = 0.41165 0.11266
# Poissons Ratio (y) = 0.55237 0.22525
# Poissons Ratio (z) = 0.16999 0.25330
#
# Static dielectric constant tensor:
#      x y z
#    x 2.145010 0.000000 0.070950 
#    y 0.000000 2.049540 0.000000 
#    z 0.070950 0.000000 1.939520 
# 
# From -- ./inp_files/22464.got.cif
#   From: 2010.05.17/outbox.cif.g08.bks.cpg/sg15_12_cif.got.tgz:22464.got - 2010.06.03 18:47:42.
