data_PCOD9298345
_publ_section_title
;
Structure prediction by ZEFSAII (Michael W. Deem and Ramdas Pophale) SiO2 
 PCOD9298345
Probable space group: C 2/C
;
_chemical_formula_sum "Si O2"
_cell_formula_units_Z 44
_cell_length_a 12.401717
_cell_length_b 18.751403
_cell_length_c 8.764066
_cell_angle_alpha 90.000000
_cell_angle_beta 63.035982
_cell_angle_gamma 90.000000
_cell_volume 1816.523278
_symmetry_space_group_name_H-M "C 2/C"
_symmetry_group_IT_number 15
_symmetry_cell_setting 'monoclinic'
loop_
_space_group_symop_operation_xyz
x,y,z
-x,y,1/2-z
-x,-y,-z
x,-y,1/2+z
1/2+x,1/2+y,z
1/2-x,1/2+y,1/2-z
1/2-x,1/2-y,-z
1/2+x,1/2-y,1/2+z
loop_
_atom_site_type_symbol
_atom_site_label
_atom_site_fract_x
_atom_site_fract_y
_atom_site_fract_z
Si Si1 0.881574 0.786677 0.923327
Si Si2 0.172121 0.453867 0.400088
Si Si3 0.174374 0.851970 0.989460
Si Si4 0.500000 0.032201 0.750000
Si Si5 0.884171 0.065767 0.248900
Si Si6 0.393943 0.772798 0.743293
O O1 0.864790 0.868711 0.880360
O O2 0.000000 0.761658 0.750000
O O3 0.750000 0.750000 0.000000
O O4 0.916861 0.767355 0.072513
O O5 0.253114 0.395189 0.429500
O O6 0.080010 0.485190 0.583998
O O7 0.267057 0.516937 0.300799
O O8 0.095346 0.428830 0.301704
O O9 0.091281 0.899854 0.933735
O O10 0.273710 0.819290 0.810368
O O11 0.122225 0.785961 0.114735
O O12 0.000000 0.026847 0.250000
O O13 0.500000 0.820132 0.750000
#
# Coordination Sequence:
#
# PCOD9298345 Si02
#       6
#     8   8   8   4   8   8
#     4  11  24  46  73 107 145 190 245 301 368 437
#     4  11  24  46  71 104 141 191 242 301 366 431
#     4  11  25  45  68 105 145 189 249 293 373 431
#     4  10  24  44  68 100 142 182 240 302 360 432
#     4  11  24  45  72 103 146 189 242 302 360 439
#     4  11  25  43  71 101 143 194 240 304 362 438
#
# _framework density 24.222094999999999
#
# number of rings (size 3 to 8) (size 9 to 14) (size 15 to 20)
#    0.000    1.091    3.636    2.182    6.364    1.455 
#    1.636    0.000    4.000    0.000    0.000    0.000 
#    0.000    0.000    0.000    0.000    0.000    0.000 
#
# Total GULP energy -122916.431282 kJ/mol
# GULP energy per Si atom -5587.110513 kJ/mol
# Density = 2.416696 g / cm^3
# Si number density = 24.222095 Si / 1000 Ang^3
#
#
#
# Elastic Constant Matrix: (Units=GPa)
#
#
# Indices 1 2 3 4 5 6 
#
# 1 175.1818 24.5379 45.0897 0.0000 31.6921 0.0000
# 2 24.5379 49.3555 12.0383 0.0000 5.5297 0.0000
# 3 45.0897 12.0383 83.9718 0.0000 14.8476 0.0000
# 4 0.0000 0.0000 0.0000 10.0010 0.0000 19.7739
# 5 31.6921 5.5297 14.8476 0.0000 58.5684 0.0000
# 6 0.0000 0.0000 0.0000 19.7739 0.0000 13.9311
#
#
#
# Elastic Compliance Matrix: (Units=1/GPa)
#
#
# Indices 1 2 3 4 5 6 
#
# 1 0.007403 -0.002596 -0.003076 0.000000 -0.002981 0.000000
# 2 -0.002596 0.021997 -0.001718 0.000000 -0.000237 0.000000
# 3 -0.003076 -0.001718 0.014116 0.000000 -0.001752 0.000000
# 4 0.000000 0.000000 0.000000 -0.055352 0.000000 0.078567
# 5 -0.002981 -0.000237 -0.001752 0.000000 0.019154 0.000000
# 6 0.000000 0.000000 0.000000 0.078567 0.000000 -0.039736
#
#
# Mechanical properties :
#
#
# Convention : Reuss Voigt Hill
#
# Bulk Modulus (GPa) = 34.79802 52.42676 43.61239
# Shear Modulus (GPa) = -620.38499 31.62299 -294.38100
#
# Velocity S-wave (km/s) = -16.02122 3.61715 -11.03621
# Velocity P-wave (km/s) = 18.10641 6.25589 12.01470
#
# Compressibility (1/GPa) = 0.02873727
#
# Stress axis : x y z
#
# Youngs Moduli (GPa) = 135.08048 45.45991 70.83957
#
# Poissons Ratio (x) = 0.11803 0.21789
# Poissons Ratio (y) = 0.35071 0.12168
# Poissons Ratio (z) = 0.41549 0.07808
#
# Static dielectric constant tensor:
#      x y z
#    x 2.047100 0.000000 -0.124390 
#    y 0.000000 1.907000 0.000000 
#    z -0.124390 0.000000 1.900120 
# 
# From -- ./inp_files/30708.got.cif
#   From: 2010.05.17/outbox.cif.g08.bks.cpg/sg15_16_cif.got.tgz:30708.got - 2010.06.03 18:47:42.
