data_PCOD9298747
_publ_section_title
;
Structure prediction by ZEFSAII (Michael W. Deem and Ramdas Pophale) SiO2 
 PCOD9298747
Probable space group: C 2/C
;
_chemical_formula_sum "Si O2"
_cell_formula_units_Z 28
_cell_length_a 19.763817
_cell_length_b 12.411092
_cell_length_c 9.270291
_cell_angle_alpha 90.000000
_cell_angle_beta 149.338184
_cell_angle_gamma 90.000000
_cell_volume 1159.627796
_symmetry_space_group_name_H-M "C 2/C"
_symmetry_group_IT_number 15
_symmetry_cell_setting 'monoclinic'
loop_
_space_group_symop_operation_xyz
x,y,z
-x,y,1/2-z
-x,-y,-z
x,-y,1/2+z
1/2+x,1/2+y,z
1/2-x,1/2+y,1/2-z
1/2-x,1/2-y,-z
1/2+x,1/2-y,1/2+z
loop_
_atom_site_type_symbol
_atom_site_label
_atom_site_fract_x
_atom_site_fract_y
_atom_site_fract_z
Si Si1 0.500000 0.331712 0.750000
Si Si2 0.718261 0.231583 0.609746
Si Si3 0.832715 0.147363 0.212789
Si Si4 0.093610 0.493855 0.809365
O O1 0.364898 0.277347 0.447028
O O2 0.552950 0.380606 0.693424
O O3 0.750000 0.250000 0.500000
O O4 0.642437 0.316725 0.575216
O O5 0.635565 0.120302 0.455602
O O6 0.750000 0.250000 0.000000
O O7 0.731067 0.049912 0.028723
O O8 0.000000 0.555271 0.750000
O O9 0.000000 0.500000 0.500000
#
# Coordination Sequence:
#
# PCOD9298747 Si02
#       4
#     4   8   8   8
#     4  10  24  46  68  98 158 180 250 284 372 438
#     4  11  26  42  74 111 147 199 235 311 378 424
#     4  10  24  45  72 105 149 193 236 311 372 425
#     4  12  26  45  76 109 145 189 256 297 365 451
#
# _framework density 24.145679000000001
#
# number of rings (size 3 to 8) (size 9 to 14) (size 15 to 20)
#    0.000    1.143    0.000    5.143   20.000    1.143 
#    0.000    0.000    0.000    0.000    0.000    0.000 
#    0.000    0.000    0.000    0.000    0.000    0.000 
#
# Total GULP energy -78013.306353 kJ/mol
# GULP energy per Si atom -5572.379025 kJ/mol
# Density = 2.409072 g / cm^3
# Si number density = 24.145679 Si / 1000 Ang^3
#
#
#
# Elastic Constant Matrix: (Units=GPa)
#
#
# Indices 1 2 3 4 5 6 
#
# 1 288.1131 36.6902 62.0972 0.0000 -1.4307 0.0000
# 2 36.6902 67.4128 37.6085 0.0000 12.1129 0.0000
# 3 62.0972 37.6085 158.7492 0.0000 -10.1124 0.0000
# 4 0.0000 0.0000 0.0000 32.2977 0.0000 -1.3712
# 5 -1.4307 12.1129 -10.1124 0.0000 57.4074 0.0000
# 6 0.0000 0.0000 0.0000 -1.3712 0.0000 20.4577
#
#
#
# Elastic Compliance Matrix: (Units=1/GPa)
#
#
# Indices 1 2 3 4 5 6 
#
# 1 0.003915 -0.001524 -0.001157 0.000000 0.000215 0.000000
# 2 -0.001524 0.018843 -0.004170 0.000000 -0.004749 0.000000
# 3 -0.001157 -0.004170 0.007882 0.000000 0.002240 0.000000
# 4 0.000000 0.000000 0.000000 0.031050 0.000000 0.002081
# 5 0.000215 -0.004749 0.002240 0.000000 0.018821 0.000000
# 6 0.000000 0.000000 0.000000 0.002081 0.000000 0.049021
#
#
# Mechanical properties :
#
#
# Convention : Reuss Voigt Hill
#
# Bulk Modulus (GPa) = 59.03767 87.45189 73.24478
# Shear Modulus (GPa) = 33.58357 47.22451 40.40404
#
# Velocity S-wave (km/s) = 3.73349 4.42726 4.09509
# Velocity P-wave (km/s) = 6.56422 7.90134 7.26361
#
# Compressibility (1/GPa) = 0.01693834
#
# Stress axis : x y z
#
# Youngs Moduli (GPa) = 255.40450 53.06896 126.86608
#
# Poissons Ratio (x) = 0.08090 0.14674
# Poissons Ratio (y) = 0.38934 0.52907
# Poissons Ratio (z) = 0.29542 0.22131
#
# Static dielectric constant tensor:
#      x y z
#    x 2.032790 0.000000 -0.004960 
#    y 0.000000 3.044900 0.000000 
#    z -0.004960 0.000000 1.682220 
# 
# From -- ./inp_files/55113.got.cif
#   From: 2010.05.17/outbox.cif.g08.bks.cpg/sg15_28_cif.got.tgz:55113.got - 2010.06.03 18:47:42.
