data_PCOD9298918
_publ_section_title
;
Structure prediction by ZEFSAII (Michael W. Deem and Ramdas Pophale) SiO2 
 PCOD9298918
Probable space group: C 2/C
;
_chemical_formula_sum "Si O2"
_cell_formula_units_Z 36
_cell_length_a 7.712015
_cell_length_b 17.739316
_cell_length_c 11.274065
_cell_angle_alpha 90.000000
_cell_angle_beta 78.360527
_cell_angle_gamma 90.000000
_cell_volume 1510.641980
_symmetry_space_group_name_H-M "C 2/C"
_symmetry_group_IT_number 15
_symmetry_cell_setting 'monoclinic'
loop_
_space_group_symop_operation_xyz
x,y,z
-x,y,1/2-z
-x,-y,-z
x,-y,1/2+z
1/2+x,1/2+y,z
1/2-x,1/2+y,1/2-z
1/2-x,1/2-y,-z
1/2+x,1/2-y,1/2+z
loop_
_atom_site_type_symbol
_atom_site_label
_atom_site_fract_x
_atom_site_fract_y
_atom_site_fract_z
Si Si1 0.292062 0.208212 0.267991
Si Si2 0.653299 0.408854 0.397659
Si Si3 0.857451 0.638022 0.665214
Si Si4 0.750000 0.250000 0.500000
Si Si5 0.256033 0.426534 0.549098
O O1 0.500000 0.227781 0.250000
O O2 0.176131 0.272722 0.350598
O O3 0.265303 0.128171 0.335098
O O4 0.242838 0.213489 0.137689
O O5 0.687139 0.397108 0.253676
O O6 0.728663 0.333655 0.446383
O O7 0.452201 0.413671 0.469411
O O8 0.751640 0.485952 0.419188
O O9 0.878770 0.599901 0.535092
O O10 0.000000 0.627981 0.750000
#
# Coordination Sequence:
#
# PCOD9298918 Si02
#       5
#     8   8   8   4   8
#     4  11  26  44  73 103 145 190 244 301 370 448
#     4  10  25  45  71 104 146 187 249 306 369 448
#     4  11  25  43  70 105 145 186 246 307 366 442
#     4  10  24  46  70 102 142 186 236 310 360 442
#     4  11  25  45  73 102 143 200 242 305 381 441
#
# _framework density 23.830928
#
# number of rings (size 3 to 8) (size 9 to 14) (size 15 to 20)
#    0.000    1.333    0.000    4.000   15.556    1.778 
#    0.000    0.000    0.000    0.000    0.000    0.000 
#    0.000    0.000    0.000    0.000    0.000    0.000 
#
# Total GULP energy -100219.441916 kJ/mol
# GULP energy per Si atom -5567.746773 kJ/mol
# Density = 2.377669 g / cm^3
# Si number density = 23.830928 Si / 1000 Ang^3
#
#
#
# Elastic Constant Matrix: (Units=GPa)
#
#
# Indices 1 2 3 4 5 6 
#
# 1 78.5929 38.1213 16.2265 0.0000 10.8960 0.0000
# 2 38.1213 196.1340 94.5506 0.0000 25.5917 0.0000
# 3 16.2265 94.5506 146.3318 0.0000 35.1182 0.0000
# 4 0.0000 0.0000 0.0000 -29.2055 0.0000 -13.6922
# 5 10.8960 25.5917 35.1182 0.0000 22.9675 0.0000
# 6 0.0000 0.0000 0.0000 -13.6922 0.0000 11.8105
#
#
#
# Elastic Compliance Matrix: (Units=1/GPa)
#
#
# Indices 1 2 3 4 5 6 
#
# 1 0.014641 -0.002857 0.001778 0.000000 -0.006481 0.000000
# 2 -0.002857 0.007995 -0.004796 0.000000 -0.000219 0.000000
# 3 0.001778 -0.004796 0.013673 0.000000 -0.016405 0.000000
# 4 0.000000 0.000000 0.000000 -0.022183 0.000000 -0.025717
# 5 -0.006481 -0.000219 -0.016405 0.000000 0.071943 0.000000
# 6 0.000000 0.000000 0.000000 -0.025717 0.000000 0.054856
#
#
# Mechanical properties :
#
#
# Convention : Reuss Voigt Hill
#
# Bulk Modulus (GPa) = 40.72081 79.87282 60.29681
# Shear Modulus (GPa) = 31.08284 19.25852 25.17068
#
# Velocity S-wave (km/s) = 3.61544 2.84585 3.25348
# Velocity P-wave (km/s) = 5.87818 6.66241 6.28254
#
# Compressibility (1/GPa) = 0.02455747
#
# Stress axis : x y z
#
# Youngs Moduli (GPa) = 68.30110 125.08480 73.13773
#
# Poissons Ratio (x) = 0.35739 -0.13003
# Poissons Ratio (y) = 0.19515 0.35079
# Poissons Ratio (z) = -0.12143 0.59994
#
# Static dielectric constant tensor:
#      x y z
#    x 2.072540 0.000000 -0.060800 
#    y 0.000000 1.831320 0.000000 
#    z -0.060800 0.000000 1.852320 
# 
# From -- ./inp_files/76382.got.cif
#   From: 2010.05.17/outbox.cif.g08.bks.cpg/sg15_39_cif.got.tgz:76382.got - 2010.06.03 18:47:42.
