data_PCOD9298343
_publ_section_title
;
Structure prediction by ZEFSAII (Michael W. Deem and Ramdas Pophale) SiO2 
 PCOD9298343
Probable space group: C 2/C
;
_chemical_formula_sum "Si O2"
_cell_formula_units_Z 52
_cell_length_a 5.071620
_cell_length_b 16.834848
_cell_length_c 30.111764
_cell_angle_alpha 90.000000
_cell_angle_beta 66.377678
_cell_angle_gamma 90.000000
_cell_volume 2355.513299
_symmetry_space_group_name_H-M "C 2/C"
_symmetry_group_IT_number 15
_symmetry_cell_setting 'monoclinic'
loop_
_space_group_symop_operation_xyz
x,y,z
-x,y,1/2-z
-x,-y,-z
x,-y,1/2+z
1/2+x,1/2+y,z
1/2-x,1/2+y,1/2-z
1/2-x,1/2-y,-z
1/2+x,1/2-y,1/2+z
loop_
_atom_site_type_symbol
_atom_site_label
_atom_site_fract_x
_atom_site_fract_y
_atom_site_fract_z
Si Si1 0.725680 0.859830 0.700669
Si Si2 0.289076 0.572763 0.842815
Si Si3 0.361532 0.710595 0.947118
Si Si4 0.500000 0.484386 0.750000
Si Si5 0.749538 0.012429 0.130894
Si Si6 0.175354 0.021015 0.532127
Si Si7 0.029567 0.260926 0.381824
O O1 0.500000 0.819850 0.750000
O O2 0.615909 0.914019 0.666982
O O3 0.866233 0.925286 0.723116
O O4 0.936003 0.801849 0.660323
O O5 0.298434 0.542719 0.791559
O O6 0.587782 0.548757 0.846312
O O7 0.006621 0.526730 0.879967
O O8 0.207451 0.663185 0.852442
O O9 0.330593 0.614273 0.952949
O O10 0.696951 0.724562 0.914535
O O11 0.182647 0.751126 0.919124
O O12 0.250000 0.750000 0.000000
O O13 0.015489 0.031201 0.080694
O O14 0.500000 0.000000 0.500000
O O15 0.000000 0.000000 0.500000
#
# Coordination Sequence:
#
# PCOD9298343 Si02
#       7
#     8   8   8   4   8   8   8
#     4  11  26  44  69 104 144 180 236 285 347 417
#     4  11  21  44  68  92 132 179 220 280 330 403
#     4  12  28  49  68 102 143 182 231 293 356 412
#     4  10  24  44  68 100 138 182 230 284 338 402
#     4  11  23  44  69  96 137 177 228 283 343 397
#     4  12  25  43  73 102 134 178 238 285 343 418
#     4  12  26  46  71 102 141 185 230 282 352 425
#
# _framework density 22.075868
#
# number of rings (size 3 to 8) (size 9 to 14) (size 15 to 20)
#    0.000    0.615    4.615    2.308    7.538    0.000 
#    0.000    0.000    0.000    0.000    0.000    0.000 
#    0.000    0.000    0.000    0.000    0.000    0.000 
#
# Total GULP energy -145080.166677 kJ/mol
# GULP energy per Si atom -5580.006411 kJ/mol
# Density = 2.202562 g / cm^3
# Si number density = 22.075868 Si / 1000 Ang^3
#
#
#
# Elastic Constant Matrix: (Units=GPa)
#
#
# Indices 1 2 3 4 5 6 
#
# 1 102.9098 1.7684 31.1905 0.0000 -11.6371 0.0000
# 2 1.7684 35.7963 52.5902 0.0000 -7.5974 0.0000
# 3 31.1905 52.5902 168.9792 0.0000 -13.7809 0.0000
# 4 0.0000 0.0000 0.0000 45.1167 0.0000 4.0730
# 5 -11.6371 -7.5974 -13.7809 0.0000 39.6113 0.0000
# 6 0.0000 0.0000 0.0000 4.0730 0.0000 15.2026
#
#
#
# Elastic Compliance Matrix: (Units=1/GPa)
#
#
# Indices 1 2 3 4 5 6 
#
# 1 0.010985 0.005004 -0.003338 0.000000 0.003026 0.000000
# 2 0.005004 0.054513 -0.017411 0.000000 0.005868 0.000000
# 3 -0.003338 -0.017411 0.011939 0.000000 -0.000166 0.000000
# 4 0.000000 0.000000 0.000000 0.022714 0.000000 -0.006085
# 5 0.003026 0.005868 -0.000166 0.000000 0.027202 0.000000
# 6 0.000000 0.000000 0.000000 -0.006085 0.000000 0.067408
#
#
# Mechanical properties :
#
#
# Convention : Reuss Voigt Hill
#
# Bulk Modulus (GPa) = 21.76412 53.19815 37.48114
# Shear Modulus (GPa) = 20.69810 34.79521 27.74665
#
# Velocity S-wave (km/s) = 3.06533 3.97440 3.54909
# Velocity P-wave (km/s) = 4.73376 6.72394 5.81463
#
# Compressibility (1/GPa) = 0.04594719
#
# Stress axis : x y z
#
# Youngs Moduli (GPa) = 91.03189 18.34414 83.75813
#
# Poissons Ratio (x) = -0.09179 0.27960
# Poissons Ratio (y) = -0.45551 1.45830
# Poissons Ratio (z) = 0.30388 0.31939
#
# Static dielectric constant tensor:
#      x y z
#    x 1.852890 0.000000 -0.025130 
#    y 0.000000 1.846950 0.000000 
#    z -0.025130 0.000000 1.885770 
# 
# From -- ./inp_files/285990.got.cif
#   From: 2010.05.17/outbox.cif.g08.bks.cpg/sg15_143_cif.got.tgz:285990.got - 2010.06.03 18:47:42.
