data_PCOD9298712
_publ_section_title
;
Structure prediction by ZEFSAII (Michael W. Deem and Ramdas Pophale) SiO2 
 PCOD9298712
Probable space group: C 2/C
;
_chemical_formula_sum "Si O2"
_cell_formula_units_Z 56
_cell_length_a 9.064300
_cell_length_b 20.456541
_cell_length_c 28.027549
_cell_angle_alpha 90.000000
_cell_angle_beta 149.649024
_cell_angle_gamma 90.000000
_cell_volume 2626.014361
_symmetry_space_group_name_H-M "C 2/C"
_symmetry_group_IT_number 15
_symmetry_cell_setting 'monoclinic'
loop_
_space_group_symop_operation_xyz
x,y,z
-x,y,1/2-z
-x,-y,-z
x,-y,1/2+z
1/2+x,1/2+y,z
1/2-x,1/2+y,1/2-z
1/2-x,1/2-y,-z
1/2+x,1/2-y,1/2+z
loop_
_atom_site_type_symbol
_atom_site_label
_atom_site_fract_x
_atom_site_fract_y
_atom_site_fract_z
Si Si1 0.537936 0.921058 0.407561
Si Si2 0.000000 0.327772 0.250000
Si Si3 0.189943 0.773343 0.537238
Si Si4 0.481830 0.041037 0.446194
Si Si5 0.730792 0.769629 0.746303
Si Si6 0.500000 0.671869 0.750000
Si Si7 0.574644 0.597024 0.569732
Si Si8 0.253912 0.342852 0.561272
O O1 0.287802 0.870010 0.324968
O O2 0.714673 0.885028 0.501056
O O3 0.721768 0.939317 0.411698
O O4 0.372253 0.986075 0.379407
O O5 0.055627 0.278836 0.222126
O O6 0.261125 0.374898 0.337930
O O7 0.250000 0.750000 0.500000
O O8 0.504661 0.798596 0.645174
O O9 0.006459 0.839031 0.483170
O O10 0.986305 0.715961 0.503548
O O11 0.795419 0.059862 0.511745
O O12 0.317090 0.106894 0.415187
O O13 0.500000 0.000000 0.500000
O O14 0.501082 0.721379 0.706975
O O15 0.926617 0.812418 0.836987
#
# Coordination Sequence:
#
# PCOD9298712 Si02
#       8
#     8   4   8   8   8   4   8   8
#     4  11  25  44  68  95 137 178 225 271 331 406
#     4  12  22  38  67  97 130 168 216 274 338 406
#     4  12  21  38  67  98 136 167 218 281 341 399
#     4  10  24  45  70  88 132 180 226 273 332 399
#     4  12  24  39  66 103 136 170 216 275 347 403
#     4  12  24  42  67 101 132 178 216 268 338 408
#     4  12  24  42  69 101 129 176 225 285 332 405
#     4  11  22  44  67  99 134 175 216 281 341 403
#
# _framework density 21.325092999999999
#
# number of rings (size 3 to 8) (size 9 to 14) (size 15 to 20)
#    0.000    0.571    7.143    0.429    4.000    1.143 
#    2.571    0.000    6.286    0.000    0.000    0.000 
#    0.000    0.000    0.000    0.000    0.000    0.000 
#
# Total GULP energy -155982.655625 kJ/mol
# GULP energy per Si atom -5570.809129 kJ/mol
# Density = 2.127656 g / cm^3
# Si number density = 21.325093 Si / 1000 Ang^3
#
#
#
# Elastic Constant Matrix: (Units=GPa)
#
#
# Indices 1 2 3 4 5 6 
#
# 1 58.0659 10.8256 -16.1116 -0.0005 10.4904 0.0010
# 2 10.8256 70.9342 15.4028 0.0034 2.2724 0.0008
# 3 -16.1116 15.4028 110.9645 0.0111 -7.2281 0.0018
# 4 -0.0005 0.0034 0.0111 8.8075 -0.0016 5.8204
# 5 10.4904 2.2724 -7.2281 -0.0016 19.5896 0.0000
# 6 0.0010 0.0008 0.0018 5.8204 0.0000 34.4079
#
#
#
# Elastic Compliance Matrix: (Units=1/GPa)
#
#
# Indices 1 2 3 4 5 6 
#
# 1 0.020348 -0.003413 0.002812 -0.000003 -0.009463 0.000000
# 2 -0.003413 0.015228 -0.002669 -0.000003 -0.000924 0.000000
# 3 0.002812 -0.002669 0.009952 -0.000012 0.002476 0.000001
# 4 -0.000003 -0.000003 -0.000012 0.127830 0.000008 -0.021624
# 5 -0.009463 -0.000924 0.002476 0.000008 0.057136 -0.000001
# 6 0.000000 0.000000 0.000001 -0.021624 -0.000001 0.032721
#
#
# Mechanical properties :
#
#
# Convention : Reuss Voigt Hill
#
# Bulk Modulus (GPa) = 25.64987 28.91093 27.28040
# Shear Modulus (GPa) = 17.68340 27.88418 22.78379
#
# Velocity S-wave (km/s) = 2.88276 3.61996 3.27219
# Velocity P-wave (km/s) = 4.80984 5.57305 5.20545
#
# Compressibility (1/GPa) = 0.03898656
#
# Stress axis : x y z
#
# Youngs Moduli (GPa) = 49.14517 65.67003 100.48273
#
# Poissons Ratio (x) = 0.22412 -0.28253
# Poissons Ratio (y) = 0.16772 0.26823
# Poissons Ratio (z) = -0.13818 0.17530
#
# Static dielectric constant tensor:
#      x y z
#    x 1.809260 0.000000 -0.082130 
#    y 0.000000 1.819190 0.000000 
#    z -0.082130 0.000000 1.588430 
# 
# From -- ./inp_files/309032.got.cif
#   From: 2010.05.17/outbox.cif.g08.bks.cpg/sg15_155_cif.got.tgz:309032.got - 2010.06.03 18:47:42.
