data_PCOD9298882
_publ_section_title
;
Structure prediction by ZEFSAII (Michael W. Deem and Ramdas Pophale) SiO2 
 PCOD9298882
Probable space group: C 2/C
;
_chemical_formula_sum "Si O2"
_cell_formula_units_Z 60
_cell_length_a 18.562929
_cell_length_b 23.931444
_cell_length_c 7.207863
_cell_angle_alpha 90.000000
_cell_angle_beta 48.372679
_cell_angle_gamma 90.000000
_cell_volume 2393.438827
_symmetry_space_group_name_H-M "C 2/C"
_symmetry_group_IT_number 15
_symmetry_cell_setting 'monoclinic'
loop_
_space_group_symop_operation_xyz
x,y,z
-x,y,1/2-z
-x,-y,-z
x,-y,1/2+z
1/2+x,1/2+y,z
1/2-x,1/2+y,1/2-z
1/2-x,1/2-y,-z
1/2+x,1/2-y,1/2+z
loop_
_atom_site_type_symbol
_atom_site_label
_atom_site_fract_x
_atom_site_fract_y
_atom_site_fract_z
Si Si1 0.845865 0.026079 0.760398
Si Si2 0.691362 0.096756 0.146522
Si Si3 0.000000 0.038908 0.750000
Si Si4 0.700008 0.690246 0.049489
Si Si5 0.181898 0.197961 0.644602
Si Si6 0.706702 0.072569 0.534737
Si Si7 0.479725 0.126866 0.561559
Si Si8 0.982311 0.755078 0.554820
O O1 0.923926 0.999661 0.490078
O O2 0.751247 0.063074 0.889885
O O3 0.921018 0.065884 0.749730
O O4 0.791150 0.971151 0.939564
O O5 0.689737 0.062649 0.342599
O O6 0.581681 0.112438 0.291937
O O7 0.759431 0.150113 0.060511
O O8 0.600066 0.699028 0.325398
O O9 0.750000 0.750000 0.000000
O O10 0.682440 0.682748 0.861316
O O11 0.755307 0.635721 0.016221
O O12 0.250000 0.250000 0.500000
O O13 0.075806 0.221863 0.791854
O O14 0.603242 0.079751 0.812768
O O15 0.500000 0.129062 0.750000
O O16 0.454520 0.191119 0.549895
O O17 0.000000 0.752080 0.750000
#
# Coordination Sequence:
#
# PCOD9298882 Si02
#       8
#     8   8   4   8   8   8   8   8
#     4  11  24  45  70  94 128 167 216 265 324 386
#     4  11  23  42  67  94 126 169 215 267 321 386
#     4  10  24  46  68  90 132 166 210 270 324 374
#     4  11  22  38  62  91 128 170 215 260 317 382
#     4  11  22  38  62  91 128 170 215 260 317 382
#     4  11  23  42  67  94 126 169 215 267 321 386
#     4   9  18  37  65  89 127 168 204 256 322 376
#     4   9  18  36  57  85 123 169 204 248 319 378
#
# _framework density 25.068535000000001
#
# number of rings (size 3 to 8) (size 9 to 14) (size 15 to 20)
#    0.000    1.600    4.000    0.800    1.867    2.667 
#    2.400    4.000    0.000    0.000    0.000    0.000 
#    0.000    0.000    0.000    0.000    0.000    0.000 
#
# Total GULP energy -167312.684186 kJ/mol
# GULP energy per Si atom -5577.089473 kJ/mol
# Density = 2.501148 g / cm^3
# Si number density = 25.068535 Si / 1000 Ang^3
#
#
#
# Elastic Constant Matrix: (Units=GPa)
#
#
# Indices 1 2 3 4 5 6 
#
# 1 49.7980 -0.8524 23.8669 0.0000 -20.7734 0.0000
# 2 -0.8524 83.1531 41.9625 0.0000 -25.0784 0.0000
# 3 23.8669 41.9625 197.1598 0.0000 -48.4526 0.0000
# 4 0.0000 0.0000 0.0000 14.4221 0.0000 -7.0226
# 5 -20.7734 -25.0784 -48.4526 0.0000 55.7458 0.0000
# 6 0.0000 0.0000 0.0000 -7.0226 0.0000 27.5969
#
#
#
# Elastic Compliance Matrix: (Units=1/GPa)
#
#
# Indices 1 2 3 4 5 6 
#
# 1 0.024934 0.003944 -0.001447 0.000000 0.009808 0.000000
# 2 0.003944 0.015065 -0.002107 0.000000 0.006415 0.000000
# 3 -0.001447 -0.002107 0.006778 0.000000 0.004404 0.000000
# 4 0.000000 0.000000 0.000000 0.079144 0.000000 0.020140
# 5 0.009808 0.006415 0.004404 0.000000 0.028307 0.000000
# 6 0.000000 0.000000 0.000000 0.020140 0.000000 0.041361
#
#
# Mechanical properties :
#
#
# Convention : Reuss Voigt Hill
#
# Bulk Modulus (GPa) = 21.02835 51.11834 36.07334
# Shear Modulus (GPa) = 23.73474 37.22856 30.48165
#
# Velocity S-wave (km/s) = 3.08034 3.85784 3.49081
# Velocity P-wave (km/s) = 4.58889 6.34662 5.53794
#
# Compressibility (1/GPa) = 0.04755485
#
# Stress axis : x y z
#
# Youngs Moduli (GPa) = 40.10654 66.38079 147.53641
#
# Poissons Ratio (x) = -0.26180 0.21356
# Poissons Ratio (y) = -0.15818 0.31088
# Poissons Ratio (z) = 0.05805 0.13987
#
# Static dielectric constant tensor:
#      x y z
#    x 2.160630 0.000000 0.054510 
#    y 0.000000 1.950380 0.000000 
#    z 0.054510 0.000000 1.893350 
# 
# From -- ./inp_files/58732.got.cif
#   From: 2010.05.17/outbox.cif.g08.bks.cpg/sg15_30_cif.got.tgz:58732.got - 2010.06.03 18:47:42.
