data_PCOD9298822
_publ_section_title
;
Structure prediction by ZEFSAII (Michael W. Deem and Ramdas Pophale) SiO2 
 PCOD9298822
Probable space group: C 2/C
;
_chemical_formula_sum "Si O2"
_cell_formula_units_Z 44
_cell_length_a 13.467327
_cell_length_b 27.997566
_cell_length_c 10.782305
_cell_angle_alpha 90.000000
_cell_angle_beta 33.529465
_cell_angle_gamma 90.000000
_cell_volume 2245.639480
_symmetry_space_group_name_H-M "C 2/C"
_symmetry_group_IT_number 15
_symmetry_cell_setting 'monoclinic'
loop_
_space_group_symop_operation_xyz
x,y,z
-x,y,1/2-z
-x,-y,-z
x,-y,1/2+z
1/2+x,1/2+y,z
1/2-x,1/2+y,1/2-z
1/2-x,1/2-y,-z
1/2+x,1/2-y,1/2+z
loop_
_atom_site_type_symbol
_atom_site_label
_atom_site_fract_x
_atom_site_fract_y
_atom_site_fract_z
Si Si1 0.199802 0.480865 0.818386
Si Si2 0.216451 0.633006 0.298993
Si Si3 0.968072 0.190052 0.633728
Si Si4 0.000000 0.387529 0.250000
Si Si5 0.803873 0.040062 0.483400
Si Si6 0.053185 0.703074 0.052680
O O1 0.209569 0.423878 0.787480
O O2 0.316867 0.507605 0.592109
O O3 0.249306 0.487572 0.912408
O O4 0.000000 0.500000 0.000000
O O5 0.129354 0.641154 0.524694
O O6 0.083771 0.663755 0.352730
O O7 0.413702 0.652136 0.063909
O O8 0.029554 0.243132 0.526847
O O9 0.000000 0.184805 0.750000
O O10 0.757094 0.186373 0.828741
O O11 0.856721 0.421973 0.329645
O O12 0.000000 0.061799 0.250000
O O13 0.000000 0.709736 0.250000
#
# Coordination Sequence:
#
# PCOD9298822 Si02
#       6
#     8   8   8   4   8   8
#     4  11  22  44  64  92 132 168 211 266 315 376
#     4  11  23  39  64  92 124 164 212 251 304 383
#     4  11  20  39  63  96 125 158 200 258 326 371
#     4  10  24  46  60  86 132 176 210 250 320 372
#     4  11  22  42  67  89 126 175 211 266 320 374
#     4  11  20  38  66  90 129 161 194 260 327 374
#
# _framework density 19.593527999999999
#
# number of rings (size 3 to 8) (size 9 to 14) (size 15 to 20)
#    0.000    1.091    7.273    1.636    0.000    5.091 
#    3.273    0.909    0.000    0.000    0.000    0.000 
#    0.000    0.000    0.000    0.000    0.000    0.000 
#
# Total GULP energy -122698.956907 kJ/mol
# GULP energy per Si atom -5577.225314 kJ/mol
# Density = 1.954893 g / cm^3
# Si number density = 19.593528 Si / 1000 Ang^3
#
#
#
# Elastic Constant Matrix: (Units=GPa)
#
#
# Indices 1 2 3 4 5 6 
#
# 1 31.6895 -14.0061 3.6318 0.0000 6.5731 0.0000
# 2 -14.0061 50.2700 30.1142 0.0000 9.5128 0.0000
# 3 3.6318 30.1142 151.0985 0.0000 -16.6163 0.0000
# 4 0.0000 0.0000 0.0000 50.1707 0.0000 -0.7187
# 5 6.5731 9.5128 -16.6163 0.0000 43.1414 0.0000
# 6 0.0000 0.0000 0.0000 -0.7187 0.0000 17.4851
#
#
#
# Elastic Compliance Matrix: (Units=1/GPa)
#
#
# Indices 1 2 3 4 5 6 
#
# 1 0.042843 0.017966 -0.006019 0.000000 -0.012807 0.000000
# 2 0.017966 0.032356 -0.008318 0.000000 -0.013076 0.000000
# 3 -0.006019 -0.008318 0.009109 0.000000 0.006260 0.000000
# 4 0.000000 0.000000 0.000000 0.019944 0.000000 0.000820
# 5 -0.012807 -0.013076 0.006260 0.000000 0.030425 0.000000
# 6 0.000000 0.000000 0.000000 0.000820 0.000000 0.057225
#
#
# Mechanical properties :
#
#
# Convention : Reuss Voigt Hill
#
# Bulk Modulus (GPa) = 10.92111 30.28197 20.60154
# Shear Modulus (GPa) = 23.23782 36.38065 29.80923
#
# Velocity S-wave (km/s) = 3.44756 4.31370 3.90472
# Velocity P-wave (km/s) = 4.62964 6.34817 5.55575
#
# Compressibility (1/GPa) = 0.09156580
#
# Stress axis : x y z
#
# Youngs Moduli (GPa) = 23.34095 30.90638 109.78015
#
# Poissons Ratio (x) = -0.55527 0.66076
# Poissons Ratio (y) = -0.41935 0.91319
# Poissons Ratio (z) = 0.14049 0.25709
#
# Static dielectric constant tensor:
#      x y z
#    x 1.708400 0.000000 0.008770 
#    y 0.000000 1.709340 0.000000 
#    z 0.008770 0.000000 1.706880 
# 
# From -- ./inp_files/101063.got.cif
#   From: 2010.05.17/outbox.cif.g08.bks.cpg/sg15_51_cif.got.tgz:101063.got - 2010.06.03 18:47:42.
