data_PCOD9298383
_publ_section_title
;
Structure prediction by ZEFSAII (Michael W. Deem and Ramdas Pophale) SiO2 
 PCOD9298383
Probable space group: C 2/C
;
_chemical_formula_sum "Si O2"
_cell_formula_units_Z 52
_cell_length_a 24.779661
_cell_length_b 11.742788
_cell_length_c 12.483237
_cell_angle_alpha 90.000000
_cell_angle_beta 43.611969
_cell_angle_gamma 90.000000
_cell_volume 2505.524229
_symmetry_space_group_name_H-M "C 2/C"
_symmetry_group_IT_number 15
_symmetry_cell_setting 'monoclinic'
loop_
_space_group_symop_operation_xyz
x,y,z
-x,y,1/2-z
-x,-y,-z
x,-y,1/2+z
1/2+x,1/2+y,z
1/2-x,1/2+y,1/2-z
1/2-x,1/2-y,-z
1/2+x,1/2-y,1/2+z
loop_
_atom_site_type_symbol
_atom_site_label
_atom_site_fract_x
_atom_site_fract_y
_atom_site_fract_z
Si Si1 0.183341 0.627847 0.372993
Si Si2 0.553831 0.450428 0.012975
Si Si3 0.768221 0.380284 0.938140
Si Si4 0.088026 0.174065 0.095680
Si Si5 0.500000 0.277747 0.250000
Si Si6 0.683888 0.593793 0.158644
Si Si7 0.590369 0.937655 0.617513
O O1 0.227408 0.618147 0.196913
O O2 0.126749 0.736983 0.458309
O O3 0.237699 0.641547 0.399942
O O4 0.135602 0.511582 0.465007
O O5 0.580011 0.549141 0.055985
O O6 0.500257 0.358548 0.148723
O O7 0.500000 0.500000 0.000000
O O8 0.627743 0.406914 0.841981
O O9 0.852206 0.428496 0.862137
O O10 0.750000 0.250000 0.000000
O O11 0.705923 0.468708 0.079231
O O12 0.140247 0.160846 0.127150
O O13 0.000000 0.211938 0.250000
O O14 0.426985 0.195340 0.377124
O O15 0.500000 0.983225 0.750000
#
# Coordination Sequence:
#
# PCOD9298383 Si02
#       7
#     8   8   8   8   4   8   8
#     4  11  25  45  66  97 136 181 223 277 343 402
#     4  12  23  42  70 100 131 176 222 285 342 394
#     4  11  25  42  68  98 136 177 227 273 337 412
#     4  12  24  41  68  98 136 171 228 284 338 404
#     4  10  24  44  68  98 136 164 230 274 334 410
#     4  11  25  44  63  98 136 176 224 278 339 403
#     4   9  24  45  67  96 131 177 225 276 333 407
#
# _framework density 20.75414
#
# number of rings (size 3 to 8) (size 9 to 14) (size 15 to 20)
#    0.462    0.615    2.308    2.769    8.615    1.846 
#    5.538    0.000    0.000    0.000    0.000    0.000 
#    0.000    0.000    0.000    0.000    0.000    0.000 
#
# Total GULP energy -144915.138280 kJ/mol
# GULP energy per Si atom -5573.659165 kJ/mol
# Density = 2.070690 g / cm^3
# Si number density = 20.754140 Si / 1000 Ang^3
#
#
#
# Elastic Constant Matrix: (Units=GPa)
#
#
# Indices 1 2 3 4 5 6 
#
# 1 101.6698 18.7739 23.3976 0.0000 5.7165 0.0000
# 2 18.7739 81.4927 39.6360 0.0000 6.3121 0.0000
# 3 23.3976 39.6360 89.1595 0.0000 10.7799 0.0000
# 4 0.0000 0.0000 0.0000 14.9941 0.0000 -2.7031
# 5 5.7165 6.3121 10.7799 0.0000 32.4845 0.0000
# 6 0.0000 0.0000 0.0000 -2.7031 0.0000 11.9217
#
#
#
# Elastic Compliance Matrix: (Units=1/GPa)
#
#
# Indices 1 2 3 4 5 6 
#
# 1 0.010616 -0.001370 -0.002066 0.000000 -0.000916 0.000000
# 2 -0.001370 0.015851 -0.006609 0.000000 -0.000646 0.000000
# 3 -0.002066 -0.006609 0.015103 0.000000 -0.003364 0.000000
# 4 0.000000 0.000000 0.000000 0.069535 0.000000 0.015766
# 5 -0.000916 -0.000646 -0.003364 0.000000 0.032187 0.000000
# 6 0.000000 0.000000 0.000000 0.015766 0.000000 0.087456
#
#
# Mechanical properties :
#
#
# Convention : Reuss Voigt Hill
#
# Bulk Modulus (GPa) = 46.55537 48.43745 47.49641
# Shear Modulus (GPa) = 19.38004 24.58101 21.98052
#
# Velocity S-wave (km/s) = 3.05912 3.44523 3.25790
# Velocity P-wave (km/s) = 5.91254 6.26223 6.08989
#
# Compressibility (1/GPa) = 0.02147980
#
# Stress axis : x y z
#
# Youngs Moduli (GPa) = 94.20015 63.08702 66.21252
#
# Poissons Ratio (x) = 0.08641 0.13680
# Poissons Ratio (y) = 0.12903 0.43761
# Poissons Ratio (z) = 0.19463 0.41695
#
# Static dielectric constant tensor:
#      x y z
#    x 0.069840 0.000000 3.055280 
#    y 0.000000 1.746160 0.000000 
#    z 3.055280 0.000000 -3.956560 
# 
# From -- ./inp_files/117946.got.cif
#   From: 2010.05.17/outbox.cif.g08.bks.cpg/sg15_59_cif.got.tgz:117946.got - 2010.06.03 18:47:42.
