data_PCOD9298025
_publ_section_title
;
Structure prediction by ZEFSAII (Michael W. Deem and Ramdas Pophale) SiO2 
 PCOD9298025
Probable space group: C 2/C
;
_chemical_formula_sum "Si O2"
_cell_formula_units_Z 40
_cell_length_a 18.231832
_cell_length_b 8.892256
_cell_length_c 18.191604
_cell_angle_alpha 90.000000
_cell_angle_beta 149.046882
_cell_angle_gamma 90.000000
_cell_volume 1516.912853
_symmetry_space_group_name_H-M "C 2/C"
_symmetry_group_IT_number 15
_symmetry_cell_setting 'monoclinic'
loop_
_space_group_symop_operation_xyz
x,y,z
-x,y,1/2-z
-x,-y,-z
x,-y,1/2+z
1/2+x,1/2+y,z
1/2-x,1/2+y,1/2-z
1/2-x,1/2-y,-z
1/2+x,1/2-y,1/2+z
loop_
_atom_site_type_symbol
_atom_site_label
_atom_site_fract_x
_atom_site_fract_y
_atom_site_fract_z
Si Si1 0.862334 0.850400 0.646542
Si Si2 0.345080 0.006338 0.924594
Si Si3 0.488167 0.743317 0.977288
Si Si4 0.581013 0.499129 0.957594
Si Si5 0.084539 0.476855 0.251046
O O1 0.750000 0.750000 0.500000
O O2 0.779273 0.967563 0.626358
O O3 0.938673 0.936262 0.641794
O O4 0.913385 0.704100 0.737540
O O5 0.484852 0.011545 0.096919
O O6 0.364325 0.159526 0.896168
O O7 0.365128 0.864060 0.888845
O O8 0.469787 0.625069 0.027455
O O9 0.495705 0.647441 0.908901
O O10 0.751287 0.527052 0.112417
O O11 0.000000 0.537152 0.250000
#
# Coordination Sequence:
#
# PCOD9298025 Si02
#       5
#     8   8   8   8   8
#     4  11  23  41  71  92 124 174 224 265 312 390
#     4  11  23  46  64  99 129 174 217 264 333 378
#     4  10  24  43  65  94 141 163 213 274 323 394
#     4  11  22  45  65 101 126 171 221 263 328 383
#     4  11  21  38  73  93 126 172 221 266 309 398
#
# _framework density 26.369344999999999
#
# number of rings (size 3 to 8) (size 9 to 14) (size 15 to 20)
#    0.000    1.200    4.000    3.000    0.000    2.400 
#   18.000    0.000    0.000    0.000    0.000    0.000 
#    0.000    0.000    0.000    0.000    0.000    0.000 
#
# Total GULP energy -111763.862560 kJ/mol
# GULP energy per Si atom -5588.193128 kJ/mol
# Density = 2.630933 g / cm^3
# Si number density = 26.369345 Si / 1000 Ang^3
#
#
#
# Elastic Constant Matrix: (Units=GPa)
#
#
# Indices 1 2 3 4 5 6 
#
# 1 236.6426 66.5869 36.7139 0.0000 22.4745 0.0000
# 2 66.5869 99.4731 -10.2953 0.0000 0.3332 0.0000
# 3 36.7139 -10.2953 74.2997 0.0000 1.5652 0.0000
# 4 0.0000 0.0000 0.0000 30.4206 0.0000 2.3469
# 5 22.4745 0.3332 1.5652 0.0000 46.5790 0.0000
# 6 0.0000 0.0000 0.0000 2.3469 0.0000 51.5179
#
#
#
# Elastic Compliance Matrix: (Units=1/GPa)
#
#
# Indices 1 2 3 4 5 6 
#
# 1 0.006396 -0.004659 -0.003744 0.000000 -0.002927 0.000000
# 2 -0.004659 0.013594 0.004143 0.000000 0.002011 0.000000
# 3 -0.003744 0.004143 0.015857 0.000000 0.001244 0.000000
# 4 0.000000 0.000000 0.000000 0.032988 0.000000 -0.001503
# 5 -0.002927 0.002011 0.001244 0.000000 0.022825 0.000000
# 6 0.000000 0.000000 0.000000 -0.001503 0.000000 0.019479
#
#
# Mechanical properties :
#
#
# Convention : Reuss Voigt Hill
#
# Bulk Modulus (GPa) = 36.59403 66.26962 51.43182
# Shear Modulus (GPa) = 38.82984 46.86417 42.84700
#
# Velocity S-wave (km/s) = 3.84153 4.22028 4.03535
# Velocity P-wave (km/s) = 5.79518 6.99526 6.42330
#
# Compressibility (1/GPa) = 0.02732686
#
# Stress axis : x y z
#
# Youngs Moduli (GPa) = 156.35888 73.56361 63.06358
#
# Poissons Ratio (x) = 0.34272 0.23612
# Poissons Ratio (y) = 0.72845 -0.26129
# Poissons Ratio (z) = 0.58543 -0.30480
#
# Static dielectric constant tensor:
#      x y z
#    x 2.806030 0.000010 1.628930 
#    y 0.000010 8.028910 0.000020 
#    z 1.628930 0.000020 6.039270 
# 
# From -- ./inp_files/247679.got.cif
#   From: 2010.05.17/outbox.cif.g08.bks.cpg/sg15_124_cif.got.tgz:247679.got - 2010.06.03 18:47:42.
