data_PCOD9298590
_publ_section_title
;
Structure prediction by ZEFSAII (Michael W. Deem and Ramdas Pophale) SiO2 
 PCOD9298590
Probable space group: C 2/C
;
_chemical_formula_sum "Si O2"
_cell_formula_units_Z 52
_cell_length_a 17.633618
_cell_length_b 9.103425
_cell_length_c 11.992790
_cell_angle_alpha 90.000000
_cell_angle_beta 78.277799
_cell_angle_gamma 90.000000
_cell_volume 1885.007638
_symmetry_space_group_name_H-M "C 2/C"
_symmetry_group_IT_number 15
_symmetry_cell_setting 'monoclinic'
loop_
_space_group_symop_operation_xyz
x,y,z
-x,y,1/2-z
-x,-y,-z
x,-y,1/2+z
1/2+x,1/2+y,z
1/2-x,1/2+y,1/2-z
1/2-x,1/2-y,-z
1/2+x,1/2-y,1/2+z
loop_
_atom_site_type_symbol
_atom_site_label
_atom_site_fract_x
_atom_site_fract_y
_atom_site_fract_z
Si Si1 0.615504 0.139527 0.684382
Si Si2 0.763832 0.705771 0.232541
Si Si3 0.741917 0.932905 0.402676
Si Si4 0.000000 0.145902 0.250000
Si Si5 0.102975 0.980068 0.044656
Si Si6 0.084285 0.368385 0.566322
Si Si7 0.421500 0.759101 0.556960
O O1 0.699895 0.195265 0.689262
O O2 0.559599 0.232486 0.784480
O O3 0.596613 0.199543 0.565912
O O4 0.599254 0.966949 0.673098
O O5 0.761714 0.767236 0.358403
O O6 0.743847 0.539043 0.207934
O O7 0.847619 0.726272 0.155847
O O8 0.803782 0.998191 0.471114
O O9 0.652686 0.932129 0.466163
O O10 0.056511 0.041005 0.165129
O O11 0.095186 0.806326 0.051943
O O12 0.069594 0.080633 0.954801
O O13 0.992116 0.363566 0.570868
#
# Coordination Sequence:
#
# PCOD9298590 Si02
#       7
#     8   8   8   4   8   8   8
#     4  11  24  47  74 102 148 196 245 311 373 442
#     4  12  27  45  74 102 152 191 251 307 382 437
#     4  12  28  47  72 109 145 196 250 311 374 447
#     4  10  24  44  76  98 142 196 240 292 384 424
#     4  11  26  48  73 103 154 192 242 303 386 443
#     4  12  27  44  78 110 145 190 261 302 367 453
#     4  11  24  47  73 101 147 196 241 305 377 448
#
# _framework density 27.586095
#
# number of rings (size 3 to 8) (size 9 to 14) (size 15 to 20)
#    0.000    0.615    4.615    2.769   10.769    0.615 
#    0.000    0.000    0.000    0.000    0.000    0.000 
#    0.000    0.000    0.000    0.000    0.000    0.000 
#
# Total GULP energy -145330.829876 kJ/mol
# GULP energy per Si atom -5589.647303 kJ/mol
# Density = 2.752331 g / cm^3
# Si number density = 27.586095 Si / 1000 Ang^3
#
#
#
# Elastic Constant Matrix: (Units=GPa)
#
#
# Indices 1 2 3 4 5 6 
#
# 1 191.0103 52.3854 62.1040 0.0000 -40.7692 0.0000
# 2 52.3854 193.0456 25.9835 0.0000 -10.4841 0.0000
# 3 62.1040 25.9835 90.3076 0.0000 -34.0514 0.0000
# 4 0.0000 0.0000 0.0000 53.2558 0.0000 -1.5270
# 5 -40.7692 -10.4841 -34.0514 0.0000 43.0560 0.0000
# 6 0.0000 0.0000 0.0000 -1.5270 0.0000 39.0433
#
#
#
# Elastic Compliance Matrix: (Units=1/GPa)
#
#
# Indices 1 2 3 4 5 6 
#
# 1 0.007572 -0.001392 -0.003179 0.000000 0.004317 0.000000
# 2 -0.001392 0.005645 -0.000920 0.000000 -0.000671 0.000000
# 3 -0.003179 -0.000920 0.017533 0.000000 0.010632 0.000000
# 4 0.000000 0.000000 0.000000 0.018798 0.000000 0.000735
# 5 0.004317 -0.000671 0.010632 0.000000 0.035558 0.000000
# 6 0.000000 0.000000 0.000000 0.000735 0.000000 0.025641
#
#
# Mechanical properties :
#
#
# Convention : Reuss Voigt Hill
#
# Bulk Modulus (GPa) = 50.58700 83.92324 67.25512
# Shear Modulus (GPa) = 38.96499 49.33041 44.14770
#
# Velocity S-wave (km/s) = 3.76238 4.23334 4.00479
# Velocity P-wave (km/s) = 6.10342 7.37450 6.76886
#
# Compressibility (1/GPa) = 0.01976792
#
# Stress axis : x y z
#
# Youngs Moduli (GPa) = 132.06212 177.13727 57.03515
#
# Poissons Ratio (x) = 0.24666 0.18132
# Poissons Ratio (y) = 0.18389 0.05246
# Poissons Ratio (z) = 0.41983 0.16294
#
# Static dielectric constant tensor:
#      x y z
#    x 2.258520 0.000000 0.047840 
#    y 0.000000 2.286020 0.000000 
#    z 0.047840 0.000000 2.149020 
# 
# From -- ./inp_files/209451.got.cif
#   From: 2010.05.17/outbox.cif.g08.bks.cpg/sg15_105_cif.got.tgz:209451.got - 2010.06.03 18:47:42.
