data_PCOD9298937
_publ_section_title
;
Structure prediction by ZEFSAII (Michael W. Deem and Ramdas Pophale) SiO2 
 PCOD9298937
Probable space group: C 2/C
;
_chemical_formula_sum "Si O2"
_cell_formula_units_Z 64
_cell_length_a 14.327448
_cell_length_b 12.831596
_cell_length_c 16.946892
_cell_angle_alpha 90.000000
_cell_angle_beta 51.657837
_cell_angle_gamma 90.000000
_cell_volume 2443.615719
_symmetry_space_group_name_H-M "C 2/C"
_symmetry_group_IT_number 15
_symmetry_cell_setting 'monoclinic'
loop_
_space_group_symop_operation_xyz
x,y,z
-x,y,1/2-z
-x,-y,-z
x,-y,1/2+z
1/2+x,1/2+y,z
1/2-x,1/2+y,1/2-z
1/2-x,1/2-y,-z
1/2+x,1/2-y,1/2+z
loop_
_atom_site_type_symbol
_atom_site_label
_atom_site_fract_x
_atom_site_fract_y
_atom_site_fract_z
Si Si1 0.544863 0.227955 0.874063
Si Si2 0.871426 0.670061 0.106998
Si Si3 0.386415 0.458173 0.610077
Si Si4 0.336453 0.681282 0.399898
Si Si5 0.278973 0.476872 0.509632
Si Si6 0.213519 0.860403 0.249738
Si Si7 0.116649 0.801296 0.143229
Si Si8 0.529510 0.931665 0.647275
O O1 0.597917 0.338505 0.875974
O O2 0.458584 0.257716 0.847566
O O3 0.650253 0.150606 0.795224
O O4 0.466310 0.182577 0.987018
O O5 0.739548 0.659457 0.138809
O O6 0.862976 0.778339 0.159280
O O7 0.921928 0.586563 0.143059
O O8 0.500000 0.500000 0.500000
O O9 0.280815 0.476849 0.602605
O O10 0.350242 0.530218 0.702455
O O11 0.250000 0.750000 0.500000
O O12 0.353196 0.570498 0.433611
O O13 0.341245 0.370491 0.450765
O O14 0.143476 0.489974 0.551646
O O15 0.214299 0.818890 0.159710
O O16 0.085527 0.684372 0.134892
O O17 0.000000 0.842050 0.250000
O O18 0.500000 0.972427 0.750000
#
# Coordination Sequence:
#
# PCOD9298937 Si02
#       8
#     8   8   8   8   8   8   8   8
#     4  11  24  44  73 106 142 191 240 302 363 428
#     4  11  22  46  69  97 150 190 237 296 369 429
#     4  12  22  43  77 107 143 194 242 306 365 436
#     4  10  24  46  70  97 137 196 239 284 356 431
#     4  12  24  44  70 104 140 184 247 293 366 433
#     4  12  24  43  72 110 142 187 248 298 364 440
#     4  11  22  41  69 106 141 177 232 306 368 426
#     4  11  23  43  68 103 141 185 227 306 370 425
#
# _framework density 26.190698999999999
#
# number of rings (size 3 to 8) (size 9 to 14) (size 15 to 20)
#    0.000    0.750    5.000    4.125    0.000    2.000 
#    4.500    0.000    0.000    0.000    0.000    0.000 
#    0.000    0.000    0.000    0.000    0.000    0.000 
#
# Total GULP energy -179303.289655 kJ/mol
# GULP energy per Si atom -5603.227802 kJ/mol
# Density = 2.613109 g / cm^3
# Si number density = 26.190699 Si / 1000 Ang^3
#
#
#
# Elastic Constant Matrix: (Units=GPa)
#
#
# Indices 1 2 3 4 5 6 
#
# 1 157.8682 15.2606 12.8107 0.0000 1.6622 0.0000
# 2 15.2606 95.2352 28.5166 0.0000 0.3761 0.0000
# 3 12.8107 28.5166 105.8952 0.0000 -2.8980 0.0000
# 4 0.0000 0.0000 0.0000 19.8661 0.0000 -6.0551
# 5 1.6622 0.3761 -2.8980 0.0000 43.8434 0.0000
# 6 0.0000 0.0000 0.0000 -6.0551 0.0000 30.4737
#
#
#
# Elastic Compliance Matrix: (Units=1/GPa)
#
#
# Indices 1 2 3 4 5 6 
#
# 1 0.006466 -0.000869 -0.000556 0.000000 -0.000274 0.000000
# 2 -0.000869 0.011542 -0.003010 0.000000 -0.000265 0.000000
# 3 -0.000556 -0.003010 0.010341 0.000000 0.000730 0.000000
# 4 0.000000 0.000000 0.000000 0.053582 0.000000 0.010647
# 5 -0.000274 -0.000265 0.000730 0.000000 0.022869 0.000000
# 6 0.000000 0.000000 0.000000 0.010647 0.000000 0.034931
#
#
# Mechanical properties :
#
#
# Convention : Reuss Voigt Hill
#
# Bulk Modulus (GPa) = 51.33510 52.46384 51.89947
# Shear Modulus (GPa) = 32.23839 38.99734 35.61787
#
# Velocity S-wave (km/s) = 3.51224 3.86291 3.69174
# Velocity P-wave (km/s) = 6.00756 6.32227 6.16692
#
# Compressibility (1/GPa) = 0.01947985
#
# Stress axis : x y z
#
# Youngs Moduli (GPa) = 154.64643 86.64047 96.70069
#
# Poissons Ratio (x) = 0.07526 0.05375
# Poissons Ratio (y) = 0.13433 0.29110
# Poissons Ratio (z) = 0.08596 0.26081
#
# Static dielectric constant tensor:
#      x y z
#    x 2.197520 0.000000 -0.023110 
#    y 0.000000 1.951280 0.000000 
#    z -0.023110 0.000000 2.012420 
# 
# From -- ./inp_files/205720.got.cif
#   From: 2010.05.17/outbox.cif.g08.bks.cpg/sg15_103_cif.got.tgz:205720.got - 2010.06.03 18:47:42.
