data_PCOD9298173
_publ_section_title
;
Structure prediction by ZEFSAII (Michael W. Deem and Ramdas Pophale) SiO2 
 PCOD9298173
Probable space group: C 2/C
;
_chemical_formula_sum "Si O2"
_cell_formula_units_Z 28
_cell_length_a 4.997213
_cell_length_b 13.179017
_cell_length_c 16.407282
_cell_angle_alpha 90.000000
_cell_angle_beta 105.512566
_cell_angle_gamma 90.000000
_cell_volume 1041.193893
_symmetry_space_group_name_H-M "C 2/C"
_symmetry_group_IT_number 15
_symmetry_cell_setting 'monoclinic'
loop_
_space_group_symop_operation_xyz
x,y,z
-x,y,1/2-z
-x,-y,-z
x,-y,1/2+z
1/2+x,1/2+y,z
1/2-x,1/2+y,1/2-z
1/2-x,1/2-y,-z
1/2+x,1/2-y,1/2+z
loop_
_atom_site_type_symbol
_atom_site_label
_atom_site_fract_x
_atom_site_fract_y
_atom_site_fract_z
Si Si1 0.000000 0.465741 0.750000
Si Si2 0.750000 0.250000 0.000000
Si Si3 0.822396 0.123264 0.568053
Si Si4 0.500000 0.610843 0.750000
Si Si5 0.334686 0.107630 0.407410
O O1 0.731424 0.537615 0.728757
O O2 0.974645 0.405264 0.832153
O O3 0.457239 0.157906 0.004485
O O4 0.626945 0.301049 0.900433
O O5 0.863327 0.164566 0.662076
O O6 0.084240 0.153773 0.537037
O O7 0.766218 0.002987 0.574235
#
# Coordination Sequence:
#
# PCOD9298173 Si02
#       5
#     4   4   8   4   8
#     4  10  24  43  72 101 132 186 236 284 355 427
#     4  12  24  40  70 106 136 182 238 298 360 426
#     4  10  24  44  69  98 138 187 232 292 356 429
#     4  10  24  43  72 101 132 186 236 282 357 429
#     4  10  24  44  69  97 142 186 234 293 362 432
#
# _framework density 26.892202999999999
#
# number of rings (size 3 to 8) (size 9 to 14) (size 15 to 20)
#    0.000    1.714    0.000    1.714   20.000    1.143 
#    0.000    2.857    0.000    0.000    0.000    0.000 
#    0.000    0.000    0.000    0.000    0.000    0.000 
#
# Total GULP energy -77983.376690 kJ/mol
# GULP energy per Si atom -5570.241192 kJ/mol
# Density = 2.683100 g / cm^3
# Si number density = 26.892203 Si / 1000 Ang^3
#
#
#
# Elastic Constant Matrix: (Units=GPa)
#
#
# Indices 1 2 3 4 5 6 
#
# 1 160.0035 79.5397 102.0224 0.0000 -31.7791 0.0000
# 2 79.5397 135.6373 37.8617 0.0000 -23.5244 0.0000
# 3 102.0224 37.8617 194.8595 0.0000 -20.5429 0.0000
# 4 0.0000 0.0000 0.0000 -44.2220 0.0000 9.4949
# 5 -31.7791 -23.5244 -20.5429 0.0000 66.9822 0.0000
# 6 0.0000 0.0000 0.0000 9.4949 0.0000 52.0547
#
#
#
# Elastic Compliance Matrix: (Units=1/GPa)
#
#
# Indices 1 2 3 4 5 6 
#
# 1 0.013074 -0.005702 -0.005471 0.000000 0.002522 0.000000
# 2 -0.005702 0.010657 0.001058 0.000000 0.001362 0.000000
# 3 -0.005471 0.001058 0.007809 0.000000 0.000171 0.000000
# 4 0.000000 0.000000 0.000000 -0.021761 0.000000 0.003969
# 5 0.002522 0.001362 0.000171 0.000000 0.016657 0.000000
# 6 0.000000 0.000000 0.000000 0.003969 0.000000 0.018487
#
#
# Mechanical properties :
#
#
# Convention : Reuss Voigt Hill
#
# Bulk Modulus (GPa) = 88.41775 103.26087 95.83931
# Shear Modulus (GPa) = 72.54487 33.03475 52.78981
#
# Velocity S-wave (km/s) = 5.19949 3.50868 4.43540
# Velocity P-wave (km/s) = 8.30640 7.40917 7.87058
#
# Compressibility (1/GPa) = 0.01130995
#
# Stress axis : x y z
#
# Youngs Moduli (GPa) = 76.48717 93.83297 128.05901
#
# Poissons Ratio (x) = 0.53505 0.70066
# Poissons Ratio (y) = 0.43614 -0.13553
# Poissons Ratio (z) = 0.41849 -0.09931
#
# Static dielectric constant tensor:
#      x y z
#    x 1.957580 0.000000 -0.059330 
#    y 0.000000 2.158630 0.000000 
#    z -0.059330 0.000000 2.164000 
# 
# From -- ./inp_files/226114.got.cif
#   From: 2010.05.17/outbox.cif.g08.bks.cpg/sg15_114_cif.got.tgz:226114.got - 2010.06.03 18:47:42.
