data_PCOD9298010
_publ_section_title
;
Structure prediction by ZEFSAII (Michael W. Deem and Ramdas Pophale) SiO2 
 PCOD9298010
Probable space group: C 2/C
;
_chemical_formula_sum "Si O2"
_cell_formula_units_Z 64
_cell_length_a 14.824941
_cell_length_b 12.386614
_cell_length_c 27.222308
_cell_angle_alpha 90.000000
_cell_angle_beta 141.531172
_cell_angle_gamma 90.000000
_cell_volume 3109.731393
_symmetry_space_group_name_H-M "C 2/C"
_symmetry_group_IT_number 15
_symmetry_cell_setting 'monoclinic'
loop_
_space_group_symop_operation_xyz
x,y,z
-x,y,1/2-z
-x,-y,-z
x,-y,1/2+z
1/2+x,1/2+y,z
1/2-x,1/2+y,1/2-z
1/2-x,1/2-y,-z
1/2+x,1/2-y,1/2+z
loop_
_atom_site_type_symbol
_atom_site_label
_atom_site_fract_x
_atom_site_fract_y
_atom_site_fract_z
Si Si1 0.433296 0.132809 0.925175
Si Si2 0.094878 0.418275 0.972576
Si Si3 0.841000 0.933081 0.002458
Si Si4 0.173683 0.416602 0.828749
Si Si5 0.082222 0.224773 0.637052
Si Si6 0.673703 0.839666 0.322178
Si Si7 0.366342 0.689026 0.730154
Si Si8 0.662156 0.688893 0.505668
O O1 0.274279 0.114844 0.835189
O O2 0.540459 0.040878 0.950357
O O3 0.410680 0.120249 0.973781
O O4 0.514698 0.244750 0.950103
O O5 0.248455 0.406896 0.011672
O O6 0.985983 0.342586 0.896406
O O7 0.740905 0.907939 0.912096
O O8 0.869247 0.061703 0.015760
O O9 0.981721 0.857340 0.062738
O O10 0.217562 0.535536 0.829907
O O11 0.201441 0.307103 0.811337
O O12 0.000000 0.421963 0.750000
O O13 0.243881 0.226655 0.684410
O O14 0.078326 0.187533 0.691197
O O15 0.500000 0.829067 0.250000
O O16 0.741457 0.807490 0.403564
O O17 0.500000 0.668583 0.750000
O O18 0.750000 0.750000 0.500000
#
# Coordination Sequence:
#
# PCOD9298010 Si02
#       8
#     8   8   8   8   8   8   8   8
#     4  11  24  41  68  92 134 178 221 268 336 406
#     4  11  22  43  64  94 132 174 220 269 329 406
#     4  11  23  40  72  97 133 170 225 277 329 399
#     4   9  20  39  65  92 127 170 215 271 325 378
#     4  12  25  40  66  99 130 174 222 270 334 389
#     4  10  24  43  64  97 133 167 219 276 329 394
#     4  11  24  42  63  95 135 172 223 273 328 391
#     4  11  23  44  70  99 128 171 226 270 339 398
#
# _framework density 20.580556000000001
#
# number of rings (size 3 to 8) (size 9 to 14) (size 15 to 20)
#    0.000    1.250    2.500    3.375    3.500    3.000 
#    0.000    0.625    0.000    0.000    0.000    0.000 
#    0.000    0.000    0.000    0.000    0.000    0.000 
#
# Total GULP energy -178714.575884 kJ/mol
# GULP energy per Si atom -5584.830496 kJ/mol
# Density = 2.053371 g / cm^3
# Si number density = 20.580556 Si / 1000 Ang^3
#
#
#
# Elastic Constant Matrix: (Units=GPa)
#
#
# Indices 1 2 3 4 5 6 
#
# 1 72.1835 20.3409 35.1486 0.0000 20.2944 0.0000
# 2 20.3409 33.9685 -3.2377 0.0000 13.9641 0.0000
# 3 35.1486 -3.2377 82.1412 0.0000 7.5754 0.0000
# 4 0.0000 0.0000 0.0000 17.5374 0.0000 2.3960
# 5 20.2944 13.9641 7.5754 0.0000 27.7380 0.0000
# 6 0.0000 0.0000 0.0000 2.3960 0.0000 19.0440
#
#
#
# Elastic Compliance Matrix: (Units=1/GPa)
#
#
# Indices 1 2 3 4 5 6 
#
# 1 0.024857 -0.012025 -0.010250 0.000000 -0.009334 0.000000
# 2 -0.012025 0.043815 0.008305 0.000000 -0.015528 0.000000
# 3 -0.010250 0.008305 0.017010 0.000000 -0.001327 0.000000
# 4 0.000000 0.000000 0.000000 0.058018 0.000000 -0.007300
# 5 -0.009334 -0.015528 -0.001327 0.000000 0.051060 0.000000
# 6 0.000000 0.000000 0.000000 -0.007300 0.000000 0.053428
#
#
# Mechanical properties :
#
#
# Convention : Reuss Voigt Hill
#
# Bulk Modulus (GPa) = 17.31855 32.53296 24.92575
# Shear Modulus (GPa) = 16.92760 21.93331 19.43045
#
# Velocity S-wave (km/s) = 2.87105 3.26809 3.07598
# Velocity P-wave (km/s) = 4.40725 5.48475 4.97525
#
# Compressibility (1/GPa) = 0.05774156
#
# Stress axis : x y z
#
# Youngs Moduli (GPa) = 40.22974 22.82347 58.78979
#
# Poissons Ratio (x) = 0.27445 0.60258
# Poissons Ratio (y) = 0.48375 -0.48822
# Poissons Ratio (z) = 0.41234 -0.18954
#
# Static dielectric constant tensor:
#      x y z
#    x 1.663420 0.000000 0.015350 
#    y 0.000000 1.762050 0.000000 
#    z 0.015350 0.000000 1.730320 
# 
# From -- ./inp_files/296164.got.cif
#   From: 2010.05.17/outbox.cif.g08.bks.cpg/sg15_149_cif.got.tgz:296164.got - 2010.06.03 18:47:42.
