data_PCOD9298663
_publ_section_title
;
Structure prediction by ZEFSAII (Michael W. Deem and Ramdas Pophale) SiO2 
 PCOD9298663
Probable space group: C 2/C
;
_chemical_formula_sum "Si O2"
_cell_formula_units_Z 64
_cell_length_a 16.716679
_cell_length_b 27.561640
_cell_length_c 8.897083
_cell_angle_alpha 90.000000
_cell_angle_beta 41.045074
_cell_angle_gamma 90.000000
_cell_volume 2691.772394
_symmetry_space_group_name_H-M "C 2/C"
_symmetry_group_IT_number 15
_symmetry_cell_setting 'monoclinic'
loop_
_space_group_symop_operation_xyz
x,y,z
-x,y,1/2-z
-x,-y,-z
x,-y,1/2+z
1/2+x,1/2+y,z
1/2-x,1/2+y,1/2-z
1/2-x,1/2-y,-z
1/2+x,1/2-y,1/2+z
loop_
_atom_site_type_symbol
_atom_site_label
_atom_site_fract_x
_atom_site_fract_y
_atom_site_fract_z
Si Si1 0.286997 0.698390 0.384735
Si Si2 0.342495 0.563875 0.272506
Si Si3 0.398538 0.167041 0.113129
Si Si4 0.670281 0.878924 0.211636
Si Si5 0.446820 0.376508 0.157817
Si Si6 0.817812 0.970302 0.467397
Si Si7 0.858491 0.413089 0.916999
Si Si8 0.036870 0.774488 0.370219
O O1 0.250000 0.750000 0.500000
O O2 0.194532 0.674789 0.393114
O O3 0.269950 0.663262 0.549670
O O4 0.415744 0.708966 0.128579
O O5 0.215601 0.583705 0.519647
O O6 0.377376 0.519995 0.332711
O O7 0.445107 0.605446 0.106244
O O8 0.329041 0.541373 0.125670
O O9 0.342791 0.130598 0.316871
O O10 0.415778 0.222611 0.143068
O O11 0.533787 0.143974 0.889057
O O12 0.689745 0.901927 0.347360
O O13 0.500000 0.368140 0.250000
O O14 0.370554 0.425126 0.296056
O O15 0.385830 0.324040 0.215123
O O16 0.680442 0.963610 0.605071
O O17 0.000000 0.414616 0.750000
O O18 0.000000 0.766931 0.250000
#
# Coordination Sequence:
#
# PCOD9298663 Si02
#       8
#     8   8   8   8   8   8   8   8
#     4  12  25  41  66  97 138 177 228 274 330 395
#     4  11  22  42  71 100 133 170 221 276 341 401
#     4  11  25  44  68  95 137 183 217 274 338 388
#     4  11  22  43  65  95 135 171 221 282 328 395
#     4   9  21  39  64  97 136 173 218 267 331 397
#     4  11  23  43  69  98 130 177 216 278 337 401
#     4  10  24  45  68  95 130 174 230 272 334 400
#     4  11  23  42  65 100 138 177 228 271 324 404
#
# _framework density 23.776156
#
# number of rings (size 3 to 8) (size 9 to 14) (size 15 to 20)
#    0.000    1.250    2.500    3.375    3.500    2.500 
#    0.000    8.750    0.000    0.000    0.000    0.000 
#    0.000    0.000    0.000    0.000    0.000    0.000 
#
# Total GULP energy -178606.445898 kJ/mol
# GULP energy per Si atom -5581.451434 kJ/mol
# Density = 2.372204 g / cm^3
# Si number density = 23.776156 Si / 1000 Ang^3
#
#
#
# Elastic Constant Matrix: (Units=GPa)
#
#
# Indices 1 2 3 4 5 6 
#
# 1 63.4047 14.3958 -8.5533 0.0000 18.0074 0.0000
# 2 14.3958 137.0477 26.8855 0.0000 9.2130 0.0000
# 3 -8.5533 26.8855 112.5256 0.0000 17.6596 0.0000
# 4 0.0000 0.0000 0.0000 25.6448 0.0000 9.4786
# 5 18.0074 9.2130 17.6596 0.0000 20.2636 0.0000
# 6 0.0000 0.0000 0.0000 9.4786 0.0000 32.3530
#
#
#
# Elastic Compliance Matrix: (Units=1/GPa)
#
#
# Indices 1 2 3 4 5 6 
#
# 1 0.024736 -0.002090 0.006580 0.000000 -0.026766 0.000000
# 2 -0.002090 0.007917 -0.002058 0.000000 0.000052 0.000000
# 3 0.006580 -0.002058 0.012337 0.000000 -0.015663 0.000000
# 4 0.000000 0.000000 0.000000 0.043730 0.000000 -0.012812
# 5 -0.026766 0.000052 -0.015663 0.000000 0.086762 0.000000
# 6 0.000000 0.000000 0.000000 -0.012812 0.000000 0.034663
#
#
# Mechanical properties :
#
#
# Convention : Reuss Voigt Hill
#
# Bulk Modulus (GPa) = 20.05908 42.04822 31.05365
# Shear Modulus (GPa) = 22.53294 34.33561 28.43428
#
# Velocity S-wave (km/s) = 3.08183 3.80428 3.46195
# Velocity P-wave (km/s) = 4.59549 6.08442 5.39160
#
# Compressibility (1/GPa) = 0.04985274
#
# Stress axis : x y z
#
# Youngs Moduli (GPa) = 40.42771 126.31696 81.05685
#
# Poissons Ratio (x) = 0.26398 -0.53336
# Poissons Ratio (y) = 0.08449 0.16685
# Poissons Ratio (z) = -0.26602 0.26002
#
# Static dielectric constant tensor:
#      x y z
#    x 2.014630 0.000000 -0.127840 
#    y 0.000000 1.947860 0.000000 
#    z -0.127840 0.000000 2.038100 
# 
# From -- ./inp_files/52794.got.cif
#   From: 2010.05.17/outbox.cif.g08.bks.cpg/sg15_27_cif.got.tgz:52794.got - 2010.06.03 18:47:42.
