data_PCOD9298835
_publ_section_title
;
Structure prediction by ZEFSAII (Michael W. Deem and Ramdas Pophale) SiO2 
 PCOD9298835
Probable space group: C 2/C
;
_chemical_formula_sum "Si O2"
_cell_formula_units_Z 44
_cell_length_a 10.401742
_cell_length_b 21.621188
_cell_length_c 14.417052
_cell_angle_alpha 90.000000
_cell_angle_beta 139.171547
_cell_angle_gamma 90.000000
_cell_volume 2119.847655
_symmetry_space_group_name_H-M "C 2/C"
_symmetry_group_IT_number 15
_symmetry_cell_setting 'monoclinic'
loop_
_space_group_symop_operation_xyz
x,y,z
-x,y,1/2-z
-x,-y,-z
x,-y,1/2+z
1/2+x,1/2+y,z
1/2-x,1/2+y,1/2-z
1/2-x,1/2-y,-z
1/2+x,1/2-y,1/2+z
loop_
_atom_site_type_symbol
_atom_site_label
_atom_site_fract_x
_atom_site_fract_y
_atom_site_fract_z
Si Si1 0.000000 0.376264 0.250000
Si Si2 0.182576 0.403658 0.886268
Si Si3 0.272128 0.576257 0.633311
Si Si4 0.571156 0.285294 0.457404
Si Si5 0.867752 0.695838 0.853421
Si Si6 0.787140 0.017851 0.841165
O O1 0.985769 0.330759 0.330231
O O2 0.815672 0.423786 0.163232
O O3 0.180629 0.453885 0.804176
O O4 0.000000 0.362574 0.750000
O O5 0.199352 0.442207 0.991695
O O6 0.361387 0.355878 0.990574
O O7 0.500000 0.593710 0.750000
O O8 0.147181 0.636910 0.587077
O O9 0.270131 0.532504 0.722386
O O10 0.750000 0.250000 0.500000
O O11 0.357972 0.286480 0.293641
O O12 0.543929 0.251806 0.540948
O O13 0.000000 0.000000 0.000000
#
# Coordination Sequence:
#
# PCOD9298835 Si02
#       6
#     4   8   8   8   8   8
#     4  10  24  46  64  94 144 188 218 274 364 414
#     4  12  23  38  62  99 128 165 228 282 332 401
#     4  11  20  40  65  91 129 175 216 277 346 391
#     4  12  22  40  69 101 131 173 229 287 336 406
#     4  11  23  41  67  95 135 178 221 279 347 411
#     4  11  22  41  68  95 131 180 226 274 337 422
#
# _framework density 20.756207
#
# number of rings (size 3 to 8) (size 9 to 14) (size 15 to 20)
#    0.000    0.727    6.364    2.727    0.000    1.455 
#    0.000    0.000    2.000    0.000    0.000    0.000 
#    0.000    0.000    0.000    0.000    0.000    0.000 
#
# Total GULP energy -122580.116433 kJ/mol
# GULP energy per Si atom -5571.823474 kJ/mol
# Density = 2.070897 g / cm^3
# Si number density = 20.756207 Si / 1000 Ang^3
#
#
#
# Elastic Constant Matrix: (Units=GPa)
#
#
# Indices 1 2 3 4 5 6 
#
# 1 83.0843 36.4488 0.9871 -0.0001 -24.0876 0.0000
# 2 36.4488 88.2350 28.0946 0.0000 -33.3466 0.0000
# 3 0.9871 28.0946 91.9396 -0.0001 -10.7676 -0.0001
# 4 -0.0001 0.0000 -0.0001 32.0404 -0.0001 -11.9916
# 5 -24.0876 -33.3466 -10.7676 -0.0001 32.6941 -0.0001
# 6 0.0000 0.0000 -0.0001 -11.9916 -0.0001 35.4439
#
#
#
# Elastic Compliance Matrix: (Units=1/GPa)
#
#
# Indices 1 2 3 4 5 6 
#
# 1 0.016298 -0.004234 0.002100 0.000000 0.008381 0.000000
# 2 -0.004234 0.020742 -0.004348 0.000000 0.016605 0.000000
# 3 0.002100 -0.004348 0.012320 0.000000 0.001170 0.000000
# 4 0.000000 0.000000 0.000000 0.035736 0.000000 0.012090
# 5 0.008381 0.016605 0.001170 0.000000 0.054083 0.000000
# 6 0.000000 0.000000 0.000000 0.012090 0.000000 0.032304
#
#
# Mechanical properties :
#
#
# Convention : Reuss Voigt Hill
#
# Bulk Modulus (GPa) = 27.47479 43.81333 35.64406
# Shear Modulus (GPa) = 25.43507 33.21757 29.32632
#
# Velocity S-wave (km/s) = 3.50440 4.00480 3.76293
# Velocity P-wave (km/s) = 5.44427 6.52219 6.00745
#
# Compressibility (1/GPa) = 0.03639701
#
# Stress axis : x y z
#
# Youngs Moduli (GPa) = 61.35631 48.21061 81.16957
#
# Poissons Ratio (x) = 0.20412 -0.17049
# Poissons Ratio (y) = 0.25978 0.35294
# Poissons Ratio (z) = -0.12887 0.20963
#
# Static dielectric constant tensor:
#      x y z
#    x 2.042420 0.000000 0.168080 
#    y 0.000000 1.755550 0.000000 
#    z 0.168080 0.000000 1.829100 
# 
# From -- ./inp_files/147256.got.cif
#   From: 2010.05.17/outbox.cif.g08.bks.cpg/sg15_74_cif.got.tgz:147256.got - 2010.06.03 18:47:42.
