data_PCOD9298813
_publ_section_title
;
Structure prediction by ZEFSAII (Michael W. Deem and Ramdas Pophale) SiO2 
 PCOD9298813
Probable space group: C 2/C
;
_chemical_formula_sum "Si O2"
_cell_formula_units_Z 44
_cell_length_a 21.241173
_cell_length_b 8.029210
_cell_length_c 14.412586
_cell_angle_alpha 90.000000
_cell_angle_beta 45.001831
_cell_angle_gamma 90.000000
_cell_volume 1738.169420
_symmetry_space_group_name_H-M "C 2/C"
_symmetry_group_IT_number 15
_symmetry_cell_setting 'monoclinic'
loop_
_space_group_symop_operation_xyz
x,y,z
-x,y,1/2-z
-x,-y,-z
x,-y,1/2+z
1/2+x,1/2+y,z
1/2-x,1/2+y,1/2-z
1/2-x,1/2-y,-z
1/2+x,1/2-y,1/2+z
loop_
_atom_site_type_symbol
_atom_site_label
_atom_site_fract_x
_atom_site_fract_y
_atom_site_fract_z
Si Si1 0.500000 0.162664 0.750000
Si Si2 0.167007 0.872263 0.601116
Si Si3 0.075826 0.466301 0.526655
Si Si4 0.150482 0.747424 0.812464
Si Si5 0.683286 0.881692 0.757609
Si Si6 0.892319 0.770375 0.348954
O O1 0.493069 0.048228 0.665624
O O2 0.627473 0.881615 0.559246
O O3 0.250000 0.750000 0.500000
O O4 0.084120 0.774926 0.644303
O O5 0.142384 0.874692 0.737232
O O6 0.162627 0.061981 0.571822
O O7 0.066596 0.317056 0.461235
O O8 0.127934 0.602327 0.412167
O O9 0.222489 0.809971 0.810651
O O10 0.190012 0.577413 0.727534
O O11 0.636465 0.782405 0.724250
O O12 0.000000 0.800280 0.250000
#
# Coordination Sequence:
#
# PCOD9298813 Si02
#       6
#     4   8   8   8   8   8
#     4  12  24  50  76 118 154 210 274 326 408 468
#     4  12  28  48  79 116 162 214 267 334 394 482
#     4  10  26  46  79 108 157 211 258 334 396 475
#     4  10  24  46  72 115 154 203 266 322 404 465
#     4  10  24  45  77 111 155 207 260 331 394 474
#     4  12  26  50  74 113 158 207 267 324 406 472
#
# _framework density 25.313987000000001
#
# number of rings (size 3 to 8) (size 9 to 14) (size 15 to 20)
#    1.091    0.000    1.818    3.273    5.091    3.636 
#    3.273    1.818    0.000    0.000    0.000    0.000 
#    0.000    0.000    0.000    0.000    0.000    0.000 
#
# Total GULP energy -122892.606118 kJ/mol
# GULP energy per Si atom -5586.027551 kJ/mol
# Density = 2.525637 g / cm^3
# Si number density = 25.313987 Si / 1000 Ang^3
#
#
#
# Elastic Constant Matrix: (Units=GPa)
#
#
# Indices 1 2 3 4 5 6 
#
# 1 114.8948 42.4552 12.9083 0.0003 16.8611 -0.0004
# 2 42.4552 130.7369 28.6474 0.0008 8.6015 -0.0012
# 3 12.9083 28.6474 108.0478 0.0001 37.1218 0.0000
# 4 0.0003 0.0008 0.0001 33.4074 -0.0003 19.2484
# 5 16.8611 8.6015 37.1218 -0.0003 45.6120 0.0003
# 6 -0.0004 -0.0012 0.0000 19.2484 0.0003 37.0914
#
#
#
# Elastic Compliance Matrix: (Units=1/GPa)
#
#
# Indices 1 2 3 4 5 6 
#
# 1 0.010419 -0.003344 0.001039 0.000000 -0.004067 0.000000
# 2 -0.003344 0.009197 -0.002593 0.000000 0.001612 0.000000
# 3 0.001039 -0.002593 0.013579 0.000000 -0.010947 0.000000
# 4 0.000000 0.000000 0.000000 0.042701 0.000001 -0.022160
# 5 -0.004067 0.001612 -0.010947 0.000001 0.032033 0.000000
# 6 0.000000 0.000000 0.000000 -0.022160 0.000000 0.038460
#
#
# Mechanical properties :
#
#
# Convention : Reuss Voigt Hill
#
# Bulk Modulus (GPa) = 42.73386 57.96681 50.35034
# Shear Modulus (GPa) = 30.49071 41.20009 35.84540
#
# Velocity S-wave (km/s) = 3.47436 4.03868 3.76710
# Velocity P-wave (km/s) = 5.74570 6.68556 6.23337
#
# Compressibility (1/GPa) = 0.02340065
#
# Stress axis : x y z
#
# Youngs Moduli (GPa) = 95.97693 108.73328 73.64047
#
# Poissons Ratio (x) = 0.36356 -0.07650
# Poissons Ratio (y) = 0.32091 0.19093
# Poissons Ratio (z) = -0.09971 0.28191
#
# Static dielectric constant tensor:
#      x y z
#    x 1.865570 0.000000 -0.040320 
#    y 0.000000 1.977050 0.000000 
#    z -0.040320 0.000000 2.068340 
# 
# From -- ./inp_files/166093.got.cif
#   From: 2010.05.17/outbox.cif.g08.bks.cpg/sg15_84_cif.got.tgz:166093.got - 2010.06.03 18:47:42.
