data_PCOD9298648
_publ_section_title
;
Structure prediction by ZEFSAII (Michael W. Deem and Ramdas Pophale) SiO2 
 PCOD9298648
Probable space group: C 2/C
;
_chemical_formula_sum "Si O2"
_cell_formula_units_Z 40
_cell_length_a 6.877468
_cell_length_b 19.974735
_cell_length_c 13.128952
_cell_angle_alpha 90.000000
_cell_angle_beta 94.258651
_cell_angle_gamma 90.000000
_cell_volume 1798.617907
_symmetry_space_group_name_H-M "C 2/C"
_symmetry_group_IT_number 15
_symmetry_cell_setting 'monoclinic'
loop_
_space_group_symop_operation_xyz
x,y,z
-x,y,1/2-z
-x,-y,-z
x,-y,1/2+z
1/2+x,1/2+y,z
1/2-x,1/2+y,1/2-z
1/2-x,1/2-y,-z
1/2+x,1/2-y,1/2+z
loop_
_atom_site_type_symbol
_atom_site_label
_atom_site_fract_x
_atom_site_fract_y
_atom_site_fract_z
Si Si1 0.066907 0.781101 0.552303
Si Si2 0.907825 0.169403 0.843356
Si Si3 0.000000 0.690594 0.750000
Si Si4 0.842785 0.067904 0.387205
Si Si5 0.675788 0.462469 0.384574
Si Si6 0.500000 0.991618 0.750000
O O1 0.250000 0.750000 0.500000
O O2 0.107938 0.854856 0.597007
O O3 0.914713 0.792725 0.451994
O O4 0.034973 0.735496 0.650253
O O5 0.692224 0.152247 0.796070
O O6 0.000000 0.208905 0.750000
O O7 0.042552 0.103467 0.860630
O O8 0.778532 0.039655 0.494556
O O9 0.662588 0.054093 0.308278
O O10 0.033393 0.025740 0.362941
O O11 0.872423 0.467632 0.327583
#
# Coordination Sequence:
#
# PCOD9298648 Si02
#       6
#     8   8   4   8   8   4
#     4  11  25  49  70 105 146 187 241 292 350 425
#     4  11  23  45  71 102 142 187 238 297 345 428
#     4  12  26  45  78  98 144 201 236 292 360 414
#     4  10  24  45  68 101 143 181 228 294 348 426
#     4  10  24  45  68 104 142 178 233 292 358 418
#     4  12  22  41  74 108 136 181 228 286 370 424
#
# _framework density 22.239298000000002
#
# number of rings (size 3 to 8) (size 9 to 14) (size 15 to 20)
#    0.000    1.200    2.000    3.000    2.800    4.800 
#   10.800    0.000    0.000    0.000    0.000    0.000 
#    0.000    0.000    0.000    0.000    0.000    0.000 
#
# Total GULP energy -111703.067661 kJ/mol
# GULP energy per Si atom -5585.153383 kJ/mol
# Density = 2.218868 g / cm^3
# Si number density = 22.239298 Si / 1000 Ang^3
#
#
#
# Elastic Constant Matrix: (Units=GPa)
#
#
# Indices 1 2 3 4 5 6 
#
# 1 119.7147 9.7791 36.0772 0.0000 -8.8962 0.0000
# 2 9.7791 47.0690 -0.8250 0.0000 -15.2487 0.0000
# 3 36.0772 -0.8250 130.4074 0.0000 -4.8108 0.0000
# 4 0.0000 0.0000 0.0000 25.2217 0.0000 -4.0517
# 5 -8.8962 -15.2487 -4.8108 0.0000 60.5575 0.0000
# 6 0.0000 0.0000 0.0000 -4.0517 0.0000 15.8486
#
#
#
# Elastic Compliance Matrix: (Units=1/GPa)
#
#
# Indices 1 2 3 4 5 6 
#
# 1 0.009322 -0.001747 -0.002563 0.000000 0.000726 0.000000
# 2 -0.001747 0.023477 0.000843 0.000000 0.005722 0.000000
# 3 -0.002563 0.000843 0.008401 0.000000 0.000503 0.000000
# 4 0.000000 0.000000 0.000000 0.041346 0.000000 0.010570
# 5 0.000726 0.005722 0.000503 0.000000 0.018101 0.000000
# 6 0.000000 0.000000 0.000000 0.010570 0.000000 0.065799
#
#
# Mechanical properties :
#
#
# Convention : Reuss Voigt Hill
#
# Bulk Modulus (GPa) = 29.18319 43.02819 36.10569
# Shear Modulus (GPa) = 27.05588 37.13623 32.09605
#
# Velocity S-wave (km/s) = 3.49173 4.09081 3.80309
# Velocity P-wave (km/s) = 5.42283 6.45777 5.96280
#
# Compressibility (1/GPa) = 0.03426630
#
# Stress axis : x y z
#
# Youngs Moduli (GPa) = 107.26988 42.59539 119.02930
#
# Poissons Ratio (x) = 0.07439 0.30510
# Poissons Ratio (y) = 0.18735 -0.10032
# Poissons Ratio (z) = 0.27496 -0.03590
#
# Static dielectric constant tensor:
#      x y z
#    x 1.776670 0.000000 -0.023910 
#    y 0.000000 1.825380 0.000000 
#    z -0.023910 0.000000 1.874910 
# 
# From -- ./inp_files/129186.got.cif
#   From: 2010.05.17/outbox.cif.g08.bks.cpg/sg15_65_cif.got.tgz:129186.got - 2010.06.03 18:47:42.
