data_PCOD9298739
_publ_section_title
;
Structure prediction by ZEFSAII (Michael W. Deem and Ramdas Pophale) SiO2 
 PCOD9298739
Probable space group: C 2/C
;
_chemical_formula_sum "Si O2"
_cell_formula_units_Z 44
_cell_length_a 8.002018
_cell_length_b 27.055377
_cell_length_c 11.752825
_cell_angle_alpha 90.000000
_cell_angle_beta 119.396406
_cell_angle_gamma 90.000000
_cell_volume 2216.845793
_symmetry_space_group_name_H-M "C 2/C"
_symmetry_group_IT_number 15
_symmetry_cell_setting 'monoclinic'
loop_
_space_group_symop_operation_xyz
x,y,z
-x,y,1/2-z
-x,-y,-z
x,-y,1/2+z
1/2+x,1/2+y,z
1/2-x,1/2+y,1/2-z
1/2-x,1/2-y,-z
1/2+x,1/2-y,1/2+z
loop_
_atom_site_type_symbol
_atom_site_label
_atom_site_fract_x
_atom_site_fract_y
_atom_site_fract_z
Si Si1 0.830429 0.147947 0.913564
Si Si2 0.372559 0.314195 0.811752
Si Si3 0.000000 0.282352 0.250000
Si Si4 0.500000 0.611482 0.750000
Si Si5 0.628137 0.950850 0.407209
Si Si6 0.000000 0.631264 0.250000
Si Si7 0.318092 0.940688 0.503771
O O1 0.647719 0.183485 0.867162
O O2 0.869649 0.142696 0.792389
O O3 0.776796 0.093970 0.944049
O O4 0.013390 0.170671 0.037218
O O5 0.500000 0.335634 0.750000
O O6 0.384978 0.255530 0.793026
O O7 0.159796 0.335247 0.742394
O O8 0.367025 0.578774 0.624120
O O9 0.500000 0.950795 0.250000
O O10 0.488228 0.942748 0.467575
O O11 0.715464 0.005096 0.455029
O O12 0.113182 0.596489 0.375721
#
# Coordination Sequence:
#
# PCOD9298739 Si02
#       7
#     8   8   4   4   8   4   8
#     4  12  22  46  68  98 135 180 227 282 343 408
#     4  10  25  43  68 101 132 183 225 286 346 399
#     4  10  24  45  71  96 134 170 236 286 344 408
#     4  12  24  41  67 100 136 177 225 276 336 410
#     4  11  22  42  69  92 135 185 220 277 344 400
#     4  12  22  46  70  98 148 173 231 288 334 416
#     4  11  24  42  66 101 135 178 229 274 340 409
#
# _framework density 19.848020999999999
#
# number of rings (size 3 to 8) (size 9 to 14) (size 15 to 20)
#    0.545    0.364    5.455    1.636    0.000    1.455 
#    8.182    1.818    0.000    0.000    0.000    0.000 
#    0.000    0.000    0.000    0.000    0.000    0.000 
#
# Total GULP energy -122890.337366 kJ/mol
# GULP energy per Si atom -5585.924426 kJ/mol
# Density = 1.980285 g / cm^3
# Si number density = 19.848021 Si / 1000 Ang^3
#
#
#
# Elastic Constant Matrix: (Units=GPa)
#
#
# Indices 1 2 3 4 5 6 
#
# 1 81.3238 49.1782 6.2565 0.0000 -0.1234 0.0000
# 2 49.1782 118.0086 26.1504 0.0000 5.4098 0.0000
# 3 6.2565 26.1504 65.3977 0.0000 15.9770 0.0000
# 4 0.0000 0.0000 0.0000 18.9829 0.0000 -3.9672
# 5 -0.1234 5.4098 15.9770 0.0000 36.8474 0.0000
# 6 0.0000 0.0000 0.0000 -3.9672 0.0000 6.4464
#
#
#
# Elastic Compliance Matrix: (Units=1/GPa)
#
#
# Indices 1 2 3 4 5 6 
#
# 1 0.016550 -0.007177 0.001136 0.000000 0.000617 0.000000
# 2 -0.007177 0.012413 -0.004279 0.000000 0.000009 0.000000
# 3 0.001136 -0.004279 0.018722 0.000000 -0.007486 0.000000
# 4 0.000000 0.000000 0.000000 0.060454 0.000000 0.037205
# 5 0.000617 0.000009 -0.007486 0.000000 0.030386 0.000000
# 6 0.000000 0.000000 0.000000 0.037205 0.000000 0.178022
#
#
# Mechanical properties :
#
#
# Convention : Reuss Voigt Hill
#
# Bulk Modulus (GPa) = 36.97559 47.54449 42.26004
# Shear Modulus (GPa) = 14.44241 24.66501 19.55371
#
# Velocity S-wave (km/s) = 2.70043 3.52901 3.14215
# Velocity P-wave (km/s) = 5.32850 6.37271 5.87386
#
# Compressibility (1/GPa) = 0.02704487
#
# Stress axis : x y z
#
# Youngs Moduli (GPa) = 60.42239 80.56289 53.41233
#
# Poissons Ratio (x) = 0.57820 -0.06067
# Poissons Ratio (y) = 0.43365 0.22855
# Poissons Ratio (z) = -0.06863 0.34473
#
# Static dielectric constant tensor:
#      x y z
#    x 1.741270 0.000000 -0.021310 
#    y 0.000000 1.692000 0.000000 
#    z -0.021310 0.000000 1.679110 
# 
# From -- ./inp_files/80017.got.cif
#   From: 2010.05.17/outbox.cif.g08.bks.cpg/sg15_41_cif.got.tgz:80017.got - 2010.06.03 18:47:42.
