data_PCOD9298201
_publ_section_title
;
Structure prediction by ZEFSAII (Michael W. Deem and Ramdas Pophale) SiO2 
 PCOD9298201
Probable space group: C 2/C
;
_chemical_formula_sum "Si O2"
_cell_formula_units_Z 52
_cell_length_a 16.717621
_cell_length_b 8.430146
_cell_length_c 15.439088
_cell_angle_alpha 90.000000
_cell_angle_beta 74.647861
_cell_angle_gamma 90.000000
_cell_volume 2098.219843
_symmetry_space_group_name_H-M "C 2/C"
_symmetry_group_IT_number 15
_symmetry_cell_setting 'monoclinic'
loop_
_space_group_symop_operation_xyz
x,y,z
-x,y,1/2-z
-x,-y,-z
x,-y,1/2+z
1/2+x,1/2+y,z
1/2-x,1/2+y,1/2-z
1/2-x,1/2-y,-z
1/2+x,1/2-y,1/2+z
loop_
_atom_site_type_symbol
_atom_site_label
_atom_site_fract_x
_atom_site_fract_y
_atom_site_fract_z
Si Si1 0.654750 0.795296 0.258641
Si Si2 0.304383 0.308424 0.339499
Si Si3 0.931038 0.369230 0.501878
Si Si4 0.500000 0.581433 0.250000
Si Si5 0.042841 0.193329 0.845275
Si Si6 0.591686 0.037828 0.156309
Si Si7 0.250782 0.369078 0.918514
O O1 0.619090 0.965699 0.240697
O O2 0.711943 0.786989 0.326823
O O3 0.575466 0.683686 0.266468
O O4 0.696482 0.470282 0.105193
O O5 0.332249 0.155720 0.386731
O O6 0.373250 0.316810 0.239391
O O7 0.945450 0.212380 0.554861
O O8 0.920888 0.383495 0.401257
O O9 0.843407 0.424502 0.563677
O O10 0.000000 0.500000 0.500000
O O11 0.511049 0.457642 0.167475
O O12 0.986517 0.346859 0.837054
O O13 0.720228 0.739417 0.168165
O O14 0.250000 0.250000 0.000000
#
# Coordination Sequence:
#
# PCOD9298201 Si02
#       7
#     8   8   8   4   8   8   8
#     4  12  26  43  75 113 146 201 262 325 383 462
#     4  12  25  44  77 108 146 207 256 319 386 460
#     4  10  24  43  74 104 153 203 245 314 400 464
#     4  12  26  44  72 114 150 192 266 326 394 440
#     4  11  22  45  74 105 150 199 256 315 390 465
#     4  11  24  44  73 111 153 202 254 325 395 464
#     4  12  24  48  72 109 161 196 252 320 387 465
#
# _framework density 24.782912
#
# number of rings (size 3 to 8) (size 9 to 14) (size 15 to 20)
#    0.000    0.615    6.154    0.923    2.154    1.846 
#    0.000    0.769    6.769    0.000    0.000    0.000 
#    0.000    0.000    0.000    0.000    0.000    0.000 
#
# Total GULP energy -144912.415909 kJ/mol
# GULP energy per Si atom -5573.554458 kJ/mol
# Density = 2.472651 g / cm^3
# Si number density = 24.782912 Si / 1000 Ang^3
#
#
#
# Elastic Constant Matrix: (Units=GPa)
#
#
# Indices 1 2 3 4 5 6 
#
# 1 181.1946 55.0481 39.1421 0.0000 -6.4691 0.0000
# 2 55.0481 139.3896 43.7127 0.0000 2.8583 0.0000
# 3 39.1421 43.7127 78.4364 0.0000 15.7298 0.0000
# 4 0.0000 0.0000 0.0000 41.4800 0.0000 -2.9507
# 5 -6.4691 2.8583 15.7298 0.0000 42.9208 0.0000
# 6 0.0000 0.0000 0.0000 -2.9507 0.0000 33.1662
#
#
#
# Elastic Compliance Matrix: (Units=1/GPa)
#
#
# Indices 1 2 3 4 5 6 
#
# 1 0.006755 -0.001841 -0.002778 0.000000 0.002159 0.000000
# 2 -0.001841 0.009262 -0.004386 0.000000 0.000713 0.000000
# 3 -0.002778 -0.004386 0.017923 0.000000 -0.006695 0.000000
# 4 0.000000 0.000000 0.000000 0.024262 0.000000 0.002158
# 5 0.002159 0.000713 -0.006695 0.000000 0.026030 0.000000
# 6 0.000000 0.000000 0.000000 0.002158 0.000000 0.030343
#
#
# Mechanical properties :
#
#
# Convention : Reuss Voigt Hill
#
# Bulk Modulus (GPa) = 62.77593 74.98073 68.87833
# Shear Modulus (GPa) = 36.25940 40.92124 38.59032
#
# Velocity S-wave (km/s) = 3.82917 4.06789 3.95033
# Velocity P-wave (km/s) = 6.70339 7.23770 6.97566
#
# Compressibility (1/GPa) = 0.01592967
#
# Stress axis : x y z
#
# Youngs Moduli (GPa) = 148.02889 107.96799 55.79553
#
# Poissons Ratio (x) = 0.19876 0.15501
# Poissons Ratio (y) = 0.27251 0.24472
# Poissons Ratio (z) = 0.41125 0.47356
#
# Static dielectric constant tensor:
#      x y z
#    x 2.045920 0.000000 0.034250 
#    y 0.000000 2.036750 0.000000 
#    z 0.034250 0.000000 2.113130 
# 
# From -- ./inp_files/242397.got.cif
#   From: 2010.05.17/outbox.cif.g08.bks.cpg/sg15_122_cif.got.tgz:242397.got - 2010.06.03 18:47:42.
