data_PCOD9298358
_publ_section_title
;
Structure prediction by ZEFSAII (Michael W. Deem and Ramdas Pophale) SiO2 
 PCOD9298358
Probable space group: C 2/C
;
_chemical_formula_sum "Si O2"
_cell_formula_units_Z 36
_cell_length_a 12.196358
_cell_length_b 12.559849
_cell_length_c 11.438405
_cell_angle_alpha 90.000000
_cell_angle_beta 116.726288
_cell_angle_gamma 90.000000
_cell_volume 1564.990899
_symmetry_space_group_name_H-M "C 2/C"
_symmetry_group_IT_number 15
_symmetry_cell_setting 'monoclinic'
loop_
_space_group_symop_operation_xyz
x,y,z
-x,y,1/2-z
-x,-y,-z
x,-y,1/2+z
1/2+x,1/2+y,z
1/2-x,1/2+y,1/2-z
1/2-x,1/2-y,-z
1/2+x,1/2-y,1/2+z
loop_
_atom_site_type_symbol
_atom_site_label
_atom_site_fract_x
_atom_site_fract_y
_atom_site_fract_z
Si Si1 0.373057 0.522102 0.122578
Si Si2 0.381600 0.067241 0.397969
Si Si3 0.634943 0.309319 0.500298
Si Si4 0.500000 0.825114 0.750000
Si Si5 0.035674 0.746535 0.892640
O O1 0.500000 0.496508 0.250000
O O2 0.250011 0.514000 0.141863
O O3 0.359223 0.434793 0.014698
O O4 0.393160 0.642437 0.089277
O O5 0.403306 0.099894 0.272834
O O6 0.389286 0.168109 0.488900
O O7 0.500000 0.000000 0.500000
O O8 0.750000 0.250000 0.500000
O O9 0.533732 0.255200 0.369317
O O10 0.594598 0.276287 0.609376
O O11 0.000000 0.699433 0.750000
#
# Coordination Sequence:
#
# PCOD9298358 Si02
#       5
#     8   8   8   4   8
#     4  11  23  44  72 105 138 181 235 295 357 403
#     4  11  25  48  69 103 140 189 233 290 347 430
#     4  11  23  45  70  99 139 186 232 288 352 427
#     4  10  24  44  68  96 136 182 234 278 352 422
#     4  10  24  44  68 105 141 182 233 289 349 417
#
# _framework density 23.003326999999999
#
# number of rings (size 3 to 8) (size 9 to 14) (size 15 to 20)
#    0.000    1.333    1.111    4.000    7.778    0.000 
#    4.000    0.000    0.000    0.000    0.000    0.000 
#    0.000    0.000    0.000    0.000    0.000    0.000 
#
# Total GULP energy -100502.514265 kJ/mol
# GULP energy per Si atom -5583.473015 kJ/mol
# Density = 2.295097 g / cm^3
# Si number density = 23.003327 Si / 1000 Ang^3
#
#
#
# Elastic Constant Matrix: (Units=GPa)
#
#
# Indices 1 2 3 4 5 6 
#
# 1 150.8028 17.7971 26.0820 0.0000 -12.6400 0.0000
# 2 17.7971 51.5876 10.2083 0.0000 8.3853 0.0000
# 3 26.0820 10.2083 81.3667 0.0000 -24.6406 0.0000
# 4 0.0000 0.0000 0.0000 -7.5124 0.0000 -6.7952
# 5 -12.6400 8.3853 -24.6406 0.0000 36.7644 0.0000
# 6 0.0000 0.0000 0.0000 -6.7952 0.0000 33.1347
#
#
#
# Elastic Compliance Matrix: (Units=1/GPa)
#
#
# Indices 1 2 3 4 5 6 
#
# 1 0.007363 -0.002633 -0.001357 0.000000 0.002223 0.000000
# 2 -0.002633 0.022770 -0.004842 0.000000 -0.009344 0.000000
# 3 -0.001357 -0.004842 0.016970 0.000000 0.012012 0.000000
# 4 0.000000 0.000000 0.000000 -0.112284 0.000000 -0.023027
# 5 0.002223 -0.009344 0.012012 0.000000 0.038146 0.000000
# 6 0.000000 0.000000 0.000000 -0.023027 0.000000 0.025457
#
#
# Mechanical properties :
#
#
# Convention : Reuss Voigt Hill
#
# Bulk Modulus (GPa) = 33.96902 43.54798 38.75850
# Shear Modulus (GPa) = 193.05284 27.78866 110.42075
#
# Velocity S-wave (km/s) = 9.17094 3.47944 6.93587
# Velocity P-wave (km/s) = 11.26679 5.92573 9.00152
#
# Compressibility (1/GPa) = 0.02943859
#
# Stress axis : x y z
#
# Youngs Moduli (GPa) = 135.81693 43.91761 58.92723
#
# Poissons Ratio (x) = 0.11563 0.07995
# Poissons Ratio (y) = 0.35759 0.28535
# Poissons Ratio (z) = 0.18427 0.21267
#
# Static dielectric constant tensor:
#      x y z
#    x 1.967320 0.000000 0.005260 
#    y 0.000000 1.822180 0.000000 
#    z 0.005260 0.000000 1.852820 
# 
# From -- ./inp_files/84359.got.cif
#   From: 2010.05.17/outbox.cif.g08.bks.cpg/sg15_43_cif.got.tgz:84359.got - 2010.06.03 18:47:42.
