data_PCOD9298231
_publ_section_title
;
Structure prediction by ZEFSAII (Michael W. Deem and Ramdas Pophale) SiO2 
 PCOD9298231
Probable space group: C 2/C
;
_chemical_formula_sum "Si O2"
_cell_formula_units_Z 48
_cell_length_a 13.441405
_cell_length_b 14.406777
_cell_length_c 24.654346
_cell_angle_alpha 90.000000
_cell_angle_beta 152.434799
_cell_angle_gamma 90.000000
_cell_volume 2209.320124
_symmetry_space_group_name_H-M "C 2/C"
_symmetry_group_IT_number 15
_symmetry_cell_setting 'monoclinic'
loop_
_space_group_symop_operation_xyz
x,y,z
-x,y,1/2-z
-x,-y,-z
x,-y,1/2+z
1/2+x,1/2+y,z
1/2-x,1/2+y,1/2-z
1/2-x,1/2-y,-z
1/2+x,1/2-y,1/2+z
loop_
_atom_site_type_symbol
_atom_site_label
_atom_site_fract_x
_atom_site_fract_y
_atom_site_fract_z
Si Si1 0.422155 0.342766 0.825316
Si Si2 0.748882 0.453964 0.235924
Si Si3 0.501565 0.267318 0.131355
Si Si4 0.208337 0.241550 0.560959
Si Si5 0.500000 0.684296 0.750000
Si Si6 0.000000 0.585167 0.750000
Si Si7 0.924403 0.593189 0.937502
O O1 0.379895 0.452223 0.811869
O O2 0.589420 0.302943 0.862270
O O3 0.186871 0.300909 0.699907
O O4 0.541719 0.299964 0.936012
O O5 0.578549 0.369284 0.148883
O O6 0.897867 0.464788 0.253965
O O7 0.895496 0.421713 0.358449
O O8 0.532843 0.259528 0.211469
O O9 0.250000 0.250000 0.000000
O O10 0.309450 0.153232 0.638640
O O11 0.068060 0.318996 0.522102
O O12 0.697802 0.617117 0.853400
O O13 0.000000 0.500000 0.000000
#
# Coordination Sequence:
#
# PCOD9298231 Si02
#       7
#     8   8   8   8   4   4   8
#     4  11  24  48  72 100 152 191 238 313 356 444
#     4  11  26  46  72 115 141 190 255 297 372 447
#     4  11  25  45  69 104 146 191 241 299 369 435
#     4  11  24  46  74 101 149 193 242 303 373 437
#     4  10  24  44  62 108 138 174 244 297 357 432
#     4  12  26  46  76 108 146 200 244 301 381 446
#     4  11  26  44  73 107 140 187 247 309 359 440
#
# _framework density 21.726140999999998
#
# number of rings (size 3 to 8) (size 9 to 14) (size 15 to 20)
#    0.000    1.000    5.000    1.000   11.667    2.667 
#    0.000    0.000    0.000    0.000    0.000    0.000 
#    0.000    0.000    0.000    0.000    0.000    0.000 
#
# Total GULP energy -133956.250903 kJ/mol
# GULP energy per Si atom -5581.510454 kJ/mol
# Density = 2.167669 g / cm^3
# Si number density = 21.726141 Si / 1000 Ang^3
#
#
#
# Elastic Constant Matrix: (Units=GPa)
#
#
# Indices 1 2 3 4 5 6 
#
# 1 78.1418 2.6851 14.8440 0.0000 8.3671 -0.0001
# 2 2.6851 92.8113 27.0116 -0.0005 4.5913 -0.0004
# 3 14.8440 27.0116 131.3678 -0.0001 21.4011 -0.0023
# 4 0.0000 -0.0005 -0.0001 31.5423 -0.0004 4.5207
# 5 8.3671 4.5913 21.4011 -0.0004 28.4349 0.0001
# 6 -0.0001 -0.0004 -0.0023 4.5207 0.0001 74.9079
#
#
#
# Elastic Compliance Matrix: (Units=1/GPa)
#
#
# Indices 1 2 3 4 5 6 
#
# 1 0.013326 0.000063 -0.001001 0.000000 -0.003178 0.000000
# 2 0.000063 0.011461 -0.002347 0.000000 -0.000103 0.000000
# 3 -0.001001 -0.002347 0.009230 0.000000 -0.006273 0.000000
# 4 0.000000 0.000000 0.000000 0.031980 0.000000 -0.001930
# 5 -0.003178 -0.000103 -0.006273 0.000000 0.040841 0.000000
# 6 0.000000 0.000000 0.000000 -0.001930 0.000000 0.013466
#
#
# Mechanical properties :
#
#
# Convention : Reuss Voigt Hill
#
# Bulk Modulus (GPa) = 36.43465 43.48914 39.96189
# Shear Modulus (GPa) = 36.75870 44.16237 40.46053
#
# Velocity S-wave (km/s) = 4.11775 4.51342 4.32012
# Velocity P-wave (km/s) = 6.27807 6.87181 6.58164
#
# Compressibility (1/GPa) = 0.02744640
#
# Stress axis : x y z
#
# Youngs Moduli (GPa) = 75.04404 87.25343 108.34393
#
# Poissons Ratio (x) = -0.00550 0.10845
# Poissons Ratio (y) = -0.00473 0.25428
# Poissons Ratio (z) = 0.07512 0.20478
#
# Static dielectric constant tensor:
#      x y z
#    x 1.862770 0.000000 -0.027780 
#    y 0.000000 1.530420 -0.000020 
#    z -0.027780 -0.000020 1.788330 
# 
# From -- ./inp_files/314176.got.cif
#   From: 2010.05.17/outbox.cif.g08.bks.cpg/sg15_158_cif.got.tgz:314176.got - 2010.06.03 18:47:42.
