data_PCOD9298586
_publ_section_title
;
Structure prediction by ZEFSAII (Michael W. Deem and Ramdas Pophale) SiO2 
 PCOD9298586
Probable space group: C 2/C
;
_chemical_formula_sum "Si O2"
_cell_formula_units_Z 44
_cell_length_a 21.119512
_cell_length_b 10.058669
_cell_length_c 9.544704
_cell_angle_alpha 90.000000
_cell_angle_beta 62.463809
_cell_angle_gamma 90.000000
_cell_volume 1797.930380
_symmetry_space_group_name_H-M "C 2/C"
_symmetry_group_IT_number 15
_symmetry_cell_setting 'monoclinic'
loop_
_space_group_symop_operation_xyz
x,y,z
-x,y,1/2-z
-x,-y,-z
x,-y,1/2+z
1/2+x,1/2+y,z
1/2-x,1/2+y,1/2-z
1/2-x,1/2-y,-z
1/2+x,1/2-y,1/2+z
loop_
_atom_site_type_symbol
_atom_site_label
_atom_site_fract_x
_atom_site_fract_y
_atom_site_fract_z
Si Si1 0.106453 0.318342 0.331003
Si Si2 0.688003 0.411742 0.640389
Si Si3 0.218731 0.452336 0.689017
Si Si4 0.000000 0.555695 0.750000
Si Si5 0.603711 0.814177 0.641112
Si Si6 0.046052 0.932169 0.333840
O O1 0.146029 0.227069 0.175989
O O2 0.155543 0.447783 0.297898
O O3 0.106501 0.248902 0.483700
O O4 0.029482 0.357373 0.348270
O O5 0.744463 0.399400 0.708845
O O6 0.725720 0.465608 0.463216
O O7 0.626232 0.513514 0.748507
O O8 0.180342 0.342898 0.630761
O O9 0.064711 0.454746 0.652628
O O10 0.558358 0.725327 0.795814
O O11 0.000000 0.978773 0.250000
O O12 0.000000 0.000000 0.500000
#
# Coordination Sequence:
#
# PCOD9298586 Si02
#       6
#     8   8   8   4   8   8
#     4  11  24  45  73 112 154 197 258 316 380 457
#     4  12  26  45  72 105 157 192 255 318 381 459
#     4  11  25  47  73 110 145 204 255 312 386 445
#     4  10  24  44  76 112 150 200 256 310 388 444
#     4  11  23  48  79 105 153 196 261 320 374 464
#     4  12  27  50  75 111 149 202 256 311 393 451
#
# _framework density 24.472583
#
# number of rings (size 3 to 8) (size 9 to 14) (size 15 to 20)
#    0.000    0.727    2.727    4.364    3.818    1.455 
#    6.545    0.000    0.000    0.000    0.000    0.000 
#    0.000    0.000    0.000    0.000    0.000    0.000 
#
# Total GULP energy -123121.639195 kJ/mol
# GULP energy per Si atom -5596.438145 kJ/mol
# Density = 2.441688 g / cm^3
# Si number density = 24.472583 Si / 1000 Ang^3
#
#
#
# Elastic Constant Matrix: (Units=GPa)
#
#
# Indices 1 2 3 4 5 6 
#
# 1 115.2057 25.8999 13.5463 0.0000 8.5501 0.0000
# 2 25.8999 75.3241 25.1845 0.0000 -0.1074 0.0000
# 3 13.5463 25.1845 124.7100 0.0000 -4.7440 0.0000
# 4 0.0000 0.0000 0.0000 29.2710 0.0000 -2.7732
# 5 8.5501 -0.1074 -4.7440 0.0000 37.9581 0.0000
# 6 0.0000 0.0000 0.0000 -2.7732 0.0000 12.9811
#
#
#
# Elastic Compliance Matrix: (Units=1/GPa)
#
#
# Indices 1 2 3 4 5 6 
#
# 1 0.009611 -0.003142 -0.000494 0.000000 -0.002235 0.000000
# 2 -0.003142 0.015269 -0.002726 0.000000 0.000410 0.000000
# 3 -0.000494 -0.002726 0.008668 0.000000 0.001187 0.000000
# 4 0.000000 0.000000 0.000000 0.034869 0.000000 0.007449
# 5 -0.002235 0.000410 0.001187 0.000000 0.026998 0.000000
# 6 0.000000 0.000000 0.000000 0.007449 0.000000 0.078627
#
#
# Mechanical properties :
#
#
# Convention : Reuss Voigt Hill
#
# Bulk Modulus (GPa) = 48.02906 49.38903 48.70905
# Shear Modulus (GPa) = 25.81204 32.74930 29.28067
#
# Velocity S-wave (km/s) = 3.25119 3.66212 3.46275
# Velocity P-wave (km/s) = 5.81050 6.17306 5.99452
#
# Compressibility (1/GPa) = 0.02082073
#
# Stress axis : x y z
#
# Youngs Moduli (GPa) = 104.05134 65.49359 115.36622
#
# Poissons Ratio (x) = 0.20581 0.05703
# Poissons Ratio (y) = 0.32698 0.31454
# Poissons Ratio (z) = 0.05144 0.17857
#
# Static dielectric constant tensor:
#      x y z
#    x 1.911710 0.000000 0.001310 
#    y 0.000000 2.028870 0.000000 
#    z 0.001310 0.000000 1.942190 
# 
# From -- ./inp_files/54353.got.cif
#   From: 2010.05.17/outbox.cif.g08.bks.cpg/sg15_28_cif.got.tgz:54353.got - 2010.06.03 18:47:42.
