data_PCOD9298217
_publ_section_title
;
Structure prediction by ZEFSAII (Michael W. Deem and Ramdas Pophale) SiO2 
 PCOD9298217
Probable space group: C 2/C
;
_chemical_formula_sum "Si O2"
_cell_formula_units_Z 40
_cell_length_a 30.694540
_cell_length_b 7.649740
_cell_length_c 9.385093
_cell_angle_alpha 90.000000
_cell_angle_beta 140.258885
_cell_angle_gamma 90.000000
_cell_volume 1408.849226
_symmetry_space_group_name_H-M "C 2/C"
_symmetry_group_IT_number 15
_symmetry_cell_setting 'monoclinic'
loop_
_space_group_symop_operation_xyz
x,y,z
-x,y,1/2-z
-x,-y,-z
x,-y,1/2+z
1/2+x,1/2+y,z
1/2-x,1/2+y,1/2-z
1/2-x,1/2-y,-z
1/2+x,1/2-y,1/2+z
loop_
_atom_site_type_symbol
_atom_site_label
_atom_site_fract_x
_atom_site_fract_y
_atom_site_fract_z
Si Si1 0.052170 0.968349 0.501363
Si Si2 0.828355 0.251021 0.073113
Si Si3 0.603809 0.941509 0.905575
Si Si4 0.557379 0.861380 0.511675
Si Si5 0.738807 0.111686 0.600879
O O1 0.121211 0.861805 0.700920
O O2 0.000000 0.899103 0.250000
O O3 0.077306 0.163803 0.530592
O O4 0.000000 0.000000 0.500000
O O5 0.894793 0.479567 0.423104
O O6 0.881090 0.363304 0.110766
O O7 0.773255 0.407196 0.975880
O O8 0.545810 0.873054 0.651803
O O9 0.707899 0.627517 0.636205
O O10 0.668110 0.837565 0.004048
O O11 0.500000 0.898626 0.250000
O O12 0.750000 0.250000 0.500000
#
# Coordination Sequence:
#
# PCOD9298217 Si02
#       5
#     8   8   8   8   8
#     4  11  26  50  81 122 173 224 287 362 439 517
#     4  10  24  45  80 119 160 223 278 349 434 505
#     4  10  24  43  77 113 156 216 272 353 422 501
#     4  11  23  44  75 114 165 215 286 348 423 510
#     4  10  24  48  78 118 169 214 288 347 433 521
#
# _framework density 28.391964000000002
#
# number of rings (size 3 to 8) (size 9 to 14) (size 15 to 20)
#    1.200    0.400    0.000    4.200    2.800    2.400 
#    0.000    5.000    0.000    0.000    0.000    0.000 
#    0.000    0.000    0.000    0.000    0.000    0.000 
#
# Total GULP energy -111534.795640 kJ/mol
# GULP energy per Si atom -5576.739782 kJ/mol
# Density = 2.832734 g / cm^3
# Si number density = 28.391964 Si / 1000 Ang^3
#
#
#
# Elastic Constant Matrix: (Units=GPa)
#
#
# Indices 1 2 3 4 5 6 
#
# 1 143.3221 60.7134 43.7177 0.0000 -33.5440 0.0000
# 2 60.7134 191.3683 99.0437 0.0000 -27.1076 0.0000
# 3 43.7177 99.0437 241.1014 0.0000 -8.0268 0.0000
# 4 0.0000 0.0000 0.0000 46.6317 0.0000 -4.8415
# 5 -33.5440 -27.1076 -8.0268 0.0000 45.3834 0.0000
# 6 0.0000 0.0000 0.0000 -4.8415 0.0000 46.9334
#
#
#
# Elastic Compliance Matrix: (Units=1/GPa)
#
#
# Indices 1 2 3 4 5 6 
#
# 1 0.009281 -0.001735 -0.000781 0.000000 0.005685 0.000000
# 2 -0.001735 0.007565 -0.002701 0.000000 0.002758 0.000000
# 3 -0.000781 -0.002701 0.005357 0.000000 -0.001243 0.000000
# 4 0.000000 0.000000 0.000000 0.021677 0.000000 0.002236
# 5 0.005685 0.002758 -0.001243 0.000000 0.027664 0.000000
# 6 0.000000 0.000000 0.000000 0.002236 0.000000 0.021537
#
#
# Mechanical properties :
#
#
# Convention : Reuss Voigt Hill
#
# Bulk Modulus (GPa) = 84.96736 109.19348 97.08042
# Shear Modulus (GPa) = 46.53803 52.61084 49.57443
#
# Velocity S-wave (km/s) = 4.05301 4.30934 4.18314
# Velocity P-wave (km/s) = 7.20375 7.95634 7.58938
#
# Compressibility (1/GPa) = 0.01176923
#
# Stress axis : x y z
#
# Youngs Moduli (GPa) = 107.74542 132.19368 186.65602
#
# Poissons Ratio (x) = 0.22936 0.14576
# Poissons Ratio (y) = 0.18694 0.50418
# Poissons Ratio (z) = 0.08414 0.35707
#
# Static dielectric constant tensor:
#      x y z
#    x 2.557860 0.000000 0.229640 
#    y 0.000000 2.188890 0.000000 
#    z 0.229640 0.000000 2.406150 
# 
# From -- ./inp_files/65275.got.cif
#   From: 2010.05.17/outbox.cif.g08.bks.cpg/sg15_33_cif.got.tgz:65275.got - 2010.06.03 18:47:42.
