data_PCOD9298214
_publ_section_title
;
Structure prediction by ZEFSAII (Michael W. Deem and Ramdas Pophale) SiO2 
 PCOD9298214
Probable space group: C 2/C
;
_chemical_formula_sum "Si O2"
_cell_formula_units_Z 48
_cell_length_a 6.873694
_cell_length_b 17.386512
_cell_length_c 21.379483
_cell_angle_alpha 90.000000
_cell_angle_beta 49.838770
_cell_angle_gamma 90.000000
_cell_volume 1952.654579
_symmetry_space_group_name_H-M "C 2/C"
_symmetry_group_IT_number 15
_symmetry_cell_setting 'monoclinic'
loop_
_space_group_symop_operation_xyz
x,y,z
-x,y,1/2-z
-x,-y,-z
x,-y,1/2+z
1/2+x,1/2+y,z
1/2-x,1/2+y,1/2-z
1/2-x,1/2-y,-z
1/2+x,1/2-y,1/2+z
loop_
_atom_site_type_symbol
_atom_site_label
_atom_site_fract_x
_atom_site_fract_y
_atom_site_fract_z
Si Si1 0.581018 0.458818 0.660270
Si Si2 0.546533 0.105742 0.113561
Si Si3 0.552872 0.183840 0.617629
Si Si4 0.673514 0.525657 0.903430
Si Si5 0.758202 0.192586 0.235706
Si Si6 0.085571 0.761157 0.973146
O O1 0.500000 0.479587 0.750000
O O2 0.492561 0.519316 0.625522
O O3 0.433428 0.378429 0.677923
O O4 0.885262 0.439396 0.593765
O O5 0.339908 0.168683 0.176398
O O6 0.809698 0.153278 0.062926
O O7 0.602968 0.037276 0.149607
O O8 0.676514 0.103609 0.611122
O O9 0.386788 0.225300 0.704185
O O10 0.391008 0.198310 0.586881
O O11 0.795426 0.237301 0.553612
O O12 0.500000 0.500000 0.000000
O O13 0.500000 0.194180 0.250000
O O14 0.250000 0.750000 0.000000
#
# Coordination Sequence:
#
# PCOD9298214 Si02
#       6
#     8   8   8   8   8   8
#     4  10  24  43  77 104 143 216 270 312 405 491
#     4  11  23  44  78 102 147 204 261 315 403 478
#     4  11  25  42  68 113 153 191 257 329 392 468
#     4  12  25  44  72 116 163 198 254 341 410 482
#     4  11  20  45  78  99 139 206 266 311 379 474
#     4  11  23  40  69 105 145 198 252 318 387 470
#
# _framework density 24.581918999999999
#
# number of rings (size 3 to 8) (size 9 to 14) (size 15 to 20)
#    0.000    1.000    5.000    1.000    4.667    2.000 
#    0.000    2.500   36.667    0.000    0.000    0.000 
#    0.000    0.000    0.000    0.000    0.000    0.000 
#
# Total GULP energy -133698.375339 kJ/mol
# GULP energy per Si atom -5570.765639 kJ/mol
# Density = 2.452597 g / cm^3
# Si number density = 24.581919 Si / 1000 Ang^3
#
#
#
# Elastic Constant Matrix: (Units=GPa)
#
#
# Indices 1 2 3 4 5 6 
#
# 1 187.0267 48.9380 30.9698 0.0000 26.3650 0.0000
# 2 48.9380 124.0910 38.0302 0.0000 23.1177 0.0000
# 3 30.9698 38.0302 64.1734 0.0000 7.6349 0.0000
# 4 0.0000 0.0000 0.0000 24.2137 0.0000 -9.2261
# 5 26.3650 23.1177 7.6349 0.0000 40.1963 0.0000
# 6 0.0000 0.0000 0.0000 -9.2261 0.0000 52.4714
#
#
#
# Elastic Compliance Matrix: (Units=1/GPa)
#
#
# Indices 1 2 3 4 5 6 
#
# 1 0.006462 -0.001383 -0.001933 0.000000 -0.003076 0.000000
# 2 -0.001383 0.011077 -0.005368 0.000000 -0.004444 0.000000
# 3 -0.001933 -0.005368 0.019622 0.000000 0.000628 0.000000
# 4 0.000000 0.000000 0.000000 0.044265 0.000000 0.007783
# 5 -0.003076 -0.004444 0.000628 0.000000 0.029332 0.000000
# 6 0.000000 0.000000 0.000000 0.007783 0.000000 0.020427
#
#
# Mechanical properties :
#
#
# Convention : Reuss Voigt Hill
#
# Bulk Modulus (GPa) = 50.52334 67.90745 59.21539
# Shear Modulus (GPa) = 32.22653 40.53316 36.37985
#
# Velocity S-wave (km/s) = 3.62468 4.06507 3.85118
# Velocity P-wave (km/s) = 6.17377 7.05110 6.62697
#
# Compressibility (1/GPa) = 0.01979283
#
# Stress axis : x y z
#
# Youngs Moduli (GPa) = 154.73917 90.27589 50.96243
#
# Poissons Ratio (x) = 0.12486 0.09852
# Poissons Ratio (y) = 0.21402 0.27358
# Poissons Ratio (z) = 0.29913 0.48463
#
# Static dielectric constant tensor:
#      x y z
#    x 2.024200 0.000000 0.755470 
#    y 0.000000 4.484760 -0.000080 
#    z 0.755470 -0.000080 -8.746200 
# 
# From -- ./inp_files/285759.got.cif
#   From: 2010.05.17/outbox.cif.g08.bks.cpg/sg15_143_cif.got.tgz:285759.got - 2010.06.03 18:47:42.
