data_PCOD9298977
_publ_section_title
;
Structure prediction by ZEFSAII (Michael W. Deem and Ramdas Pophale) SiO2 
 PCOD9298977
Probable space group: C 2/C
;
_chemical_formula_sum "Si O2"
_cell_formula_units_Z 44
_cell_length_a 13.680408
_cell_length_b 8.761499
_cell_length_c 16.419670
_cell_angle_alpha 90.000000
_cell_angle_beta 112.446469
_cell_angle_gamma 90.000000
_cell_volume 1818.968107
_symmetry_space_group_name_H-M "C 2/C"
_symmetry_group_IT_number 15
_symmetry_cell_setting 'monoclinic'
loop_
_space_group_symop_operation_xyz
x,y,z
-x,y,1/2-z
-x,-y,-z
x,-y,1/2+z
1/2+x,1/2+y,z
1/2-x,1/2+y,1/2-z
1/2-x,1/2-y,-z
1/2+x,1/2-y,1/2+z
loop_
_atom_site_type_symbol
_atom_site_label
_atom_site_fract_x
_atom_site_fract_y
_atom_site_fract_z
Si Si1 0.362258 0.669101 0.287103
Si Si2 0.946691 0.334532 0.974303
Si Si3 0.333301 0.999242 0.808048
Si Si4 0.635589 0.311988 0.433397
Si Si5 0.500000 0.849719 0.750000
Si Si6 0.100837 0.850456 0.886954
O O1 0.274360 0.541931 0.271016
O O2 0.369060 0.707802 0.192856
O O3 0.476467 0.606693 0.344256
O O4 0.336484 0.822493 0.328505
O O5 0.850840 0.373721 0.883477
O O6 0.039216 0.227029 0.966049
O O7 0.897023 0.272881 0.041322
O O8 0.000000 0.500000 0.000000
O O9 0.433737 0.960947 0.785683
O O10 0.750000 0.250000 0.500000
O O11 0.583387 0.246117 0.332092
O O12 0.655144 0.491302 0.426718
#
# Coordination Sequence:
#
# PCOD9298977 Si02
#       6
#     8   8   8   8   4   8
#     4  11  26  44  75 103 143 192 244 299 374 437
#     4  11  25  47  70 102 148 187 240 305 363 439
#     4  11  26  44  73 103 141 195 240 301 374 438
#     4  11  27  45  75 109 148 195 245 303 369 439
#     4  10  24  46  72 102 152 188 248 302 362 442
#     4  11  25  47  71 104 149 188 245 303 361 446
#
# _framework density 24.189539
#
# number of rings (size 3 to 8) (size 9 to 14) (size 15 to 20)
#    0.000    1.091    1.818    2.727   15.273    2.182 
#    0.000    0.000    0.000    0.000    0.000    0.000 
#    0.000    0.000    0.000    0.000    0.000    0.000 
#
# Total GULP energy -123061.021606 kJ/mol
# GULP energy per Si atom -5593.682800 kJ/mol
# Density = 2.413448 g / cm^3
# Si number density = 24.189539 Si / 1000 Ang^3
#
#
#
# Elastic Constant Matrix: (Units=GPa)
#
#
# Indices 1 2 3 4 5 6 
#
# 1 66.4189 10.9161 29.2676 0.0000 31.4017 0.0000
# 2 10.9161 93.0369 29.8154 0.0000 4.7563 0.0000
# 3 29.2676 29.8154 100.0749 0.0000 9.9010 0.0000
# 4 0.0000 0.0000 0.0000 38.1152 0.0000 7.7948
# 5 31.4017 4.7563 9.9010 0.0000 45.7563 0.0000
# 6 0.0000 0.0000 0.0000 7.7948 0.0000 37.7100
#
#
#
# Elastic Compliance Matrix: (Units=1/GPa)
#
#
# Indices 1 2 3 4 5 6 
#
# 1 0.025190 -0.000313 -0.005688 0.000000 -0.016024 0.000000
# 2 -0.000313 0.011897 -0.003425 0.000000 -0.000280 0.000000
# 3 -0.005688 -0.003425 0.012523 0.000000 0.001550 0.000000
# 4 0.000000 0.000000 0.000000 0.027394 0.000000 -0.005663
# 5 -0.016024 -0.000280 0.001550 0.000000 0.032546 0.000000
# 6 0.000000 0.000000 0.000000 -0.005663 0.000000 0.027689
#
#
# Mechanical properties :
#
#
# Convention : Reuss Voigt Hill
#
# Bulk Modulus (GPa) = 32.51338 44.39208 38.45273
# Shear Modulus (GPa) = 30.05815 36.95175 33.50495
#
# Velocity S-wave (km/s) = 3.52889 3.91268 3.72573
# Velocity P-wave (km/s) = 5.48401 6.22926 5.86848
#
# Compressibility (1/GPa) = 0.03075657
#
# Stress axis : x y z
#
# Youngs Moduli (GPa) = 39.69869 84.05352 79.85196
#
# Poissons Ratio (x) = 0.02635 0.45421
# Poissons Ratio (y) = 0.01244 0.27350
# Poissons Ratio (z) = 0.22581 0.28789
#
# Static dielectric constant tensor:
#      x y z
#    x 1.925390 0.000000 -0.021810 
#    y 0.000000 1.860310 0.000000 
#    z -0.021810 0.000000 2.104920 
# 
# From -- ./inp_files/203080.got.cif
#   From: 2010.05.17/outbox.cif.g08.bks.cpg/sg15_102_cif.got.tgz:203080.got - 2010.06.03 18:47:42.
