data_PCOD9298031
_publ_section_title
;
Structure prediction by ZEFSAII (Michael W. Deem and Ramdas Pophale) SiO2 
 PCOD9298031
Probable space group: C 2/C
;
_chemical_formula_sum "Si O2"
_cell_formula_units_Z 56
_cell_length_a 12.838079
_cell_length_b 17.113729
_cell_length_c 17.967728
_cell_angle_alpha 90.000000
_cell_angle_beta 136.306172
_cell_angle_gamma 90.000000
_cell_volume 2727.049583
_symmetry_space_group_name_H-M "C 2/C"
_symmetry_group_IT_number 15
_symmetry_cell_setting 'monoclinic'
loop_
_space_group_symop_operation_xyz
x,y,z
-x,y,1/2-z
-x,-y,-z
x,-y,1/2+z
1/2+x,1/2+y,z
1/2-x,1/2+y,1/2-z
1/2-x,1/2-y,-z
1/2+x,1/2-y,1/2+z
loop_
_atom_site_type_symbol
_atom_site_label
_atom_site_fract_x
_atom_site_fract_y
_atom_site_fract_z
Si Si1 0.229196 0.656956 0.163678
Si Si2 0.346954 0.877027 0.625082
Si Si3 0.348808 0.525461 0.969292
Si Si4 0.884050 0.620152 0.967522
Si Si5 0.188753 0.205468 0.541424
Si Si6 0.832795 0.775853 0.868194
Si Si7 0.349689 0.510344 0.147279
O O1 0.254795 0.741200 0.140578
O O2 0.246031 0.676603 0.259050
O O3 0.338269 0.590918 0.187431
O O4 0.063830 0.628130 0.052290
O O5 0.500000 0.861906 0.750000
O O6 0.364630 0.867089 0.546073
O O7 0.217303 0.817695 0.582530
O O8 0.282041 0.962289 0.612847
O O9 0.289737 0.614123 0.929072
O O10 0.500000 0.500000 0.000000
O O11 0.370981 0.521987 0.070212
O O12 0.811029 0.684424 0.874653
O O13 0.799629 0.538771 0.911364
O O14 0.250000 0.250000 0.500000
O O15 0.008389 0.212618 0.443875
O O16 0.500000 0.465815 0.250000
#
# Coordination Sequence:
#
# PCOD9298031 Si02
#       7
#     8   8   8   8   8   8   8
#     4  11  23  42  68  93 135 180 222 283 350 412
#     4  11  22  42  68  96 134 179 226 287 350 417
#     4  11  23  43  67  98 138 178 230 284 348 419
#     4  10  24  43  65  99 134 176 227 284 345 419
#     4  11  23  43  65  96 137 176 230 287 345 415
#     4  11  23  42  67  98 130 182 227 282 350 416
#     4  11  24  41  68  97 133 181 224 283 348 415
#
# _framework density 20.535012999999999
#
# number of rings (size 3 to 8) (size 9 to 14) (size 15 to 20)
#    0.000    1.143    4.286    1.714    0.000    1.714 
#    5.143    0.000    0.000    0.000    0.000    0.000 
#    0.000    0.000    0.000    0.000    0.000    0.000 
#
# Total GULP energy -156051.135346 kJ/mol
# GULP energy per Si atom -5573.254834 kJ/mol
# Density = 2.048827 g / cm^3
# Si number density = 20.535013 Si / 1000 Ang^3
#
#
#
# Elastic Constant Matrix: (Units=GPa)
#
#
# Indices 1 2 3 4 5 6 
#
# 1 78.2809 33.6615 -3.6029 0.0000 10.1001 0.0000
# 2 33.6615 103.5913 9.4647 0.0000 -0.1402 0.0000
# 3 -3.6029 9.4647 42.0539 -0.0001 4.1944 -0.0001
# 4 0.0000 0.0000 -0.0001 23.6297 -0.0001 -1.6380
# 5 10.1001 -0.1402 4.1944 -0.0001 25.8511 0.0000
# 6 0.0000 0.0000 -0.0001 -1.6380 0.0000 34.9928
#
#
#
# Elastic Compliance Matrix: (Units=1/GPa)
#
#
# Indices 1 2 3 4 5 6 
#
# 1 0.016221 -0.005585 0.003336 0.000000 -0.006909 0.000000
# 2 -0.005585 0.011783 -0.003410 0.000000 0.002799 0.000000
# 3 0.003336 -0.003410 0.025375 0.000000 -0.005439 0.000000
# 4 0.000000 0.000000 0.000000 0.042457 0.000000 0.001987
# 5 -0.006909 0.002799 -0.005439 0.000000 0.042280 0.000000
# 6 0.000000 0.000000 0.000000 0.001987 0.000000 0.028670
#
#
# Mechanical properties :
#
#
# Convention : Reuss Voigt Hill
#
# Bulk Modulus (GPa) = 23.77481 33.66362 28.71922
# Shear Modulus (GPa) = 26.02465 29.18825 27.60645
#
# Velocity S-wave (km/s) = 3.56382 3.77422 3.67053
# Velocity P-wave (km/s) = 5.34203 5.95163 5.65505
#
# Compressibility (1/GPa) = 0.04206132
#
# Stress axis : x y z
#
# Youngs Moduli (GPa) = 61.64800 84.86454 39.40942
#
# Poissons Ratio (x) = 0.47398 -0.13146
# Poissons Ratio (y) = 0.34431 0.13437
# Poissons Ratio (z) = -0.20565 0.28936
#
# Static dielectric constant tensor:
#      x y z
#    x 1.881810 0.000000 -0.096800 
#    y 0.000000 1.770690 0.000000 
#    z -0.096800 0.000000 1.815840 
# 
# From -- ./inp_files/199595.got.cif
#   From: 2010.05.17/outbox.cif.g08.bks.cpg/sg15_100_cif.got.tgz:199595.got - 2010.06.03 18:47:42.
