data_PCOD9298032
_publ_section_title
;
Structure prediction by ZEFSAII (Michael W. Deem and Ramdas Pophale) SiO2 
 PCOD9298032
Probable space group: C 2/C
;
_chemical_formula_sum "Si O2"
_cell_formula_units_Z 64
_cell_length_a 17.013140
_cell_length_b 7.968518
_cell_length_c 29.049908
_cell_angle_alpha 90.000000
_cell_angle_beta 134.311192
_cell_angle_gamma 90.000000
_cell_volume 2818.062371
_symmetry_space_group_name_H-M "C 2/C"
_symmetry_group_IT_number 15
_symmetry_cell_setting 'monoclinic'
loop_
_space_group_symop_operation_xyz
x,y,z
-x,y,1/2-z
-x,-y,-z
x,-y,1/2+z
1/2+x,1/2+y,z
1/2-x,1/2+y,1/2-z
1/2-x,1/2-y,-z
1/2+x,1/2-y,1/2+z
loop_
_atom_site_type_symbol
_atom_site_label
_atom_site_fract_x
_atom_site_fract_y
_atom_site_fract_z
Si Si1 0.757026 0.903034 0.071640
Si Si2 0.538782 0.436612 0.078181
Si Si3 0.059569 0.482676 0.163313
Si Si4 0.901249 0.197313 0.245330
Si Si5 0.678791 0.460659 0.563314
Si Si6 0.311029 0.087970 0.543665
Si Si7 0.833775 0.615024 0.383059
Si Si8 0.515246 0.366476 0.174569
O O1 0.708687 0.723877 0.061843
O O2 0.887114 0.892334 0.134787
O O3 0.691800 0.024906 0.079478
O O4 0.736506 0.947880 0.010169
O O5 0.643632 0.534099 0.101535
O O6 0.566166 0.247171 0.072545
O O7 0.528300 0.431262 0.127831
O O8 0.429664 0.508679 0.010355
O O9 0.093136 0.334149 0.211514
O O10 0.136889 0.505808 0.150245
O O11 0.046906 0.667120 0.183747
O O12 0.940837 0.427526 0.095269
O O13 0.779914 0.207899 0.175094
O O14 0.000000 0.233429 0.250000
O O15 0.918112 0.001941 0.268061
O O16 0.776369 0.569899 0.582670
O O17 0.250000 0.250000 0.500000
#
# Coordination Sequence:
#
# PCOD9298032 Si02
#       8
#     8   8   8   8   8   8   8   8
#     4  12  22  42  72 100 139 177 231 285 349 425
#     4  10  24  43  66 100 144 177 225 282 350 420
#     4  11  28  47  72 107 139 188 237 288 354 417
#     4  12  28  49  72 100 138 186 243 298 347 409
#     4  11  23  39  69 105 138 184 222 278 353 425
#     4  12  24  41  73 103 146 184 229 286 355 427
#     4  11  27  47  68 103 141 183 236 298 349 412
#     4  11  23  48  71  99 138 186 236 286 349 418
#
# _framework density 22.710637999999999
#
# number of rings (size 3 to 8) (size 9 to 14) (size 15 to 20)
#    0.000    0.750    3.750    3.375    7.000    3.500 
#    2.250    0.000    0.000    0.000    0.000    0.000 
#    0.000    0.000    0.000    0.000    0.000    0.000 
#
# Total GULP energy -178839.936284 kJ/mol
# GULP energy per Si atom -5588.748009 kJ/mol
# Density = 2.265895 g / cm^3
# Si number density = 22.710638 Si / 1000 Ang^3
#
#
#
# Elastic Constant Matrix: (Units=GPa)
#
#
# Indices 1 2 3 4 5 6 
#
# 1 150.6307 25.3696 9.3769 0.0000 0.0815 0.0000
# 2 25.3696 74.6287 9.7997 0.0000 -18.1933 0.0000
# 3 9.3769 9.7997 47.6991 0.0000 6.5090 0.0000
# 4 0.0000 0.0000 0.0000 32.2186 0.0000 -9.7990
# 5 0.0815 -18.1933 6.5090 0.0000 26.4688 0.0000
# 6 0.0000 0.0000 0.0000 -9.7990 0.0000 43.1121
#
#
#
# Elastic Compliance Matrix: (Units=1/GPa)
#
#
# Indices 1 2 3 4 5 6 
#
# 1 0.007146 -0.002790 -0.000587 0.000000 -0.001795 0.000000
# 2 -0.002790 0.018419 -0.005137 0.000000 0.013932 0.000000
# 3 -0.000587 -0.005137 0.023402 0.000000 -0.009284 0.000000
# 4 0.000000 0.000000 0.000000 0.033343 0.000000 0.007579
# 5 -0.001795 0.013932 -0.009284 0.000000 0.049645 0.000000
# 6 0.000000 0.000000 0.000000 0.007579 0.000000 0.024918
#
#
# Mechanical properties :
#
#
# Convention : Reuss Voigt Hill
#
# Bulk Modulus (GPa) = 31.30810 40.22787 35.76799
# Shear Modulus (GPa) = 27.09328 35.58737 31.34033
#
# Velocity S-wave (km/s) = 3.45770 3.96282 3.71884
# Velocity P-wave (km/s) = 5.45495 6.22015 5.85007
#
# Compressibility (1/GPa) = 0.03194062
#
# Stress axis : x y z
#
# Youngs Moduli (GPa) = 139.93580 54.29145 42.73078
#
# Poissons Ratio (x) = 0.15147 0.02507
# Poissons Ratio (y) = 0.39041 0.21950
# Poissons Ratio (z) = 0.08209 0.27889
#
# Static dielectric constant tensor:
#      x y z
#    x 1.829710 0.000000 -0.021380 
#    y 0.000000 1.922090 0.000000 
#    z -0.021380 0.000000 1.814460 
# 
# From -- ./inp_files/313167.got.cif
#   From: 2010.05.17/outbox.cif.g08.bks.cpg/sg15_157_cif.got.tgz:313167.got - 2010.06.03 18:47:42.
