data_PCOD9298328
_publ_section_title
;
Structure prediction by ZEFSAII (Michael W. Deem and Ramdas Pophale) SiO2 
 PCOD9298328
Probable space group: C 2/C
;
_chemical_formula_sum "Si O2"
_cell_formula_units_Z 32
_cell_length_a 13.299007
_cell_length_b 6.678150
_cell_length_c 16.119219
_cell_angle_alpha 90.000000
_cell_angle_beta 62.376451
_cell_angle_gamma 90.000000
_cell_volume 1268.409588
_symmetry_space_group_name_H-M "C 2/C"
_symmetry_group_IT_number 15
_symmetry_cell_setting 'monoclinic'
loop_
_space_group_symop_operation_xyz
x,y,z
-x,y,1/2-z
-x,-y,-z
x,-y,1/2+z
1/2+x,1/2+y,z
1/2-x,1/2+y,1/2-z
1/2-x,1/2-y,-z
1/2+x,1/2-y,1/2+z
loop_
_atom_site_type_symbol
_atom_site_label
_atom_site_fract_x
_atom_site_fract_y
_atom_site_fract_z
Si Si1 0.648950 0.337105 0.982989
Si Si2 0.722190 0.687866 0.835986
Si Si3 0.588392 0.943397 0.366593
Si Si4 0.923906 0.139167 0.355594
O O1 0.692459 0.485625 0.894465
O O2 0.591862 0.153950 0.956308
O O3 0.750000 0.250000 0.000000
O O4 0.577177 0.482595 0.069780
O O5 0.803282 0.641062 0.727498
O O6 0.798228 0.819603 0.870332
O O7 0.613932 0.821867 0.855172
O O8 0.479275 0.849798 0.363129
O O9 0.000000 0.064771 0.250000
#
# Coordination Sequence:
#
# PCOD9298328 Si02
#       4
#     8   8   8   8
#     4  12  24  43  72 102 138 186 230 290 359 421
#     4  11  23  46  69  98 142 182 236 290 356 423
#     4  11  23  44  70  99 137 188 230 293 357 417
#     4  10  24  44  67 102 141 180 239 289 346 426
#
# _framework density 25.228445000000001
#
# number of rings (size 3 to 8) (size 9 to 14) (size 15 to 20)
#    0.000    1.000    5.000    1.500    0.000    1.000 
#    4.500    1.250    0.000    0.000    0.000    0.000 
#    0.000    0.000    0.000    0.000    0.000    0.000 
#
# Total GULP energy -89738.672705 kJ/mol
# GULP energy per Si atom -5608.667044 kJ/mol
# Density = 2.517102 g / cm^3
# Si number density = 25.228445 Si / 1000 Ang^3
#
#
#
# Elastic Constant Matrix: (Units=GPa)
#
#
# Indices 1 2 3 4 5 6 
#
# 1 70.7663 37.1293 16.2210 0.0000 0.8636 0.0000
# 2 37.1293 123.2597 36.3108 0.0000 -2.3117 0.0000
# 3 16.2210 36.3108 109.0983 0.0000 5.1463 0.0000
# 4 0.0000 0.0000 0.0000 47.7955 0.0000 6.5241
# 5 0.8636 -2.3117 5.1463 0.0000 30.2656 0.0000
# 6 0.0000 0.0000 0.0000 6.5241 0.0000 46.3546
#
#
#
# Elastic Compliance Matrix: (Units=1/GPa)
#
#
# Indices 1 2 3 4 5 6 
#
# 1 0.016879 -0.004843 -0.000864 0.000000 -0.000705 0.000000
# 2 -0.004843 0.010428 -0.002817 0.000000 0.001414 0.000000
# 3 -0.000864 -0.002817 0.010324 0.000000 -0.001946 0.000000
# 4 0.000000 0.000000 0.000000 0.021332 0.000000 -0.003002
# 5 -0.000705 0.001414 -0.001946 0.000000 0.033500 0.000000
# 6 0.000000 0.000000 0.000000 -0.003002 0.000000 0.021995
#
#
# Mechanical properties :
#
#
# Convention : Reuss Voigt Hill
#
# Bulk Modulus (GPa) = 48.58749 53.60518 51.09633
# Shear Modulus (GPa) = 36.13536 39.11403 37.62469
#
# Velocity S-wave (km/s) = 3.78871 3.94178 3.86600
# Velocity P-wave (km/s) = 6.20000 6.48158 6.34235
#
# Compressibility (1/GPa) = 0.02058143
#
# Stress axis : x y z
#
# Youngs Moduli (GPa) = 59.24619 95.89325 96.86084
#
# Poissons Ratio (x) = 0.46440 0.08374
# Poissons Ratio (y) = 0.28692 0.27290
# Poissons Ratio (z) = 0.05122 0.27017
#
# Static dielectric constant tensor:
#      x y z
#    x 1.939670 0.000000 -0.021330 
#    y 0.000000 2.022600 0.000000 
#    z -0.021330 0.000000 1.977870 
# 
# From -- ./inp_files/201805.got.cif
#   From: 2010.05.17/outbox.cif.g08.bks.cpg/sg15_101_cif.got.tgz:201805.got - 2010.06.03 18:47:42.
