data_PCOD9298742
_publ_section_title
;
Structure prediction by ZEFSAII (Michael W. Deem and Ramdas Pophale) SiO2 
 PCOD9298742
Probable space group: C 2/C
;
_chemical_formula_sum "Si O2"
_cell_formula_units_Z 56
_cell_length_a 15.608967
_cell_length_b 23.384558
_cell_length_c 8.760673
_cell_angle_alpha 90.000000
_cell_angle_beta 122.152998
_cell_angle_gamma 90.000000
_cell_volume 2707.288026
_symmetry_space_group_name_H-M "C 2/C"
_symmetry_group_IT_number 15
_symmetry_cell_setting 'monoclinic'
loop_
_space_group_symop_operation_xyz
x,y,z
-x,y,1/2-z
-x,-y,-z
x,-y,1/2+z
1/2+x,1/2+y,z
1/2-x,1/2+y,1/2-z
1/2-x,1/2-y,-z
1/2+x,1/2-y,1/2+z
loop_
_atom_site_type_symbol
_atom_site_label
_atom_site_fract_x
_atom_site_fract_y
_atom_site_fract_z
Si Si1 0.152389 0.204244 0.287422
Si Si2 0.750594 0.211938 0.653815
Si Si3 0.946822 0.176749 0.984897
Si Si4 0.383928 0.880900 0.613675
Si Si5 0.030154 0.060357 0.957766
Si Si6 0.578802 0.011687 0.940937
Si Si7 0.752219 0.594575 0.271458
O O1 0.220120 0.253811 0.279021
O O2 0.100019 0.201706 0.402804
O O3 0.214166 0.145185 0.342798
O O4 0.058649 0.202580 0.078688
O O5 0.750000 0.250000 0.500000
O O6 0.865143 0.190532 0.780285
O O7 0.673888 0.158801 0.561126
O O8 0.970807 0.109225 0.997481
O O9 0.500000 0.863401 0.750000
O O10 0.320805 0.875824 0.708468
O O11 0.385726 0.948883 0.579757
O O12 0.000000 0.064375 0.750000
O O13 0.150674 0.069149 0.098135
O O14 0.000000 0.000000 0.000000
O O15 0.500000 0.041274 0.750000
O O16 0.675641 0.048589 0.078593
O O17 0.500000 0.000000 0.000000
#
# Coordination Sequence:
#
# PCOD9298742 Si02
#       7
#     8   8   8   8   8   8   8
#     4  10  24  45  71  99 137 185 226 290 341 417
#     4  12  25  41  75 101 134 185 231 290 347 409
#     4  10  25  47  66  99 145 175 230 286 348 411
#     4  11  24  43  66 102 137 175 235 284 347 413
#     4  11  27  42  71 106 140 185 235 287 355 423
#     4  11  23  42  66  97 138 178 223 287 345 413
#     4  11  23  43  70  97 142 179 231 284 353 410
#
# _framework density 20.684908
#
# number of rings (size 3 to 8) (size 9 to 14) (size 15 to 20)
#    0.000    1.143    4.286    1.286   12.000    1.143 
#    0.000    0.000    0.000    0.000    0.000    0.000 
#    0.000    0.000    0.000    0.000    0.000    0.000 
#
# Total GULP energy -156198.567760 kJ/mol
# GULP energy per Si atom -5578.520277 kJ/mol
# Density = 2.063783 g / cm^3
# Si number density = 20.684908 Si / 1000 Ang^3
#
#
#
# Elastic Constant Matrix: (Units=GPa)
#
#
# Indices 1 2 3 4 5 6 
#
# 1 88.4292 22.7716 34.1473 0.0000 24.2183 0.0000
# 2 22.7716 69.5451 40.8190 0.0000 31.1052 0.0000
# 3 34.1473 40.8190 120.1699 0.0000 43.4548 0.0000
# 4 0.0000 0.0000 0.0000 33.6702 0.0000 2.9488
# 5 24.2183 31.1052 43.4548 0.0000 49.2307 0.0000
# 6 0.0000 0.0000 0.0000 2.9488 0.0000 36.3319
#
#
#
# Elastic Compliance Matrix: (Units=1/GPa)
#
#
# Indices 1 2 3 4 5 6 
#
# 1 0.013529 -0.001527 -0.001862 0.000000 -0.004047 0.000000
# 2 -0.001527 0.021133 -0.003213 0.000000 -0.009765 0.000000
# 3 -0.001862 -0.003213 0.013039 0.000000 -0.008562 0.000000
# 4 0.000000 0.000000 0.000000 0.029913 0.000000 -0.002428
# 5 -0.004047 -0.009765 -0.008562 0.000000 0.036031 0.000000
# 6 0.000000 0.000000 0.000000 -0.002428 0.000000 0.027721
#
#
# Mechanical properties :
#
#
# Convention : Reuss Voigt Hill
#
# Bulk Modulus (GPa) = 28.98972 52.62445 40.80709
# Shear Modulus (GPa) = 30.10817 35.87365 32.99091
#
# Velocity S-wave (km/s) = 3.81932 4.16900 3.99799
# Velocity P-wave (km/s) = 5.78748 6.97641 6.40957
#
# Compressibility (1/GPa) = 0.03449498
#
# Stress axis : x y z
#
# Youngs Moduli (GPa) = 73.91451 47.32041 76.69582
#
# Poissons Ratio (x) = 0.07225 0.14284
# Poissons Ratio (y) = 0.11285 0.24646
# Poissons Ratio (z) = 0.13766 0.15206
#
# Static dielectric constant tensor:
#      x y z
#    x 1.570230 0.000000 0.156790 
#    y 0.000000 1.675960 0.000000 
#    z 0.156790 0.000000 1.660270 
# 
# From -- ./inp_files/42728.got.cif
#   From: 2010.05.17/outbox.cif.g08.bks.cpg/sg15_22_cif.got.tgz:42728.got - 2010.06.03 18:47:42.
