data_PCOD9298963
_publ_section_title
;
Structure prediction by ZEFSAII (Michael W. Deem and Ramdas Pophale) SiO2 
 PCOD9298963
Probable space group: C 2/C
;
_chemical_formula_sum "Si O2"
_cell_formula_units_Z 24
_cell_length_a 12.248097
_cell_length_b 11.508925
_cell_length_c 9.554620
_cell_angle_alpha 90.000000
_cell_angle_beta 138.749075
_cell_angle_gamma 90.000000
_cell_volume 888.051281
_symmetry_space_group_name_H-M "C 2/C"
_symmetry_group_IT_number 15
_symmetry_cell_setting 'monoclinic'
loop_
_space_group_symop_operation_xyz
x,y,z
-x,y,1/2-z
-x,-y,-z
x,-y,1/2+z
1/2+x,1/2+y,z
1/2-x,1/2+y,1/2-z
1/2-x,1/2-y,-z
1/2+x,1/2-y,1/2+z
loop_
_atom_site_type_symbol
_atom_site_label
_atom_site_fract_x
_atom_site_fract_y
_atom_site_fract_z
Si Si1 0.185829 0.126682 0.376668
Si Si2 0.120418 0.424451 0.024741
Si Si3 0.195069 0.270098 0.785736
O O1 0.250000 0.250000 0.500000
O O2 0.304209 0.013834 0.517275
O O3 0.206474 0.147738 0.228201
O O4 0.000000 0.107339 0.250000
O O5 0.010307 0.682237 0.115753
O O6 0.278257 0.361102 0.244882
O O7 0.000000 0.500000 0.000000
O O8 0.250000 0.250000 0.000000
#
# Coordination Sequence:
#
# PCOD9298963 Si02
#       3
#     8   8   8
#     4  11  25  47  74 109 150 197 249 312 382 455
#     4  10  24  46  71 105 149 195 249 313 378 453
#     4  11  24  45  72 106 145 194 248 307 375 446
#
# _framework density 27.025463999999999
#
# number of rings (size 3 to 8) (size 9 to 14) (size 15 to 20)
#    0.000    1.333    0.000    5.000    0.000   13.333 
#    0.000   10.000    0.000    0.000    0.000    0.000 
#    0.000    0.000    0.000    0.000    0.000    0.000 
#
# Total GULP energy -66852.956878 kJ/mol
# GULP energy per Si atom -5571.079740 kJ/mol
# Density = 2.696395 g / cm^3
# Si number density = 27.025464 Si / 1000 Ang^3
#
#
#
# Elastic Constant Matrix: (Units=GPa)
#
#
# Indices 1 2 3 4 5 6 
#
# 1 262.7804 68.8858 72.1405 0.0000 56.0646 0.0000
# 2 68.8858 184.1439 57.0018 0.0000 47.0138 0.0000
# 3 72.1405 57.0018 100.4753 0.0000 20.8694 0.0000
# 4 0.0000 0.0000 0.0000 50.7967 0.0000 23.3938
# 5 56.0646 47.0138 20.8694 0.0000 62.8226 0.0000
# 6 0.0000 0.0000 0.0000 23.3938 0.0000 74.3480
#
#
#
# Elastic Compliance Matrix: (Units=1/GPa)
#
#
# Indices 1 2 3 4 5 6 
#
# 1 0.005493 -0.000137 -0.003082 0.000000 -0.003776 0.000000
# 2 -0.000137 0.007657 -0.003309 0.000000 -0.004509 0.000000
# 3 -0.003082 -0.003309 0.013918 0.000000 0.000604 0.000000
# 4 0.000000 0.000000 0.000000 0.023023 0.000000 -0.007244
# 5 -0.003776 -0.004509 0.000604 0.000000 0.022461 0.000000
# 6 0.000000 0.000000 0.000000 -0.007244 0.000000 0.015730
#
#
# Mechanical properties :
#
#
# Convention : Reuss Voigt Hill
#
# Bulk Modulus (GPa) = 71.36990 104.82842 88.09916
# Shear Modulus (GPa) = 47.16601 60.88490 54.02545
#
# Velocity S-wave (km/s) = 4.18214 4.75159 4.47593
# Velocity P-wave (km/s) = 7.05593 8.30521 7.70593
#
# Compressibility (1/GPa) = 0.01401151
#
# Stress axis : x y z
#
# Youngs Moduli (GPa) = 182.04912 130.59403 71.85097
#
# Poissons Ratio (x) = 0.01786 0.22145
# Poissons Ratio (y) = 0.02490 0.23778
# Poissons Ratio (z) = 0.56109 0.43219
#
# Static dielectric constant tensor:
#      x y z
#    x 2.040210 0.000000 0.045160 
#    y 0.000000 2.653060 0.000000 
#    z 0.045160 0.000000 2.058810 
# 
# From -- ./inp_files/83704.got.cif
#   From: 2010.05.17/outbox.cif.g08.bks.cpg/sg15_42_cif.got.tgz:83704.got - 2010.06.03 18:47:42.
