data_PCOD9298574
_publ_section_title
;
Structure prediction by ZEFSAII (Michael W. Deem and Ramdas Pophale) SiO2 
 PCOD9298574
Probable space group: C 2/C
;
_chemical_formula_sum "Si O2"
_cell_formula_units_Z 36
_cell_length_a 19.724132
_cell_length_b 5.711296
_cell_length_c 18.002543
_cell_angle_alpha 90.000000
_cell_angle_beta 136.330702
_cell_angle_gamma 90.000000
_cell_volume 1400.318761
_symmetry_space_group_name_H-M "C 2/C"
_symmetry_group_IT_number 15
_symmetry_cell_setting 'monoclinic'
loop_
_space_group_symop_operation_xyz
x,y,z
-x,y,1/2-z
-x,-y,-z
x,-y,1/2+z
1/2+x,1/2+y,z
1/2-x,1/2+y,1/2-z
1/2-x,1/2-y,-z
1/2+x,1/2-y,1/2+z
loop_
_atom_site_type_symbol
_atom_site_label
_atom_site_fract_x
_atom_site_fract_y
_atom_site_fract_z
Si Si1 0.289979 0.921776 0.816382
Si Si2 0.500000 0.907752 0.250000
Si Si3 0.861702 0.769898 0.065390
Si Si4 0.986795 0.791577 0.431168
Si Si5 0.622085 0.444112 0.785560
O O1 0.243911 0.674202 0.745708
O O2 0.407617 0.889659 0.903686
O O3 0.235100 0.919030 0.852597
O O4 0.442331 0.786093 0.272304
O O5 0.415947 0.057403 0.146544
O O6 0.903138 0.765898 0.015277
O O7 0.892516 0.994882 0.139451
O O8 0.750000 0.750000 0.000000
O O9 0.927123 0.871523 0.309250
O O10 0.000000 0.000000 0.500000
#
# Coordination Sequence:
#
# PCOD9298574 Si02
#       5
#     8   4   8   8   8
#     4  10  24  44  75 105 149 197 249 308 389 451
#     4  12  22  46  82  96 158 188 260 322 378 448
#     4  12  27  46  77 109 145 199 262 312 384 465
#     4  11  24  46  69 110 150 191 249 316 387 463
#     4  11  24  47  75 107 144 202 254 312 384 456
#
# _framework density 25.708431999999998
#
# number of rings (size 3 to 8) (size 9 to 14) (size 15 to 20)
#    0.000    0.889    4.444    1.333    6.222    6.222 
#    0.000    6.667    0.000    0.000    0.000    0.000 
#    0.000    0.000    0.000    0.000    0.000    0.000 
#
# Total GULP energy -100434.513188 kJ/mol
# GULP energy per Si atom -5579.695177 kJ/mol
# Density = 2.564992 g / cm^3
# Si number density = 25.708432 Si / 1000 Ang^3
#
#
#
# Elastic Constant Matrix: (Units=GPa)
#
#
# Indices 1 2 3 4 5 6 
#
# 1 272.3176 50.5963 63.0523 -0.0001 41.1993 -0.0002
# 2 50.5963 74.2119 15.7188 -0.0003 7.1374 -0.0008
# 3 63.0523 15.7188 71.4450 0.0001 41.9826 0.0000
# 4 -0.0001 -0.0003 0.0001 -1.9802 0.0000 -0.1878
# 5 41.1993 7.1374 41.9826 0.0000 58.3478 -0.0001
# 6 -0.0002 -0.0008 0.0000 -0.1878 -0.0001 56.6496
#
#
#
# Elastic Compliance Matrix: (Units=1/GPa)
#
#
# Indices 1 2 3 4 5 6 
#
# 1 0.005081 -0.002661 -0.003434 0.000000 -0.000792 0.000000
# 2 -0.002661 0.015553 -0.001836 -0.000002 0.001297 0.000000
# 3 -0.003434 -0.001836 0.027503 0.000002 -0.017140 0.000000
# 4 0.000000 -0.000002 0.000002 -0.504839 -0.000001 -0.001673
# 5 -0.000792 0.001297 -0.017140 -0.000001 0.029871 0.000000
# 6 0.000000 0.000000 0.000000 -0.001673 0.000000 0.017647
#
#
# Mechanical properties :
#
#
# Convention : Reuss Voigt Hill
#
# Bulk Modulus (GPa) = 30.98253 75.18992 53.08623
# Shear Modulus (GPa) = -13.06972 41.84391 14.38709
#
# Velocity S-wave (km/s) = -2.25718 4.03877 2.36821
# Velocity P-wave (km/s) = 2.29881 7.14560 5.30773
#
# Compressibility (1/GPa) = 0.03227625
#
# Stress axis : x y z
#
# Youngs Moduli (GPa) = 196.79465 64.29549 36.35997
#
# Poissons Ratio (x) = 0.17109 0.12485
# Poissons Ratio (y) = 0.52366 0.06675
# Poissons Ratio (z) = 0.67575 0.11803
#
# Static dielectric constant tensor:
#      x y z
#    x 2.067610 0.000000 0.048690 
#    y 0.000000 2.232250 0.000000 
#    z 0.048690 0.000000 2.093890 
# 
# From -- ./inp_files/179922.got.cif
#   From: 2010.05.17/outbox.cif.g08.bks.cpg/sg15_90_cif.got.tgz:179922.got - 2010.06.03 18:47:42.
