data_PCOD9298058
_publ_section_title
;
Structure prediction by ZEFSAII (Michael W. Deem and Ramdas Pophale) SiO2 
 PCOD9298058
Probable space group: C 2/C
;
_chemical_formula_sum "Si O2"
_cell_formula_units_Z 48
_cell_length_a 11.767531
_cell_length_b 19.775930
_cell_length_c 13.837783
_cell_angle_alpha 90.000000
_cell_angle_beta 40.590194
_cell_angle_gamma 90.000000
_cell_volume 2095.233293
_symmetry_space_group_name_H-M "C 2/C"
_symmetry_group_IT_number 15
_symmetry_cell_setting 'monoclinic'
loop_
_space_group_symop_operation_xyz
x,y,z
-x,y,1/2-z
-x,-y,-z
x,-y,1/2+z
1/2+x,1/2+y,z
1/2-x,1/2+y,1/2-z
1/2-x,1/2-y,-z
1/2+x,1/2-y,1/2+z
loop_
_atom_site_type_symbol
_atom_site_label
_atom_site_fract_x
_atom_site_fract_y
_atom_site_fract_z
Si Si1 0.708989 0.802559 0.610764
Si Si2 0.778440 0.948645 0.565919
Si Si3 0.983681 0.555998 0.092100
Si Si4 0.888166 0.782128 0.691471
Si Si5 0.388569 0.840608 0.494639
Si Si6 0.898841 0.084294 0.415783
O O1 0.500000 0.819411 0.750000
O O2 0.750000 0.750000 0.500000
O O3 0.827981 0.869956 0.521635
O O4 0.763744 0.774598 0.679244
O O5 0.686960 0.950887 0.730259
O O6 0.639204 0.951930 0.567575
O O7 0.897463 0.014428 0.475037
O O8 0.972706 0.624197 0.035189
O O9 0.000000 0.500000 0.000000
O O10 0.773935 0.798274 0.858430
O O11 0.987286 0.712044 0.636059
O O12 0.010753 0.848633 0.598862
O O13 0.300078 0.895232 0.481902
O O14 0.000000 0.071020 0.250000
#
# Coordination Sequence:
#
# PCOD9298058 Si02
#       6
#     8   8   8   8   8   8
#     4  12  24  43  67  94 132 174 225 275 334 405
#     4  11  22  42  67  98 132 178 224 275 335 395
#     4  11  21  40  68  94 129 175 228 274 324 400
#     4  11  23  42  66  96 135 174 214 280 337 394
#     4  11  22  44  66  99 135 177 222 276 335 403
#     4  10  24  43  66  99 138 174 224 278 337 403
#
# _framework density 22.909143
#
# number of rings (size 3 to 8) (size 9 to 14) (size 15 to 20)
#    0.000    1.000    5.000    2.500    0.000    2.667 
#    0.000    3.333    0.000    0.000    0.000    0.000 
#    0.000    0.000    0.000    0.000    0.000    0.000 
#
# Total GULP energy -134139.846124 kJ/mol
# GULP energy per Si atom -5589.160255 kJ/mol
# Density = 2.285700 g / cm^3
# Si number density = 22.909143 Si / 1000 Ang^3
#
#
#
# Elastic Constant Matrix: (Units=GPa)
#
#
# Indices 1 2 3 4 5 6 
#
# 1 108.5424 24.8586 15.1914 0.0005 13.2453 -0.0001
# 2 24.8586 125.8211 48.1629 0.0001 14.6861 0.0001
# 3 15.1914 48.1629 27.3322 0.0009 13.4673 -0.0005
# 4 0.0005 0.0001 0.0009 46.3767 -0.0005 14.7144
# 5 13.2453 14.6861 13.4673 -0.0005 30.9932 0.0002
# 6 -0.0001 0.0001 -0.0005 14.7144 0.0002 34.5532
#
#
#
# Elastic Compliance Matrix: (Units=1/GPa)
#
#
# Indices 1 2 3 4 5 6 
#
# 1 0.010128 -0.000062 -0.004329 0.000000 -0.002418 0.000000
# 2 -0.000062 0.026601 -0.051715 0.000002 0.009893 -0.000001
# 3 -0.004329 -0.051715 0.149046 -0.000005 -0.038409 0.000004
# 4 0.000000 0.000002 -0.000005 0.024931 0.000002 -0.010617
# 5 -0.002418 0.009893 -0.038409 0.000002 0.045301 -0.000002
# 6 0.000000 -0.000001 0.000004 -0.010617 -0.000002 0.033462
#
#
# Mechanical properties :
#
#
# Convention : Reuss Voigt Hill
#
# Bulk Modulus (GPa) = 13.59359 48.68015 31.13687
# Shear Modulus (GPa) = 11.73155 33.95014 22.84085
#
# Velocity S-wave (km/s) = 2.26540 3.85378 3.16099
# Velocity P-wave (km/s) = 3.57621 6.41074 5.19070
#
# Compressibility (1/GPa) = 0.07356409
#
# Stress axis : x y z
#
# Youngs Moduli (GPa) = 98.73545 37.59257 6.70934
#
# Poissons Ratio (x) = 0.00231 0.02905
# Poissons Ratio (y) = 0.00608 0.34697
# Poissons Ratio (z) = 0.42747 1.94408
#
# Static dielectric constant tensor:
#      x y z
#    x 1.916450 0.000000 -0.049300 
#    y 0.000000 1.896530 0.000000 
#    z -0.049300 0.000000 1.814520 
# 
# From -- ./inp_files/147345.got.cif
#   From: 2010.05.17/outbox.cif.g08.bks.cpg/sg15_74_cif.got.tgz:147345.got - 2010.06.03 18:47:42.
