data_PCOD9298317
_publ_section_title
;
Structure prediction by ZEFSAII (Michael W. Deem and Ramdas Pophale) SiO2 
 PCOD9298317
Probable space group: C 2/C
;
_chemical_formula_sum "Si O2"
_cell_formula_units_Z 36
_cell_length_a 16.445052
_cell_length_b 8.827976
_cell_length_c 26.749415
_cell_angle_alpha 90.000000
_cell_angle_beta 25.396080
_cell_angle_gamma 90.000000
_cell_volume 1665.481153
_symmetry_space_group_name_H-M "C 2/C"
_symmetry_group_IT_number 15
_symmetry_cell_setting 'monoclinic'
loop_
_space_group_symop_operation_xyz
x,y,z
-x,y,1/2-z
-x,-y,-z
x,-y,1/2+z
1/2+x,1/2+y,z
1/2-x,1/2+y,1/2-z
1/2-x,1/2-y,-z
1/2+x,1/2-y,1/2+z
loop_
_atom_site_type_symbol
_atom_site_label
_atom_site_fract_x
_atom_site_fract_y
_atom_site_fract_z
Si Si1 0.275253 0.984451 0.616547
Si Si2 0.426659 0.561673 0.166623
Si Si3 0.722220 0.908073 0.488751
Si Si4 0.500000 0.785956 0.250000
Si Si5 0.381042 0.092882 0.711954
O O1 0.184421 0.826022 0.646030
O O2 0.500000 0.000000 0.500000
O O3 0.174903 0.998668 0.725911
O O4 0.226947 0.097699 0.598118
O O5 0.644065 0.526217 0.056290
O O6 0.392799 0.740308 0.181413
O O7 0.331763 0.469688 0.174360
O O8 0.750000 0.750000 0.500000
O O9 0.511019 0.971921 0.611328
O O10 0.537062 0.884471 0.278248
#
# Coordination Sequence:
#
# PCOD9298317 Si02
#       5
#     8   8   8   4   8
#     4  11  21  41  68  93 129 178 218 262 340 394
#     4  11  23  41  70  92 131 174 219 274 331 395
#     4  12  24  41  65 100 133 173 222 269 323 398
#     4  10  24  44  66  96 138 172 218 282 332 384
#     4  11  23  45  66  97 131 172 222 271 334 386
#
# _framework density 21.615375
#
# number of rings (size 3 to 8) (size 9 to 14) (size 15 to 20)
#    0.000    0.889    6.667    2.000    3.111    0.000 
#    8.000    1.111    0.000    0.000    0.000    0.000 
#    0.000    0.000    0.000    0.000    0.000    0.000 
#
# Total GULP energy -100507.092370 kJ/mol
# GULP energy per Si atom -5583.727354 kJ/mol
# Density = 2.156618 g / cm^3
# Si number density = 21.615375 Si / 1000 Ang^3
#
#
#
# Elastic Constant Matrix: (Units=GPa)
#
#
# Indices 1 2 3 4 5 6 
#
# 1 128.8765 32.8603 9.6318 -0.0004 -10.8949 -0.0001
# 2 32.8603 79.6485 -10.9847 -0.0004 6.9208 -0.0002
# 3 9.6318 -10.9847 48.8439 -0.0034 -12.4169 0.0002
# 4 -0.0004 -0.0004 -0.0034 27.9805 0.0005 -8.1604
# 5 -10.8949 6.9208 -12.4169 0.0005 44.7867 0.0003
# 6 -0.0001 -0.0002 0.0002 -8.1604 0.0003 41.4073
#
#
#
# Elastic Compliance Matrix: (Units=1/GPa)
#
#
# Indices 1 2 3 4 5 6 
#
# 1 0.009216 -0.004305 -0.002202 0.000000 0.002297 0.000000
# 2 -0.004305 0.015037 0.003630 0.000001 -0.002365 0.000000
# 3 -0.002202 0.003630 0.023071 0.000003 0.005300 0.000000
# 4 0.000000 0.000001 0.000003 0.037919 0.000000 0.007473
# 5 0.002297 -0.002365 0.005300 0.000000 0.024722 0.000000
# 6 0.000000 0.000000 0.000000 0.007473 0.000000 0.025623
#
#
# Mechanical properties :
#
#
# Convention : Reuss Voigt Hill
#
# Bulk Modulus (GPa) = 24.05598 35.59820 29.82709
# Shear Modulus (GPa) = 32.21670 37.89234 35.05452
#
# Velocity S-wave (km/s) = 3.86483 4.19146 4.03145
# Velocity P-wave (km/s) = 5.57397 6.31895 5.95811
#
# Compressibility (1/GPa) = 0.04156970
#
# Stress axis : x y z
#
# Youngs Moduli (GPa) = 108.50889 66.50053 43.34417
#
# Poissons Ratio (x) = 0.28631 0.09543
# Poissons Ratio (y) = 0.46717 -0.15733
# Poissons Ratio (z) = 0.23890 -0.24138
#
# Static dielectric constant tensor:
#      x y z
#    x 1.815950 0.000000 0.013300 
#    y 0.000000 1.772960 0.000000 
#    z 0.013300 0.000000 1.811490 
# 
# From -- ./inp_files/158646.got.cif
#   From: 2010.05.17/outbox.cif.g08.bks.cpg/sg15_80_cif.got.tgz:158646.got - 2010.06.03 18:47:42.
