data_PCOD9298637
_publ_section_title
;
Structure prediction by ZEFSAII (Michael W. Deem and Ramdas Pophale) SiO2 
 PCOD9298637
Probable space group: C 2/C
;
_chemical_formula_sum "Si O2"
_cell_formula_units_Z 56
_cell_length_a 8.240313
_cell_length_b 22.329785
_cell_length_c 16.122064
_cell_angle_alpha 90.000000
_cell_angle_beta 62.476082
_cell_angle_gamma 90.000000
_cell_volume 2630.773086
_symmetry_space_group_name_H-M "C 2/C"
_symmetry_group_IT_number 15
_symmetry_cell_setting 'monoclinic'
loop_
_space_group_symop_operation_xyz
x,y,z
-x,y,1/2-z
-x,-y,-z
x,-y,1/2+z
1/2+x,1/2+y,z
1/2-x,1/2+y,1/2-z
1/2-x,1/2-y,-z
1/2+x,1/2-y,1/2+z
loop_
_atom_site_type_symbol
_atom_site_label
_atom_site_fract_x
_atom_site_fract_y
_atom_site_fract_z
Si Si1 0.500000 0.441729 0.250000
Si Si2 0.900398 0.511461 0.612692
Si Si3 0.337097 0.344268 0.163956
Si Si4 0.388829 0.233419 0.394599
Si Si5 0.592852 0.770730 0.341021
Si Si6 0.000000 0.172525 0.250000
Si Si7 0.632087 0.116458 0.357206
Si Si8 0.869092 0.374046 0.449744
O O1 0.319713 0.476730 0.327669
O O2 0.426438 0.398498 0.194073
O O3 0.935153 0.449316 0.652423
O O4 0.000000 0.500000 0.500000
O O5 0.001957 0.572362 0.614956
O O6 0.468967 0.287401 0.133857
O O7 0.166258 0.317489 0.255269
O O8 0.283975 0.363054 0.083517
O O9 0.250000 0.250000 0.500000
O O10 0.269036 0.240077 0.339963
O O11 0.485909 0.169183 0.378742
O O12 0.466534 0.718981 0.333062
O O13 0.482732 0.812394 0.429373
O O14 0.177313 0.134675 0.229007
O O15 0.683676 0.111637 0.443388
#
# Coordination Sequence:
#
# PCOD9298637 Si02
#       8
#     4   8   8   8   8   4   8   8
#     4  12  23  44  74  94 133 178 234 282 332 394
#     4  10  24  45  67  93 132 174 225 276 329 394
#     4  12  23  39  70 101 125 170 230 278 330 395
#     4  12  24  39  65  98 133 170 211 271 345 396
#     4  12  21  39  65  97 131 165 217 275 323 395
#     4  12  25  40  64  92 135 170 218 262 340 408
#     4  11  25  44  63  93 137 176 212 270 338 400
#     4  11  22  43  67  97 127 171 225 279 323 385
#
# _framework density 21.286518999999998
#
# number of rings (size 3 to 8) (size 9 to 14) (size 15 to 20)
#    0.000    0.571    7.143    0.429    4.000    1.143 
#    0.000    7.143    0.000    0.000    0.000    0.000 
#    0.000    0.000    0.000    0.000    0.000    0.000 
#
# Total GULP energy -156262.815535 kJ/mol
# GULP energy per Si atom -5580.814841 kJ/mol
# Density = 2.123807 g / cm^3
# Si number density = 21.286519 Si / 1000 Ang^3
#
#
#
# Elastic Constant Matrix: (Units=GPa)
#
#
# Indices 1 2 3 4 5 6 
#
# 1 94.4596 36.5706 4.5066 0.0000 9.4138 0.0000
# 2 36.5706 136.7421 13.3030 0.0000 -11.4757 0.0000
# 3 4.5066 13.3030 52.9186 0.0000 -8.7821 0.0000
# 4 0.0000 0.0000 0.0000 32.4131 0.0000 -3.6542
# 5 9.4138 -11.4757 -8.7821 0.0000 39.0367 0.0000
# 6 0.0000 0.0000 0.0000 -3.6542 0.0000 19.4641
#
#
#
# Elastic Compliance Matrix: (Units=1/GPa)
#
#
# Indices 1 2 3 4 5 6 
#
# 1 0.012446 -0.003602 -0.000860 0.000000 -0.004254 0.000000
# 2 -0.003602 0.008669 -0.001356 0.000000 0.003112 0.000000
# 3 -0.000860 -0.001356 0.020027 0.000000 0.004314 0.000000
# 4 0.000000 0.000000 0.000000 0.031519 0.000000 0.005917
# 5 -0.004254 0.003112 0.004314 0.000000 0.028528 0.000000
# 6 0.000000 0.000000 0.000000 0.005917 0.000000 0.052488
#
#
# Mechanical properties :
#
#
# Convention : Reuss Voigt Hill
#
# Bulk Modulus (GPa) = 33.89176 43.65342 38.77259
# Shear Modulus (GPa) = 28.54707 33.49878 31.02293
#
# Velocity S-wave (km/s) = 3.66606 3.97130 3.82173
# Velocity P-wave (km/s) = 5.82033 6.44829 6.14234
#
# Compressibility (1/GPa) = 0.02950570
#
# Stress axis : x y z
#
# Youngs Moduli (GPa) = 80.34707 115.34773 49.93225
#
# Poissons Ratio (x) = 0.41547 0.04296
# Poissons Ratio (y) = 0.28940 0.06772
# Poissons Ratio (z) = 0.06913 0.15643
#
# Static dielectric constant tensor:
#      x y z
#    x 1.787690 0.000000 -0.027490 
#    y 0.000000 1.780080 0.000000 
#    z -0.027490 0.000000 1.935570 
# 
# From -- ./inp_files/192057.got.cif
#   From: 2010.05.17/outbox.cif.g08.bks.cpg/sg15_97_cif.got.tgz:192057.got - 2010.06.03 18:47:42.
