data_PCOD9298805
_publ_section_title
;
Structure prediction by ZEFSAII (Michael W. Deem and Ramdas Pophale) SiO2 
 PCOD9298805
Probable space group: C 2/C
;
_chemical_formula_sum "Si O2"
_cell_formula_units_Z 24
_cell_length_a 18.357073
_cell_length_b 4.819527
_cell_length_c 10.274235
_cell_angle_alpha 90.000000
_cell_angle_beta 76.257886
_cell_angle_gamma 90.000000
_cell_volume 882.966383
_symmetry_space_group_name_H-M "C 2/C"
_symmetry_group_IT_number 15
_symmetry_cell_setting 'monoclinic'
loop_
_space_group_symop_operation_xyz
x,y,z
-x,y,1/2-z
-x,-y,-z
x,-y,1/2+z
1/2+x,1/2+y,z
1/2-x,1/2+y,1/2-z
1/2-x,1/2-y,-z
1/2+x,1/2-y,1/2+z
loop_
_atom_site_type_symbol
_atom_site_label
_atom_site_fract_x
_atom_site_fract_y
_atom_site_fract_z
Si Si1 0.800145 0.961299 0.219533
Si Si2 0.429106 0.306825 0.993240
Si Si3 0.578973 0.911289 0.741957
O O1 0.728927 0.760885 0.228797
O O2 0.853472 0.963771 0.071258
O O3 0.851421 0.795122 0.301613
O O4 0.500000 0.500000 0.000000
O O5 0.574315 0.950454 0.899892
O O6 0.423742 0.169048 0.853984
O O7 0.500000 0.759216 0.750000
#
# Coordination Sequence:
#
# PCOD9298805 Si02
#       3
#     8   8   8
#     4  10  26  47  76 117 161 209 262 336 409 473
#     4  10  25  47  80 113 161 210 270 330 398 485
#     4  10  24  45  76 112 155 207 268 320 394 481
#
# _framework density 27.181104000000001
#
# number of rings (size 3 to 8) (size 9 to 14) (size 15 to 20)
#    2.000    0.000    0.000    1.000    4.667    6.667 
#    0.000    1.667    0.000    0.000    0.000    0.000 
#    0.000    0.000    0.000    0.000    0.000    0.000 
#
# Total GULP energy -67017.826606 kJ/mol
# GULP energy per Si atom -5584.818884 kJ/mol
# Density = 2.711924 g / cm^3
# Si number density = 27.181104 Si / 1000 Ang^3
#
#
#
# Elastic Constant Matrix: (Units=GPa)
#
#
# Indices 1 2 3 4 5 6 
#
# 1 108.1747 45.8854 52.8516 0.0000 -11.9244 0.0000
# 2 45.8854 161.2969 93.2682 0.0000 18.4861 0.0000
# 3 52.8516 93.2682 176.9784 0.0000 -16.8769 0.0000
# 4 0.0000 0.0000 0.0000 44.9038 0.0000 3.1108
# 5 -11.9244 18.4861 -16.8769 0.0000 27.0289 0.0000
# 6 0.0000 0.0000 0.0000 3.1108 0.0000 52.8982
#
#
#
# Elastic Compliance Matrix: (Units=1/GPa)
#
#
# Indices 1 2 3 4 5 6 
#
# 1 0.012093 -0.003723 -0.000954 0.000000 0.007286 0.000000
# 2 -0.003723 0.013245 -0.007325 0.000000 -0.015275 0.000000
# 3 -0.000954 -0.007325 0.010881 0.000000 0.011383 0.000000
# 4 0.000000 0.000000 0.000000 0.022361 0.000000 -0.001315
# 5 0.007286 -0.015275 0.011383 0.000000 0.057767 0.000000
# 6 0.000000 0.000000 0.000000 -0.001315 0.000000 0.018982
#
#
# Mechanical properties :
#
#
# Convention : Reuss Voigt Hill
#
# Bulk Modulus (GPa) = 81.87326 92.27339 87.07333
# Shear Modulus (GPa) = 30.59861 41.92918 36.26389
#
# Velocity S-wave (km/s) = 3.35883 3.93184 3.65658
# Velocity P-wave (km/s) = 6.72526 7.39147 7.06622
#
# Compressibility (1/GPa) = 0.01221400
#
# Stress axis : x y z
#
# Youngs Moduli (GPa) = 82.69175 75.49830 91.90095
#
# Poissons Ratio (x) = 0.28111 0.08771
# Poissons Ratio (y) = 0.30789 0.67318
# Poissons Ratio (z) = 0.07892 0.55303
#
# Static dielectric constant tensor:
#      x y z
#    x 2.236130 0.000000 -0.000020 
#    y 0.000000 2.104520 0.000000 
#    z -0.000020 0.000000 2.126820 
# 
# From -- ./inp_files/108779.got.cif
#   From: 2010.05.17/outbox.cif.g08.bks.cpg/sg15_55_cif.got.tgz:108779.got - 2010.06.03 18:47:42.
