data_PCOD9298444
_publ_section_title
;
Structure prediction by ZEFSAII (Michael W. Deem and Ramdas Pophale) SiO2 
 PCOD9298444
Probable space group: C 2/C
;
_chemical_formula_sum "Si O2"
_cell_formula_units_Z 28
_cell_length_a 11.196846
_cell_length_b 23.064978
_cell_length_c 4.976762
_cell_angle_alpha 90.000000
_cell_angle_beta 99.397057
_cell_angle_gamma 90.000000
_cell_volume 1268.026037
_symmetry_space_group_name_H-M "C 2/C"
_symmetry_group_IT_number 15
_symmetry_cell_setting 'monoclinic'
loop_
_space_group_symop_operation_xyz
x,y,z
-x,y,1/2-z
-x,-y,-z
x,-y,1/2+z
1/2+x,1/2+y,z
1/2-x,1/2+y,1/2-z
1/2-x,1/2-y,-z
1/2+x,1/2-y,1/2+z
loop_
_atom_site_type_symbol
_atom_site_label
_atom_site_fract_x
_atom_site_fract_y
_atom_site_fract_z
Si Si1 0.143045 0.370851 0.333433
Si Si2 0.238605 0.812934 0.626255
Si Si3 0.167574 0.038866 0.581424
Si Si4 0.500000 0.632094 0.250000
O O1 0.186789 0.324254 0.572298
O O2 0.201625 0.432664 0.428877
O O3 0.000000 0.371241 0.250000
O O4 0.205358 0.355580 0.074203
O O5 0.250000 0.750000 0.500000
O O6 0.100068 0.829294 0.637883
O O7 0.074431 0.089794 0.473926
O O8 0.151420 0.014521 0.872358
#
# Coordination Sequence:
#
# PCOD9298444 Si02
#       4
#     8   8   8   4
#     4  11  25  46  66 101 141 179 232 282 331 420
#     4  11  25  45  71  98 136 185 232 282 346 396
#     4  11  23  41  69 100 136 180 223 283 347 396
#     4  10  24  44  70 104 138 170 238 284 336 418
#
# _framework density 22.081564
#
# number of rings (size 3 to 8) (size 9 to 14) (size 15 to 20)
#    0.000    1.143    0.000    6.000    2.000   10.286 
#   10.286    0.000    0.000    0.000    0.000    0.000 
#    0.000    0.000    0.000    0.000    0.000    0.000 
#
# Total GULP energy -78422.800664 kJ/mol
# GULP energy per Si atom -5601.628619 kJ/mol
# Density = 2.203131 g / cm^3
# Si number density = 22.081564 Si / 1000 Ang^3
#
#
#
# Elastic Constant Matrix: (Units=GPa)
#
#
# Indices 1 2 3 4 5 6 
#
# 1 213.8770 74.3205 65.9914 0.0000 12.4321 0.0000
# 2 74.3205 96.3485 6.6784 0.0000 4.0918 0.0000
# 3 65.9914 6.6784 91.7743 0.0000 -2.2389 0.0000
# 4 0.0000 0.0000 0.0000 3.0693 0.0000 -13.8476
# 5 12.4321 4.0918 -2.2389 0.0000 41.4382 0.0000
# 6 0.0000 0.0000 0.0000 -13.8476 0.0000 30.7734
#
#
#
# Elastic Compliance Matrix: (Units=1/GPa)
#
#
# Indices 1 2 3 4 5 6 
#
# 1 0.008842 -0.006308 -0.005956 0.000000 -0.002352 0.000000
# 2 -0.006308 0.014979 0.003460 0.000000 0.000600 0.000000
# 3 -0.005956 0.003460 0.014982 0.000000 0.002255 0.000000
# 4 0.000000 0.000000 0.000000 -0.316263 0.000000 -0.142314
# 5 -0.002352 0.000600 0.002255 0.000000 0.024900 0.000000
# 6 0.000000 0.000000 0.000000 -0.142314 0.000000 -0.031544
#
#
# Mechanical properties :
#
#
# Convention : Reuss Voigt Hill
#
# Bulk Modulus (GPa) = 47.17838 77.33114 62.25476
# Shear Modulus (GPa) = -19.27304 32.05683 6.39190
#
# Velocity S-wave (km/s) = -2.95754 3.81431 1.70322
# Velocity P-wave (km/s) = 3.12236 7.38210 5.66765
#
# Compressibility (1/GPa) = 0.02119615
#
# Stress axis : x y z
#
# Youngs Moduli (GPa) = 113.09719 66.75913 66.74483
#
# Poissons Ratio (x) = 0.42110 0.39755
# Poissons Ratio (y) = 0.71338 -0.23095
# Poissons Ratio (z) = 0.67364 -0.23100
#
# Static dielectric constant tensor:
#      x y z
#    x 1.778460 0.000000 0.036260 
#    y 0.000000 1.857390 0.000000 
#    z 0.036260 0.000000 1.850520 
# 
# From -- ./inp_files/3570.got.cif
#   From: 2010.05.17/outbox.cif.g08.bks.cpg/sg15_2_cif.got.tgz:3570.got - 2010.06.03 18:47:42.
