data_PCOD9298995
_publ_section_title
;
Structure prediction by ZEFSAII (Michael W. Deem and Ramdas Pophale) SiO2 
 PCOD9298995
Probable space group: C 2/C
;
_chemical_formula_sum "Si O2"
_cell_formula_units_Z 36
_cell_length_a 14.529178
_cell_length_b 14.281726
_cell_length_c 12.044308
_cell_angle_alpha 90.000000
_cell_angle_beta 32.624156
_cell_angle_gamma 90.000000
_cell_volume 1347.391501
_symmetry_space_group_name_H-M "C 2/C"
_symmetry_group_IT_number 15
_symmetry_cell_setting 'monoclinic'
loop_
_space_group_symop_operation_xyz
x,y,z
-x,y,1/2-z
-x,-y,-z
x,-y,1/2+z
1/2+x,1/2+y,z
1/2-x,1/2+y,1/2-z
1/2-x,1/2-y,-z
1/2+x,1/2-y,1/2+z
loop_
_atom_site_type_symbol
_atom_site_label
_atom_site_fract_x
_atom_site_fract_y
_atom_site_fract_z
Si Si1 0.250000 0.250000 0.500000
Si Si2 0.411699 0.211475 0.573628
Si Si3 0.761056 0.032308 0.656948
Si Si4 0.258643 0.127931 0.164197
Si Si5 0.500000 0.058336 0.750000
Si Si6 0.500000 0.425546 0.250000
O O1 0.371171 0.233886 0.487806
O O2 0.343894 0.354314 0.382102
O O3 0.601482 0.172175 0.393536
O O4 0.399768 0.305369 0.659052
O O5 0.284348 0.137258 0.760291
O O6 0.770356 0.974308 0.760057
O O7 0.918982 0.996182 0.423692
O O8 0.591682 0.004243 0.756138
O O9 0.349207 0.120775 0.954651
#
# Coordination Sequence:
#
# PCOD9298995 Si02
#       6
#     4   8   8   8   4   4
#     4  12  26  46  70 108 144 194 232 306 354 428
#     4  11  25  45  70 104 146 181 249 291 366 426
#     4  11  27  45  70 110 139 197 235 303 355 441
#     4  11  25  45  70 103 139 193 232 305 359 434
#     4  10  24  46  72  96 146 184 240 290 374 428
#     4  12  28  42  74 110 144 196 242 296 366 424
#
# _framework density 26.718292999999999
#
# number of rings (size 3 to 8) (size 9 to 14) (size 15 to 20)
#    0.000    0.889    2.222    4.000    6.222    7.111 
#    0.000    0.000    0.000    0.000    0.000    0.000 
#    0.000    0.000    0.000    0.000    0.000    0.000 
#
# Total GULP energy -100310.114597 kJ/mol
# GULP energy per Si atom -5572.784144 kJ/mol
# Density = 2.665748 g / cm^3
# Si number density = 26.718293 Si / 1000 Ang^3
#
#
#
# Elastic Constant Matrix: (Units=GPa)
#
#
# Indices 1 2 3 4 5 6 
#
# 1 75.7643 21.9232 29.1105 -0.0001 -4.7215 0.0002
# 2 21.9232 72.4427 -1.2955 0.0006 -3.1582 -0.0007
# 3 29.1105 -1.2955 91.5861 0.0005 3.7680 -0.0004
# 4 -0.0001 0.0006 0.0005 56.2905 0.0006 -9.7559
# 5 -4.7215 -3.1582 3.7680 0.0006 37.2206 -0.0008
# 6 0.0002 -0.0007 -0.0004 -9.7559 -0.0008 6.1796
#
#
#
# Elastic Compliance Matrix: (Units=1/GPa)
#
#
# Indices 1 2 3 4 5 6 
#
# 1 0.016961 -0.005133 -0.005558 0.000000 0.002279 -0.000001
# 2 -0.005133 0.015411 0.001830 0.000000 0.000471 0.000003
# 3 -0.005558 0.001830 0.012787 0.000000 -0.001844 0.000001
# 4 0.000000 0.000000 0.000000 0.024457 0.000000 0.038611
# 5 0.002279 0.000471 -0.001844 0.000000 0.027383 0.000004
# 6 -0.000001 0.000003 0.000001 0.038611 0.000004 0.222778
#
#
# Mechanical properties :
#
#
# Convention : Reuss Voigt Hill
#
# Bulk Modulus (GPa) = 36.44563 37.69663 37.07113
# Shear Modulus (GPa) = 14.42403 32.60848 23.51625
#
# Velocity S-wave (km/s) = 2.32600 3.49729 2.96996
# Velocity P-wave (km/s) = 4.56990 5.51794 5.06614
#
# Compressibility (1/GPa) = 0.02743814
#
# Stress axis : x y z
#
# Youngs Moduli (GPa) = 58.95712 64.88999 78.20506
#
# Poissons Ratio (x) = 0.33309 0.43463
# Poissons Ratio (y) = 0.30263 -0.14313
# Poissons Ratio (z) = 0.32766 -0.11876
#
# Static dielectric constant tensor:
#      x y z
#    x 2.157620 0.000000 -0.207900 
#    y 0.000000 2.018310 0.000000 
#    z -0.207900 0.000000 2.760980 
# 
# From -- ./inp_files/96799.got.cif
#   From: 2010.05.17/outbox.cif.g08.bks.cpg/sg15_49_cif.got.tgz:96799.got - 2010.06.03 18:47:42.
