data_PCOD9298564
_publ_section_title
;
Structure prediction by ZEFSAII (Michael W. Deem and Ramdas Pophale) SiO2 
 PCOD9298564
Probable space group: C 2/C
;
_chemical_formula_sum "Si O2"
_cell_formula_units_Z 44
_cell_length_a 10.650474
_cell_length_b 14.539919
_cell_length_c 14.790464
_cell_angle_alpha 90.000000
_cell_angle_beta 43.601750
_cell_angle_gamma 90.000000
_cell_volume 1579.560308
_symmetry_space_group_name_H-M "C 2/C"
_symmetry_group_IT_number 15
_symmetry_cell_setting 'monoclinic'
loop_
_space_group_symop_operation_xyz
x,y,z
-x,y,1/2-z
-x,-y,-z
x,-y,1/2+z
1/2+x,1/2+y,z
1/2-x,1/2+y,1/2-z
1/2-x,1/2-y,-z
1/2+x,1/2-y,1/2+z
loop_
_atom_site_type_symbol
_atom_site_label
_atom_site_fract_x
_atom_site_fract_y
_atom_site_fract_z
Si Si1 0.777912 0.720081 0.086880
Si Si2 0.191093 0.074514 0.483315
Si Si3 0.211327 0.090034 0.855320
Si Si4 0.819081 0.460995 0.643661
Si Si5 0.500000 0.630478 0.750000
Si Si6 0.499707 0.200658 0.126696
O O1 0.702411 0.809243 0.179652
O O2 0.713765 0.616130 0.139006
O O3 0.980252 0.712771 0.027863
O O4 0.750000 0.750000 0.000000
O O5 0.316298 0.164398 0.424908
O O6 0.009225 0.092699 0.520161
O O7 0.274467 0.980434 0.401373
O O8 0.135368 0.068464 0.619283
O O9 0.237577 0.043090 0.744548
O O10 0.000000 0.500000 0.500000
O O11 0.874970 0.389915 0.697089
O O12 0.561353 0.707132 0.792401
#
# Coordination Sequence:
#
# PCOD9298564 Si02
#       6
#     8   8   8   8   4   8
#     4  10  25  48  74 113 160 207 267 331 401 478
#     4  11  25  42  79 108 160 196 262 342 406 470
#     4  11  25  49  74 121 157 205 270 343 402 477
#     4  10  25  49  79 107 157 218 268 315 410 489
#     4  12  22  42  76 114 148 202 264 344 396 484
#     4  10  24  44  74 111 151 208 276 317 398 489
#
# _framework density 27.855853
#
# number of rings (size 3 to 8) (size 9 to 14) (size 15 to 20)
#    1.091    0.364    1.818    1.636    5.091    0.000 
#    9.818    0.000    0.000    0.000    0.000    0.000 
#    0.000    0.000    0.000    0.000    0.000    0.000 
#
# Total GULP energy -122620.349397 kJ/mol
# GULP energy per Si atom -5573.652245 kJ/mol
# Density = 2.779245 g / cm^3
# Si number density = 27.855853 Si / 1000 Ang^3
#
#
#
# Elastic Constant Matrix: (Units=GPa)
#
#
# Indices 1 2 3 4 5 6 
#
# 1 130.2144 36.6337 41.5471 -0.0005 25.9007 0.0003
# 2 36.6337 299.3571 79.5523 -0.0003 7.2440 0.0002
# 3 41.5471 79.5523 109.0587 -0.0006 27.8557 0.0006
# 4 -0.0005 -0.0003 -0.0006 48.6590 0.0005 9.2379
# 5 25.9007 7.2440 27.8557 0.0005 55.8834 -0.0004
# 6 0.0003 0.0002 0.0006 9.2379 -0.0004 38.5944
#
#
#
# Elastic Compliance Matrix: (Units=1/GPa)
#
#
# Indices 1 2 3 4 5 6 
#
# 1 0.009163 -0.000402 -0.002436 0.000000 -0.002980 0.000000
# 2 -0.000402 0.004222 -0.003248 0.000000 0.001258 0.000000
# 3 -0.002436 -0.003248 0.013832 0.000000 -0.005344 0.000000
# 4 0.000000 0.000000 0.000000 0.021530 0.000000 -0.005153
# 5 -0.002980 0.001258 -0.005344 0.000000 0.021777 0.000000
# 6 0.000000 0.000000 0.000000 -0.005153 0.000000 0.027144
#
#
# Mechanical properties :
#
#
# Convention : Reuss Voigt Hill
#
# Bulk Modulus (GPa) = 66.46976 94.89962 80.68469
# Shear Modulus (GPa) = 43.53305 54.02050 48.77677
#
# Velocity S-wave (km/s) = 3.95751 4.40851 4.18909
# Velocity P-wave (km/s) = 6.69301 7.74954 7.24057
#
# Compressibility (1/GPa) = 0.01504444
#
# Stress axis : x y z
#
# Youngs Moduli (GPa) = 109.13650 236.83052 72.29555
#
# Poissons Ratio (x) = 0.09514 0.17614
# Poissons Ratio (y) = 0.04384 0.23484
# Poissons Ratio (z) = 0.26591 0.76930
#
# Static dielectric constant tensor:
#      x y z
#    x 2.389340 0.000000 -0.082540 
#    y 0.000000 2.332140 0.000000 
#    z -0.082540 0.000000 2.317520 
# 
# From -- ./inp_files/196823.got.cif
#   From: 2010.05.17/outbox.cif.g08.bks.cpg/sg15_99_cif.got.tgz:196823.got - 2010.06.03 18:47:42.
