data_PCOD9298538
_publ_section_title
;
Structure prediction by ZEFSAII (Michael W. Deem and Ramdas Pophale) SiO2 
 PCOD9298538
Probable space group: C 2/C
;
_chemical_formula_sum "Si O2"
_cell_formula_units_Z 40
_cell_length_a 4.985761
_cell_length_b 27.368009
_cell_length_c 11.591673
_cell_angle_alpha 90.000000
_cell_angle_beta 91.154822
_cell_angle_gamma 90.000000
_cell_volume 1581.366597
_symmetry_space_group_name_H-M "C 2/C"
_symmetry_group_IT_number 15
_symmetry_cell_setting 'monoclinic'
loop_
_space_group_symop_operation_xyz
x,y,z
-x,y,1/2-z
-x,-y,-z
x,-y,1/2+z
1/2+x,1/2+y,z
1/2-x,1/2+y,1/2-z
1/2-x,1/2-y,-z
1/2+x,1/2-y,1/2+z
loop_
_atom_site_type_symbol
_atom_site_label
_atom_site_fract_x
_atom_site_fract_y
_atom_site_fract_z
Si Si1 0.872138 0.796736 0.065379
Si Si2 0.674944 0.354123 0.647707
Si Si3 0.500000 0.765531 0.750000
Si Si4 0.000000 0.432472 0.750000
Si Si5 0.742098 0.506765 0.914492
Si Si6 0.000000 0.347947 0.250000
Si Si7 0.000000 0.088202 0.750000
O O1 0.090505 0.770650 0.149007
O O2 0.646259 0.818919 0.147724
O O3 0.750000 0.750000 0.000000
O O4 0.951077 0.837754 0.973502
O O5 0.500000 0.374235 0.750000
O O6 0.784463 0.303273 0.700831
O O7 0.900514 0.395694 0.647249
O O8 0.208751 0.468190 0.688497
O O9 0.659344 0.556068 0.845867
O O10 0.500000 0.500000 0.000000
O O11 0.000000 0.500000 0.000000
O O12 0.254670 0.379655 0.298643
#
# Coordination Sequence:
#
# PCOD9298538 Si02
#       7
#     8   8   4   4   8   4   4
#     4  10  24  46  75 108 156 208 260 328 399 477
#     4  10  24  44  73 111 154 199 262 323 395 483
#     4   9  21  46  65 110 146 210 257 318 389 473
#     4  11  27  48  71 116 150 200 267 322 405 491
#     4  12  28  50  83 113 159 214 261 334 411 486
#     4  12  27  52  77 121 158 211 271 338 391 486
#     4  12  29  52  79 119 160 199 279 324 401 480
#
# _framework density 25.294574999999998
#
# number of rings (size 3 to 8) (size 9 to 14) (size 15 to 20)
#    0.000    1.200    0.000    3.600   15.400    0.800 
#   14.400    0.000    0.000    0.000    0.000    0.000 
#    0.000    0.000    0.000    0.000    0.000    0.000 
#
# Total GULP energy -111659.147724 kJ/mol
# GULP energy per Si atom -5582.957386 kJ/mol
# Density = 2.523700 g / cm^3
# Si number density = 25.294575 Si / 1000 Ang^3
#
#
#
# Elastic Constant Matrix: (Units=GPa)
#
#
# Indices 1 2 3 4 5 6 
#
# 1 127.9701 47.3132 40.8634 0.0000 0.3857 0.0000
# 2 47.3132 146.1599 63.4584 0.0000 0.4825 0.0000
# 3 40.8634 63.4584 130.0032 0.0000 -0.3119 0.0000
# 4 0.0000 0.0000 0.0000 -38.0176 0.0000 -41.3251
# 5 0.3857 0.4825 -0.3119 0.0000 49.9424 0.0000
# 6 0.0000 0.0000 0.0000 -41.3251 0.0000 8.0402
#
#
#
# Elastic Compliance Matrix: (Units=1/GPa)
#
#
# Indices 1 2 3 4 5 6 
#
# 1 0.009206 -0.002187 -0.001826 0.000000 -0.000061 0.000000
# 2 -0.002187 0.009202 -0.003805 0.000000 -0.000096 0.000000
# 3 -0.001826 -0.003805 0.010124 0.000000 0.000114 0.000000
# 4 0.000000 0.000000 0.000000 -0.003993 0.000000 -0.020525
# 5 -0.000061 -0.000096 0.000114 0.000000 0.020025 0.000000
# 6 0.000000 0.000000 0.000000 -0.020525 0.000000 0.018882
#
#
# Mechanical properties :
#
#
# Convention : Reuss Voigt Hill
#
# Bulk Modulus (GPa) = 77.54365 78.60036 78.07200
# Shear Modulus (GPa) = 59.96636 20.82620 40.39628
#
# Velocity S-wave (km/s) = 4.87429 2.87251 4.00063
# Velocity P-wave (km/s) = 7.89943 6.49178 7.22995
#
# Compressibility (1/GPa) = 0.01289596
#
# Stress axis : x y z
#
# Youngs Moduli (GPa) = 108.62136 108.67328 98.77943
#
# Poissons Ratio (x) = 0.23767 0.18041
# Poissons Ratio (y) = 0.23755 0.37581
# Poissons Ratio (z) = 0.19839 0.41345
#
# Static dielectric constant tensor:
#      x y z
#    x 1.942390 0.000000 0.065900 
#    y 0.000000 2.015150 0.000000 
#    z 0.065900 0.000000 2.043190 
# 
# From -- ./inp_files/73168.got.cif
#   From: 2010.05.17/outbox.cif.g08.bks.cpg/sg15_37_cif.got.tgz:73168.got - 2010.06.03 18:47:42.
