data_PCOD9298472
_publ_section_title
;
Structure prediction by ZEFSAII (Michael W. Deem and Ramdas Pophale) SiO2 
 PCOD9298472
Probable space group: C 2/C
;
_chemical_formula_sum "Si O2"
_cell_formula_units_Z 40
_cell_length_a 9.482365
_cell_length_b 21.941382
_cell_length_c 8.250593
_cell_angle_alpha 90.000000
_cell_angle_beta 74.123078
_cell_angle_gamma 90.000000
_cell_volume 1651.101885
_symmetry_space_group_name_H-M "C 2/C"
_symmetry_group_IT_number 15
_symmetry_cell_setting 'monoclinic'
loop_
_space_group_symop_operation_xyz
x,y,z
-x,y,1/2-z
-x,-y,-z
x,-y,1/2+z
1/2+x,1/2+y,z
1/2-x,1/2+y,1/2-z
1/2-x,1/2-y,-z
1/2+x,1/2-y,1/2+z
loop_
_atom_site_type_symbol
_atom_site_label
_atom_site_fract_x
_atom_site_fract_y
_atom_site_fract_z
Si Si1 0.439541 0.881344 0.593739
Si Si2 0.057290 0.126899 0.549639
Si Si3 0.072267 0.748521 0.549880
Si Si4 0.816993 0.060378 0.470350
Si Si5 0.703664 0.066928 0.871061
O O1 0.500000 0.896084 0.750000
O O2 0.467520 0.812055 0.535907
O O3 0.267572 0.894129 0.623270
O O4 0.530815 0.926497 0.448045
O O5 0.228291 0.119588 0.533289
O O6 0.000000 0.114260 0.750000
O O7 0.995670 0.191544 0.511957
O O8 0.985769 0.077776 0.449289
O O9 0.250000 0.750000 0.500000
O O10 0.000000 0.743773 0.750000
O O11 0.745790 0.071393 0.670221
O O12 0.778194 0.994029 0.417146
#
# Coordination Sequence:
#
# PCOD9298472 Si02
#       5
#     8   8   8   8   8
#     4  12  26  44  69  99 138 183 237 288 356 420
#     4  10  24  44  70  99 139 183 235 287 353 419
#     4  12  27  47  76 104 143 188 236 295 357 422
#     4  11  22  44  66 101 141 179 235 286 356 418
#     4  11  24  40  70 100 136 185 229 296 345 428
#
# _framework density 24.226247000000001
#
# number of rings (size 3 to 8) (size 9 to 14) (size 15 to 20)
#    0.000    0.800    2.000    4.800    5.600    2.400 
#    0.000    0.000    0.000    0.000    0.000    0.000 
#    0.000    0.000    0.000    0.000    0.000    0.000 
#
# Total GULP energy -111937.978460 kJ/mol
# GULP energy per Si atom -5596.898923 kJ/mol
# Density = 2.417111 g / cm^3
# Si number density = 24.226247 Si / 1000 Ang^3
#
#
#
# Elastic Constant Matrix: (Units=GPa)
#
#
# Indices 1 2 3 4 5 6 
#
# 1 123.9798 19.6666 28.5512 0.0000 16.4349 0.0000
# 2 19.6666 98.8627 -22.9848 0.0000 19.5671 0.0000
# 3 28.5512 -22.9848 98.9194 0.0000 13.6103 0.0000
# 4 0.0000 0.0000 0.0000 27.4302 0.0000 14.5661
# 5 16.4349 19.5671 13.6103 0.0000 47.4871 0.0000
# 6 0.0000 0.0000 0.0000 14.5661 0.0000 41.5032
#
#
#
# Elastic Compliance Matrix: (Units=1/GPa)
#
#
# Indices 1 2 3 4 5 6 
#
# 1 0.009310 -0.002273 -0.003020 0.000000 -0.001420 0.000000
# 2 -0.002273 0.012721 0.004398 0.000000 -0.005716 0.000000
# 3 -0.003020 0.004398 0.012606 0.000000 -0.004380 0.000000
# 4 0.000000 0.000000 0.000000 0.044807 0.000000 -0.015726
# 5 -0.001420 -0.005716 -0.004380 0.000000 0.025160 0.000000
# 6 0.000000 0.000000 0.000000 -0.015726 0.000000 0.029614
#
#
# Mechanical properties :
#
#
# Convention : Reuss Voigt Hill
#
# Bulk Modulus (GPa) = 30.44399 41.35864 35.90131
# Shear Modulus (GPa) = 34.02376 43.05270 38.53823
#
# Velocity S-wave (km/s) = 3.75162 4.22015 3.99276
# Velocity P-wave (km/s) = 5.60000 6.39180 6.00896
#
# Compressibility (1/GPa) = 0.03284721
#
# Stress axis : x y z
#
# Youngs Moduli (GPa) = 107.41011 78.60980 79.33010
#
# Poissons Ratio (x) = 0.17869 0.23958
# Poissons Ratio (y) = 0.24416 -0.34892
# Poissons Ratio (z) = 0.32438 -0.34575
#
# Static dielectric constant tensor:
#      x y z
#    x 1.952230 0.000000 -0.059830 
#    y 0.000000 1.915160 0.000000 
#    z -0.059830 0.000000 1.705660 
# 
# From -- ./inp_files/23434.got.cif
#   From: 2010.05.17/outbox.cif.g08.bks.cpg/sg15_12_cif.got.tgz:23434.got - 2010.06.03 18:47:42.
