data_PCOD9298294
_publ_section_title
;
Structure prediction by ZEFSAII (Michael W. Deem and Ramdas Pophale) SiO2 
 PCOD9298294
Probable space group: C 2/C
;
_chemical_formula_sum "Si O2"
_cell_formula_units_Z 44
_cell_length_a 10.293656
_cell_length_b 11.064386
_cell_length_c 22.181196
_cell_angle_alpha 90.000000
_cell_angle_beta 135.291814
_cell_angle_gamma 90.000000
_cell_volume 1777.230325
_symmetry_space_group_name_H-M "C 2/C"
_symmetry_group_IT_number 15
_symmetry_cell_setting 'monoclinic'
loop_
_space_group_symop_operation_xyz
x,y,z
-x,y,1/2-z
-x,-y,-z
x,-y,1/2+z
1/2+x,1/2+y,z
1/2-x,1/2+y,1/2-z
1/2-x,1/2-y,-z
1/2+x,1/2-y,1/2+z
loop_
_atom_site_type_symbol
_atom_site_label
_atom_site_fract_x
_atom_site_fract_y
_atom_site_fract_z
Si Si1 0.420051 0.315697 0.586082
Si Si2 0.000000 0.292294 0.750000
Si Si3 0.619252 0.641584 0.606227
Si Si4 0.790281 0.092420 0.156428
Si Si5 0.300687 0.120875 0.789998
Si Si6 0.202687 0.091910 0.076479
O O1 0.250000 0.250000 0.500000
O O2 0.332236 0.419813 0.599084
O O3 0.527305 0.211691 0.659853
O O4 0.567611 0.360236 0.585730
O O5 0.148859 0.205715 0.770192
O O6 0.096636 0.365330 0.836105
O O7 0.687533 0.779104 0.628046
O O8 0.709084 0.585363 0.696352
O O9 0.399664 0.635426 0.518202
O O10 0.698022 0.552177 0.580758
O O11 0.000000 0.094107 0.250000
O O12 0.680534 0.990825 0.157574
#
# Coordination Sequence:
#
# PCOD9298294 Si02
#       6
#     8   4   8   8   8   8
#     4  11  23  45  71 105 141 190 243 296 363 436
#     4  10  24  44  66 102 140 184 234 300 362 426
#     4  11  24  44  69 103 137 188 242 291 364 426
#     4  12  23  44  72 104 147 194 236 303 362 430
#     4  11  25  43  71 104 144 187 242 298 360 433
#     4  10  24  45  70 101 142 183 239 298 358 436
#
# _framework density 24.757622999999999
#
# number of rings (size 3 to 8) (size 9 to 14) (size 15 to 20)
#    0.000    1.091    4.545    1.091    3.818    1.455 
#    0.000    0.000    0.000    0.000    0.000    0.000 
#    0.000    0.000    0.000    0.000    0.000    0.000 
#
# Total GULP energy -122924.569731 kJ/mol
# GULP energy per Si atom -5587.480442 kJ/mol
# Density = 2.470127 g / cm^3
# Si number density = 24.757623 Si / 1000 Ang^3
#
#
#
# Elastic Constant Matrix: (Units=GPa)
#
#
# Indices 1 2 3 4 5 6 
#
# 1 64.9171 19.1765 8.5035 0.0000 -7.6527 0.0000
# 2 19.1765 118.6958 32.5827 0.0000 9.8200 0.0000
# 3 8.5035 32.5827 126.2158 0.0000 -10.2440 0.0000
# 4 0.0000 0.0000 0.0000 -6.6750 0.0000 10.6870
# 5 -7.6527 9.8200 -10.2440 0.0000 31.0437 0.0000
# 6 0.0000 0.0000 0.0000 10.6870 0.0000 38.3983
#
#
#
# Elastic Compliance Matrix: (Units=1/GPa)
#
#
# Indices 1 2 3 4 5 6 
#
# 1 0.016952 -0.003201 0.000109 0.000000 0.005227 0.000000
# 2 -0.003201 0.010115 -0.002794 0.000000 -0.004911 0.000000
# 3 0.000109 -0.002794 0.008951 0.000000 0.003864 0.000000
# 4 0.000000 0.000000 0.000000 -0.103633 0.000000 0.028843
# 5 0.005227 -0.004911 0.003864 0.000000 0.036330 0.000000
# 6 0.000000 0.000000 0.000000 0.028843 0.000000 0.018015
#
#
# Mechanical properties :
#
#
# Convention : Reuss Voigt Hill
#
# Bulk Modulus (GPa) = 41.24665 47.81713 44.53189
# Shear Modulus (GPa) = 759.29725 29.19112 394.24419
#
# Velocity S-wave (km/s) = 17.53163 3.43749 12.63278
# Velocity P-wave (km/s) = 20.65205 5.92547 15.19240
#
# Compressibility (1/GPa) = 0.02424439
#
# Stress axis : x y z
#
# Youngs Moduli (GPa) = 58.99065 98.85940 111.72453
#
# Poissons Ratio (x) = 0.31645 -0.01212
# Poissons Ratio (y) = 0.18883 0.31218
# Poissons Ratio (z) = -0.00640 0.27623
#
# Static dielectric constant tensor:
#      x y z
#    x 2.067310 0.000000 -0.072780 
#    y 0.000000 1.976710 0.000000 
#    z -0.072780 0.000000 2.128420 
# 
# From -- ./inp_files/269372.got.cif
#   From: 2010.05.17/outbox.cif.g08.bks.cpg/sg15_135_cif.got.tgz:269372.got - 2010.06.03 18:47:42.
