data_PCOD9298609
_publ_section_title
;
Structure prediction by ZEFSAII (Michael W. Deem and Ramdas Pophale) SiO2 
 PCOD9298609
Probable space group: C 2/C
;
_chemical_formula_sum "Si O2"
_cell_formula_units_Z 40
_cell_length_a 10.834304
_cell_length_b 9.938640
_cell_length_c 31.714200
_cell_angle_alpha 90.000000
_cell_angle_beta 147.053682
_cell_angle_gamma 90.000000
_cell_volume 1857.219711
_symmetry_space_group_name_H-M "C 2/C"
_symmetry_group_IT_number 15
_symmetry_cell_setting 'monoclinic'
loop_
_space_group_symop_operation_xyz
x,y,z
-x,y,1/2-z
-x,-y,-z
x,-y,1/2+z
1/2+x,1/2+y,z
1/2-x,1/2+y,1/2-z
1/2-x,1/2-y,-z
1/2+x,1/2-y,1/2+z
loop_
_atom_site_type_symbol
_atom_site_label
_atom_site_fract_x
_atom_site_fract_y
_atom_site_fract_z
Si Si1 0.916325 0.005991 0.523979
Si Si2 0.744914 0.306668 0.172349
Si Si3 0.875531 0.659672 0.281324
Si Si4 0.336566 0.716709 0.365756
Si Si5 0.389145 0.024662 0.367063
O O1 0.419233 0.397009 0.402330
O O2 0.620387 0.164275 0.330051
O O3 0.655840 0.050947 0.450870
O O4 0.949138 0.858502 0.553355
O O5 0.647131 0.279684 0.191014
O O6 0.000000 0.359631 0.250000
O O7 0.748935 0.153061 0.154984
O O8 0.698303 0.673872 0.192819
O O9 0.667055 0.877599 0.132880
O O10 0.850132 0.532877 0.305243
O O11 0.500000 0.500000 0.500000
#
# Coordination Sequence:
#
# PCOD9298609 Si02
#       5
#     8   8   8   8   8
#     4  12  24  42  68  99 142 179 223 287 356 408
#     4  10  25  44  70  96 136 182 230 283 345 414
#     4   9  24  41  69  96 141 169 236 287 333 403
#     4  11  23  42  73  99 135 184 231 282 351 418
#     4  10  24  45  65 101 135 177 231 282 346 411
#
# _framework density 21.537571
#
# number of rings (size 3 to 8) (size 9 to 14) (size 15 to 20)
#    1.200    0.400    2.000    1.200   11.200    0.000 
#    0.000    2.000    0.000    0.000    0.000    0.000 
#    0.000    0.000    0.000    0.000    0.000    0.000 
#
# Total GULP energy -111660.651031 kJ/mol
# GULP energy per Si atom -5583.032552 kJ/mol
# Density = 2.148855 g / cm^3
# Si number density = 21.537571 Si / 1000 Ang^3
#
#
#
# Elastic Constant Matrix: (Units=GPa)
#
#
# Indices 1 2 3 4 5 6 
#
# 1 38.2434 0.9707 19.3845 0.0000 -16.5814 0.0000
# 2 0.9707 110.3558 19.9333 0.0000 -12.6361 0.0000
# 3 19.3845 19.9333 98.3375 0.0000 -13.2228 0.0000
# 4 0.0000 0.0000 0.0000 46.3478 0.0000 -9.1466
# 5 -16.5814 -12.6361 -13.2228 0.0000 35.4229 0.0000
# 6 0.0000 0.0000 0.0000 -9.1466 0.0000 13.8170
#
#
#
# Elastic Compliance Matrix: (Units=1/GPa)
#
#
# Indices 1 2 3 4 5 6 
#
# 1 0.035548 0.002440 -0.005419 0.000000 0.015487 0.000000
# 2 0.002440 0.009841 -0.001948 0.000000 0.003925 0.000000
# 3 -0.005419 -0.001948 0.011789 0.000000 0.001169 0.000000
# 4 0.000000 0.000000 0.000000 0.024818 0.000000 0.016429
# 5 0.015487 0.003925 0.001169 0.000000 0.037317 0.000000
# 6 0.000000 0.000000 0.000000 0.016429 0.000000 0.083251
#
#
# Mechanical properties :
#
#
# Convention : Reuss Voigt Hill
#
# Bulk Modulus (GPa) = 21.13111 36.39041 28.76076
# Shear Modulus (GPa) = 21.91110 32.89408 27.40259
#
# Velocity S-wave (km/s) = 3.19304 3.91229 3.57082
# Velocity P-wave (km/s) = 4.84010 6.11073 5.51215
#
# Compressibility (1/GPa) = 0.04732360
#
# Stress axis : x y z
#
# Youngs Moduli (GPa) = 28.13081 101.61074 84.82204
#
# Poissons Ratio (x) = -0.24789 0.45968
# Poissons Ratio (y) = -0.06863 0.16523
# Poissons Ratio (z) = 0.15245 0.19793
#
# Static dielectric constant tensor:
#      x y z
#    x 1.745950 0.000000 0.005140 
#    y 0.000000 1.847820 0.000000 
#    z 0.005140 0.000000 1.760130 
# 
# From -- ./inp_files/310546.got.cif
#   From: 2010.05.17/outbox.cif.g08.bks.cpg/sg15_156_cif.got.tgz:310546.got - 2010.06.03 18:47:42.
