data_PCOD9298568
_publ_section_title
;
Structure prediction by ZEFSAII (Michael W. Deem and Ramdas Pophale) SiO2 
 PCOD9298568
Probable space group: C 2/C
;
_chemical_formula_sum "Si O2"
_cell_formula_units_Z 60
_cell_length_a 25.693522
_cell_length_b 10.727510
_cell_length_c 12.130454
_cell_angle_alpha 90.000000
_cell_angle_beta 63.003678
_cell_angle_gamma 90.000000
_cell_volume 2979.166059
_symmetry_space_group_name_H-M "C 2/C"
_symmetry_group_IT_number 15
_symmetry_cell_setting 'monoclinic'
loop_
_space_group_symop_operation_xyz
x,y,z
-x,y,1/2-z
-x,-y,-z
x,-y,1/2+z
1/2+x,1/2+y,z
1/2-x,1/2+y,1/2-z
1/2-x,1/2-y,-z
1/2+x,1/2-y,1/2+z
loop_
_atom_site_type_symbol
_atom_site_label
_atom_site_fract_x
_atom_site_fract_y
_atom_site_fract_z
Si Si1 0.090640 0.065504 0.485223
Si Si2 0.405659 0.333426 0.172931
Si Si3 0.143217 0.326854 0.385857
Si Si4 0.770675 0.801098 0.861427
Si Si5 0.656807 0.106277 0.337199
Si Si6 0.677401 0.517275 0.590971
Si Si7 0.293581 0.865033 0.951299
Si Si8 0.000000 0.145259 0.750000
O O1 0.100686 0.205625 0.427684
O O2 0.042022 0.068906 0.627873
O O3 0.077164 0.958312 0.410050
O O4 0.149238 0.027038 0.497347
O O5 0.385783 0.224896 0.109879
O O6 0.352430 0.379215 0.302834
O O7 0.456172 0.287425 0.207456
O O8 0.199745 0.295048 0.254468
O O9 0.127081 0.470786 0.377223
O O10 0.162146 0.340670 0.494195
O O11 0.715425 0.865552 0.852165
O O12 0.825994 0.889314 0.838919
O O13 0.750000 0.750000 0.000000
O O14 0.676590 0.113628 0.192107
O O15 0.746982 0.526440 0.514687
O O16 0.250000 0.750000 0.000000
#
# Coordination Sequence:
#
# PCOD9298568 Si02
#       8
#     8   8   8   8   8   8   8   4
#     4  11  22  42  68  91 123 157 213 278 336 383
#     4  11  22  42  64  90 121 160 214 273 325 376
#     4  12  24  38  62  94 134 178 215 264 316 382
#     4  12  23  36  56  97 142 177 213 256 301 377
#     4  12  25  38  61  94 136 179 218 259 315 391
#     4  11  20  34  59  90 127 171 208 249 301 376
#     4  12  19  36  56  86 131 183 219 236 295 385
#     4  10  24  44  74  92 108 158 226 282 330 394
#
# _framework density 20.139863999999999
#
# number of rings (size 3 to 8) (size 9 to 14) (size 15 to 20)
#    0.000    0.533    6.667    2.800    0.000    0.000 
#    0.000    0.667    0.000    1.600    0.000    0.000 
#    0.000    0.000    0.000    0.000    0.000    0.000 
#
# Total GULP energy -167141.307347 kJ/mol
# GULP energy per Si atom -5571.376912 kJ/mol
# Density = 2.009403 g / cm^3
# Si number density = 20.139864 Si / 1000 Ang^3
#
#
#
# Elastic Constant Matrix: (Units=GPa)
#
#
# Indices 1 2 3 4 5 6 
#
# 1 54.5742 36.9919 9.4327 0.0000 10.0766 0.0000
# 2 36.9919 122.7462 26.4448 0.0000 7.4373 0.0000
# 3 9.4327 26.4448 100.1630 0.0000 7.8335 0.0000
# 4 0.0000 0.0000 0.0000 21.9537 0.0000 11.7482
# 5 10.0766 7.4373 7.8335 0.0000 30.1946 0.0000
# 6 0.0000 0.0000 0.0000 11.7482 0.0000 14.9302
#
#
#
# Elastic Compliance Matrix: (Units=1/GPa)
#
#
# Indices 1 2 3 4 5 6 
#
# 1 0.024177 -0.006910 0.000046 0.000000 -0.006378 0.000000
# 2 -0.006910 0.010686 -0.002190 0.000000 0.000242 0.000000
# 3 0.000046 -0.002190 0.010734 0.000000 -0.002261 0.000000
# 4 0.000000 0.000000 0.000000 0.078683 0.000000 -0.061914
# 5 -0.006378 0.000242 -0.002261 0.000000 0.035774 0.000000
# 6 0.000000 0.000000 0.000000 -0.061914 0.000000 0.115697
#
#
# Mechanical properties :
#
#
# Convention : Reuss Voigt Hill
#
# Bulk Modulus (GPa) = 36.37469 47.02470 41.69970
# Shear Modulus (GPa) = 16.50050 27.05662 21.77856
#
# Velocity S-wave (km/s) = 2.86544 3.66927 3.29198
# Velocity P-wave (km/s) = 5.38961 6.43048 5.93292
#
# Compressibility (1/GPa) = 0.02749164
#
# Stress axis : x y z
#
# Youngs Moduli (GPa) = 41.36160 93.57739 93.15953
#
# Poissons Ratio (x) = 0.64659 -0.00431
# Poissons Ratio (y) = 0.28580 0.20398
# Poissons Ratio (z) = -0.00191 0.20490
#
# Static dielectric constant tensor:
#      x y z
#    x 1.738300 0.000000 -0.046790 
#    y 0.000000 1.919460 0.000000 
#    z -0.046790 0.000000 1.790310 
# 
# From -- ./inp_files/122654.got.cif
#   From: 2010.05.17/outbox.cif.g08.bks.cpg/sg15_62_cif.got.tgz:122654.got - 2010.06.03 18:47:42.
