data_PCOD9298889
_publ_section_title
;
Structure prediction by ZEFSAII (Michael W. Deem and Ramdas Pophale) SiO2 
 PCOD9298889
Probable space group: C 2/C
;
_chemical_formula_sum "Si O2"
_cell_formula_units_Z 60
_cell_length_a 21.072084
_cell_length_b 13.570520
_cell_length_c 9.287486
_cell_angle_alpha 90.000000
_cell_angle_beta 90.777065
_cell_angle_gamma 90.000000
_cell_volume 2655.597235
_symmetry_space_group_name_H-M "C 2/C"
_symmetry_group_IT_number 15
_symmetry_cell_setting 'monoclinic'
loop_
_space_group_symop_operation_xyz
x,y,z
-x,y,1/2-z
-x,-y,-z
x,-y,1/2+z
1/2+x,1/2+y,z
1/2-x,1/2+y,1/2-z
1/2-x,1/2-y,-z
1/2+x,1/2-y,1/2+z
loop_
_atom_site_type_symbol
_atom_site_label
_atom_site_fract_x
_atom_site_fract_y
_atom_site_fract_z
Si Si1 0.500000 0.754858 0.750000
Si Si2 0.309539 0.056394 0.894430
Si Si3 0.354580 0.298965 0.570048
Si Si4 0.870557 0.353357 0.840520
Si Si5 0.778793 0.947885 0.377584
Si Si6 0.004682 0.883412 0.975513
Si Si7 0.820248 0.262884 0.561224
Si Si8 0.372120 0.378406 0.861346
O O1 0.440090 0.822565 0.788125
O O2 0.488440 0.682783 0.614750
O O3 0.354061 0.967733 0.842529
O O4 0.261506 0.081850 0.763173
O O5 0.266345 0.014190 0.023058
O O6 0.347354 0.147153 0.965029
O O7 0.360406 0.192250 0.498851
O O8 0.303661 0.358987 0.475571
O O9 0.422981 0.352777 0.554294
O O10 0.341216 0.309721 0.737804
O O11 0.825783 0.296258 0.725110
O O12 0.840134 0.015051 0.338573
O O13 0.947783 0.868381 0.860187
O O14 0.000000 0.000000 0.000000
O O15 0.750000 0.250000 0.500000
O O16 0.853823 0.161965 0.518298
#
# Coordination Sequence:
#
# PCOD9298889 Si02
#       8
#     4   8   8   8   8   8   8   8
#     4  10  24  46  68  96 136 182 224 286 330 404
#     4  12  25  44  68  97 128 177 227 280 334 407
#     4  11  26  39  64  98 137 176 221 278 327 409
#     4  11  25  47  67  96 133 181 228 276 343 395
#     4  12  24  40  65 100 137 173 224 270 340 405
#     4  11  23  38  68  97 137 177 225 266 334 404
#     4  12  24  44  70  97 133 175 220 282 340 402
#     4  12  24  41  64 100 137 176 221 275 339 401
#
# _framework density 22.593786000000001
#
# number of rings (size 3 to 8) (size 9 to 14) (size 15 to 20)
#    0.000    0.533    6.667    1.200    3.733    0.533 
#    0.000    0.667    2.933    0.000    0.000    0.000 
#    0.000    0.000    0.000    0.000    0.000    0.000 
#
# Total GULP energy -167787.720985 kJ/mol
# GULP energy per Si atom -5592.924033 kJ/mol
# Density = 2.254236 g / cm^3
# Si number density = 22.593786 Si / 1000 Ang^3
#
#
#
# Elastic Constant Matrix: (Units=GPa)
#
#
# Indices 1 2 3 4 5 6 
#
# 1 80.4760 9.3812 2.5787 0.0000 9.1417 0.0000
# 2 9.3812 74.6935 6.1774 0.0000 7.1718 0.0000
# 3 2.5787 6.1774 96.2171 0.0000 18.7629 0.0000
# 4 0.0000 0.0000 0.0000 30.5214 0.0000 3.4915
# 5 9.1417 7.1718 18.7629 0.0000 35.1838 0.0000
# 6 0.0000 0.0000 0.0000 3.4915 0.0000 19.2117
#
#
#
# Elastic Compliance Matrix: (Units=1/GPa)
#
#
# Indices 1 2 3 4 5 6 
#
# 1 0.012944 -0.001341 0.000381 0.000000 -0.003293 0.000000
# 2 -0.001341 0.013806 -0.000413 0.000000 -0.002246 0.000000
# 3 0.000381 -0.000413 0.011621 0.000000 -0.006212 0.000000
# 4 0.000000 0.000000 0.000000 0.033460 0.000000 -0.006081
# 5 -0.003293 -0.002246 -0.006212 0.000000 0.033049 0.000000
# 6 0.000000 0.000000 0.000000 -0.006081 0.000000 0.053157
#
#
# Mechanical properties :
#
#
# Convention : Reuss Voigt Hill
#
# Bulk Modulus (GPa) = 28.06864 31.96237 30.01551
# Shear Modulus (GPa) = 28.95930 32.53333 30.74631
#
# Velocity S-wave (km/s) = 3.58402 3.79875 3.69295
# Velocity P-wave (km/s) = 5.43848 5.78082 5.61226
#
# Compressibility (1/GPa) = 0.03562694
#
# Stress axis : x y z
#
# Youngs Moduli (GPa) = 77.25419 72.43110 86.05226
#
# Poissons Ratio (x) = 0.09714 -0.03282
# Poissons Ratio (y) = 0.10360 0.03550
# Poissons Ratio (z) = -0.02946 0.02988
#
# Static dielectric constant tensor:
#      x y z
#    x 1.869750 0.000000 -0.026260 
#    y 0.000000 1.855460 0.000000 
#    z -0.026260 0.000000 1.876610 
# 
# From -- ./inp_files/61572.got.cif
#   From: 2010.05.17/outbox.cif.g08.bks.cpg/sg15_31_cif.got.tgz:61572.got - 2010.06.03 18:47:42.
