data_PCOD9298207
_publ_section_title
;
Structure prediction by ZEFSAII (Michael W. Deem and Ramdas Pophale) SiO2 
 PCOD9298207
Probable space group: C 2/C
;
_chemical_formula_sum "Si O2"
_cell_formula_units_Z 64
_cell_length_a 12.187944
_cell_length_b 17.864339
_cell_length_c 22.554104
_cell_angle_alpha 90.000000
_cell_angle_beta 32.984631
_cell_angle_gamma 90.000000
_cell_volume 2673.451474
_symmetry_space_group_name_H-M "C 2/C"
_symmetry_group_IT_number 15
_symmetry_cell_setting 'monoclinic'
loop_
_space_group_symop_operation_xyz
x,y,z
-x,y,1/2-z
-x,-y,-z
x,-y,1/2+z
1/2+x,1/2+y,z
1/2-x,1/2+y,1/2-z
1/2-x,1/2-y,-z
1/2+x,1/2-y,1/2+z
loop_
_atom_site_type_symbol
_atom_site_label
_atom_site_fract_x
_atom_site_fract_y
_atom_site_fract_z
Si Si1 0.652616 0.676313 0.778517
Si Si2 0.271387 0.534379 0.473961
Si Si3 0.042423 0.597066 0.058606
Si Si4 0.045663 0.325017 0.024726
Si Si5 0.718885 0.498651 0.770012
Si Si6 0.133731 0.300962 0.632253
Si Si7 0.380604 0.693918 0.573266
Si Si8 0.269711 0.473431 0.105460
O O1 0.662466 0.585766 0.781700
O O2 0.450993 0.717089 0.845029
O O3 0.682016 0.710253 0.830839
O O4 0.839582 0.694805 0.651548
O O5 0.156598 0.608214 0.507487
O O6 0.508600 0.545507 0.367166
O O7 0.198553 0.508593 0.572147
O O8 0.216723 0.461409 0.460875
O O9 0.858219 0.542024 0.159475
O O10 0.090111 0.648947 0.093768
O O11 0.997076 0.646391 0.022326
O O12 0.175434 0.251606 0.952695
O O13 0.809451 0.497540 0.795892
O O14 0.372633 0.309746 0.536763
O O15 0.000000 0.324661 0.750000
O O16 0.278659 0.615631 0.604976
O O17 0.500000 0.500000 0.000000
#
# Coordination Sequence:
#
# PCOD9298207 Si02
#       8
#     8   8   8   8   8   8   8   8
#     4  11  23  45  67 102 140 184 228 293 357 418
#     4  11  25  44  70 103 142 191 233 285 364 413
#     4  12  26  45  69 107 146 177 245 293 353 427
#     4  12  26  46  68 103 147 182 232 296 352 435
#     4  10  24  43  74  99 141 187 238 292 345 424
#     4  12  25  39  74 104 137 184 234 301 360 406
#     4  11  24  45  68 104 140 182 241 293 353 421
#     4   9  21  43  71  99 134 179 238 291 338 419
#
# _framework density 23.939091000000001
#
# number of rings (size 3 to 8) (size 9 to 14) (size 15 to 20)
#    0.000    1.000    3.750    3.000    7.000    1.000 
#    0.000    0.000    2.750    0.000    0.000    0.000 
#    0.000    0.000    0.000    0.000    0.000    0.000 
#
# Total GULP energy -178993.208404 kJ/mol
# GULP energy per Si atom -5593.537763 kJ/mol
# Density = 2.388460 g / cm^3
# Si number density = 23.939091 Si / 1000 Ang^3
#
#
#
# Elastic Constant Matrix: (Units=GPa)
#
#
# Indices 1 2 3 4 5 6 
#
# 1 37.6088 9.7824 17.6275 -0.0035 4.6524 0.0049
# 2 9.7824 72.4231 14.0412 -0.0023 0.8163 0.0041
# 3 17.6275 14.0412 116.0164 0.0065 16.3220 0.0008
# 4 -0.0035 -0.0023 0.0065 29.4820 -0.0042 6.2885
# 5 4.6524 0.8163 16.3220 -0.0042 26.7148 -0.0026
# 6 0.0049 0.0041 0.0008 6.2885 -0.0026 33.6224
#
#
#
# Elastic Compliance Matrix: (Units=1/GPa)
#
#
# Indices 1 2 3 4 5 6 
#
# 1 0.029510 -0.003237 -0.003701 0.000005 -0.002779 -0.000005
# 2 -0.003237 0.014506 -0.001401 0.000001 0.000977 -0.000001
# 3 -0.003701 -0.001401 0.010125 -0.000004 -0.005499 0.000001
# 4 0.000005 0.000001 -0.000004 0.035328 0.000006 -0.006608
# 5 -0.002779 0.000977 -0.005499 0.000006 0.041246 0.000002
# 6 -0.000005 -0.000001 0.000001 -0.006608 0.000002 0.030978
#
#
# Mechanical properties :
#
#
# Convention : Reuss Voigt Hill
#
# Bulk Modulus (GPa) = 26.69362 34.32782 30.51072
# Shear Modulus (GPa) = 26.19737 30.27032 28.23384
#
# Velocity S-wave (km/s) = 3.31166 3.55980 3.43797
# Velocity P-wave (km/s) = 5.07914 5.59169 5.34157
#
# Compressibility (1/GPa) = 0.03746214
#
# Stress axis : x y z
#
# Youngs Moduli (GPa) = 33.88680 68.93873 98.76571
#
# Poissons Ratio (x) = 0.22316 0.36553
# Poissons Ratio (y) = 0.10970 0.13838
# Poissons Ratio (z) = 0.12541 0.09659
#
# Static dielectric constant tensor:
#      x y z
#    x 1.935970 0.000000 0.007980 
#    y 0.000000 1.948400 0.000000 
#    z 0.007980 0.000000 1.900960 
# 
# From -- ./inp_files/274820.got.cif
#   From: 2010.05.17/outbox.cif.g08.bks.cpg/sg15_138_cif.got.tgz:274820.got - 2010.06.03 18:47:42.
