data_PCOD9298355
_publ_section_title
;
Structure prediction by ZEFSAII (Michael W. Deem and Ramdas Pophale) SiO2 
 PCOD9298355
Probable space group: C 2/C
;
_chemical_formula_sum "Si O2"
_cell_formula_units_Z 36
_cell_length_a 30.892226
_cell_length_b 7.187529
_cell_length_c 17.366589
_cell_angle_alpha 90.000000
_cell_angle_beta 25.333876
_cell_angle_gamma 90.000000
_cell_volume 1649.976797
_symmetry_space_group_name_H-M "C 2/C"
_symmetry_group_IT_number 15
_symmetry_cell_setting 'monoclinic'
loop_
_space_group_symop_operation_xyz
x,y,z
-x,y,1/2-z
-x,-y,-z
x,-y,1/2+z
1/2+x,1/2+y,z
1/2-x,1/2+y,1/2-z
1/2-x,1/2-y,-z
1/2+x,1/2-y,1/2+z
loop_
_atom_site_type_symbol
_atom_site_label
_atom_site_fract_x
_atom_site_fract_y
_atom_site_fract_z
Si Si1 0.608564 0.089977 0.824171
Si Si2 0.317113 0.896223 0.940232
Si Si3 0.164339 0.053915 0.311210
Si Si4 0.651280 0.166254 0.392898
Si Si5 0.000000 0.555422 0.250000
O O1 0.598414 0.298420 0.871276
O O2 0.653768 0.058814 0.667114
O O3 0.665153 0.960988 0.795230
O O4 0.500000 0.000000 0.000000
O O5 0.420999 0.839711 0.819057
O O6 0.250000 0.750000 0.000000
O O7 0.242351 0.969976 0.124844
O O8 0.236433 0.171627 0.252000
O O9 0.115993 0.875059 0.429378
O O10 0.571844 0.068535 0.578570
#
# Coordination Sequence:
#
# PCOD9298355 Si02
#       5
#     8   8   8   8   4
#     4  12  24  44  68 101 139 172 229 282 339 411
#     4  11  23  44  72 101 138 183 229 281 346 403
#     4  11  24  43  72  97 138 180 225 284 343 405
#     4  11  22  44  68  99 133 181 227 281 343 404
#     4  10  24  44  68 102 144 174 232 292 336 412
#
# _framework density 21.818490000000001
#
# number of rings (size 3 to 8) (size 9 to 14) (size 15 to 20)
#    0.000    0.889    6.667    0.667    0.000    0.889 
#    0.000    3.333    0.000    0.000    0.000    0.000 
#    0.000    0.000    0.000    0.000    0.000    0.000 
#
# Total GULP energy -100450.409527 kJ/mol
# GULP energy per Si atom -5580.578307 kJ/mol
# Density = 2.176883 g / cm^3
# Si number density = 21.818490 Si / 1000 Ang^3
#
#
#
# Elastic Constant Matrix: (Units=GPa)
#
#
# Indices 1 2 3 4 5 6 
#
# 1 129.1405 42.0612 17.7418 0.0000 -12.0693 0.0000
# 2 42.0612 91.9848 -3.6162 -0.0011 -16.6957 0.0002
# 3 17.7418 -3.6162 53.9647 -0.0005 2.4109 0.0001
# 4 0.0000 -0.0011 -0.0005 11.2281 0.0001 3.1318
# 5 -12.0693 -16.6957 2.4109 0.0001 36.5047 0.0000
# 6 0.0000 0.0002 0.0001 3.1318 0.0000 46.9406
#
#
#
# Elastic Compliance Matrix: (Units=1/GPa)
#
#
# Indices 1 2 3 4 5 6 
#
# 1 0.009790 -0.004348 -0.003576 -0.000001 0.001484 0.000000
# 2 -0.004348 0.013803 0.002143 0.000001 0.004734 0.000000
# 3 -0.003576 0.002143 0.019918 0.000001 -0.001518 0.000000
# 4 -0.000001 0.000001 0.000001 0.090751 0.000000 -0.006055
# 5 0.001484 0.004734 -0.001518 0.000000 0.030150 0.000000
# 6 0.000000 0.000000 0.000000 -0.006055 0.000000 0.021707
#
#
# Mechanical properties :
#
#
# Convention : Reuss Voigt Hill
#
# Bulk Modulus (GPa) = 31.30062 43.05153 37.17607
# Shear Modulus (GPa) = 24.00042 33.52822 28.76432
#
# Velocity S-wave (km/s) = 3.32023 3.92431 3.63484
# Velocity P-wave (km/s) = 5.39218 6.34887 5.88998
#
# Compressibility (1/GPa) = 0.03194825
#
# Stress axis : x y z
#
# Youngs Moduli (GPa) = 102.14983 72.44910 50.20650
#
# Poissons Ratio (x) = 0.31498 0.17954
# Poissons Ratio (y) = 0.44410 -0.10758
# Poissons Ratio (z) = 0.36530 -0.15524
#
# Static dielectric constant tensor:
#      x y z
#    x 1.584140 0.000000 0.037080 
#    y 0.000000 1.847190 0.000000 
#    z 0.037080 0.000000 1.770260 
# 
# From -- ./inp_files/176809.got.cif
#   From: 2010.05.17/outbox.cif.g08.bks.cpg/sg15_89_cif.got.tgz:176809.got - 2010.06.03 18:47:42.
