data_PCOD9298030
_publ_section_title
;
Structure prediction by ZEFSAII (Michael W. Deem and Ramdas Pophale) SiO2 
 PCOD9298030
Probable space group: C 2/C
;
_chemical_formula_sum "Si O2"
_cell_formula_units_Z 60
_cell_length_a 8.413348
_cell_length_b 26.051542
_cell_length_c 21.369126
_cell_angle_alpha 90.000000
_cell_angle_beta 38.046853
_cell_angle_gamma 90.000000
_cell_volume 2886.590653
_symmetry_space_group_name_H-M "C 2/C"
_symmetry_group_IT_number 15
_symmetry_cell_setting 'monoclinic'
loop_
_space_group_symop_operation_xyz
x,y,z
-x,y,1/2-z
-x,-y,-z
x,-y,1/2+z
1/2+x,1/2+y,z
1/2-x,1/2+y,1/2-z
1/2-x,1/2-y,-z
1/2+x,1/2-y,1/2+z
loop_
_atom_site_type_symbol
_atom_site_label
_atom_site_fract_x
_atom_site_fract_y
_atom_site_fract_z
Si Si1 0.771932 0.977879 0.438145
Si Si2 0.684488 0.842091 0.751947
Si Si3 0.106536 0.736698 0.786681
Si Si4 0.530675 0.415857 0.577210
Si Si5 0.500000 0.580681 0.750000
Si Si6 0.844962 0.794825 0.424601
Si Si7 0.737356 0.616403 0.468238
Si Si8 0.973802 0.344218 0.086497
O O1 0.935712 0.954604 0.329773
O O2 0.712882 0.931385 0.502949
O O3 0.500000 0.000000 0.500000
O O4 0.914090 0.024737 0.428380
O O5 0.500000 0.829182 0.750000
O O6 0.889528 0.796737 0.697310
O O7 0.495706 0.853104 0.868188
O O8 0.833056 0.894103 0.689652
O O9 0.410977 0.723558 0.690593
O O10 0.973828 0.699491 0.877896
O O11 0.000000 0.729731 0.750000
O O12 0.401366 0.403612 0.550729
O O13 0.787422 0.381321 0.500943
O O14 0.255253 0.618398 0.818185
O O15 0.750000 0.750000 0.500000
O O16 0.928549 0.842574 0.441769
O O17 0.629479 0.815673 0.443676
#
# Coordination Sequence:
#
# PCOD9298030 Si02
#       8
#     8   8   8   8   4   8   8   8
#     4  12  25  45  70  98 132 180 225 279 343 399
#     4  10  24  43  65  98 138 177 217 279 335 396
#     4  12  25  40  66 100 135 177 222 272 334 405
#     4  11  26  43  68 101 131 175 228 283 334 400
#     4  12  24  44  70  96 128 178 224 278 332 406
#     4  12  23  41  68  97 133 181 217 273 337 404
#     4  11  23  46  69  97 137 173 229 278 341 399
#     4  12  24  46  69  96 139 179 224 275 338 408
#
# _framework density 20.785765999999999
#
# number of rings (size 3 to 8) (size 9 to 14) (size 15 to 20)
#    0.000    0.533    5.333    2.000    5.600    1.600 
#    0.000    0.000    0.000    0.000    0.000    0.000 
#    0.000    0.000    0.000    0.000    0.000    0.000 
#
# Total GULP energy -167832.135016 kJ/mol
# GULP energy per Si atom -5594.404501 kJ/mol
# Density = 2.073846 g / cm^3
# Si number density = 20.785766 Si / 1000 Ang^3
#
#
#
# Elastic Constant Matrix: (Units=GPa)
#
#
# Indices 1 2 3 4 5 6 
#
# 1 66.9975 34.1583 12.4068 0.0001 11.9008 -0.0001
# 2 34.1583 135.5900 16.7861 0.0000 20.6784 0.0000
# 3 12.4068 16.7861 57.7959 0.0002 11.0536 -0.0002
# 4 0.0001 0.0000 0.0002 45.9135 -0.0001 10.7169
# 5 11.9008 20.6784 11.0536 -0.0001 29.5547 0.0001
# 6 -0.0001 0.0000 -0.0002 10.7169 0.0001 27.0155
#
#
#
# Elastic Compliance Matrix: (Units=1/GPa)
#
#
# Indices 1 2 3 4 5 6 
#
# 1 0.017854 -0.003656 -0.002030 0.000000 -0.003872 0.000000
# 2 -0.003656 0.009110 -0.000995 0.000000 -0.004530 0.000000
# 3 -0.002030 -0.000995 0.019104 0.000000 -0.005631 0.000000
# 4 0.000000 0.000000 0.000000 0.024003 0.000000 -0.009522
# 5 -0.003872 -0.004530 -0.005631 0.000000 0.040670 0.000000
# 6 0.000000 0.000000 0.000000 -0.009522 0.000000 0.040793
#
#
# Mechanical properties :
#
#
# Convention : Reuss Voigt Hill
#
# Bulk Modulus (GPa) = 30.57549 43.00954 36.79252
# Shear Modulus (GPa) = 28.44181 33.63222 31.03701
#
# Velocity S-wave (km/s) = 3.70311 4.02685 3.86837
# Velocity P-wave (km/s) = 5.74681 6.50826 6.13935
#
# Compressibility (1/GPa) = 0.03270593
#
# Stress axis : x y z
#
# Youngs Moduli (GPa) = 56.01109 109.76741 52.34496
#
# Poissons Ratio (x) = 0.40130 0.10627
# Poissons Ratio (y) = 0.20477 0.05207
# Poissons Ratio (z) = 0.11372 0.10919
#
# Static dielectric constant tensor:
#      x y z
#    x 1.737150 0.000000 -0.002840 
#    y 0.000000 1.736730 0.000000 
#    z -0.002840 0.000000 1.735360 
# 
# From -- ./inp_files/234532.got.cif
#   From: 2010.05.17/outbox.cif.g08.bks.cpg/sg15_118_cif.got.tgz:234532.got - 2010.06.03 18:47:42.
