data_PCOD9298872
_publ_section_title
;
Structure prediction by ZEFSAII (Michael W. Deem and Ramdas Pophale) SiO2 
 PCOD9298872
Probable space group: C 2/C
;
_chemical_formula_sum "Si O2"
_cell_formula_units_Z 36
_cell_length_a 24.685041
_cell_length_b 7.102036
_cell_length_c 19.015189
_cell_angle_alpha 90.000000
_cell_angle_beta 30.638983
_cell_angle_gamma 90.000000
_cell_volume 1698.907520
_symmetry_space_group_name_H-M "C 2/C"
_symmetry_group_IT_number 15
_symmetry_cell_setting 'monoclinic'
loop_
_space_group_symop_operation_xyz
x,y,z
-x,y,1/2-z
-x,-y,-z
x,-y,1/2+z
1/2+x,1/2+y,z
1/2-x,1/2+y,1/2-z
1/2-x,1/2-y,-z
1/2+x,1/2-y,1/2+z
loop_
_atom_site_type_symbol
_atom_site_label
_atom_site_fract_x
_atom_site_fract_y
_atom_site_fract_z
Si Si1 0.741884 0.337893 0.621590
Si Si2 0.620598 0.450191 0.616521
Si Si3 0.549831 0.991541 0.558354
Si Si4 0.953727 0.205903 0.064830
Si Si5 0.000000 0.316010 0.750000
O O1 0.671716 0.417620 0.635700
O O2 0.804085 0.154612 0.522859
O O3 0.832312 0.482083 0.543932
O O4 0.665411 0.299656 0.772284
O O5 0.500000 0.367513 0.750000
O O6 0.597085 0.670094 0.628355
O O7 0.517779 0.180379 0.553211
O O8 0.540295 0.824654 0.513106
O O9 0.479211 0.940534 0.704865
O O10 0.000000 0.000000 0.000000
#
# Coordination Sequence:
#
# PCOD9298872 Si02
#       5
#     8   8   8   8   4
#     4  11  23  41  76 100 138 194 236 279 362 426
#     4   9  22  43  67 106 145 178 225 304 347 406
#     4  11  27  44  73 104 137 188 239 285 363 424
#     4  11  27  50  67 102 149 184 233 303 346 419
#     4  10  24  46  68 106 146 174 236 308 344 416
#
# _framework density 21.190089
#
# number of rings (size 3 to 8) (size 9 to 14) (size 15 to 20)
#    0.667    0.889    0.000    2.667   14.000    0.889 
#    4.000    0.000    0.000    0.000    0.000    0.000 
#    0.000    0.000    0.000    0.000    0.000    0.000 
#
# Total GULP energy -100614.919097 kJ/mol
# GULP energy per Si atom -5589.717728 kJ/mol
# Density = 2.114186 g / cm^3
# Si number density = 21.190089 Si / 1000 Ang^3
#
#
#
# Elastic Constant Matrix: (Units=GPa)
#
#
# Indices 1 2 3 4 5 6 
#
# 1 113.0111 70.1754 25.0978 -0.0001 1.7549 -0.0018
# 2 70.1754 150.0388 47.6680 -0.0026 14.1394 -0.0040
# 3 25.0978 47.6680 90.1335 0.0007 10.5863 0.0000
# 4 -0.0001 -0.0026 0.0007 4.3238 0.0003 -1.8967
# 5 1.7549 14.1394 10.5863 0.0003 46.9833 0.0003
# 6 -0.0018 -0.0040 0.0000 -1.8967 0.0003 13.5516
#
#
#
# Elastic Compliance Matrix: (Units=1/GPa)
#
#
# Indices 1 2 3 4 5 6 
#
# 1 0.012577 -0.005830 -0.000585 -0.000003 0.001417 -0.000001
# 2 -0.005830 0.010817 -0.003842 0.000009 -0.002172 0.000004
# 3 -0.000585 -0.003842 0.013509 -0.000005 -0.001866 -0.000002
# 4 -0.000003 0.000009 -0.000005 0.246409 -0.000003 0.034488
# 5 0.001417 -0.002172 -0.001866 -0.000003 0.022305 -0.000001
# 6 -0.000001 0.000004 -0.000002 0.034488 -0.000001 0.078619
#
#
# Mechanical properties :
#
#
# Convention : Reuss Voigt Hill
#
# Bulk Modulus (GPa) = 61.02092 71.00730 66.01411
# Shear Modulus (GPa) = 12.18880 26.98789 19.58835
#
# Velocity S-wave (km/s) = 2.40096 3.57264 3.04371
# Velocity P-wave (km/s) = 6.04529 7.11342 6.60100
#
# Compressibility (1/GPa) = 0.01638782
#
# Stress axis : x y z
#
# Youngs Moduli (GPa) = 79.51146 92.44646 74.02612
#
# Poissons Ratio (x) = 0.53896 0.04332
# Poissons Ratio (y) = 0.46355 0.28443
# Poissons Ratio (z) = 0.04653 0.35521
#
# Static dielectric constant tensor:
#      x y z
#    x 1.774530 0.000000 -0.031040 
#    y 0.000000 1.775310 0.000000 
#    z -0.031040 0.000000 1.800250 
# 
# From -- ./inp_files/256692.got.cif
#   From: 2010.05.17/outbox.cif.g08.bks.cpg/sg15_129_cif.got.tgz:256692.got - 2010.06.03 18:47:42.
