data_PCOD9298285
_publ_section_title
;
Structure prediction by ZEFSAII (Michael W. Deem and Ramdas Pophale) SiO2 
 PCOD9298285
Probable space group: C 2/C
;
_chemical_formula_sum "Si O2"
_cell_formula_units_Z 52
_cell_length_a 11.507791
_cell_length_b 15.570418
_cell_length_c 12.428259
_cell_angle_alpha 90.000000
_cell_angle_beta 106.095704
_cell_angle_gamma 90.000000
_cell_volume 2139.614350
_symmetry_space_group_name_H-M "C 2/C"
_symmetry_group_IT_number 15
_symmetry_cell_setting 'monoclinic'
loop_
_space_group_symop_operation_xyz
x,y,z
-x,y,1/2-z
-x,-y,-z
x,-y,1/2+z
1/2+x,1/2+y,z
1/2-x,1/2+y,1/2-z
1/2-x,1/2-y,-z
1/2+x,1/2-y,1/2+z
loop_
_atom_site_type_symbol
_atom_site_label
_atom_site_fract_x
_atom_site_fract_y
_atom_site_fract_z
Si Si1 0.673639 0.945108 0.504447
Si Si2 0.728411 0.850753 0.309020
Si Si3 0.990572 0.797855 0.082885
Si Si4 0.596848 0.689295 0.180704
Si Si5 0.037987 0.601802 0.381720
Si Si6 0.708787 0.527553 0.261714
Si Si7 0.500000 0.573452 0.750000
O O1 0.685194 0.871321 0.419082
O O2 0.571572 0.920969 0.565176
O O3 0.642029 0.035637 0.441886
O O4 0.788628 0.957019 0.609918
O O5 0.865929 0.814096 0.355943
O O6 0.649672 0.781831 0.225884
O O7 0.712408 0.944301 0.247699
O O8 0.944607 0.703100 0.100273
O O9 0.928920 0.864785 0.149671
O O10 0.962950 0.812778 0.951392
O O11 0.500000 0.668567 0.250000
O O12 0.708328 0.621336 0.211025
O O13 0.000000 0.584163 0.250000
O O14 0.580121 0.487582 0.197463
#
# Coordination Sequence:
#
# PCOD9298285 Si02
#       7
#     8   8   8   8   8   8   4
#     4  11  24  42  68  97 141 176 226 287 339 403
#     4  11  26  44  68 106 137 177 235 282 339 412
#     4  11  24  45  71  97 141 177 230 286 342 404
#     4  12  25  44  72 101 137 185 229 280 347 405
#     4  11  23  43  68  99 133 183 225 281 346 406
#     4  11  24  43  66 102 136 179 229 278 344 409
#     4  10  24  44  66 100 132 180 226 286 334 420
#
# _framework density 24.303446999999998
#
# number of rings (size 3 to 8) (size 9 to 14) (size 15 to 20)
#    0.000    0.923    1.538    4.615    2.154    6.154 
#    0.000    2.308    0.000    0.000    0.000    0.000 
#    0.000    0.000    0.000    0.000    0.000    0.000 
#
# Total GULP energy -145344.151000 kJ/mol
# GULP energy per Si atom -5590.159654 kJ/mol
# Density = 2.424813 g / cm^3
# Si number density = 24.303447 Si / 1000 Ang^3
#
#
#
# Elastic Constant Matrix: (Units=GPa)
#
#
# Indices 1 2 3 4 5 6 
#
# 1 32.3216 13.4249 11.1471 0.0000 -6.1114 0.0000
# 2 13.4249 135.8718 29.3741 0.0000 -7.9815 0.0000
# 3 11.1471 29.3741 168.4035 0.0000 -7.6373 0.0000
# 4 0.0000 0.0000 0.0000 30.3542 0.0000 -2.6472
# 5 -6.1114 -7.9815 -7.6373 0.0000 31.6045 0.0000
# 6 0.0000 0.0000 0.0000 -2.6472 0.0000 39.2880
#
#
#
# Elastic Compliance Matrix: (Units=1/GPa)
#
#
# Indices 1 2 3 4 5 6 
#
# 1 0.033602 -0.002673 -0.001510 0.000000 0.005458 0.000000
# 2 -0.002673 0.007945 -0.001154 0.000000 0.001211 0.000000
# 3 -0.001510 -0.001154 0.006282 0.000000 0.000934 0.000000
# 4 0.000000 0.000000 0.000000 0.033139 0.000000 0.002233
# 5 0.005458 0.001211 0.000934 0.000000 0.033228 0.000000
# 6 0.000000 0.000000 0.000000 0.002233 0.000000 0.025604
#
#
# Mechanical properties :
#
#
# Convention : Reuss Voigt Hill
#
# Bulk Modulus (GPa) = 26.91517 49.38769 38.15143
# Shear Modulus (GPa) = 30.70155 39.09273 34.89714
#
# Velocity S-wave (km/s) = 3.55809 4.01499 3.79343
# Velocity P-wave (km/s) = 5.28949 6.46985 5.90922
#
# Compressibility (1/GPa) = 0.03715377
#
# Stress axis : x y z
#
# Youngs Moduli (GPa) = 29.76003 125.87231 159.19116
#
# Poissons Ratio (x) = 0.33645 0.24046
# Poissons Ratio (y) = 0.07955 0.18369
# Poissons Ratio (z) = 0.04495 0.14525
#
# Static dielectric constant tensor:
#      x y z
#    x 2.130730 0.000000 -0.001230 
#    y 0.000000 1.937710 0.000000 
#    z -0.001230 0.000000 1.891440 
# 
# From -- ./inp_files/97113.got.cif
#   From: 2010.05.17/outbox.cif.g08.bks.cpg/sg15_49_cif.got.tgz:97113.got - 2010.06.03 18:47:42.
