data_PCOD9298501
_publ_section_title
;
Structure prediction by ZEFSAII (Michael W. Deem and Ramdas Pophale) SiO2 
 PCOD9298501
Probable space group: C 2/C
;
_chemical_formula_sum "Si O2"
_cell_formula_units_Z 60
_cell_length_a 24.419973
_cell_length_b 9.914568
_cell_length_c 21.230114
_cell_angle_alpha 90.000000
_cell_angle_beta 146.482332
_cell_angle_gamma 90.000000
_cell_volume 2838.331150
_symmetry_space_group_name_H-M "C 2/C"
_symmetry_group_IT_number 15
_symmetry_cell_setting 'monoclinic'
loop_
_space_group_symop_operation_xyz
x,y,z
-x,y,1/2-z
-x,-y,-z
x,-y,1/2+z
1/2+x,1/2+y,z
1/2-x,1/2+y,1/2-z
1/2-x,1/2-y,-z
1/2+x,1/2-y,1/2+z
loop_
_atom_site_type_symbol
_atom_site_label
_atom_site_fract_x
_atom_site_fract_y
_atom_site_fract_z
Si Si1 0.259613 0.303079 0.365501
Si Si2 0.683767 0.332559 0.298340
Si Si3 0.616133 0.487387 0.357099
Si Si4 0.750000 0.750000 0.500000
Si Si5 0.325111 0.405573 0.947080
Si Si6 0.442732 0.884858 0.379782
Si Si7 0.648885 0.964460 0.590289
Si Si8 0.496803 0.350779 0.468757
O O1 0.288373 0.269083 0.464162
O O2 0.309577 0.447500 0.400984
O O3 0.141490 0.330327 0.247468
O O4 0.295134 0.179717 0.356441
O O5 0.637193 0.390193 0.318053
O O6 0.726966 0.183571 0.348376
O O7 0.774635 0.429830 0.365678
O O8 0.603254 0.333529 0.166158
O O9 0.500000 0.520374 0.250000
O O10 0.681744 0.620514 0.412055
O O11 0.647573 0.421306 0.453585
O O12 0.413124 0.335403 0.993835
O O13 0.543929 0.952529 0.451872
O O14 0.484538 0.758498 0.459464
O O15 0.386945 0.983261 0.375730
O O16 0.500000 0.500000 0.500000
#
# Coordination Sequence:
#
# PCOD9298501 Si02
#       8
#     8   8   8   4   8   8   8   8
#     4  11  25  45  72  99 141 186 236 299 353 423
#     4  12  25  45  75 100 144 185 235 294 357 419
#     4  11  23  48  74 102 140 185 237 295 358 431
#     4  10  24  44  72 104 132 186 242 290 358 412
#     4  11  26  43  71 105 137 184 239 291 352 426
#     4  11  27  42  68 105 145 180 235 293 352 424
#     4  11  25  44  69 100 140 187 228 286 355 421
#     4  12  26  41  69 108 135 192 238 281 363 433
#
# _framework density 21.139182000000002
#
# number of rings (size 3 to 8) (size 9 to 14) (size 15 to 20)
#    0.000    0.800    4.000    2.000    9.333    2.133 
#    0.000    0.000    0.000    0.000    0.000    0.000 
#    0.000    0.000    0.000    0.000    0.000    0.000 
#
# Total GULP energy -167309.167338 kJ/mol
# GULP energy per Si atom -5576.972245 kJ/mol
# Density = 2.109107 g / cm^3
# Si number density = 21.139182 Si / 1000 Ang^3
#
#
#
# Elastic Constant Matrix: (Units=GPa)
#
#
# Indices 1 2 3 4 5 6 
#
# 1 32.2436 4.4737 -7.3922 0.0000 8.1458 0.0000
# 2 4.4737 97.6391 5.5148 0.0000 -3.3715 0.0000
# 3 -7.3922 5.5148 60.8635 0.0000 -2.3508 0.0000
# 4 0.0000 0.0000 0.0000 28.3918 0.0000 9.3191
# 5 8.1458 -3.3715 -2.3508 0.0000 31.4964 0.0000
# 6 0.0000 0.0000 0.0000 9.3191 0.0000 33.1805
#
#
#
# Elastic Compliance Matrix: (Units=1/GPa)
#
#
# Indices 1 2 3 4 5 6 
#
# 1 0.034465 -0.002112 0.004036 0.000000 -0.008838 0.000000
# 2 -0.002112 0.010458 -0.001143 0.000000 0.001580 0.000000
# 3 0.004036 -0.001143 0.017028 0.000000 0.000105 0.000000
# 4 0.000000 0.000000 0.000000 0.038798 0.000000 -0.010897
# 5 -0.008838 0.001580 0.000105 0.000000 0.034212 0.000000
# 6 0.000000 0.000000 0.000000 -0.010897 0.000000 0.033199
#
#
# Mechanical properties :
#
#
# Convention : Reuss Voigt Hill
#
# Bulk Modulus (GPa) = 15.74504 21.77098 18.75801
# Shear Modulus (GPa) = 26.62836 31.15707 28.89272
#
# Velocity S-wave (km/s) = 3.55303 3.84331 3.70102
# Velocity P-wave (km/s) = 4.92915 5.47868 5.21116
#
# Compressibility (1/GPa) = 0.06351208
#
# Stress axis : x y z
#
# Youngs Moduli (GPa) = 29.01483 95.62314 58.72676
#
# Poissons Ratio (x) = 0.20198 -0.23702
# Poissons Ratio (y) = 0.06129 0.06713
# Poissons Ratio (z) = -0.11710 0.10930
#
# Static dielectric constant tensor:
#      x y z
#    x 1.739830 0.000000 0.006940 
#    y 0.000000 1.778270 0.000000 
#    z 0.006940 0.000000 1.777380 
# 
# From -- ./inp_files/255575.got.cif
#   From: 2010.05.17/outbox.cif.g08.bks.cpg/sg15_128_cif.got.tgz:255575.got - 2010.06.03 18:47:42.
