data_PCOD9298203
_publ_section_title
;
Structure prediction by ZEFSAII (Michael W. Deem and Ramdas Pophale) SiO2 
 PCOD9298203
Probable space group: C 2/C
;
_chemical_formula_sum "Si O2"
_cell_formula_units_Z 56
_cell_length_a 14.998415
_cell_length_b 27.610318
_cell_length_c 5.567488
_cell_angle_alpha 90.000000
_cell_angle_beta 86.630681
_cell_angle_gamma 90.000000
_cell_volume 2301.572776
_symmetry_space_group_name_H-M "C 2/C"
_symmetry_group_IT_number 15
_symmetry_cell_setting 'monoclinic'
loop_
_space_group_symop_operation_xyz
x,y,z
-x,y,1/2-z
-x,-y,-z
x,-y,1/2+z
1/2+x,1/2+y,z
1/2-x,1/2+y,1/2-z
1/2-x,1/2-y,-z
1/2+x,1/2-y,1/2+z
loop_
_atom_site_type_symbol
_atom_site_label
_atom_site_fract_x
_atom_site_fract_y
_atom_site_fract_z
Si Si1 0.097069 0.112381 0.340844
Si Si2 0.852097 0.024294 0.914922
Si Si3 0.675567 0.785652 0.629720
Si Si4 0.097665 0.374008 0.343926
Si Si5 0.743620 0.640469 0.002837
Si Si6 0.401069 0.688955 0.819776
Si Si7 0.863451 0.525273 0.496458
O O1 0.111529 0.078696 0.567259
O O2 0.110643 0.168672 0.409288
O O3 0.000000 0.104845 0.250000
O O4 0.180973 0.102818 0.154528
O O5 0.744674 0.025284 0.959054
O O6 0.882585 0.001753 0.657928
O O7 0.750000 0.750000 0.500000
O O8 0.632237 0.824293 0.456661
O O9 0.603679 0.745951 0.719052
O O10 0.714905 0.817488 0.838012
O O11 0.173251 0.385492 0.133510
O O12 0.102489 0.419478 0.520835
O O13 0.000000 0.368597 0.250000
O O14 0.676779 0.665525 0.825426
O O15 0.500000 0.670789 0.750000
O O16 0.892172 0.498247 0.247372
#
# Coordination Sequence:
#
# PCOD9298203 Si02
#       7
#     8   8   8   8   8   8   8
#     4  12  26  44  72 106 145 192 253 307 379 461
#     4  10  24  43  74 108 150 199 249 316 392 463
#     4  12  26  46  72 107 150 200 253 310 388 453
#     4  12  30  48  75 113 152 199 258 322 388 459
#     4  12  25  47  72 101 152 197 244 316 373 453
#     4  12  26  44  73 107 145 197 251 309 378 459
#     4  10  24  49  81 112 151 203 258 321 395 466
#
# _framework density 24.331188999999998
#
# number of rings (size 3 to 8) (size 9 to 14) (size 15 to 20)
#    0.000    0.571    4.286    2.143   12.000    1.714 
#    0.000    0.000    0.000    0.000    0.000    0.000 
#    0.000    0.000    0.000    0.000    0.000    0.000 
#
# Total GULP energy -156769.027028 kJ/mol
# GULP energy per Si atom -5598.893822 kJ/mol
# Density = 2.427581 g / cm^3
# Si number density = 24.331189 Si / 1000 Ang^3
#
#
#
# Elastic Constant Matrix: (Units=GPa)
#
#
# Indices 1 2 3 4 5 6 
#
# 1 134.4158 19.3067 44.9869 0.0000 9.5639 0.0000
# 2 19.3067 116.6292 39.5478 0.0000 18.8112 0.0000
# 3 44.9869 39.5478 100.4989 0.0000 19.7504 0.0000
# 4 0.0000 0.0000 0.0000 41.8784 0.0000 -0.5765
# 5 9.5639 18.8112 19.7504 0.0000 18.4875 0.0000
# 6 0.0000 0.0000 0.0000 -0.5765 0.0000 11.3095
#
#
#
# Elastic Compliance Matrix: (Units=1/GPa)
#
#
# Indices 1 2 3 4 5 6 
#
# 1 0.008754 -0.000100 -0.003809 0.000000 -0.000358 0.000000
# 2 -0.000100 0.010786 -0.002599 0.000000 -0.008147 0.000000
# 3 -0.003809 -0.002599 0.014899 0.000000 -0.011302 0.000000
# 4 0.000000 0.000000 0.000000 0.023895 0.000000 0.001218
# 5 -0.000358 -0.008147 -0.011302 0.000000 0.074639 0.000000
# 6 0.000000 0.000000 0.000000 0.001218 0.000000 0.088483
#
#
# Mechanical properties :
#
#
# Convention : Reuss Voigt Hill
#
# Bulk Modulus (GPa) = 46.67622 62.13630 54.40626
# Shear Modulus (GPa) = 20.69416 30.84859 25.77138
#
# Velocity S-wave (km/s) = 2.91953 3.56457 3.25805
# Velocity P-wave (km/s) = 5.53084 6.52186 6.04669
#
# Compressibility (1/GPa) = 0.02142418
#
# Stress axis : x y z
#
# Youngs Moduli (GPa) = 114.23018 92.71346 67.11754
#
# Poissons Ratio (x) = 0.00925 0.25566
# Poissons Ratio (y) = 0.01140 0.17442
# Poissons Ratio (z) = 0.43512 0.24093
#
# Static dielectric constant tensor:
#      x y z
#    x 1.943420 0.000000 -0.085680 
#    y 0.000000 1.968840 0.000000 
#    z -0.085680 0.000000 2.037790 
# 
# From -- ./inp_files/9071.got.cif
#   From: 2010.05.17/outbox.cif.g08.bks.cpg/sg15_5_cif.got.tgz:9071.got - 2010.06.03 18:47:42.
