data_PCOD9298466
_publ_section_title
;
Structure prediction by ZEFSAII (Michael W. Deem and Ramdas Pophale) SiO2 
 PCOD9298466
Probable space group: C 2/C
;
_chemical_formula_sum "Si O2"
_cell_formula_units_Z 32
_cell_length_a 5.252995
_cell_length_b 21.105008
_cell_length_c 12.584160
_cell_angle_alpha 90.000000
_cell_angle_beta 98.758992
_cell_angle_gamma 90.000000
_cell_volume 1378.866017
_symmetry_space_group_name_H-M "C 2/C"
_symmetry_group_IT_number 15
_symmetry_cell_setting 'monoclinic'
loop_
_space_group_symop_operation_xyz
x,y,z
-x,y,1/2-z
-x,-y,-z
x,-y,1/2+z
1/2+x,1/2+y,z
1/2-x,1/2+y,1/2-z
1/2-x,1/2-y,-z
1/2+x,1/2-y,1/2+z
loop_
_atom_site_type_symbol
_atom_site_label
_atom_site_fract_x
_atom_site_fract_y
_atom_site_fract_z
Si Si1 0.712330 0.815163 0.857065
Si Si2 0.775208 0.912101 0.324376
Si Si3 0.284350 0.454075 0.821320
Si Si4 0.051213 0.702672 0.937453
O O1 0.500000 0.813477 0.750000
O O2 0.856339 0.882850 0.859663
O O3 0.867672 0.749127 0.857402
O O4 0.604877 0.820532 0.969982
O O5 0.500000 0.919136 0.250000
O O6 0.717920 0.851506 0.392573
O O7 0.000000 0.900523 0.250000
O O8 0.797746 0.979779 0.388083
O O9 0.500000 0.469917 0.750000
O O10 0.000000 0.448997 0.750000
O O11 0.250000 0.750000 0.000000
#
# Coordination Sequence:
#
# PCOD9298466 Si02
#       4
#     8   8   8   8
#     4  10  25  45  69  98 142 180 230 290 342 414
#     4  10  24  44  70  97 140 182 228 287 340 408
#     4   9  20  42  69  99 128 183 235 276 345 408
#     4  11  27  41  65 108 135 183 233 274 354 416
#
# _framework density 23.207477999999998
#
# number of rings (size 3 to 8) (size 9 to 14) (size 15 to 20)
#    0.000    2.000    0.000    0.000   17.500    1.000 
#    0.000    1.250    0.000    0.000    0.000    0.000 
#    0.000    0.000    0.000    0.000    0.000    0.000 
#
# Total GULP energy -89109.688991 kJ/mol
# GULP energy per Si atom -5569.355562 kJ/mol
# Density = 2.315466 g / cm^3
# Si number density = 23.207478 Si / 1000 Ang^3
#
#
#
# Elastic Constant Matrix: (Units=GPa)
#
#
# Indices 1 2 3 4 5 6 
#
# 1 99.7279 21.8498 25.8095 0.0000 -14.1949 0.0000
# 2 21.8498 193.6920 73.9315 0.0000 -10.6621 0.0000
# 3 25.8095 73.9315 65.9252 0.0000 -7.2876 0.0000
# 4 0.0000 0.0000 0.0000 -153.4813 0.0000 -213.1108
# 5 -14.1949 -10.6621 -7.2876 0.0000 37.2738 0.0000
# 6 0.0000 0.0000 0.0000 -213.1108 0.0000 -110.0238
#
#
#
# Elastic Compliance Matrix: (Units=1/GPa)
#
#
# Indices 1 2 3 4 5 6 
#
# 1 0.011691 0.000832 -0.005101 0.000000 0.003693 0.000000
# 2 0.000832 0.009100 -0.010433 0.000000 0.000880 0.000000
# 3 -0.005101 -0.010433 0.028947 0.000000 0.000732 0.000000
# 4 0.000000 0.000000 0.000000 0.003856 0.000000 -0.007470
# 5 0.003693 0.000880 0.000732 0.000000 0.028630 0.000000
# 6 0.000000 0.000000 0.000000 -0.007470 0.000000 0.005380
#
#
# Mechanical properties :
#
#
# Convention : Reuss Voigt Hill
#
# Bulk Modulus (GPa) = 49.18380 66.94740 58.06560
# Shear Modulus (GPa) = 40.39202 -29.39595 5.49803
#
# Velocity S-wave (km/s) = 4.17643 -3.56288 1.54085
# Velocity P-wave (km/s) = 6.67052 3.46187 5.31415
#
# Compressibility (1/GPa) = 0.02033190
#
# Stress axis : x y z
#
# Youngs Moduli (GPa) = 85.53651 109.89289 34.54577
#
# Poissons Ratio (x) = -0.09139 0.17623
# Poissons Ratio (y) = -0.07113 0.36042
# Poissons Ratio (z) = 0.43635 1.14654
#
# Static dielectric constant tensor:
#      x y z
#    x -9.489680 0.000000 -7.021440 
#    y 0.000000 1.765450 0.000000 
#    z -7.021440 0.000000 -2.533550 
# 
# From -- ./inp_files/71847.got.cif
#   From: 2010.05.17/outbox.cif.g08.bks.cpg/sg15_36_cif.got.tgz:71847.got - 2010.06.03 18:47:42.
