data_PCOD9298980
_publ_section_title
;
Structure prediction by ZEFSAII (Michael W. Deem and Ramdas Pophale) SiO2 
 PCOD9298980
Probable space group: C 2/C
;
_chemical_formula_sum "Si O2"
_cell_formula_units_Z 48
_cell_length_a 8.789138
_cell_length_b 26.569740
_cell_length_c 14.883999
_cell_angle_alpha 90.000000
_cell_angle_beta 37.125844
_cell_angle_gamma 90.000000
_cell_volume 2097.873037
_symmetry_space_group_name_H-M "C 2/C"
_symmetry_group_IT_number 15
_symmetry_cell_setting 'monoclinic'
loop_
_space_group_symop_operation_xyz
x,y,z
-x,y,1/2-z
-x,-y,-z
x,-y,1/2+z
1/2+x,1/2+y,z
1/2-x,1/2+y,1/2-z
1/2-x,1/2-y,-z
1/2+x,1/2-y,1/2+z
loop_
_atom_site_type_symbol
_atom_site_label
_atom_site_fract_x
_atom_site_fract_y
_atom_site_fract_z
Si Si1 0.908049 0.793846 0.535859
Si Si2 0.000000 0.987490 0.750000
Si Si3 0.789659 0.460885 0.251024
Si Si4 0.073109 0.304938 0.868344
Si Si5 0.500000 0.050390 0.250000
Si Si6 0.038262 0.103636 0.012751
Si Si7 0.650647 0.099195 0.459409
O O1 0.789876 0.796166 0.691719
O O2 0.681463 0.802642 0.571506
O O3 0.046813 0.742147 0.448176
O O4 0.078162 0.843038 0.446515
O O5 0.240576 0.951625 0.633998
O O6 0.036220 0.020726 0.820831
O O7 0.960052 0.510129 0.188484
O O8 0.708776 0.437450 0.383694
O O9 0.912855 0.418805 0.129724
O O10 0.101360 0.356215 0.912245
O O11 0.250668 0.085149 0.363178
O O12 0.130575 0.111246 0.070846
#
# Coordination Sequence:
#
# PCOD9298980 Si02
#       7
#     8   4   8   8   4   8   8
#     4  10  24  46  72 104 136 186 233 292 369 423
#     4  12  26  42  66 106 146 194 246 288 354 422
#     4  12  26  43  69 107 147 193 238 296 351 428
#     4  10  24  46  74 101 141 180 237 299 355 436
#     4  12  22  46  70  98 148 196 238 288 352 424
#     4  12  25  44  72 102 143 191 241 293 362 418
#     4  12  25  45  69 105 144 186 242 297 353 425
#
# _framework density 22.880315
#
# number of rings (size 3 to 8) (size 9 to 14) (size 15 to 20)
#    0.000    0.667    3.333    4.000    7.000    0.667 
#    0.000    0.000    0.000    0.000    0.000    0.000 
#    0.000    0.000    0.000    0.000    0.000    0.000 
#
# Total GULP energy -134145.526317 kJ/mol
# GULP energy per Si atom -5589.396930 kJ/mol
# Density = 2.282824 g / cm^3
# Si number density = 22.880315 Si / 1000 Ang^3
#
#
#
# Elastic Constant Matrix: (Units=GPa)
#
#
# Indices 1 2 3 4 5 6 
#
# 1 103.7941 59.7861 41.7897 0.0000 17.0048 0.0000
# 2 59.7861 122.7540 37.7198 0.0000 9.5994 0.0000
# 3 41.7897 37.7198 71.8214 0.0000 4.9569 0.0000
# 4 0.0000 0.0000 0.0000 40.8487 0.0000 11.4347
# 5 17.0048 9.5994 4.9569 0.0000 32.0715 0.0000
# 6 0.0000 0.0000 0.0000 11.4347 0.0000 48.0945
#
#
#
# Elastic Compliance Matrix: (Units=1/GPa)
#
#
# Indices 1 2 3 4 5 6 
#
# 1 0.016312 -0.005586 -0.006142 0.000000 -0.006028 0.000000
# 2 -0.005586 0.011775 -0.002926 0.000000 -0.000110 0.000000
# 3 -0.006142 -0.002926 0.018951 0.000000 0.001203 0.000000
# 4 0.000000 0.000000 0.000000 0.026226 0.000000 -0.006235
# 5 -0.006028 -0.000110 0.001203 0.000000 0.034223 0.000000
# 6 0.000000 0.000000 0.000000 -0.006235 0.000000 0.022275
#
#
# Mechanical properties :
#
#
# Convention : Reuss Voigt Hill
#
# Bulk Modulus (GPa) = 56.40115 64.10674 60.25395
# Shear Modulus (GPa) = 30.30665 34.80785 32.55725
#
# Velocity S-wave (km/s) = 3.64342 3.90462 3.77628
# Velocity P-wave (km/s) = 6.51179 6.95753 6.73834
#
# Compressibility (1/GPa) = 0.01773013
#
# Stress axis : x y z
#
# Youngs Moduli (GPa) = 61.30272 84.92693 52.76860
#
# Poissons Ratio (x) = 0.47442 0.32409
# Poissons Ratio (y) = 0.34245 0.15440
# Poissons Ratio (z) = 0.37650 0.24850
#
# Static dielectric constant tensor:
#      x y z
#    x 1.916370 0.000000 0.016310 
#    y 0.000000 1.832700 0.000000 
#    z 0.016310 0.000000 1.885200 
# 
# From -- ./inp_files/138973.got.cif
#   From: 2010.05.17/outbox.cif.g08.bks.cpg/sg15_70_cif.got.tgz:138973.got - 2010.06.03 18:47:42.
