data_PCOD9298112
_publ_section_title
;
Structure prediction by ZEFSAII (Michael W. Deem and Ramdas Pophale) SiO2 
 PCOD9298112
Probable space group: C 2/C
;
_chemical_formula_sum "Si O2"
_cell_formula_units_Z 64
_cell_length_a 12.195817
_cell_length_b 25.811529
_cell_length_c 14.568637
_cell_angle_alpha 90.000000
_cell_angle_beta 138.559905
_cell_angle_gamma 90.000000
_cell_volume 3035.249168
_symmetry_space_group_name_H-M "C 2/C"
_symmetry_group_IT_number 15
_symmetry_cell_setting 'monoclinic'
loop_
_space_group_symop_operation_xyz
x,y,z
-x,y,1/2-z
-x,-y,-z
x,-y,1/2+z
1/2+x,1/2+y,z
1/2-x,1/2+y,1/2-z
1/2-x,1/2-y,-z
1/2+x,1/2-y,1/2+z
loop_
_atom_site_type_symbol
_atom_site_label
_atom_site_fract_x
_atom_site_fract_y
_atom_site_fract_z
Si Si1 0.268518 0.173115 0.440540
Si Si2 0.173060 0.804775 0.303369
Si Si3 0.503138 0.747914 0.977833
Si Si4 0.607415 0.929589 0.407010
Si Si5 0.817877 0.417783 0.350748
Si Si6 0.661536 0.476359 0.413567
Si Si7 0.457999 0.343966 0.865959
Si Si8 0.019457 0.059964 0.535231
O O1 0.395706 0.216078 0.481433
O O2 0.349130 0.130969 0.558615
O O3 0.191853 0.148433 0.299283
O O4 0.104594 0.183728 0.398465
O O5 0.329212 0.776594 0.449752
O O6 0.258833 0.858725 0.327690
O O7 0.000000 0.812992 0.250000
O O8 0.116366 0.771568 0.178626
O O9 0.569770 0.697115 0.071471
O O10 0.500000 0.940188 0.250000
O O11 0.498412 0.932887 0.430292
O O12 0.757409 0.969984 0.503640
O O13 0.784475 0.447455 0.423094
O O14 0.697673 0.434668 0.192960
O O15 0.500000 0.487520 0.250000
O O16 0.611163 0.436497 0.462540
O O17 0.496696 0.398262 0.940825
O O18 0.000000 0.000000 0.500000
#
# Coordination Sequence:
#
# PCOD9298112 Si02
#       8
#     8   8   8   8   8   8   8   8
#     4  11  25  42  66 103 136 180 228 288 354 408
#     4  12  25  46  70 100 137 185 240 288 356 415
#     4  12  24  46  69 100 138 181 236 294 346 418
#     4  12  25  44  69 103 137 179 228 289 349 408
#     4  11  23  43  69  97 136 182 230 286 346 415
#     4  10  24  43  69 100 138 185 229 282 345 419
#     4  11  24  42  69  98 141 183 227 288 351 423
#     4  11  22  41  68 100 133 181 230 275 343 423
#
# _framework density 21.085584000000001
#
# number of rings (size 3 to 8) (size 9 to 14) (size 15 to 20)
#    0.000    0.750    3.750    4.500    5.250    0.000 
#    4.500    0.000    0.000    0.000    0.000    0.000 
#    0.000    0.000    0.000    0.000    0.000    0.000 
#
# Total GULP energy -178418.580644 kJ/mol
# GULP energy per Si atom -5575.580645 kJ/mol
# Density = 2.103759 g / cm^3
# Si number density = 21.085584 Si / 1000 Ang^3
#
#
#
# Elastic Constant Matrix: (Units=GPa)
#
#
# Indices 1 2 3 4 5 6 
#
# 1 100.4067 24.2524 10.0053 0.0000 13.5899 0.0000
# 2 24.2524 83.0151 21.3950 0.0000 3.5069 0.0000
# 3 10.0053 21.3950 42.6944 0.0000 -9.1852 0.0000
# 4 0.0000 0.0000 0.0000 23.2599 0.0000 2.8407
# 5 13.5899 3.5069 -9.1852 0.0000 24.1614 0.0000
# 6 0.0000 0.0000 0.0000 2.8407 0.0000 29.6792
#
#
#
# Elastic Compliance Matrix: (Units=1/GPa)
#
#
# Indices 1 2 3 4 5 6 
#
# 1 0.011867 -0.002308 -0.003254 0.000000 -0.007577 0.000000
# 2 -0.002308 0.014873 -0.007730 0.000000 -0.003799 0.000000
# 3 -0.003254 -0.007730 0.031249 0.000000 0.014832 0.000000
# 4 0.000000 0.000000 0.000000 0.043501 0.000000 -0.004164
# 5 -0.007577 -0.003799 0.014832 0.000000 0.051840 0.000000
# 6 0.000000 0.000000 0.000000 -0.004164 0.000000 0.034092
#
#
# Mechanical properties :
#
#
# Convention : Reuss Voigt Hill
#
# Bulk Modulus (GPa) = 31.84200 37.49131 34.66665
# Shear Modulus (GPa) = 22.27426 26.78433 24.52930
#
# Velocity S-wave (km/s) = 3.25372 3.56795 3.41445
# Velocity P-wave (km/s) = 5.40830 5.89854 5.65873
#
# Compressibility (1/GPa) = 0.03140506
#
# Stress axis : x y z
#
# Youngs Moduli (GPa) = 84.26890 67.23662 32.00066
#
# Poissons Ratio (x) = 0.15518 0.10414
# Poissons Ratio (y) = 0.19449 0.24735
# Poissons Ratio (z) = 0.27425 0.51971
#
# Static dielectric constant tensor:
#      x y z
#    x 1.861250 0.000000 0.039000 
#    y 0.000000 1.757680 0.000000 
#    z 0.039000 0.000000 1.722580 
# 
# From -- ./inp_files/148798.got.cif
#   From: 2010.05.17/outbox.cif.g08.bks.cpg/sg15_75_cif.got.tgz:148798.got - 2010.06.03 18:47:42.
