data_PCOD9298048
_publ_section_title
;
Structure prediction by ZEFSAII (Michael W. Deem and Ramdas Pophale) SiO2 
 PCOD9298048
Probable space group: C 2/C
;
_chemical_formula_sum "Si O2"
_cell_formula_units_Z 32
_cell_length_a 16.408114
_cell_length_b 4.740031
_cell_length_c 15.547088
_cell_angle_alpha 90.000000
_cell_angle_beta 99.064474
_cell_angle_gamma 90.000000
_cell_volume 1194.073735
_symmetry_space_group_name_H-M "C 2/C"
_symmetry_group_IT_number 15
_symmetry_cell_setting 'monoclinic'
loop_
_space_group_symop_operation_xyz
x,y,z
-x,y,1/2-z
-x,-y,-z
x,-y,1/2+z
1/2+x,1/2+y,z
1/2-x,1/2+y,1/2-z
1/2-x,1/2-y,-z
1/2+x,1/2-y,1/2+z
loop_
_atom_site_type_symbol
_atom_site_label
_atom_site_fract_x
_atom_site_fract_y
_atom_site_fract_z
Si Si1 0.515151 0.597122 0.349184
Si Si2 0.669829 0.099128 0.947727
Si Si3 0.265126 0.525980 0.308432
Si Si4 0.584481 0.125961 0.106511
O O1 0.500000 0.486535 0.250000
O O2 0.606961 0.698776 0.386129
O O3 0.455860 0.867878 0.349533
O O4 0.489556 0.351448 0.410138
O O5 0.709724 0.899193 0.882147
O O6 0.619339 0.004040 0.022908
O O7 0.750000 0.250000 0.000000
O O8 0.283899 0.812405 0.262244
O O9 0.343828 0.334071 0.345403
#
# Coordination Sequence:
#
# PCOD9298048 Si02
#       4
#     8   8   8   8
#     4  12  24  43  67  95 127 168 213 261 313 375
#     4  10  24  43  66  95 130 168 210 261 318 375
#     4  11  23  42  65  94 129 168 211 260 315 376
#     4  11  24  42  65  94 128 168 212 260 315 376
#
# _framework density 26.799016000000002
#
# number of rings (size 3 to 8) (size 9 to 14) (size 15 to 20)
#    0.000    1.000    0.000    6.750    0.000    4.000 
#    0.000   13.750    0.000    0.000    0.000    0.000 
#    0.000    0.000    0.000    0.000    0.000    0.000 
#
# Total GULP energy -89629.874103 kJ/mol
# GULP energy per Si atom -5601.867131 kJ/mol
# Density = 2.673802 g / cm^3
# Si number density = 26.799016 Si / 1000 Ang^3
#
#
#
# Elastic Constant Matrix: (Units=GPa)
#
#
# Indices 1 2 3 4 5 6 
#
# 1 137.8309 26.4187 45.5276 0.0000 -7.2446 0.0000
# 2 26.4187 109.5363 5.9822 0.0000 1.2677 0.0000
# 3 45.5276 5.9822 99.6166 0.0000 20.3857 0.0000
# 4 0.0000 0.0000 0.0000 9.1471 0.0000 16.0017
# 5 -7.2446 1.2677 20.3857 0.0000 67.6448 0.0000
# 6 0.0000 0.0000 0.0000 16.0017 0.0000 21.3813
#
#
#
# Elastic Compliance Matrix: (Units=1/GPa)
#
#
# Indices 1 2 3 4 5 6 
#
# 1 0.009297 -0.002018 -0.004625 0.000000 0.002427 0.000000
# 2 -0.002018 0.009597 0.000455 0.000000 -0.000533 0.000000
# 3 -0.004625 0.000455 0.013032 0.000000 -0.004431 0.000000
# 4 0.000000 0.000000 0.000000 -0.353544 0.000000 0.264591
# 5 0.002427 -0.000533 -0.004431 0.000000 0.016388 0.000000
# 6 0.000000 0.000000 0.000000 0.264591 0.000000 -0.151249
#
#
# Mechanical properties :
#
#
# Convention : Reuss Voigt Hill
#
# Bulk Modulus (GPa) = 51.14807 55.87120 53.50964
# Shear Modulus (GPa) = -11.42631 37.57167 13.07268
#
# Velocity S-wave (km/s) = -2.06711 3.74836 2.21103
# Velocity P-wave (km/s) = 3.66469 6.29501 5.15059
#
# Compressibility (1/GPa) = 0.01955108
#
# Stress axis : x y z
#
# Youngs Moduli (GPa) = 107.55926 104.19484 76.73701
#
# Poissons Ratio (x) = 0.21025 0.35488
# Poissons Ratio (y) = 0.21704 -0.03491
# Poissons Ratio (z) = 0.49742 -0.04741
#
# Static dielectric constant tensor:
#      x y z
#    x 2.075770 0.000000 0.034300 
#    y 0.000000 1.998230 0.000000 
#    z 0.034300 0.000000 2.168050 
# 
# From -- ./inp_files/207819.got.cif
#   From: 2010.05.17/outbox.cif.g08.bks.cpg/sg15_104_cif.got.tgz:207819.got - 2010.06.03 18:47:42.
