data_PCOD9298654
_publ_section_title
;
Structure prediction by ZEFSAII (Michael W. Deem and Ramdas Pophale) SiO2 
 PCOD9298654
Probable space group: C 2/C
;
_chemical_formula_sum "Si O2"
_cell_formula_units_Z 40
_cell_length_a 10.831776
_cell_length_b 10.177660
_cell_length_c 20.370904
_cell_angle_alpha 90.000000
_cell_angle_beta 130.581828
_cell_angle_gamma 90.000000
_cell_volume 1705.583241
_symmetry_space_group_name_H-M "C 2/C"
_symmetry_group_IT_number 15
_symmetry_cell_setting 'monoclinic'
loop_
_space_group_symop_operation_xyz
x,y,z
-x,y,1/2-z
-x,-y,-z
x,-y,1/2+z
1/2+x,1/2+y,z
1/2-x,1/2+y,1/2-z
1/2-x,1/2-y,-z
1/2+x,1/2-y,1/2+z
loop_
_atom_site_type_symbol
_atom_site_label
_atom_site_fract_x
_atom_site_fract_y
_atom_site_fract_z
Si Si1 0.575037 0.452818 0.211695
Si Si2 0.819195 0.278108 0.359609
Si Si3 0.149834 0.350711 0.420735
Si Si4 0.243673 0.393341 0.029664
Si Si5 0.307252 0.011422 0.182210
O O1 0.500000 0.522913 0.250000
O O2 0.651836 0.318085 0.266250
O O3 0.429087 0.435261 0.110435
O O4 0.729787 0.509770 0.227768
O O5 0.840126 0.376121 0.428064
O O6 0.792814 0.134521 0.380652
O O7 0.967960 0.294077 0.361505
O O8 0.250000 0.250000 0.500000
O O9 0.159963 0.494025 0.458136
O O10 0.214810 0.381118 0.369985
O O11 0.250000 0.250000 0.000000
O O12 0.500000 0.032581 0.250000
#
# Coordination Sequence:
#
# PCOD9298654 Si02
#       5
#     8   8   8   8   8
#     4  10  24  45  68 104 139 194 248 302 363 448
#     4  11  24  46  72 103 145 197 253 301 371 449
#     4  12  27  45  69 114 150 188 247 317 378 437
#     4  11  23  44  72 102 144 200 244 303 373 449
#     4  12  24  48  76 106 150 199 251 311 375 451
#
# _framework density 23.452387999999999
#
# number of rings (size 3 to 8) (size 9 to 14) (size 15 to 20)
#    0.000    0.800    4.000    3.600    2.800    1.600 
#   10.800    0.000    0.000    0.000    0.000    0.000 
#    0.000    0.000    0.000    0.000    0.000    0.000 
#
# Total GULP energy -111679.043778 kJ/mol
# GULP energy per Si atom -5583.952189 kJ/mol
# Density = 2.339901 g / cm^3
# Si number density = 23.452388 Si / 1000 Ang^3
#
#
#
# Elastic Constant Matrix: (Units=GPa)
#
#
# Indices 1 2 3 4 5 6 
#
# 1 179.3063 32.3203 22.8078 0.0000 3.0528 0.0000
# 2 32.3203 84.0502 7.4148 0.0000 -3.2010 0.0000
# 3 22.8078 7.4148 55.1109 0.0000 10.0176 0.0000
# 4 0.0000 0.0000 0.0000 38.5000 0.0000 -5.3872
# 5 3.0528 -3.2010 10.0176 0.0000 29.2385 0.0000
# 6 0.0000 0.0000 0.0000 -5.3872 0.0000 34.0125
#
#
#
# Elastic Compliance Matrix: (Units=1/GPa)
#
#
# Indices 1 2 3 4 5 6 
#
# 1 0.006267 -0.002214 -0.002275 0.000000 -0.000117 0.000000
# 2 -0.002214 0.012933 -0.001198 0.000000 0.002057 0.000000
# 3 -0.002275 -0.001198 0.020505 0.000000 -0.006919 0.000000
# 4 0.000000 0.000000 0.000000 0.026563 0.000000 0.004207
# 5 -0.000117 0.002057 -0.006919 0.000000 0.036810 0.000000
# 6 0.000000 0.000000 0.000000 0.004207 0.000000 0.030067
#
#
# Mechanical properties :
#
#
# Convention : Reuss Voigt Hill
#
# Bulk Modulus (GPa) = 35.29409 49.28366 42.28887
# Shear Modulus (GPa) = 32.47543 37.41184 34.94364
#
# Velocity S-wave (km/s) = 3.72525 3.99836 3.86422
# Velocity P-wave (km/s) = 5.79527 6.50967 6.16283
#
# Compressibility (1/GPa) = 0.02833336
#
# Stress axis : x y z
#
# Youngs Moduli (GPa) = 159.55505 77.32166 48.76753
#
# Poissons Ratio (x) = 0.17118 0.11093
# Poissons Ratio (y) = 0.35323 0.05841
# Poissons Ratio (z) = 0.36292 0.09262
#
# Static dielectric constant tensor:
#      x y z
#    x 1.942350 0.000000 -0.091010 
#    y 0.000000 1.948020 0.000000 
#    z -0.091010 0.000000 1.969620 
# 
# From -- ./inp_files/237820.got.cif
#   From: 2010.05.17/outbox.cif.g08.bks.cpg/sg15_119_cif.got.tgz:237820.got - 2010.06.03 18:47:42.
