data_PCOD9298642
_publ_section_title
;
Structure prediction by ZEFSAII (Michael W. Deem and Ramdas Pophale) SiO2 
 PCOD9298642
Probable space group: C 2/C
;
_chemical_formula_sum "Si O2"
_cell_formula_units_Z 48
_cell_length_a 18.439246
_cell_length_b 13.584537
_cell_length_c 12.835735
_cell_angle_alpha 90.000000
_cell_angle_beta 134.396855
_cell_angle_gamma 90.000000
_cell_volume 2297.299995
_symmetry_space_group_name_H-M "C 2/C"
_symmetry_group_IT_number 15
_symmetry_cell_setting 'monoclinic'
loop_
_space_group_symop_operation_xyz
x,y,z
-x,y,1/2-z
-x,-y,-z
x,-y,1/2+z
1/2+x,1/2+y,z
1/2-x,1/2+y,1/2-z
1/2-x,1/2-y,-z
1/2+x,1/2-y,1/2+z
loop_
_atom_site_type_symbol
_atom_site_label
_atom_site_fract_x
_atom_site_fract_y
_atom_site_fract_z
Si Si1 0.110902 0.948578 0.616036
Si Si2 0.831725 0.372516 0.534004
Si Si3 0.886482 0.150224 0.602639
Si Si4 0.225679 0.622351 0.750789
Si Si5 0.757817 0.812014 0.617952
Si Si6 0.390527 0.927297 0.155205
O O1 0.121865 0.879472 0.525897
O O2 0.143702 0.876240 0.745718
O O3 0.189787 0.038740 0.680223
O O4 0.000000 0.000000 0.500000
O O5 0.868792 0.265557 0.605161
O O6 0.712219 0.393677 0.438843
O O7 0.841152 0.375474 0.419533
O O8 0.892236 0.455807 0.653421
O O9 0.000000 0.120012 0.750000
O O10 0.267793 0.732056 0.818821
O O11 0.159234 0.600722 0.785790
O O12 0.750000 0.750000 0.500000
O O13 0.674919 0.894226 0.510077
O O14 0.500000 0.881369 0.250000
#
# Coordination Sequence:
#
# PCOD9298642 Si02
#       6
#     8   8   8   8   8   8
#     4  12  24  43  74 106 135 189 239 288 361 431
#     4  11  22  43  66  94 142 170 227 289 338 423
#     4  11  24  41  66 102 137 177 228 285 352 414
#     4  11  23  43  66  97 136 176 230 287 348 426
#     4  10  24  45  67  99 143 179 230 296 356 424
#     4  11  24  43  66  95 131 182 227 282 352 424
#
# _framework density 20.894093000000002
#
# number of rings (size 3 to 8) (size 9 to 14) (size 15 to 20)
#    0.000    1.000    5.000    1.500    0.000    3.333 
#    3.000    0.000    0.000    0.000    0.000    0.000 
#    0.000    0.000    0.000    0.000    0.000    0.000 
#
# Total GULP energy -133746.136009 kJ/mol
# GULP energy per Si atom -5572.755667 kJ/mol
# Density = 2.084654 g / cm^3
# Si number density = 20.894093 Si / 1000 Ang^3
#
#
#
# Elastic Constant Matrix: (Units=GPa)
#
#
# Indices 1 2 3 4 5 6 
#
# 1 80.4175 18.6221 36.1482 0.0000 1.7130 0.0000
# 2 18.6221 64.6515 5.2969 0.0000 9.3180 0.0000
# 3 36.1482 5.2969 91.4849 0.0000 7.3748 0.0000
# 4 0.0000 0.0000 0.0000 -68.5755 0.0000 -295.8539
# 5 1.7130 9.3180 7.3748 0.0000 33.3539 0.0000
# 6 0.0000 0.0000 0.0000 -295.8539 0.0000 -814.5333
#
#
#
# Elastic Compliance Matrix: (Units=1/GPa)
#
#
# Indices 1 2 3 4 5 6 
#
# 1 0.016259 -0.004425 -0.006313 0.000000 0.001797 0.000000
# 2 -0.004425 0.017351 0.001137 0.000000 -0.004871 0.000000
# 3 -0.006313 0.001137 0.013601 0.000000 -0.003001 0.000000
# 4 0.000000 0.000000 0.000000 0.025717 0.000000 -0.009341
# 5 0.001797 -0.004871 -0.003001 0.000000 0.031914 0.000000
# 6 0.000000 0.000000 0.000000 -0.009341 0.000000 0.002165
#
#
# Mechanical properties :
#
#
# Convention : Reuss Voigt Hill
#
# Bulk Modulus (GPa) = 35.70355 39.63202 37.66779
# Shear Modulus (GPa) = 36.88747 -158.18519 -60.64886
#
# Velocity S-wave (km/s) = 4.20628 -8.71048 -5.39350
# Velocity P-wave (km/s) = 6.38086 9.06389 4.55185
#
# Compressibility (1/GPa) = 0.02800842
#
# Stress axis : x y z
#
# Youngs Moduli (GPa) = 61.50319 57.63323 73.52208
#
# Poissons Ratio (x) = 0.25503 0.46416
# Poissons Ratio (y) = 0.27216 -0.08356
# Poissons Ratio (z) = 0.38828 -0.06550
#
# Static dielectric constant tensor:
#      x y z
#    x 1.893320 0.000000 0.202830 
#    y 0.000000 1.830850 0.000000 
#    z 0.202830 0.000000 2.001540 
# 
# From -- ./inp_files/162376.got.cif
#   From: 2010.05.17/outbox.cif.g08.bks.cpg/sg15_82_cif.got.tgz:162376.got - 2010.06.03 18:47:42.
