data_PCOD9298096
_publ_section_title
;
Structure prediction by ZEFSAII (Michael W. Deem and Ramdas Pophale) SiO2 
 PCOD9298096
Probable space group: C 2/C
;
_chemical_formula_sum "Si O2"
_cell_formula_units_Z 32
_cell_length_a 26.292971
_cell_length_b 4.837940
_cell_length_c 13.651370
_cell_angle_alpha 90.000000
_cell_angle_beta 132.567064
_cell_angle_gamma 90.000000
_cell_volume 1278.912730
_symmetry_space_group_name_H-M "C 2/C"
_symmetry_group_IT_number 15
_symmetry_cell_setting 'monoclinic'
loop_
_space_group_symop_operation_xyz
x,y,z
-x,y,1/2-z
-x,-y,-z
x,-y,1/2+z
1/2+x,1/2+y,z
1/2-x,1/2+y,1/2-z
1/2-x,1/2-y,-z
1/2+x,1/2-y,1/2+z
loop_
_atom_site_type_symbol
_atom_site_label
_atom_site_fract_x
_atom_site_fract_y
_atom_site_fract_z
Si Si1 0.793149 0.900124 0.791076
Si Si2 0.988330 0.743352 0.080622
Si Si3 0.601378 0.837088 0.220515
Si Si4 0.590095 0.712611 0.431518
O O1 0.760528 0.642072 0.807978
O O2 0.829522 0.745963 0.747107
O O3 0.846701 0.077532 0.926101
O O4 0.940574 0.497476 0.065225
O O5 0.068136 0.647046 0.182948
O O6 0.969886 0.997010 0.123326
O O7 0.956024 0.781859 0.930502
O O8 0.606862 0.746998 0.339605
#
# Coordination Sequence:
#
# PCOD9298096 Si02
#       4
#     8   8   8   8
#     4  11  25  44  65  97 138 182 236 275 315 397
#     4  10  24  43  68 105 136 168 224 280 341 414
#     4  10  24  44  71  98 139 178 215 283 346 389
#     4  11  24  43  70 101 135 178 224 275 342 407
#
# _framework density 25.021253000000002
#
# number of rings (size 3 to 8) (size 9 to 14) (size 15 to 20)
#    0.000    1.500    0.000    3.750    0.000   23.000 
#    0.000    0.000    0.000    0.000    0.000    0.000 
#    0.000    0.000    0.000    0.000    0.000    0.000 
#
# Total GULP energy -89456.652722 kJ/mol
# GULP energy per Si atom -5591.040795 kJ/mol
# Density = 2.496430 g / cm^3
# Si number density = 25.021253 Si / 1000 Ang^3
#
#
#
# Elastic Constant Matrix: (Units=GPa)
#
#
# Indices 1 2 3 4 5 6 
#
# 1 168.4903 60.9470 68.8376 0.0000 -28.2230 0.0000
# 2 60.9470 130.1767 26.9962 0.0000 -2.1891 0.0005
# 3 68.8376 26.9962 74.8980 -0.0001 -32.4888 0.0001
# 4 0.0000 0.0000 -0.0001 15.0145 0.0000 21.2067
# 5 -28.2230 -2.1891 -32.4888 0.0000 50.9305 0.0000
# 6 0.0000 0.0005 0.0001 21.2067 0.0000 32.8826
#
#
#
# Elastic Compliance Matrix: (Units=1/GPa)
#
#
# Indices 1 2 3 4 5 6 
#
# 1 0.010600 -0.003208 -0.008430 -0.000002 0.000358 0.000001
# 2 -0.003208 0.009447 -0.001453 0.000002 -0.002299 -0.000001
# 3 -0.008430 -0.001453 0.027057 0.000003 0.012526 -0.000002
# 4 -0.000002 0.000002 0.000003 0.747452 0.000001 -0.482048
# 5 0.000358 -0.002299 0.012526 0.000001 0.027724 -0.000001
# 6 0.000001 -0.000001 -0.000002 -0.482048 -0.000001 0.341294
#
#
# Mechanical properties :
#
#
# Convention : Reuss Voigt Hill
#
# Bulk Modulus (GPa) = 47.80338 76.34742 62.07540
# Shear Modulus (GPa) = 4.17805 34.21779 19.19792
#
# Velocity S-wave (km/s) = 1.29361 3.70205 2.77296
# Velocity P-wave (km/s) = 4.62362 6.98948 5.92582
#
# Compressibility (1/GPa) = 0.02091902
#
# Stress axis : x y z
#
# Youngs Moduli (GPa) = 94.34047 105.85639 36.95920
#
# Poissons Ratio (x) = 0.33963 0.31158
# Poissons Ratio (y) = 0.30268 0.05372
# Poissons Ratio (z) = 0.79533 0.15386
#
# Static dielectric constant tensor:
#      x y z
#    x 2.093210 0.000000 0.059120 
#    y 0.000000 2.105490 0.000000 
#    z 0.059120 0.000000 2.040290 
# 
# From -- ./inp_files/175203.got.cif
#   From: 2010.05.17/outbox.cif.g08.bks.cpg/sg15_88_cif.got.tgz:175203.got - 2010.06.03 18:47:42.
