data_PCOD9298288
_publ_section_title
;
Structure prediction by ZEFSAII (Michael W. Deem and Ramdas Pophale) SiO2 
 PCOD9298288
Probable space group: C 2/C
;
_chemical_formula_sum "Si O2"
_cell_formula_units_Z 36
_cell_length_a 20.407142
_cell_length_b 16.689938
_cell_length_c 12.851660
_cell_angle_alpha 90.000000
_cell_angle_beta 22.589409
_cell_angle_gamma 90.000000
_cell_volume 1681.389493
_symmetry_space_group_name_H-M "C 2/C"
_symmetry_group_IT_number 15
_symmetry_cell_setting 'monoclinic'
loop_
_space_group_symop_operation_xyz
x,y,z
-x,y,1/2-z
-x,-y,-z
x,-y,1/2+z
1/2+x,1/2+y,z
1/2-x,1/2+y,1/2-z
1/2-x,1/2-y,-z
1/2+x,1/2-y,1/2+z
loop_
_atom_site_type_symbol
_atom_site_label
_atom_site_fract_x
_atom_site_fract_y
_atom_site_fract_z
Si Si1 0.000000 0.771691 0.250000
Si Si2 0.205782 0.362169 0.942573
Si Si3 0.292292 0.115553 0.292956
Si Si4 0.310126 0.450560 0.998269
Si Si5 0.136959 0.694295 0.841964
O O1 0.846106 0.830753 0.443844
O O2 0.923737 0.719326 0.454590
O O3 0.261733 0.396052 0.747920
O O4 0.286247 0.409705 0.920999
O O5 0.272659 0.270691 0.842156
O O6 0.000000 0.365671 0.250000
O O7 0.307292 0.029088 0.322511
O O8 0.466022 0.165791 0.034745
O O9 0.500000 0.476905 0.750000
O O10 0.258321 0.382208 0.156808
#
# Coordination Sequence:
#
# PCOD9298288 Si02
#       5
#     4   8   8   8   8
#     4  10  24  44  66 100 138 174 232 272 338 402
#     4  11  25  44  73 101 138 174 229 281 333 405
#     4  11  24  47  66 100 139 179 223 283 333 404
#     4  12  26  44  71 102 137 177 230 278 338 399
#     4  11  24  42  72  97 134 182 222 276 337 399
#
# _framework density 21.410862999999999
#
# number of rings (size 3 to 8) (size 9 to 14) (size 15 to 20)
#    0.000    0.889    3.333    2.667    6.222    2.667 
#    0.000    0.000    0.000    0.000    0.000    0.000 
#    0.000    0.000    0.000    0.000    0.000    0.000 
#
# Total GULP energy -100622.872988 kJ/mol
# GULP energy per Si atom -5590.159610 kJ/mol
# Density = 2.136213 g / cm^3
# Si number density = 21.410863 Si / 1000 Ang^3
#
#
#
# Elastic Constant Matrix: (Units=GPa)
#
#
# Indices 1 2 3 4 5 6 
#
# 1 74.5655 28.6562 10.5387 -0.0003 14.0533 0.0001
# 2 28.6562 73.1461 -20.3314 0.0004 15.1776 0.0000
# 3 10.5387 -20.3314 41.2792 0.0004 -3.1372 0.0006
# 4 -0.0003 0.0004 0.0004 -6.7106 0.0001 0.1057
# 5 14.0533 15.1776 -3.1372 0.0001 43.1467 0.0001
# 6 0.0001 0.0000 0.0006 0.1057 0.0001 20.8065
#
#
#
# Elastic Compliance Matrix: (Units=1/GPa)
#
#
# Indices 1 2 3 4 5 6 
#
# 1 0.019119 -0.009471 -0.009820 -0.000002 -0.003610 0.000000
# 2 -0.009471 0.021698 0.012830 0.000003 -0.003615 0.000000
# 3 -0.009820 0.012830 0.033135 0.000003 0.001095 -0.000001
# 4 -0.000002 0.000003 0.000003 -0.149007 0.000000 0.000757
# 5 -0.003610 -0.003615 0.001095 0.000000 0.025704 0.000000
# 6 0.000000 0.000000 -0.000001 0.000757 0.000000 0.048058
#
#
# Mechanical properties :
#
#
# Convention : Reuss Voigt Hill
#
# Bulk Modulus (GPa) = 16.38533 25.19087 20.78810
# Shear Modulus (GPa) = 156.38911 22.79036 89.58974
#
# Velocity S-wave (km/s) = 8.55573 3.26610 6.47564
# Velocity P-wave (km/s) = 10.26012 5.10041 8.10199
#
# Compressibility (1/GPa) = 0.06103022
#
# Stress axis : x y z
#
# Youngs Moduli (GPa) = 52.30404 46.08743 30.17970
#
# Poissons Ratio (x) = 0.43648 0.29637
# Poissons Ratio (y) = 0.49536 -0.38721
# Poissons Ratio (z) = 0.51363 -0.59131
#
# Static dielectric constant tensor:
#      x y z
#    x 1.785560 0.000000 -0.014950 
#    y 0.000000 1.743030 0.000000 
#    z -0.014950 0.000000 1.809280 
# 
# From -- ./inp_files/28805.got.cif
#   From: 2010.05.17/outbox.cif.g08.bks.cpg/sg15_15_cif.got.tgz:28805.got - 2010.06.03 18:47:42.
