data_PCOD9298155
_publ_section_title
;
Structure prediction by ZEFSAII (Michael W. Deem and Ramdas Pophale) SiO2 
 PCOD9298155
Probable space group: C 2/C
;
_chemical_formula_sum "Si O2"
_cell_formula_units_Z 44
_cell_length_a 6.921775
_cell_length_b 30.082128
_cell_length_c 11.288675
_cell_angle_alpha 90.000000
_cell_angle_beta 106.476778
_cell_angle_gamma 90.000000
_cell_volume 2254.021570
_symmetry_space_group_name_H-M "C 2/C"
_symmetry_group_IT_number 15
_symmetry_cell_setting 'monoclinic'
loop_
_space_group_symop_operation_xyz
x,y,z
-x,y,1/2-z
-x,-y,-z
x,-y,1/2+z
1/2+x,1/2+y,z
1/2-x,1/2+y,1/2-z
1/2-x,1/2-y,-z
1/2+x,1/2-y,1/2+z
loop_
_atom_site_type_symbol
_atom_site_label
_atom_site_fract_x
_atom_site_fract_y
_atom_site_fract_z
Si Si1 0.346509 0.669800 0.337361
Si Si2 0.000000 0.024888 0.750000
Si Si3 0.500000 0.242043 0.250000
Si Si4 0.209080 0.586549 0.850541
Si Si5 0.000000 0.402534 0.750000
Si Si6 0.428244 0.327775 0.370318
Si Si7 0.655516 0.035471 0.075959
O O1 0.500000 0.672283 0.250000
O O2 0.192747 0.711740 0.312750
O O3 0.449267 0.666322 0.485406
O O4 0.197634 0.627945 0.296275
O O5 0.880686 0.057987 0.815604
O O6 0.841661 0.992225 0.659563
O O7 0.428107 0.275008 0.343569
O O8 0.239581 0.639700 0.854605
O O9 0.000000 0.575502 0.750000
O O10 0.217432 0.569147 0.984539
O O11 0.037352 0.434910 0.648401
O O12 0.500000 0.343491 0.250000
O O13 0.500000 0.000000 0.000000
#
# Coordination Sequence:
#
# PCOD9298155 Si02
#       7
#     8   4   4   8   4   8   8
#     4  11  24  46  72 100 138 180 227 278 350 415
#     4  12  25  46  65 100 136 182 233 294 335 408
#     4   9  23  46  70 104 138 174 224 284 341 421
#     4  12  25  44  68 100 135 182 230 281 350 405
#     4  11  28  44  65 100 140 174 231 290 334 409
#     4  10  24  43  71 100 138 178 216 288 340 408
#     4  12  26  44  70  97 138 186 236 282 346 408
#
# _framework density 19.520665000000001
#
# number of rings (size 3 to 8) (size 9 to 14) (size 15 to 20)
#    0.545    0.364    2.727    3.273    8.909    1.455 
#    0.000    0.000    0.000    0.000    0.000    0.000 
#    0.000    0.000    0.000    0.000    0.000    0.000 
#
# Total GULP energy -122590.672076 kJ/mol
# GULP energy per Si atom -5572.303276 kJ/mol
# Density = 1.947624 g / cm^3
# Si number density = 19.520665 Si / 1000 Ang^3
#
#
#
# Elastic Constant Matrix: (Units=GPa)
#
#
# Indices 1 2 3 4 5 6 
#
# 1 96.0076 54.2648 47.0918 0.0000 -11.7441 0.0000
# 2 54.2648 131.6758 47.3394 0.0000 -6.1701 0.0000
# 3 47.0918 47.3394 126.3396 0.0000 -14.3900 0.0000
# 4 0.0000 0.0000 0.0000 27.3662 0.0000 5.2189
# 5 -11.7441 -6.1701 -14.3900 0.0000 41.1522 0.0000
# 6 0.0000 0.0000 0.0000 5.2189 0.0000 27.1615
#
#
#
# Elastic Compliance Matrix: (Units=1/GPa)
#
#
# Indices 1 2 3 4 5 6 
#
# 1 0.015213 -0.004873 -0.003576 0.000000 0.002360 0.000000
# 2 -0.004873 0.010339 -0.002124 0.000000 -0.000583 0.000000
# 3 -0.003576 -0.002124 0.010302 0.000000 0.002263 0.000000
# 4 0.000000 0.000000 0.000000 0.037931 0.000000 -0.007288
# 5 0.002360 -0.000583 0.002263 0.000000 0.025678 0.000000
# 6 0.000000 0.000000 0.000000 -0.007288 0.000000 0.038217
#
#
# Mechanical properties :
#
#
# Convention : Reuss Voigt Hill
#
# Bulk Modulus (GPa) = 67.99124 72.37945 70.18534
# Shear Modulus (GPa) = 30.53846 32.82444 31.68145
#
# Velocity S-wave (km/s) = 3.95956 4.10509 4.03298
# Velocity P-wave (km/s) = 7.47062 7.72191 7.59730
#
# Compressibility (1/GPa) = 0.01470778
#
# Stress axis : x y z
#
# Youngs Moduli (GPa) = 65.73393 96.72109 97.07240
#
# Poissons Ratio (x) = 0.47135 0.34709
# Poissons Ratio (y) = 0.32034 0.20618
# Poissons Ratio (z) = 0.23504 0.20544
#
# Static dielectric constant tensor:
#      x y z
#    x 1.640260 0.000000 0.019150 
#    y 0.000000 1.690570 0.000000 
#    z 0.019150 0.000000 1.623110 
# 
# From -- ./inp_files/74021.got.cif
#   From: 2010.05.17/outbox.cif.g08.bks.cpg/sg15_38_cif.got.tgz:74021.got - 2010.06.03 18:47:42.
