data_PCOD9298250
_publ_section_title
;
Structure prediction by ZEFSAII (Michael W. Deem and Ramdas Pophale) SiO2 
 PCOD9298250
Probable space group: C 2/C
;
_chemical_formula_sum "Si O2"
_cell_formula_units_Z 56
_cell_length_a 8.745424
_cell_length_b 27.451717
_cell_length_c 10.574622
_cell_angle_alpha 90.000000
_cell_angle_beta 63.158572
_cell_angle_gamma 90.000000
_cell_volume 2265.199477
_symmetry_space_group_name_H-M "C 2/C"
_symmetry_group_IT_number 15
_symmetry_cell_setting 'monoclinic'
loop_
_space_group_symop_operation_xyz
x,y,z
-x,y,1/2-z
-x,-y,-z
x,-y,1/2+z
1/2+x,1/2+y,z
1/2-x,1/2+y,1/2-z
1/2-x,1/2-y,-z
1/2+x,1/2-y,1/2+z
loop_
_atom_site_type_symbol
_atom_site_label
_atom_site_fract_x
_atom_site_fract_y
_atom_site_fract_z
Si Si1 0.167243 0.506218 0.770238
Si Si2 0.677349 0.572286 0.623443
Si Si3 0.717326 0.692055 0.338124
Si Si4 0.438065 0.556210 0.511328
Si Si5 0.596282 0.243726 0.460643
Si Si6 0.736136 0.596634 0.173475
Si Si7 0.414029 0.850135 0.006044
O O1 0.185121 0.529240 0.905637
O O2 0.265516 0.549557 0.658875
O O3 0.253823 0.453600 0.751719
O O4 0.000000 0.499108 0.750000
O O5 0.500000 0.554146 0.750000
O O6 0.595596 0.584079 0.517687
O O7 0.761313 0.622503 0.633362
O O8 0.548487 0.714715 0.467745
O O9 0.819719 0.730752 0.208564
O O10 0.676266 0.646559 0.261588
O O11 0.841627 0.671492 0.401395
O O12 0.500000 0.500000 0.500000
O O13 0.374472 0.580643 0.406876
O O14 0.750000 0.250000 0.500000
O O15 0.497266 0.195198 0.542276
O O16 0.934869 0.610528 0.070058
#
# Coordination Sequence:
#
# PCOD9298250 Si02
#       7
#     8   8   8   8   8   8   8
#     4  11  23  41  66  97 147 197 246 307 370 437
#     4  10  24  44  64 102 147 200 251 306 372 442
#     4  11  26  49  78 111 149 194 253 319 386 461
#     4  11  24  41  63 101 151 197 245 306 367 434
#     4  11  25  49  73 110 148 190 247 320 394 452
#     4  11  24  43  71 106 143 195 254 303 371 460
#     4  11  25  46  73 107 145 193 256 311 382 455
#
# _framework density 24.721883999999999
#
# number of rings (size 3 to 8) (size 9 to 14) (size 15 to 20)
#    0.000    1.143    1.429    4.286    4.000    5.714 
#    2.571   10.000    0.000    0.000    0.000    0.000 
#    0.000    0.000    0.000    0.000    0.000    0.000 
#
# Total GULP energy -156198.862569 kJ/mol
# GULP energy per Si atom -5578.530806 kJ/mol
# Density = 2.466562 g / cm^3
# Si number density = 24.721884 Si / 1000 Ang^3
#
#
#
# Elastic Constant Matrix: (Units=GPa)
#
#
# Indices 1 2 3 4 5 6 
#
# 1 201.0288 82.4102 49.7655 0.0000 28.7273 0.0000
# 2 82.4102 136.3068 49.0540 0.0000 2.7153 0.0000
# 3 49.7655 49.0540 67.3620 0.0000 9.0764 0.0000
# 4 0.0000 0.0000 0.0000 48.8831 0.0000 -6.6207
# 5 28.7273 2.7153 9.0764 0.0000 28.1839 0.0000
# 6 0.0000 0.0000 0.0000 -6.6207 0.0000 64.5187
#
#
#
# Elastic Compliance Matrix: (Units=1/GPa)
#
#
# Indices 1 2 3 4 5 6 
#
# 1 0.008202 -0.004047 -0.002131 0.000000 -0.007284 0.000000
# 2 -0.004047 0.011994 -0.006424 0.000000 0.005038 0.000000
# 3 -0.002131 -0.006424 0.021661 0.000000 -0.004185 0.000000
# 4 0.000000 0.000000 0.000000 0.020745 0.000000 0.002129
# 5 -0.007284 0.005038 -0.004185 0.000000 0.043768 0.000000
# 6 0.000000 0.000000 0.000000 0.002129 0.000000 0.015718
#
#
# Mechanical properties :
#
#
# Convention : Reuss Voigt Hill
#
# Bulk Modulus (GPa) = 60.04354 85.23965 72.64159
# Shear Modulus (GPa) = 32.71342 43.21499 37.96420
#
# Velocity S-wave (km/s) = 3.64161 4.18550 3.92299
# Velocity P-wave (km/s) = 6.48244 7.61000 7.06874
#
# Compressibility (1/GPa) = 0.01665458
#
# Stress axis : x y z
#
# Youngs Moduli (GPa) = 121.92576 83.37216 46.16557
#
# Poissons Ratio (x) = 0.33738 0.09838
# Poissons Ratio (y) = 0.49340 0.29655
# Poissons Ratio (z) = 0.25982 0.53556
#
# Static dielectric constant tensor:
#      x y z
#    x 2.060360 0.000000 0.126510 
#    y 0.000000 1.928630 0.000000 
#    z 0.126510 0.000000 2.378120 
# 
# From -- ./inp_files/81269.got.cif
#   From: 2010.05.17/outbox.cif.g08.bks.cpg/sg15_41_cif.got.tgz:81269.got - 2010.06.03 18:47:42.
