data_PCOD9298368
_publ_section_title
;
Structure prediction by ZEFSAII (Michael W. Deem and Ramdas Pophale) SiO2 
 PCOD9298368
Probable space group: C 2/C
;
_chemical_formula_sum "Si O2"
_cell_formula_units_Z 64
_cell_length_a 23.540881
_cell_length_b 15.022189
_cell_length_c 19.390233
_cell_angle_alpha 90.000000
_cell_angle_beta 152.021130
_cell_angle_gamma 90.000000
_cell_volume 3216.969151
_symmetry_space_group_name_H-M "C 2/C"
_symmetry_group_IT_number 15
_symmetry_cell_setting 'monoclinic'
loop_
_space_group_symop_operation_xyz
x,y,z
-x,y,1/2-z
-x,-y,-z
x,-y,1/2+z
1/2+x,1/2+y,z
1/2-x,1/2+y,1/2-z
1/2-x,1/2-y,-z
1/2+x,1/2-y,1/2+z
loop_
_atom_site_type_symbol
_atom_site_label
_atom_site_fract_x
_atom_site_fract_y
_atom_site_fract_z
Si Si1 0.000881 0.101687 0.170601
Si Si2 0.187191 0.654503 0.436721
Si Si3 0.370092 0.002868 0.899656
Si Si4 0.024500 0.199724 0.575573
Si Si5 0.211769 0.158800 0.659233
Si Si6 0.519629 0.133498 0.385432
Si Si7 0.570234 0.596666 0.762905
Si Si8 0.316826 0.350036 0.755131
O O1 0.000000 0.133830 0.250000
O O2 0.116610 0.123476 0.245293
O O3 0.882831 0.132899 0.002105
O O4 0.002741 0.995037 0.176962
O O5 0.250000 0.750000 0.500000
O O6 0.099306 0.664626 0.407101
O O7 0.292258 0.584284 0.566135
O O8 0.114499 0.627546 0.290227
O O9 0.285831 0.072954 0.766651
O O10 0.293227 0.914178 0.837335
O O11 0.413470 0.045760 0.017770
O O12 0.500000 0.000000 0.000000
O O13 0.134427 0.196360 0.640666
O O14 0.066170 0.154250 0.690425
O O15 0.982800 0.297693 0.553767
O O16 0.916896 0.146414 0.423270
O O17 0.286209 0.245325 0.715641
O O18 0.500000 0.643465 0.750000
#
# Coordination Sequence:
#
# PCOD9298368 Si02
#       8
#     8   8   8   8   8   8   8   8
#     4  10  24  44  68  93 122 166 230 283 330 390
#     4  11  22  35  59  92 133 172 210 247 323 400
#     4  12  26  42  65 100 137 174 215 275 333 393
#     4  11  21  38  66  95 129 173 216 265 323 395
#     4  11  24  43  69  96 127 168 226 275 332 400
#     4  11  23  38  58  94 133 170 207 261 315 394
#     4  11  22  37  62  93 131 171 216 259 317 392
#     4  11  24  42  71  96 132 174 219 280 340 388
#
# _framework density 19.894501999999999
#
# number of rings (size 3 to 8) (size 9 to 14) (size 15 to 20)
#    0.000    1.000    2.500    4.500    1.750    7.500 
#    0.000    0.000    5.500    0.000    0.000    0.000 
#    0.000    0.000    0.000    0.000    0.000    0.000 
#
# Total GULP energy -178537.212762 kJ/mol
# GULP energy per Si atom -5579.287899 kJ/mol
# Density = 1.984922 g / cm^3
# Si number density = 19.894502 Si / 1000 Ang^3
#
#
#
# Elastic Constant Matrix: (Units=GPa)
#
#
# Indices 1 2 3 4 5 6 
#
# 1 97.7920 12.1819 43.6159 0.0000 -5.6533 0.0000
# 2 12.1819 61.1857 22.5987 0.0000 -1.5480 0.0000
# 3 43.6159 22.5987 101.1307 0.0000 -8.1045 0.0000
# 4 0.0000 0.0000 0.0000 23.1950 0.0000 4.5491
# 5 -5.6533 -1.5480 -8.1045 0.0000 32.4026 0.0000
# 6 0.0000 0.0000 0.0000 4.5491 0.0000 27.3930
#
#
#
# Elastic Compliance Matrix: (Units=1/GPa)
#
#
# Indices 1 2 3 4 5 6 
#
# 1 0.012702 -0.000555 -0.005285 0.000000 0.000868 0.000000
# 2 -0.000555 0.017839 -0.003762 0.000000 -0.000186 0.000000
# 3 -0.005285 -0.003762 0.013184 0.000000 0.002196 0.000000
# 4 0.000000 0.000000 0.000000 0.044564 0.000000 -0.007401
# 5 0.000868 -0.000186 0.002196 0.000000 0.031553 0.000000
# 6 0.000000 0.000000 0.000000 -0.007401 0.000000 0.037735
#
#
# Mechanical properties :
#
#
# Convention : Reuss Voigt Hill
#
# Bulk Modulus (GPa) = 40.77975 46.32239 43.55107
# Shear Modulus (GPa) = 27.03371 28.71223 27.87297
#
# Velocity S-wave (km/s) = 3.69026 3.80310 3.74711
# Velocity P-wave (km/s) = 6.22092 6.52835 6.37649
#
# Compressibility (1/GPa) = 0.02452197
#
# Stress axis : x y z
#
# Youngs Moduli (GPa) = 78.72739 56.05719 75.85001
#
# Poissons Ratio (x) = 0.03112 0.40084
# Poissons Ratio (y) = 0.04371 0.28533
# Poissons Ratio (z) = 0.41604 0.21087
#
# Static dielectric constant tensor:
#      x y z
#    x 1.729940 0.000000 0.017830 
#    y 0.000000 1.640770 0.000000 
#    z 0.017830 0.000000 1.731620 
# 
# From -- ./inp_files/219733.got.cif
#   From: 2010.05.17/outbox.cif.g08.bks.cpg/sg15_110_cif.got.tgz:219733.got - 2010.06.03 18:47:42.
