data_PCOD9298846
_publ_section_title
;
Structure prediction by ZEFSAII (Michael W. Deem and Ramdas Pophale) SiO2 
 PCOD9298846
Probable space group: C 2/C
;
_chemical_formula_sum "Si O2"
_cell_formula_units_Z 52
_cell_length_a 28.322619
_cell_length_b 10.531108
_cell_length_c 17.591218
_cell_angle_alpha 90.000000
_cell_angle_beta 24.713836
_cell_angle_gamma 90.000000
_cell_volume 2193.660835
_symmetry_space_group_name_H-M "C 2/C"
_symmetry_group_IT_number 15
_symmetry_cell_setting 'monoclinic'
loop_
_space_group_symop_operation_xyz
x,y,z
-x,y,1/2-z
-x,-y,-z
x,-y,1/2+z
1/2+x,1/2+y,z
1/2-x,1/2+y,1/2-z
1/2-x,1/2-y,-z
1/2+x,1/2-y,1/2+z
loop_
_atom_site_type_symbol
_atom_site_label
_atom_site_fract_x
_atom_site_fract_y
_atom_site_fract_z
Si Si1 0.019869 0.927393 0.304478
Si Si2 0.392819 0.170422 0.526445
Si Si3 0.959319 0.767528 0.584559
Si Si4 0.487954 0.094177 0.681420
Si Si5 0.000000 0.000000 0.500000
Si Si6 0.284690 0.928479 0.937282
Si Si7 0.798865 0.220010 0.802864
O O1 0.000000 0.980415 0.250000
O O2 0.976343 0.780224 0.371775
O O3 0.153497 0.941545 0.115273
O O4 0.960898 0.988792 0.462947
O O5 0.407137 0.179640 0.596675
O O6 0.270147 0.208073 0.673328
O O7 0.433134 0.030735 0.442839
O O8 0.075493 0.843977 0.382567
O O9 0.005054 0.698261 0.591052
O O10 0.892722 0.897401 0.684612
O O11 0.500000 0.140085 0.750000
O O12 0.362472 0.045417 0.843806
O O13 0.328461 0.856203 0.797020
O O14 0.284073 0.839945 0.013227
#
# Coordination Sequence:
#
# PCOD9298846 Si02
#       7
#     8   8   8   8   4   8   8
#     4  11  21  41  67  92 129 178 228 282 336 416
#     4  11  20  39  68  99 128 174 230 285 339 403
#     4  11  25  46  63  94 140 175 227 294 338 414
#     4  12  24  41  67 100 145 175 218 291 361 403
#     4  10  24  46  66  84 134 180 230 278 344 416
#     4  11  20  36  67 101 127 168 222 279 336 398
#     4  11  20  37  68  96 131 171 224 275 338 396
#
# _framework density 23.704668000000002
#
# number of rings (size 3 to 8) (size 9 to 14) (size 15 to 20)
#    0.000    0.923    7.692    1.846    0.000    0.615 
#   13.846    0.769    0.000    0.000    0.000    0.000 
#    0.000    0.000    0.000    0.000    0.000    0.000 
#
# Total GULP energy -144763.099364 kJ/mol
# GULP energy per Si atom -5567.811514 kJ/mol
# Density = 2.365072 g / cm^3
# Si number density = 23.704668 Si / 1000 Ang^3
#
#
#
# Elastic Constant Matrix: (Units=GPa)
#
#
# Indices 1 2 3 4 5 6 
#
# 1 213.8954 46.2113 32.9053 0.0000 14.9887 0.0000
# 2 46.2113 58.2010 21.2437 0.0000 13.0419 0.0000
# 3 32.9053 21.2437 58.5564 0.0000 -17.8302 0.0000
# 4 0.0000 0.0000 0.0000 21.6959 0.0000 8.6783
# 5 14.9887 13.0419 -17.8302 0.0000 46.5258 0.0000
# 6 0.0000 0.0000 0.0000 8.6783 0.0000 29.8524
#
#
#
# Elastic Compliance Matrix: (Units=1/GPa)
#
#
# Indices 1 2 3 4 5 6 
#
# 1 0.005952 -0.003234 -0.002807 0.000000 -0.002087 0.000000
# 2 -0.003234 0.026010 -0.010780 0.000000 -0.010381 0.000000
# 3 -0.002807 -0.010780 0.026900 0.000000 0.014235 0.000000
# 4 0.000000 0.000000 0.000000 0.052157 0.000000 -0.015162
# 5 -0.002087 -0.010381 0.014235 0.000000 0.030531 0.000000
# 6 0.000000 0.000000 0.000000 -0.015162 0.000000 0.037906
#
#
# Mechanical properties :
#
#
# Convention : Reuss Voigt Hill
#
# Bulk Modulus (GPa) = 39.64889 59.04150 49.34520
# Shear Modulus (GPa) = 22.57298 34.96764 28.77031
#
# Velocity S-wave (km/s) = 3.08922 3.84492 3.48760
# Velocity P-wave (km/s) = 5.43018 6.68374 6.08930
#
# Compressibility (1/GPa) = 0.02522138
#
# Stress axis : x y z
#
# Youngs Moduli (GPa) = 168.01589 38.44648 37.17439
#
# Poissons Ratio (x) = 0.12432 0.10434
# Poissons Ratio (y) = 0.54330 0.40074
# Poissons Ratio (z) = 0.47159 0.41445
#
# Static dielectric constant tensor:
#      x y z
#    x 1.942880 0.000000 0.046320 
#    y 0.000000 2.038380 0.000000 
#    z 0.046320 0.000000 1.950260 
# 
# From -- ./inp_files/222434.got.cif
#   From: 2010.05.17/outbox.cif.g08.bks.cpg/sg15_112_cif.got.tgz:222434.got - 2010.06.03 18:47:42.
