data_PCOD9298390
_publ_section_title
;
Structure prediction by ZEFSAII (Michael W. Deem and Ramdas Pophale) SiO2 
 PCOD9298390
Probable space group: C 2/C
;
_chemical_formula_sum "Si O2"
_cell_formula_units_Z 28
_cell_length_a 10.540755
_cell_length_b 14.713714
_cell_length_c 7.720665
_cell_angle_alpha 90.000000
_cell_angle_beta 66.221286
_cell_angle_gamma 90.000000
_cell_volume 1095.776076
_symmetry_space_group_name_H-M "C 2/C"
_symmetry_group_IT_number 15
_symmetry_cell_setting 'monoclinic'
loop_
_space_group_symop_operation_xyz
x,y,z
-x,y,1/2-z
-x,-y,-z
x,-y,1/2+z
1/2+x,1/2+y,z
1/2-x,1/2+y,1/2-z
1/2-x,1/2-y,-z
1/2+x,1/2-y,1/2+z
loop_
_atom_site_type_symbol
_atom_site_label
_atom_site_fract_x
_atom_site_fract_y
_atom_site_fract_z
Si Si1 0.242150 0.943279 0.090023
Si Si2 0.880659 0.105911 0.173310
Si Si3 0.214772 0.233806 0.819943
Si Si4 0.500000 0.144003 0.250000
O O1 0.215760 0.868990 0.254489
O O2 0.237081 0.043746 0.169742
O O3 0.116176 0.936687 0.019665
O O4 0.384998 0.915637 0.915912
O O5 0.834060 0.208263 0.159734
O O6 0.000000 0.109336 0.250000
O O7 0.079678 0.288536 0.836534
O O8 0.250000 0.250000 0.000000
#
# Coordination Sequence:
#
# PCOD9298390 Si02
#       4
#     8   8   8   4
#     4  11  25  45  69 108 144 187 242 297 363 417
#     4  11  24  43  72 105 141 191 242 294 354 434
#     4  11  26  42  71 106 144 192 233 303 366 416
#     4  10  24  44  68  98 152 184 240 294 356 436
#
# _framework density 25.552665999999999
#
# number of rings (size 3 to 8) (size 9 to 14) (size 15 to 20)
#    0.000    1.143    0.000    6.000   10.000    4.571 
#    0.000    0.000    0.000    0.000    0.000    0.000 
#    0.000    0.000    0.000    0.000    0.000    0.000 
#
# Total GULP energy -78337.112103 kJ/mol
# GULP energy per Si atom -5595.508007 kJ/mol
# Density = 2.549451 g / cm^3
# Si number density = 25.552666 Si / 1000 Ang^3
#
#
#
# Elastic Constant Matrix: (Units=GPa)
#
#
# Indices 1 2 3 4 5 6 
#
# 1 160.9203 45.6657 61.5340 0.0000 22.8498 0.0000
# 2 45.6657 112.4865 27.7458 0.0000 -16.8773 0.0000
# 3 61.5340 27.7458 90.3358 0.0000 13.9919 0.0000
# 4 0.0000 0.0000 0.0000 57.6203 0.0000 3.8595
# 5 22.8498 -16.8773 13.9919 0.0000 57.7789 0.0000
# 6 0.0000 0.0000 0.0000 3.8595 0.0000 35.2972
#
#
#
# Elastic Compliance Matrix: (Units=1/GPa)
#
#
# Indices 1 2 3 4 5 6 
#
# 1 0.009502 -0.003154 -0.004965 0.000000 -0.003477 0.000000
# 2 -0.003154 0.011474 -0.002169 0.000000 0.005124 0.000000
# 3 -0.004965 -0.002169 0.015493 0.000000 -0.002422 0.000000
# 4 0.000000 0.000000 0.000000 0.017483 0.000000 -0.001912
# 5 -0.003477 0.005124 -0.002422 0.000000 0.020766 0.000000
# 6 0.000000 0.000000 0.000000 -0.001912 0.000000 0.028540
#
#
# Mechanical properties :
#
#
# Convention : Reuss Voigt Hill
#
# Bulk Modulus (GPa) = 62.92434 70.40374 66.66404
# Shear Modulus (GPa) = 38.72001 45.39243 42.05622
#
# Velocity S-wave (km/s) = 3.89691 4.21934 4.06133
# Velocity P-wave (km/s) = 6.70274 7.16584 6.93816
#
# Compressibility (1/GPa) = 0.01589210
#
# Stress axis : x y z
#
# Youngs Moduli (GPa) = 105.24607 87.15006 64.54454
#
# Poissons Ratio (x) = 0.27490 0.32045
# Poissons Ratio (y) = 0.33198 0.14002
# Poissons Ratio (z) = 0.52253 0.18906
#
# Static dielectric constant tensor:
#      x y z
#    x 2.065110 0.000000 -0.042020 
#    y 0.000000 1.945230 0.000000 
#    z -0.042020 0.000000 2.136250 
# 
# From -- ./inp_files/27573.got.cif
#   From: 2010.05.17/outbox.cif.g08.bks.cpg/sg15_14_cif.got.tgz:27573.got - 2010.06.03 18:47:42.
