data_PCOD9298790
_publ_section_title
;
Structure prediction by ZEFSAII (Michael W. Deem and Ramdas Pophale) SiO2 
 PCOD9298790
Probable space group: C 2/C
;
_chemical_formula_sum "Si O2"
_cell_formula_units_Z 56
_cell_length_a 11.041857
_cell_length_b 19.543452
_cell_length_c 11.281572
_cell_angle_alpha 90.000000
_cell_angle_beta 95.166549
_cell_angle_gamma 90.000000
_cell_volume 2424.627038
_symmetry_space_group_name_H-M "C 2/C"
_symmetry_group_IT_number 15
_symmetry_cell_setting 'monoclinic'
loop_
_space_group_symop_operation_xyz
x,y,z
-x,y,1/2-z
-x,-y,-z
x,-y,1/2+z
1/2+x,1/2+y,z
1/2-x,1/2+y,1/2-z
1/2-x,1/2-y,-z
1/2+x,1/2-y,1/2+z
loop_
_atom_site_type_symbol
_atom_site_label
_atom_site_fract_x
_atom_site_fract_y
_atom_site_fract_z
Si Si1 0.931351 0.137023 0.040740
Si Si2 0.500000 0.459191 0.750000
Si Si3 0.830986 0.449002 0.574705
Si Si4 0.824606 0.191588 0.439510
Si Si5 0.500000 0.876800 0.750000
Si Si6 0.766186 0.707821 0.316731
Si Si7 0.255440 0.970007 0.307405
Si Si8 0.869695 0.146465 0.801080
O O1 0.005843 0.090173 0.137640
O O2 0.813865 0.168533 0.093702
O O3 0.035855 0.189439 0.007579
O O4 0.891143 0.099011 0.918371
O O5 0.381989 0.501821 0.706205
O O6 0.741153 0.382638 0.558738
O O7 0.818050 0.481719 0.441642
O O8 0.806813 0.495690 0.690800
O O9 0.959584 0.417942 0.628665
O O10 0.750000 0.250000 0.500000
O O11 0.823293 0.212654 0.302588
O O12 0.616839 0.833813 0.719128
O O13 0.815801 0.783065 0.346054
O O14 0.232527 0.889218 0.287367
O O15 0.000000 0.155265 0.750000
#
# Coordination Sequence:
#
# PCOD9298790 Si02
#       8
#     8   4   8   8   4   8   8   8
#     4  12  23  42  69 105 140 180 235 301 358 425
#     4  12  22  41  68 103 138 180 232 298 364 420
#     4  11  25  46  70 105 138 190 240 294 354 432
#     4  11  22  40  72 105 140 180 237 299 367 423
#     4  10  24  45  74  95 142 194 242 292 358 432
#     4  11  22  44  67 102 141 186 237 292 364 424
#     4  12  25  42  71 102 142 184 240 294 359 427
#     4  12  25  41  66 104 147 183 233 294 356 427
#
# _framework density 23.096336000000001
#
# number of rings (size 3 to 8) (size 9 to 14) (size 15 to 20)
#    0.000    0.571    4.286    4.714    2.000    1.714 
#    0.000    0.000    3.143    0.000    0.000    0.000 
#    0.000    0.000    0.000    0.000    0.000    0.000 
#
# Total GULP energy -156237.636884 kJ/mol
# GULP energy per Si atom -5579.915603 kJ/mol
# Density = 2.304377 g / cm^3
# Si number density = 23.096336 Si / 1000 Ang^3
#
#
#
# Elastic Constant Matrix: (Units=GPa)
#
#
# Indices 1 2 3 4 5 6 
#
# 1 87.5696 36.6513 24.0976 0.0000 -3.1066 0.0000
# 2 36.6513 69.3273 25.6442 0.0000 -0.2998 0.0000
# 3 24.0976 25.6442 195.7333 0.0000 16.5354 0.0000
# 4 0.0000 0.0000 0.0000 23.9100 0.0000 10.1867
# 5 -3.1066 -0.2998 16.5354 0.0000 34.2659 0.0000
# 6 0.0000 0.0000 0.0000 10.1867 0.0000 7.9678
#
#
#
# Elastic Compliance Matrix: (Units=1/GPa)
#
#
# Indices 1 2 3 4 5 6 
#
# 1 0.014895 -0.007497 -0.001001 0.000000 0.001768 0.000000
# 2 -0.007497 0.018975 -0.001584 0.000000 0.000251 0.000000
# 3 -0.001001 -0.001584 0.005680 0.000000 -0.002846 0.000000
# 4 0.000000 0.000000 0.000000 0.091858 0.000000 -0.117439
# 5 0.001768 0.000251 -0.002846 0.000000 0.030719 0.000000
# 6 0.000000 0.000000 0.000000 -0.117439 0.000000 0.275650
#
#
# Mechanical properties :
#
#
# Convention : Reuss Voigt Hill
#
# Bulk Modulus (GPa) = 51.58291 58.37958 54.98124
# Shear Modulus (GPa) = 10.76651 30.97790 20.87221
#
# Velocity S-wave (km/s) = 2.16141 3.66628 3.00942
# Velocity P-wave (km/s) = 5.34894 6.57674 5.99436
#
# Compressibility (1/GPa) = 0.01938627
#
# Stress axis : x y z
#
# Youngs Moduli (GPa) = 67.13494 52.70161 176.05062
#
# Poissons Ratio (x) = 0.39509 0.17622
# Poissons Ratio (y) = 0.50330 0.27890
# Poissons Ratio (z) = 0.06720 0.08349
#
# Static dielectric constant tensor:
#      x y z
#    x 1.854320 0.000000 0.033630 
#    y 0.000000 2.002870 0.000000 
#    z 0.033630 0.000000 1.813870 
# 
# From -- ./inp_files/89075.got.cif
#   From: 2010.05.17/outbox.cif.g08.bks.cpg/sg15_45_cif.got.tgz:89075.got - 2010.06.03 18:47:42.
