data_PCOD9298717
_publ_section_title
;
Structure prediction by ZEFSAII (Michael W. Deem and Ramdas Pophale) SiO2 
 PCOD9298717
Probable space group: C 2/C
;
_chemical_formula_sum "Si O2"
_cell_formula_units_Z 56
_cell_length_a 13.461924
_cell_length_b 14.429999
_cell_length_c 12.203910
_cell_angle_alpha 90.000000
_cell_angle_beta 91.138067
_cell_angle_gamma 90.000000
_cell_volume 2370.209600
_symmetry_space_group_name_H-M "C 2/C"
_symmetry_group_IT_number 15
_symmetry_cell_setting 'monoclinic'
loop_
_space_group_symop_operation_xyz
x,y,z
-x,y,1/2-z
-x,-y,-z
x,-y,1/2+z
1/2+x,1/2+y,z
1/2-x,1/2+y,1/2-z
1/2-x,1/2-y,-z
1/2+x,1/2-y,1/2+z
loop_
_atom_site_type_symbol
_atom_site_label
_atom_site_fract_x
_atom_site_fract_y
_atom_site_fract_z
Si Si1 0.785908 0.291910 0.291668
Si Si2 0.302025 0.483129 0.280492
Si Si3 0.847711 0.548984 0.535223
Si Si4 0.550828 0.122711 0.565422
Si Si5 0.573600 0.239156 0.355363
Si Si6 0.033792 0.091721 0.560850
Si Si7 0.808472 0.150410 0.108805
O O1 0.747639 0.396339 0.280206
O O2 0.886206 0.302772 0.363979
O O3 0.691528 0.234483 0.336076
O O4 0.803968 0.245105 0.174993
O O5 0.228709 0.499884 0.382494
O O6 0.402200 0.442573 0.334952
O O7 0.319146 0.569145 0.200801
O O8 0.889821 0.472786 0.452252
O O9 0.788965 0.625012 0.463178
O O10 0.941215 0.593301 0.601172
O O11 0.541387 0.164773 0.443936
O O12 0.500000 0.229414 0.250000
O O13 0.552601 0.340663 0.404207
O O14 0.103358 0.146348 0.476852
O O15 0.000000 0.000000 0.500000
#
# Coordination Sequence:
#
# PCOD9298717 Si02
#       7
#     8   8   8   8   8   8   8
#     4  12  25  44  73 102 142 184 237 293 356 422
#     4  11  24  46  71 101 143 182 236 291 359 418
#     4  10  24  45  70  97 142 184 231 290 354 419
#     4  11  25  45  69 105 136 183 237 288 347 429
#     4  12  25  45  70 101 140 184 234 291 358 418
#     4  11  27  44  72 101 145 185 237 291 355 427
#     4  11  25  47  72 105 141 189 235 293 359 422
#
# _framework density 23.626602999999999
#
# number of rings (size 3 to 8) (size 9 to 14) (size 15 to 20)
#    0.000    0.857    2.857    3.000    6.000    1.714 
#    0.000    0.000    0.000    0.000    0.000    0.000 
#    0.000    0.000    0.000    0.000    0.000    0.000 
#
# Total GULP energy -156822.098619 kJ/mol
# GULP energy per Si atom -5600.789236 kJ/mol
# Density = 2.357283 g / cm^3
# Si number density = 23.626603 Si / 1000 Ang^3
#
#
#
# Elastic Constant Matrix: (Units=GPa)
#
#
# Indices 1 2 3 4 5 6 
#
# 1 96.2767 22.9960 41.4436 0.0000 -5.0650 0.0000
# 2 22.9960 72.3897 26.0231 0.0000 4.4236 0.0000
# 3 41.4436 26.0231 87.1859 0.0000 10.2762 0.0000
# 4 0.0000 0.0000 0.0000 58.4375 0.0000 -6.9822
# 5 -5.0650 4.4236 10.2762 0.0000 34.3513 0.0000
# 6 0.0000 0.0000 0.0000 -6.9822 0.0000 18.3476
#
#
#
# Elastic Compliance Matrix: (Units=1/GPa)
#
#
# Indices 1 2 3 4 5 6 
#
# 1 0.013946 -0.002383 -0.006423 0.000000 0.004285 0.000000
# 2 -0.002383 0.015895 -0.003450 0.000000 -0.001366 0.000000
# 3 -0.006423 -0.003450 0.016183 0.000000 -0.005344 0.000000
# 4 0.000000 0.000000 0.000000 0.017927 0.000000 0.006822
# 5 0.004285 -0.001366 -0.005344 0.000000 0.031517 0.000000
# 6 0.000000 0.000000 0.000000 0.006822 0.000000 0.057099
#
#
# Mechanical properties :
#
#
# Convention : Reuss Voigt Hill
#
# Bulk Modulus (GPa) = 46.48860 48.53087 47.50974
# Shear Modulus (GPa) = 27.13684 33.25327 30.19505
#
# Velocity S-wave (km/s) = 3.39273 3.75567 3.57881
# Velocity P-wave (km/s) = 5.92171 6.27631 6.10159
#
# Compressibility (1/GPa) = 0.02151065
#
# Stress axis : x y z
#
# Youngs Moduli (GPa) = 71.70395 62.91264 61.79458
#
# Poissons Ratio (x) = 0.14993 0.39691
# Poissons Ratio (y) = 0.17088 0.21322
# Poissons Ratio (z) = 0.46056 0.21708
#
# Static dielectric constant tensor:
#      x y z
#    x 1.954750 0.000000 0.038830 
#    y 0.000000 1.893020 0.000000 
#    z 0.038830 0.000000 1.951930 
# 
# From -- ./inp_files/97014.got.cif
#   From: 2010.05.17/outbox.cif.g08.bks.cpg/sg15_49_cif.got.tgz:97014.got - 2010.06.03 18:47:42.
