data_PCOD9298341
_publ_section_title
;
Structure prediction by ZEFSAII (Michael W. Deem and Ramdas Pophale) SiO2 
 PCOD9298341
Probable space group: C 2/C
;
_chemical_formula_sum "Si O2"
_cell_formula_units_Z 28
_cell_length_a 8.945680
_cell_length_b 4.540794
_cell_length_c 25.061047
_cell_angle_alpha 90.000000
_cell_angle_beta 85.533013
_cell_angle_gamma 90.000000
_cell_volume 1014.899733
_symmetry_space_group_name_H-M "C 2/C"
_symmetry_group_IT_number 15
_symmetry_cell_setting 'monoclinic'
loop_
_space_group_symop_operation_xyz
x,y,z
-x,y,1/2-z
-x,-y,-z
x,-y,1/2+z
1/2+x,1/2+y,z
1/2-x,1/2+y,1/2-z
1/2-x,1/2-y,-z
1/2+x,1/2-y,1/2+z
loop_
_atom_site_type_symbol
_atom_site_label
_atom_site_fract_x
_atom_site_fract_y
_atom_site_fract_z
Si Si1 0.357314 0.074846 0.613800
Si Si2 0.000000 0.907843 0.750000
Si Si3 0.150323 0.062537 0.963326
Si Si4 0.603412 0.909256 0.680430
O O1 0.309041 0.248096 0.561705
O O2 0.246307 0.215836 0.660265
O O3 0.358460 0.744559 0.591628
O O4 0.524309 0.086013 0.634025
O O5 0.120570 0.666071 0.724678
O O6 0.987445 0.153228 0.703484
O O7 0.250000 0.250000 0.000000
O O8 0.000000 0.000000 0.000000
#
# Coordination Sequence:
#
# PCOD9298341 Si02
#       4
#     8   4   8   8
#     4  12  24  43  67  97 136 180 233 289 358 426
#     4  10  24  44  68 100 136 178 234 290 360 428
#     4  12  24  41  65  96 134 179 231 290 351 424
#     4  11  24  43  68  99 136 182 231 296 357 434
#
# _framework density 27.588932
#
# number of rings (size 3 to 8) (size 9 to 14) (size 15 to 20)
#    0.000    0.571    0.000    8.571    0.000    4.571 
#    0.000    0.000    0.000    0.000    0.000    0.000 
#    0.000    0.000    0.000    0.000    0.000    0.000 
#
# Total GULP energy -78082.335988 kJ/mol
# GULP energy per Si atom -5577.309713 kJ/mol
# Density = 2.752614 g / cm^3
# Si number density = 27.588932 Si / 1000 Ang^3
#
#
#
# Elastic Constant Matrix: (Units=GPa)
#
#
# Indices 1 2 3 4 5 6 
#
# 1 117.1656 23.7573 43.6799 0.0000 -9.8147 0.0000
# 2 23.7573 179.0531 56.6548 0.0000 -4.1583 0.0000
# 3 43.6799 56.6548 111.4964 0.0000 3.2688 0.0000
# 4 0.0000 0.0000 0.0000 90.6397 0.0000 -0.6999
# 5 -9.8147 -4.1583 3.2688 0.0000 44.1006 0.0000
# 6 0.0000 0.0000 0.0000 -0.6999 0.0000 47.9771
#
#
#
# Elastic Compliance Matrix: (Units=1/GPa)
#
#
# Indices 1 2 3 4 5 6 
#
# 1 0.010282 -0.000007 -0.004101 0.000000 0.002592 0.000000
# 2 -0.000007 0.006689 -0.003422 0.000000 0.000883 0.000000
# 3 -0.004101 -0.003422 0.012378 0.000000 -0.002153 0.000000
# 4 0.000000 0.000000 0.000000 0.011034 0.000000 0.000161
# 5 0.002592 0.000883 -0.002153 0.000000 0.023495 0.000000
# 6 0.000000 0.000000 0.000000 0.000161 0.000000 0.020846
#
#
# Mechanical properties :
#
#
# Convention : Reuss Voigt Hill
#
# Bulk Modulus (GPa) = 69.98110 72.87767 71.42938
# Shear Modulus (GPa) = 47.82588 55.45168 51.63878
#
# Velocity S-wave (km/s) = 4.16807 4.48808 4.33103
# Velocity P-wave (km/s) = 6.97025 7.30274 7.13844
#
# Compressibility (1/GPa) = 0.01428957
#
# Stress axis : x y z
#
# Youngs Moduli (GPa) = 97.25597 149.49539 80.79155
#
# Poissons Ratio (x) = 0.00098 0.33131
# Poissons Ratio (y) = 0.00063 0.27649
# Poissons Ratio (z) = 0.39883 0.51162
#
# Static dielectric constant tensor:
#      x y z
#    x 2.177010 0.000000 0.033770 
#    y 0.000000 2.157090 0.000000 
#    z 0.033770 0.000000 2.290090 
# 
# From -- ./inp_files/290325.got.cif
#   From: 2010.05.17/outbox.cif.g08.bks.cpg/sg15_146_cif.got.tgz:290325.got - 2010.06.03 18:47:42.
