data_PCOD9298305
_publ_section_title
;
Structure prediction by ZEFSAII (Michael W. Deem and Ramdas Pophale) SiO2 
 PCOD9298305
Probable space group: C 2/C
;
_chemical_formula_sum "Si O2"
_cell_formula_units_Z 48
_cell_length_a 25.117526
_cell_length_b 8.880184
_cell_length_c 9.984103
_cell_angle_alpha 90.000000
_cell_angle_beta 108.626442
_cell_angle_gamma 90.000000
_cell_volume 2110.292252
_symmetry_space_group_name_H-M "C 2/C"
_symmetry_group_IT_number 15
_symmetry_cell_setting 'monoclinic'
loop_
_space_group_symop_operation_xyz
x,y,z
-x,y,1/2-z
-x,-y,-z
x,-y,1/2+z
1/2+x,1/2+y,z
1/2-x,1/2+y,1/2-z
1/2-x,1/2-y,-z
1/2+x,1/2-y,1/2+z
loop_
_atom_site_type_symbol
_atom_site_label
_atom_site_fract_x
_atom_site_fract_y
_atom_site_fract_z
Si Si1 0.642253 0.924407 0.494506
Si Si2 0.000000 0.784708 0.750000
Si Si3 0.069722 0.545477 0.670912
Si Si4 0.500000 0.789898 0.750000
Si Si5 0.832339 0.087514 0.883566
Si Si6 0.946336 0.970595 0.049663
Si Si7 0.761835 0.080004 0.555434
O O1 0.615278 0.925014 0.324926
O O2 0.650615 0.757475 0.561818
O O3 0.600315 0.018498 0.556223
O O4 0.702701 0.002326 0.540545
O O5 0.975288 0.679216 0.846504
O O6 0.950928 0.892990 0.659473
O O7 0.035390 0.395581 0.680705
O O8 0.543064 0.682030 0.862436
O O9 0.801124 0.084850 0.717303
O O10 0.888593 0.986769 0.926001
O O11 0.792383 0.015297 0.964188
O O12 0.000000 0.000000 0.000000
O O13 0.750000 0.250000 0.500000
#
# Coordination Sequence:
#
# PCOD9298305 Si02
#       7
#     8   4   8   4   8   8   8
#     4  12  26  48  73 104 142 192 242 301 364 434
#     4  10  24  44  66 110 140 196 236 298 366 436
#     4  11  25  45  75 104 146 188 244 295 363 436
#     4  10  26  42  68 110 148 190 240 300 362 436
#     4  12  27  49  74 109 148 191 243 303 368 432
#     4  11  25  42  72 104 149 190 241 295 370 436
#     4  12  29  50  77 109 143 191 247 307 366 432
#
# _framework density 22.745666
#
# number of rings (size 3 to 8) (size 9 to 14) (size 15 to 20)
#    0.000    0.667    1.667    4.500   11.667    2.667 
#    0.000    0.000    0.000    0.000    0.000    0.000 
#    0.000    0.000    0.000    0.000    0.000    0.000 
#
# Total GULP energy -134598.765194 kJ/mol
# GULP energy per Si atom -5608.281883 kJ/mol
# Density = 2.269390 g / cm^3
# Si number density = 22.745666 Si / 1000 Ang^3
#
#
#
# Elastic Constant Matrix: (Units=GPa)
#
#
# Indices 1 2 3 4 5 6 
#
# 1 123.5648 28.1941 24.4151 0.0000 2.4533 0.0000
# 2 28.1941 113.8623 47.0193 0.0000 3.5387 0.0000
# 3 24.4151 47.0193 138.5343 0.0000 25.8823 0.0000
# 4 0.0000 0.0000 0.0000 26.4272 0.0000 7.6719
# 5 2.4533 3.5387 25.8823 0.0000 51.7558 0.0000
# 6 0.0000 0.0000 0.0000 7.6719 0.0000 30.4572
#
#
#
# Elastic Compliance Matrix: (Units=1/GPa)
#
#
# Indices 1 2 3 4 5 6 
#
# 1 0.008681 -0.001755 -0.000971 0.000000 0.000194 0.000000
# 2 -0.001755 0.010630 -0.003506 0.000000 0.001110 0.000000
# 3 -0.000971 -0.003506 0.009405 0.000000 -0.004417 0.000000
# 4 0.000000 0.000000 0.000000 0.040825 0.000000 -0.010283
# 5 0.000194 0.001110 -0.004417 0.000000 0.021446 0.000000
# 6 0.000000 0.000000 0.000000 -0.010283 0.000000 0.035423
#
#
# Mechanical properties :
#
#
# Convention : Reuss Voigt Hill
#
# Bulk Modulus (GPa) = 61.52545 63.91318 62.71932
# Shear Modulus (GPa) = 34.65213 40.15022 37.40117
#
# Velocity S-wave (km/s) = 3.90739 4.20596 4.05942
# Velocity P-wave (km/s) = 6.88948 7.19353 7.04315
#
# Compressibility (1/GPa) = 0.01625344
#
# Stress axis : x y z
#
# Youngs Moduli (GPa) = 115.19069 94.06981 106.32900
#
# Poissons Ratio (x) = 0.16508 0.10320
# Poissons Ratio (y) = 0.20214 0.37280
# Poissons Ratio (z) = 0.11180 0.32982
#
# Static dielectric constant tensor:
#      x y z
#    x 1.799970 0.000000 0.000030 
#    y 0.000000 1.839400 0.000000 
#    z 0.000030 0.000000 1.876120 
# 
# From -- ./inp_files/116817.got.cif
#   From: 2010.05.17/outbox.cif.g08.bks.cpg/sg15_59_cif.got.tgz:116817.got - 2010.06.03 18:47:42.
