data_PCOD9298113
_publ_section_title
;
Structure prediction by ZEFSAII (Michael W. Deem and Ramdas Pophale) SiO2 
 PCOD9298113
Probable space group: C 2/C
;
_chemical_formula_sum "Si O2"
_cell_formula_units_Z 44
_cell_length_a 13.903610
_cell_length_b 7.142706
_cell_length_c 17.046019
_cell_angle_alpha 90.000000
_cell_angle_beta 76.114326
_cell_angle_gamma 90.000000
_cell_volume 1643.359509
_symmetry_space_group_name_H-M "C 2/C"
_symmetry_group_IT_number 15
_symmetry_cell_setting 'monoclinic'
loop_
_space_group_symop_operation_xyz
x,y,z
-x,y,1/2-z
-x,-y,-z
x,-y,1/2+z
1/2+x,1/2+y,z
1/2-x,1/2+y,1/2-z
1/2-x,1/2-y,-z
1/2+x,1/2-y,1/2+z
loop_
_atom_site_type_symbol
_atom_site_label
_atom_site_fract_x
_atom_site_fract_y
_atom_site_fract_z
Si Si1 0.662617 0.814407 0.074968
Si Si2 0.314815 0.008814 0.152810
Si Si3 0.475474 0.213476 0.026376
Si Si4 0.349230 0.746035 0.902673
Si Si5 0.500000 0.366159 0.250000
Si Si6 0.142484 0.822733 0.758449
O O1 0.647126 0.747519 0.167147
O O2 0.678771 0.039213 0.076024
O O3 0.750000 0.750000 0.000000
O O4 0.570160 0.724389 0.046291
O O5 0.238251 0.897573 0.107555
O O6 0.377433 0.842394 0.178152
O O7 0.383692 0.172553 0.104526
O O8 0.251970 0.088511 0.238596
O O9 0.575618 0.303817 0.040075
O O10 0.500000 0.000000 0.000000
O O11 0.426341 0.751222 0.816123
O O12 0.432847 0.509829 0.214333
#
# Coordination Sequence:
#
# PCOD9298113 Si02
#       6
#     8   8   8   8   4   8
#     4  11  23  44  71 103 140 188 231 297 365 437
#     4  11  24  46  70 105 138 190 243 301 357 437
#     4  10  24  43  69 100 141 183 238 285 374 421
#     4  10  25  44  71  99 142 185 236 303 354 429
#     4  10  26  44  66 108 132 182 250 286 356 434
#     4  11  25  42  70 103 139 184 242 296 361 429
#
# _framework density 26.774419000000002
#
# number of rings (size 3 to 8) (size 9 to 14) (size 15 to 20)
#    0.000    1.455    1.818    1.091   12.727    4.364 
#    0.000    3.636    0.000    0.000    0.000    0.000 
#    0.000    0.000    0.000    0.000    0.000    0.000 
#
# Total GULP energy -122878.677554 kJ/mol
# GULP energy per Si atom -5585.394434 kJ/mol
# Density = 2.671348 g / cm^3
# Si number density = 26.774419 Si / 1000 Ang^3
#
#
#
# Elastic Constant Matrix: (Units=GPa)
#
#
# Indices 1 2 3 4 5 6 
#
# 1 91.2347 21.9782 60.7742 0.0000 10.9858 0.0000
# 2 21.9782 95.8192 34.4333 0.0000 10.9627 0.0000
# 3 60.7742 34.4333 112.1724 0.0000 3.9297 0.0000
# 4 0.0000 0.0000 0.0000 49.1770 0.0000 4.5339
# 5 10.9858 10.9627 3.9297 0.0000 64.8326 0.0000
# 6 0.0000 0.0000 0.0000 4.5339 0.0000 33.7546
#
#
#
# Elastic Compliance Matrix: (Units=1/GPa)
#
#
# Indices 1 2 3 4 5 6 
#
# 1 0.017529 -0.000416 -0.009288 0.000000 -0.002337 0.000000
# 2 -0.000416 0.011946 -0.003381 0.000000 -0.001745 0.000000
# 3 -0.009288 -0.003381 0.014941 0.000000 0.001240 0.000000
# 4 0.000000 0.000000 0.000000 0.020590 0.000000 -0.002766
# 5 -0.002337 -0.001745 0.001240 0.000000 0.016040 0.000000
# 6 0.000000 0.000000 0.000000 -0.002766 0.000000 0.029997
#
#
# Mechanical properties :
#
#
# Convention : Reuss Voigt Hill
#
# Bulk Modulus (GPa) = 54.79986 59.28865 57.04425
# Shear Modulus (GPa) = 34.89323 41.68890 38.29106
#
# Velocity S-wave (km/s) = 3.61394 3.95022 3.78582
# Velocity P-wave (km/s) = 6.15839 6.55725 6.36095
#
# Compressibility (1/GPa) = 0.01824822
#
# Stress axis : x y z
#
# Youngs Moduli (GPa) = 57.04806 83.70887 66.92917
#
# Poissons Ratio (x) = 0.03480 0.62161
# Poissons Ratio (y) = 0.02372 0.22627
# Poissons Ratio (z) = 0.52984 0.28300
#
# Static dielectric constant tensor:
#      x y z
#    x 2.278320 0.000000 0.069940 
#    y 0.000000 2.072870 0.000000 
#    z 0.069940 0.000000 2.157660 
# 
# From -- ./inp_files/202623.got.cif
#   From: 2010.05.17/outbox.cif.g08.bks.cpg/sg15_102_cif.got.tgz:202623.got - 2010.06.03 18:47:42.
