data_PCOD9298068
_publ_section_title
;
Structure prediction by ZEFSAII (Michael W. Deem and Ramdas Pophale) SiO2 
 PCOD9298068
Probable space group: C 2/C
;
_chemical_formula_sum "Si O2"
_cell_formula_units_Z 56
_cell_length_a 14.221790
_cell_length_b 15.096634
_cell_length_c 20.541391
_cell_angle_alpha 90.000000
_cell_angle_beta 150.330238
_cell_angle_gamma 90.000000
_cell_volume 2183.079700
_symmetry_space_group_name_H-M "C 2/C"
_symmetry_group_IT_number 15
_symmetry_cell_setting 'monoclinic'
loop_
_space_group_symop_operation_xyz
x,y,z
-x,y,1/2-z
-x,-y,-z
x,-y,1/2+z
1/2+x,1/2+y,z
1/2-x,1/2+y,1/2-z
1/2-x,1/2-y,-z
1/2+x,1/2-y,1/2+z
loop_
_atom_site_type_symbol
_atom_site_label
_atom_site_fract_x
_atom_site_fract_y
_atom_site_fract_z
Si Si1 0.989412 0.354918 0.447784
Si Si2 0.342532 0.151784 0.325880
Si Si3 0.780108 0.945428 0.939943
Si Si4 0.772839 0.963612 0.305089
Si Si5 0.575258 0.223900 0.351689
Si Si6 0.556004 0.299451 0.906022
Si Si7 0.830186 0.030132 0.097641
O O1 0.838870 0.392311 0.305600
O O2 0.980404 0.363903 0.519335
O O3 0.024177 0.251020 0.454413
O O4 0.171219 0.417248 0.541458
O O5 0.414593 0.206396 0.308309
O O6 0.162589 0.201153 0.252600
O O7 0.267342 0.057786 0.253946
O O8 0.671376 0.854009 0.865059
O O9 0.714677 0.017472 0.845725
O O10 0.005611 0.938850 0.064002
O O11 0.745773 0.959639 0.996754
O O12 0.500000 0.289051 0.250000
O O13 0.750000 0.250000 0.500000
O O14 0.603970 0.399853 0.918747
O O15 0.750000 0.250000 0.000000
O O16 0.000000 0.008650 0.250000
#
# Coordination Sequence:
#
# PCOD9298068 Si02
#       7
#     8   8   8   8   8   8   8
#     4  11  25  40  73 105 141 188 242 296 379 445
#     4  12  24  47  72 103 150 188 251 311 372 447
#     4  11  25  46  72 102 150 190 249 310 364 442
#     4  11  24  45  73 108 140 195 248 306 374 438
#     4  12  30  50  75 105 153 202 258 312 374 451
#     4  10  24  43  67 108 148 186 236 306 379 439
#     4  11  21  44  69 104 146 186 232 305 366 445
#
# _framework density 25.651834000000001
#
# number of rings (size 3 to 8) (size 9 to 14) (size 15 to 20)
#    0.000    0.857    4.286    1.286    4.000    2.857 
#    2.571    0.000    0.000    0.000    0.000    0.000 
#    0.000    0.000    0.000    0.000    0.000    0.000 
#
# Total GULP energy -156092.767021 kJ/mol
# GULP energy per Si atom -5574.741679 kJ/mol
# Density = 2.559345 g / cm^3
# Si number density = 25.651834 Si / 1000 Ang^3
#
#
#
# Elastic Constant Matrix: (Units=GPa)
#
#
# Indices 1 2 3 4 5 6 
#
# 1 110.4865 21.4323 53.0362 0.0003 -19.0530 -0.0001
# 2 21.4323 34.5796 18.0950 0.0024 -1.4783 0.0008
# 3 53.0362 18.0950 156.9384 0.0033 -24.5447 0.0009
# 4 0.0003 0.0024 0.0033 30.0901 0.0015 -9.4657
# 5 -19.0530 -1.4783 -24.5447 0.0015 56.4107 0.0004
# 6 -0.0001 0.0008 0.0009 -9.4657 0.0004 19.0667
#
#
#
# Elastic Compliance Matrix: (Units=1/GPa)
#
#
# Indices 1 2 3 4 5 6 
#
# 1 0.012067 -0.005797 -0.003000 0.000001 0.002618 0.000001
# 2 -0.005797 0.033594 -0.002235 -0.000003 -0.002050 -0.000003
# 3 -0.003000 -0.002235 0.008022 -0.000001 0.002418 -0.000001
# 4 0.000001 -0.000003 -0.000001 0.039384 -0.000001 0.019552
# 5 0.002618 -0.002050 0.002418 -0.000001 0.019610 -0.000001
# 6 0.000001 -0.000003 -0.000001 0.019552 -0.000001 0.062154
#
#
# Mechanical properties :
#
#
# Convention : Reuss Voigt Hill
#
# Bulk Modulus (GPa) = 31.62743 54.12572 42.87657
# Shear Modulus (GPa) = 24.10395 35.07623 29.59009
#
# Velocity S-wave (km/s) = 3.06871 3.70184 3.40005
# Velocity P-wave (km/s) = 4.99122 6.27833 5.67141
#
# Compressibility (1/GPa) = 0.03161813
#
# Stress axis : x y z
#
# Youngs Moduli (GPa) = 82.86999 29.76746 124.66213
#
# Poissons Ratio (x) = 0.17257 0.37399
# Poissons Ratio (y) = 0.48042 0.27860
# Poissons Ratio (z) = 0.24861 0.06652
#
# Static dielectric constant tensor:
#      x y z
#    x 2.175700 0.000010 -0.092740 
#    y 0.000010 2.128190 0.000000 
#    z -0.092740 0.000000 2.382590 
# 
# From -- ./inp_files/245185.got.cif
#   From: 2010.05.17/outbox.cif.g08.bks.cpg/sg15_123_cif.got.tgz:245185.got - 2010.06.03 18:47:42.
