data_PCOD9298656
_publ_section_title
;
Structure prediction by ZEFSAII (Michael W. Deem and Ramdas Pophale) SiO2 
 PCOD9298656
Probable space group: C 2/C
;
_chemical_formula_sum "Si O2"
_cell_formula_units_Z 56
_cell_length_a 18.381057
_cell_length_b 11.948404
_cell_length_c 11.854137
_cell_angle_alpha 90.000000
_cell_angle_beta 75.130464
_cell_angle_gamma 90.000000
_cell_volume 2516.273648
_symmetry_space_group_name_H-M "C 2/C"
_symmetry_group_IT_number 15
_symmetry_cell_setting 'monoclinic'
loop_
_space_group_symop_operation_xyz
x,y,z
-x,y,1/2-z
-x,-y,-z
x,-y,1/2+z
1/2+x,1/2+y,z
1/2-x,1/2+y,1/2-z
1/2-x,1/2-y,-z
1/2+x,1/2-y,1/2+z
loop_
_atom_site_type_symbol
_atom_site_label
_atom_site_fract_x
_atom_site_fract_y
_atom_site_fract_z
Si Si1 0.289053 0.574733 0.044803
Si Si2 0.385741 0.417437 0.714620
Si Si3 0.402083 0.750801 0.914619
Si Si4 0.000000 0.735639 0.750000
Si Si5 0.245245 0.642784 0.421272
Si Si6 0.855950 0.402688 0.737441
Si Si7 0.545175 0.088617 0.910175
Si Si8 0.500000 0.401018 0.250000
O O1 0.358562 0.548881 0.101323
O O2 0.218949 0.593224 0.155959
O O3 0.325113 0.678017 0.959907
O O4 0.258499 0.472675 0.983045
O O5 0.443724 0.317137 0.707883
O O6 0.314964 0.366176 0.808209
O O7 0.427475 0.523148 0.751854
O O8 0.404273 0.821319 0.797254
O O9 0.473073 0.668868 0.869349
O O10 0.411774 0.830929 0.018543
O O11 0.983081 0.652443 0.859347
O O12 0.250000 0.750000 0.500000
O O13 0.170746 0.643187 0.373542
O O14 0.896722 0.520481 0.693553
O O15 0.500000 0.000000 0.000000
#
# Coordination Sequence:
#
# PCOD9298656 Si02
#       8
#     8   8   8   4   8   8   8   4
#     4  11  24  46  71 101 138 188 238 296 367 433
#     4  10  24  45  68 107 138 183 237 296 356 443
#     4  12  24  46  72 103 143 194 238 300 374 423
#     4  11  24  43  70  96 142 179 242 287 358 428
#     4  11  26  42  72 101 139 182 237 300 370 428
#     4  11  27  44  68 103 139 185 247 299 354 441
#     4  12  26  45  70 103 145 193 237 297 366 434
#     4  11  24  43  72 104 144 183 242 297 352 454
#
# _framework density 22.255130999999999
#
# number of rings (size 3 to 8) (size 9 to 14) (size 15 to 20)
#    0.000    0.857    2.857    3.000    6.000    1.714 
#    0.000    0.000    0.000    0.000    0.000    0.000 
#    0.000    0.000    0.000    0.000    0.000    0.000 
#
# Total GULP energy -156148.532414 kJ/mol
# GULP energy per Si atom -5576.733300 kJ/mol
# Density = 2.220448 g / cm^3
# Si number density = 22.255131 Si / 1000 Ang^3
#
#
#
# Elastic Constant Matrix: (Units=GPa)
#
#
# Indices 1 2 3 4 5 6 
#
# 1 63.3289 29.0842 27.4010 0.0000 13.7312 0.0000
# 2 29.0842 113.9393 60.8564 0.0000 9.3253 0.0000
# 3 27.4010 60.8564 91.8004 0.0000 12.2875 0.0000
# 4 0.0000 0.0000 0.0000 39.3232 0.0000 3.7784
# 5 13.7312 9.3253 12.2875 0.0000 53.5762 0.0000
# 6 0.0000 0.0000 0.0000 3.7784 0.0000 10.1875
#
#
#
# Elastic Compliance Matrix: (Units=1/GPa)
#
#
# Indices 1 2 3 4 5 6 
#
# 1 0.019362 -0.002814 -0.003420 0.000000 -0.003688 0.000000
# 2 -0.002814 0.014001 -0.008472 0.000000 0.000227 0.000000
# 3 -0.003420 -0.008472 0.017761 0.000000 -0.001722 0.000000
# 4 0.000000 0.000000 0.000000 0.026370 0.000000 -0.009780
# 5 -0.003688 0.000227 -0.001722 0.000000 0.019966 0.000000
# 6 0.000000 0.000000 0.000000 -0.009780 0.000000 0.101787
#
#
# Mechanical properties :
#
#
# Convention : Reuss Voigt Hill
#
# Bulk Modulus (GPa) = 46.05757 55.97241 51.01499
# Shear Modulus (GPa) = 21.19555 30.73251 25.96403
#
# Velocity S-wave (km/s) = 3.08943 3.72010 3.41934
# Velocity P-wave (km/s) = 5.78500 6.60736 6.20981
#
# Compressibility (1/GPa) = 0.02171196
#
# Stress axis : x y z
#
# Youngs Moduli (GPa) = 51.64636 71.42108 56.30245
#
# Poissons Ratio (x) = 0.20096 0.19258
# Poissons Ratio (y) = 0.14532 0.47702
# Poissons Ratio (z) = 0.17665 0.60511
#
# Static dielectric constant tensor:
#      x y z
#    x 1.875630 0.000000 0.014220 
#    y 0.000000 1.859700 0.000000 
#    z 0.014220 0.000000 1.851240 
# 
# From -- ./inp_files/111602.got.cif
#   From: 2010.05.17/outbox.cif.g08.bks.cpg/sg15_56_cif.got.tgz:111602.got - 2010.06.03 18:47:42.
