data_PCOD9298334
_publ_section_title
;
Structure prediction by ZEFSAII (Michael W. Deem and Ramdas Pophale) SiO2 
 PCOD9298334
Probable space group: C 2/C
;
_chemical_formula_sum "Si O2"
_cell_formula_units_Z 56
_cell_length_a 14.375260
_cell_length_b 20.239056
_cell_length_c 13.843213
_cell_angle_alpha 90.000000
_cell_angle_beta 41.406221
_cell_angle_gamma 90.000000
_cell_volume 2663.806393
_symmetry_space_group_name_H-M "C 2/C"
_symmetry_group_IT_number 15
_symmetry_cell_setting 'monoclinic'
loop_
_space_group_symop_operation_xyz
x,y,z
-x,y,1/2-z
-x,-y,-z
x,-y,1/2+z
1/2+x,1/2+y,z
1/2-x,1/2+y,1/2-z
1/2-x,1/2-y,-z
1/2+x,1/2-y,1/2+z
loop_
_atom_site_type_symbol
_atom_site_label
_atom_site_fract_x
_atom_site_fract_y
_atom_site_fract_z
Si Si1 0.276095 0.978120 0.410727
Si Si2 0.553134 0.841794 0.912958
Si Si3 0.593695 0.773083 0.085279
Si Si4 0.539616 0.977932 0.574367
Si Si5 0.451619 0.623062 0.397200
Si Si6 0.842916 0.101562 0.097614
Si Si7 0.096973 0.775635 0.082882
O O1 0.321441 0.994139 0.484734
O O2 0.413387 0.992835 0.238514
O O3 0.175494 0.034709 0.447973
O O4 0.203554 0.906908 0.464569
O O5 0.451723 0.899407 0.948982
O O6 0.699905 0.868863 0.755999
O O7 0.487010 0.777065 0.917040
O O8 0.579648 0.824177 0.006211
O O9 0.500000 0.795604 0.250000
O O10 0.534541 0.701679 0.098166
O O11 0.750000 0.750000 0.000000
O O12 0.500000 0.000000 0.500000
O O13 0.500000 0.609618 0.250000
O O14 0.552046 0.590061 0.396586
O O15 0.889726 0.158228 0.988504
O O16 0.000000 0.787305 0.250000
O O17 0.250000 0.750000 0.000000
#
# Coordination Sequence:
#
# PCOD9298334 Si02
#       7
#     8   8   8   8   8   8   8
#     4  10  24  44  68  96 134 171 233 281 338 413
#     4  11  23  44  71  94 139 178 228 281 341 415
#     4  11  25  42  67 102 137 180 226 277 341 410
#     4  10  24  44  67  96 129 181 222 283 346 402
#     4  11  24  43  70  96 138 178 221 281 347 406
#     4  11  23  46  67  99 133 180 226 282 351 405
#     4  12  24  41  68  98 134 178 225 282 338 403
#
# _framework density 21.022548
#
# number of rings (size 3 to 8) (size 9 to 14) (size 15 to 20)
#    0.000    1.143    2.857    3.000    8.000    1.714 
#    5.143    0.000    0.000    0.000    0.000    0.000 
#    0.000    0.000    0.000    0.000    0.000    0.000 
#
# Total GULP energy -156219.565855 kJ/mol
# GULP energy per Si atom -5579.270209 kJ/mol
# Density = 2.097470 g / cm^3
# Si number density = 21.022548 Si / 1000 Ang^3
#
#
#
# Elastic Constant Matrix: (Units=GPa)
#
#
# Indices 1 2 3 4 5 6 
#
# 1 124.3019 -5.0503 27.4785 0.0013 9.8213 -0.0004
# 2 -5.0503 51.4981 20.9244 0.0010 8.5557 -0.0004
# 3 27.4785 20.9244 72.4318 0.0017 20.9514 -0.0008
# 4 0.0013 0.0010 0.0017 22.9351 -0.0014 -3.7533
# 5 9.8213 8.5557 20.9514 -0.0014 29.0412 0.0005
# 6 -0.0004 -0.0004 -0.0008 -3.7533 0.0005 9.4279
#
#
#
# Elastic Compliance Matrix: (Units=1/GPa)
#
#
# Indices 1 2 3 4 5 6 
#
# 1 0.009101 0.002658 -0.003922 0.000000 -0.001031 0.000000
# 2 0.002658 0.022909 -0.006842 -0.000001 -0.002712 0.000000
# 3 -0.003922 -0.006842 0.020603 -0.000002 -0.011522 0.000001
# 4 0.000000 -0.000001 -0.000002 0.046640 0.000003 0.018568
# 5 -0.001031 -0.002712 -0.011522 0.000003 0.043894 -0.000002
# 6 0.000000 0.000000 0.000001 0.018568 -0.000002 0.113460
#
#
# Mechanical properties :
#
#
# Convention : Reuss Voigt Hill
#
# Bulk Modulus (GPa) = 27.47179 37.21524 32.34352
# Shear Modulus (GPa) = 17.54661 25.93945 21.74303
#
# Velocity S-wave (km/s) = 2.89218 3.51648 3.21950
# Velocity P-wave (km/s) = 4.92433 5.85051 5.40729
#
# Compressibility (1/GPa) = 0.03640098
#
# Stress axis : x y z
#
# Youngs Moduli (GPa) = 109.87260 43.65034 48.53572
#
# Poissons Ratio (x) = -0.11600 0.19037
# Poissons Ratio (y) = -0.29199 0.33208
# Poissons Ratio (z) = 0.43095 0.29865
#
# Static dielectric constant tensor:
#      x y z
#    x 1.574580 -0.000070 -0.063030 
#    y -0.000070 2.063370 -0.000030 
#    z -0.063030 -0.000030 1.766450 
# 
# From -- ./inp_files/156161.got.cif
#   From: 2010.05.17/outbox.cif.g08.bks.cpg/sg15_79_cif.got.tgz:156161.got - 2010.06.03 18:47:42.
