data_PCOD9298911
_publ_section_title
;
Structure prediction by ZEFSAII (Michael W. Deem and Ramdas Pophale) SiO2 
 PCOD9298911
Probable space group: C 2/C
;
_chemical_formula_sum "Si O2"
_cell_formula_units_Z 60
_cell_length_a 18.595323
_cell_length_b 6.529572
_cell_length_c 21.385978
_cell_angle_alpha 90.000000
_cell_angle_beta 77.413377
_cell_angle_gamma 90.000000
_cell_volume 2534.270608
_symmetry_space_group_name_H-M "C 2/C"
_symmetry_group_IT_number 15
_symmetry_cell_setting 'monoclinic'
loop_
_space_group_symop_operation_xyz
x,y,z
-x,y,1/2-z
-x,-y,-z
x,-y,1/2+z
1/2+x,1/2+y,z
1/2-x,1/2+y,1/2-z
1/2-x,1/2-y,-z
1/2+x,1/2-y,1/2+z
loop_
_atom_site_type_symbol
_atom_site_label
_atom_site_fract_x
_atom_site_fract_y
_atom_site_fract_z
Si Si1 0.165170 0.191895 0.902856
Si Si2 0.391930 0.990904 0.693180
Si Si3 0.149178 0.437232 0.483696
Si Si4 0.500000 0.310845 0.250000
Si Si5 0.824976 0.435139 0.326323
Si Si6 0.300927 0.288695 0.404522
Si Si7 0.421414 0.394790 0.868292
Si Si8 0.944801 0.808883 0.582867
O O1 0.144070 0.347501 0.851791
O O2 0.154938 0.323719 0.967853
O O3 0.249191 0.133158 0.872958
O O4 0.110119 0.000850 0.910695
O O5 0.333481 0.094726 0.751000
O O6 0.430265 0.172370 0.647534
O O7 0.446419 0.844162 0.722244
O O8 0.215640 0.333175 0.431154
O O9 0.168227 0.368353 0.549417
O O10 0.074276 0.336568 0.472153
O O11 0.538703 0.461626 0.191573
O O12 0.821201 0.679154 0.336671
O O13 0.894772 0.319499 0.343540
O O14 0.346232 0.494110 0.401662
O O15 0.472735 0.380194 0.919483
#
# Coordination Sequence:
#
# PCOD9298911 Si02
#       8
#     8   8   8   4   8   8   8   8
#     4  11  24  42  66  98 133 178 219 276 333 392
#     4  11  25  39  66  96 135 177 217 271 331 404
#     4  10  24  46  69  96 133 175 226 280 327 391
#     4  12  22  44  66  94 142 174 216 274 336 408
#     4  12  25  40  67 100 134 171 230 270 330 400
#     4  11  24  44  70  99 131 174 229 276 327 392
#     4  12  25  42  67 100 132 178 217 273 334 399
#     4  11  24  44  66  96 138 175 216 271 342 391
#
# _framework density 23.675452
#
# number of rings (size 3 to 8) (size 9 to 14) (size 15 to 20)
#    0.000    0.800    5.333    1.600    1.867    2.133 
#    0.000    1.333    0.000    0.000    0.000    0.000 
#    0.000    0.000    0.000    0.000    0.000    0.000 
#
# Total GULP energy -167853.783219 kJ/mol
# GULP energy per Si atom -5595.126107 kJ/mol
# Density = 2.362157 g / cm^3
# Si number density = 23.675452 Si / 1000 Ang^3
#
#
#
# Elastic Constant Matrix: (Units=GPa)
#
#
# Indices 1 2 3 4 5 6 
#
# 1 43.5771 18.3951 9.6844 0.0000 11.6225 0.0000
# 2 18.3951 82.7387 6.9608 0.0000 -2.7497 0.0000
# 3 9.6844 6.9608 29.8703 0.0000 4.7521 0.0000
# 4 0.0000 0.0000 0.0000 24.2932 0.0000 5.9825
# 5 11.6225 -2.7497 4.7521 0.0000 17.8532 0.0000
# 6 0.0000 0.0000 0.0000 5.9825 0.0000 36.8613
#
#
#
# Elastic Compliance Matrix: (Units=1/GPa)
#
#
# Indices 1 2 3 4 5 6 
#
# 1 0.033039 -0.007581 -0.005574 0.000000 -0.021192 0.000000
# 2 -0.007581 0.014201 -0.002072 0.000000 0.007674 0.000000
# 3 -0.005574 -0.002072 0.036800 0.000000 -0.006486 0.000000
# 4 0.000000 0.000000 0.000000 0.042878 0.000000 -0.006959
# 5 -0.021192 0.007674 -0.006486 0.000000 0.072717 0.000000
# 6 0.000000 0.000000 0.000000 -0.006959 0.000000 0.028258
#
#
# Mechanical properties :
#
#
# Convention : Reuss Voigt Hill
#
# Bulk Modulus (GPa) = 18.66151 25.14075 21.90113
# Shear Modulus (GPa) = 18.10228 23.87791 20.99010
#
# Velocity S-wave (km/s) = 2.76814 3.17922 2.98077
# Velocity P-wave (km/s) = 4.25631 4.91106 4.59536
#
# Compressibility (1/GPa) = 0.05358624
#
# Stress axis : x y z
#
# Youngs Moduli (GPa) = 30.26743 70.41722 27.17402
#
# Poissons Ratio (x) = 0.53382 0.15145
# Poissons Ratio (y) = 0.22945 0.05632
# Poissons Ratio (z) = 0.16870 0.14593
#
# Static dielectric constant tensor:
#      x y z
#    x 1.893830 0.000000 -0.010590 
#    y 0.000000 1.948840 0.000000 
#    z -0.010590 0.000000 1.864920 
# 
# From -- ./inp_files/278951.got.cif
#   From: 2010.05.17/outbox.cif.g08.bks.cpg/sg15_140_cif.got.tgz:278951.got - 2010.06.03 18:47:42.
