data_PCOD9298416
_publ_section_title
;
Structure prediction by ZEFSAII (Michael W. Deem and Ramdas Pophale) SiO2 
 PCOD9298416
Probable space group: C 2/C
;
_chemical_formula_sum "Si O2"
_cell_formula_units_Z 48
_cell_length_a 30.382823
_cell_length_b 8.194143
_cell_length_c 19.103428
_cell_angle_alpha 90.000000
_cell_angle_beta 151.198334
_cell_angle_gamma 90.000000
_cell_volume 2291.347580
_symmetry_space_group_name_H-M "C 2/C"
_symmetry_group_IT_number 15
_symmetry_cell_setting 'monoclinic'
loop_
_space_group_symop_operation_xyz
x,y,z
-x,y,1/2-z
-x,-y,-z
x,-y,1/2+z
1/2+x,1/2+y,z
1/2-x,1/2+y,1/2-z
1/2-x,1/2-y,-z
1/2+x,1/2-y,1/2+z
loop_
_atom_site_type_symbol
_atom_site_label
_atom_site_fract_x
_atom_site_fract_y
_atom_site_fract_z
Si Si1 0.333316 0.173273 0.878656
Si Si2 0.354454 0.207163 0.164281
Si Si3 0.594047 0.603962 0.421878
Si Si4 0.604919 0.959057 0.405337
Si Si5 0.270101 0.917588 0.679680
Si Si6 0.015052 0.941924 0.440847
O O1 0.248332 0.263283 0.796723
O O2 0.299992 0.065630 0.768947
O O3 0.375492 0.059937 0.997634
O O4 0.407309 0.302785 0.955242
O O5 0.376920 0.077401 0.134896
O O6 0.343711 0.116927 0.223512
O O7 0.425445 0.356083 0.279089
O O8 0.250000 0.250000 0.000000
O O9 0.500000 0.573557 0.250000
O O10 0.668755 0.464138 0.510371
O O11 0.558579 0.584842 0.452670
O O12 0.642270 0.774907 0.467469
O O13 0.500000 0.919778 0.250000
O O14 0.000000 0.000000 0.500000
#
# Coordination Sequence:
#
# PCOD9298416 Si02
#       6
#     8   8   8   8   8   8
#     4  11  24  42  69  94 142 174 229 274 350 408
#     4  12  25  42  72 103 138 180 235 285 340 413
#     4  10  24  44  69  96 136 176 230 279 346 410
#     4  11  23  44  69  97 128 183 226 280 343 407
#     4  11  25  41  68 102 135 181 223 287 342 413
#     4  11  27  44  69 101 141 183 225 286 351 411
#
# _framework density 20.948371000000002
#
# number of rings (size 3 to 8) (size 9 to 14) (size 15 to 20)
#    0.000    1.000    3.333    2.000    9.333    5.333 
#    0.000    0.000    0.000    0.000    0.000    0.000 
#    0.000    0.000    0.000    0.000    0.000    0.000 
#
# Total GULP energy -133887.507267 kJ/mol
# GULP energy per Si atom -5578.646136 kJ/mol
# Density = 2.090069 g / cm^3
# Si number density = 20.948371 Si / 1000 Ang^3
#
#
#
# Elastic Constant Matrix: (Units=GPa)
#
#
# Indices 1 2 3 4 5 6 
#
# 1 72.0918 22.0461 12.4220 0.0000 -15.7409 0.0000
# 2 22.0461 73.3981 19.9528 0.0000 -13.7419 0.0000
# 3 12.4220 19.9528 77.0354 0.0000 -12.8808 0.0000
# 4 0.0000 0.0000 0.0000 31.0396 0.0000 -4.6311
# 5 -15.7409 -13.7419 -12.8808 0.0000 19.7545 0.0000
# 6 0.0000 0.0000 0.0000 -4.6311 0.0000 26.4770
#
#
#
# Elastic Compliance Matrix: (Units=1/GPa)
#
#
# Indices 1 2 3 4 5 6 
#
# 1 0.017355 -0.003006 -0.000064 0.000000 0.011696 0.000000
# 2 -0.003006 0.016629 -0.002569 0.000000 0.007498 0.000000
# 3 -0.000064 -0.002569 0.014983 0.000000 0.007931 0.000000
# 4 0.000000 0.000000 0.000000 0.033080 0.000000 0.005786
# 5 0.011696 0.007498 0.007931 0.000000 0.070329 0.000000
# 6 0.000000 0.000000 0.000000 0.005786 0.000000 0.038781
#
#
# Mechanical properties :
#
#
# Convention : Reuss Voigt Hill
#
# Bulk Modulus (GPa) = 26.53214 36.81858 31.67536
# Shear Modulus (GPa) = 23.25604 26.66118 24.95861
#
# Velocity S-wave (km/s) = 3.33552 3.57138 3.45546
# Velocity P-wave (km/s) = 5.24664 5.88390 5.57439
#
# Compressibility (1/GPa) = 0.03769014
#
# Stress axis : x y z
#
# Youngs Moduli (GPa) = 57.61942 60.13521 66.74262
#
# Poissons Ratio (x) = 0.18074 0.00430
# Poissons Ratio (y) = 0.17318 0.17144
# Poissons Ratio (z) = 0.00371 0.15447
#
# Static dielectric constant tensor:
#      x y z
#    x 1.737530 0.000000 -0.004380 
#    y 0.000000 1.763150 0.000000 
#    z -0.004380 0.000000 1.780480 
# 
# From -- ./inp_files/224676.got.cif
#   From: 2010.05.17/outbox.cif.g08.bks.cpg/sg15_113_cif.got.tgz:224676.got - 2010.06.03 18:47:42.
