data_PCOD9298037
_publ_section_title
;
Structure prediction by ZEFSAII (Michael W. Deem and Ramdas Pophale) SiO2 
 PCOD9298037
Probable space group: C 2/C
;
_chemical_formula_sum "Si O2"
_cell_formula_units_Z 40
_cell_length_a 15.982830
_cell_length_b 15.204937
_cell_length_c 10.378356
_cell_angle_alpha 90.000000
_cell_angle_beta 41.794010
_cell_angle_gamma 90.000000
_cell_volume 1680.882647
_symmetry_space_group_name_H-M "C 2/C"
_symmetry_group_IT_number 15
_symmetry_cell_setting 'monoclinic'
loop_
_space_group_symop_operation_xyz
x,y,z
-x,y,1/2-z
-x,-y,-z
x,-y,1/2+z
1/2+x,1/2+y,z
1/2-x,1/2+y,1/2-z
1/2-x,1/2-y,-z
1/2+x,1/2-y,1/2+z
loop_
_atom_site_type_symbol
_atom_site_label
_atom_site_fract_x
_atom_site_fract_y
_atom_site_fract_z
Si Si1 0.291853 0.157093 0.013779
Si Si2 0.352755 0.509040 0.196705
Si Si3 0.625811 0.646716 0.654407
Si Si4 0.146151 0.683671 0.268331
Si Si5 0.620240 0.001767 0.768621
O O1 0.173103 0.098597 0.196007
O O2 0.362916 0.174612 0.067663
O O3 0.250000 0.250000 0.000000
O O4 0.366529 0.087569 0.836319
O O5 0.310171 0.426777 0.332406
O O6 0.254176 0.505320 0.191257
O O7 0.500000 0.500000 0.000000
O O8 0.500000 0.602176 0.750000
O O9 0.708227 0.687484 0.445247
O O10 0.585268 0.727392 0.790665
O O11 0.103227 0.598129 0.238841
O O12 0.500000 0.000000 0.000000
#
# Coordination Sequence:
#
# PCOD9298037 Si02
#       5
#     8   8   8   8   8
#     4  11  24  47  75 108 150 198 255 314 378 451
#     4  11  25  44  74 107 144 189 249 310 373 443
#     4  11  22  44  70 102 145 192 243 302 369 450
#     4  10  24  43  66 103 140 188 244 296 373 439
#     4  11  25  46  72 105 148 194 244 311 380 446
#
# _framework density 23.797021000000001
#
# number of rings (size 3 to 8) (size 9 to 14) (size 15 to 20)
#    0.000    1.200    2.000    3.600    0.000    9.600 
#    0.000    6.000    0.000    0.000    0.000    0.000 
#    0.000    0.000    0.000    0.000    0.000    0.000 
#
# Total GULP energy -111555.810588 kJ/mol
# GULP energy per Si atom -5577.790529 kJ/mol
# Density = 2.374286 g / cm^3
# Si number density = 23.797021 Si / 1000 Ang^3
#
#
#
# Elastic Constant Matrix: (Units=GPa)
#
#
# Indices 1 2 3 4 5 6 
#
# 1 105.4808 43.9556 42.6006 0.0000 12.3252 0.0000
# 2 43.9556 194.1570 38.9881 0.0000 34.7629 0.0000
# 3 42.6006 38.9881 130.5446 0.0000 3.1960 0.0000
# 4 0.0000 0.0000 0.0000 37.5270 0.0000 24.9424
# 5 12.3252 34.7629 3.1960 0.0000 41.5908 0.0000
# 6 0.0000 0.0000 0.0000 24.9424 0.0000 37.5280
#
#
#
# Elastic Compliance Matrix: (Units=1/GPa)
#
#
# Indices 1 2 3 4 5 6 
#
# 1 0.011713 -0.001666 -0.003280 0.000000 -0.001826 0.000000
# 2 -0.001666 0.006689 -0.001332 0.000000 -0.004995 0.000000
# 3 -0.003280 -0.001332 0.009094 0.000000 0.001386 0.000000
# 4 0.000000 0.000000 0.000000 0.047734 0.000000 -0.031726
# 5 -0.001826 -0.004995 0.001386 0.000000 0.028654 0.000000
# 6 0.000000 0.000000 0.000000 -0.031726 0.000000 0.047733
#
#
# Mechanical properties :
#
#
# Convention : Reuss Voigt Hill
#
# Bulk Modulus (GPa) = 66.93030 75.69676 71.31353
# Shear Modulus (GPa) = 29.55902 43.63837 36.59870
#
# Velocity S-wave (km/s) = 3.52821 4.28691 3.92593
# Velocity P-wave (km/s) = 6.69210 7.50878 7.11217
#
# Compressibility (1/GPa) = 0.01494092
#
# Stress axis : x y z
#
# Youngs Moduli (GPa) = 85.37710 149.48876 109.95786
#
# Poissons Ratio (x) = 0.24905 0.36065
# Poissons Ratio (y) = 0.14224 0.14645
# Poissons Ratio (z) = 0.28003 0.19910
#
# Static dielectric constant tensor:
#      x y z
#    x 1.890840 0.000000 0.059170 
#    y 0.000000 1.939720 0.000000 
#    z 0.059170 0.000000 2.000720 
# 
# From -- ./inp_files/105147.got.cif
#   From: 2010.05.17/outbox.cif.g08.bks.cpg/sg15_53_cif.got.tgz:105147.got - 2010.06.03 18:47:42.
