data_PCOD9298942
_publ_section_title
;
Structure prediction by ZEFSAII (Michael W. Deem and Ramdas Pophale) SiO2 
 PCOD9298942
Probable space group: C 2/C
;
_chemical_formula_sum "Si O2"
_cell_formula_units_Z 56
_cell_length_a 22.192703
_cell_length_b 8.808506
_cell_length_c 31.007569
_cell_angle_alpha 90.000000
_cell_angle_beta 21.108549
_cell_angle_gamma 90.000000
_cell_volume 2182.964741
_symmetry_space_group_name_H-M "C 2/C"
_symmetry_group_IT_number 15
_symmetry_cell_setting 'monoclinic'
loop_
_space_group_symop_operation_xyz
x,y,z
-x,y,1/2-z
-x,-y,-z
x,-y,1/2+z
1/2+x,1/2+y,z
1/2-x,1/2+y,1/2-z
1/2-x,1/2-y,-z
1/2+x,1/2-y,1/2+z
loop_
_atom_site_type_symbol
_atom_site_label
_atom_site_fract_x
_atom_site_fract_y
_atom_site_fract_z
Si Si1 0.191670 0.874495 0.257450
Si Si2 0.736435 0.477521 0.064147
Si Si3 0.240753 0.638889 0.358103
Si Si4 0.588110 0.663658 0.437411
Si Si5 0.698879 0.648677 0.458891
Si Si6 0.339626 0.615126 0.465783
Si Si7 0.069308 0.641591 0.824524
O O1 0.268211 0.714285 0.191341
O O2 0.994087 0.864082 0.396229
O O3 0.283561 0.901524 0.241599
O O4 0.237164 0.006001 0.192571
O O5 0.715645 0.299067 0.081619
O O6 0.925197 0.514983 0.920746
O O7 0.729961 0.567252 0.113955
O O8 0.608360 0.524610 0.112062
O O9 0.055551 0.709353 0.474527
O O10 0.356929 0.785283 0.268554
O O11 0.500000 0.500000 0.500000
O O12 0.683525 0.671828 0.418888
O O13 0.768951 0.492564 0.431320
O O14 0.250000 0.750000 0.500000
O O15 0.472404 0.705285 0.406007
#
# Coordination Sequence:
#
# PCOD9298942 Si02
#       7
#     8   8   8   8   8   8   8
#     4  12  24  41  68 106 140 175 231 295 371 421
#     4  11  25  45  72  98 144 192 242 289 345 439
#     4  12  24  44  69 106 145 186 232 291 374 421
#     4  12  26  38  66 106 144 177 227 300 364 439
#     4  12  24  44  72 103 140 183 240 298 353 422
#     4  10  24  46  70  98 137 192 236 282 354 426
#     4  11  23  41  69 103 140 183 233 289 358 427
#
# _framework density 25.653185000000001
#
# number of rings (size 3 to 8) (size 9 to 14) (size 15 to 20)
#    0.000    0.571    5.714    2.571    4.000    0.571 
#    0.000    0.000    0.000    0.000    0.000    0.000 
#    0.000    0.000    0.000    0.000    0.000    0.000 
#
# Total GULP energy -156465.197394 kJ/mol
# GULP energy per Si atom -5588.042764 kJ/mol
# Density = 2.559480 g / cm^3
# Si number density = 25.653185 Si / 1000 Ang^3
#
#
#
# Elastic Constant Matrix: (Units=GPa)
#
#
# Indices 1 2 3 4 5 6 
#
# 1 131.1836 31.0084 -3.9343 0.0183 -4.2690 -0.0201
# 2 31.0084 107.2516 2.8130 0.0384 5.1522 -0.0008
# 3 -3.9343 2.8130 48.1364 0.0221 -2.6160 -0.0065
# 4 0.0183 0.0384 0.0221 38.4133 0.0160 4.7109
# 5 -4.2690 5.1522 -2.6160 0.0160 16.5957 0.0124
# 6 -0.0201 -0.0008 -0.0065 4.7109 0.0124 53.4999
#
#
#
# Elastic Compliance Matrix: (Units=1/GPa)
#
#
# Indices 1 2 3 4 5 6 
#
# 1 0.008368 -0.002595 0.001005 -0.000004 0.003117 0.000003
# 2 -0.002595 0.010295 -0.001033 -0.000007 -0.004026 0.000001
# 3 0.001005 -0.001033 0.021129 -0.000014 0.003910 0.000003
# 4 -0.000004 -0.000007 -0.000014 0.026317 -0.000025 -0.002317
# 5 0.003117 -0.004026 0.003910 -0.000025 0.062925 -0.000011
# 6 0.000003 0.000001 0.000003 -0.002317 -0.000011 0.018896
#
#
# Mechanical properties :
#
#
# Convention : Reuss Voigt Hill
#
# Bulk Modulus (GPa) = 28.94689 38.48287 33.71488
# Shear Modulus (GPa) = 30.35996 38.81407 34.58702
#
# Velocity S-wave (km/s) = 3.44390 3.89399 3.67584
# Velocity P-wave (km/s) = 5.20792 5.93728 5.58452
#
# Compressibility (1/GPa) = 0.03454602
#
# Stress axis : x y z
#
# Youngs Moduli (GPa) = 119.50342 97.13680 47.32775
#
# Poissons Ratio (x) = 0.25211 -0.04756
# Poissons Ratio (y) = 0.31016 0.04887
# Poissons Ratio (z) = -0.12010 0.10030
#
# Static dielectric constant tensor:
#      x y z
#    x 2.149300 0.000040 -0.101080 
#    y 0.000040 2.208560 0.000020 
#    z -0.101080 0.000020 2.205980 
# 
# From -- ./inp_files/317475.got.cif
#   From: 2010.05.17/outbox.cif.g08.bks.cpg/sg15_159_cif.got.tgz:317475.got - 2010.06.03 18:47:42.
