data_PCOD9298815
_publ_section_title
;
Structure prediction by ZEFSAII (Michael W. Deem and Ramdas Pophale) SiO2 
 PCOD9298815
Probable space group: C 2/C
;
_chemical_formula_sum "Si O2"
_cell_formula_units_Z 56
_cell_length_a 16.465479
_cell_length_b 7.847588
_cell_length_c 23.504745
_cell_angle_alpha 90.000000
_cell_angle_beta 132.062929
_cell_angle_gamma 90.000000
_cell_volume 2254.808194
_symmetry_space_group_name_H-M "C 2/C"
_symmetry_group_IT_number 15
_symmetry_cell_setting 'monoclinic'
loop_
_space_group_symop_operation_xyz
x,y,z
-x,y,1/2-z
-x,-y,-z
x,-y,1/2+z
1/2+x,1/2+y,z
1/2-x,1/2+y,1/2-z
1/2-x,1/2-y,-z
1/2+x,1/2-y,1/2+z
loop_
_atom_site_type_symbol
_atom_site_label
_atom_site_fract_x
_atom_site_fract_y
_atom_site_fract_z
Si Si1 0.820679 0.194483 0.588056
Si Si2 0.686697 0.181418 0.166019
Si Si3 0.524276 0.353991 0.434232
Si Si4 0.518419 0.710514 0.089703
Si Si5 0.589088 0.412110 0.742960
Si Si6 0.127481 0.493585 0.027591
Si Si7 0.219656 0.727273 0.306491
O O1 0.750000 0.250000 0.500000
O O2 0.755611 0.021604 0.572134
O O3 0.814594 0.305331 0.643190
O O4 0.937273 0.174575 0.613293
O O5 0.808922 0.218326 0.202791
O O6 0.632425 0.055540 0.094704
O O7 0.605666 0.339511 0.124350
O O8 0.686333 0.127634 0.232706
O O9 0.546705 0.544673 0.465385
O O10 0.577593 0.195507 0.493086
O O11 0.526291 0.661997 0.159402
O O12 0.442762 0.872113 0.040865
O O13 0.647649 0.724285 0.134141
O O14 0.500000 0.433148 0.750000
O O15 0.660344 0.587312 0.769784
#
# Coordination Sequence:
#
# PCOD9298815 Si02
#       7
#     8   8   8   8   8   8   8
#     4  10  24  45  77 112 155 203 258 318 389 456
#     4  11  24  41  74 112 149 203 252 312 386 455
#     4  11  24  48  75 114 152 205 254 319 392 452
#     4  11  26  44  78 115 150 202 268 317 388 473
#     4  11  23  48  76 109 156 206 255 324 393 456
#     4  11  25  46  74 111 159 200 252 328 383 455
#     4  11  23  44  73 112 152 197 263 314 379 473
#
# _framework density 24.835816999999999
#
# number of rings (size 3 to 8) (size 9 to 14) (size 15 to 20)
#    0.000    1.143    2.857    2.143    4.000    1.143 
#    0.000    1.429    0.000    2.571    0.000    0.000 
#    0.000    0.000    0.000    0.000    0.000    0.000 
#
# Total GULP energy -156021.097424 kJ/mol
# GULP energy per Si atom -5572.182051 kJ/mol
# Density = 2.477929 g / cm^3
# Si number density = 24.835817 Si / 1000 Ang^3
#
#
#
# Elastic Constant Matrix: (Units=GPa)
#
#
# Indices 1 2 3 4 5 6 
#
# 1 166.2541 36.6886 55.3018 0.0000 -7.1015 0.0000
# 2 36.6886 110.6587 57.4646 0.0000 4.3421 0.0000
# 3 55.3018 57.4646 166.0874 0.0000 -27.4459 0.0000
# 4 0.0000 0.0000 0.0000 33.3427 0.0000 -1.4203
# 5 -7.1015 4.3421 -27.4459 0.0000 49.4687 0.0000
# 6 0.0000 0.0000 0.0000 -1.4203 0.0000 32.5974
#
#
#
# Elastic Compliance Matrix: (Units=1/GPa)
#
#
# Indices 1 2 3 4 5 6 
#
# 1 0.006923 -0.001355 -0.001820 0.000000 0.000103 0.000000
# 2 -0.001355 0.011824 -0.004231 0.000000 -0.003580 0.000000
# 3 -0.001820 -0.004231 0.008928 0.000000 0.005063 0.000000
# 4 0.000000 0.000000 0.000000 0.030047 0.000000 0.001309
# 5 0.000103 -0.003580 0.005063 0.000000 0.023353 0.000000
# 6 0.000000 0.000000 0.000000 0.001309 0.000000 0.030734
#
#
# Mechanical properties :
#
#
# Convention : Reuss Voigt Hill
#
# Bulk Modulus (GPa) = 77.73910 82.43447 80.08678
# Shear Modulus (GPa) = 38.19459 42.65144 40.42302
#
# Velocity S-wave (km/s) = 3.92584 4.14857 4.03874
# Velocity P-wave (km/s) = 7.20547 7.49742 7.35289
#
# Compressibility (1/GPa) = 0.01286354
#
# Stress axis : x y z
#
# Youngs Moduli (GPa) = 144.43604 84.57542 112.01317
#
# Poissons Ratio (x) = 0.11457 0.20381
# Poissons Ratio (y) = 0.19566 0.47398
# Poissons Ratio (z) = 0.26281 0.35788
#
# Static dielectric constant tensor:
#      x y z
#    x 2.074980 0.000000 -0.008150 
#    y 0.000000 2.076050 0.000000 
#    z -0.008150 0.000000 2.073560 
# 
# From -- ./inp_files/273272.got.cif
#   From: 2010.05.17/outbox.cif.g08.bks.cpg/sg15_137_cif.got.tgz:273272.got - 2010.06.03 18:47:42.
