data_PCOD9298309
_publ_section_title
;
Structure prediction by ZEFSAII (Michael W. Deem and Ramdas Pophale) SiO2 
 PCOD9298309
Probable space group: C 2/C
;
_chemical_formula_sum "Si O2"
_cell_formula_units_Z 64
_cell_length_a 25.447896
_cell_length_b 10.685730
_cell_length_c 13.191628
_cell_angle_alpha 90.000000
_cell_angle_beta 66.434539
_cell_angle_gamma 90.000000
_cell_volume 3288.033055
_symmetry_space_group_name_H-M "C 2/C"
_symmetry_group_IT_number 15
_symmetry_cell_setting 'monoclinic'
loop_
_space_group_symop_operation_xyz
x,y,z
-x,y,1/2-z
-x,-y,-z
x,-y,1/2+z
1/2+x,1/2+y,z
1/2-x,1/2+y,1/2-z
1/2-x,1/2-y,-z
1/2+x,1/2-y,1/2+z
loop_
_atom_site_type_symbol
_atom_site_label
_atom_site_fract_x
_atom_site_fract_y
_atom_site_fract_z
Si Si1 0.227528 0.612262 0.394380
Si Si2 0.384562 0.450654 0.452643
Si Si3 0.440459 0.488157 0.106041
Si Si4 0.744798 0.602061 0.500441
Si Si5 0.675476 0.808966 0.152632
Si Si6 0.338942 0.067399 0.254012
Si Si7 0.562075 0.328852 0.712842
Si Si8 0.935178 0.753628 0.266547
O O1 0.240740 0.465774 0.404379
O O2 0.282803 0.701379 0.334140
O O3 0.205200 0.648257 0.524136
O O4 0.182537 0.620735 0.337246
O O5 0.390064 0.489356 0.564795
O O6 0.318211 0.451923 0.474294
O O7 0.425974 0.553412 0.369123
O O8 0.407377 0.319791 0.387934
O O9 0.436893 0.607898 0.179455
O O10 0.437617 0.362981 0.177338
O O11 0.500000 0.500000 0.000000
O O12 0.750000 0.750000 0.500000
O O13 0.787617 0.577387 0.374749
O O14 0.615446 0.758130 0.159276
O O15 0.657282 0.916342 0.246696
O O16 0.393966 0.143374 0.255407
O O17 0.500000 0.269513 0.750000
O O18 0.000000 0.717751 0.250000
#
# Coordination Sequence:
#
# PCOD9298309 Si02
#       8
#     8   8   8   8   8   8   8   8
#     4  10  24  44  66  91 131 170 219 271 324 389
#     4  11  21  38  63  95 129 166 212 272 327 381
#     4  11  21  36  65  99 124 170 216 267 331 383
#     4  11  23  40  65  97 131 165 212 276 327 385
#     4  10  24  45  62  93 133 173 215 271 323 393
#     4  11  26  40  66  95 126 175 216 262 333 401
#     4  11  22  38  64  94 128 168 219 266 313 387
#     4  11  23  41  62  93 136 167 217 276 328 394
#
# _framework density 19.464524000000001
#
# number of rings (size 3 to 8) (size 9 to 14) (size 15 to 20)
#    0.000    1.250    5.000    0.750    5.250    0.500 
#    0.000    0.000    0.000    4.500    0.000    0.000 
#    0.000    0.000    0.000    0.000    0.000    0.000 
#
# Total GULP energy -178139.469425 kJ/mol
# GULP energy per Si atom -5566.858420 kJ/mol
# Density = 1.942022 g / cm^3
# Si number density = 19.464524 Si / 1000 Ang^3
#
#
#
# Elastic Constant Matrix: (Units=GPa)
#
#
# Indices 1 2 3 4 5 6 
#
# 1 132.7270 29.8977 17.6530 0.0000 10.2513 0.0000
# 2 29.8977 80.6622 4.6075 0.0000 7.2893 0.0000
# 3 17.6530 4.6075 45.7724 0.0000 9.3335 0.0000
# 4 0.0000 0.0000 0.0000 6.1680 0.0000 -2.3743
# 5 10.2513 7.2893 9.3335 0.0000 35.9707 0.0000
# 6 0.0000 0.0000 0.0000 -2.3743 0.0000 18.8616
#
#
#
# Elastic Compliance Matrix: (Units=1/GPa)
#
#
# Indices 1 2 3 4 5 6 
#
# 1 0.008660 -0.002946 -0.002810 0.000000 -0.001142 0.000000
# 2 -0.002946 0.013658 0.000163 0.000000 -0.001970 0.000000
# 3 -0.002810 0.000163 0.024030 0.000000 -0.005467 0.000000
# 4 0.000000 0.000000 0.000000 0.170384 0.000000 0.021448
# 5 -0.001142 -0.001970 -0.005467 0.000000 0.029944 0.000000
# 6 0.000000 0.000000 0.000000 0.021448 0.000000 0.055718
#
#
# Mechanical properties :
#
#
# Convention : Reuss Voigt Hill
#
# Bulk Modulus (GPa) = 28.44082 40.38646 34.41364
# Shear Modulus (GPa) = 15.37041 26.00027 20.68534
#
# Velocity S-wave (km/s) = 2.81314 3.65879 3.26348
# Velocity P-wave (km/s) = 5.01947 6.21634 5.64968
#
# Compressibility (1/GPa) = 0.03516073
#
# Stress axis : x y z
#
# Youngs Moduli (GPa) = 115.47508 73.21654 41.61544
#
# Poissons Ratio (x) = 0.21570 0.11696
# Poissons Ratio (y) = 0.34020 -0.00679
# Poissons Ratio (z) = 0.32454 -0.01195
#
# Static dielectric constant tensor:
#      x y z
#    x 1.626110 0.000000 -0.022150 
#    y 0.000000 2.091740 0.000000 
#    z -0.022150 0.000000 1.726980 
# 
# From -- ./inp_files/118010.got.cif
#   From: 2010.05.17/outbox.cif.g08.bks.cpg/sg15_60_cif.got.tgz:118010.got - 2010.06.03 18:47:42.
