data_PCOD9298566
_publ_section_title
;
Structure prediction by ZEFSAII (Michael W. Deem and Ramdas Pophale) SiO2 
 PCOD9298566
Probable space group: C 2/C
;
_chemical_formula_sum "Si O2"
_cell_formula_units_Z 36
_cell_length_a 22.454125
_cell_length_b 8.070275
_cell_length_c 19.181901
_cell_angle_alpha 90.000000
_cell_angle_beta 24.231684
_cell_angle_gamma 90.000000
_cell_volume 1426.633520
_symmetry_space_group_name_H-M "C 2/C"
_symmetry_group_IT_number 15
_symmetry_cell_setting 'monoclinic'
loop_
_space_group_symop_operation_xyz
x,y,z
-x,y,1/2-z
-x,-y,-z
x,-y,1/2+z
1/2+x,1/2+y,z
1/2-x,1/2+y,1/2-z
1/2-x,1/2-y,-z
1/2+x,1/2-y,1/2+z
loop_
_atom_site_type_symbol
_atom_site_label
_atom_site_fract_x
_atom_site_fract_y
_atom_site_fract_z
Si Si1 0.500000 0.306639 0.750000
Si Si2 0.301331 0.256948 0.854561
Si Si3 0.664956 0.447296 0.814712
Si Si4 0.185069 0.748743 0.922696
Si Si5 0.094522 0.386695 0.719944
O O1 0.401907 0.384697 0.792585
O O2 0.636598 0.233680 0.558482
O O3 0.318001 0.292550 0.755903
O O4 0.368450 0.078461 0.802706
O O5 0.747997 0.588898 0.685042
O O6 0.717041 0.398493 0.835738
O O7 0.500000 0.500000 0.000000
O O8 0.255419 0.794348 0.921669
O O9 0.016631 0.705792 0.109463
O O10 0.000000 0.386635 0.750000
#
# Coordination Sequence:
#
# PCOD9298566 Si02
#       5
#     4   8   8   8   8
#     4  10  24  44  74 114 140 200 246 310 362 454
#     4  11  25  47  78 111 152 194 258 308 375 453
#     4  12  28  49  77 116 148 204 251 313 386 451
#     4  12  28  50  77 107 157 198 257 315 379 463
#     4  12  27  51  74 114 151 203 249 318 386 453
#
# _framework density 25.234231000000001
#
# number of rings (size 3 to 8) (size 9 to 14) (size 15 to 20)
#    0.000    0.444    3.333    3.333   12.444    1.778 
#    4.000    0.000    0.000    0.000    0.000    0.000 
#    0.000    0.000    0.000    0.000    0.000    0.000 
#
# Total GULP energy -100541.145276 kJ/mol
# GULP energy per Si atom -5585.619182 kJ/mol
# Density = 2.517680 g / cm^3
# Si number density = 25.234231 Si / 1000 Ang^3
#
#
#
# Elastic Constant Matrix: (Units=GPa)
#
#
# Indices 1 2 3 4 5 6 
#
# 1 171.5317 35.8032 47.1842 0.0000 4.8575 0.0000
# 2 35.8032 95.2351 22.5240 0.0011 -3.7156 -0.0003
# 3 47.1842 22.5240 100.0957 0.0007 -21.7381 -0.0002
# 4 0.0000 0.0011 0.0007 25.5393 0.0000 -10.0672
# 5 4.8575 -3.7156 -21.7381 0.0000 49.0892 0.0000
# 6 0.0000 -0.0003 -0.0002 -10.0672 0.0000 41.8996
#
#
#
# Elastic Compliance Matrix: (Units=1/GPa)
#
#
# Indices 1 2 3 4 5 6 
#
# 1 0.007282 -0.002002 -0.003509 0.000000 -0.002426 0.000000
# 2 -0.002002 0.011645 -0.001596 0.000000 0.000373 0.000000
# 3 -0.003509 -0.001596 0.013335 0.000000 0.006132 0.000000
# 4 0.000000 0.000000 0.000000 0.043252 0.000000 0.010392
# 5 -0.002426 0.000373 0.006132 0.000000 0.023355 0.000000
# 6 0.000000 0.000000 0.000000 0.010392 0.000000 0.026363
#
#
# Mechanical properties :
#
#
# Convention : Reuss Voigt Hill
#
# Bulk Modulus (GPa) = 55.40621 64.20948 59.80785
# Shear Modulus (GPa) = 34.37352 40.72905 37.55129
#
# Velocity S-wave (km/s) = 3.69477 4.02187 3.86179
# Velocity P-wave (km/s) = 6.34084 6.86060 6.60584
#
# Compressibility (1/GPa) = 0.01804852
#
# Stress axis : x y z
#
# Youngs Moduli (GPa) = 137.33203 85.87380 74.99019
#
# Poissons Ratio (x) = 0.17194 0.26312
# Poissons Ratio (y) = 0.27498 0.11965
# Poissons Ratio (z) = 0.48186 0.13702
#
# Static dielectric constant tensor:
#      x y z
#    x 2.023790 0.000000 0.001860 
#    y 0.000000 2.218090 0.000000 
#    z 0.001860 0.000000 1.905110 
# 
# From -- ./inp_files/214192.got.cif
#   From: 2010.05.17/outbox.cif.g08.bks.cpg/sg15_108_cif.got.tgz:214192.got - 2010.06.03 18:47:42.
