data_PCOD9298298
_publ_section_title
;
Structure prediction by ZEFSAII (Michael W. Deem and Ramdas Pophale) SiO2 
 PCOD9298298
Probable space group: C 2/C
;
_chemical_formula_sum "Si O2"
_cell_formula_units_Z 52
_cell_length_a 5.904796
_cell_length_b 19.818208
_cell_length_c 23.379066
_cell_angle_alpha 90.000000
_cell_angle_beta 128.431753
_cell_angle_gamma 90.000000
_cell_volume 2143.146140
_symmetry_space_group_name_H-M "C 2/C"
_symmetry_group_IT_number 15
_symmetry_cell_setting 'monoclinic'
loop_
_space_group_symop_operation_xyz
x,y,z
-x,y,1/2-z
-x,-y,-z
x,-y,1/2+z
1/2+x,1/2+y,z
1/2-x,1/2+y,1/2-z
1/2-x,1/2-y,-z
1/2+x,1/2-y,1/2+z
loop_
_atom_site_type_symbol
_atom_site_label
_atom_site_fract_x
_atom_site_fract_y
_atom_site_fract_z
Si Si1 0.540144 0.678516 0.688030
Si Si2 0.003059 0.510655 0.909783
Si Si3 0.722662 0.964469 0.241280
Si Si4 0.477095 0.406683 0.522806
Si Si5 0.655095 0.616771 0.382970
Si Si6 0.252598 0.823966 0.475641
Si Si7 0.000000 0.795846 0.750000
O O1 0.500000 0.688234 0.750000
O O2 0.676871 0.602743 0.709797
O O3 0.293858 0.675447 0.600107
O O4 0.736328 0.742750 0.702794
O O5 0.269390 0.461157 0.938780
O O6 0.951600 0.551858 0.843786
O O7 0.733477 0.463277 0.885919
O O8 0.157583 0.560504 0.978073
O O9 0.500000 0.001709 0.250000
O O10 0.000000 0.995284 0.250000
O O11 0.537702 0.369135 0.591513
O O12 0.499200 0.365029 0.468169
O O13 0.521215 0.654447 0.307799
O O14 0.959258 0.647602 0.449869
O O15 0.250000 0.750000 0.500000
#
# Coordination Sequence:
#
# PCOD9298298 Si02
#       7
#     8   8   8   8   8   8   4
#     4  11  26  45  70 101 144 188 240 313 367 452
#     4  10  24  44  66 103 139 191 251 306 374 454
#     4  11  25  42  71 106 144 194 250 320 379 447
#     4  10  24  44  71  98 143 191 243 308 371 462
#     4  11  26  42  70 100 143 189 240 306 376 460
#     4  11  24  46  68 105 139 185 242 298 379 455
#     4  12  26  44  64 106 142 180 250 296 384 456
#
# _framework density 24.263393000000001
#
# number of rings (size 3 to 8) (size 9 to 14) (size 15 to 20)
#    0.000    1.231    2.308    1.385    9.692    0.615 
#    0.000    0.000    0.000    0.000    0.000    0.000 
#    0.000    0.000    0.000    0.000    0.000    0.000 
#
# Total GULP energy -144809.173643 kJ/mol
# GULP energy per Si atom -5569.583602 kJ/mol
# Density = 2.420817 g / cm^3
# Si number density = 24.263393 Si / 1000 Ang^3
#
#
#
# Elastic Constant Matrix: (Units=GPa)
#
#
# Indices 1 2 3 4 5 6 
#
# 1 68.2601 -6.7881 8.3546 0.0000 -13.5771 0.0000
# 2 -6.7881 50.9610 18.8266 0.0000 0.4260 0.0000
# 3 8.3546 18.8266 170.7609 0.0000 -29.7508 0.0000
# 4 0.0000 0.0000 0.0000 35.1249 0.0000 -10.8996
# 5 -13.5771 0.4260 -29.7508 0.0000 34.1178 0.0000
# 6 0.0000 0.0000 0.0000 -10.8996 0.0000 -1.6707
#
#
#
# Elastic Compliance Matrix: (Units=1/GPa)
#
#
# Indices 1 2 3 4 5 6 
#
# 1 0.016132 0.002052 0.000116 0.000000 0.006495 0.000000
# 2 0.002052 0.020917 -0.002724 0.000000 -0.001820 0.000000
# 3 0.000116 -0.002724 0.007269 0.000000 0.006419 0.000000
# 4 0.000000 0.000000 0.000000 0.009413 0.000000 -0.061411
# 5 0.006495 -0.001820 0.006419 0.000000 0.037515 0.000000
# 6 0.000000 0.000000 0.000000 -0.061411 0.000000 -0.197903
#
#
# Mechanical properties :
#
#
# Convention : Reuss Voigt Hill
#
# Bulk Modulus (GPa) = 23.14471 36.75200 29.94836
# Shear Modulus (GPa) = -54.85877 31.48700 -11.68589
#
# Velocity S-wave (km/s) = -4.76012 3.60629 -2.19698
# Velocity P-wave (km/s) = 4.54445 5.70267 2.43602
#
# Compressibility (1/GPa) = 0.04320642
#
# Stress axis : x y z
#
# Youngs Moduli (GPa) = 61.99032 47.80688 137.56928
#
# Poissons Ratio (x) = -0.09808 -0.01599
# Poissons Ratio (y) = -0.12718 0.37468
# Poissons Ratio (z) = -0.00720 0.13021
#
# Static dielectric constant tensor:
#      x y z
#    x 2.842020 0.000000 -0.050000 
#    y 0.000000 1.970660 0.000000 
#    z -0.050000 0.000000 1.937910 
# 
# From -- ./inp_files/228214.got.cif
#   From: 2010.05.17/outbox.cif.g08.bks.cpg/sg15_115_cif.got.tgz:228214.got - 2010.06.03 18:47:42.
