data_PCOD9298300
_publ_section_title
;
Structure prediction by ZEFSAII (Michael W. Deem and Ramdas Pophale) SiO2 
 PCOD9298300
Probable space group: C 2/C
;
_chemical_formula_sum "Si O2"
_cell_formula_units_Z 36
_cell_length_a 27.840961
_cell_length_b 4.932469
_cell_length_c 9.682875
_cell_angle_alpha 90.000000
_cell_angle_beta 93.514294
_cell_angle_gamma 90.000000
_cell_volume 1327.197235
_symmetry_space_group_name_H-M "C 2/C"
_symmetry_group_IT_number 15
_symmetry_cell_setting 'monoclinic'
loop_
_space_group_symop_operation_xyz
x,y,z
-x,y,1/2-z
-x,-y,-z
x,-y,1/2+z
1/2+x,1/2+y,z
1/2-x,1/2+y,1/2-z
1/2-x,1/2-y,-z
1/2+x,1/2-y,1/2+z
loop_
_atom_site_type_symbol
_atom_site_label
_atom_site_fract_x
_atom_site_fract_y
_atom_site_fract_z
Si Si1 0.160538 0.853810 0.521426
Si Si2 0.781154 0.181254 0.734611
Si Si3 0.500000 0.500000 0.500000
Si Si4 0.929843 0.542231 0.869190
Si Si5 0.922693 0.813324 0.600639
O O1 0.184717 0.025073 0.649542
O O2 0.121494 0.642753 0.575645
O O3 0.196220 0.745280 0.410041
O O4 0.129136 0.065659 0.426665
O O5 0.738994 0.959080 0.704739
O O6 0.528355 0.244129 0.583047
O O7 0.462461 0.535851 0.630671
O O8 0.922667 0.570765 0.706060
O O9 0.941920 0.260378 0.947569
#
# Coordination Sequence:
#
# PCOD9298300 Si02
#       5
#     8   8   4   8   8
#     4  11  26  45  70 108 144 194 244 303 378 445
#     4  12  28  48  76 107 150 195 254 316 378 452
#     4  10  24  44  66 104 140 184 240 292 364 430
#     4  11  25  43  72 103 146 189 242 302 366 449
#     4  11  25  43  72 103 146 189 242 302 366 449
#
# _framework density 27.124831
#
# number of rings (size 3 to 8) (size 9 to 14) (size 15 to 20)
#    0.000    0.889    2.222    2.667    9.333    3.556 
#    0.000    0.000    0.000    0.000    0.000    0.000 
#    0.000    0.000    0.000    0.000    0.000    0.000 
#
# Total GULP energy -100420.205478 kJ/mol
# GULP energy per Si atom -5578.900304 kJ/mol
# Density = 2.706309 g / cm^3
# Si number density = 27.124831 Si / 1000 Ang^3
#
#
#
# Elastic Constant Matrix: (Units=GPa)
#
#
# Indices 1 2 3 4 5 6 
#
# 1 113.5939 6.8930 36.8664 0.0000 -13.2545 0.0000
# 2 6.8930 97.2796 12.2915 0.0000 -8.1016 0.0000
# 3 36.8664 12.2915 126.7601 0.0000 -22.3018 0.0000
# 4 0.0000 0.0000 0.0000 23.5466 0.0000 -1.3193
# 5 -13.2545 -8.1016 -22.3018 0.0000 47.4062 0.0000
# 6 0.0000 0.0000 0.0000 -1.3193 0.0000 29.9188
#
#
#
# Elastic Compliance Matrix: (Units=1/GPa)
#
#
# Indices 1 2 3 4 5 6 
#
# 1 0.009827 -0.000247 -0.002571 0.000000 0.001496 0.000000
# 2 -0.000247 0.010502 -0.000701 0.000000 0.001396 0.000000
# 3 -0.002571 -0.000701 0.009329 0.000000 0.003550 0.000000
# 4 0.000000 0.000000 0.000000 0.042574 0.000000 0.001877
# 5 0.001496 0.001396 0.003550 0.000000 0.023421 0.000000
# 6 0.000000 0.000000 0.000000 0.001877 0.000000 0.033507
#
#
# Mechanical properties :
#
#
# Convention : Reuss Voigt Hill
#
# Bulk Modulus (GPa) = 44.20707 49.97060 47.08883
# Shear Modulus (GPa) = 34.78545 38.94652 36.86599
#
# Velocity S-wave (km/s) = 3.58498 3.79334 3.69063
# Velocity P-wave (km/s) = 5.78525 6.13583 5.96311
#
# Compressibility (1/GPa) = 0.02262082
#
# Stress axis : x y z
#
# Youngs Moduli (GPa) = 101.75818 95.22030 107.18991
#
# Poissons Ratio (x) = 0.02351 0.27558
# Poissons Ratio (y) = 0.02512 0.07513
# Poissons Ratio (z) = 0.26162 0.06674
#
# Static dielectric constant tensor:
#      x y z
#    x 1.014650 0.000000 -0.400240 
#    y 0.000000 1.679010 0.000000 
#    z -0.400240 0.000000 2.025680 
# 
# From -- ./inp_files/115701.got.cif
#   From: 2010.05.17/outbox.cif.g08.bks.cpg/sg15_58_cif.got.tgz:115701.got - 2010.06.03 18:47:42.
