data_PCOD9298462
_publ_section_title
;
Structure prediction by ZEFSAII (Michael W. Deem and Ramdas Pophale) SiO2 
 PCOD9298462
Probable space group: C 2/C
;
_chemical_formula_sum "Si O2"
_cell_formula_units_Z 36
_cell_length_a 9.652474
_cell_length_b 22.310752
_cell_length_c 9.418821
_cell_angle_alpha 90.000000
_cell_angle_beta 120.801014
_cell_angle_gamma 90.000000
_cell_volume 1742.278987
_symmetry_space_group_name_H-M "C 2/C"
_symmetry_group_IT_number 15
_symmetry_cell_setting 'monoclinic'
loop_
_space_group_symop_operation_xyz
x,y,z
-x,y,1/2-z
-x,-y,-z
x,-y,1/2+z
1/2+x,1/2+y,z
1/2-x,1/2+y,1/2-z
1/2-x,1/2-y,-z
1/2+x,1/2-y,1/2+z
loop_
_atom_site_type_symbol
_atom_site_label
_atom_site_fract_x
_atom_site_fract_y
_atom_site_fract_z
Si Si1 0.225591 0.792421 0.622401
Si Si2 0.711167 0.457853 0.224948
Si Si3 0.839511 0.071300 0.480657
Si Si4 0.500000 0.880981 0.250000
Si Si5 0.093934 0.725897 0.999067
O O1 0.250000 0.750000 0.500000
O O2 0.218199 0.861480 0.574675
O O3 0.359034 0.781413 0.812102
O O4 0.053129 0.771865 0.594300
O O5 0.724580 0.452574 0.401598
O O6 0.534700 0.431386 0.092578
O O7 0.849856 0.420943 0.219623
O O8 0.712492 0.525951 0.170360
O O9 0.544862 0.836895 0.403061
O O10 0.250000 0.750000 0.000000
#
# Coordination Sequence:
#
# PCOD9298462 Si02
#       5
#     8   8   8   4   8
#     4  12  26  44  70 101 139 181 228 282 348 410
#     4  10  24  44  70  95 135 181 229 279 340 405
#     4  10  24  46  69  96 135 183 229 276 345 412
#     4  12  24  44  72 102 140 174 234 292 338 402
#     4  12  25  44  68 105 137 183 227 282 349 408
#
# _framework density 20.662590000000002
#
# number of rings (size 3 to 8) (size 9 to 14) (size 15 to 20)
#    0.000    0.889    2.222    3.333    9.333    0.889 
#    8.000    0.000    0.000    0.000    0.000    0.000 
#    0.000    0.000    0.000    0.000    0.000    0.000 
#
# Total GULP energy -100775.165227 kJ/mol
# GULP energy per Si atom -5598.620290 kJ/mol
# Density = 2.061556 g / cm^3
# Si number density = 20.662590 Si / 1000 Ang^3
#
#
#
# Elastic Constant Matrix: (Units=GPa)
#
#
# Indices 1 2 3 4 5 6 
#
# 1 66.8481 41.0405 48.5389 0.0000 -16.8433 0.0000
# 2 41.0405 146.4443 60.4170 0.0000 -4.8551 0.0000
# 3 48.5389 60.4170 120.8160 0.0000 -7.4105 0.0000
# 4 0.0000 0.0000 0.0000 35.8460 0.0000 -8.8083
# 5 -16.8433 -4.8551 -7.4105 0.0000 23.9461 0.0000
# 6 0.0000 0.0000 0.0000 -8.8083 0.0000 34.5104
#
#
#
# Elastic Compliance Matrix: (Units=1/GPa)
#
#
# Indices 1 2 3 4 5 6 
#
# 1 0.027075 -0.003750 -0.008034 0.000000 0.015798 0.000000
# 2 -0.003750 0.009127 -0.003166 0.000000 -0.001767 0.000000
# 3 -0.008034 -0.003166 0.012948 0.000000 -0.002286 0.000000
# 4 0.000000 0.000000 0.000000 0.029764 0.000000 0.007597
# 5 0.015798 -0.001767 -0.002286 0.000000 0.051807 0.000000
# 6 0.000000 0.000000 0.000000 0.007597 0.000000 0.030916
#
#
# Mechanical properties :
#
#
# Convention : Reuss Voigt Hill
#
# Bulk Modulus (GPa) = 51.94498 70.45570 61.20034
# Shear Modulus (GPa) = 25.25870 31.13462 28.19666
#
# Velocity S-wave (km/s) = 3.50013 3.88598 3.69809
# Velocity P-wave (km/s) = 6.44428 7.36930 6.92226
#
# Compressibility (1/GPa) = 0.01925114
#
# Stress axis : x y z
#
# Youngs Moduli (GPa) = 36.93449 109.56529 77.23384
#
# Poissons Ratio (x) = 0.41083 0.62046
# Poissons Ratio (y) = 0.13849 0.24453
# Poissons Ratio (z) = 0.29672 0.34689
#
# Static dielectric constant tensor:
#      x y z
#    x 1.956450 0.000000 0.167410 
#    y 0.000000 1.685760 0.000000 
#    z 0.167410 0.000000 1.867420 
# 
# From -- ./inp_files/23342.got.cif
#   From: 2010.05.17/outbox.cif.g08.bks.cpg/sg15_12_cif.got.tgz:23342.got - 2010.06.03 18:47:42.
