data_PCOD9298841
_publ_section_title
;
Structure prediction by ZEFSAII (Michael W. Deem and Ramdas Pophale) SiO2 
 PCOD9298841
Probable space group: C 2/C
;
_chemical_formula_sum "Si O2"
_cell_formula_units_Z 36
_cell_length_a 26.563739
_cell_length_b 4.795184
_cell_length_c 9.959051
_cell_angle_alpha 90.000000
_cell_angle_beta 92.295899
_cell_angle_gamma 90.000000
_cell_volume 1267.545839
_symmetry_space_group_name_H-M "C 2/C"
_symmetry_group_IT_number 15
_symmetry_cell_setting 'monoclinic'
loop_
_space_group_symop_operation_xyz
x,y,z
-x,y,1/2-z
-x,-y,-z
x,-y,1/2+z
1/2+x,1/2+y,z
1/2-x,1/2+y,1/2-z
1/2-x,1/2-y,-z
1/2+x,1/2-y,1/2+z
loop_
_atom_site_type_symbol
_atom_site_label
_atom_site_fract_x
_atom_site_fract_y
_atom_site_fract_z
Si Si1 0.748171 0.554894 0.335170
Si Si2 0.080718 0.338626 0.385254
Si Si3 0.834166 0.286520 0.520782
Si Si4 0.500000 0.000000 0.000000
Si Si5 0.927753 0.026577 0.374042
O O1 0.748272 0.880609 0.303471
O O2 0.796562 0.464202 0.424432
O O3 0.698783 0.433940 0.400522
O O4 0.133120 0.498898 0.387913
O O5 0.080597 0.084179 0.283881
O O6 0.036057 0.554369 0.366211
O O7 0.063759 0.262597 0.541370
O O8 0.874981 0.126367 0.434854
O O9 0.527527 0.726752 0.079146
#
# Coordination Sequence:
#
# PCOD9298841 Si02
#       5
#     8   8   8   4   8
#     4  11  26  45  75 105 155 204 266 321 388 453
#     4  11  25  45  73 109 147 199 248 322 384 471
#     4  10  26  44  69 108 148 202 256 317 388 461
#     4  10  24  46  66 104 144 192 246 310 376 464
#     4  11  25  43  75 105 149 193 256 313 396 461
#
# _framework density 28.401337000000002
#
# number of rings (size 3 to 8) (size 9 to 14) (size 15 to 20)
#    0.000    1.333    0.000    2.667    9.333   10.667 
#    0.000    0.000    0.000    0.000    0.000    0.000 
#    0.000    0.000    0.000    0.000    0.000    0.000 
#
# Total GULP energy -100604.590228 kJ/mol
# GULP energy per Si atom -5589.143902 kJ/mol
# Density = 2.833669 g / cm^3
# Si number density = 28.401337 Si / 1000 Ang^3
#
#
#
# Elastic Constant Matrix: (Units=GPa)
#
#
# Indices 1 2 3 4 5 6 
#
# 1 181.5453 18.7005 32.4527 0.0000 -1.7256 0.0000
# 2 18.7005 123.1553 33.4064 0.0000 4.5985 0.0000
# 3 32.4527 33.4064 114.6752 0.0000 -6.0119 0.0000
# 4 0.0000 0.0000 0.0000 42.2397 0.0000 -3.2653
# 5 -1.7256 4.5985 -6.0119 0.0000 42.8538 0.0000
# 6 0.0000 0.0000 0.0000 -3.2653 0.0000 36.8650
#
#
#
# Elastic Compliance Matrix: (Units=1/GPa)
#
#
# Indices 1 2 3 4 5 6 
#
# 1 0.005827 -0.000479 -0.001506 0.000000 0.000075 0.000000
# 2 -0.000479 0.008930 -0.002536 0.000000 -0.001333 0.000000
# 3 -0.001506 -0.002536 0.009969 0.000000 0.001610 0.000000
# 4 0.000000 0.000000 0.000000 0.023838 0.000000 0.002111
# 5 0.000075 -0.001333 0.001610 0.000000 0.023707 0.000000
# 6 0.000000 0.000000 0.000000 0.002111 0.000000 0.027313
#
#
# Mechanical properties :
#
#
# Convention : Reuss Voigt Hill
#
# Bulk Modulus (GPa) = 63.75152 65.38832 64.56992
# Shear Modulus (GPa) = 43.91556 46.71278 45.31417
#
# Velocity S-wave (km/s) = 3.93650 4.05994 3.99870
# Velocity P-wave (km/s) = 6.56938 6.71196 6.64105
#
# Compressibility (1/GPa) = 0.01568590
#
# Stress axis : x y z
#
# Youngs Moduli (GPa) = 171.60051 111.97925 100.30616
#
# Poissons Ratio (x) = 0.05367 0.15102
# Poissons Ratio (y) = 0.08224 0.25435
# Poissons Ratio (z) = 0.25836 0.28395
#
# Static dielectric constant tensor:
#      x y z
#    x -5.420380 0.000000 -2.471280 
#    y 0.000000 1.404610 0.000000 
#    z -2.471280 0.000000 1.512230 
# 
# From -- ./inp_files/120588.got.cif
#   From: 2010.05.17/outbox.cif.g08.bks.cpg/sg15_61_cif.got.tgz:120588.got - 2010.06.03 18:47:42.
