data_PCOD9298122
_publ_section_title
;
Structure prediction by ZEFSAII (Michael W. Deem and Ramdas Pophale) SiO2 
 PCOD9298122
Probable space group: C 2/C
;
_chemical_formula_sum "Si O2"
_cell_formula_units_Z 52
_cell_length_a 17.942517
_cell_length_b 6.303617
_cell_length_c 20.638074
_cell_angle_alpha 90.000000
_cell_angle_beta 105.825775
_cell_angle_gamma 90.000000
_cell_volume 2245.745261
_symmetry_space_group_name_H-M "C 2/C"
_symmetry_group_IT_number 15
_symmetry_cell_setting 'monoclinic'
loop_
_space_group_symop_operation_xyz
x,y,z
-x,y,1/2-z
-x,-y,-z
x,-y,1/2+z
1/2+x,1/2+y,z
1/2-x,1/2+y,1/2-z
1/2-x,1/2-y,-z
1/2+x,1/2-y,1/2+z
loop_
_atom_site_type_symbol
_atom_site_label
_atom_site_fract_x
_atom_site_fract_y
_atom_site_fract_z
Si Si1 0.702539 0.814964 0.424568
Si Si2 0.067013 0.998279 0.425393
Si Si3 0.368969 0.205000 0.155610
Si Si4 0.229422 0.069598 0.301017
Si Si5 0.554091 0.799612 0.036272
Si Si6 0.000000 0.429251 0.250000
Si Si7 0.125098 0.661125 0.685780
O O1 0.750000 0.750000 0.500000
O O2 0.625243 0.682357 0.419635
O O3 0.735577 0.730370 0.363564
O O4 0.679441 0.058146 0.405891
O O5 0.065166 0.852141 0.362102
O O6 0.092023 0.826312 0.485793
O O7 0.995405 0.118570 0.439007
O O8 0.309285 0.359105 0.177456
O O9 0.422896 0.050469 0.209607
O O10 0.312761 0.028114 0.289325
O O11 0.171194 0.149531 0.231602
O O12 0.614588 0.858934 0.105971
O O13 0.500000 0.000000 0.000000
O O14 0.038860 0.323634 0.196252
#
# Coordination Sequence:
#
# PCOD9298122 Si02
#       7
#     8   8   8   8   8   4   8
#     4  11  25  45  75 100 146 192 247 301 366 448
#     4  10  24  43  69 108 141 187 250 300 371 437
#     4  11  25  47  73 108 143 193 249 306 376 438
#     4  11  28  47  70 110 149 192 250 300 382 442
#     4  11  25  45  72 108 150 193 250 308 376 442
#     4  12  24  46  76 100 148 192 244 302 366 442
#     4  12  27  47  75 105 152 193 248 309 369 455
#
# _framework density 23.154897999999999
#
# number of rings (size 3 to 8) (size 9 to 14) (size 15 to 20)
#    0.000    0.923    1.538    3.692   10.769    1.231 
#    2.769    0.000    0.000    0.000    0.000    0.000 
#    0.000    0.000    0.000    0.000    0.000    0.000 
#
# Total GULP energy -144932.415601 kJ/mol
# GULP energy per Si atom -5574.323677 kJ/mol
# Density = 2.310220 g / cm^3
# Si number density = 23.154898 Si / 1000 Ang^3
#
#
#
# Elastic Constant Matrix: (Units=GPa)
#
#
# Indices 1 2 3 4 5 6 
#
# 1 97.8192 17.8463 24.7959 0.0000 -19.9968 0.0000
# 2 17.8463 85.6609 31.9439 0.0000 -3.3026 0.0000
# 3 24.7959 31.9439 93.8852 0.0000 14.3637 0.0000
# 4 0.0000 0.0000 0.0000 24.2121 0.0000 -9.3348
# 5 -19.9968 -3.3026 14.3637 0.0000 45.5109 0.0000
# 6 0.0000 0.0000 0.0000 -9.3348 0.0000 39.4265
#
#
#
# Elastic Compliance Matrix: (Units=1/GPa)
#
#
# Indices 1 2 3 4 5 6 
#
# 1 0.012841 -0.000861 -0.004153 0.000000 0.006890 0.000000
# 2 -0.000861 0.013711 -0.004762 0.000000 0.002120 0.000000
# 3 -0.004153 -0.004762 0.014395 0.000000 -0.006714 0.000000
# 4 0.000000 0.000000 0.000000 0.045450 0.000000 0.010761
# 5 0.006890 0.002120 -0.006714 0.000000 0.027273 0.000000
# 6 0.000000 0.000000 0.000000 0.010761 0.000000 0.027912
#
#
# Mechanical properties :
#
#
# Convention : Reuss Voigt Hill
#
# Bulk Modulus (GPa) = 46.73731 47.39306 47.06519
# Shear Modulus (GPa) = 29.71489 35.34850 32.53170
#
# Velocity S-wave (km/s) = 3.58622 3.91142 3.75235
# Velocity P-wave (km/s) = 6.11362 6.39619 6.25650
#
# Compressibility (1/GPa) = 0.02139618
#
# Stress axis : x y z
#
# Youngs Moduli (GPa) = 77.87391 72.93513 69.46666
#
# Poissons Ratio (x) = 0.06280 0.28847
# Poissons Ratio (y) = 0.06705 0.33079
# Poissons Ratio (z) = 0.32339 0.34731
#
# Static dielectric constant tensor:
#      x y z
#    x 1.920670 0.000000 0.176590 
#    y 0.000000 2.532590 0.000000 
#    z 0.176590 0.000000 2.940310 
# 
# From -- ./inp_files/251100.got.cif
#   From: 2010.05.17/outbox.cif.g08.bks.cpg/sg15_126_cif.got.tgz:251100.got - 2010.06.03 18:47:42.
