data_PCOD9298525
_publ_section_title
;
Structure prediction by ZEFSAII (Michael W. Deem and Ramdas Pophale) SiO2 
 PCOD9298525
Probable space group: C 2/C
;
_chemical_formula_sum "Si O2"
_cell_formula_units_Z 52
_cell_length_a 11.023098
_cell_length_b 23.129393
_cell_length_c 14.476875
_cell_angle_alpha 90.000000
_cell_angle_beta 138.015336
_cell_angle_gamma 90.000000
_cell_volume 2469.019306
_symmetry_space_group_name_H-M "C 2/C"
_symmetry_group_IT_number 15
_symmetry_cell_setting 'monoclinic'
loop_
_space_group_symop_operation_xyz
x,y,z
-x,y,1/2-z
-x,-y,-z
x,-y,1/2+z
1/2+x,1/2+y,z
1/2-x,1/2+y,1/2-z
1/2-x,1/2-y,-z
1/2+x,1/2-y,1/2+z
loop_
_atom_site_type_symbol
_atom_site_label
_atom_site_fract_x
_atom_site_fract_y
_atom_site_fract_z
Si Si1 0.670635 0.990323 0.029125
Si Si2 0.697845 0.295228 0.047255
Si Si3 0.000000 0.559231 0.250000
Si Si4 0.798058 0.118090 0.105655
Si Si5 0.072900 0.654193 0.160069
Si Si6 0.287895 0.363156 0.126909
Si Si7 0.315871 0.241422 0.809640
O O1 0.765620 0.932301 0.121065
O O2 0.783309 0.049064 0.094813
O O3 0.604961 0.977520 0.886997
O O4 0.500000 0.000000 0.000000
O O5 0.732051 0.355545 0.013848
O O6 0.485534 0.279425 0.941229
O O7 0.750000 0.250000 0.000000
O O8 0.812010 0.277296 0.200671
O O9 0.875313 0.602001 0.241929
O O10 0.661023 0.140239 0.108844
O O11 0.000000 0.136607 0.250000
O O12 0.145770 0.716324 0.229273
O O13 0.853556 0.652037 0.035130
O O14 0.500000 0.350417 0.250000
O O15 0.204514 0.320314 0.154809
#
# Coordination Sequence:
#
# PCOD9298525 Si02
#       7
#     8   8   4   8   8   8   8
#     4  11  24  47  70  99 142 189 242 300 355 427
#     4  12  23  40  66 104 140 181 235 294 371 426
#     4  10  24  44  72  96 138 192 240 280 372 426
#     4  12  22  44  72  97 140 187 228 302 364 419
#     4  11  23  45  68 100 142 183 228 294 363 434
#     4  11  25  45  68 101 140 187 239 291 356 431
#     4  12  24  43  69 104 146 182 236 301 364 434
#
# _framework density 21.060993
#
# number of rings (size 3 to 8) (size 9 to 14) (size 15 to 20)
#    0.000    0.615    7.692    0.923    1.077    4.308 
#    0.000    0.769    0.000    0.000    0.000    0.000 
#    0.000    0.000    0.000    0.000    0.000    0.000 
#
# Total GULP energy -144944.323304 kJ/mol
# GULP energy per Si atom -5574.781666 kJ/mol
# Density = 2.101306 g / cm^3
# Si number density = 21.060993 Si / 1000 Ang^3
#
#
#
# Elastic Constant Matrix: (Units=GPa)
#
#
# Indices 1 2 3 4 5 6 
#
# 1 72.2649 20.0346 39.1143 0.0000 6.3690 0.0000
# 2 20.0346 116.3655 16.0261 0.0000 -1.6559 0.0000
# 3 39.1143 16.0261 73.3240 -0.0001 4.5431 0.0000
# 4 0.0000 0.0000 -0.0001 33.2359 0.0000 -12.9264
# 5 6.3690 -1.6559 4.5431 0.0000 39.4913 0.0000
# 6 0.0000 0.0000 0.0000 -12.9264 0.0000 41.9527
#
#
#
# Elastic Compliance Matrix: (Units=1/GPa)
#
#
# Indices 1 2 3 4 5 6 
#
# 1 0.020090 -0.002095 -0.010125 0.000000 -0.002163 0.000000
# 2 -0.002095 0.009093 -0.000921 0.000000 0.000825 0.000000
# 3 -0.010125 -0.000921 0.019279 0.000000 -0.000624 0.000000
# 4 0.000000 0.000000 0.000000 0.034184 0.000000 0.010533
# 5 -0.002163 0.000825 -0.000624 0.000000 0.025777 0.000000
# 6 0.000000 0.000000 0.000000 0.010533 0.000000 0.027082
#
#
# Mechanical properties :
#
#
# Convention : Reuss Voigt Hill
#
# Bulk Modulus (GPa) = 45.08576 45.81159 45.44868
# Shear Modulus (GPa) = 29.55433 35.38793 32.47113
#
# Velocity S-wave (km/s) = 3.75009 4.10354 3.93079
# Velocity P-wave (km/s) = 6.34071 6.65216 6.49830
#
# Compressibility (1/GPa) = 0.02217995
#
# Stress axis : x y z
#
# Youngs Moduli (GPa) = 49.77688 109.97590 51.86991
#
# Poissons Ratio (x) = 0.23042 0.52517
# Poissons Ratio (y) = 0.10429 0.04776
# Poissons Ratio (z) = 0.50398 0.10127
#
# Static dielectric constant tensor:
#      x y z
#    x 1.850960 0.000000 0.125430 
#    y 0.000000 1.829360 0.000000 
#    z 0.125430 0.000000 1.533670 
# 
# From -- ./inp_files/148130.got.cif
#   From: 2010.05.17/outbox.cif.g08.bks.cpg/sg15_75_cif.got.tgz:148130.got - 2010.06.03 18:47:42.
