data_PCOD9298476
_publ_section_title
;
Structure prediction by ZEFSAII (Michael W. Deem and Ramdas Pophale) SiO2 
 PCOD9298476
Probable space group: C 2/C
;
_chemical_formula_sum "Si O2"
_cell_formula_units_Z 52
_cell_length_a 32.883356
_cell_length_b 7.739848
_cell_length_c 16.337057
_cell_angle_alpha 90.000000
_cell_angle_beta 141.251225
_cell_angle_gamma 90.000000
_cell_volume 2602.507913
_symmetry_space_group_name_H-M "C 2/C"
_symmetry_group_IT_number 15
_symmetry_cell_setting 'monoclinic'
loop_
_space_group_symop_operation_xyz
x,y,z
-x,y,1/2-z
-x,-y,-z
x,-y,1/2+z
1/2+x,1/2+y,z
1/2-x,1/2+y,1/2-z
1/2-x,1/2-y,-z
1/2+x,1/2-y,1/2+z
loop_
_atom_site_type_symbol
_atom_site_label
_atom_site_fract_x
_atom_site_fract_y
_atom_site_fract_z
Si Si1 0.883930 0.318764 0.480603
Si Si2 0.000000 0.860732 0.250000
Si Si3 0.551021 0.104865 0.025982
Si Si4 0.270861 0.120334 0.922244
Si Si5 0.176909 0.578300 0.318895
Si Si6 0.338978 0.326329 0.746233
Si Si7 0.470027 0.572634 0.367731
O O1 0.916579 0.481425 0.488809
O O2 0.816824 0.375010 0.416226
O O3 0.869905 0.182825 0.385668
O O4 0.935868 0.245728 0.625550
O O5 0.980892 0.962107 0.303294
O O6 0.511832 0.254942 0.921649
O O7 0.609475 0.154974 0.178670
O O8 0.500000 0.000000 0.000000
O O9 0.233178 0.302839 0.868872
O O10 0.219504 0.962942 0.845084
O O11 0.315539 0.100822 0.072564
O O12 0.180543 0.373717 0.303449
O O13 0.395069 0.383347 0.770726
O O14 0.500000 0.500000 0.500000
#
# Coordination Sequence:
#
# PCOD9298476 Si02
#       7
#     8   4   8   8   8   8   8
#     4  11  27  44  69 103 140 186 236 295 344 432
#     4  12  28  44  72 108 138 182 248 292 360 434
#     4  11  22  46  71  96 137 186 231 289 365 409
#     4  11  26  43  70 102 143 184 235 292 345 426
#     4  10  24  44  71 101 134 190 232 287 355 422
#     4  11  24  47  70 101 144 188 230 293 359 420
#     4  12  24  46  72 105 144 184 233 302 356 420
#
# _framework density 19.980727999999999
#
# number of rings (size 3 to 8) (size 9 to 14) (size 15 to 20)
#    0.000    0.923    4.615    1.385   12.923    1.846 
#    2.769    0.000    0.000    0.000    0.000    0.000 
#    0.000    0.000    0.000    0.000    0.000    0.000 
#
# Total GULP energy -145278.568070 kJ/mol
# GULP energy per Si atom -5587.637233 kJ/mol
# Density = 1.993525 g / cm^3
# Si number density = 19.980728 Si / 1000 Ang^3
#
#
#
# Elastic Constant Matrix: (Units=GPa)
#
#
# Indices 1 2 3 4 5 6 
#
# 1 148.9792 41.9431 37.5004 0.0000 11.2388 0.0000
# 2 41.9431 63.3347 23.9767 0.0000 13.9954 0.0000
# 3 37.5004 23.9767 104.6740 0.0000 -0.5573 0.0000
# 4 0.0000 0.0000 0.0000 23.2201 0.0000 4.4916
# 5 11.2388 13.9954 -0.5573 0.0000 19.5228 0.0000
# 6 0.0000 0.0000 0.0000 4.4916 0.0000 20.7509
#
#
#
# Elastic Compliance Matrix: (Units=1/GPa)
#
#
# Indices 1 2 3 4 5 6 
#
# 1 0.008648 -0.004554 -0.002065 0.000000 -0.001773 0.000000
# 2 -0.004554 0.023396 -0.003804 0.000000 -0.014259 0.000000
# 3 -0.002065 -0.003804 0.011187 0.000000 0.004234 0.000000
# 4 0.000000 0.000000 0.000000 0.044948 0.000000 -0.009729
# 5 -0.001773 -0.014259 0.004234 0.000000 0.062585 0.000000
# 6 0.000000 0.000000 0.000000 -0.009729 0.000000 0.050297
#
#
# Mechanical properties :
#
#
# Convention : Reuss Voigt Hill
#
# Bulk Modulus (GPa) = 44.66915 58.20314 51.43614
# Shear Modulus (GPa) = 21.79921 26.93659 24.36790
#
# Velocity S-wave (km/s) = 3.30663 3.67567 3.49602
# Velocity P-wave (km/s) = 6.08137 6.87073 6.48807
#
# Compressibility (1/GPa) = 0.02238682
#
# Stress axis : x y z
#
# Youngs Moduli (GPa) = 115.63670 42.74321 89.39031
#
# Poissons Ratio (x) = 0.19464 0.18455
# Poissons Ratio (y) = 0.52657 0.34000
# Poissons Ratio (z) = 0.23873 0.16258
#
# Static dielectric constant tensor:
#      x y z
#    x 1.707880 0.000000 -0.030080 
#    y 0.000000 1.761770 0.000000 
#    z -0.030080 0.000000 1.754830 
# 
# From -- ./inp_files/181220.got.cif
#   From: 2010.05.17/outbox.cif.g08.bks.cpg/sg15_91_cif.got.tgz:181220.got - 2010.06.03 18:47:42.
