data_PCOD9298621
_publ_section_title
;
Structure prediction by ZEFSAII (Michael W. Deem and Ramdas Pophale) SiO2 
 PCOD9298621
Probable space group: C 2/C
;
_chemical_formula_sum "Si O2"
_cell_formula_units_Z 48
_cell_length_a 16.413162
_cell_length_b 13.071066
_cell_length_c 13.214644
_cell_angle_alpha 90.000000
_cell_angle_beta 131.994393
_cell_angle_gamma 90.000000
_cell_volume 2107.028710
_symmetry_space_group_name_H-M "C 2/C"
_symmetry_group_IT_number 15
_symmetry_cell_setting 'monoclinic'
loop_
_space_group_symop_operation_xyz
x,y,z
-x,y,1/2-z
-x,-y,-z
x,-y,1/2+z
1/2+x,1/2+y,z
1/2-x,1/2+y,1/2-z
1/2-x,1/2-y,-z
1/2+x,1/2-y,1/2+z
loop_
_atom_site_type_symbol
_atom_site_label
_atom_site_fract_x
_atom_site_fract_y
_atom_site_fract_z
Si Si1 0.775014 0.871478 0.033214
Si Si2 0.415947 0.741971 0.942929
Si Si3 0.487269 0.918904 0.358972
Si Si4 0.579617 0.870073 0.739343
Si Si5 0.591588 0.417027 0.543879
Si Si6 0.745862 0.577000 0.747028
O O1 0.772295 0.902316 0.148268
O O2 0.750000 0.750000 0.000000
O O3 0.673456 0.919958 0.885853
O O4 0.879010 0.903914 0.050642
O O5 0.380037 0.789969 0.806819
O O6 0.329218 0.651642 0.885251
O O7 0.427015 0.839877 0.022962
O O8 0.535856 0.688767 0.032983
O O9 0.500000 0.902102 0.250000
O O10 0.368494 0.902390 0.311583
O O11 0.492595 0.042283 0.374692
O O12 0.500000 0.812780 0.750000
O O13 0.500000 0.500000 0.500000
O O14 0.700227 0.462071 0.688251
#
# Coordination Sequence:
#
# PCOD9298621 Si02
#       6
#     8   8   8   8   8   8
#     4  12  22  42  75 105 134 185 238 292 351 417
#     4  11  24  42  70 100 136 178 229 286 348 423
#     4  11  25  45  64  98 141 184 229 283 355 422
#     4  11  22  40  68 101 133 171 230 289 346 406
#     4  10  24  45  66 104 142 178 233 286 359 415
#     4  11  24  45  71 102 139 178 235 293 345 422
#
# _framework density 22.780895000000001
#
# number of rings (size 3 to 8) (size 9 to 14) (size 15 to 20)
#    0.000    1.000    3.333    3.500    0.000    4.000 
#    6.000    0.000    0.000    0.000    0.000    0.000 
#    0.000    0.000    0.000    0.000    0.000    0.000 
#
# Total GULP energy -133827.418220 kJ/mol
# GULP energy per Si atom -5576.142426 kJ/mol
# Density = 2.272904 g / cm^3
# Si number density = 22.780895 Si / 1000 Ang^3
#
#
#
# Elastic Constant Matrix: (Units=GPa)
#
#
# Indices 1 2 3 4 5 6 
#
# 1 118.5744 17.0276 23.2342 0.0000 -17.9919 0.0000
# 2 17.0276 85.1375 37.2919 0.0000 -5.1712 0.0000
# 3 23.2342 37.2919 86.9933 0.0000 -10.1631 0.0000
# 4 0.0000 0.0000 0.0000 46.8226 0.0000 13.8164
# 5 -17.9919 -5.1712 -10.1631 0.0000 33.6493 0.0000
# 6 0.0000 0.0000 0.0000 13.8164 0.0000 -10.3102
#
#
#
# Elastic Compliance Matrix: (Units=1/GPa)
#
#
# Indices 1 2 3 4 5 6 
#
# 1 0.009566 -0.000925 -0.001635 0.000000 0.004479 0.000000
# 2 -0.000925 0.014555 -0.006000 0.000000 -0.000070 0.000000
# 3 -0.001635 -0.006000 0.014817 0.000000 0.002679 0.000000
# 4 0.000000 0.000000 0.000000 0.015305 0.000000 0.020510
# 5 0.004479 -0.000070 0.002679 0.000000 0.032911 0.000000
# 6 0.000000 0.000000 0.000000 0.020510 0.000000 -0.069507
#
#
# Mechanical properties :
#
#
# Convention : Reuss Voigt Hill
#
# Bulk Modulus (GPa) = 45.83586 49.53473 47.68530
# Shear Modulus (GPa) = 118.92975 28.24245 73.58610
#
# Velocity S-wave (km/s) = 7.23320 3.52482 5.68962
# Velocity P-wave (km/s) = 9.48277 6.19330 8.00874
#
# Compressibility (1/GPa) = 0.02181698
#
# Stress axis : x y z
#
# Youngs Moduli (GPa) = 104.53266 68.70613 67.48983
#
# Poissons Ratio (x) = 0.06355 0.11036
# Poissons Ratio (y) = 0.09669 0.40497
# Poissons Ratio (z) = 0.17093 0.41226
#
# Static dielectric constant tensor:
#      x y z
#    x 1.911610 0.000000 0.056130 
#    y 0.000000 1.876910 0.000000 
#    z 0.056130 0.000000 1.924120 
# 
# From -- ./inp_files/97166.got.cif
#   From: 2010.05.17/outbox.cif.g08.bks.cpg/sg15_49_cif.got.tgz:97166.got - 2010.06.03 18:47:42.
