data_PCOD9298673
_publ_section_title
;
Structure prediction by ZEFSAII (Michael W. Deem and Ramdas Pophale) SiO2 
 PCOD9298673
Probable space group: C 2/C
;
_chemical_formula_sum "Si O2"
_cell_formula_units_Z 36
_cell_length_a 11.826178
_cell_length_b 27.910122
_cell_length_c 9.162393
_cell_angle_alpha 90.000000
_cell_angle_beta 141.505035
_cell_angle_gamma 90.000000
_cell_volume 1882.420507
_symmetry_space_group_name_H-M "C 2/C"
_symmetry_group_IT_number 15
_symmetry_cell_setting 'monoclinic'
loop_
_space_group_symop_operation_xyz
x,y,z
-x,y,1/2-z
-x,-y,-z
x,-y,1/2+z
1/2+x,1/2+y,z
1/2-x,1/2+y,1/2-z
1/2-x,1/2-y,-z
1/2+x,1/2-y,1/2+z
loop_
_atom_site_type_symbol
_atom_site_label
_atom_site_fract_x
_atom_site_fract_y
_atom_site_fract_z
Si Si1 0.502958 0.943499 0.028786
Si Si2 0.000000 0.623409 0.250000
Si Si3 0.219888 0.094816 0.451314
Si Si4 0.191675 0.800092 0.515638
Si Si5 0.689758 0.700829 0.364274
O O1 0.664462 0.929445 0.303185
O O2 0.538045 0.911360 0.923114
O O3 0.304829 0.929537 0.893397
O O4 0.500000 0.000000 0.000000
O O5 0.835264 0.658829 0.123306
O O6 0.283065 0.150524 0.498917
O O7 0.000000 0.090496 0.250000
O O8 0.250000 0.750000 0.500000
O O9 0.180729 0.794091 0.680101
O O10 0.000000 0.813105 0.250000
O O11 0.500000 0.692886 0.250000
O O12 0.750000 0.750000 0.500000
#
# Coordination Sequence:
#
# PCOD9298673 Si02
#       5
#     8   4   8   8   8
#     4  11  25  47  73  99 133 181 235 288 347 403
#     4  12  26  42  70 100 144 178 218 294 348 400
#     4  10  24  45  69 101 138 174 232 282 336 415
#     4  12  26  43  66 103 144 181 226 281 348 416
#     4  11  25  41  68  98 136 187 228 273 340 414
#
# _framework density 19.124314999999999
#
# number of rings (size 3 to 8) (size 9 to 14) (size 15 to 20)
#    0.000    0.889    3.333    2.667   12.444    0.889 
#    0.000    2.222    0.000    0.000    0.000    0.000 
#    0.000    0.000    0.000    0.000    0.000    0.000 
#
# Total GULP energy -100416.529717 kJ/mol
# GULP energy per Si atom -5578.696095 kJ/mol
# Density = 1.908079 g / cm^3
# Si number density = 19.124315 Si / 1000 Ang^3
#
#
#
# Elastic Constant Matrix: (Units=GPa)
#
#
# Indices 1 2 3 4 5 6 
#
# 1 152.9940 67.1095 64.7244 0.0000 -15.7781 0.0000
# 2 67.1095 196.5440 61.0327 0.0000 -14.2649 0.0000
# 3 64.7244 61.0327 114.8264 0.0000 -9.7990 0.0000
# 4 0.0000 0.0000 0.0000 34.0801 0.0000 -9.8083
# 5 -15.7781 -14.2649 -9.7990 0.0000 43.4342 0.0000
# 6 0.0000 0.0000 0.0000 -9.8083 0.0000 52.5956
#
#
#
# Elastic Compliance Matrix: (Units=1/GPa)
#
#
# Indices 1 2 3 4 5 6 
#
# 1 0.009234 -0.001738 -0.004123 0.000000 0.001853 0.000000
# 2 -0.001738 0.006493 -0.002389 0.000000 0.000962 0.000000
# 3 -0.004123 -0.002389 0.012346 0.000000 0.000503 0.000000
# 4 0.000000 0.000000 0.000000 0.031007 0.000000 0.005782
# 5 0.001853 0.000962 0.000503 0.000000 0.024126 0.000000
# 6 0.000000 0.000000 0.000000 0.005782 0.000000 0.020091
#
#
# Mechanical properties :
#
#
# Convention : Reuss Voigt Hill
#
# Bulk Modulus (GPa) = 86.41602 94.45528 90.43565
# Shear Modulus (GPa) = 40.43497 44.12181 42.27839
#
# Velocity S-wave (km/s) = 4.60316 4.80844 4.70692
# Velocity P-wave (km/s) = 8.57536 8.96245 8.77104
#
# Compressibility (1/GPa) = 0.01157193
#
# Stress axis : x y z
#
# Youngs Moduli (GPa) = 108.29597 154.00680 80.99970
#
# Poissons Ratio (x) = 0.26768 0.33395
# Poissons Ratio (y) = 0.18823 0.19355
# Poissons Ratio (z) = 0.44649 0.36799
#
# Static dielectric constant tensor:
#      x y z
#    x 1.648330 0.000000 -0.012990 
#    y 0.000000 1.876970 0.000000 
#    z -0.012990 0.000000 1.652620 
# 
# From -- ./inp_files/33260.got.cif
#   From: 2010.05.17/outbox.cif.g08.bks.cpg/sg15_17_cif.got.tgz:33260.got - 2010.06.03 18:47:42.
