data_PCOD9298135
_publ_section_title
;
Structure prediction by ZEFSAII (Michael W. Deem and Ramdas Pophale) SiO2 
 PCOD9298135
Probable space group: C 2/C
;
_chemical_formula_sum "Si O2"
_cell_formula_units_Z 48
_cell_length_a 14.422032
_cell_length_b 10.129179
_cell_length_c 14.302090
_cell_angle_alpha 90.000000
_cell_angle_beta 103.856353
_cell_angle_gamma 90.000000
_cell_volume 2028.496914
_symmetry_space_group_name_H-M "C 2/C"
_symmetry_group_IT_number 15
_symmetry_cell_setting 'monoclinic'
loop_
_space_group_symop_operation_xyz
x,y,z
-x,y,1/2-z
-x,-y,-z
x,-y,1/2+z
1/2+x,1/2+y,z
1/2-x,1/2+y,1/2-z
1/2-x,1/2-y,-z
1/2+x,1/2-y,1/2+z
loop_
_atom_site_type_symbol
_atom_site_label
_atom_site_fract_x
_atom_site_fract_y
_atom_site_fract_z
Si Si1 0.468479 0.998160 0.101211
Si Si2 0.284040 0.102654 0.026012
Si Si3 0.673947 0.418888 0.148531
Si Si4 0.157849 0.398116 0.164499
Si Si5 0.636533 0.740900 0.483936
Si Si6 0.533022 0.358097 0.655384
O O1 0.568315 0.986458 0.178110
O O2 0.406336 0.863803 0.083689
O O3 0.389603 0.108106 0.097971
O O4 0.500000 0.000000 0.000000
O O5 0.218056 0.010908 0.075045
O O6 0.250000 0.250000 0.000000
O O7 0.299852 0.048946 0.923582
O O8 0.758674 0.388675 0.240656
O O9 0.592332 0.507941 0.173694
O O10 0.630651 0.285606 0.093329
O O11 0.104718 0.256974 0.135650
O O12 0.750000 0.750000 0.500000
O O13 0.563977 0.629470 0.427575
O O14 0.500000 0.318184 0.750000
#
# Coordination Sequence:
#
# PCOD9298135 Si02
#       6
#     8   8   8   8   8   8
#     4   9  21  41  67  97 131 178 234 280 337 416
#     4  11  22  44  69  99 144 183 227 300 355 405
#     4  12  25  42  73 104 139 185 234 295 356 424
#     4  10  24  43  70 100 135 188 240 282 351 424
#     4  11  22  42  70  99 129 183 230 282 348 415
#     4  11  25  43  67  99 144 181 235 288 351 424
#
# _framework density 23.662842000000001
#
# number of rings (size 3 to 8) (size 9 to 14) (size 15 to 20)
#    0.000    1.333    3.333    1.500    4.667    2.667 
#    0.000    0.000    3.667    0.000    0.000    0.000 
#    0.000    0.000    0.000    0.000    0.000    0.000 
#
# Total GULP energy -133861.663781 kJ/mol
# GULP energy per Si atom -5577.569324 kJ/mol
# Density = 2.360898 g / cm^3
# Si number density = 23.662842 Si / 1000 Ang^3
#
#
#
# Elastic Constant Matrix: (Units=GPa)
#
#
# Indices 1 2 3 4 5 6 
#
# 1 109.3390 20.3918 41.6140 0.0000 32.1140 0.0000
# 2 20.3918 49.9081 -4.6719 0.0000 11.3426 0.0000
# 3 41.6140 -4.6719 116.9708 0.0000 35.6170 0.0000
# 4 0.0000 0.0000 0.0000 26.1629 0.0000 -4.9976
# 5 32.1140 11.3426 35.6170 0.0000 64.4657 0.0000
# 6 0.0000 0.0000 0.0000 -4.9976 0.0000 35.0127
#
#
#
# Elastic Compliance Matrix: (Units=1/GPa)
#
#
# Indices 1 2 3 4 5 6 
#
# 1 0.012349 -0.004609 -0.003548 0.000000 -0.003380 0.000000
# 2 -0.004609 0.023142 0.003733 0.000000 -0.003838 0.000000
# 3 -0.003548 0.003733 0.011568 0.000000 -0.005281 0.000000
# 4 0.000000 0.000000 0.000000 0.039293 0.000000 0.005609
# 5 -0.003380 -0.003838 -0.005281 0.000000 0.020789 0.000000
# 6 0.000000 0.000000 0.000000 0.005609 0.000000 0.029362
#
#
# Mechanical properties :
#
#
# Convention : Reuss Voigt Hill
#
# Bulk Modulus (GPa) = 26.17139 43.43173 34.80156
# Shear Modulus (GPa) = 31.62777 39.72053 35.67415
#
# Velocity S-wave (km/s) = 3.65992 4.10152 3.88700
# Velocity P-wave (km/s) = 5.37998 6.38938 5.90628
#
# Compressibility (1/GPa) = 0.03820967
#
# Stress axis : x y z
#
# Youngs Moduli (GPa) = 80.97998 43.21174 86.44178
#
# Poissons Ratio (x) = 0.19918 0.30670
# Poissons Ratio (y) = 0.37327 -0.32267
# Poissons Ratio (z) = 0.28732 -0.16130
#
# Static dielectric constant tensor:
#      x y z
#    x 1.952650 0.000000 -0.007800 
#    y 0.000000 2.080870 0.000000 
#    z -0.007800 0.000000 1.951850 
# 
# From -- ./inp_files/152176.got.cif
#   From: 2010.05.17/outbox.cif.g08.bks.cpg/sg15_77_cif.got.tgz:152176.got - 2010.06.03 18:47:42.
