data_PCOD9298172
_publ_section_title
;
Structure prediction by ZEFSAII (Michael W. Deem and Ramdas Pophale) SiO2 
 PCOD9298172
Probable space group: C 2/C
;
_chemical_formula_sum "Si O2"
_cell_formula_units_Z 44
_cell_length_a 17.096075
_cell_length_b 16.356911
_cell_length_c 7.982183
_cell_angle_alpha 90.000000
_cell_angle_beta 125.872951
_cell_angle_gamma 90.000000
_cell_volume 1808.735537
_symmetry_space_group_name_H-M "C 2/C"
_symmetry_group_IT_number 15
_symmetry_cell_setting 'monoclinic'
loop_
_space_group_symop_operation_xyz
x,y,z
-x,y,1/2-z
-x,-y,-z
x,-y,1/2+z
1/2+x,1/2+y,z
1/2-x,1/2+y,1/2-z
1/2-x,1/2-y,-z
1/2+x,1/2-y,1/2+z
loop_
_atom_site_type_symbol
_atom_site_label
_atom_site_fract_x
_atom_site_fract_y
_atom_site_fract_z
Si Si1 0.416751 0.621793 0.371946
Si Si2 0.158806 0.010812 0.964629
Si Si3 0.704305 0.073564 0.627623
Si Si4 0.042623 0.277750 0.479680
Si Si5 0.500000 0.108721 0.250000
Si Si6 0.759871 0.753114 0.810037
O O1 0.421185 0.551990 0.519088
O O2 0.502407 0.685745 0.458707
O O3 0.331279 0.678500 0.334553
O O4 0.382686 0.571963 0.166852
O O5 0.257225 0.990247 0.189470
O O6 0.202976 0.070410 0.880436
O O7 0.598592 0.059489 0.415855
O O8 0.701203 0.164859 0.695121
O O9 0.020993 0.333795 0.614599
O O10 0.156388 0.270864 0.605273
O O11 0.000000 0.308435 0.250000
O O12 0.750000 0.750000 0.000000
#
# Coordination Sequence:
#
# PCOD9298172 Si02
#       6
#     8   8   8   8   4   8
#     4  11  23  47  71 106 143 187 239 297 356 436
#     4  10  24  43  71  99 149 190 225 293 374 430
#     4  11  23  44  67 103 135 194 233 290 367 422
#     4  12  26  42  72 114 135 184 249 298 356 419
#     4  12  24  44  72 102 142 186 240 312 344 420
#     4  12  22  44  75  99 143 188 243 296 354 428
#
# _framework density 24.326387
#
# number of rings (size 3 to 8) (size 9 to 14) (size 15 to 20)
#    0.000    0.727    5.455    1.091    2.545    2.182 
#    0.000   10.000    0.000    0.000    0.000    0.000 
#    0.000    0.000    0.000    0.000    0.000    0.000 
#
# Total GULP energy -123161.587428 kJ/mol
# GULP energy per Si atom -5598.253974 kJ/mol
# Density = 2.427102 g / cm^3
# Si number density = 24.326387 Si / 1000 Ang^3
#
#
#
# Elastic Constant Matrix: (Units=GPa)
#
#
# Indices 1 2 3 4 5 6 
#
# 1 63.5875 8.7135 7.6788 0.0000 -10.2992 0.0000
# 2 8.7135 65.4539 2.7969 0.0000 -15.2624 0.0000
# 3 7.6788 2.7969 116.8261 0.0000 -2.6691 0.0000
# 4 0.0000 0.0000 0.0000 27.7196 0.0000 -2.5769
# 5 -10.2992 -15.2624 -2.6691 0.0000 26.1923 0.0000
# 6 0.0000 0.0000 0.0000 -2.5769 0.0000 15.1935
#
#
#
# Elastic Compliance Matrix: (Units=1/GPa)
#
#
# Indices 1 2 3 4 5 6 
#
# 1 0.016938 -0.000791 -0.000955 0.000000 0.006102 0.000000
# 2 -0.000791 0.017721 -0.000144 0.000000 0.010001 0.000000
# 3 -0.000955 -0.000144 0.008636 0.000000 0.000421 0.000000
# 4 0.000000 0.000000 0.000000 0.036653 0.000000 0.006217
# 5 0.006102 0.010001 0.000421 0.000000 0.046449 0.000000
# 6 0.000000 0.000000 0.000000 0.006217 0.000000 0.066872
#
#
# Mechanical properties :
#
#
# Convention : Reuss Voigt Hill
#
# Bulk Modulus (GPa) = 25.30663 31.58288 28.44475
# Shear Modulus (GPa) = 23.78442 28.93295 26.35869
#
# Velocity S-wave (km/s) = 3.13025 3.45246 3.29529
# Velocity P-wave (km/s) = 4.84666 5.37622 5.11830
#
# Compressibility (1/GPa) = 0.03951534
#
# Stress axis : x y z
#
# Youngs Moduli (GPa) = 59.03721 56.42929 115.80033
#
# Poissons Ratio (x) = 0.04465 0.11059
# Poissons Ratio (y) = 0.04671 0.01665
# Poissons Ratio (z) = 0.05638 0.00811
#
# Static dielectric constant tensor:
#      x y z
#    x 1.941000 0.000000 -0.055610 
#    y 0.000000 1.962210 0.000000 
#    z -0.055610 0.000000 1.973320 
# 
# From -- ./inp_files/39134.got.cif
#   From: 2010.05.17/outbox.cif.g08.bks.cpg/sg15_20_cif.got.tgz:39134.got - 2010.06.03 18:47:42.
