data_PCOD9298259
_publ_section_title
;
Structure prediction by ZEFSAII (Michael W. Deem and Ramdas Pophale) SiO2 
 PCOD9298259
Probable space group: C 2/C
;
_chemical_formula_sum "Si O2"
_cell_formula_units_Z 40
_cell_length_a 17.830780
_cell_length_b 10.319136
_cell_length_c 16.987211
_cell_angle_alpha 90.000000
_cell_angle_beta 30.752134
_cell_angle_gamma 90.000000
_cell_volume 1598.206404
_symmetry_space_group_name_H-M "C 2/C"
_symmetry_group_IT_number 15
_symmetry_cell_setting 'monoclinic'
loop_
_space_group_symop_operation_xyz
x,y,z
-x,y,1/2-z
-x,-y,-z
x,-y,1/2+z
1/2+x,1/2+y,z
1/2-x,1/2+y,1/2-z
1/2-x,1/2-y,-z
1/2+x,1/2-y,1/2+z
loop_
_atom_site_type_symbol
_atom_site_label
_atom_site_fract_x
_atom_site_fract_y
_atom_site_fract_z
Si Si1 0.344347 0.399923 0.184770
Si Si2 0.000000 0.051249 0.750000
Si Si3 0.005135 0.135948 0.106193
Si Si4 0.500000 0.842153 0.250000
Si Si5 0.369980 0.244468 0.515074
Si Si6 0.303267 0.915686 0.938881
O O1 0.374353 0.553004 0.179022
O O2 0.196222 0.343946 0.355979
O O3 0.364474 0.364432 0.074810
O O4 0.484853 0.320763 0.091275
O O5 0.953804 0.963511 0.863248
O O6 0.157207 0.109091 0.625387
O O7 0.982133 0.261003 0.183781
O O8 0.637918 0.939283 0.117850
O O9 0.412721 0.160227 0.399189
O O10 0.249150 0.349532 0.594422
#
# Coordination Sequence:
#
# PCOD9298259 Si02
#       6
#     8   4   8   4   8   8
#     4  11  23  44  65  95 124 177 207 267 323 387
#     4  11  20  43  62  86 125 170 199 258 322 383
#     4  10  24  44  64  90 137 169 208 258 342 380
#     4  11  26  41  66  98 129 166 221 274 308 393
#     4  11  22  42  70  91 130 166 220 267 316 384
#     4  11  22  40  67  99 122 169 219 263 317 382
#
# _framework density 25.028055999999999
#
# number of rings (size 3 to 8) (size 9 to 14) (size 15 to 20)
#    0.000    1.200    4.000    1.200    0.000    9.600 
#    0.000    2.000    0.000    0.000    0.000    0.000 
#    0.000    0.000    0.000    0.000    0.000    0.000 
#
# Total GULP energy -111411.071976 kJ/mol
# GULP energy per Si atom -5570.553599 kJ/mol
# Density = 2.497109 g / cm^3
# Si number density = 25.028056 Si / 1000 Ang^3
#
#
#
# Elastic Constant Matrix: (Units=GPa)
#
#
# Indices 1 2 3 4 5 6 
#
# 1 73.8438 20.9720 30.1871 0.0000 27.0220 0.0000
# 2 20.9720 126.4921 35.5971 0.0000 21.4532 0.0000
# 3 30.1871 35.5971 122.7261 0.0000 31.2749 0.0000
# 4 0.0000 0.0000 0.0000 46.9579 0.0000 11.6697
# 5 27.0220 21.4532 31.2749 0.0000 55.9678 0.0000
# 6 0.0000 0.0000 0.0000 11.6697 0.0000 -3.0805
#
#
#
# Elastic Compliance Matrix: (Units=1/GPa)
#
#
# Indices 1 2 3 4 5 6 
#
# 1 0.017190 -0.001100 -0.002217 0.000000 -0.006639 0.000000
# 2 -0.001100 0.008922 -0.001844 0.000000 -0.001859 0.000000
# 3 -0.002217 -0.001844 0.010233 0.000000 -0.003941 0.000000
# 4 0.000000 0.000000 0.000000 0.010969 0.000000 0.041554
# 5 -0.006639 -0.001859 -0.003941 0.000000 0.023987 0.000000
# 6 0.000000 0.000000 0.000000 0.041554 0.000000 -0.167209
#
#
# Mechanical properties :
#
#
# Convention : Reuss Voigt Hill
#
# Bulk Modulus (GPa) = 38.42786 55.17492 46.80139
# Shear Modulus (GPa) = -65.01053 35.72277 -14.64388
#
# Velocity S-wave (km/s) = -5.10210 3.78207 -2.42150
# Velocity P-wave (km/s) = 4.39561 6.41601 3.30483
#
# Compressibility (1/GPa) = 0.02602279
#
# Stress axis : x y z
#
# Youngs Moduli (GPa) = 58.17189 112.08151 97.72652
#
# Poissons Ratio (x) = 0.12330 0.21670
# Poissons Ratio (y) = 0.06400 0.18017
# Poissons Ratio (z) = 0.12899 0.20664
#
# Static dielectric constant tensor:
#      x y z
#    x 2.156710 0.000000 -0.090000 
#    y 0.000000 2.062180 0.000000 
#    z -0.090000 0.000000 2.262500 
# 
# From -- ./inp_files/214987.got.cif
#   From: 2010.05.17/outbox.cif.g08.bks.cpg/sg15_108_cif.got.tgz:214987.got - 2010.06.03 18:47:42.
