data_PCOD9298551
_publ_section_title
;
Structure prediction by ZEFSAII (Michael W. Deem and Ramdas Pophale) SiO2 
 PCOD9298551
Probable space group: C 2/C
;
_chemical_formula_sum "Si O2"
_cell_formula_units_Z 56
_cell_length_a 15.768862
_cell_length_b 21.698692
_cell_length_c 14.217492
_cell_angle_alpha 90.000000
_cell_angle_beta 149.584943
_cell_angle_gamma 90.000000
_cell_volume 2462.809766
_symmetry_space_group_name_H-M "C 2/C"
_symmetry_group_IT_number 15
_symmetry_cell_setting 'monoclinic'
loop_
_space_group_symop_operation_xyz
x,y,z
-x,y,1/2-z
-x,-y,-z
x,-y,1/2+z
1/2+x,1/2+y,z
1/2-x,1/2+y,1/2-z
1/2-x,1/2-y,-z
1/2+x,1/2-y,1/2+z
loop_
_atom_site_type_symbol
_atom_site_label
_atom_site_fract_x
_atom_site_fract_y
_atom_site_fract_z
Si Si1 0.083327 0.955887 0.158076
Si Si2 0.069933 0.247733 0.980909
Si Si3 0.780855 0.827322 0.279536
Si Si4 0.000000 0.663532 0.250000
Si Si5 0.500000 0.900977 0.250000
Si Si6 0.761058 0.115872 0.358790
Si Si7 0.320779 0.315180 0.533158
Si Si8 0.622822 0.960388 0.552490
O O1 0.188365 0.897940 0.217058
O O2 0.221307 0.999120 0.338079
O O3 0.920031 0.924072 0.047369
O O4 0.000000 0.000000 0.000000
O O5 0.098248 0.297726 0.091264
O O6 0.178481 0.185994 0.095213
O O7 0.090631 0.289399 0.908242
O O8 0.888151 0.216019 0.812637
O O9 0.845085 0.815701 0.444788
O O10 0.882328 0.620632 0.200600
O O11 0.671338 0.862250 0.411396
O O12 0.515698 0.936972 0.362637
O O13 0.699967 0.089437 0.199848
O O14 0.500000 0.329511 0.750000
O O15 0.250000 0.250000 0.500000
O O16 0.500000 0.000000 0.500000
#
# Coordination Sequence:
#
# PCOD9298551 Si02
#       8
#     8   8   8   4   4   8   8   8
#     4   9  22  46  74  99 135 195 256 303 367 447
#     4  11  24  41  71 103 148 191 245 304 385 459
#     4  11  24  43  72 101 144 196 243 308 385 447
#     4  12  24  41  70 114 154 193 244 308 388 470
#     4  12  30  49  80 116 150 197 258 318 382 462
#     4  10  24  44  74 104 150 197 246 313 380 455
#     4  12  27  44  74 114 154 194 254 316 388 463
#     4  11  26  51  79 104 148 198 256 315 382 451
#
# _framework density 22.738256
#
# number of rings (size 3 to 8) (size 9 to 14) (size 15 to 20)
#    0.000    1.143    2.143    2.143   12.000    0.571 
#    0.000    0.000    6.286    0.000    0.000    0.000 
#    0.000    0.000    0.000    0.000    0.000    0.000 
#
# Total GULP energy -156413.865249 kJ/mol
# GULP energy per Si atom -5586.209473 kJ/mol
# Density = 2.268650 g / cm^3
# Si number density = 22.738256 Si / 1000 Ang^3
#
#
#
# Elastic Constant Matrix: (Units=GPa)
#
#
# Indices 1 2 3 4 5 6 
#
# 1 89.9571 53.5258 47.0322 0.0000 -1.5631 0.0000
# 2 53.5258 125.8377 64.7965 0.0000 9.5705 0.0000
# 3 47.0322 64.7965 153.3611 0.0000 -5.3269 0.0000
# 4 0.0000 0.0000 0.0000 10.6918 0.0000 25.3633
# 5 -1.5631 9.5705 -5.3269 0.0000 38.8757 0.0000
# 6 0.0000 0.0000 0.0000 25.3633 0.0000 35.9069
#
#
#
# Elastic Compliance Matrix: (Units=1/GPa)
#
#
# Indices 1 2 3 4 5 6 
#
# 1 0.015721 -0.005575 -0.002408 0.000000 0.001675 0.000000
# 2 -0.005575 0.012520 -0.003713 0.000000 -0.003815 0.000000
# 3 -0.002408 -0.003713 0.008898 0.000000 0.002036 0.000000
# 4 0.000000 0.000000 0.000000 -0.138431 0.000000 0.097782
# 5 0.001675 -0.003815 0.002036 0.000000 0.027009 0.000000
# 6 0.000000 0.000000 0.000000 0.097782 0.000000 -0.041220
#
#
# Mechanical properties :
#
#
# Convention : Reuss Voigt Hill
#
# Bulk Modulus (GPa) = 72.73134 77.76276 75.24705
# Shear Modulus (GPa) = -57.12404 30.68166 -13.22119
#
# Velocity S-wave (km/s) = -5.01767 3.67732 -2.41395
# Velocity P-wave (km/s) = 1.23025 7.23212 5.03935
#
# Compressibility (1/GPa) = 0.01374923
#
# Stress axis : x y z
#
# Youngs Moduli (GPa) = 63.60745 79.87331 112.38043
#
# Poissons Ratio (x) = 0.44527 0.27060
# Poissons Ratio (y) = 0.35459 0.41723
# Poissons Ratio (z) = 0.15316 0.29654
#
# Static dielectric constant tensor:
#      x y z
#    x 2.532830 0.000000 0.415000 
#    y 0.000000 1.847750 0.000000 
#    z 0.415000 0.000000 3.143050 
# 
# From -- ./inp_files/163851.got.cif
#   From: 2010.05.17/outbox.cif.g08.bks.cpg/sg15_82_cif.got.tgz:163851.got - 2010.06.03 18:47:42.
