data_PCOD9298248
_publ_section_title
;
Structure prediction by ZEFSAII (Michael W. Deem and Ramdas Pophale) SiO2 
 PCOD9298248
Probable space group: C 2/C
;
_chemical_formula_sum "Si O2"
_cell_formula_units_Z 52
_cell_length_a 5.821078
_cell_length_b 15.228946
_cell_length_c 27.559339
_cell_angle_alpha 90.000000
_cell_angle_beta 107.783630
_cell_angle_gamma 90.000000
_cell_volume 2326.364991
_symmetry_space_group_name_H-M "C 2/C"
_symmetry_group_IT_number 15
_symmetry_cell_setting 'monoclinic'
loop_
_space_group_symop_operation_xyz
x,y,z
-x,y,1/2-z
-x,-y,-z
x,-y,1/2+z
1/2+x,1/2+y,z
1/2-x,1/2+y,1/2-z
1/2-x,1/2-y,-z
1/2+x,1/2-y,1/2+z
loop_
_atom_site_type_symbol
_atom_site_label
_atom_site_fract_x
_atom_site_fract_y
_atom_site_fract_z
Si Si1 0.000000 0.191301 0.750000
Si Si2 0.563196 0.804040 0.665097
Si Si3 0.000000 0.604673 0.750000
Si Si4 0.411721 0.772990 0.944994
Si Si5 0.500000 0.369268 0.750000
Si Si6 0.825489 0.107361 0.508801
Si Si7 0.243761 0.461612 0.821373
Si Si8 0.573063 0.439138 0.929537
O O1 0.937142 0.246438 0.698036
O O2 0.250541 0.145727 0.752767
O O3 0.534886 0.771101 0.609041
O O4 0.437853 0.897476 0.662749
O O5 0.836645 0.813396 0.702464
O O6 0.898251 0.549483 0.698158
O O7 0.444737 0.670979 0.963175
O O8 0.186594 0.841079 0.933540
O O9 0.601779 0.826967 0.990173
O O10 0.325929 0.425316 0.773816
O O11 0.869209 0.069596 0.457806
O O12 0.782828 0.024460 0.541258
O O13 0.474158 0.465728 0.870714
#
# Coordination Sequence:
#
# PCOD9298248 Si02
#       8
#     4   8   4   8   4   8   8   8
#     4  12  28  46  69 109 152 186 240 310 364 436
#     4  12  24  43  69  99 134 192 238 285 364 447
#     4  12  28  46  69 109 152 186 240 310 364 436
#     4  11  23  43  69  97 137 184 235 297 365 432
#     4  12  20  44  72  92 140 182 248 286 346 446
#     4  10  24  44  64 101 134 176 245 300 358 432
#     4  12  24  43  69  99 134 192 238 285 364 447
#     4  11  23  43  69  97 137 184 235 297 365 432
#
# _framework density 22.352471000000001
#
# number of rings (size 3 to 8) (size 9 to 14) (size 15 to 20)
#    0.000    0.615    6.154    1.846    2.154    0.000 
#    0.000    1.538    0.000    0.000    0.000    0.000 
#    0.000    0.000    0.000    0.000    0.000    0.000 
#
# Total GULP energy -144984.815969 kJ/mol
# GULP energy per Si atom -5576.339076 kJ/mol
# Density = 2.230160 g / cm^3
# Si number density = 22.352471 Si / 1000 Ang^3
#
#
#
# Elastic Constant Matrix: (Units=GPa)
#
#
# Indices 1 2 3 4 5 6 
#
# 1 55.2672 21.4405 12.1270 0.0000 3.6363 0.0000
# 2 21.4405 63.9991 22.9163 0.0000 -4.7162 0.0000
# 3 12.1270 22.9163 116.8907 0.0000 -10.4410 0.0000
# 4 0.0000 0.0000 0.0000 -8.1634 0.0000 0.3070
# 5 3.6363 -4.7162 -10.4410 0.0000 33.4242 0.0000
# 6 0.0000 0.0000 0.0000 0.3070 0.0000 41.9838
#
#
#
# Elastic Compliance Matrix: (Units=1/GPa)
#
#
# Indices 1 2 3 4 5 6 
#
# 1 0.021303 -0.006989 -0.001168 0.000000 -0.003668 0.000000
# 2 -0.006989 0.019160 -0.002800 0.000000 0.002589 0.000000
# 3 -0.001168 -0.002800 0.009465 0.000000 0.002689 0.000000
# 4 0.000000 0.000000 0.000000 -0.122465 0.000000 0.000896
# 5 -0.003668 0.002589 0.002689 0.000000 0.031523 0.000000
# 6 0.000000 0.000000 0.000000 0.000896 0.000000 0.023812
#
#
# Mechanical properties :
#
#
# Convention : Reuss Voigt Hill
#
# Bulk Modulus (GPa) = 35.69513 38.79164 37.24338
# Shear Modulus (GPa) = 355.88247 25.42714 190.65481
#
# Velocity S-wave (km/s) = 12.63169 3.37642 9.24553
# Velocity P-wave (km/s) = 15.12448 5.70898 11.43115
#
# Compressibility (1/GPa) = 0.02801502
#
# Stress axis : x y z
#
# Youngs Moduli (GPa) = 46.94217 52.19205 105.64995
#
# Poissons Ratio (x) = 0.36477 0.12336
# Poissons Ratio (y) = 0.32808 0.29581
# Poissons Ratio (z) = 0.05481 0.14613
#
# Static dielectric constant tensor:
#      x y z
#    x 1.860840 0.000000 0.079230 
#    y 0.000000 1.931230 0.000000 
#    z 0.079230 0.000000 1.958800 
# 
# From -- ./inp_files/305367.got.cif
#   From: 2010.05.17/outbox.cif.g08.bks.cpg/sg15_153_cif.got.tgz:305367.got - 2010.06.03 18:47:42.
