data_PCOD9298778
_publ_section_title
;
Structure prediction by ZEFSAII (Michael W. Deem and Ramdas Pophale) SiO2 
 PCOD9298778
Probable space group: C 2/C
;
_chemical_formula_sum "Si O2"
_cell_formula_units_Z 60
_cell_length_a 26.738574
_cell_length_b 7.622852
_cell_length_c 18.718247
_cell_angle_alpha 90.000000
_cell_angle_beta 136.066584
_cell_angle_gamma 90.000000
_cell_volume 2647.091410
_symmetry_space_group_name_H-M "C 2/C"
_symmetry_group_IT_number 15
_symmetry_cell_setting 'monoclinic'
loop_
_space_group_symop_operation_xyz
x,y,z
-x,y,1/2-z
-x,-y,-z
x,-y,1/2+z
1/2+x,1/2+y,z
1/2-x,1/2+y,1/2-z
1/2-x,1/2-y,-z
1/2+x,1/2-y,1/2+z
loop_
_atom_site_type_symbol
_atom_site_label
_atom_site_fract_x
_atom_site_fract_y
_atom_site_fract_z
Si Si1 0.500000 0.466096 0.250000
Si Si2 0.572423 0.115180 0.290300
Si Si3 0.347885 0.131240 0.382641
Si Si4 0.528892 0.859827 0.587263
Si Si5 0.573851 0.568307 0.038698
Si Si6 0.914954 0.814963 0.570936
Si Si7 0.673657 0.818368 0.394877
Si Si8 0.687569 0.775177 0.240133
O O1 0.563880 0.321381 0.301340
O O2 0.510191 0.593288 0.329047
O O3 0.559888 0.080440 0.193880
O O4 0.645798 0.015440 0.384607
O O5 0.669097 0.945523 0.172725
O O6 0.402334 0.224443 0.382663
O O7 0.389494 0.455542 0.485853
O O8 0.394658 0.140323 0.504849
O O9 0.270446 0.218904 0.314930
O O10 0.461095 0.739025 0.534799
O O11 0.500000 0.000000 0.500000
O O12 0.632747 0.628276 0.155678
O O13 0.500000 0.500000 0.000000
O O14 0.878969 0.798927 0.610661
O O15 0.000000 0.469790 0.750000
O O16 0.750000 0.750000 0.500000
O O17 0.673627 0.801395 0.309687
#
# Coordination Sequence:
#
# PCOD9298778 Si02
#       8
#     4   8   8   8   8   8   8   8
#     4  10  26  46  76 112 154 196 252 318 394 448
#     4  10  24  45  74 104 153 200 247 311 385 456
#     4  12  26  48  77 109 151 208 252 318 386 471
#     4  12  23  43  75 111 143 190 259 311 378 445
#     4  12  25  43  76 115 147 196 258 321 376 466
#     4  12  27  46  76 113 156 195 261 320 389 462
#     4  12  27  48  75 112 157 204 258 312 391 469
#     4  12  28  50  76 107 158 205 262 315 397 460
#
# _framework density 22.666388999999999
#
# number of rings (size 3 to 8) (size 9 to 14) (size 15 to 20)
#    0.400    0.000    6.667    0.800    4.667    1.067 
#    0.000    0.667    0.000    0.000    0.000    0.000 
#    0.000    0.000    0.000    0.000    0.000    0.000 
#
# Total GULP energy -167112.007143 kJ/mol
# GULP energy per Si atom -5570.400238 kJ/mol
# Density = 2.261480 g / cm^3
# Si number density = 22.666389 Si / 1000 Ang^3
#
#
#
# Elastic Constant Matrix: (Units=GPa)
#
#
# Indices 1 2 3 4 5 6 
#
# 1 142.9649 46.7772 53.1005 0.0000 -9.0022 0.0000
# 2 46.7772 96.7678 56.7472 0.0001 -8.7525 0.0000
# 3 53.1005 56.7472 137.9124 0.0000 -10.9153 0.0000
# 4 0.0000 0.0001 0.0000 41.4670 0.0000 2.6194
# 5 -9.0022 -8.7525 -10.9153 0.0000 44.7483 0.0000
# 6 0.0000 0.0000 0.0000 2.6194 0.0000 28.0010
#
#
#
# Elastic Compliance Matrix: (Units=1/GPa)
#
#
# Indices 1 2 3 4 5 6 
#
# 1 0.008787 -0.002944 -0.002118 0.000000 0.000675 0.000000
# 2 -0.002944 0.014684 -0.004821 0.000000 0.001104 0.000000
# 3 -0.002118 -0.004821 0.010138 0.000000 0.001104 0.000000
# 4 0.000000 0.000000 0.000000 0.024259 0.000000 -0.002269
# 5 0.000675 0.001104 0.001104 0.000000 0.022968 0.000000
# 6 0.000000 0.000000 0.000000 -0.002269 0.000000 0.035925
#
#
# Mechanical properties :
#
#
# Convention : Reuss Voigt Hill
#
# Bulk Modulus (GPa) = 72.24623 76.76609 74.50616
# Shear Modulus (GPa) = 35.42478 37.57795 36.50136
#
# Velocity S-wave (km/s) = 3.95761 4.07611 4.01730
# Velocity P-wave (km/s) = 7.26819 7.48961 7.37973
#
# Compressibility (1/GPa) = 0.01384155
#
# Stress axis : x y z
#
# Youngs Moduli (GPa) = 113.79824 68.09921 98.64083
#
# Poissons Ratio (x) = 0.20051 0.20897
# Poissons Ratio (y) = 0.33507 0.47557
# Poissons Ratio (z) = 0.24108 0.32832
#
# Static dielectric constant tensor:
#      x y z
#    x 1.846320 0.000000 -0.003970 
#    y 0.000000 2.047480 0.000000 
#    z -0.003970 0.000000 1.981640 
# 
# From -- ./inp_files/258750.got.cif
#   From: 2010.05.17/outbox.cif.g08.bks.cpg/sg15_130_cif.got.tgz:258750.got - 2010.06.03 18:47:42.
