data_PCOD9298303
_publ_section_title
;
Structure prediction by ZEFSAII (Michael W. Deem and Ramdas Pophale) SiO2 
 PCOD9298303
Probable space group: C 2/C
;
_chemical_formula_sum "Si O2"
_cell_formula_units_Z 60
_cell_length_a 8.421228
_cell_length_b 24.652505
_cell_length_c 13.380343
_cell_angle_alpha 90.000000
_cell_angle_beta 74.890262
_cell_angle_gamma 90.000000
_cell_volume 2681.783855
_symmetry_space_group_name_H-M "C 2/C"
_symmetry_group_IT_number 15
_symmetry_cell_setting 'monoclinic'
loop_
_space_group_symop_operation_xyz
x,y,z
-x,y,1/2-z
-x,-y,-z
x,-y,1/2+z
1/2+x,1/2+y,z
1/2-x,1/2+y,1/2-z
1/2-x,1/2-y,-z
1/2+x,1/2-y,1/2+z
loop_
_atom_site_type_symbol
_atom_site_label
_atom_site_fract_x
_atom_site_fract_y
_atom_site_fract_z
Si Si1 0.620215 0.468855 0.092905
Si Si2 0.387625 0.040872 0.957918
Si Si3 0.052808 0.248457 0.533810
Si Si4 0.749965 0.008691 0.723084
Si Si5 0.000806 0.873060 0.527000
Si Si6 0.258874 0.618017 0.238632
Si Si7 0.648462 0.851030 0.978008
Si Si8 0.000000 0.702428 0.250000
O O1 0.726626 0.459717 0.176315
O O2 0.437464 0.488189 0.151696
O O3 0.708584 0.520015 0.027025
O O4 0.594499 0.416371 0.026857
O O5 0.369120 0.031499 0.842940
O O6 0.463926 0.097791 0.981240
O O7 0.500000 0.000000 0.000000
O O8 0.250000 0.250000 0.500000
O O9 0.025673 0.189214 0.496638
O O10 0.985289 0.258950 0.656811
O O11 0.948576 0.295171 0.491943
O O12 0.708765 0.945198 0.749279
O O13 0.931505 0.881029 0.651273
O O14 0.198039 0.871773 0.480693
O O15 0.224622 0.643052 0.354063
O O16 0.143099 0.659605 0.195936
#
# Coordination Sequence:
#
# PCOD9298303 Si02
#       8
#     8   8   8   8   8   8   8   4
#     4  11  24  40  67 102 141 188 232 283 364 439
#     4  12  25  39  65 101 145 183 229 297 358 430
#     4  11  25  46  73  99 137 184 242 309 363 425
#     4  11  23  41  64 101 142 187 233 279 356 444
#     4  12  23  44  72  99 141 186 237 298 366 436
#     4  11  22  36  71  98 138 175 236 293 349 436
#     4  11  25  44  67 106 135 181 246 300 356 432
#     4  10  24  44  66 106 126 182 244 300 360 422
#
# _framework density 22.373166000000001
#
# number of rings (size 3 to 8) (size 9 to 14) (size 15 to 20)
#    0.000    0.800    5.333    2.000    7.467    1.600 
#    0.000    0.000    0.000    0.000    0.000    0.000 
#    0.000    0.000    0.000    0.000    0.000    0.000 
#
# Total GULP energy -167153.528880 kJ/mol
# GULP energy per Si atom -5571.784296 kJ/mol
# Density = 2.232224 g / cm^3
# Si number density = 22.373166 Si / 1000 Ang^3
#
#
#
# Elastic Constant Matrix: (Units=GPa)
#
#
# Indices 1 2 3 4 5 6 
#
# 1 63.0524 24.8014 27.8925 0.0000 6.4586 0.0000
# 2 24.8014 163.6937 32.2705 0.0000 7.9383 0.0000
# 3 27.8925 32.2705 96.4792 0.0000 5.0814 0.0000
# 4 0.0000 0.0000 0.0000 34.1611 0.0000 -4.6385
# 5 6.4586 7.9383 5.0814 0.0000 44.8722 0.0000
# 6 0.0000 0.0000 0.0000 -4.6385 0.0000 11.6239
#
#
#
# Elastic Compliance Matrix: (Units=1/GPa)
#
#
# Indices 1 2 3 4 5 6 
#
# 1 0.018870 -0.001834 -0.004744 0.000000 -0.001854 0.000000
# 2 -0.001834 0.006756 -0.001691 0.000000 -0.000740 0.000000
# 3 -0.004744 -0.001691 0.012324 0.000000 -0.000414 0.000000
# 4 0.000000 0.000000 0.000000 0.030950 0.000000 0.012351
# 5 -0.001854 -0.000740 -0.000414 0.000000 0.022730 0.000000
# 6 0.000000 0.000000 0.000000 0.012351 0.000000 0.090958
#
#
# Mechanical properties :
#
#
# Convention : Reuss Voigt Hill
#
# Bulk Modulus (GPa) = 46.70244 54.79491 50.74867
# Shear Modulus (GPa) = 24.24090 34.01550 29.12820
#
# Velocity S-wave (km/s) = 3.29520 3.90342 3.61214
# Velocity P-wave (km/s) = 5.94957 6.69777 6.33473
#
# Compressibility (1/GPa) = 0.02141216
#
# Stress axis : x y z
#
# Youngs Moduli (GPa) = 52.99473 148.01712 81.14387
#
# Poissons Ratio (x) = 0.27143 0.38497
# Poissons Ratio (y) = 0.09718 0.13718
# Poissons Ratio (z) = 0.25142 0.25024
#
# Static dielectric constant tensor:
#      x y z
#    x 2.198490 0.000000 -0.115650 
#    y 0.000000 2.154670 0.000000 
#    z -0.115650 0.000000 1.948230 
# 
# From -- ./inp_files/137796.got.cif
#   From: 2010.05.17/outbox.cif.g08.bks.cpg/sg15_69_cif.got.tgz:137796.got - 2010.06.03 18:47:42.
