data_PCOD9298946
_publ_section_title
;
Structure prediction by ZEFSAII (Michael W. Deem and Ramdas Pophale) SiO2 
 PCOD9298946
Probable space group: C 2/C
;
_chemical_formula_sum "Si O2"
_cell_formula_units_Z 44
_cell_length_a 16.924381
_cell_length_b 7.474739
_cell_length_c 17.007504
_cell_angle_alpha 90.000000
_cell_angle_beta 72.809174
_cell_angle_gamma 90.000000
_cell_volume 2055.421373
_symmetry_space_group_name_H-M "C 2/C"
_symmetry_group_IT_number 15
_symmetry_cell_setting 'monoclinic'
loop_
_space_group_symop_operation_xyz
x,y,z
-x,y,1/2-z
-x,-y,-z
x,-y,1/2+z
1/2+x,1/2+y,z
1/2-x,1/2+y,1/2-z
1/2-x,1/2-y,-z
1/2+x,1/2-y,1/2+z
loop_
_atom_site_type_symbol
_atom_site_label
_atom_site_fract_x
_atom_site_fract_y
_atom_site_fract_z
Si Si1 0.500000 0.388210 0.750000
Si Si2 0.668731 0.868254 0.506925
Si Si3 0.859598 0.267124 0.397227
Si Si4 0.285148 0.081919 0.157982
Si Si5 0.095119 0.973379 0.989325
Si Si6 0.144521 0.073116 0.806838
O O1 0.557158 0.267512 0.676763
O O2 0.565450 0.507791 0.779986
O O3 0.750000 0.750000 0.500000
O O4 0.600116 0.716303 0.530847
O O5 0.653975 0.032551 0.569242
O O6 0.675337 0.951824 0.418015
O O7 0.781300 0.203500 0.369720
O O8 0.867642 0.130860 0.468349
O O9 0.350817 0.215259 0.177694
O O10 0.228781 0.977083 0.236792
O O11 0.140833 0.974986 0.892121
O O12 0.000000 0.000000 0.000000
#
# Coordination Sequence:
#
# PCOD9298946 Si02
#       6
#     4   8   8   8   8   8
#     4  10  24  46  70  98 146 182 226 292 344 408
#     4  12  24  42  74 103 134 185 229 282 349 404
#     4  11  23  46  72 104 138 181 231 287 341 414
#     4  11  23  44  71 104 139 177 235 289 338 419
#     4  12  24  44  70 102 140 179 228 286 344 414
#     4  11  23  43  70 100 141 182 227 287 347 403
#
# _framework density 21.406801999999999
#
# number of rings (size 3 to 8) (size 9 to 14) (size 15 to 20)
#    0.000    0.727    5.455    2.727    0.000    0.727 
#    0.000    2.727    0.000    0.000    0.000    0.000 
#    0.000    0.000    0.000    0.000    0.000    0.000 
#
# Total GULP energy -123103.577582 kJ/mol
# GULP energy per Si atom -5595.617163 kJ/mol
# Density = 2.135808 g / cm^3
# Si number density = 21.406802 Si / 1000 Ang^3
#
#
#
# Elastic Constant Matrix: (Units=GPa)
#
#
# Indices 1 2 3 4 5 6 
#
# 1 76.9703 51.8202 22.6762 0.0000 -0.4360 0.0000
# 2 51.8202 162.0140 31.7750 0.0000 11.7424 0.0000
# 3 22.6762 31.7750 82.9441 0.0000 8.3847 0.0000
# 4 0.0000 0.0000 0.0000 27.8188 0.0000 11.5034
# 5 -0.4360 11.7424 8.3847 0.0000 26.3382 0.0000
# 6 0.0000 0.0000 0.0000 11.5034 0.0000 33.1516
#
#
#
# Elastic Compliance Matrix: (Units=1/GPa)
#
#
# Indices 1 2 3 4 5 6 
#
# 1 0.017458 -0.005232 -0.003135 0.000000 0.003619 0.000000
# 2 -0.005232 0.008371 -0.001437 0.000000 -0.003361 0.000000
# 3 -0.003135 -0.001437 0.013850 0.000000 -0.003820 0.000000
# 4 0.000000 0.000000 0.000000 0.041969 0.000000 -0.014563
# 5 0.003619 -0.003361 -0.003820 0.000000 0.040742 0.000000
# 6 0.000000 0.000000 0.000000 -0.014563 0.000000 0.035218
#
#
# Mechanical properties :
#
#
# Convention : Reuss Voigt Hill
#
# Bulk Modulus (GPa) = 49.81782 59.38570 54.60176
# Shear Modulus (GPa) = 27.18798 31.83888 29.51343
#
# Velocity S-wave (km/s) = 3.56766 3.86077 3.71710
# Velocity P-wave (km/s) = 6.34771 6.90477 6.63209
#
# Compressibility (1/GPa) = 0.02007314
#
# Stress axis : x y z
#
# Youngs Moduli (GPa) = 57.27988 119.45986 72.20263
#
# Poissons Ratio (x) = 0.62496 0.22633
# Poissons Ratio (y) = 0.29966 0.10374
# Poissons Ratio (z) = 0.17955 0.17164
#
# Static dielectric constant tensor:
#      x y z
#    x 1.697750 0.000000 -0.005070 
#    y 0.000000 1.661850 0.000000 
#    z -0.005070 0.000000 1.806810 
# 
# From -- ./inp_files/212859.got.cif
#   From: 2010.05.17/outbox.cif.g08.bks.cpg/sg15_107_cif.got.tgz:212859.got - 2010.06.03 18:47:42.
