data_PCOD9298374
_publ_section_title
;
Structure prediction by ZEFSAII (Michael W. Deem and Ramdas Pophale) SiO2 
 PCOD9298374
Probable space group: C 2/C
;
_chemical_formula_sum "Si O2"
_cell_formula_units_Z 60
_cell_length_a 10.973969
_cell_length_b 18.138151
_cell_length_c 14.314123
_cell_angle_alpha 90.000000
_cell_angle_beta 74.616936
_cell_angle_gamma 90.000000
_cell_volume 2747.114991
_symmetry_space_group_name_H-M "C 2/C"
_symmetry_group_IT_number 15
_symmetry_cell_setting 'monoclinic'
loop_
_space_group_symop_operation_xyz
x,y,z
-x,y,1/2-z
-x,-y,-z
x,-y,1/2+z
1/2+x,1/2+y,z
1/2-x,1/2+y,1/2-z
1/2-x,1/2-y,-z
1/2+x,1/2-y,1/2+z
loop_
_atom_site_type_symbol
_atom_site_label
_atom_site_fract_x
_atom_site_fract_y
_atom_site_fract_z
Si Si1 0.264074 0.771636 0.792611
Si Si2 0.526670 0.630631 0.952233
Si Si3 0.000509 0.419274 0.544894
Si Si4 0.165413 0.277788 0.931924
Si Si5 0.441179 0.380917 0.660359
Si Si6 0.500000 0.879103 0.750000
Si Si7 0.737168 0.380070 0.095846
Si Si8 0.363107 0.532379 0.725296
O O1 0.258636 0.771324 0.680836
O O2 0.136564 0.809673 0.853086
O O3 0.381975 0.824434 0.788099
O O4 0.279869 0.694283 0.840278
O O5 0.554631 0.717369 0.941693
O O6 0.385557 0.613007 0.945052
O O7 0.622074 0.588983 0.863072
O O8 0.538274 0.603751 0.056882
O O9 0.134176 0.383331 0.487412
O O10 0.000000 0.500000 0.500000
O O11 0.892099 0.359139 0.540886
O O12 0.988962 0.425536 0.658655
O O13 0.250000 0.250000 0.000000
O O14 0.500000 0.369910 0.750000
O O15 0.348190 0.450529 0.689568
O O16 0.733478 0.443756 0.175541
O O17 0.500000 0.533357 0.750000
#
# Coordination Sequence:
#
# PCOD9298374 Si02
#       8
#     8   8   8   8   8   4   8   8
#     4  11  22  40  68  93 132 173 224 279 322 405
#     4  11  21  42  70  93 129 170 224 278 328 394
#     4  11  26  47  69 101 142 181 231 287 347 421
#     4  11  24  44  66  99 140 182 224 278 347 405
#     4  11  23  38  60  92 131 167 213 268 335 397
#     4  10  24  44  68  96 130 178 230 280 346 388
#     4  11  22  42  70 101 124 174 232 276 327 399
#     4   9  21  38  63  97 127 159 214 273 329 387
#
# _framework density 21.841094999999999
#
# number of rings (size 3 to 8) (size 9 to 14) (size 15 to 20)
#    0.000    1.333    1.333    4.400    4.667    1.600 
#    9.600    0.000    0.000    0.000    0.000    0.000 
#    0.000    0.000    0.000    0.000    0.000    0.000 
#
# Total GULP energy -167721.519724 kJ/mol
# GULP energy per Si atom -5590.717324 kJ/mol
# Density = 2.179138 g / cm^3
# Si number density = 21.841095 Si / 1000 Ang^3
#
#
#
# Elastic Constant Matrix: (Units=GPa)
#
#
# Indices 1 2 3 4 5 6 
#
# 1 46.5241 2.6003 25.3128 0.0000 -1.9701 0.0000
# 2 2.6003 84.2852 23.4010 0.0000 8.0060 0.0000
# 3 25.3128 23.4010 128.0085 0.0000 0.4009 0.0000
# 4 0.0000 0.0000 0.0000 21.0371 0.0000 -0.5515
# 5 -1.9701 8.0060 0.4009 0.0000 30.7262 0.0000
# 6 0.0000 0.0000 0.0000 -0.5515 0.0000 15.9093
#
#
#
# Elastic Compliance Matrix: (Units=1/GPa)
#
#
# Indices 1 2 3 4 5 6 
#
# 1 0.024182 0.000465 -0.004871 0.000000 0.001493 0.000000
# 2 0.000465 0.012836 -0.002428 0.000000 -0.003283 0.000000
# 3 -0.004871 -0.002428 0.009219 0.000000 0.000200 0.000000
# 4 0.000000 0.000000 0.000000 0.047578 0.000000 0.001649
# 5 0.001493 -0.003283 0.000200 0.000000 0.033494 0.000000
# 6 0.000000 0.000000 0.000000 0.001649 0.000000 0.062913
#
#
# Mechanical properties :
#
#
# Convention : Reuss Voigt Hill
#
# Bulk Modulus (GPa) = 30.70617 40.16067 35.43342
# Shear Modulus (GPa) = 23.28312 27.36811 25.32562
#
# Velocity S-wave (km/s) = 3.26854 3.54369 3.40890
# Velocity P-wave (km/s) = 5.32296 5.93054 5.63494
#
# Compressibility (1/GPa) = 0.03256674
#
# Stress axis : x y z
#
# Youngs Moduli (GPa) = 41.35322 77.90495 108.47719
#
# Poissons Ratio (x) = -0.03620 0.52844
# Poissons Ratio (y) = -0.01921 0.26340
# Poissons Ratio (z) = 0.20145 0.18917
#
# Static dielectric constant tensor:
#      x y z
#    x 1.806800 0.000000 -0.006670 
#    y 0.000000 1.799090 0.000000 
#    z -0.006670 0.000000 1.832230 
# 
# From -- ./inp_files/145643.got.cif
#   From: 2010.05.17/outbox.cif.g08.bks.cpg/sg15_73_cif.got.tgz:145643.got - 2010.06.03 18:47:42.
