data_PCOD9298142
_publ_section_title
;
Structure prediction by ZEFSAII (Michael W. Deem and Ramdas Pophale) SiO2 
 PCOD9298142
Probable space group: C 2/C
;
_chemical_formula_sum "Si O2"
_cell_formula_units_Z 40
_cell_length_a 10.414724
_cell_length_b 20.786820
_cell_length_c 6.858740
_cell_angle_alpha 90.000000
_cell_angle_beta 91.926678
_cell_angle_gamma 90.000000
_cell_volume 1484.002291
_symmetry_space_group_name_H-M "C 2/C"
_symmetry_group_IT_number 15
_symmetry_cell_setting 'monoclinic'
loop_
_space_group_symop_operation_xyz
x,y,z
-x,y,1/2-z
-x,-y,-z
x,-y,1/2+z
1/2+x,1/2+y,z
1/2-x,1/2+y,1/2-z
1/2-x,1/2-y,-z
1/2+x,1/2-y,1/2+z
loop_
_atom_site_type_symbol
_atom_site_label
_atom_site_fract_x
_atom_site_fract_y
_atom_site_fract_z
Si Si1 0.372585 0.546589 0.332812
Si Si2 0.099316 0.479007 0.387525
Si Si3 0.848060 0.842300 0.104536
Si Si4 0.626459 0.200199 0.341100
Si Si5 0.747449 0.860763 0.511840
O O1 0.500000 0.514635 0.250000
O O2 0.246519 0.506365 0.381152
O O3 0.407233 0.595795 0.508211
O O4 0.322945 0.593787 0.162571
O O5 0.065496 0.509329 0.627871
O O6 0.125978 0.403001 0.428415
O O7 0.902065 0.770412 0.072482
O O8 0.834067 0.846850 0.332409
O O9 0.704521 0.838522 0.005098
O O10 0.500000 0.167739 0.250000
O O11 0.712249 0.199132 0.149427
#
# Coordination Sequence:
#
# PCOD9298142 Si02
#       5
#     8   8   8   8   8
#     4  11  27  47  72 108 153 195 251 307 370 454
#     4  12  25  46  73 106 148 191 247 306 365 441
#     4  10  24  47  67 105 144 194 243 305 378 440
#     4  10  24  43  70 105 145 186 253 307 365 450
#     4  11  25  44  74 103 147 194 246 303 378 437
#
# _framework density 26.954135000000001
#
# number of rings (size 3 to 8) (size 9 to 14) (size 15 to 20)
#    0.000    1.200    2.000    1.800   11.200    0.800 
#    0.000    0.000    0.000    0.000    0.000    0.000 
#    0.000    0.000    0.000    0.000    0.000    0.000 
#
# Total GULP energy -111696.722290 kJ/mol
# GULP energy per Si atom -5584.836115 kJ/mol
# Density = 2.689279 g / cm^3
# Si number density = 26.954135 Si / 1000 Ang^3
#
#
#
# Elastic Constant Matrix: (Units=GPa)
#
#
# Indices 1 2 3 4 5 6 
#
# 1 157.9616 35.1444 41.8488 0.0000 -10.1757 0.0000
# 2 35.1444 104.3683 40.8616 0.0000 -3.4776 0.0000
# 3 41.8488 40.8616 155.9665 0.0000 -6.7239 0.0000
# 4 0.0000 0.0000 0.0000 51.5820 0.0000 4.8140
# 5 -10.1757 -3.4776 -6.7239 0.0000 54.2445 0.0000
# 6 0.0000 0.0000 0.0000 4.8140 0.0000 14.5687
#
#
#
# Elastic Compliance Matrix: (Units=1/GPa)
#
#
# Indices 1 2 3 4 5 6 
#
# 1 0.007177 -0.001834 -0.001400 0.000000 0.001055 0.000000
# 2 -0.001834 0.011151 -0.002426 0.000000 0.000070 0.000000
# 3 -0.001400 -0.002426 0.007445 0.000000 0.000505 0.000000
# 4 0.000000 0.000000 0.000000 0.020003 0.000000 -0.006610
# 5 0.001055 0.000070 0.000505 0.000000 0.018700 0.000000
# 6 0.000000 0.000000 0.000000 -0.006610 0.000000 0.070824
#
#
# Mechanical properties :
#
#
# Convention : Reuss Voigt Hill
#
# Bulk Modulus (GPa) = 69.18838 72.66733 70.92786
# Shear Modulus (GPa) = 33.01655 44.10850 38.56252
#
# Velocity S-wave (km/s) = 3.50368 4.04967 3.78653
# Velocity P-wave (km/s) = 6.48786 6.99175 6.74451
#
# Compressibility (1/GPa) = 0.01445329
#
# Stress axis : x y z
#
# Youngs Moduli (GPa) = 139.32453 89.67610 134.32304
#
# Poissons Ratio (x) = 0.16443 0.18805
# Poissons Ratio (y) = 0.25547 0.32593
# Poissons Ratio (z) = 0.19505 0.21760
#
# Static dielectric constant tensor:
#      x y z
#    x 2.153930 0.000000 -0.001410 
#    y 0.000000 2.102160 0.000000 
#    z -0.001410 0.000000 2.436990 
# 
# From -- ./inp_files/4886.got.cif
#   From: 2010.05.17/outbox.cif.g08.bks.cpg/sg15_3_cif.got.tgz:4886.got - 2010.06.03 18:47:42.
