data_PCOD9298095
_publ_section_title
;
Structure prediction by ZEFSAII (Michael W. Deem and Ramdas Pophale) SiO2 
 PCOD9298095
Probable space group: C 2/C
;
_chemical_formula_sum "Si O2"
_cell_formula_units_Z 32
_cell_length_a 23.986632
_cell_length_b 4.814751
_cell_length_c 19.482164
_cell_angle_alpha 90.000000
_cell_angle_beta 145.925164
_cell_angle_gamma 90.000000
_cell_volume 1260.612896
_symmetry_space_group_name_H-M "C 2/C"
_symmetry_group_IT_number 15
_symmetry_cell_setting 'monoclinic'
loop_
_space_group_symop_operation_xyz
x,y,z
-x,y,1/2-z
-x,-y,-z
x,-y,1/2+z
1/2+x,1/2+y,z
1/2-x,1/2+y,1/2-z
1/2-x,1/2-y,-z
1/2+x,1/2-y,1/2+z
loop_
_atom_site_type_symbol
_atom_site_label
_atom_site_fract_x
_atom_site_fract_y
_atom_site_fract_z
Si Si1 0.951913 0.033481 0.820603
Si Si2 0.837330 0.198313 0.495985
Si Si3 0.137235 0.538541 0.842984
Si Si4 0.277859 0.450988 0.736136
O O1 0.906469 0.841627 0.713689
O O2 0.919291 0.345930 0.769808
O O3 0.891554 0.942924 0.826462
O O4 0.069879 0.033861 0.940540
O O5 0.875621 0.397349 0.596550
O O6 0.784711 0.400433 0.387667
O O7 0.753282 0.995026 0.441739
O O8 0.239327 0.148594 0.716144
#
# Coordination Sequence:
#
# PCOD9298095 Si02
#       4
#     8   8   8   8
#     4  11  24  43  70 101 134 176 223 275 342 407
#     4  10  24  44  71  98 139 180 215 283 346 389
#     4  10  24  43  68 105 135 166 223 280 341 414
#     4  11  25  44  65  97 138 182 236 275 315 397
#
# _framework density 25.38448
#
# number of rings (size 3 to 8) (size 9 to 14) (size 15 to 20)
#    0.000    1.500    0.000    3.750    0.000   23.000 
#    0.000    2.500    0.000    0.000    0.000    0.000 
#    0.000    0.000    0.000    0.000    0.000    0.000 
#
# Total GULP energy -89792.525722 kJ/mol
# GULP energy per Si atom -5612.032858 kJ/mol
# Density = 2.532670 g / cm^3
# Si number density = 25.384480 Si / 1000 Ang^3
#
#
#
# Elastic Constant Matrix: (Units=GPa)
#
#
# Indices 1 2 3 4 5 6 
#
# 1 163.4456 18.8042 38.6387 -0.0001 45.1175 -0.0001
# 2 18.8042 101.1605 7.2927 -0.0008 11.6675 -0.0013
# 3 38.6387 7.2927 59.4682 0.0000 31.8753 -0.0004
# 4 -0.0001 -0.0008 0.0000 30.6489 0.0001 -15.2140
# 5 45.1175 11.6675 31.8753 0.0001 58.2605 0.0001
# 6 -0.0001 -0.0013 -0.0004 -15.2140 0.0001 36.2232
#
#
#
# Elastic Compliance Matrix: (Units=1/GPa)
#
#
# Indices 1 2 3 4 5 6 
#
# 1 0.008132 -0.000779 -0.002683 0.000000 -0.004674 0.000000
# 2 -0.000779 0.010196 0.000038 0.000001 -0.001459 0.000001
# 3 -0.002683 0.000038 0.024683 0.000000 -0.011434 0.000000
# 4 0.000000 0.000001 0.000000 0.041222 0.000000 0.017313
# 5 -0.004674 -0.001459 -0.011434 0.000000 0.027332 0.000000
# 6 0.000000 0.000001 0.000000 0.017313 0.000000 0.034878
#
#
# Mechanical properties :
#
#
# Convention : Reuss Voigt Hill
#
# Bulk Modulus (GPa) = 27.65273 50.39395 39.02334
# Shear Modulus (GPa) = 30.23958 42.31576 36.27767
#
# Velocity S-wave (km/s) = 3.45521 4.08731 3.78448
# Velocity P-wave (km/s) = 5.18027 6.49386 5.87390
#
# Compressibility (1/GPa) = 0.03616280
#
# Stress axis : x y z
#
# Youngs Moduli (GPa) = 122.96605 98.08080 40.51322
#
# Poissons Ratio (x) = 0.07642 0.10870
# Poissons Ratio (y) = 0.09581 -0.00154
# Poissons Ratio (z) = 0.32994 -0.00374
#
# Static dielectric constant tensor:
#      x y z
#    x 2.018070 0.000000 -0.029060 
#    y 0.000000 1.907850 0.000000 
#    z -0.029060 0.000000 1.993770 
# 
# From -- ./inp_files/175083.got.cif
#   From: 2010.05.17/outbox.cif.g08.bks.cpg/sg15_88_cif.got.tgz:175083.got - 2010.06.03 18:47:42.
