data_PCOD9298331
_publ_section_title
;
Structure prediction by ZEFSAII (Michael W. Deem and Ramdas Pophale) SiO2 
 PCOD9298331
Probable space group: C 2/C
;
_chemical_formula_sum "Si O2"
_cell_formula_units_Z 48
_cell_length_a 21.917748
_cell_length_b 15.842295
_cell_length_c 12.025786
_cell_angle_alpha 90.000000
_cell_angle_beta 32.746147
_cell_angle_gamma 90.000000
_cell_volume 2258.701602
_symmetry_space_group_name_H-M "C 2/C"
_symmetry_group_IT_number 15
_symmetry_cell_setting 'monoclinic'
loop_
_space_group_symop_operation_xyz
x,y,z
-x,y,1/2-z
-x,-y,-z
x,-y,1/2+z
1/2+x,1/2+y,z
1/2-x,1/2+y,1/2-z
1/2-x,1/2-y,-z
1/2+x,1/2-y,1/2+z
loop_
_atom_site_type_symbol
_atom_site_label
_atom_site_fract_x
_atom_site_fract_y
_atom_site_fract_z
Si Si1 0.000000 0.463472 0.250000
Si Si2 0.669791 0.897887 0.580645
Si Si3 0.998288 0.810871 0.876197
Si Si4 0.500000 0.244242 0.250000
Si Si5 0.117021 0.031739 0.875593
Si Si6 0.864017 0.658319 0.122288
Si Si7 0.643925 0.344291 0.853344
O O1 0.088556 0.523406 0.177475
O O2 0.934933 0.407225 0.440165
O O3 0.603699 0.817034 0.629039
O O4 0.790922 0.923076 0.343855
O O5 0.679259 0.881602 0.697025
O O6 0.000000 0.775163 0.750000
O O7 0.108908 0.833999 0.778096
O O8 0.922843 0.894910 0.981565
O O9 0.940817 0.737650 0.035607
O O10 0.451170 0.304197 0.421941
O O11 0.163236 0.943614 0.850187
O O12 0.000000 0.000000 0.000000
O O13 0.762589 0.695361 0.203755
#
# Coordination Sequence:
#
# PCOD9298331 Si02
#       7
#     4   8   8   4   8   8   8
#     4  11  24  48  67 106 136 188 245 296 376 427
#     4  11  24  46  72 103 142 191 239 299 364 429
#     4  11  25  45  65 100 147 185 232 294 363 428
#     4  11  24  42  75 104 148 182 249 298 352 431
#     4  10  24  44  67 104 140 183 239 290 363 426
#     4  12  24  45  74 101 143 186 241 304 357 439
#     4  11  25  43  70 109 136 192 239 296 358 428
#
# _framework density 21.251147
#
# number of rings (size 3 to 8) (size 9 to 14) (size 15 to 20)
#    0.000    1.000    4.167    1.500    5.833    3.333 
#    0.000    0.000    0.000    0.000    0.000    0.000 
#    0.000    0.000    0.000    0.000    0.000    0.000 
#
# Total GULP energy -133919.320314 kJ/mol
# GULP energy per Si atom -5579.971680 kJ/mol
# Density = 2.120278 g / cm^3
# Si number density = 21.251147 Si / 1000 Ang^3
#
#
#
# Elastic Constant Matrix: (Units=GPa)
#
#
# Indices 1 2 3 4 5 6 
#
# 1 103.1916 8.3384 35.3507 0.0000 8.9211 0.0000
# 2 8.3384 87.5145 25.7408 0.0000 13.2854 0.0000
# 3 35.3507 25.7408 110.6471 0.0000 4.0394 0.0000
# 4 0.0000 0.0000 0.0000 42.4406 0.0000 -0.3878
# 5 8.9211 13.2854 4.0394 0.0000 26.4844 0.0000
# 6 0.0000 0.0000 0.0000 -0.3878 0.0000 19.6378
#
#
#
# Elastic Compliance Matrix: (Units=1/GPa)
#
#
# Indices 1 2 3 4 5 6 
#
# 1 0.011170 0.000511 -0.003561 0.000000 -0.003476 0.000000
# 2 0.000511 0.013227 -0.003008 0.000000 -0.006348 0.000000
# 3 -0.003561 -0.003008 0.010837 0.000000 0.001056 0.000000
# 4 0.000000 0.000000 0.000000 0.023567 0.000000 0.000465
# 5 -0.003476 -0.006348 0.001056 0.000000 0.041952 0.000000
# 6 0.000000 0.000000 0.000000 0.000465 0.000000 0.050931
#
#
# Mechanical properties :
#
#
# Convention : Reuss Voigt Hill
#
# Bulk Modulus (GPa) = 43.25960 48.91257 46.08609
# Shear Modulus (GPa) = 29.15367 33.17411 31.16389
#
# Velocity S-wave (km/s) = 3.70789 3.95530 3.83359
# Velocity P-wave (km/s) = 6.22349 6.62764 6.42874
#
# Compressibility (1/GPa) = 0.02311625
#
# Stress axis : x y z
#
# Youngs Moduli (GPa) = 89.52831 75.60543 92.27962
#
# Poissons Ratio (x) = -0.03861 0.32856
# Poissons Ratio (y) = -0.04571 0.27761
# Poissons Ratio (z) = 0.31877 0.22745
#
# Static dielectric constant tensor:
#      x y z
#    x 1.763440 0.000000 -0.077790 
#    y 0.000000 1.808250 0.000000 
#    z -0.077790 0.000000 1.855300 
# 
# From -- ./inp_files/119394.got.cif
#   From: 2010.05.17/outbox.cif.g08.bks.cpg/sg15_60_cif.got.tgz:119394.got - 2010.06.03 18:47:42.
