data_PCOD9298692
_publ_section_title
;
Structure prediction by ZEFSAII (Michael W. Deem and Ramdas Pophale) SiO2 
 PCOD9298692
Probable space group: C 2/C
;
_chemical_formula_sum "Si O2"
_cell_formula_units_Z 52
_cell_length_a 12.943128
_cell_length_b 14.766007
_cell_length_c 12.188375
_cell_angle_alpha 90.000000
_cell_angle_beta 79.387511
_cell_angle_gamma 90.000000
_cell_volume 2289.577512
_symmetry_space_group_name_H-M "C 2/C"
_symmetry_group_IT_number 15
_symmetry_cell_setting 'monoclinic'
loop_
_space_group_symop_operation_xyz
x,y,z
-x,y,1/2-z
-x,-y,-z
x,-y,1/2+z
1/2+x,1/2+y,z
1/2-x,1/2+y,1/2-z
1/2-x,1/2-y,-z
1/2+x,1/2-y,1/2+z
loop_
_atom_site_type_symbol
_atom_site_label
_atom_site_fract_x
_atom_site_fract_y
_atom_site_fract_z
Si Si1 0.000000 0.100783 0.750000
Si Si2 0.737443 0.144347 0.587047
Si Si3 0.895312 0.688000 0.697851
Si Si4 0.524212 0.895696 0.996683
Si Si5 0.122973 0.268999 0.818215
Si Si6 0.269655 0.680228 0.095926
Si Si7 0.885462 0.990401 0.467487
O O1 0.065846 0.172579 0.810379
O O2 0.081169 0.041150 0.661993
O O3 0.693652 0.130207 0.721629
O O4 0.628983 0.125705 0.545310
O O5 0.789671 0.242278 0.605360
O O6 0.822057 0.082027 0.508382
O O7 0.857831 0.785809 0.665565
O O8 0.000000 0.693931 0.750000
O O9 0.924890 0.643285 0.578483
O O10 0.544746 0.843077 0.881287
O O11 0.500000 0.000000 0.000000
O O12 0.170961 0.309470 0.697373
O O13 0.250000 0.750000 0.000000
O O14 0.311958 0.587442 0.036111
O O15 0.000000 0.000000 0.500000
#
# Coordination Sequence:
#
# PCOD9298692 Si02
#       7
#     4   8   8   8   8   8   8
#     4  12  24  44  70 106 134 190 236 298 354 438
#     4  10  24  45  69  98 144 182 230 290 359 427
#     4   9  22  46  65  94 137 179 231 283 353 424
#     4  11  25  41  71 105 134 181 235 296 351 424
#     4  11  24  45  71  99 145 185 237 293 364 426
#     4  11  24  43  72  99 135 191 236 291 357 423
#     4  12  26  44  69 104 144 180 238 297 355 425
#
# _framework density 22.711613
#
# number of rings (size 3 to 8) (size 9 to 14) (size 15 to 20)
#    0.000    1.231    3.077    1.385    4.308    1.231 
#    2.769    0.000    0.000    0.000    0.000    0.000 
#    0.000    0.000    0.000    0.000    0.000    0.000 
#
# Total GULP energy -144868.423302 kJ/mol
# GULP energy per Si atom -5571.862435 kJ/mol
# Density = 2.265992 g / cm^3
# Si number density = 22.711613 Si / 1000 Ang^3
#
#
#
# Elastic Constant Matrix: (Units=GPa)
#
#
# Indices 1 2 3 4 5 6 
#
# 1 81.7836 24.0053 23.8385 0.0000 -6.7771 0.0000
# 2 24.0053 98.1906 74.5218 0.0000 -25.3771 0.0000
# 3 23.8385 74.5218 169.6507 0.0000 -47.8476 0.0000
# 4 0.0000 0.0000 0.0000 38.4179 0.0000 -17.6661
# 5 -6.7771 -25.3771 -47.8476 0.0000 45.0424 0.0000
# 6 0.0000 0.0000 0.0000 -17.6661 0.0000 31.4559
#
#
#
# Elastic Compliance Matrix: (Units=1/GPa)
#
#
# Indices 1 2 3 4 5 6 
#
# 1 0.013225 -0.002758 -0.000748 0.000000 -0.000359 0.000000
# 2 -0.002758 0.015995 -0.006016 0.000000 0.002205 0.000000
# 3 -0.000748 -0.006016 0.010929 0.000000 0.008107 0.000000
# 4 0.000000 0.000000 0.000000 0.035092 0.000000 0.019708
# 5 -0.000359 0.002205 0.008107 0.000000 0.032002 0.000000
# 6 0.000000 0.000000 0.000000 0.019708 0.000000 0.042859
#
#
# Mechanical properties :
#
#
# Convention : Reuss Voigt Hill
#
# Bulk Modulus (GPa) = 47.38478 66.03955 56.71216
# Shear Modulus (GPa) = 28.37976 38.13386 33.25681
#
# Velocity S-wave (km/s) = 3.53876 4.10206 3.83078
# Velocity P-wave (km/s) = 6.13238 7.18167 6.67767
#
# Compressibility (1/GPa) = 0.02110382
#
# Stress axis : x y z
#
# Youngs Moduli (GPa) = 75.61261 62.52060 91.50079
#
# Poissons Ratio (x) = 0.17246 0.06843
# Poissons Ratio (y) = 0.20857 0.55050
# Poissons Ratio (z) = 0.05655 0.37614
#
# Static dielectric constant tensor:
#      x y z
#    x 1.905820 0.000000 0.040790 
#    y 0.000000 1.760670 0.000000 
#    z 0.040790 0.000000 1.911590 
# 
# From -- ./inp_files/96965.got.cif
#   From: 2010.05.17/outbox.cif.g08.bks.cpg/sg15_49_cif.got.tgz:96965.got - 2010.06.03 18:47:42.
