data_PCOD9298255
_publ_section_title
;
Structure prediction by ZEFSAII (Michael W. Deem and Ramdas Pophale) SiO2 
 PCOD9298255
Probable space group: C 2/C
;
_chemical_formula_sum "Si O2"
_cell_formula_units_Z 60
_cell_length_a 21.061904
_cell_length_b 18.302108
_cell_length_c 8.001917
_cell_angle_alpha 90.000000
_cell_angle_beta 107.864106
_cell_angle_gamma 90.000000
_cell_volume 2935.840431
_symmetry_space_group_name_H-M "C 2/C"
_symmetry_group_IT_number 15
_symmetry_cell_setting 'monoclinic'
loop_
_space_group_symop_operation_xyz
x,y,z
-x,y,1/2-z
-x,-y,-z
x,-y,1/2+z
1/2+x,1/2+y,z
1/2-x,1/2+y,1/2-z
1/2-x,1/2-y,-z
1/2+x,1/2-y,1/2+z
loop_
_atom_site_type_symbol
_atom_site_label
_atom_site_fract_x
_atom_site_fract_y
_atom_site_fract_z
Si Si1 0.349638 0.807105 0.621931
Si Si2 0.972624 0.576371 0.544127
Si Si3 0.670931 0.947348 0.686752
Si Si4 0.224140 0.182411 0.800092
Si Si5 0.355832 0.564428 0.544126
Si Si6 0.751904 0.562421 0.569991
Si Si7 0.449177 0.459269 0.837428
Si Si8 0.000000 0.320261 0.750000
O O1 0.341640 0.891201 0.672439
O O2 0.298376 0.799295 0.426950
O O3 0.317862 0.756292 0.739616
O O4 0.426831 0.784747 0.664379
O O5 0.893901 0.562735 0.478838
O O6 0.990234 0.633574 0.412702
O O7 0.000000 0.593988 0.750000
O O8 0.000000 0.500000 0.500000
O O9 0.730243 0.928009 0.608411
O O10 0.687074 0.026824 0.774219
O O11 0.184880 0.129565 0.900691
O O12 0.228907 0.136288 0.636598
O O13 0.303565 0.500450 0.459214
O O14 0.406876 0.522760 0.710192
O O15 0.397841 0.585152 0.412445
O O16 0.500000 0.419656 0.750000
O O17 0.500000 0.500000 0.000000
#
# Coordination Sequence:
#
# PCOD9298255 Si02
#       8
#     8   8   8   8   8   8   8   4
#     4  10  24  45  60  89 124 172 212 252 318 390
#     4  11  22  34  59  95 126 166 210 260 322 383
#     4  11  22  36  59  92 128 158 204 261 317 367
#     4  11  23  39  66  90 123 165 213 253 316 386
#     4  11  18  35  58  91 118 154 202 257 311 367
#     4  12  21  35  64  93 123 156 203 266 313 368
#     4   9  19  33  53  84 123 153 192 251 314 361
#     4  10  24  44  64  84 136 170 216 266 320 394
#
# _framework density 20.437076999999999
#
# number of rings (size 3 to 8) (size 9 to 14) (size 15 to 20)
#    0.000    1.333    4.667    0.800    5.600    0.533 
#    3.600    0.000    0.000    0.800    0.000    0.000 
#    0.000    0.000    0.000    0.000    0.000    0.000 
#
# Total GULP energy -167278.945879 kJ/mol
# GULP energy per Si atom -5575.964863 kJ/mol
# Density = 2.039056 g / cm^3
# Si number density = 20.437077 Si / 1000 Ang^3
#
#
#
# Elastic Constant Matrix: (Units=GPa)
#
#
# Indices 1 2 3 4 5 6 
#
# 1 115.3201 -3.2453 30.3509 0.0000 8.7222 0.0000
# 2 -3.2453 23.3549 -10.0723 0.0000 8.1140 0.0000
# 3 30.3509 -10.0723 80.2493 0.0000 9.1960 0.0000
# 4 0.0000 0.0000 0.0000 17.6262 0.0000 -8.8084
# 5 8.7222 8.1140 9.1960 0.0000 41.1732 0.0000
# 6 0.0000 0.0000 0.0000 -8.8084 0.0000 25.1327
#
#
#
# Elastic Compliance Matrix: (Units=1/GPa)
#
#
# Indices 1 2 3 4 5 6 
#
# 1 0.009696 0.000315 -0.003474 0.000000 -0.001340 0.000000
# 2 0.000315 0.050137 0.007506 0.000000 -0.011623 0.000000
# 3 -0.003474 0.007506 0.015191 0.000000 -0.004136 0.000000
# 4 0.000000 0.000000 0.000000 0.068781 0.000000 0.024106
# 5 -0.001340 -0.011623 -0.004136 0.000000 0.027786 0.000000
# 6 0.000000 0.000000 0.000000 0.024106 0.000000 0.048237
#
#
# Mechanical properties :
#
#
# Convention : Reuss Voigt Hill
#
# Bulk Modulus (GPa) = 11.94510 28.11009 20.02759
# Shear Modulus (GPa) = 20.91695 30.24581 25.58138
#
# Velocity S-wave (km/s) = 3.20266 3.85118 3.54180
# Velocity P-wave (km/s) = 4.41968 5.79308 5.15235
#
# Compressibility (1/GPa) = 0.08371636
#
# Stress axis : x y z
#
# Youngs Moduli (GPa) = 103.13465 19.94552 65.82801
#
# Poissons Ratio (x) = -0.00628 0.22869
# Poissons Ratio (y) = -0.03245 -0.49409
# Poissons Ratio (z) = 0.35830 -0.14971
#
# Static dielectric constant tensor:
#      x y z
#    x 1.815440 0.000000 0.031420 
#    y 0.000000 1.708060 0.000000 
#    z 0.031420 0.000000 1.765580 
# 
# From -- ./inp_files/56673.got.cif
#   From: 2010.05.17/outbox.cif.g08.bks.cpg/sg15_29_cif.got.tgz:56673.got - 2010.06.03 18:47:42.
