data_PCOD9298261
_publ_section_title
;
Structure prediction by ZEFSAII (Michael W. Deem and Ramdas Pophale) SiO2 
 PCOD9298261
Probable space group: C 2/C
;
_chemical_formula_sum "Si O2"
_cell_formula_units_Z 32
_cell_length_a 9.591497
_cell_length_b 29.781989
_cell_length_c 5.213078
_cell_angle_alpha 90.000000
_cell_angle_beta 92.660109
_cell_angle_gamma 90.000000
_cell_volume 1487.531195
_symmetry_space_group_name_H-M "C 2/C"
_symmetry_group_IT_number 15
_symmetry_cell_setting 'monoclinic'
loop_
_space_group_symop_operation_xyz
x,y,z
-x,y,1/2-z
-x,-y,-z
x,-y,1/2+z
1/2+x,1/2+y,z
1/2-x,1/2+y,1/2-z
1/2-x,1/2-y,-z
1/2+x,1/2-y,1/2+z
loop_
_atom_site_type_symbol
_atom_site_label
_atom_site_fract_x
_atom_site_fract_y
_atom_site_fract_z
Si Si1 0.500000 0.151391 0.250000
Si Si2 0.142564 0.832907 0.171736
Si Si3 0.630778 0.224677 0.646568
Si Si4 0.702276 0.387788 0.697276
Si Si5 0.500000 0.530981 0.250000
O O1 0.556464 0.185648 0.473254
O O2 0.634432 0.119542 0.217999
O O3 0.271570 0.799871 0.138225
O O4 0.178264 0.866887 0.411073
O O5 0.000000 0.809583 0.250000
O O6 0.125098 0.859308 0.910088
O O7 0.500000 0.251487 0.750000
O O8 0.750000 0.250000 0.500000
O O9 0.634784 0.436609 0.724672
O O10 0.500000 0.500000 0.500000
#
# Coordination Sequence:
#
# PCOD9298261 Si02
#       5
#     4   8   8   8   4
#     4  10  24  44  64  93 126 190 234 261 336 404
#     4  11  21  40  66  95 126 185 232 265 333 399
#     4  11  25  41  63  95 139 180 232 302 337 388
#     4  11  22  42  69  94 136 173 222 266 325 427
#     4  12  24  42  68 111 136 162 210 281 352 400
#
# _framework density 21.512155
#
# number of rings (size 3 to 8) (size 9 to 14) (size 15 to 20)
#    0.000    1.000    5.000    1.500    1.750    5.000 
#    0.000    1.250    0.000    0.000    0.000    0.000 
#    0.000    0.000    0.000    0.000    0.000    0.000 
#
# Total GULP energy -89346.890036 kJ/mol
# GULP energy per Si atom -5584.180627 kJ/mol
# Density = 2.146319 g / cm^3
# Si number density = 21.512155 Si / 1000 Ang^3
#
#
#
# Elastic Constant Matrix: (Units=GPa)
#
#
# Indices 1 2 3 4 5 6 
#
# 1 227.4667 67.7666 40.6162 0.0000 -19.3127 0.0000
# 2 67.7666 99.9471 45.7791 0.0000 -5.1977 0.0000
# 3 40.6162 45.7791 123.1282 0.0000 -1.5373 0.0000
# 4 0.0000 0.0000 0.0000 38.7213 0.0000 -3.8775
# 5 -19.3127 -5.1977 -1.5373 0.0000 39.1047 0.0000
# 6 0.0000 0.0000 0.0000 -3.8775 0.0000 36.7586
#
#
#
# Elastic Compliance Matrix: (Units=1/GPa)
#
#
# Indices 1 2 3 4 5 6 
#
# 1 0.005743 -0.003516 -0.000558 0.000000 0.002347 0.000000
# 2 -0.003516 0.014292 -0.004154 0.000000 0.000000 0.000000
# 3 -0.000558 -0.004154 0.009844 0.000000 -0.000441 0.000000
# 4 0.000000 0.000000 0.000000 0.026101 0.000000 0.002753
# 5 0.002347 0.000000 -0.000441 0.000000 0.026714 0.000000
# 6 0.000000 0.000000 0.000000 0.002753 0.000000 0.027495
#
#
# Mechanical properties :
#
#
# Convention : Reuss Voigt Hill
#
# Bulk Modulus (GPa) = 74.49572 84.31842 79.40707
# Shear Modulus (GPa) = 38.13321 42.67559 40.40440
#
# Velocity S-wave (km/s) = 4.21484 4.45881 4.33854
# Velocity P-wave (km/s) = 7.64141 8.11103 7.87972
#
# Compressibility (1/GPa) = 0.01342359
#
# Stress axis : x y z
#
# Youngs Moduli (GPa) = 174.13684 69.96960 101.57962
#
# Poissons Ratio (x) = 0.24602 0.05665
# Poissons Ratio (y) = 0.61229 0.42195
# Poissons Ratio (z) = 0.09712 0.29064
#
# Static dielectric constant tensor:
#      x y z
#    x 1.895700 0.000000 0.028490 
#    y 0.000000 1.815920 0.000000 
#    z 0.028490 0.000000 1.880070 
# 
# From -- ./inp_files/2422.got.cif
#   From: 2010.05.17/outbox.cif.g08.bks.cpg/sg15_2_cif.got.tgz:2422.got - 2010.06.03 18:47:42.
