data_PCOD9298972
_publ_section_title
;
Structure prediction by ZEFSAII (Michael W. Deem and Ramdas Pophale) SiO2 
 PCOD9298972
Probable space group: C 2/C
;
_chemical_formula_sum "Si O2"
_cell_formula_units_Z 28
_cell_length_a 15.524840
_cell_length_b 14.719643
_cell_length_c 8.031564
_cell_angle_alpha 90.000000
_cell_angle_beta 141.465440
_cell_angle_gamma 90.000000
_cell_volume 1143.413267
_symmetry_space_group_name_H-M "C 2/C"
_symmetry_group_IT_number 15
_symmetry_cell_setting 'monoclinic'
loop_
_space_group_symop_operation_xyz
x,y,z
-x,y,1/2-z
-x,-y,-z
x,-y,1/2+z
1/2+x,1/2+y,z
1/2-x,1/2+y,1/2-z
1/2-x,1/2-y,-z
1/2+x,1/2-y,1/2+z
loop_
_atom_site_type_symbol
_atom_site_label
_atom_site_fract_x
_atom_site_fract_y
_atom_site_fract_z
Si Si1 0.733496 0.279089 0.165155
Si Si2 0.644517 0.452411 0.187685
Si Si3 0.814988 0.593751 0.248555
Si Si4 0.000000 0.640677 0.250000
O O1 0.648638 0.372029 0.059179
O O2 0.663135 0.193245 0.145131
O O3 0.876795 0.300327 0.481069
O O4 0.750000 0.250000 0.000000
O O5 0.763054 0.523765 0.309219
O O6 0.687278 0.407406 0.426382
O O7 0.500000 0.500000 0.000000
O O8 0.942378 0.580617 0.315475
#
# Coordination Sequence:
#
# PCOD9298972 Si02
#       4
#     8   8   8   4
#     4  11  26  47  73 111 151 203 253 317 391 446
#     4  11  24  45  73 110 152 198 257 310 382 466
#     4  11  25  44  72 109 150 199 249 315 385 442
#     4  10  24  46  72 100 156 194 254 304 382 460
#
# _framework density 24.488083
#
# number of rings (size 3 to 8) (size 9 to 14) (size 15 to 20)
#    0.000    1.143    0.000    6.000    8.000    5.714 
#    0.000    0.000    0.000    0.000    0.000    0.000 
#    0.000    0.000    0.000    0.000    0.000    0.000 
#
# Total GULP energy -78319.156768 kJ/mol
# GULP energy per Si atom -5594.225483 kJ/mol
# Density = 2.443235 g / cm^3
# Si number density = 24.488083 Si / 1000 Ang^3
#
#
#
# Elastic Constant Matrix: (Units=GPa)
#
#
# Indices 1 2 3 4 5 6 
#
# 1 163.8961 72.3049 31.8807 0.0000 17.7262 0.0000
# 2 72.3049 150.0526 9.2132 0.0000 20.6306 0.0000
# 3 31.8807 9.2132 65.7648 0.0000 -3.3246 0.0000
# 4 0.0000 0.0000 0.0000 35.5155 0.0000 -7.2411
# 5 17.7262 20.6306 -3.3246 0.0000 36.5284 0.0000
# 6 0.0000 0.0000 0.0000 -7.2411 0.0000 55.3951
#
#
#
# Elastic Compliance Matrix: (Units=1/GPa)
#
#
# Indices 1 2 3 4 5 6 
#
# 1 0.008720 -0.003616 -0.003849 0.000000 -0.002539 0.000000
# 2 -0.003616 0.008825 0.000355 0.000000 -0.003197 0.000000
# 3 -0.003849 0.000355 0.017185 0.000000 0.003231 0.000000
# 4 0.000000 0.000000 0.000000 0.028928 0.000000 0.003781
# 5 -0.002539 -0.003197 0.003231 0.000000 0.030708 0.000000
# 6 0.000000 0.000000 0.000000 0.003781 0.000000 0.018546
#
#
# Mechanical properties :
#
#
# Convention : Reuss Voigt Hill
#
# Bulk Modulus (GPa) = 48.75762 67.39012 58.07387
# Shear Modulus (GPa) = 37.32205 43.24213 40.28209
#
# Velocity S-wave (km/s) = 3.90820 4.20675 4.06022
# Velocity P-wave (km/s) = 6.34975 7.15367 6.76366
#
# Compressibility (1/GPa) = 0.02050962
#
# Stress axis : x y z
#
# Youngs Moduli (GPa) = 114.67554 113.31851 58.18965
#
# Poissons Ratio (x) = 0.40982 0.22397
# Poissons Ratio (y) = 0.41472 -0.02067
# Poissons Ratio (z) = 0.44139 -0.04026
#
# Static dielectric constant tensor:
#      x y z
#    x 1.966590 0.000000 0.012020 
#    y 0.000000 1.969270 0.000000 
#    z 0.012020 0.000000 1.976630 
# 
# From -- ./inp_files/27736.got.cif
#   From: 2010.05.17/outbox.cif.g08.bks.cpg/sg15_14_cif.got.tgz:27736.got - 2010.06.03 18:47:42.
