data_PCOD9298401
_publ_section_title
;
Structure prediction by ZEFSAII (Michael W. Deem and Ramdas Pophale) SiO2 
 PCOD9298401
Probable space group: C 2/C
;
_chemical_formula_sum "Si O2"
_cell_formula_units_Z 48
_cell_length_a 18.366915
_cell_length_b 7.196281
_cell_length_c 20.355690
_cell_angle_alpha 90.000000
_cell_angle_beta 47.075877
_cell_angle_gamma 90.000000
_cell_volume 1970.122517
_symmetry_space_group_name_H-M "C 2/C"
_symmetry_group_IT_number 15
_symmetry_cell_setting 'monoclinic'
loop_
_space_group_symop_operation_xyz
x,y,z
-x,y,1/2-z
-x,-y,-z
x,-y,1/2+z
1/2+x,1/2+y,z
1/2-x,1/2+y,1/2-z
1/2-x,1/2-y,-z
1/2+x,1/2-y,1/2+z
loop_
_atom_site_type_symbol
_atom_site_label
_atom_site_fract_x
_atom_site_fract_y
_atom_site_fract_z
Si Si1 0.954335 0.565620 0.384183
Si Si2 0.292591 0.656321 0.632711
Si Si3 0.178848 0.184309 0.603557
Si Si4 0.610667 0.264317 0.649541
Si Si5 0.364902 0.280666 0.561978
Si Si6 0.150197 0.489557 0.323999
O O1 0.914584 0.683377 0.347648
O O2 0.900270 0.367255 0.407559
O O3 0.923622 0.676175 0.468698
O O4 0.071144 0.547786 0.318158
O O5 0.199128 0.688430 0.641869
O O6 0.366879 0.502790 0.557577
O O7 0.250895 0.561421 0.725062
O O8 0.336870 0.851410 0.629210
O O9 0.250000 0.250000 0.500000
O O10 0.248756 0.220198 0.622849
O O11 0.143238 0.975036 0.616645
O O12 0.500000 0.260451 0.750000
O O13 0.393859 0.192348 0.613288
#
# Coordination Sequence:
#
# PCOD9298401 Si02
#       6
#     8   8   8   8   8   8
#     4  11  26  44  70 105 144 180 238 297 346 417
#     4  12  25  42  73 103 140 189 235 291 359 421
#     4  10  24  44  69 103 138 182 232 287 350 417
#     4  12  25  44  76 109 138 187 240 291 353 420
#     4  11  24  44  68 102 140 187 233 284 360 420
#     4  12  25  44  69 101 145 182 235 296 352 420
#
# _framework density 24.363966000000001
#
# number of rings (size 3 to 8) (size 9 to 14) (size 15 to 20)
#    0.000    0.667    6.667    0.500    0.000   10.667 
#    0.000    0.000    0.000    0.000    0.000    0.000 
#    0.000    0.000    0.000    0.000    0.000    0.000 
#
# Total GULP energy -134320.137993 kJ/mol
# GULP energy per Si atom -5596.672416 kJ/mol
# Density = 2.430851 g / cm^3
# Si number density = 24.363966 Si / 1000 Ang^3
#
#
#
# Elastic Constant Matrix: (Units=GPa)
#
#
# Indices 1 2 3 4 5 6 
#
# 1 79.2791 18.5022 6.1040 0.0001 -3.8275 -0.0007
# 2 18.5022 140.9638 7.7829 0.0000 -3.7415 0.0006
# 3 6.1040 7.7829 53.8201 -0.0001 -2.2479 0.0005
# 4 0.0001 0.0000 -0.0001 33.2836 0.0000 9.3307
# 5 -3.8275 -3.7415 -2.2479 0.0000 23.6136 0.0004
# 6 -0.0007 0.0006 0.0005 9.3307 0.0004 35.5310
#
#
#
# Elastic Compliance Matrix: (Units=1/GPa)
#
#
# Indices 1 2 3 4 5 6 
#
# 1 0.013167 -0.001616 -0.001186 0.000000 0.001765 0.000000
# 2 -0.001616 0.007375 -0.000849 0.000000 0.000826 0.000000
# 3 -0.001186 -0.000849 0.018899 0.000000 0.001472 0.000000
# 4 0.000000 0.000000 0.000000 0.032433 0.000000 -0.008517
# 5 0.001765 0.000826 0.001472 0.000000 0.042906 -0.000001
# 6 0.000000 0.000000 0.000000 -0.008517 -0.000001 0.030381
#
#
# Mechanical properties :
#
#
# Convention : Reuss Voigt Hill
#
# Bulk Modulus (GPa) = 31.11371 37.64901 34.38136
# Shear Modulus (GPa) = 30.64192 34.59725 32.61958
#
# Velocity S-wave (km/s) = 3.55022 3.77240 3.66299
# Velocity P-wave (km/s) = 5.44091 5.87035 5.65970
#
# Compressibility (1/GPa) = 0.03214017
#
# Stress axis : x y z
#
# Youngs Moduli (GPa) = 75.94549 135.59510 52.91240
#
# Poissons Ratio (x) = 0.21911 0.06275
# Poissons Ratio (y) = 0.12272 0.04491
# Poissons Ratio (z) = 0.09007 0.11508
#
# Static dielectric constant tensor:
#      x y z
#    x 1.955600 0.000000 -0.026560 
#    y 0.000000 1.948770 0.000000 
#    z -0.026560 0.000000 1.974590 
# 
# From -- ./inp_files/278841.got.cif
#   From: 2010.05.17/outbox.cif.g08.bks.cpg/sg15_140_cif.got.tgz:278841.got - 2010.06.03 18:47:42.
