data_PCOD9298302
_publ_section_title
;
Structure prediction by ZEFSAII (Michael W. Deem and Ramdas Pophale) SiO2 
 PCOD9298302
Probable space group: C 2/C
;
_chemical_formula_sum "Si O2"
_cell_formula_units_Z 48
_cell_length_a 23.320298
_cell_length_b 8.881542
_cell_length_c 9.571464
_cell_angle_alpha 90.000000
_cell_angle_beta 95.223818
_cell_angle_gamma 90.000000
_cell_volume 1974.209788
_symmetry_space_group_name_H-M "C 2/C"
_symmetry_group_IT_number 15
_symmetry_cell_setting 'monoclinic'
loop_
_space_group_symop_operation_xyz
x,y,z
-x,y,1/2-z
-x,-y,-z
x,-y,1/2+z
1/2+x,1/2+y,z
1/2-x,1/2+y,1/2-z
1/2-x,1/2-y,-z
1/2+x,1/2-y,1/2+z
loop_
_atom_site_type_symbol
_atom_site_label
_atom_site_fract_x
_atom_site_fract_y
_atom_site_fract_z
Si Si1 0.646033 0.943028 0.671872
Si Si2 0.000000 0.718283 0.750000
Si Si3 0.070601 0.467568 0.916814
Si Si4 0.500000 0.730154 0.750000
Si Si5 0.824181 0.102689 0.879788
Si Si6 0.943302 0.981079 0.892144
Si Si7 0.742016 0.411187 0.420347
O O1 0.625820 0.939768 0.827933
O O2 0.660494 0.779463 0.609701
O O3 0.591724 0.010391 0.577055
O O4 0.699717 0.047592 0.648744
O O5 0.036877 0.615132 0.860537
O O6 0.045690 0.828010 0.686125
O O7 0.027054 0.332624 0.875382
O O8 0.449573 0.622329 0.789536
O O9 0.805425 0.084487 0.713880
O O10 0.879852 0.002843 0.936017
O O11 0.774481 0.038479 0.969578
O O12 0.000000 0.000000 0.000000
O O13 0.750000 0.250000 0.500000
#
# Coordination Sequence:
#
# PCOD9298302 Si02
#       7
#     8   4   8   4   8   8   8
#     4  12  26  48  73 103 141 185 241 292 362 417
#     4  10  26  40  66 108 140 186 232 284 360 422
#     4  11  25  44  74 103 142 187 234 294 350 434
#     4  10  24  44  66 104 144 184 238 282 362 426
#     4  12  27  49  74 105 146 189 239 302 361 430
#     4  11  25  42  71 103 147 186 237 289 363 429
#     4  12  29  48  76 105 143 188 248 300 364 424
#
# _framework density 24.313526
#
# number of rings (size 3 to 8) (size 9 to 14) (size 15 to 20)
#    0.000    0.667    1.667    4.500   11.667    1.333 
#    0.000    0.000    0.000    0.000    0.000    0.000 
#    0.000    0.000    0.000    0.000    0.000    0.000 
#
# Total GULP energy -134466.155508 kJ/mol
# GULP energy per Si atom -5602.756479 kJ/mol
# Density = 2.425819 g / cm^3
# Si number density = 24.313526 Si / 1000 Ang^3
#
#
#
# Elastic Constant Matrix: (Units=GPa)
#
#
# Indices 1 2 3 4 5 6 
#
# 1 117.5220 21.8947 8.2253 0.0000 -10.1395 0.0000
# 2 21.8947 126.0581 13.9599 0.0000 -1.1649 0.0000
# 3 8.2253 13.9599 103.0070 0.0000 14.0343 0.0000
# 4 0.0000 0.0000 0.0000 15.9279 0.0000 -5.4019
# 5 -10.1395 -1.1649 14.0343 0.0000 48.0938 0.0000
# 6 0.0000 0.0000 0.0000 -5.4019 0.0000 26.3333
#
#
#
# Elastic Compliance Matrix: (Units=1/GPa)
#
#
# Indices 1 2 3 4 5 6 
#
# 1 0.009019 -0.001457 -0.000809 0.000000 0.002102 0.000000
# 2 -0.001457 0.008302 -0.001036 0.000000 0.000196 0.000000
# 3 -0.000809 -0.001036 0.010351 0.000000 -0.003216 0.000000
# 4 0.000000 0.000000 0.000000 0.067478 0.000000 0.013842
# 5 0.002102 0.000196 -0.003216 0.000000 0.022179 0.000000
# 6 0.000000 0.000000 0.000000 0.013842 0.000000 0.040814
#
#
# Mechanical properties :
#
#
# Convention : Reuss Voigt Hill
#
# Bulk Modulus (GPa) = 47.46457 48.30521 47.88489
# Shear Modulus (GPa) = 29.10872 38.23815 33.67344
#
# Velocity S-wave (km/s) = 3.46385 3.97004 3.72555
# Velocity P-wave (km/s) = 5.96338 6.39732 6.18416
#
# Compressibility (1/GPa) = 0.02106834
#
# Stress axis : x y z
#
# Youngs Moduli (GPa) = 110.88256 120.44620 96.60702
#
# Poissons Ratio (x) = 0.17554 0.07816
# Poissons Ratio (y) = 0.16160 0.10004
# Poissons Ratio (z) = 0.08971 0.12472
#
# Static dielectric constant tensor:
#      x y z
#    x 2.170260 0.000000 -0.050690 
#    y 0.000000 1.914820 0.000000 
#    z -0.050690 0.000000 1.946130 
# 
# From -- ./inp_files/116822.got.cif
#   From: 2010.05.17/outbox.cif.g08.bks.cpg/sg15_59_cif.got.tgz:116822.got - 2010.06.03 18:47:42.
