data_PCOD9298664
_publ_section_title
;
Structure prediction by ZEFSAII (Michael W. Deem and Ramdas Pophale) SiO2 
 PCOD9298664
Probable space group: C 2/C
;
_chemical_formula_sum "Si O2"
_cell_formula_units_Z 48
_cell_length_a 21.836706
_cell_length_b 11.660313
_cell_length_c 12.069252
_cell_angle_alpha 90.000000
_cell_angle_beta 50.675423
_cell_angle_gamma 90.000000
_cell_volume 2377.258667
_symmetry_space_group_name_H-M "C 2/C"
_symmetry_group_IT_number 15
_symmetry_cell_setting 'monoclinic'
loop_
_space_group_symop_operation_xyz
x,y,z
-x,y,1/2-z
-x,-y,-z
x,-y,1/2+z
1/2+x,1/2+y,z
1/2-x,1/2+y,1/2-z
1/2-x,1/2-y,-z
1/2+x,1/2-y,1/2+z
loop_
_atom_site_type_symbol
_atom_site_label
_atom_site_fract_x
_atom_site_fract_y
_atom_site_fract_z
Si Si1 0.587405 0.444810 0.399527
Si Si2 0.914804 0.292744 0.723484
Si Si3 0.898624 0.340605 0.994570
Si Si4 0.087549 0.801322 0.612417
Si Si5 0.822499 0.171695 0.264140
Si Si6 0.146713 0.397666 0.917593
O O1 0.500000 0.500000 0.500000
O O2 0.588553 0.337823 0.314787
O O3 0.611208 0.392801 0.491403
O O4 0.644903 0.545453 0.299101
O O5 0.886454 0.301310 0.881853
O O6 0.862970 0.369933 0.700750
O O7 0.005779 0.334301 0.603702
O O8 0.857517 0.258527 0.132018
O O9 0.866036 0.469096 0.045872
O O10 0.144003 0.795888 0.653693
O O11 0.082365 0.678629 0.557102
O O12 0.000000 0.835575 0.750000
O O13 0.728662 0.157984 0.364181
#
# Coordination Sequence:
#
# PCOD9298664 Si02
#       6
#     8   8   8   8   8   8
#     4  11  22  43  68  99 129 171 220 276 321 390
#     4  10  24  45  68  96 128 173 229 266 328 391
#     4  11  25  43  71  96 128 176 222 272 324 399
#     4  11  24  43  69  95 131 177 224 268 328 394
#     4  12  26  42  68 100 135 171 221 271 341 390
#     4  11  27  43  66  96 139 172 214 278 334 394
#
# _framework density 20.191324999999999
#
# number of rings (size 3 to 8) (size 9 to 14) (size 15 to 20)
#    0.000    1.000    3.333    2.000   11.667    2.000 
#    0.000    0.000    0.000    0.000    0.000    0.000 
#    0.000    0.000    0.000    0.000    0.000    0.000 
#
# Total GULP energy -134169.081790 kJ/mol
# GULP energy per Si atom -5590.378408 kJ/mol
# Density = 2.014537 g / cm^3
# Si number density = 20.191325 Si / 1000 Ang^3
#
#
#
# Elastic Constant Matrix: (Units=GPa)
#
#
# Indices 1 2 3 4 5 6 
#
# 1 84.5853 25.8044 44.0445 0.0000 41.3777 0.0000
# 2 25.8044 117.0950 56.9620 0.0000 26.2348 0.0000
# 3 44.0445 56.9620 86.1571 0.0000 39.4654 0.0000
# 4 0.0000 0.0000 0.0000 11.3075 0.0000 -7.8430
# 5 41.3777 26.2348 39.4654 0.0000 37.7905 0.0000
# 6 0.0000 0.0000 0.0000 -7.8430 0.0000 19.3880
#
#
#
# Elastic Compliance Matrix: (Units=1/GPa)
#
#
# Indices 1 2 3 4 5 6 
#
# 1 0.025567 0.001116 -0.001208 0.000000 -0.027507 0.000000
# 2 0.001116 0.012638 -0.008334 0.000000 -0.001292 0.000000
# 3 -0.001208 -0.008334 0.027755 0.000000 -0.021877 0.000000
# 4 0.000000 0.000000 0.000000 0.122929 0.000000 0.049728
# 5 -0.027507 -0.001292 -0.021877 0.000000 0.080323 0.000000
# 6 0.000000 0.000000 0.000000 0.049728 0.000000 0.071695
#
#
# Mechanical properties :
#
#
# Convention : Reuss Voigt Hill
#
# Bulk Modulus (GPa) = 20.36324 60.16215 40.26269
# Shear Modulus (GPa) = 13.36439 24.43229 18.89834
#
# Velocity S-wave (km/s) = 2.57551 3.48234 3.06267
# Velocity P-wave (km/s) = 4.35332 6.78451 5.70004
#
# Compressibility (1/GPa) = 0.04910810
#
# Stress axis : x y z
#
# Youngs Moduli (GPa) = 39.11306 79.12755 36.02895
#
# Poissons Ratio (x) = -0.08834 0.04353
# Poissons Ratio (y) = -0.04367 0.30027
# Poissons Ratio (z) = 0.04726 0.65946
#
# Static dielectric constant tensor:
#      x y z
#    x 1.830030 0.000000 -0.100640 
#    y 0.000000 1.680060 0.000000 
#    z -0.100640 0.000000 1.796050 
# 
# From -- ./inp_files/110880.got.cif
#   From: 2010.05.17/outbox.cif.g08.bks.cpg/sg15_56_cif.got.tgz:110880.got - 2010.06.03 18:47:42.
