data_PCOD9298866
_publ_section_title
;
Structure prediction by ZEFSAII (Michael W. Deem and Ramdas Pophale) SiO2 
 PCOD9298866
Probable space group: C 2/C
;
_chemical_formula_sum "Si O2"
_cell_formula_units_Z 40
_cell_length_a 25.056857
_cell_length_b 13.307589
_cell_length_c 13.950959
_cell_angle_alpha 90.000000
_cell_angle_beta 156.322443
_cell_angle_gamma 90.000000
_cell_volume 1868.150790
_symmetry_space_group_name_H-M "C 2/C"
_symmetry_group_IT_number 15
_symmetry_cell_setting 'monoclinic'
loop_
_space_group_symop_operation_xyz
x,y,z
-x,y,1/2-z
-x,-y,-z
x,-y,1/2+z
1/2+x,1/2+y,z
1/2-x,1/2+y,1/2-z
1/2-x,1/2-y,-z
1/2+x,1/2-y,1/2+z
loop_
_atom_site_type_symbol
_atom_site_label
_atom_site_fract_x
_atom_site_fract_y
_atom_site_fract_z
Si Si1 0.684773 0.118354 0.133985
Si Si2 0.857030 0.153457 0.975048
Si Si3 0.574684 0.937007 0.039987
Si Si4 0.850481 0.020688 0.781729
Si Si5 0.310364 0.854889 0.629391
O O1 0.641738 0.225829 0.023785
O O2 0.710890 0.132202 0.291056
O O3 0.589935 0.019993 0.982070
O O4 0.800862 0.076707 0.258058
O O5 0.721224 0.109460 0.799387
O O6 0.845690 0.112970 0.848424
O O7 0.000000 0.117492 0.250000
O O8 0.464023 0.852124 0.846522
O O9 0.500000 0.000000 0.000000
O O10 0.761064 0.054234 0.544965
O O11 0.000000 0.000000 0.000000
O O12 0.250000 0.750000 0.500000
#
# Coordination Sequence:
#
# PCOD9298866 Si02
#       5
#     8   8   8   8   8
#     4  10  24  46  68 103 140 184 232 295 355 418
#     4  11  25  44  69 103 143 182 235 289 360 427
#     4   9  23  44  69  98 136 186 229 288 357 414
#     4  11  27  43  69 105 140 188 234 291 362 417
#     4  11  23  47  72 101 140 182 245 291 349 427
#
# _framework density 21.411546999999999
#
# number of rings (size 3 to 8) (size 9 to 14) (size 15 to 20)
#    0.000    1.600    2.000    0.000   14.000    2.400 
#    0.000    5.000    0.000    0.000    0.000    0.000 
#    0.000    0.000    0.000    0.000    0.000    0.000 
#
# Total GULP energy -111464.393575 kJ/mol
# GULP energy per Si atom -5573.219679 kJ/mol
# Density = 2.136281 g / cm^3
# Si number density = 21.411547 Si / 1000 Ang^3
#
#
#
# Elastic Constant Matrix: (Units=GPa)
#
#
# Indices 1 2 3 4 5 6 
#
# 1 108.3998 29.0587 70.8191 0.0000 20.7398 0.0000
# 2 29.0587 115.4183 48.1862 0.0000 16.2045 0.0000
# 3 70.8191 48.1862 161.8353 0.0000 23.6201 0.0000
# 4 0.0000 0.0000 0.0000 34.2853 0.0000 -2.3952
# 5 20.7398 16.2045 23.6201 0.0000 48.2102 0.0000
# 6 0.0000 0.0000 0.0000 -2.3952 0.0000 21.2479
#
#
#
# Elastic Compliance Matrix: (Units=1/GPa)
#
#
# Indices 1 2 3 4 5 6 
#
# 1 0.013396 -0.000789 -0.005197 0.000000 -0.002952 0.000000
# 2 -0.000789 0.010128 -0.002394 0.000000 -0.001892 0.000000
# 3 -0.005197 -0.002394 0.009394 0.000000 -0.001562 0.000000
# 4 0.000000 0.000000 0.000000 0.029399 0.000000 0.003314
# 5 -0.002952 -0.001892 -0.001562 0.000000 0.023414 0.000000
# 6 0.000000 0.000000 0.000000 0.003314 0.000000 0.047437
#
#
# Mechanical properties :
#
#
# Convention : Reuss Voigt Hill
#
# Bulk Modulus (GPa) = 61.88490 75.75348 68.81919
# Shear Modulus (GPa) = 32.19301 36.58796 34.39049
#
# Velocity S-wave (km/s) = 3.88175 4.13824 4.01205
# Velocity P-wave (km/s) = 7.00400 7.63479 7.32618
#
# Compressibility (1/GPa) = 0.01615903
#
# Stress axis : x y z
#
# Youngs Moduli (GPa) = 74.64743 98.73685 106.45070
#
# Poissons Ratio (x) = 0.07789 0.55317
# Poissons Ratio (y) = 0.05888 0.25487
# Poissons Ratio (z) = 0.38791 0.23640
#
# Static dielectric constant tensor:
#      x y z
#    x 1.790220 0.000000 -0.002640 
#    y 0.000000 1.582720 0.000000 
#    z -0.002640 0.000000 1.880770 
# 
# From -- ./inp_files/178482.got.cif
#   From: 2010.05.17/outbox.cif.g08.bks.cpg/sg15_90_cif.got.tgz:178482.got - 2010.06.03 18:47:42.
