data_PCOD9298098
_publ_section_title
;
Structure prediction by ZEFSAII (Michael W. Deem and Ramdas Pophale) SiO2 
 PCOD9298098
Probable space group: C 2/C
;
_chemical_formula_sum "Si O2"
_cell_formula_units_Z 40
_cell_length_a 11.944178
_cell_length_b 20.967932
_cell_length_c 13.112788
_cell_angle_alpha 90.000000
_cell_angle_beta 34.400850
_cell_angle_gamma 90.000000
_cell_volume 1855.407892
_symmetry_space_group_name_H-M "C 2/C"
_symmetry_group_IT_number 15
_symmetry_cell_setting 'monoclinic'
loop_
_space_group_symop_operation_xyz
x,y,z
-x,y,1/2-z
-x,-y,-z
x,-y,1/2+z
1/2+x,1/2+y,z
1/2-x,1/2+y,1/2-z
1/2-x,1/2-y,-z
1/2+x,1/2-y,1/2+z
loop_
_atom_site_type_symbol
_atom_site_label
_atom_site_fract_x
_atom_site_fract_y
_atom_site_fract_z
Si Si1 0.133148 0.209676 0.742872
Si Si2 0.539734 0.946287 0.056010
Si Si3 0.441115 0.836462 0.613343
Si Si4 0.901098 0.900553 0.534473
Si Si5 0.834297 0.038481 0.510643
O O1 0.330432 0.181247 0.545388
O O2 0.171185 0.268769 0.790380
O O3 0.000000 0.234394 0.750000
O O4 0.017190 0.154350 0.888693
O O5 0.350615 0.950563 0.272857
O O6 0.738870 0.956812 0.971343
O O7 0.557425 0.877067 0.991197
O O8 0.500000 0.000000 0.000000
O O9 0.327106 0.881240 0.778886
O O10 0.999236 0.913382 0.571886
O O11 0.915170 0.967230 0.465700
#
# Coordination Sequence:
#
# PCOD9298098 Si02
#       5
#     8   8   8   8   8
#     4  12  27  42  70 101 138 183 232 290 343 409
#     4  11  23  42  72 100 139 183 230 283 345 411
#     4  12  25  44  67  99 137 177 230 281 346 410
#     4  11  24  44  70 102 141 177 229 281 350 418
#     4  10  24  43  68 105 140 182 226 288 346 411
#
# _framework density 21.558602
#
# number of rings (size 3 to 8) (size 9 to 14) (size 15 to 20)
#    0.000    0.800    6.000    0.600    2.800    0.800 
#    0.000    1.000    4.400    0.000    0.000    0.000 
#    0.000    0.000    0.000    0.000    0.000    0.000 
#
# Total GULP energy -111798.160024 kJ/mol
# GULP energy per Si atom -5589.908001 kJ/mol
# Density = 2.150953 g / cm^3
# Si number density = 21.558602 Si / 1000 Ang^3
#
#
#
# Elastic Constant Matrix: (Units=GPa)
#
#
# Indices 1 2 3 4 5 6 
#
# 1 133.7051 41.1351 20.9334 -0.0057 5.7878 0.0013
# 2 41.1351 121.9033 28.8233 -0.0045 17.1940 0.0008
# 3 20.9334 28.8233 94.7485 -0.0175 -2.6196 0.0044
# 4 -0.0057 -0.0045 -0.0175 34.3348 0.0066 -1.8129
# 5 5.7878 17.1940 -2.6196 0.0066 27.4521 -0.0020
# 6 0.0013 0.0008 0.0044 -1.8129 -0.0020 16.5770
#
#
#
# Elastic Compliance Matrix: (Units=1/GPa)
#
#
# Indices 1 2 3 4 5 6 
#
# 1 0.008448 -0.002550 -0.001099 0.000001 -0.000289 0.000000
# 2 -0.002550 0.010640 -0.002850 0.000001 -0.006399 0.000000
# 3 -0.001099 -0.002850 0.011751 0.000005 0.003138 -0.000002
# 4 0.000001 0.000001 0.000005 0.029294 -0.000007 0.003204
# 5 -0.000289 -0.006399 0.003138 -0.000007 0.040795 0.000004
# 6 0.000000 0.000000 -0.000002 0.003204 0.000004 0.060675
#
#
# Mechanical properties :
#
#
# Convention : Reuss Voigt Hill
#
# Bulk Modulus (GPa) = 56.05138 59.12673 57.58905
# Shear Modulus (GPa) = 27.69332 32.97044 30.33188
#
# Velocity S-wave (km/s) = 3.58796 3.91492 3.75500
# Velocity P-wave (km/s) = 6.57424 6.92250 6.75062
#
# Compressibility (1/GPa) = 0.01784077
#
# Stress axis : x y z
#
# Youngs Moduli (GPa) = 118.36739 93.98295 85.10028
#
# Poissons Ratio (x) = 0.23968 0.09350
# Poissons Ratio (y) = 0.30187 0.24256
# Poissons Ratio (z) = 0.13005 0.26788
#
# Static dielectric constant tensor:
#      x y z
#    x 1.798410 0.000000 -0.003720 
#    y 0.000000 1.760030 0.000000 
#    z -0.003720 0.000000 1.826590 
# 
# From -- ./inp_files/89326.got.cif
#   From: 2010.05.17/outbox.cif.g08.bks.cpg/sg15_45_cif.got.tgz:89326.got - 2010.06.03 18:47:42.
