data_PCOD9298852
_publ_section_title
;
Structure prediction by ZEFSAII (Michael W. Deem and Ramdas Pophale) SiO2 
 PCOD9298852
Probable space group: C 2/C
;
_chemical_formula_sum "Si O2"
_cell_formula_units_Z 36
_cell_length_a 4.872586
_cell_length_b 13.295116
_cell_length_c 20.924134
_cell_angle_alpha 90.000000
_cell_angle_beta 79.525320
_cell_angle_gamma 90.000000
_cell_volume 1332.909877
_symmetry_space_group_name_H-M "C 2/C"
_symmetry_group_IT_number 15
_symmetry_cell_setting 'monoclinic'
loop_
_space_group_symop_operation_xyz
x,y,z
-x,y,1/2-z
-x,-y,-z
x,-y,1/2+z
1/2+x,1/2+y,z
1/2-x,1/2+y,1/2-z
1/2-x,1/2-y,-z
1/2+x,1/2-y,1/2+z
loop_
_atom_site_type_symbol
_atom_site_label
_atom_site_fract_x
_atom_site_fract_y
_atom_site_fract_z
Si Si1 0.225451 0.910922 0.998752
Si Si2 0.133736 0.861088 0.377337
Si Si3 0.000000 0.140375 0.750000
Si Si4 0.299687 0.345663 0.922128
Si Si5 0.928031 0.525146 0.183503
O O1 0.553867 0.900233 0.973968
O O2 0.097600 0.847091 0.944864
O O3 0.156475 0.883687 0.074844
O O4 0.000000 0.000000 0.000000
O O5 0.110541 0.809530 0.308810
O O6 0.249846 0.772487 0.415987
O O7 0.309198 0.965031 0.360106
O O8 0.764737 0.067481 0.787574
O O9 0.245198 0.403853 0.857245
O O10 0.000000 0.573717 0.250000
#
# Coordination Sequence:
#
# PCOD9298852 Si02
#       5
#     8   8   4   8   8
#     4  12  25  46  73 103 144 187 228 298 358 423
#     4  11  25  44  71 102 141 181 243 286 364 418
#     4  10  24  46  70  94 140 186 226 298 346 426
#     4  12  27  44  75 105 138 185 238 293 353 433
#     4  10  24  46  67 101 141 189 234 299 357 427
#
# _framework density 27.008579999999998
#
# number of rings (size 3 to 8) (size 9 to 14) (size 15 to 20)
#    0.000    0.889    2.222    3.333   10.889    0.000 
#    6.000    0.000    0.000    0.000    0.000    0.000 
#    0.000    0.000    0.000    0.000    0.000    0.000 
#
# Total GULP energy -100507.009109 kJ/mol
# GULP energy per Si atom -5583.722728 kJ/mol
# Density = 2.694711 g / cm^3
# Si number density = 27.008580 Si / 1000 Ang^3
#
#
#
# Elastic Constant Matrix: (Units=GPa)
#
#
# Indices 1 2 3 4 5 6 
#
# 1 154.4642 10.5785 42.5401 0.0000 -1.2830 0.0000
# 2 10.5785 61.3323 17.6616 0.0000 2.2243 0.0000
# 3 42.5401 17.6616 126.3690 0.0000 3.3208 0.0000
# 4 0.0000 0.0000 0.0000 28.6884 0.0000 10.2218
# 5 -1.2830 2.2243 3.3208 0.0000 43.8979 0.0000
# 6 0.0000 0.0000 0.0000 10.2218 0.0000 21.1916
#
#
#
# Elastic Compliance Matrix: (Units=1/GPa)
#
#
# Indices 1 2 3 4 5 6 
#
# 1 0.007162 -0.000576 -0.002341 0.000000 0.000416 0.000000
# 2 -0.000576 0.017055 -0.002171 0.000000 -0.000717 0.000000
# 3 -0.002341 -0.002171 0.009022 0.000000 -0.000641 0.000000
# 4 0.000000 0.000000 0.000000 0.042091 0.000000 -0.020303
# 5 0.000416 -0.000717 -0.000641 0.000000 0.022877 0.000000
# 6 0.000000 0.000000 0.000000 -0.020303 0.000000 0.056982
#
#
# Mechanical properties :
#
#
# Convention : Reuss Voigt Hill
#
# Bulk Modulus (GPa) = 43.36134 53.74732 48.55433
# Shear Modulus (GPa) = 28.89295 36.84792 32.87044
#
# Velocity S-wave (km/s) = 3.27428 3.69766 3.49239
# Velocity P-wave (km/s) = 5.51217 6.17847 5.85481
#
# Compressibility (1/GPa) = 0.02306202
#
# Stress axis : x y z
#
# Youngs Moduli (GPa) = 139.63178 58.63345 110.84340
#
# Poissons Ratio (x) = 0.03378 0.25951
# Poissons Ratio (y) = 0.08044 0.24063
# Poissons Ratio (z) = 0.32692 0.12729
#
# Static dielectric constant tensor:
#      x y z
#    x 2.148920 0.000000 0.074700 
#    y 0.000000 2.182320 0.000000 
#    z 0.074700 0.000000 2.206760 
# 
# From -- ./inp_files/226458.got.cif
#   From: 2010.05.17/outbox.cif.g08.bks.cpg/sg15_114_cif.got.tgz:226458.got - 2010.06.03 18:47:42.
