data_PCOD9298240
_publ_section_title
;
Structure prediction by ZEFSAII (Michael W. Deem and Ramdas Pophale) SiO2 
 PCOD9298240
Probable space group: C 2/C
;
_chemical_formula_sum "Si O2"
_cell_formula_units_Z 64
_cell_length_a 9.424200
_cell_length_b 13.611198
_cell_length_c 23.457003
_cell_angle_alpha 90.000000
_cell_angle_beta 109.511915
_cell_angle_gamma 90.000000
_cell_volume 2836.141719
_symmetry_space_group_name_H-M "C 2/C"
_symmetry_group_IT_number 15
_symmetry_cell_setting 'monoclinic'
loop_
_space_group_symop_operation_xyz
x,y,z
-x,y,1/2-z
-x,-y,-z
x,-y,1/2+z
1/2+x,1/2+y,z
1/2-x,1/2+y,1/2-z
1/2-x,1/2-y,-z
1/2+x,1/2-y,1/2+z
loop_
_atom_site_type_symbol
_atom_site_label
_atom_site_fract_x
_atom_site_fract_y
_atom_site_fract_z
Si Si1 0.241809 0.604995 0.886657
Si Si2 0.896367 0.672716 0.280417
Si Si3 0.670857 0.584498 0.052099
Si Si4 0.442883 0.262053 0.474190
Si Si5 0.359810 0.905119 0.460830
Si Si6 0.632367 0.747948 0.882951
Si Si7 0.671998 0.834279 0.252210
Si Si8 0.408640 0.013627 0.854470
O O1 0.356294 0.519562 0.922242
O O2 0.280379 0.699146 0.931878
O O3 0.253166 0.630298 0.821498
O O4 0.078464 0.556666 0.873363
O O5 0.746899 0.730709 0.244330
O O6 0.874665 0.595216 0.327535
O O7 0.000000 0.612778 0.250000
O O8 0.017470 0.754926 0.316170
O O9 0.780785 0.648833 0.106603
O O10 0.526233 0.652813 0.021887
O O11 0.765411 0.573321 0.005406
O O12 0.488237 0.157917 0.507735
O O13 0.536618 0.257556 0.427871
O O14 0.256742 0.833309 0.408497
O O15 0.382792 0.990609 0.418943
O O16 0.500000 0.820551 0.250000
O O17 0.676802 0.912651 0.201287
#
# Coordination Sequence:
#
# PCOD9298240 Si02
#       8
#     8   8   8   8   8   8   8   8
#     4  11  19  35  60  89 127 158 205 251 319 369
#     4  12  22  40  70  88 113 168 216 247 312 380
#     4   9  18  33  59  89 121 160 203 254 300 365
#     4   9  18  34  59  88 124 162 195 250 309 361
#     4   9  20  38  56  88 132 154 208 252 303 367
#     4   9  17  36  60  88 112 160 202 249 292 366
#     4  10  24  44  63  90 128 159 203 273 321 366
#     4  11  24  40  60  91 122 163 208 262 310 374
#
# _framework density 22.565867000000001
#
# number of rings (size 3 to 8) (size 9 to 14) (size 15 to 20)
#    0.000    2.000    2.500    3.750    0.000    1.000 
#    0.000    4.375    2.750    0.000    0.000    0.000 
#    0.000    0.000    0.000    0.000    0.000    0.000 
#
# Total GULP energy -178406.156291 kJ/mol
# GULP energy per Si atom -5575.192384 kJ/mol
# Density = 2.251451 g / cm^3
# Si number density = 22.565867 Si / 1000 Ang^3
#
#
#
# Elastic Constant Matrix: (Units=GPa)
#
#
# Indices 1 2 3 4 5 6 
#
# 1 36.9169 24.5430 18.5793 0.0000 4.0284 0.0000
# 2 24.5430 86.7424 38.2610 0.0000 8.9070 0.0000
# 3 18.5793 38.2610 103.3240 0.0000 7.0637 0.0000
# 4 0.0000 0.0000 0.0000 45.7201 0.0000 9.2058
# 5 4.0284 8.9070 7.0637 0.0000 34.0190 0.0000
# 6 0.0000 0.0000 0.0000 9.2058 0.0000 19.3859
#
#
#
# Elastic Compliance Matrix: (Units=1/GPa)
#
#
# Indices 1 2 3 4 5 6 
#
# 1 0.034210 -0.008216 -0.003022 0.000000 -0.001272 0.000000
# 2 -0.008216 0.015980 -0.004281 0.000000 -0.002322 0.000000
# 3 -0.003022 -0.004281 0.011875 0.000000 -0.000987 0.000000
# 4 0.000000 0.000000 0.000000 0.024185 0.000000 -0.011485
# 5 -0.001272 -0.002322 -0.000987 0.000000 0.030359 0.000000
# 6 0.000000 0.000000 0.000000 -0.011485 0.000000 0.057038
#
#
# Mechanical properties :
#
#
# Convention : Reuss Voigt Hill
#
# Bulk Modulus (GPa) = 32.23125 43.30553 37.76839
# Shear Modulus (GPa) = 23.25309 29.53166 26.39237
#
# Velocity S-wave (km/s) = 3.21355 3.62150 3.42361
# Velocity P-wave (km/s) = 5.29938 6.05966 5.69222
#
# Compressibility (1/GPa) = 0.03102579
#
# Stress axis : x y z
#
# Youngs Moduli (GPa) = 29.23155 62.57908 84.21370
#
# Poissons Ratio (x) = 0.51413 0.25451
# Poissons Ratio (y) = 0.24015 0.36054
# Poissons Ratio (z) = 0.08834 0.26792
#
# Static dielectric constant tensor:
#      x y z
#    x 1.899610 0.000000 -0.001550 
#    y 0.000000 1.880490 0.000000 
#    z -0.001550 0.000000 1.897540 
# 
# From -- ./inp_files/269297.got.cif
#   From: 2010.05.17/outbox.cif.g08.bks.cpg/sg15_135_cif.got.tgz:269297.got - 2010.06.03 18:47:42.
