data_PCOD9298311
_publ_section_title
;
Structure prediction by ZEFSAII (Michael W. Deem and Ramdas Pophale) SiO2 
 PCOD9298311
Probable space group: C 2/C
;
_chemical_formula_sum "Si O2"
_cell_formula_units_Z 60
_cell_length_a 8.629704
_cell_length_b 22.721729
_cell_length_c 16.168676
_cell_angle_alpha 90.000000
_cell_angle_beta 112.446210
_cell_angle_gamma 90.000000
_cell_volume 2930.189712
_symmetry_space_group_name_H-M "C 2/C"
_symmetry_group_IT_number 15
_symmetry_cell_setting 'monoclinic'
loop_
_space_group_symop_operation_xyz
x,y,z
-x,y,1/2-z
-x,-y,-z
x,-y,1/2+z
1/2+x,1/2+y,z
1/2-x,1/2+y,1/2-z
1/2-x,1/2-y,-z
1/2+x,1/2-y,1/2+z
loop_
_atom_site_type_symbol
_atom_site_label
_atom_site_fract_x
_atom_site_fract_y
_atom_site_fract_z
Si Si1 0.736788 0.309727 0.368070
Si Si2 0.798205 0.678305 0.188178
Si Si3 0.500000 0.693474 0.250000
Si Si4 0.383153 0.939310 0.643350
Si Si5 0.133919 0.570446 0.853635
Si Si6 0.261966 0.222606 0.414112
Si Si7 0.135497 0.170430 0.665410
Si Si8 0.479247 0.114439 0.492774
O O1 0.737203 0.238657 0.367993
O O2 0.558729 0.338876 0.355268
O O3 0.744409 0.323895 0.271470
O O4 0.875711 0.338833 0.453655
O O5 0.671727 0.669327 0.241016
O O6 0.772611 0.619215 0.130488
O O7 0.000000 0.682470 0.250000
O O8 0.576845 0.728605 0.340379
O O9 0.500000 0.938775 0.750000
O O10 0.477757 0.927783 0.575610
O O11 0.300173 0.003312 0.629754
O O12 0.275642 0.619643 0.868550
O O13 0.053742 0.582002 0.927250
O O14 0.000000 0.574354 0.750000
O O15 0.250000 0.250000 0.500000
O O16 0.367388 0.265850 0.378376
O O17 0.325586 0.156301 0.434763
#
# Coordination Sequence:
#
# PCOD9298311 Si02
#       8
#     8   8   4   8   8   8   8   8
#     4  11  22  39  71  99 137 175 217 287 360 404
#     4  11  21  42  68  98 139 178 223 281 348 415
#     4  12  24  40  68  98 138 184 222 280 352 410
#     4  10  24  44  66  92 134 186 230 279 343 410
#     4  11  23  43  71  95 130 182 233 287 337 412
#     4  12  24  36  64 103 135 173 221 281 349 410
#     4  11  22  41  62 100 139 175 220 282 352 412
#     4  12  24  42  71 102 132 177 233 287 344 425
#
# _framework density 20.476489999999998
#
# number of rings (size 3 to 8) (size 9 to 14) (size 15 to 20)
#    0.000    0.800    5.333    3.600    0.933    3.200 
#    0.000    2.000    2.933    0.000    0.000    0.000 
#    0.000    0.000    0.000    0.000    0.000    0.000 
#
# Total GULP energy -167177.947752 kJ/mol
# GULP energy per Si atom -5572.598258 kJ/mol
# Density = 2.042988 g / cm^3
# Si number density = 20.476490 Si / 1000 Ang^3
#
#
#
# Elastic Constant Matrix: (Units=GPa)
#
#
# Indices 1 2 3 4 5 6 
#
# 1 80.9165 22.4958 25.9007 0.0000 -19.0735 0.0000
# 2 22.4958 114.4583 11.9288 0.0000 -8.8856 0.0000
# 3 25.9007 11.9288 118.5510 0.0000 -14.2153 0.0000
# 4 0.0000 0.0000 0.0000 21.9645 0.0000 -40.6622
# 5 -19.0735 -8.8856 -14.2153 0.0000 34.0081 0.0000
# 6 0.0000 0.0000 0.0000 -40.6622 0.0000 141.4354
#
#
#
# Elastic Compliance Matrix: (Units=1/GPa)
#
#
# Indices 1 2 3 4 5 6 
#
# 1 0.015382 -0.002235 -0.002286 0.000000 0.007088 0.000000
# 2 -0.002235 0.009290 -0.000322 0.000000 0.001039 0.000000
# 3 -0.002286 -0.000322 0.009268 0.000000 0.002508 0.000000
# 4 0.000000 0.000000 0.000000 0.097330 0.000000 0.027982
# 5 0.007088 0.001039 0.002508 0.000000 0.034700 0.000000
# 6 0.000000 0.000000 0.000000 0.027982 0.000000 0.015115
#
#
# Mechanical properties :
#
#
# Convention : Reuss Voigt Hill
#
# Bulk Modulus (GPa) = 41.22880 48.28627 44.75753
# Shear Modulus (GPa) = 25.14390 56.38831 40.76610
#
# Velocity S-wave (km/s) = 3.50800 5.25337 4.46676
# Velocity P-wave (km/s) = 6.04868 7.77365 6.96477
#
# Compressibility (1/GPa) = 0.02425489
#
# Stress axis : x y z
#
# Youngs Moduli (GPa) = 65.01069 107.63954 107.90173
#
# Poissons Ratio (x) = 0.24055 0.24665
# Poissons Ratio (y) = 0.14528 0.03474
# Poissons Ratio (z) = 0.14861 0.03465
#
# Static dielectric constant tensor:
#      x y z
#    x 1.787600 0.000000 -0.029620 
#    y 0.000000 1.625750 0.000000 
#    z -0.029620 0.000000 1.799330 
# 
# From -- ./inp_files/137889.got.cif
#   From: 2010.05.17/outbox.cif.g08.bks.cpg/sg15_69_cif.got.tgz:137889.got - 2010.06.03 18:47:42.
