data_PCOD9298901
_publ_section_title
;
Structure prediction by ZEFSAII (Michael W. Deem and Ramdas Pophale) SiO2 
 PCOD9298901
Probable space group: C 2/C
;
_chemical_formula_sum "Si O2"
_cell_formula_units_Z 40
_cell_length_a 29.004674
_cell_length_b 8.360621
_cell_length_c 16.370128
_cell_angle_alpha 90.000000
_cell_angle_beta 21.233643
_cell_angle_gamma 90.000000
_cell_volume 1437.717015
_symmetry_space_group_name_H-M "C 2/C"
_symmetry_group_IT_number 15
_symmetry_cell_setting 'monoclinic'
loop_
_space_group_symop_operation_xyz
x,y,z
-x,y,1/2-z
-x,-y,-z
x,-y,1/2+z
1/2+x,1/2+y,z
1/2-x,1/2+y,1/2-z
1/2-x,1/2-y,-z
1/2+x,1/2-y,1/2+z
loop_
_atom_site_type_symbol
_atom_site_label
_atom_site_fract_x
_atom_site_fract_y
_atom_site_fract_z
Si Si1 0.308761 0.318743 0.602382
Si Si2 0.477213 0.101577 0.876159
Si Si3 0.311778 0.366950 0.331696
Si Si4 0.556214 0.194768 0.965143
Si Si5 0.672343 0.604204 0.055493
O O1 0.270316 0.161717 0.613124
O O2 0.407238 0.288400 0.511868
O O3 0.350828 0.459708 0.471352
O O4 0.171852 0.360992 0.867473
O O5 0.500000 0.027049 0.750000
O O6 0.503638 0.972212 0.903385
O O7 0.433213 0.257897 0.772633
O O8 0.250000 0.250000 0.500000
O O9 0.318647 0.531365 0.368437
O O10 0.452292 0.294685 0.087521
O O11 0.688894 0.163346 0.701683
#
# Coordination Sequence:
#
# PCOD9298901 Si02
#       5
#     8   8   8   8   8
#     4  10  24  46  74 104 143 189 236 285 353 425
#     4  11  24  42  72 107 138 182 244 286 351 416
#     4  10  25  46  74 104 142 187 235 289 353 420
#     4  11  25  46  73  99 144 189 232 292 353 417
#     4  10  24  46  69 102 143 179 236 294 345 416
#
# _framework density 27.821887
#
# number of rings (size 3 to 8) (size 9 to 14) (size 15 to 20)
#    0.000    1.600    2.000    0.000    8.400    8.000 
#    0.000    9.000    0.000    0.000    0.000    0.000 
#    0.000    0.000    0.000    0.000    0.000    0.000 
#
# Total GULP energy -112386.644726 kJ/mol
# GULP energy per Si atom -5619.332236 kJ/mol
# Density = 2.775856 g / cm^3
# Si number density = 27.821887 Si / 1000 Ang^3
#
#
#
# Elastic Constant Matrix: (Units=GPa)
#
#
# Indices 1 2 3 4 5 6 
#
# 1 106.1718 53.0008 41.9858 0.0000 -10.9267 0.0000
# 2 53.0008 159.8921 84.9153 0.0000 -4.4901 0.0000
# 3 41.9858 84.9153 190.8799 0.0000 6.2215 0.0000
# 4 0.0000 0.0000 0.0000 64.9499 0.0000 -6.5528
# 5 -10.9267 -4.4901 6.2215 0.0000 50.6069 0.0000
# 6 0.0000 0.0000 0.0000 -6.5528 0.0000 57.8981
#
#
#
# Elastic Compliance Matrix: (Units=1/GPa)
#
#
# Indices 1 2 3 4 5 6 
#
# 1 0.011739 -0.003156 -0.001257 0.000000 0.002409 0.000000
# 2 -0.003156 0.009108 -0.003375 0.000000 0.000542 0.000000
# 3 -0.001257 -0.003375 0.007064 0.000000 -0.001439 0.000000
# 4 0.000000 0.000000 0.000000 0.015574 0.000000 0.001763
# 5 0.002409 0.000542 -0.001439 0.000000 0.020505 0.000000
# 6 0.000000 0.000000 0.000000 0.001763 0.000000 0.017471
#
#
# Mechanical properties :
#
#
# Convention : Reuss Voigt Hill
#
# Bulk Modulus (GPa) = 81.07124 90.74972 85.91048
# Shear Modulus (GPa) = 49.43163 53.16044 51.29604
#
# Velocity S-wave (km/s) = 4.21969 4.37595 4.29853
# Velocity P-wave (km/s) = 7.27624 7.63025 7.45535
#
# Compressibility (1/GPa) = 0.01233483
#
# Stress axis : x y z
#
# Youngs Moduli (GPa) = 85.18507 109.79088 141.56824
#
# Poissons Ratio (x) = 0.34653 0.17788
# Poissons Ratio (y) = 0.26887 0.47784
# Poissons Ratio (z) = 0.10704 0.37058
#
# Static dielectric constant tensor:
#      x y z
#    x 2.177800 0.000000 0.013580 
#    y 0.000000 2.212200 0.000000 
#    z 0.013580 0.000000 2.086060 
# 
# From -- ./inp_files/173067.got.cif
#   From: 2010.05.17/outbox.cif.g08.bks.cpg/sg15_87_cif.got.tgz:173067.got - 2010.06.03 18:47:42.
