data_PCOD9298033
_publ_section_title
;
Structure prediction by ZEFSAII (Michael W. Deem and Ramdas Pophale) SiO2 
 PCOD9298033
Probable space group: C 2/C
;
_chemical_formula_sum "Si O2"
_cell_formula_units_Z 60
_cell_length_a 26.572420
_cell_length_b 18.178002
_cell_length_c 11.103122
_cell_angle_alpha 90.000000
_cell_angle_beta 149.337699
_cell_angle_gamma 90.000000
_cell_volume 2735.098671
_symmetry_space_group_name_H-M "C 2/C"
_symmetry_group_IT_number 15
_symmetry_cell_setting 'monoclinic'
loop_
_space_group_symop_operation_xyz
x,y,z
-x,y,1/2-z
-x,-y,-z
x,-y,1/2+z
1/2+x,1/2+y,z
1/2-x,1/2+y,1/2-z
1/2-x,1/2-y,-z
1/2+x,1/2-y,1/2+z
loop_
_atom_site_type_symbol
_atom_site_label
_atom_site_fract_x
_atom_site_fract_y
_atom_site_fract_z
Si Si1 0.592557 0.234910 0.137278
Si Si2 0.000000 0.031429 0.250000
Si Si3 0.216564 0.786045 0.618940
Si Si4 0.345305 0.038533 0.693522
Si Si5 0.338049 0.425380 0.840015
Si Si6 0.275342 0.812712 0.151885
Si Si7 0.936555 0.858533 0.811129
Si Si8 0.535586 0.080118 0.953294
O O1 0.671667 0.231423 0.191463
O O2 0.649401 0.274548 0.363942
O O3 0.495202 0.282852 0.919773
O O4 0.562829 0.149868 0.091888
O O5 0.997460 0.081069 0.363767
O O6 0.096369 0.981226 0.450367
O O7 0.209356 0.864562 0.669915
O O8 0.181000 0.727771 0.644426
O O9 0.244427 0.033279 0.410054
O O10 0.339893 0.120783 0.735827
O O11 0.438049 0.037444 0.795500
O O12 0.372201 0.976275 0.846794
O O13 0.410266 0.383834 0.892713
O O14 0.250000 0.750000 0.000000
O O15 0.170408 0.848764 0.968959
O O16 0.500000 0.108420 0.750000
#
# Coordination Sequence:
#
# PCOD9298033 Si02
#       8
#     8   4   8   8   8   8   8   8
#     4  11  26  42  67 100 139 178 237 291 347 418
#     4  12  26  42  70 102 140 182 236 296 356 428
#     4  11  24  43  67 101 134 181 230 289 353 413
#     4  10  24  43  66 101 134 180 236 275 355 420
#     4  11  24  45  71 100 145 185 232 297 365 427
#     4  11  21  42  71  98 130 180 230 282 341 419
#     4  11  24  42  68 100 133 182 232 285 350 421
#     4  11  25  42  67  98 143 186 228 293 351 413
#
# _framework density 21.937052000000001
#
# number of rings (size 3 to 8) (size 9 to 14) (size 15 to 20)
#    0.000    1.067    2.667    3.600    2.800    9.600 
#    0.000    0.000    0.000    0.000    0.000    0.000 
#    0.000    0.000    0.000    0.000    0.000    0.000 
#
# Total GULP energy -167610.372879 kJ/mol
# GULP energy per Si atom -5587.012429 kJ/mol
# Density = 2.188712 g / cm^3
# Si number density = 21.937052 Si / 1000 Ang^3
#
#
#
# Elastic Constant Matrix: (Units=GPa)
#
#
# Indices 1 2 3 4 5 6 
#
# 1 65.7984 9.8696 13.2868 0.0000 -4.4522 0.0000
# 2 9.8696 96.7610 32.7333 0.0000 -6.0180 0.0000
# 3 13.2868 32.7333 66.0660 0.0000 3.5011 0.0000
# 4 0.0000 0.0000 0.0000 44.2454 0.0000 10.9275
# 5 -4.4522 -6.0180 3.5011 0.0000 21.7119 0.0000
# 6 0.0000 0.0000 0.0000 10.9275 0.0000 23.4653
#
#
#
# Elastic Compliance Matrix: (Units=1/GPa)
#
#
# Indices 1 2 3 4 5 6 
#
# 1 0.016164 -0.000297 -0.003303 0.000000 0.003765 0.000000
# 2 -0.000297 0.012867 -0.006557 0.000000 0.004563 0.000000
# 3 -0.003303 -0.006557 0.019347 0.000000 -0.005615 0.000000
# 4 0.000000 0.000000 0.000000 0.025538 0.000000 -0.011893
# 5 0.003765 0.004563 -0.005615 0.000000 0.049000 0.000000
# 6 0.000000 0.000000 0.000000 -0.011893 0.000000 0.048155
#
#
# Mechanical properties :
#
#
# Convention : Reuss Voigt Hill
#
# Bulk Modulus (GPa) = 35.63363 37.82277 36.72820
# Shear Modulus (GPa) = 24.90778 29.40025 27.15401
#
# Velocity S-wave (km/s) = 3.37326 3.66486 3.52208
# Velocity P-wave (km/s) = 5.60809 5.93188 5.77225
#
# Compressibility (1/GPa) = 0.02806338
#
# Stress axis : x y z
#
# Youngs Moduli (GPa) = 61.86488 77.71777 51.68744
#
# Poissons Ratio (x) = 0.02310 0.17073
# Poissons Ratio (y) = 0.01839 0.33892
# Poissons Ratio (z) = 0.20435 0.50961
#
# Static dielectric constant tensor:
#      x y z
#    x 1.837480 0.000000 0.004410 
#    y 0.000000 1.815110 0.000000 
#    z 0.004410 0.000000 1.792190 
# 
# From -- ./inp_files/124011.got.cif
#   From: 2010.05.17/outbox.cif.g08.bks.cpg/sg15_63_cif.got.tgz:124011.got - 2010.06.03 18:47:42.
