data_PCOD9298669
_publ_section_title
;
Structure prediction by ZEFSAII (Michael W. Deem and Ramdas Pophale) SiO2 
 PCOD9298669
Probable space group: C 2/C
;
_chemical_formula_sum "Si O2"
_cell_formula_units_Z 48
_cell_length_a 21.132209
_cell_length_b 21.293685
_cell_length_c 14.271279
_cell_angle_alpha 90.000000
_cell_angle_beta 18.333532
_cell_angle_gamma 90.000000
_cell_volume 2019.973225
_symmetry_space_group_name_H-M "C 2/C"
_symmetry_group_IT_number 15
_symmetry_cell_setting 'monoclinic'
loop_
_space_group_symop_operation_xyz
x,y,z
-x,y,1/2-z
-x,-y,-z
x,-y,1/2+z
1/2+x,1/2+y,z
1/2-x,1/2+y,1/2-z
1/2-x,1/2-y,-z
1/2+x,1/2-y,1/2+z
loop_
_atom_site_type_symbol
_atom_site_label
_atom_site_fract_x
_atom_site_fract_y
_atom_site_fract_z
Si Si1 0.232664 0.793913 0.404235
Si Si2 0.615188 0.722683 0.865884
Si Si3 0.033788 0.101854 0.494677
Si Si4 0.339348 0.044190 0.396001
Si Si5 0.767866 0.860280 0.607696
Si Si6 0.670183 0.099010 0.586608
O O1 0.382941 0.737863 0.219238
O O2 0.301909 0.854228 0.365784
O O3 0.240360 0.798068 0.280541
O O4 0.000000 0.780605 0.750000
O O5 0.599488 0.665727 0.816515
O O6 0.693047 0.788897 0.717717
O O7 0.217178 0.111512 0.308803
O O8 0.124135 0.095885 0.264265
O O9 0.882006 0.049734 0.745502
O O10 0.500000 0.059952 0.250000
O O11 0.346914 0.093099 0.300264
O O12 0.373207 0.972069 0.319959
O O13 0.000000 0.860282 0.250000
O O14 0.500000 0.118716 0.750000
#
# Coordination Sequence:
#
# PCOD9298669 Si02
#       6
#     8   8   8   8   8   8
#     4  12  26  42  69 100 139 175 218 276 336 397
#     4  12  25  43  67 105 134 175 226 270 339 396
#     4  11  23  43  68  98 134 178 219 278 332 399
#     4  10  25  46  69  99 133 177 227 276 330 393
#     4  10  24  45  68  98 138 178 218 278 336 394
#     4  11  25  47  68 100 136 176 225 277 332 397
#
# _framework density 23.762691
#
# number of rings (size 3 to 8) (size 9 to 14) (size 15 to 20)
#    0.000    1.000    3.333    2.000    2.333    5.333 
#    3.000    2.500    0.000    0.000    0.000    0.000 
#    0.000    0.000    0.000    0.000    0.000    0.000 
#
# Total GULP energy -134347.491271 kJ/mol
# GULP energy per Si atom -5597.812136 kJ/mol
# Density = 2.370861 g / cm^3
# Si number density = 23.762691 Si / 1000 Ang^3
#
#
#
# Elastic Constant Matrix: (Units=GPa)
#
#
# Indices 1 2 3 4 5 6 
#
# 1 169.5853 89.8464 9.8747 -0.0074 -19.7947 0.0236
# 2 89.8464 152.9063 20.9158 0.0276 -15.3551 -0.0180
# 3 9.8747 20.9158 55.5071 0.0484 -13.4531 -0.0175
# 4 -0.0074 0.0276 0.0484 38.2973 -0.0006 3.2334
# 5 -19.7947 -15.3551 -13.4531 -0.0006 37.1976 -0.0172
# 6 0.0236 -0.0180 -0.0175 3.2334 -0.0172 35.7698
#
#
#
# Elastic Compliance Matrix: (Units=1/GPa)
#
#
# Indices 1 2 3 4 5 6 
#
# 1 0.008862 -0.005049 0.001056 0.000005 0.003014 -0.000007
# 2 -0.005049 0.009924 -0.002740 -0.000005 0.000419 0.000008
# 3 0.001056 -0.002740 0.020521 -0.000025 0.006853 0.000013
# 4 0.000005 -0.000005 -0.000025 0.026312 -0.000009 -0.002379
# 5 0.003014 0.000419 0.006853 -0.000009 0.031139 0.000017
# 6 -0.000007 0.000008 0.000013 -0.002379 0.000017 0.028172
#
#
# Mechanical properties :
#
#
# Convention : Reuss Voigt Hill
#
# Bulk Modulus (GPa) = 38.69649 68.80805 53.75227
# Shear Modulus (GPa) = 34.01182 39.41041 36.71112
#
# Velocity S-wave (km/s) = 3.78737 4.07689 3.93479
# Velocity P-wave (km/s) = 5.95361 7.15406 6.58126
#
# Compressibility (1/GPa) = 0.02584214
#
# Stress axis : x y z
#
# Youngs Moduli (GPa) = 112.84113 100.77031 48.73037
#
# Poissons Ratio (x) = 0.50880 -0.05148
# Poissons Ratio (y) = 0.56975 0.13350
# Poissons Ratio (z) = -0.11921 0.27607
#
# Static dielectric constant tensor:
#      x y z
#    x 1.928210 0.000000 0.055610 
#    y 0.000000 1.861040 0.000030 
#    z 0.055610 0.000030 1.974010 
# 
# From -- ./inp_files/169672.got.cif
#   From: 2010.05.17/outbox.cif.g08.bks.cpg/sg15_85_cif.got.tgz:169672.got - 2010.06.03 18:47:42.
