data_PCOD9298276
_publ_section_title
;
Structure prediction by ZEFSAII (Michael W. Deem and Ramdas Pophale) SiO2 
 PCOD9298276
Probable space group: C 2/C
;
_chemical_formula_sum "Si O2"
_cell_formula_units_Z 40
_cell_length_a 8.326260
_cell_length_b 10.542087
_cell_length_c 17.592550
_cell_angle_alpha 90.000000
_cell_angle_beta 79.626698
_cell_angle_gamma 90.000000
_cell_volume 1518.967123
_symmetry_space_group_name_H-M "C 2/C"
_symmetry_group_IT_number 15
_symmetry_cell_setting 'monoclinic'
loop_
_space_group_symop_operation_xyz
x,y,z
-x,y,1/2-z
-x,-y,-z
x,-y,1/2+z
1/2+x,1/2+y,z
1/2-x,1/2+y,1/2-z
1/2-x,1/2-y,-z
1/2+x,1/2-y,1/2+z
loop_
_atom_site_type_symbol
_atom_site_label
_atom_site_fract_x
_atom_site_fract_y
_atom_site_fract_z
Si Si1 0.758268 0.580942 0.981731
Si Si2 0.000000 0.620592 0.250000
Si Si3 0.193953 0.823208 0.163837
Si Si4 0.533839 0.128282 0.085984
Si Si5 0.000000 0.047074 0.250000
Si Si6 0.530942 0.722631 0.102133
O O1 0.588514 0.624406 0.031807
O O2 0.893135 0.607640 0.037231
O O3 0.797669 0.438496 0.953967
O O4 0.819400 0.677034 0.910872
O O5 0.842363 0.712125 0.271314
O O6 0.008514 0.557359 0.330690
O O7 0.143474 0.949649 0.211621
O O8 0.368166 0.806996 0.110081
O O9 0.066959 0.772533 0.109944
O O10 0.003195 0.138203 0.321944
#
# Coordination Sequence:
#
# PCOD9298276 Si02
#       6
#     8   4   8   8   4   8
#     4  10  24  44  65 109 147 176 227 300 353 420
#     4   7  18  39  66  96 123 186 233 270 336 417
#     4   9  22  46  69  96 132 187 235 284 342 413
#     4   9  20  44  73  94 145 188 226 284 356 408
#     4  11  26  47  72 104 143 184 243 300 340 427
#     4  11  26  43  69 106 136 186 233 282 362 413
#
# _framework density 26.333684999999999
#
# number of rings (size 3 to 8) (size 9 to 14) (size 15 to 20)
#    1.200    1.200    0.000    0.000    8.400    2.400 
#   10.800    0.000    0.000    0.000    0.000    0.000 
#    0.000    0.000    0.000    0.000    0.000    0.000 
#
# Total GULP energy -111526.060540 kJ/mol
# GULP energy per Si atom -5576.303027 kJ/mol
# Density = 2.627375 g / cm^3
# Si number density = 26.333685 Si / 1000 Ang^3
#
#
#
# Elastic Constant Matrix: (Units=GPa)
#
#
# Indices 1 2 3 4 5 6 
#
# 1 81.5425 22.6421 70.0795 0.0000 -35.5768 0.0000
# 2 22.6421 99.8997 68.3698 0.0000 6.9099 0.0000
# 3 70.0795 68.3698 166.9502 0.0000 -32.9002 0.0000
# 4 0.0000 0.0000 0.0000 42.2338 0.0000 -1.5495
# 5 -35.5768 6.9099 -32.9002 0.0000 43.3164 0.0000
# 6 0.0000 0.0000 0.0000 -1.5495 0.0000 19.7619
#
#
#
# Elastic Compliance Matrix: (Units=1/GPa)
#
#
# Indices 1 2 3 4 5 6 
#
# 1 0.025859 -0.002555 -0.006518 0.000000 0.016695 0.000000
# 2 -0.002555 0.016748 -0.007911 0.000000 -0.010778 0.000000
# 3 -0.006518 -0.007911 0.013124 0.000000 0.005876 0.000000
# 4 0.000000 0.000000 0.000000 0.023746 0.000000 0.001862
# 5 0.016695 -0.010778 0.005876 0.000000 0.042980 0.000000
# 6 0.000000 0.000000 0.000000 0.001862 0.000000 0.050748
#
#
# Mechanical properties :
#
#
# Convention : Reuss Voigt Hill
#
# Bulk Modulus (GPa) = 45.94780 74.50836 60.22808
# Shear Modulus (GPa) = 23.31790 33.54916 28.43353
#
# Velocity S-wave (km/s) = 2.97893 3.57319 3.28950
# Velocity P-wave (km/s) = 5.41463 6.73639 6.11135
#
# Compressibility (1/GPa) = 0.02176383
#
# Stress axis : x y z
#
# Youngs Moduli (GPa) = 38.67114 59.70716 76.19912
#
# Poissons Ratio (x) = 0.15252 0.49670
# Poissons Ratio (y) = 0.09879 0.60278
# Poissons Ratio (z) = 0.25208 0.47232
#
# Static dielectric constant tensor:
#      x y z
#    x 2.109120 0.000000 0.016110 
#    y 0.000000 2.134780 0.000000 
#    z 0.016110 0.000000 2.071710 
# 
# From -- ./inp_files/236452.got.cif
#   From: 2010.05.17/outbox.cif.g08.bks.cpg/sg15_119_cif.got.tgz:236452.got - 2010.06.03 18:47:42.
