data_PCOD9298354
_publ_section_title
;
Structure prediction by ZEFSAII (Michael W. Deem and Ramdas Pophale) SiO2 
 PCOD9298354
Probable space group: C 2/C
;
_chemical_formula_sum "Si O2"
_cell_formula_units_Z 52
_cell_length_a 9.860685
_cell_length_b 11.498340
_cell_length_c 26.089311
_cell_angle_alpha 90.000000
_cell_angle_beta 134.841787
_cell_angle_gamma 90.000000
_cell_volume 2097.421774
_symmetry_space_group_name_H-M "C 2/C"
_symmetry_group_IT_number 15
_symmetry_cell_setting 'monoclinic'
loop_
_space_group_symop_operation_xyz
x,y,z
-x,y,1/2-z
-x,-y,-z
x,-y,1/2+z
1/2+x,1/2+y,z
1/2-x,1/2+y,1/2-z
1/2-x,1/2-y,-z
1/2+x,1/2-y,1/2+z
loop_
_atom_site_type_symbol
_atom_site_label
_atom_site_fract_x
_atom_site_fract_y
_atom_site_fract_z
Si Si1 0.597153 0.879645 0.508093
Si Si2 0.915648 0.670247 0.339847
Si Si3 0.006400 0.034495 0.413241
Si Si4 0.500000 0.251897 0.250000
Si Si5 0.143063 0.835999 0.527188
Si Si6 0.694534 0.891278 0.278446
Si Si7 0.849180 0.406825 0.349205
O O1 0.823612 0.894244 0.567885
O O2 0.500975 0.772735 0.511739
O O3 0.500000 0.000000 0.500000
O O4 0.527020 0.869168 0.430642
O O5 0.925743 0.680034 0.279740
O O6 0.773096 0.769857 0.320757
O O7 0.848825 0.546368 0.343997
O O8 0.133524 0.693686 0.415352
O O9 0.892590 0.105661 0.426323
O O10 0.098185 0.929567 0.471173
O O11 0.864095 0.981452 0.333644
O O12 0.658843 0.340045 0.316650
O O13 0.500000 0.934659 0.250000
O O14 0.640499 0.867435 0.206013
#
# Coordination Sequence:
#
# PCOD9298354 Si02
#       7
#     8   8   8   4   8   8   8
#     4  12  26  45  72 107 142 187 236 298 357 425
#     4  11  23  44  72  99 139 190 221 301 357 420
#     4  11  26  46  72 105 138 192 236 296 354 426
#     4  10  24  44  68 102 142 190 238 288 360 432
#     4  11  24  46  74  98 143 181 241 289 356 427
#     4  11  27  46  70 104 140 179 239 290 356 428
#     4  11  25  44  71  99 144 183 239 286 360 429
#
# _framework density 24.792344
#
# number of rings (size 3 to 8) (size 9 to 14) (size 15 to 20)
#    0.000    0.923    3.077    2.308   10.769    1.231 
#    2.769    0.000    0.000    0.000    0.000    0.000 
#    0.000    0.000    0.000    0.000    0.000    0.000 
#
# Total GULP energy -145667.232012 kJ/mol
# GULP energy per Si atom -5602.585847 kJ/mol
# Density = 2.473592 g / cm^3
# Si number density = 24.792344 Si / 1000 Ang^3
#
#
#
# Elastic Constant Matrix: (Units=GPa)
#
#
# Indices 1 2 3 4 5 6 
#
# 1 64.3336 26.7032 41.0778 0.0000 0.2886 0.0000
# 2 26.7032 121.7030 18.5792 0.0000 14.1637 0.0000
# 3 41.0778 18.5792 105.6558 0.0000 13.1204 0.0000
# 4 0.0000 0.0000 0.0000 19.5900 0.0000 6.3790
# 5 0.2886 14.1637 13.1204 0.0000 40.6488 0.0000
# 6 0.0000 0.0000 0.0000 6.3790 0.0000 21.6184
#
#
#
# Elastic Compliance Matrix: (Units=1/GPa)
#
#
# Indices 1 2 3 4 5 6 
#
# 1 0.022753 -0.004149 -0.008621 0.000000 0.004067 0.000000
# 2 -0.004149 0.009465 0.000370 0.000000 -0.003388 0.000000
# 3 -0.008621 0.000370 0.013293 0.000000 -0.004358 0.000000
# 4 0.000000 0.000000 0.000000 0.056473 0.000000 -0.016663
# 5 0.004067 -0.003388 -0.004358 0.000000 0.027159 0.000000
# 6 0.000000 0.000000 0.000000 -0.016663 0.000000 0.051174
#
#
# Mechanical properties :
#
#
# Convention : Reuss Voigt Hill
#
# Bulk Modulus (GPa) = 48.29031 51.60144 49.94588
# Shear Modulus (GPa) = 23.58246 30.06024 26.82135
#
# Velocity S-wave (km/s) = 3.08750 3.48585 3.29270
# Velocity P-wave (km/s) = 5.67718 6.08770 5.88602
#
# Compressibility (1/GPa) = 0.02070809
#
# Stress axis : x y z
#
# Youngs Moduli (GPa) = 43.95023 105.65213 75.22845
#
# Poissons Ratio (x) = 0.43840 0.64858
# Poissons Ratio (y) = 0.18237 -0.02780
# Poissons Ratio (z) = 0.37892 -0.03905
#
# Static dielectric constant tensor:
#      x y z
#    x 2.128820 0.000000 0.007380 
#    y 0.000000 2.030460 0.000000 
#    z 0.007380 0.000000 1.971140 
# 
# From -- ./inp_files/310848.got.cif
#   From: 2010.05.17/outbox.cif.g08.bks.cpg/sg15_156_cif.got.tgz:310848.got - 2010.06.03 18:47:42.
