data_PCOD9298916
_publ_section_title
;
Structure prediction by ZEFSAII (Michael W. Deem and Ramdas Pophale) SiO2 
 PCOD9298916
Probable space group: C 2/C
;
_chemical_formula_sum "Si O2"
_cell_formula_units_Z 44
_cell_length_a 25.823360
_cell_length_b 7.602934
_cell_length_c 15.462791
_cell_angle_alpha 90.000000
_cell_angle_beta 41.217944
_cell_angle_gamma 90.000000
_cell_volume 2000.404799
_symmetry_space_group_name_H-M "C 2/C"
_symmetry_group_IT_number 15
_symmetry_cell_setting 'monoclinic'
loop_
_space_group_symop_operation_xyz
x,y,z
-x,y,1/2-z
-x,-y,-z
x,-y,1/2+z
1/2+x,1/2+y,z
1/2-x,1/2+y,1/2-z
1/2-x,1/2-y,-z
1/2+x,1/2-y,1/2+z
loop_
_atom_site_type_symbol
_atom_site_label
_atom_site_fract_x
_atom_site_fract_y
_atom_site_fract_z
Si Si1 0.733823 0.046529 0.121833
Si Si2 0.053417 0.541122 0.350087
Si Si3 0.853867 0.765607 0.033317
Si Si4 0.500000 0.172823 0.750000
Si Si5 0.742110 0.462261 0.113681
Si Si6 0.922241 0.101051 0.623798
O O1 0.644141 0.992944 0.252113
O O2 0.748334 0.252714 0.124237
O O3 0.792697 0.922667 0.098394
O O4 0.746906 0.018696 0.002881
O O5 0.021582 0.444401 0.305820
O O6 0.056507 0.751766 0.332193
O O7 0.000000 0.500000 0.500000
O O8 0.806301 0.583876 0.079688
O O9 0.893377 0.790836 0.076236
O O10 0.922792 0.778293 0.875552
O O11 0.652654 0.511019 0.251664
O O12 0.000000 0.000000 0.500000
#
# Coordination Sequence:
#
# PCOD9298916 Si02
#       6
#     8   8   8   4   8   8
#     4  10  24  46  72 106 135 187 240 296 362 438
#     4  11  24  47  72 102 147 182 241 304 358 437
#     4  12  26  44  76 102 142 194 239 295 368 437
#     4  12  26  44  74 110 136 198 244 290 380 430
#     4  10  24  46  70 101 144 182 241 294 361 434
#     4  11  28  46  68 111 145 190 242 304 363 432
#
# _framework density 21.995549
#
# number of rings (size 3 to 8) (size 9 to 14) (size 15 to 20)
#    0.000    1.091    3.636    0.545   10.182    1.455 
#    0.000    0.909    0.000    0.000    0.000    0.000 
#    0.000    0.000    0.000    0.000    0.000    0.000 
#
# Total GULP energy -123112.687904 kJ/mol
# GULP energy per Si atom -5596.031268 kJ/mol
# Density = 2.194549 g / cm^3
# Si number density = 21.995549 Si / 1000 Ang^3
#
#
#
# Elastic Constant Matrix: (Units=GPa)
#
#
# Indices 1 2 3 4 5 6 
#
# 1 91.1010 45.7160 41.7199 -0.0024 -13.6782 0.0022
# 2 45.7160 61.8436 18.7368 -0.0024 -16.5431 0.0057
# 3 41.7199 18.7368 182.9794 -0.0046 -31.7806 0.0031
# 4 -0.0024 -0.0024 -0.0046 33.2642 0.0015 -6.0508
# 5 -13.6782 -16.5431 -31.7806 0.0015 45.7186 -0.0006
# 6 0.0022 0.0057 0.0031 -6.0508 -0.0006 35.3876
#
#
#
# Elastic Compliance Matrix: (Units=1/GPa)
#
#
# Indices 1 2 3 4 5 6 
#
# 1 0.018967 -0.013429 -0.003193 0.000000 -0.001404 0.000001
# 2 -0.013429 0.027516 0.001451 0.000000 0.006947 -0.000004
# 3 -0.003193 0.001451 0.006790 0.000001 0.004289 0.000000
# 4 0.000000 0.000000 0.000001 0.031027 0.000000 0.005305
# 5 -0.001404 0.006947 0.004289 0.000000 0.026948 -0.000001
# 6 0.000001 -0.000004 0.000000 0.005305 -0.000001 0.029166
#
#
# Mechanical properties :
#
#
# Convention : Reuss Voigt Hill
#
# Bulk Modulus (GPa) = 43.61214 60.91883 52.26549
# Shear Modulus (GPa) = 28.02680 38.19082 33.10881
#
# Velocity S-wave (km/s) = 3.57347 4.17141 3.88396
# Velocity P-wave (km/s) = 6.07429 7.13842 6.62775
#
# Compressibility (1/GPa) = 0.02292939
#
# Stress axis : x y z
#
# Youngs Moduli (GPa) = 52.72196 36.34276 147.28373
#
# Poissons Ratio (x) = 0.48806 0.47034
# Poissons Ratio (y) = 0.70802 -0.21370
# Poissons Ratio (z) = 0.16836 -0.05273
#
# Static dielectric constant tensor:
#      x y z
#    x 1.780280 0.000000 -0.009330 
#    y 0.000000 1.828310 0.000000 
#    z -0.009330 0.000000 1.838610 
# 
# From -- ./inp_files/176443.got.cif
#   From: 2010.05.17/outbox.cif.g08.bks.cpg/sg15_89_cif.got.tgz:176443.got - 2010.06.03 18:47:42.
