data_PCOD9298715
_publ_section_title
;
Structure prediction by ZEFSAII (Michael W. Deem and Ramdas Pophale) SiO2 
 PCOD9298715
Probable space group: C 2/C
;
_chemical_formula_sum "Si O2"
_cell_formula_units_Z 36
_cell_length_a 14.980013
_cell_length_b 7.891439
_cell_length_c 18.720562
_cell_angle_alpha 90.000000
_cell_angle_beta 138.451683
_cell_angle_gamma 90.000000
_cell_volume 1467.795161
_symmetry_space_group_name_H-M "C 2/C"
_symmetry_group_IT_number 15
_symmetry_cell_setting 'monoclinic'
loop_
_space_group_symop_operation_xyz
x,y,z
-x,y,1/2-z
-x,-y,-z
x,-y,1/2+z
1/2+x,1/2+y,z
1/2-x,1/2+y,1/2-z
1/2-x,1/2-y,-z
1/2+x,1/2-y,1/2+z
loop_
_atom_site_type_symbol
_atom_site_label
_atom_site_fract_x
_atom_site_fract_y
_atom_site_fract_z
Si Si1 0.777603 0.852482 0.362938
Si Si2 0.889956 0.983138 0.065127
Si Si3 0.500000 0.728227 0.250000
Si Si4 0.339094 0.022693 0.847074
Si Si5 0.114455 0.388554 0.975691
O O1 0.630838 0.838885 0.311793
O O2 0.816235 0.660686 0.367838
O O3 0.875806 0.937262 0.478452
O O4 0.761850 0.944140 0.277587
O O5 0.739740 0.964765 0.008481
O O6 0.972821 0.103881 0.166763
O O7 0.935633 0.787991 0.087578
O O8 0.335065 0.146397 0.912710
O O9 0.489870 0.016081 0.906141
#
# Coordination Sequence:
#
# PCOD9298715 Si02
#       5
#     8   8   4   8   8
#     4  12  26  43  70  98 139 176 222 273 338 389
#     4  11  25  46  70  97 131 183 222 273 326 406
#     4  12  26  42  70  98 132 176 232 270 328 404
#     4  11  25  43  67 104 135 176 217 281 330 392
#     4  10  24  45  70  96 139 171 228 267 335 391
#
# _framework density 24.526582000000001
#
# number of rings (size 3 to 8) (size 9 to 14) (size 15 to 20)
#    0.000    0.889    2.222    3.333    9.333    4.444 
#    0.000    0.000    0.000    0.000    0.000    0.000 
#    0.000    0.000    0.000    0.000    0.000    0.000 
#
# Total GULP energy -100918.494591 kJ/mol
# GULP energy per Si atom -5606.583033 kJ/mol
# Density = 2.447076 g / cm^3
# Si number density = 24.526582 Si / 1000 Ang^3
#
#
#
# Elastic Constant Matrix: (Units=GPa)
#
#
# Indices 1 2 3 4 5 6 
#
# 1 84.4323 4.0240 1.4022 0.0000 -2.0935 0.0000
# 2 4.0240 46.2658 18.1923 0.0000 -13.8637 0.0000
# 3 1.4022 18.1923 141.6863 0.0000 -40.6085 0.0000
# 4 0.0000 0.0000 0.0000 45.0060 0.0000 -11.7566
# 5 -2.0935 -13.8637 -40.6085 0.0000 39.8381 0.0000
# 6 0.0000 0.0000 0.0000 -11.7566 0.0000 29.8852
#
#
#
# Elastic Compliance Matrix: (Units=1/GPa)
#
#
# Indices 1 2 3 4 5 6 
#
# 1 0.011898 -0.000958 0.000126 0.000000 0.000420 0.000000
# 2 -0.000958 0.024304 -0.000991 0.000000 0.007397 0.000000
# 3 0.000126 -0.000991 0.010012 0.000000 0.009867 0.000000
# 4 0.000000 0.000000 0.000000 0.024764 0.000000 0.009742
# 5 0.000420 0.007397 0.009867 0.000000 0.037756 0.000000
# 6 0.000000 0.000000 0.000000 0.009742 0.000000 0.037294
#
#
# Mechanical properties :
#
#
# Convention : Reuss Voigt Hill
#
# Bulk Modulus (GPa) = 23.49295 35.51348 29.50321
# Shear Modulus (GPa) = 30.51317 39.53026 35.02171
#
# Velocity S-wave (km/s) = 3.53099 4.01899 3.78287
# Velocity P-wave (km/s) = 5.12086 6.00395 5.57990
#
# Compressibility (1/GPa) = 0.04256597
#
# Stress axis : x y z
#
# Youngs Moduli (GPa) = 84.04913 41.14570 99.88144
#
# Poissons Ratio (x) = 0.03944 -0.01255
# Poissons Ratio (y) = 0.08056 0.09898
# Poissons Ratio (z) = -0.01056 0.04077
#
# Static dielectric constant tensor:
#      x y z
#    x 1.992050 0.000000 0.006520 
#    y 0.000000 1.895400 0.000000 
#    z 0.006520 0.000000 1.944470 
# 
# From -- ./inp_files/102434.got.cif
#   From: 2010.05.17/outbox.cif.g08.bks.cpg/sg15_52_cif.got.tgz:102434.got - 2010.06.03 18:47:42.
