data_PCOD9298690
_publ_section_title
;
Structure prediction by ZEFSAII (Michael W. Deem and Ramdas Pophale) SiO2 
 PCOD9298690
Probable space group: C 2/C
;
_chemical_formula_sum "Si O2"
_cell_formula_units_Z 44
_cell_length_a 24.331501
_cell_length_b 6.339409
_cell_length_c 22.174127
_cell_angle_alpha 90.000000
_cell_angle_beta 146.406593
_cell_angle_gamma 90.000000
_cell_volume 1892.437304
_symmetry_space_group_name_H-M "C 2/C"
_symmetry_group_IT_number 15
_symmetry_cell_setting 'monoclinic'
loop_
_space_group_symop_operation_xyz
x,y,z
-x,y,1/2-z
-x,-y,-z
x,-y,1/2+z
1/2+x,1/2+y,z
1/2-x,1/2+y,1/2-z
1/2-x,1/2-y,-z
1/2+x,1/2-y,1/2+z
loop_
_atom_site_type_symbol
_atom_site_label
_atom_site_fract_x
_atom_site_fract_y
_atom_site_fract_z
Si Si1 0.424011 0.308067 0.429426
Si Si2 0.958712 0.531838 0.867864
Si Si3 0.175542 0.345151 0.883869
Si Si4 0.000000 0.042634 0.750000
Si Si5 0.750711 0.630507 0.643129
Si Si6 0.108917 0.325057 0.415620
O O1 0.500000 0.500000 0.500000
O O2 0.470655 0.143895 0.519513
O O3 0.318962 0.374545 0.361946
O O4 0.422546 0.185994 0.364626
O O5 0.863290 0.677221 0.765987
O O6 0.028350 0.522085 0.873127
O O7 0.084080 0.186188 0.796048
O O8 0.233324 0.406530 0.876156
O O9 0.142265 0.564505 0.884665
O O10 0.250000 0.250000 0.000000
O O11 0.055088 0.892398 0.848666
O O12 0.697000 0.777587 0.543848
#
# Coordination Sequence:
#
# PCOD9298690 Si02
#       6
#     8   8   8   4   8   8
#     4  10  25  46  68  96 136 176 235 287 345 409
#     4  10  24  45  69  98 134 183 227 286 350 417
#     4  12  26  43  71 108 143 187 240 281 368 448
#     4  12  24  44  70 102 154 192 228 304 358 438
#     4  11  24  44  71 104 136 184 233 297 351 423
#     4  11  25  45  69 107 150 180 236 298 362 429
#
# _framework density 23.250440000000001
#
# number of rings (size 3 to 8) (size 9 to 14) (size 15 to 20)
#    0.000    1.091    1.818    3.273    7.636    2.909 
#    0.000    0.000    0.000    0.000    0.000    0.000 
#    0.000    0.000    0.000    0.000    0.000    0.000 
#
# Total GULP energy -123016.563071 kJ/mol
# GULP energy per Si atom -5591.661958 kJ/mol
# Density = 2.319752 g / cm^3
# Si number density = 23.250440 Si / 1000 Ang^3
#
#
#
# Elastic Constant Matrix: (Units=GPa)
#
#
# Indices 1 2 3 4 5 6 
#
# 1 132.6515 44.7983 29.0707 0.0001 22.4093 0.0000
# 2 44.7983 84.8439 19.9089 0.0000 7.3589 -0.0003
# 3 29.0707 19.9089 109.8561 0.0000 12.2684 -0.0001
# 4 0.0001 0.0000 0.0000 32.1869 0.0001 8.5300
# 5 22.4093 7.3589 12.2684 0.0001 35.4207 0.0001
# 6 0.0000 -0.0003 -0.0001 8.5300 0.0001 24.6894
#
#
#
# Elastic Compliance Matrix: (Units=1/GPa)
#
#
# Indices 1 2 3 4 5 6 
#
# 1 0.010257 -0.004671 -0.001302 0.000000 -0.005068 0.000000
# 2 -0.004671 0.014555 -0.001450 0.000000 0.000433 0.000000
# 3 -0.001302 -0.001450 0.009970 0.000000 -0.002328 0.000000
# 4 0.000000 0.000000 0.000000 0.034200 0.000000 -0.011816
# 5 -0.005068 0.000433 -0.002328 0.000000 0.032155 0.000000
# 6 0.000000 0.000000 0.000000 -0.011816 0.000000 0.044585
#
#
# Mechanical properties :
#
#
# Convention : Reuss Voigt Hill
#
# Bulk Modulus (GPa) = 50.15813 57.21193 53.68503
# Shear Modulus (GPa) = 29.90165 34.03100 31.96632
#
# Velocity S-wave (km/s) = 3.59007 3.82995 3.71195
# Velocity P-wave (km/s) = 6.22934 6.64968 6.44294
#
# Compressibility (1/GPa) = 0.01993695
#
# Stress axis : x y z
#
# Youngs Moduli (GPa) = 97.48977 68.70327 100.29922
#
# Poissons Ratio (x) = 0.32091 0.13058
# Poissons Ratio (y) = 0.45537 0.14545
# Poissons Ratio (z) = 0.12692 0.09963
#
# Static dielectric constant tensor:
#      x y z
#    x 1.888310 0.000000 -0.013700 
#    y 0.000000 1.883280 0.000000 
#    z -0.013700 0.000000 1.891550 
# 
# From -- ./inp_files/281256.got.cif
#   From: 2010.05.17/outbox.cif.g08.bks.cpg/sg15_141_cif.got.tgz:281256.got - 2010.06.03 18:47:42.
