data_PCOD9298363
_publ_section_title
;
Structure prediction by ZEFSAII (Michael W. Deem and Ramdas Pophale) SiO2 
 PCOD9298363
Probable space group: C 2/C
;
_chemical_formula_sum "Si O2"
_cell_formula_units_Z 44
_cell_length_a 5.347272
_cell_length_b 23.996926
_cell_length_c 15.552244
_cell_angle_alpha 90.000000
_cell_angle_beta 97.553684
_cell_angle_gamma 90.000000
_cell_volume 1978.316394
_symmetry_space_group_name_H-M "C 2/C"
_symmetry_group_IT_number 15
_symmetry_cell_setting 'monoclinic'
loop_
_space_group_symop_operation_xyz
x,y,z
-x,y,1/2-z
-x,-y,-z
x,-y,1/2+z
1/2+x,1/2+y,z
1/2-x,1/2+y,1/2-z
1/2-x,1/2-y,-z
1/2+x,1/2-y,1/2+z
loop_
_atom_site_type_symbol
_atom_site_label
_atom_site_fract_x
_atom_site_fract_y
_atom_site_fract_z
Si Si1 0.000000 0.811139 0.750000
Si Si2 0.129079 0.833224 0.427832
Si Si3 0.430263 0.226417 0.347899
Si Si4 0.391691 0.115538 0.649862
Si Si5 0.728215 0.874731 0.885559
Si Si6 0.224900 0.501372 0.441254
O O1 0.130908 0.770568 0.825686
O O2 0.162300 0.852387 0.698676
O O3 0.389313 0.857550 0.400631
O O4 0.112252 0.855191 0.524413
O O5 0.091212 0.767338 0.412920
O O6 0.877918 0.854238 0.367898
O O7 0.500000 0.235023 0.250000
O O8 0.477559 0.163076 0.380524
O O9 0.500000 0.117240 0.750000
O O10 0.325453 0.052693 0.618368
O O11 0.701999 0.940509 0.889361
O O12 0.500000 0.500000 0.500000
O O13 0.000000 0.500000 0.500000
#
# Coordination Sequence:
#
# PCOD9298363 Si02
#       6
#     4   8   8   8   8   8
#     4  10  26  44  70 108 152 188 248 298 372 430
#     4  12  26  45  77 103 147 189 244 296 368 436
#     4  10  24  44  68 108 143 192 237 305 360 435
#     4  12  26  46  71 109 142 191 240 302 364 427
#     4  11  25  46  72 106 142 195 243 300 362 433
#     4  12  25  49  73 101 142 186 241 297 355 427
#
# _framework density 22.241136000000001
#
# number of rings (size 3 to 8) (size 9 to 14) (size 15 to 20)
#    0.000    0.727    3.636    2.182   11.455    2.909 
#    3.273    0.000    0.000    0.000    0.000    0.000 
#    0.000    0.000    0.000    0.000    0.000    0.000 
#
# Total GULP energy -122819.769536 kJ/mol
# GULP energy per Si atom -5582.716797 kJ/mol
# Density = 2.219051 g / cm^3
# Si number density = 22.241136 Si / 1000 Ang^3
#
#
#
# Elastic Constant Matrix: (Units=GPa)
#
#
# Indices 1 2 3 4 5 6 
#
# 1 105.9709 32.7571 22.4555 0.0000 13.9220 0.0000
# 2 32.7571 128.2021 11.1486 0.0000 7.0581 0.0000
# 3 22.4555 11.1486 86.6250 0.0000 14.8309 0.0000
# 4 0.0000 0.0000 0.0000 37.1406 0.0000 6.7288
# 5 13.9220 7.0581 14.8309 0.0000 40.4884 0.0000
# 6 0.0000 0.0000 0.0000 6.7288 0.0000 21.0721
#
#
#
# Elastic Compliance Matrix: (Units=1/GPa)
#
#
# Indices 1 2 3 4 5 6 
#
# 1 0.010985 -0.002483 -0.002086 0.000000 -0.002580 0.000000
# 2 -0.002483 0.008494 -0.000365 0.000000 -0.000493 0.000000
# 3 -0.002086 -0.000365 0.012801 0.000000 -0.003908 0.000000
# 4 0.000000 0.000000 0.000000 0.028578 0.000000 -0.009126
# 5 -0.002580 -0.000493 -0.003908 0.000000 0.027103 0.000000
# 6 0.000000 0.000000 0.000000 -0.009126 0.000000 0.050370
#
#
# Mechanical properties :
#
#
# Convention : Reuss Voigt Hill
#
# Bulk Modulus (GPa) = 44.62204 50.39116 47.50660
# Shear Modulus (GPa) = 32.11914 36.70267 34.41090
#
# Velocity S-wave (km/s) = 3.80430 4.06669 3.93768
# Velocity P-wave (km/s) = 6.27720 6.69003 6.48690
#
# Compressibility (1/GPa) = 0.02241045
#
# Stress axis : x y z
#
# Youngs Moduli (GPa) = 91.03096 117.73575 78.11959
#
# Poissons Ratio (x) = 0.29238 0.16298
# Poissons Ratio (y) = 0.22606 0.02851
# Poissons Ratio (z) = 0.18992 0.04297
#
# Static dielectric constant tensor:
#      x y z
#    x 2.013280 0.000000 0.025700 
#    y 0.000000 1.892190 0.000000 
#    z 0.025700 0.000000 1.839490 
# 
# From -- ./inp_files/129359.got.cif
#   From: 2010.05.17/outbox.cif.g08.bks.cpg/sg15_65_cif.got.tgz:129359.got - 2010.06.03 18:47:42.
