data_PCOD9298158
_publ_section_title
;
Structure prediction by ZEFSAII (Michael W. Deem and Ramdas Pophale) SiO2 
 PCOD9298158
Probable space group: C 2/C
;
_chemical_formula_sum "Si O2"
_cell_formula_units_Z 40
_cell_length_a 23.080931
_cell_length_b 7.759654
_cell_length_c 13.946797
_cell_angle_alpha 90.000000
_cell_angle_beta 35.466432
_cell_angle_gamma 90.000000
_cell_volume 1449.329931
_symmetry_space_group_name_H-M "C 2/C"
_symmetry_group_IT_number 15
_symmetry_cell_setting 'monoclinic'
loop_
_space_group_symop_operation_xyz
x,y,z
-x,y,1/2-z
-x,-y,-z
x,-y,1/2+z
1/2+x,1/2+y,z
1/2-x,1/2+y,1/2-z
1/2-x,1/2-y,-z
1/2+x,1/2-y,1/2+z
loop_
_atom_site_type_symbol
_atom_site_label
_atom_site_fract_x
_atom_site_fract_y
_atom_site_fract_z
Si Si1 0.467333 0.209693 0.185400
Si Si2 0.025872 0.344392 0.101837
Si Si3 0.727198 0.346083 0.265356
Si Si4 0.885835 0.047125 0.235623
Si Si5 0.743345 0.063738 0.100333
O O1 0.500000 0.242061 0.250000
O O2 0.467732 0.392009 0.131278
O O3 0.354157 0.137749 0.321469
O O4 0.528281 0.043747 0.069013
O O5 0.000000 0.343148 0.250000
O O6 0.939582 0.227875 0.172674
O O7 0.129619 0.257379 0.933842
O O8 0.685155 0.504839 0.257774
O O9 0.781396 0.223249 0.115255
O O10 0.776643 0.418077 0.293879
O O11 0.819896 0.011253 0.420193
#
# Coordination Sequence:
#
# PCOD9298158 Si02
#       5
#     8   8   8   8   8
#     4  10  24  43  71 103 140 187 232 291 356 423
#     4  11  23  44  70 105 142 185 239 295 359 426
#     4  11  25  44  71 107 139 190 240 292 366 424
#     4  11  24  48  72 101 144 193 234 299 357 429
#     4  11  26  47  72 104 146 185 242 296 360 428
#
# _framework density 27.598960000000002
#
# number of rings (size 3 to 8) (size 9 to 14) (size 15 to 20)
#    0.000    1.200    2.000    3.600    2.800   10.400 
#    0.000    0.000    0.000    0.000    0.000    0.000 
#    0.000    0.000    0.000    0.000    0.000    0.000 
#
# Total GULP energy -112247.746524 kJ/mol
# GULP energy per Si atom -5612.387326 kJ/mol
# Density = 2.753614 g / cm^3
# Si number density = 27.598960 Si / 1000 Ang^3
#
#
#
# Elastic Constant Matrix: (Units=GPa)
#
#
# Indices 1 2 3 4 5 6 
#
# 1 173.5292 69.5162 46.8344 -0.0002 26.5500 0.0001
# 2 69.5162 131.8276 25.6756 0.0012 -8.4614 -0.0003
# 3 46.8344 25.6756 140.6321 0.0006 25.2660 -0.0001
# 4 -0.0002 0.0012 0.0006 38.4048 -0.0005 2.1285
# 5 26.5500 -8.4614 25.2660 -0.0005 36.9428 0.0001
# 6 0.0001 -0.0003 -0.0001 2.1285 0.0001 60.6033
#
#
#
# Elastic Compliance Matrix: (Units=1/GPa)
#
#
# Indices 1 2 3 4 5 6 
#
# 1 0.009131 -0.005116 -0.000818 0.000000 -0.007175 0.000000
# 2 -0.005116 0.011072 -0.001635 0.000000 0.007331 0.000000
# 3 -0.000818 -0.001635 0.008714 0.000000 -0.005746 0.000000
# 4 0.000000 0.000000 0.000000 0.026089 0.000000 -0.000916
# 5 -0.007175 0.007331 -0.005746 0.000000 0.037834 0.000000
# 6 0.000000 0.000000 0.000000 -0.000916 0.000000 0.016533
#
#
# Mechanical properties :
#
#
# Convention : Reuss Voigt Hill
#
# Bulk Modulus (GPa) = 72.56984 81.11571 76.84278
# Shear Modulus (GPa) = 38.72852 47.45436 43.09144
#
# Velocity S-wave (km/s) = 3.75008 4.15109 3.95567
# Velocity P-wave (km/s) = 6.71582 7.24086 6.98328
#
# Compressibility (1/GPa) = 0.01377983
#
# Stress axis : x y z
#
# Youngs Moduli (GPa) = 109.52162 90.31439 114.75855
#
# Poissons Ratio (x) = 0.46205 0.09384
# Poissons Ratio (y) = 0.56032 0.18761
# Poissons Ratio (z) = 0.08956 0.14765
#
# Static dielectric constant tensor:
#      x y z
#    x 2.106790 0.000000 -0.030620 
#    y 0.000000 2.147640 0.000000 
#    z -0.030620 0.000000 2.167720 
# 
# From -- ./inp_files/171661.got.cif
#   From: 2010.05.17/outbox.cif.g08.bks.cpg/sg15_86_cif.got.tgz:171661.got - 2010.06.03 18:47:42.
