data_PCOD9298075
_publ_section_title
;
Structure prediction by ZEFSAII (Michael W. Deem and Ramdas Pophale) SiO2 
 PCOD9298075
Probable space group: C 2/C
;
_chemical_formula_sum "Si O2"
_cell_formula_units_Z 32
_cell_length_a 11.452830
_cell_length_b 7.457993
_cell_length_c 16.404571
_cell_angle_alpha 90.000000
_cell_angle_beta 124.472651
_cell_angle_gamma 90.000000
_cell_volume 1155.143078
_symmetry_space_group_name_H-M "C 2/C"
_symmetry_group_IT_number 15
_symmetry_cell_setting 'monoclinic'
loop_
_space_group_symop_operation_xyz
x,y,z
-x,y,1/2-z
-x,-y,-z
x,-y,1/2+z
1/2+x,1/2+y,z
1/2-x,1/2+y,1/2-z
1/2-x,1/2-y,-z
1/2+x,1/2-y,1/2+z
loop_
_atom_site_type_symbol
_atom_site_label
_atom_site_fract_x
_atom_site_fract_y
_atom_site_fract_z
Si Si1 0.678560 0.118582 0.040460
Si Si2 0.593686 0.716223 0.130585
Si Si3 0.868854 0.581357 0.292022
Si Si4 0.430829 0.610385 0.635912
O O1 0.701166 0.123354 0.147284
O O2 0.767311 0.936636 0.058821
O O3 0.750000 0.250000 0.000000
O O4 0.512961 0.170898 0.968280
O O5 0.757099 0.660748 0.183336
O O6 0.517139 0.526506 0.112131
O O7 0.605247 0.870583 0.205246
O O8 0.014071 0.688939 0.350490
O O9 0.500000 0.553454 0.750000
#
# Coordination Sequence:
#
# PCOD9298075 Si02
#       4
#     8   8   8   8
#     4  10  24  43  67  97 140 178 226 286 337 404
#     4  11  23  41  70  96 131 180 222 281 339 399
#     4  12  23  44  71  97 136 182 227 279 347 403
#     4  11  23  45  67  99 139 177 228 283 337 410
#
# _framework density 27.702197000000002
#
# number of rings (size 3 to 8) (size 9 to 14) (size 15 to 20)
#    0.000    1.000    5.000    0.750    0.000    6.000 
#    0.000    0.000    0.000    0.000    0.000    0.000 
#    0.000    0.000    0.000    0.000    0.000    0.000 
#
# Total GULP energy -89193.069696 kJ/mol
# GULP energy per Si atom -5574.566856 kJ/mol
# Density = 2.763915 g / cm^3
# Si number density = 27.702197 Si / 1000 Ang^3
#
#
#
# Elastic Constant Matrix: (Units=GPa)
#
#
# Indices 1 2 3 4 5 6 
#
# 1 128.8980 13.4135 45.4906 0.0000 22.4774 0.0000
# 2 13.4135 104.1157 2.4037 0.0000 19.4189 0.0000
# 3 45.4906 2.4037 100.1724 0.0000 44.1826 0.0000
# 4 0.0000 0.0000 0.0000 54.0176 0.0000 5.6056
# 5 22.4774 19.4189 44.1826 0.0000 63.3747 0.0000
# 6 0.0000 0.0000 0.0000 5.6056 0.0000 28.1396
#
#
#
# Elastic Compliance Matrix: (Units=1/GPa)
#
#
# Indices 1 2 3 4 5 6 
#
# 1 0.009365 -0.001099 -0.004202 0.000000 -0.000055 0.000000
# 2 -0.001099 0.010505 0.002159 0.000000 -0.004334 0.000000
# 3 -0.004202 0.002159 0.016568 0.000000 -0.010722 0.000000
# 4 0.000000 0.000000 0.000000 0.018903 0.000000 -0.003766
# 5 -0.000055 -0.004334 -0.010722 0.000000 0.024602 0.000000
# 6 0.000000 0.000000 0.000000 -0.003766 0.000000 0.036287
#
#
# Mechanical properties :
#
#
# Convention : Reuss Voigt Hill
#
# Bulk Modulus (GPa) = 33.16456 50.64464 41.90460
# Shear Modulus (GPa) = 37.71676 47.23159 42.47418
#
# Velocity S-wave (km/s) = 3.69386 4.13362 3.91991
# Velocity P-wave (km/s) = 5.49460 6.41123 5.97053
#
# Compressibility (1/GPa) = 0.03015267
#
# Stress axis : x y z
#
# Youngs Moduli (GPa) = 106.77920 95.19449 60.35586
#
# Poissons Ratio (x) = 0.10464 0.25363
# Poissons Ratio (y) = 0.11738 -0.13029
# Poissons Ratio (z) = 0.44871 -0.20549
#
# Static dielectric constant tensor:
#      x y z
#    x 2.487170 0.000000 -0.169420 
#    y 0.000000 2.108580 0.000000 
#    z -0.169420 0.000000 2.231650 
# 
# From -- ./inp_files/224346.got.cif
#   From: 2010.05.17/outbox.cif.g08.bks.cpg/sg15_113_cif.got.tgz:224346.got - 2010.06.03 18:47:42.
