data_PCOD9298660
_publ_section_title
;
Structure prediction by ZEFSAII (Michael W. Deem and Ramdas Pophale) SiO2 
 PCOD9298660
Probable space group: C 2/C
;
_chemical_formula_sum "Si O2"
_cell_formula_units_Z 64
_cell_length_a 8.840346
_cell_length_b 22.754614
_cell_length_c 15.739783
_cell_angle_alpha 90.000000
_cell_angle_beta 92.388335
_cell_angle_gamma 90.000000
_cell_volume 3163.443309
_symmetry_space_group_name_H-M "C 2/C"
_symmetry_group_IT_number 15
_symmetry_cell_setting 'monoclinic'
loop_
_space_group_symop_operation_xyz
x,y,z
-x,y,1/2-z
-x,-y,-z
x,-y,1/2+z
1/2+x,1/2+y,z
1/2-x,1/2+y,1/2-z
1/2-x,1/2-y,-z
1/2+x,1/2-y,1/2+z
loop_
_atom_site_type_symbol
_atom_site_label
_atom_site_fract_x
_atom_site_fract_y
_atom_site_fract_z
Si Si1 0.650539 0.046989 0.714042
Si Si2 0.405575 0.377176 0.066063
Si Si3 0.301583 0.952509 0.556156
Si Si4 0.132745 0.717691 0.873345
Si Si5 0.413511 0.479400 0.331472
Si Si6 0.318255 0.822715 0.316836
Si Si7 0.146385 0.549561 0.078716
Si Si8 0.308239 0.336639 0.530913
O O1 0.500000 0.021548 0.750000
O O2 0.775391 0.057383 0.788011
O O3 0.614059 0.110915 0.677724
O O4 0.698965 0.998870 0.647554
O O5 0.485953 0.433755 0.112501
O O6 0.336508 0.332430 0.134462
O O7 0.268453 0.403873 0.007554
O O8 0.529450 0.347458 0.008902
O O9 0.469837 0.934811 0.589632
O O10 0.168868 0.969071 0.618926
O O11 0.333802 0.014562 0.509330
O O12 0.193360 0.698309 0.781417
O O13 0.186110 0.781654 0.905470
O O14 0.950038 0.715946 0.862277
O O15 0.193907 0.675729 0.949684
O O16 0.500000 0.501511 0.250000
O O17 0.251176 0.605868 0.077890
#
# Coordination Sequence:
#
# PCOD9298660 Si02
#       8
#     8   8   8   8   8   8   8   8
#     4  12  22  38  63 102 129 170 225 275 333 409
#     4  12  24  37  65 102 131 164 217 289 335 397
#     4  11  23  38  61 101 137 179 212 260 347 413
#     4  10  24  45  68  91 122 183 232 277 322 401
#     4  12  23  35  57  96 146 172 212 265 340 410
#     4  11  22  41  72  96 125 169 234 279 327 404
#     4  11  23  39  67  94 138 178 214 271 339 418
#     4  11  25  42  66  95 134 173 225 279 344 388
#
# _framework density 20.231119
#
# number of rings (size 3 to 8) (size 9 to 14) (size 15 to 20)
#    0.000    0.750    6.250    1.875    3.500    0.500 
#    0.000    2.500    5.500    0.000    0.000    0.000 
#    0.000    0.000    0.000    0.000    0.000    0.000 
#
# Total GULP energy -178621.179045 kJ/mol
# GULP energy per Si atom -5581.911845 kJ/mol
# Density = 2.018507 g / cm^3
# Si number density = 20.231119 Si / 1000 Ang^3
#
#
#
# Elastic Constant Matrix: (Units=GPa)
#
#
# Indices 1 2 3 4 5 6 
#
# 1 90.7123 19.5694 41.7020 0.0000 -5.6292 0.0000
# 2 19.5694 71.2820 40.7110 0.0000 -15.6796 0.0000
# 3 41.7020 40.7110 84.5582 0.0000 -7.9415 0.0000
# 4 0.0000 0.0000 0.0000 33.5475 0.0000 -2.7633
# 5 -5.6292 -15.6796 -7.9415 0.0000 41.5532 0.0000
# 6 0.0000 0.0000 0.0000 -2.7633 0.0000 21.9801
#
#
#
# Elastic Compliance Matrix: (Units=1/GPa)
#
#
# Indices 1 2 3 4 5 6 
#
# 1 0.014275 0.000298 -0.007119 0.000000 0.000686 0.000000
# 2 0.000298 0.020737 -0.009564 0.000000 0.006037 0.000000
# 3 -0.007119 -0.009564 0.019869 0.000000 -0.000776 0.000000
# 4 0.000000 0.000000 0.000000 0.030120 0.000000 0.003787
# 5 0.000686 0.006037 -0.000776 0.000000 0.026288 0.000000
# 6 0.000000 0.000000 0.000000 0.003787 0.000000 0.045972
#
#
# Mechanical properties :
#
#
# Convention : Reuss Voigt Hill
#
# Bulk Modulus (GPa) = 45.22708 50.05748 47.64228
# Shear Modulus (GPa) = 25.32907 29.05418 27.19163
#
# Velocity S-wave (km/s) = 3.54218 3.79372 3.67011
# Velocity P-wave (km/s) = 6.25565 6.63221 6.44668
#
# Compressibility (1/GPa) = 0.02211065
#
# Stress axis : x y z
#
# Youngs Moduli (GPa) = 70.05301 48.22244 50.33033
#
# Poissons Ratio (x) = -0.01435 0.35830
# Poissons Ratio (y) = -0.02085 0.48135
# Poissons Ratio (z) = 0.49870 0.46119
#
# Static dielectric constant tensor:
#      x y z
#    x 1.816810 0.000000 -0.016490 
#    y 0.000000 1.682030 0.000000 
#    z -0.016490 0.000000 1.775580 
# 
# From -- ./inp_files/193014.got.cif
#   From: 2010.05.17/outbox.cif.g08.bks.cpg/sg15_97_cif.got.tgz:193014.got - 2010.06.03 18:47:42.
