data_PCOD9298989
_publ_section_title
;
Structure prediction by ZEFSAII (Michael W. Deem and Ramdas Pophale) SiO2 
 PCOD9298989
Probable space group: C 2/C
;
_chemical_formula_sum "Si O2"
_cell_formula_units_Z 20
_cell_length_a 11.873505
_cell_length_b 7.148681
_cell_length_c 20.695614
_cell_angle_alpha 90.000000
_cell_angle_beta 26.168076
_cell_angle_gamma 90.000000
_cell_volume 774.689240
_symmetry_space_group_name_H-M "C 2/C"
_symmetry_group_IT_number 15
_symmetry_cell_setting 'monoclinic'
loop_
_space_group_symop_operation_xyz
x,y,z
-x,y,1/2-z
-x,-y,-z
x,-y,1/2+z
1/2+x,1/2+y,z
1/2-x,1/2+y,1/2-z
1/2-x,1/2-y,-z
1/2+x,1/2-y,1/2+z
loop_
_atom_site_type_symbol
_atom_site_label
_atom_site_fract_x
_atom_site_fract_y
_atom_site_fract_z
Si Si1 0.000000 0.724688 0.250000
Si Si2 0.928518 0.421278 0.966814
Si Si3 0.857882 0.624974 0.761227
O O1 0.203749 0.580436 0.176621
O O2 0.856031 0.844052 0.377439
O O3 0.964794 0.568597 0.890636
O O4 0.129038 0.251894 0.856110
O O5 0.000000 0.500000 0.000000
O O6 0.000000 0.717042 0.750000
#
# Coordination Sequence:
#
# PCOD9298989 Si02
#       3
#     4   8   8
#     4  10  24  46  72 108 148 182 240 296 360 428
#     4  12  25  48  75 107 146 190 242 300 357 430
#     4  10  26  46  74 104 148 186 244 289 365 423
#
# _framework density 25.816803
#
# number of rings (size 3 to 8) (size 9 to 14) (size 15 to 20)
#    1.200    0.000    0.000    4.800    2.800    1.600 
#    0.000    0.000    0.000    0.000    0.000    0.000 
#    0.000    0.000    0.000    0.000    0.000    0.000 
#
# Total GULP energy -55928.684106 kJ/mol
# GULP energy per Si atom -5592.868411 kJ/mol
# Density = 2.575804 g / cm^3
# Si number density = 25.816803 Si / 1000 Ang^3
#
#
#
# Elastic Constant Matrix: (Units=GPa)
#
#
# Indices 1 2 3 4 5 6 
#
# 1 163.3169 42.8960 55.8728 -0.0011 28.5982 0.0000
# 2 42.8960 95.1904 66.7773 -0.0012 -2.4557 0.0011
# 3 55.8728 66.7773 145.9245 -0.0080 11.5954 0.0020
# 4 -0.0011 -0.0012 -0.0080 46.0091 0.0024 11.3606
# 5 28.5982 -2.4557 11.5954 0.0024 43.6508 -0.0003
# 6 0.0000 0.0011 0.0020 11.3606 -0.0003 6.3808
#
#
#
# Elastic Compliance Matrix: (Units=1/GPa)
#
#
# Indices 1 2 3 4 5 6 
#
# 1 0.008278 -0.002843 -0.001455 0.000000 -0.005197 0.000001
# 2 -0.002843 0.016794 -0.006967 -0.000002 0.004658 0.000003
# 3 -0.001455 -0.006967 0.010781 0.000004 -0.002302 -0.000010
# 4 0.000000 -0.000002 0.000004 0.038786 -0.000004 -0.069057
# 5 -0.005197 0.004658 -0.002302 -0.000004 0.027187 0.000008
# 6 0.000001 0.000003 -0.000010 -0.069057 0.000008 0.279672
#
#
# Mechanical properties :
#
#
# Convention : Reuss Voigt Hill
#
# Bulk Modulus (GPa) = 75.06329 81.72488 78.39408
# Shear Modulus (GPa) = 12.24080 35.13387 23.68733
#
# Velocity S-wave (km/s) = 2.17984 3.69303 3.03234
# Velocity P-wave (km/s) = 5.95601 7.06463 6.53388
#
# Compressibility (1/GPa) = 0.01332209
#
# Stress axis : x y z
#
# Youngs Moduli (GPa) = 120.80582 59.54543 92.75501
#
# Poissons Ratio (x) = 0.16931 0.13499
# Poissons Ratio (y) = 0.34349 0.64619
# Poissons Ratio (z) = 0.17582 0.41483
#
# Static dielectric constant tensor:
#      x y z
#    x 2.091020 0.000000 0.000370 
#    y 0.000000 2.074110 0.000000 
#    z 0.000370 0.000000 2.003740 
# 
# From -- ./inp_files/26539.got.cif
#   From: 2010.05.17/outbox.cif.g08.bks.cpg/sg15_14_cif.got.tgz:26539.got - 2010.06.03 18:47:42.
