data_PCOD9298283
_publ_section_title
;
Structure prediction by ZEFSAII (Michael W. Deem and Ramdas Pophale) SiO2 
 PCOD9298283
Probable space group: C 2/C
;
_chemical_formula_sum "Si O2"
_cell_formula_units_Z 60
_cell_length_a 10.483860
_cell_length_b 23.490985
_cell_length_c 14.502295
_cell_angle_alpha 90.000000
_cell_angle_beta 47.156462
_cell_angle_gamma 90.000000
_cell_volume 2618.722888
_symmetry_space_group_name_H-M "C 2/C"
_symmetry_group_IT_number 15
_symmetry_cell_setting 'monoclinic'
loop_
_space_group_symop_operation_xyz
x,y,z
-x,y,1/2-z
-x,-y,-z
x,-y,1/2+z
1/2+x,1/2+y,z
1/2-x,1/2+y,1/2-z
1/2-x,1/2-y,-z
1/2+x,1/2-y,1/2+z
loop_
_atom_site_type_symbol
_atom_site_label
_atom_site_fract_x
_atom_site_fract_y
_atom_site_fract_z
Si Si1 0.145208 0.987217 0.350238
Si Si2 0.268422 0.315904 0.461197
Si Si3 0.617893 0.836183 0.863268
Si Si4 0.500000 0.043110 0.750000
Si Si5 0.936353 0.897334 0.680414
Si Si6 0.146168 0.856882 0.290515
Si Si7 0.690681 0.871924 0.026782
Si Si8 0.195237 0.727865 0.651239
O O1 0.334586 0.993089 0.302208
O O2 0.143459 0.924983 0.303981
O O3 0.121235 0.037628 0.289037
O O4 0.000000 0.000000 0.500000
O O5 0.250000 0.250000 0.500000
O O6 0.449343 0.338320 0.413707
O O7 0.301219 0.332152 0.336451
O O8 0.076596 0.340226 0.578689
O O9 0.778581 0.858321 0.722780
O O10 0.668631 0.773018 0.874465
O O11 0.638868 0.873598 0.945441
O O12 0.438849 0.085508 0.860181
O O13 0.000000 0.878011 0.750000
O O14 0.117199 0.892750 0.538296
O O15 0.281223 0.826016 0.291851
O O16 0.700981 0.805631 0.051424
O O17 0.000000 0.752163 0.750000
#
# Coordination Sequence:
#
# PCOD9298283 Si02
#       8
#     8   8   8   4   8   8   8   8
#     4  12  24  46  69 100 138 182 239 292 350 428
#     4  11  24  47  66  99 140 186 237 288 351 445
#     4  11  24  41  65  98 137 178 224 284 360 417
#     4  12  22  40  72  98 130 176 234 284 350 412
#     4  10  24  44  65  99 140 176 227 296 343 418
#     4  11  25  43  70  98 137 187 231 290 364 417
#     4  11  21  42  63 101 135 172 226 289 349 421
#     4  12  20  38  67  99 129 171 222 283 350 417
#
# _framework density 22.911930999999999
#
# number of rings (size 3 to 8) (size 9 to 14) (size 15 to 20)
#    0.000    0.800    4.667    3.200    1.867    2.133 
#    2.400    2.000    0.000    0.000    0.000    0.000 
#    0.000    0.000    0.000    0.000    0.000    0.000 
#
# Total GULP energy -167403.008486 kJ/mol
# GULP energy per Si atom -5580.100283 kJ/mol
# Density = 2.285978 g / cm^3
# Si number density = 22.911931 Si / 1000 Ang^3
#
#
#
# Elastic Constant Matrix: (Units=GPa)
#
#
# Indices 1 2 3 4 5 6 
#
# 1 80.5692 25.5322 28.8814 0.0000 -41.1756 0.0000
# 2 25.5322 122.4313 24.2890 0.0000 -12.8262 0.0000
# 3 28.8814 24.2890 86.1468 0.0000 -38.7713 0.0000
# 4 0.0000 0.0000 0.0000 25.0306 0.0000 -9.2429
# 5 -41.1756 -12.8262 -38.7713 0.0000 55.4596 0.0000
# 6 0.0000 0.0000 0.0000 -9.2429 0.0000 38.7768
#
#
#
# Elastic Compliance Matrix: (Units=1/GPa)
#
#
# Indices 1 2 3 4 5 6 
#
# 1 0.020927 -0.002896 0.000718 0.000000 0.015369 0.000000
# 2 -0.002896 0.009060 -0.002346 0.000000 -0.001696 0.000000
# 3 0.000718 -0.002346 0.017545 0.000000 0.012256 0.000000
# 4 0.000000 0.000000 0.000000 0.043807 0.000000 0.010442
# 5 0.015369 -0.001696 0.012256 0.000000 0.037617 0.000000
# 6 0.000000 0.000000 0.000000 0.010442 0.000000 0.028278
#
#
# Mechanical properties :
#
#
# Convention : Reuss Voigt Hill
#
# Bulk Modulus (GPa) = 25.98705 49.61694 37.80199
# Shear Modulus (GPa) = 27.91582 37.88304 32.89943
#
# Velocity S-wave (km/s) = 3.49434 4.07064 3.79345
# Velocity P-wave (km/s) = 5.25807 6.61785 5.97676
#
# Compressibility (1/GPa) = 0.03848071
#
# Stress axis : x y z
#
# Youngs Moduli (GPa) = 47.78620 110.37834 56.99694
#
# Poissons Ratio (x) = 0.31970 -0.04090
# Poissons Ratio (y) = 0.13841 0.13374
# Poissons Ratio (z) = -0.03429 0.25899
#
# Static dielectric constant tensor:
#      x y z
#    x 1.875750 0.000000 0.033610 
#    y 0.000000 1.852090 0.000000 
#    z 0.033610 0.000000 2.059550 
# 
# From -- ./inp_files/200504.got.cif
#   From: 2010.05.17/outbox.cif.g08.bks.cpg/sg15_101_cif.got.tgz:200504.got - 2010.06.03 18:47:42.
