data_PCOD9298571
_publ_section_title
;
Structure prediction by ZEFSAII (Michael W. Deem and Ramdas Pophale) SiO2 
 PCOD9298571
Probable space group: C 2/C
;
_chemical_formula_sum "Si O2"
_cell_formula_units_Z 52
_cell_length_a 9.018461
_cell_length_b 19.525033
_cell_length_c 18.685014
_cell_angle_alpha 90.000000
_cell_angle_beta 45.964086
_cell_angle_gamma 90.000000
_cell_volume 2365.313321
_symmetry_space_group_name_H-M "C 2/C"
_symmetry_group_IT_number 15
_symmetry_cell_setting 'monoclinic'
loop_
_space_group_symop_operation_xyz
x,y,z
-x,y,1/2-z
-x,-y,-z
x,-y,1/2+z
1/2+x,1/2+y,z
1/2-x,1/2+y,1/2-z
1/2-x,1/2-y,-z
1/2+x,1/2-y,1/2+z
loop_
_atom_site_type_symbol
_atom_site_label
_atom_site_fract_x
_atom_site_fract_y
_atom_site_fract_z
Si Si1 0.068256 0.513659 0.304414
Si Si2 0.248309 0.948647 0.031929
Si Si3 0.388631 0.892106 0.121870
Si Si4 0.021149 0.918873 0.828374
Si Si5 0.193640 0.178409 0.984919
Si Si6 0.500000 0.294431 0.250000
Si Si7 0.945528 0.799025 0.422964
O O1 0.190963 0.453279 0.302558
O O2 0.234812 0.572855 0.240609
O O3 0.000000 0.490277 0.250000
O O4 0.871793 0.531649 0.419054
O O5 0.418753 0.925899 0.033921
O O6 0.117182 0.879299 0.064886
O O7 0.108127 0.011679 0.107145
O O8 0.593814 0.864189 0.089348
O O9 0.211614 0.836912 0.171713
O O10 0.000000 0.905027 0.750000
O O11 0.943604 0.862630 0.911224
O O12 0.090760 0.196251 0.943542
O O13 0.250000 0.250000 0.000000
O O14 0.532577 0.266839 0.319505
O O15 0.750000 0.750000 0.500000
#
# Coordination Sequence:
#
# PCOD9298571 Si02
#       7
#     8   8   8   8   8   4   8
#     4  12  24  37  67 107 138 185 240 306 372 438
#     4  11  23  46  71 101 148 195 242 311 376 444
#     4  11  22  42  70 102 141 187 240 297 371 443
#     4  12  25  46  75 111 150 196 251 310 382 456
#     4  12  27  48  72 107 152 197 247 318 378 446
#     4  10  24  44  74  98 136 200 238 288 370 454
#     4  11  26  50  72 103 150 195 251 307 379 455
#
# _framework density 21.984403
#
# number of rings (size 3 to 8) (size 9 to 14) (size 15 to 20)
#    0.000    0.615    3.077    6.000    5.385    1.231 
#   12.462    0.000    0.000    0.000    0.000    0.000 
#    0.000    0.000    0.000    0.000    0.000    0.000 
#
# Total GULP energy -145116.248243 kJ/mol
# GULP energy per Si atom -5581.394163 kJ/mol
# Density = 2.193437 g / cm^3
# Si number density = 21.984403 Si / 1000 Ang^3
#
#
#
# Elastic Constant Matrix: (Units=GPa)
#
#
# Indices 1 2 3 4 5 6 
#
# 1 132.8815 20.3745 41.6104 -0.0001 39.6043 0.0001
# 2 20.3745 67.4434 22.6340 0.0000 16.6389 0.0000
# 3 41.6104 22.6340 139.4453 0.0001 22.0479 0.0000
# 4 -0.0001 0.0000 0.0001 30.7925 0.0000 -10.5927
# 5 39.6043 16.6389 22.0479 0.0000 40.9662 -0.0001
# 6 0.0001 0.0000 0.0000 -10.5927 -0.0001 17.9275
#
#
#
# Elastic Compliance Matrix: (Units=1/GPa)
#
#
# Indices 1 2 3 4 5 6 
#
# 1 0.010954 -0.000391 -0.001701 0.000000 -0.009516 0.000000
# 2 -0.000391 0.016901 -0.001750 0.000000 -0.005545 0.000000
# 3 -0.001701 -0.001750 0.008296 0.000000 -0.002110 0.000000
# 4 0.000000 0.000000 0.000000 0.040760 0.000000 0.024084
# 5 -0.009516 -0.005545 -0.002110 0.000000 0.036998 0.000000
# 6 0.000000 0.000000 0.000000 0.024084 0.000000 0.070011
#
#
# Mechanical properties :
#
#
# Convention : Reuss Voigt Hill
#
# Bulk Modulus (GPa) = 35.12676 56.55645 45.84161
# Shear Modulus (GPa) = 24.86424 34.94731 29.90577
#
# Velocity S-wave (km/s) = 3.36667 3.99136 3.69225
# Velocity P-wave (km/s) = 5.57901 6.85732 6.25093
#
# Compressibility (1/GPa) = 0.02846832
#
# Stress axis : x y z
#
# Youngs Moduli (GPa) = 91.28977 59.16977 120.53354
#
# Poissons Ratio (x) = 0.02312 0.20499
# Poissons Ratio (y) = 0.03567 0.21092
# Poissons Ratio (z) = 0.15526 0.10354
#
# Static dielectric constant tensor:
#      x y z
#    x 1.787710 0.000000 0.065420 
#    y 0.000000 1.944450 0.000000 
#    z 0.065420 0.000000 1.809540 
# 
# From -- ./inp_files/192446.got.cif
#   From: 2010.05.17/outbox.cif.g08.bks.cpg/sg15_97_cif.got.tgz:192446.got - 2010.06.03 18:47:42.
