data_PCOD9298047
_publ_section_title
;
Structure prediction by ZEFSAII (Michael W. Deem and Ramdas Pophale) SiO2 
 PCOD9298047
Probable space group: C 2/C
;
_chemical_formula_sum "Si O2"
_cell_formula_units_Z 56
_cell_length_a 11.427883
_cell_length_b 14.331673
_cell_length_c 33.640880
_cell_angle_alpha 90.000000
_cell_angle_beta 31.582965
_cell_angle_gamma 90.000000
_cell_volume 2885.623544
_symmetry_space_group_name_H-M "C 2/C"
_symmetry_group_IT_number 15
_symmetry_cell_setting 'monoclinic'
loop_
_space_group_symop_operation_xyz
x,y,z
-x,y,1/2-z
-x,-y,-z
x,-y,1/2+z
1/2+x,1/2+y,z
1/2-x,1/2+y,1/2-z
1/2-x,1/2-y,-z
1/2+x,1/2-y,1/2+z
loop_
_atom_site_type_symbol
_atom_site_label
_atom_site_fract_x
_atom_site_fract_y
_atom_site_fract_z
Si Si1 0.694205 0.800119 0.226361
Si Si2 0.103627 0.501892 0.263466
Si Si3 0.941325 0.683425 0.428292
Si Si4 0.703345 0.566041 0.431023
Si Si5 0.013050 0.242645 0.436606
Si Si6 0.081385 0.176063 0.333142
Si Si7 0.419058 0.893619 0.526918
O O1 0.500000 0.806154 0.250000
O O2 0.744641 0.906420 0.224770
O O3 0.594387 0.747078 0.293052
O O4 0.892267 0.742702 0.148032
O O5 0.246836 0.594491 0.226743
O O6 0.000000 0.506748 0.250000
O O7 0.893033 0.507376 0.353501
O O8 0.750000 0.750000 0.500000
O O9 0.822208 0.606818 0.435527
O O10 0.049814 0.640466 0.436609
O O11 0.500000 0.500000 0.500000
O O12 0.598121 0.651090 0.435713
O O13 0.750000 0.250000 0.500000
O O14 0.047803 0.328445 0.457202
O O15 0.131841 0.231666 0.359408
O O16 0.841981 0.125198 0.406590
O O17 0.500000 0.000000 0.500000
#
# Coordination Sequence:
#
# PCOD9298047 Si02
#       7
#     8   8   8   8   8   8   8
#     4  11  25  45  68  97 139 178 222 279 346 394
#     4  11  25  41  69  98 133 182 222 282 334 400
#     4  12  26  43  70  99 139 175 225 282 341 404
#     4  12  27  42  69 104 135 174 235 278 340 411
#     4  10  24  43  66  94 135 179 217 274 338 391
#     4  11  23  46  67  95 140 176 231 273 338 407
#     4  11  26  43  68  99 138 182 222 275 340 404
#
# _framework density 19.406551
#
# number of rings (size 3 to 8) (size 9 to 14) (size 15 to 20)
#    0.000    0.857    5.714    0.000   14.000    0.000 
#    0.000    0.000    0.000    0.000    0.000    0.000 
#    0.000    0.000    0.000    0.000    0.000    0.000 
#
# Total GULP energy -156263.303885 kJ/mol
# GULP energy per Si atom -5580.832282 kJ/mol
# Density = 1.936238 g / cm^3
# Si number density = 19.406551 Si / 1000 Ang^3
#
#
#
# Elastic Constant Matrix: (Units=GPa)
#
#
# Indices 1 2 3 4 5 6 
#
# 1 78.2020 28.6377 19.9318 -0.0011 21.5026 -0.0015
# 2 28.6377 93.9400 32.3966 -0.0033 22.4716 0.0016
# 3 19.9318 32.3966 110.4794 0.0085 17.9542 -0.0109
# 4 -0.0011 -0.0033 0.0085 29.1359 -0.0004 -23.0822
# 5 21.5026 22.4716 17.9542 -0.0004 34.5108 0.0023
# 6 -0.0015 0.0016 -0.0109 -23.0822 0.0023 -14.4477
#
#
#
# Elastic Compliance Matrix: (Units=1/GPa)
#
#
# Indices 1 2 3 4 5 6 
#
# 1 0.016168 -0.002767 -0.000832 -0.000001 -0.007840 -0.000001
# 2 -0.002767 0.013795 -0.002585 0.000002 -0.005914 0.000000
# 3 -0.000832 -0.002585 0.010489 -0.000005 -0.003255 -0.000001
# 4 -0.000001 0.000002 -0.000005 0.015149 0.000003 -0.024202
# 5 -0.007840 -0.005914 -0.003255 0.000003 0.039405 0.000004
# 6 -0.000001 0.000000 -0.000001 -0.024202 0.000004 -0.030549
#
#
# Mechanical properties :
#
#
# Convention : Reuss Voigt Hill
#
# Bulk Modulus (GPa) = 35.60644 49.39484 42.50064
# Shear Modulus (GPa) = 58.01548 23.28349 40.64948
#
# Velocity S-wave (km/s) = 5.47354 3.46753 4.58167
# Velocity P-wave (km/s) = 7.63765 6.44513 7.06659
#
# Compressibility (1/GPa) = 0.02808481
#
# Stress axis : x y z
#
# Youngs Moduli (GPa) = 61.85000 72.49223 95.34247
#
# Poissons Ratio (x) = 0.20057 0.07928
# Poissons Ratio (y) = 0.17112 0.24645
# Poissons Ratio (z) = 0.05143 0.18738
#
# Static dielectric constant tensor:
#      x y z
#    x 1.661380 0.000000 -0.013530 
#    y 0.000000 1.677350 -0.000020 
#    z -0.013530 -0.000020 1.692220 
# 
# From -- ./inp_files/311320.got.cif
#   From: 2010.05.17/outbox.cif.g08.bks.cpg/sg15_156_cif.got.tgz:311320.got - 2010.06.03 18:47:42.
