data_PCOD9298832
_publ_section_title
;
Structure prediction by ZEFSAII (Michael W. Deem and Ramdas Pophale) SiO2 
 PCOD9298832
Probable space group: C 2/C
;
_chemical_formula_sum "Si O2"
_cell_formula_units_Z 48
_cell_length_a 12.040112
_cell_length_b 20.266226
_cell_length_c 11.371130
_cell_angle_alpha 90.000000
_cell_angle_beta 46.302515
_cell_angle_gamma 90.000000
_cell_volume 2006.059506
_symmetry_space_group_name_H-M "C 2/C"
_symmetry_group_IT_number 15
_symmetry_cell_setting 'monoclinic'
loop_
_space_group_symop_operation_xyz
x,y,z
-x,y,1/2-z
-x,-y,-z
x,-y,1/2+z
1/2+x,1/2+y,z
1/2-x,1/2+y,1/2-z
1/2-x,1/2-y,-z
1/2+x,1/2-y,1/2+z
loop_
_atom_site_type_symbol
_atom_site_label
_atom_site_fract_x
_atom_site_fract_y
_atom_site_fract_z
Si Si1 0.000000 0.014922 0.750000
Si Si2 0.500000 0.746885 0.750000
Si Si3 0.000000 0.760144 0.750000
Si Si4 0.455711 0.361767 0.442988
Si Si5 0.500000 0.037547 0.250000
Si Si6 0.334564 0.856663 0.720590
Si Si7 0.693566 0.063931 0.481414
Si Si8 0.225973 0.831078 0.397791
O O1 0.956004 0.065727 0.886703
O O2 0.854161 0.969574 0.825894
O O3 0.604823 0.693683 0.603940
O O4 0.421648 0.793422 0.709151
O O5 0.108973 0.799843 0.580214
O O6 0.125379 0.714662 0.725159
O O7 0.347842 0.352269 0.633642
O O8 0.628536 0.344077 0.352912
O O9 0.622106 0.084900 0.221744
O O10 0.425980 0.993445 0.405349
O O11 0.366647 0.881600 0.566321
O O12 0.721729 0.100230 0.584167
#
# Coordination Sequence:
#
# PCOD9298832 Si02
#       8
#     4   4   4   8   4   8   8   8
#     4  11  25  45  72 105 141 189 244 288 364 429
#     4  10  26  44  70 108 142 190 242 292 362 424
#     4  10  24  46  64 106 140 182 238 282 364 414
#     4  11  24  45  73 103 143 192 236 299 350 435
#     4  11  25  47  68 105 145 189 242 296 356 431
#     4  11  24  46  71 104 144 191 237 303 353 425
#     4  12  25  45  71 106 140 191 241 295 361 425
#     4  11  25  43  71 102 140 186 233 296 350 426
#
# _framework density 23.927508
#
# number of rings (size 3 to 8) (size 9 to 14) (size 15 to 20)
#    0.000    1.000    1.667    4.000    9.333    1.333 
#    3.000    0.000    0.000    0.000    0.000    0.000 
#    0.000    0.000    0.000    0.000    0.000    0.000 
#
# Total GULP energy -134267.550682 kJ/mol
# GULP energy per Si atom -5594.481278 kJ/mol
# Density = 2.387305 g / cm^3
# Si number density = 23.927508 Si / 1000 Ang^3
#
#
#
# Elastic Constant Matrix: (Units=GPa)
#
#
# Indices 1 2 3 4 5 6 
#
# 1 91.3216 15.4012 -19.9009 0.0000 6.4800 0.0000
# 2 15.4012 101.9821 -3.4509 0.0000 6.8700 0.0000
# 3 -19.9009 -3.4509 32.0700 0.0000 -1.9838 0.0000
# 4 0.0000 0.0000 0.0000 19.7947 0.0000 14.5876
# 5 6.4800 6.8700 -1.9838 0.0000 34.8517 0.0000
# 6 0.0000 0.0000 0.0000 14.5876 0.0000 21.5989
#
#
#
# Elastic Compliance Matrix: (Units=1/GPa)
#
#
# Indices 1 2 3 4 5 6 
#
# 1 0.013041 -0.001593 0.007818 0.000000 -0.001666 0.000000
# 2 -0.001593 0.010161 -0.000001 0.000000 -0.001707 0.000000
# 3 0.007818 -0.000001 0.036070 0.000000 0.000600 0.000000
# 4 0.000000 0.000000 0.000000 0.100579 0.000000 -0.067930
# 5 -0.001666 -0.001707 0.000600 0.000000 0.029373 0.000000
# 6 0.000000 0.000000 0.000000 -0.067930 0.000000 0.092177
#
#
# Mechanical properties :
#
#
# Convention : Reuss Voigt Hill
#
# Bulk Modulus (GPa) = 13.94275 23.27473 18.60874
# Shear Modulus (GPa) = 17.07303 30.80400 23.93851
#
# Velocity S-wave (km/s) = 2.67410 3.59191 3.16644
# Velocity P-wave (km/s) = 3.92099 5.19141 4.60027
#
# Compressibility (1/GPa) = 0.07172185
#
# Stress axis : x y z
#
# Youngs Moduli (GPa) = 76.68234 98.41432 27.72368
#
# Poissons Ratio (x) = 0.15674 -0.21674
# Poissons Ratio (y) = 0.12213 0.00001
# Poissons Ratio (z) = -0.59950 0.00005
#
# Static dielectric constant tensor:
#      x y z
#    x 1.887750 0.000000 -0.008710 
#    y 0.000000 1.887240 0.000000 
#    z -0.008710 0.000000 1.942610 
# 
# From -- ./inp_files/89467.got.cif
#   From: 2010.05.17/outbox.cif.g08.bks.cpg/sg15_45_cif.got.tgz:89467.got - 2010.06.03 18:47:42.
