data_PCOD9298005
_publ_section_title
;
Structure prediction by ZEFSAII (Michael W. Deem and Ramdas Pophale) SiO2 
 PCOD9298005
Probable space group: C 2/C
;
_chemical_formula_sum "Si O2"
_cell_formula_units_Z 48
_cell_length_a 10.653266
_cell_length_b 7.920438
_cell_length_c 24.612635
_cell_angle_alpha 90.000000
_cell_angle_beta 81.669441
_cell_angle_gamma 90.000000
_cell_volume 2054.865230
_symmetry_space_group_name_H-M "C 2/C"
_symmetry_group_IT_number 15
_symmetry_cell_setting 'monoclinic'
loop_
_space_group_symop_operation_xyz
x,y,z
-x,y,1/2-z
-x,-y,-z
x,-y,1/2+z
1/2+x,1/2+y,z
1/2-x,1/2+y,1/2-z
1/2-x,1/2-y,-z
1/2+x,1/2-y,1/2+z
loop_
_atom_site_type_symbol
_atom_site_label
_atom_site_fract_x
_atom_site_fract_y
_atom_site_fract_z
Si Si1 0.784311 0.219476 0.680229
Si Si2 0.906574 0.470502 0.054623
Si Si3 0.375689 0.925413 0.219916
Si Si4 0.148460 0.039844 0.539826
Si Si5 0.026655 0.232724 0.130738
Si Si6 0.113733 0.156373 0.934762
O O1 0.849981 0.398399 0.690109
O O2 0.648196 0.252991 0.661409
O O3 0.859765 0.112046 0.629760
O O4 0.748307 0.118533 0.736822
O O5 0.775375 0.370363 0.053392
O O6 0.994396 0.393360 0.095092
O O7 0.839504 0.651772 0.067271
O O8 0.000000 0.500000 0.000000
O O9 0.500000 0.953120 0.250000
O O10 0.409133 0.762232 0.180081
O O11 0.173178 0.952302 0.479649
O O12 0.069893 0.909975 0.584543
O O13 0.033897 0.170335 0.540576
#
# Coordination Sequence:
#
# PCOD9298005 Si02
#       6
#     8   8   8   8   8   8
#     4  11  23  46  67  93 131 169 218 276 323 387
#     4  12  22  41  68  95 133 174 210 265 324 392
#     4  10  24  43  64  95 124 169 222 270 331 380
#     4  11  24  41  63 104 132 175 215 260 336 393
#     4  11  21  43  68  92 131 169 216 264 328 391
#     4  11  23  42  64  96 138 169 215 268 324 391
#
# _framework density 23.359196000000001
#
# number of rings (size 3 to 8) (size 9 to 14) (size 15 to 20)
#    0.000    1.000    5.000    1.500    2.333    0.667 
#    9.000    0.000    0.000    0.000    0.000    0.000 
#    0.000    0.000    0.000    0.000    0.000    0.000 
#
# Total GULP energy -133665.866010 kJ/mol
# GULP energy per Si atom -5569.411084 kJ/mol
# Density = 2.330603 g / cm^3
# Si number density = 23.359196 Si / 1000 Ang^3
#
#
#
# Elastic Constant Matrix: (Units=GPa)
#
#
# Indices 1 2 3 4 5 6 
#
# 1 66.8500 22.1349 29.3305 0.0000 -13.7004 0.0000
# 2 22.1349 64.8118 41.1078 0.0000 3.6193 0.0000
# 3 29.3305 41.1078 144.3009 0.0000 -16.6739 0.0000
# 4 0.0000 0.0000 0.0000 26.1997 0.0000 -0.9837
# 5 -13.7004 3.6193 -16.6739 0.0000 27.1337 0.0000
# 6 0.0000 0.0000 0.0000 -0.9837 0.0000 22.3167
#
#
#
# Elastic Compliance Matrix: (Units=1/GPa)
#
#
# Indices 1 2 3 4 5 6 
#
# 1 0.019689 -0.006731 -0.000896 0.000000 0.010289 0.000000
# 2 -0.006731 0.022173 -0.006117 0.000000 -0.010115 0.000000
# 3 -0.000896 -0.006117 0.009577 0.000000 0.006249 0.000000
# 4 0.000000 0.000000 0.000000 0.038232 0.000000 0.001685
# 5 0.010289 -0.010115 0.006249 0.000000 0.047239 0.000000
# 6 0.000000 0.000000 0.000000 0.001685 0.000000 0.044884
#
#
# Mechanical properties :
#
#
# Convention : Reuss Voigt Hill
#
# Bulk Modulus (GPa) = 41.75144 51.23433 46.49289
# Shear Modulus (GPa) = 23.01348 27.35600 25.18474
#
# Velocity S-wave (km/s) = 3.14219 3.42585 3.28708
# Velocity P-wave (km/s) = 5.57467 6.13429 5.86116
#
# Compressibility (1/GPa) = 0.02395127
#
# Stress axis : x y z
#
# Youngs Moduli (GPa) = 50.78937 45.10018 104.42010
#
# Poissons Ratio (x) = 0.30356 0.09353
# Poissons Ratio (y) = 0.34186 0.63876
# Poissons Ratio (z) = 0.04549 0.27589
#
# Static dielectric constant tensor:
#      x y z
#    x 1.844490 0.000000 0.003120 
#    y 0.000000 1.976970 0.000000 
#    z 0.003120 0.000000 1.980600 
# 
# From -- ./inp_files/267664.got.cif
#   From: 2010.05.17/outbox.cif.g08.bks.cpg/sg15_134_cif.got.tgz:267664.got - 2010.06.03 18:47:42.
