data_PCOD9298454
_publ_section_title
;
Structure prediction by ZEFSAII (Michael W. Deem and Ramdas Pophale) SiO2 
 PCOD9298454
Probable space group: C 2/C
;
_chemical_formula_sum "Si O2"
_cell_formula_units_Z 60
_cell_length_a 26.392994
_cell_length_b 9.230188
_cell_length_c 24.461587
_cell_angle_alpha 90.000000
_cell_angle_beta 150.273804
_cell_angle_gamma 90.000000
_cell_volume 2954.875576
_symmetry_space_group_name_H-M "C 2/C"
_symmetry_group_IT_number 15
_symmetry_cell_setting 'monoclinic'
loop_
_space_group_symop_operation_xyz
x,y,z
-x,y,1/2-z
-x,-y,-z
x,-y,1/2+z
1/2+x,1/2+y,z
1/2-x,1/2+y,1/2-z
1/2-x,1/2-y,-z
1/2+x,1/2-y,1/2+z
loop_
_atom_site_type_symbol
_atom_site_label
_atom_site_fract_x
_atom_site_fract_y
_atom_site_fract_z
Si Si1 0.967450 0.319262 0.935475
Si Si2 0.315277 0.119913 0.902599
Si Si3 0.500000 0.847588 0.250000
Si Si4 0.551595 0.253053 0.621012
Si Si5 0.321336 0.180051 0.657333
Si Si6 0.377196 0.147776 0.533631
Si Si7 0.789723 0.589355 0.188889
Si Si8 0.159573 0.025884 0.665067
O O1 0.887784 0.398262 0.820787
O O2 0.907235 0.171138 0.894601
O O3 0.073919 0.309939 0.003307
O O4 0.011302 0.359581 0.036921
O O5 0.243252 0.247895 0.856574
O O6 0.259491 0.060794 0.795582
O O7 0.332447 0.982602 0.956514
O O8 0.589307 0.770037 0.299519
O O9 0.562896 0.918714 0.358478
O O10 0.646351 0.218498 0.749939
O O11 0.455827 0.246912 0.572508
O O12 0.592203 0.396690 0.628371
O O13 0.217285 0.250661 0.540816
O O14 0.311138 0.007361 0.655798
O O15 0.700597 0.520379 0.143967
#
# Coordination Sequence:
#
# PCOD9298454 Si02
#       8
#     8   8   4   8   8   8   8   8
#     4  11  22  35  57  88 134 176 212 237 296 368
#     4  11  23  40  59  91 131 170 206 255 311 375
#     4  10  24  44  70  92 112 152 222 278 326 376
#     4  11  21  35  58  92 125 170 208 248 298 363
#     4  11  23  42  66  91 123 161 213 269 321 368
#     4  11  23  41  68  89 121 156 210 271 328 373
#     4  11  24  38  60  93 132 175 211 249 306 378
#     4  11  22  37  55  94 135 171 211 248 292 375
#
# _framework density 20.305423999999999
#
# number of rings (size 3 to 8) (size 9 to 14) (size 15 to 20)
#    0.000    1.067    2.667    4.800    3.733    1.600 
#    0.000    0.667    0.000    1.600    0.000    0.000 
#    0.000    0.000    0.000    0.000    0.000    0.000 
#
# Total GULP energy -167189.901792 kJ/mol
# GULP energy per Si atom -5572.996726 kJ/mol
# Density = 2.025921 g / cm^3
# Si number density = 20.305424 Si / 1000 Ang^3
#
#
#
# Elastic Constant Matrix: (Units=GPa)
#
#
# Indices 1 2 3 4 5 6 
#
# 1 64.8592 16.2035 28.8276 0.0000 12.6187 0.0000
# 2 16.2035 52.4103 28.9184 0.0000 14.2966 0.0000
# 3 28.8276 28.9184 115.3405 0.0000 16.2855 0.0000
# 4 0.0000 0.0000 0.0000 26.1763 0.0000 2.0501
# 5 12.6187 14.2966 16.2855 0.0000 25.7922 0.0000
# 6 0.0000 0.0000 0.0000 2.0501 0.0000 1.7453
#
#
#
# Elastic Compliance Matrix: (Units=1/GPa)
#
#
# Indices 1 2 3 4 5 6 
#
# 1 0.018565 -0.002398 -0.003232 0.000000 -0.005713 0.000000
# 2 -0.002398 0.024868 -0.004232 0.000000 -0.009939 0.000000
# 3 -0.003232 -0.004232 0.010962 0.000000 -0.002994 0.000000
# 4 0.000000 0.000000 0.000000 0.042073 0.000000 -0.049421
# 5 -0.005713 -0.009939 -0.002994 0.000000 0.048966 0.000000
# 6 0.000000 0.000000 0.000000 -0.049421 0.000000 0.631032
#
#
# Mechanical properties :
#
#
# Convention : Reuss Voigt Hill
#
# Bulk Modulus (GPa) = 28.84346 42.27877 35.56112
# Shear Modulus (GPa) = 6.19005 21.32011 13.75508
#
# Velocity S-wave (km/s) = 1.74788 3.24384 2.60553
# Velocity P-wave (km/s) = 4.27891 5.90734 5.15780
#
# Compressibility (1/GPa) = 0.03466991
#
# Stress axis : x y z
#
# Youngs Moduli (GPa) = 53.86436 40.21234 91.22661
#
# Poissons Ratio (x) = 0.09642 0.29487
# Poissons Ratio (y) = 0.12916 0.38610
# Poissons Ratio (z) = 0.17410 0.17019
#
# Static dielectric constant tensor:
#      x y z
#    x 1.738770 0.000000 0.004060 
#    y 0.000000 1.771450 0.000000 
#    z 0.004060 0.000000 1.752620 
# 
# From -- ./inp_files/283398.got.cif
#   From: 2010.05.17/outbox.cif.g08.bks.cpg/sg15_142_cif.got.tgz:283398.got - 2010.06.03 18:47:42.
