data_PCOD9298064
_publ_section_title
;
Structure prediction by ZEFSAII (Michael W. Deem and Ramdas Pophale) SiO2 
 PCOD9298064
Probable space group: C 2/C
;
_chemical_formula_sum "Si O2"
_cell_formula_units_Z 52
_cell_length_a 8.004093
_cell_length_b 15.647728
_cell_length_c 28.668015
_cell_angle_alpha 90.000000
_cell_angle_beta 140.923583
_cell_angle_gamma 90.000000
_cell_volume 2263.326235
_symmetry_space_group_name_H-M "C 2/C"
_symmetry_group_IT_number 15
_symmetry_cell_setting 'monoclinic'
loop_
_space_group_symop_operation_xyz
x,y,z
-x,y,1/2-z
-x,-y,-z
x,-y,1/2+z
1/2+x,1/2+y,z
1/2-x,1/2+y,1/2-z
1/2-x,1/2-y,-z
1/2+x,1/2-y,1/2+z
loop_
_atom_site_type_symbol
_atom_site_label
_atom_site_fract_x
_atom_site_fract_y
_atom_site_fract_z
Si Si1 0.967432 0.302618 0.892441
Si Si2 0.259381 0.985326 0.662447
Si Si3 0.500000 0.392715 0.250000
Si Si4 0.535016 0.006196 0.120284
Si Si5 0.447785 0.736512 0.978652
Si Si6 0.751185 0.393584 0.986698
Si Si7 0.290982 0.336703 0.296843
O O1 0.275267 0.309543 0.972648
O O2 0.870739 0.396526 0.862601
O O3 0.979254 0.240460 0.851461
O O4 0.815467 0.251986 0.899991
O O5 0.500000 0.956337 0.750000
O O6 0.010095 0.922322 0.598989
O O7 0.381461 0.002020 0.636886
O O8 0.162319 0.073737 0.665708
O O9 0.294225 0.448651 0.176581
O O10 0.321799 0.345404 0.248707
O O11 0.366944 0.975518 0.039000
O O12 0.316478 0.672384 0.986212
O O13 0.446859 0.833971 0.998454
O O14 0.000000 0.310702 0.250000
#
# Coordination Sequence:
#
# PCOD9298064 Si02
#       7
#     8   8   4   8   8   8   8
#     4  11  25  43  65 105 142 184 240 297 356 429
#     4  11  23  46  72 101 141 185 236 299 364 418
#     4  12  26  48  72 106 142 190 250 292 360 436
#     4  12  25  44  73 107 141 191 242 300 354 430
#     4  10  24  43  67 101 143 182 238 295 353 434
#     4  11  24  45  73 102 138 196 238 293 359 433
#     4  11  25  48  69  97 145 193 228 297 365 421
#
# _framework density 22.975035999999999
#
# number of rings (size 3 to 8) (size 9 to 14) (size 15 to 20)
#    0.000    0.923    4.615    2.308    7.538    0.615 
#    1.385    0.000    0.000    0.000    0.000    0.000 
#    0.000    0.000    0.000    0.000    0.000    0.000 
#
# Total GULP energy -145059.240235 kJ/mol
# GULP energy per Si atom -5579.201548 kJ/mol
# Density = 2.292274 g / cm^3
# Si number density = 22.975036 Si / 1000 Ang^3
#
#
#
# Elastic Constant Matrix: (Units=GPa)
#
#
# Indices 1 2 3 4 5 6 
#
# 1 39.2496 -14.1466 16.1771 0.0000 -3.4021 0.0000
# 2 -14.1466 64.9729 38.2113 0.0000 -7.7966 0.0000
# 3 16.1771 38.2113 101.0201 0.0000 -10.4490 0.0000
# 4 0.0000 0.0000 0.0000 2.7487 0.0000 -10.0945
# 5 -3.4021 -7.7966 -10.4490 0.0000 20.4094 0.0000
# 6 0.0000 0.0000 0.0000 -10.0945 0.0000 10.5034
#
#
#
# Elastic Compliance Matrix: (Units=1/GPa)
#
#
# Indices 1 2 3 4 5 6 
#
# 1 0.035756 0.014811 -0.010693 0.000000 0.006144 0.000000
# 2 0.014811 0.026234 -0.011618 0.000000 0.006542 0.000000
# 3 -0.010693 -0.011618 0.016222 0.000000 0.002084 0.000000
# 4 0.000000 0.000000 0.000000 -0.143826 0.000000 -0.138227
# 5 0.006144 0.006542 0.002084 0.000000 0.053587 0.000000
# 6 0.000000 0.000000 0.000000 -0.138227 0.000000 -0.037639
#
#
# Mechanical properties :
#
#
# Convention : Reuss Voigt Hill
#
# Bulk Modulus (GPa) = 15.81995 31.74735 23.78365
# Shear Modulus (GPa) = -367.76487 17.73236 -175.01626
#
# Velocity S-wave (km/s) = -12.66566 2.78116 -8.73740
# Velocity P-wave (km/s) = 14.38719 4.91542 9.56112
#
# Compressibility (1/GPa) = 0.06321134
#
# Stress axis : x y z
#
# Youngs Moduli (GPa) = 27.96745 38.11901 61.64657
#
# Poissons Ratio (x) = -0.56458 0.65917
# Poissons Ratio (y) = -0.41422 0.71621
# Poissons Ratio (z) = 0.29905 0.44287
#
# Static dielectric constant tensor:
#      x y z
#    x 1.921390 0.000000 -0.045420 
#    y 0.000000 1.863380 0.000000 
#    z -0.045420 0.000000 1.965220 
# 
# From -- ./inp_files/308334.got.cif
#   From: 2010.05.17/outbox.cif.g08.bks.cpg/sg15_155_cif.got.tgz:308334.got - 2010.06.03 18:47:42.
