data_PCOD9298243
_publ_section_title
;
Structure prediction by ZEFSAII (Michael W. Deem and Ramdas Pophale) SiO2 
 PCOD9298243
Probable space group: C 2/C
;
_chemical_formula_sum "Si O2"
_cell_formula_units_Z 48
_cell_length_a 6.664990
_cell_length_b 20.934251
_cell_length_c 20.541508
_cell_angle_alpha 90.000000
_cell_angle_beta 123.634988
_cell_angle_gamma 90.000000
_cell_volume 2386.255110
_symmetry_space_group_name_H-M "C 2/C"
_symmetry_group_IT_number 15
_symmetry_cell_setting 'monoclinic'
loop_
_space_group_symop_operation_xyz
x,y,z
-x,y,1/2-z
-x,-y,-z
x,-y,1/2+z
1/2+x,1/2+y,z
1/2-x,1/2+y,1/2-z
1/2-x,1/2-y,-z
1/2+x,1/2-y,1/2+z
loop_
_atom_site_type_symbol
_atom_site_label
_atom_site_fract_x
_atom_site_fract_y
_atom_site_fract_z
Si Si1 0.348411 0.723891 0.656668
Si Si2 0.115612 0.626573 0.342014
Si Si3 0.441532 0.910968 0.943838
Si Si4 0.505193 0.382001 0.418078
Si Si5 0.670395 0.818690 0.464096
Si Si6 0.492790 0.484402 0.576866
O O1 0.500000 0.722968 0.750000
O O2 0.323140 0.798706 0.631281
O O3 0.474674 0.677969 0.626464
O O4 0.086900 0.691454 0.616759
O O5 0.337289 0.576832 0.381234
O O6 0.000000 0.626417 0.250000
O O7 0.935375 0.600887 0.365734
O O8 0.268747 0.967645 0.938712
O O9 0.726799 0.904471 0.011719
O O10 0.346066 0.853953 0.970447
O O11 0.347782 0.357315 0.449642
O O12 0.406216 0.449670 0.373718
O O13 0.750000 0.750000 0.500000
O O14 0.500000 0.500000 0.500000
#
# Coordination Sequence:
#
# PCOD9298243 Si02
#       6
#     8   8   8   8   8   8
#     4  10  24  44  63  93 137 181 223 281 346 404
#     4  11  25  44  65  95 133 177 226 275 337 414
#     4  11  21  39  67  92 131 170 216 275 333 398
#     4  11  23  40  65  99 127 170 225 276 336 401
#     4  11  21  37  66 100 126 170 228 280 330 398
#     4  12  23  42  65  99 130 171 221 280 340 402
#
# _framework density 20.115200000000002
#
# number of rings (size 3 to 8) (size 9 to 14) (size 15 to 20)
#    0.000    1.000    3.333    3.500    0.000    4.000 
#    6.000    3.333    0.000    0.000    0.000    0.000 
#    0.000    0.000    0.000    0.000    0.000    0.000 
#
# Total GULP energy -133764.478708 kJ/mol
# GULP energy per Si atom -5573.519946 kJ/mol
# Density = 2.006942 g / cm^3
# Si number density = 20.115200 Si / 1000 Ang^3
#
#
#
# Elastic Constant Matrix: (Units=GPa)
#
#
# Indices 1 2 3 4 5 6 
#
# 1 140.6052 60.3927 40.1046 0.0000 -28.4828 0.0000
# 2 60.3927 158.2937 35.1829 0.0000 -10.8912 0.0000
# 3 40.1046 35.1829 81.7629 0.0000 -13.2836 0.0000
# 4 0.0000 0.0000 0.0000 13.2709 0.0000 -23.2056
# 5 -28.4828 -10.8912 -13.2836 0.0000 24.0371 0.0000
# 6 0.0000 0.0000 0.0000 -23.2056 0.0000 21.1488
#
#
#
# Elastic Compliance Matrix: (Units=1/GPa)
#
#
# Indices 1 2 3 4 5 6 
#
# 1 0.011269 -0.003012 -0.002509 0.000000 0.010602 0.000000
# 2 -0.003012 0.007851 -0.002090 0.000000 -0.001168 0.000000
# 3 -0.002509 -0.002090 0.015077 0.000000 0.004412 0.000000
# 4 0.000000 0.000000 0.000000 -0.082024 0.000000 -0.090001
# 5 0.010602 -0.001168 0.004412 0.000000 0.056075 0.000000
# 6 0.000000 0.000000 0.000000 -0.090001 0.000000 -0.051470
#
#
# Mechanical properties :
#
#
# Convention : Reuss Voigt Hill
#
# Bulk Modulus (GPa) = 52.70270 72.44692 62.57481
# Shear Modulus (GPa) = -230.70265 28.02346 -101.33960
#
# Velocity S-wave (km/s) = -10.72099 3.73654 -7.10556
# Velocity P-wave (km/s) = 11.26923 7.39661 6.01190
#
# Compressibility (1/GPa) = 0.01897436
#
# Stress axis : x y z
#
# Youngs Moduli (GPa) = 88.73650 127.37284 66.32449
#
# Poissons Ratio (x) = 0.38370 0.16640
# Poissons Ratio (y) = 0.26731 0.13864
# Poissons Ratio (z) = 0.22263 0.26626
#
# Static dielectric constant tensor:
#      x y z
#    x 1.761720 0.000000 0.034880 
#    y 0.000000 1.290310 0.000000 
#    z 0.034880 0.000000 1.709710 
# 
# From -- ./inp_files/185207.got.cif
#   From: 2010.05.17/outbox.cif.g08.bks.cpg/sg15_93_cif.got.tgz:185207.got - 2010.06.03 18:47:42.
