data_PCOD9298338
_publ_section_title
;
Structure prediction by ZEFSAII (Michael W. Deem and Ramdas Pophale) SiO2 
 PCOD9298338
Probable space group: C 2/C
;
_chemical_formula_sum "Si O2"
_cell_formula_units_Z 44
_cell_length_a 31.576593
_cell_length_b 13.124218
_cell_length_c 14.798846
_cell_angle_alpha 90.000000
_cell_angle_beta 19.614799
_cell_angle_gamma 90.000000
_cell_volume 2058.786341
_symmetry_space_group_name_H-M "C 2/C"
_symmetry_group_IT_number 15
_symmetry_cell_setting 'monoclinic'
loop_
_space_group_symop_operation_xyz
x,y,z
-x,y,1/2-z
-x,-y,-z
x,-y,1/2+z
1/2+x,1/2+y,z
1/2-x,1/2+y,1/2-z
1/2-x,1/2-y,-z
1/2+x,1/2-y,1/2+z
loop_
_atom_site_type_symbol
_atom_site_label
_atom_site_fract_x
_atom_site_fract_y
_atom_site_fract_z
Si Si1 0.500000 0.863767 0.750000
Si Si2 0.523925 0.895835 0.393578
Si Si3 0.488406 0.725717 0.611236
Si Si4 0.861759 0.046956 0.777657
Si Si5 0.789657 0.925315 0.766493
Si Si6 0.806209 0.522097 0.227142
O O1 0.443801 0.792647 0.785119
O O2 0.606238 0.934419 0.491341
O O3 0.532054 0.803459 0.446476
O O4 0.403550 0.893698 0.569124
O O5 0.500000 0.000000 0.500000
O O6 0.649764 0.896996 0.081057
O O7 0.379977 0.657372 0.783917
O O8 0.604019 0.654679 0.414500
O O9 0.813981 0.030536 0.772578
O O10 0.773072 0.987073 0.026327
O O11 0.000000 0.000000 0.500000
O O12 0.785502 0.939857 0.667749
#
# Coordination Sequence:
#
# PCOD9298338 Si02
#       6
#     4   8   8   8   8   8
#     4  12  22  42  68 104 128 176 224 278 340 400
#     4  12  21  42  65  98 132 180 225 277 336 395
#     4  11  24  41  68  98 137 179 227 271 338 416
#     4  10  24  44  67  98 136 182 218 276 344 403
#     4  11  22  44  68  97 138 179 220 283 340 393
#     4  12  23  42  70  96 136 174 227 280 337 399
#
# _framework density 21.371815000000002
#
# number of rings (size 3 to 8) (size 9 to 14) (size 15 to 20)
#    0.000    0.727    5.455    1.636    0.000    4.364 
#    3.273    0.000    8.000    0.000    0.000    0.000 
#    0.000    0.000    0.000    0.000    0.000    0.000 
#
# Total GULP energy -122919.382664 kJ/mol
# GULP energy per Si atom -5587.244667 kJ/mol
# Density = 2.132317 g / cm^3
# Si number density = 21.371815 Si / 1000 Ang^3
#
#
#
# Elastic Constant Matrix: (Units=GPa)
#
#
# Indices 1 2 3 4 5 6 
#
# 1 115.8947 19.3134 -5.3706 0.0000 -30.2189 0.0000
# 2 19.3134 66.0262 0.4585 0.0000 -13.6697 0.0000
# 3 -5.3706 0.4585 82.5945 0.0000 -4.0378 0.0000
# 4 0.0000 0.0000 0.0000 11.5946 0.0000 -8.9157
# 5 -30.2189 -13.6697 -4.0378 0.0000 32.8615 0.0000
# 6 0.0000 0.0000 0.0000 -8.9157 0.0000 28.4856
#
#
#
# Elastic Compliance Matrix: (Units=1/GPa)
#
#
# Indices 1 2 3 4 5 6 
#
# 1 0.011577 -0.001268 0.001262 0.000000 0.010274 0.000000
# 2 -0.001268 0.016717 0.000108 0.000000 0.005801 0.000000
# 3 0.001262 0.000108 0.012322 0.000000 0.002720 0.000000
# 4 0.000000 0.000000 0.000000 0.113583 0.000000 0.035550
# 5 0.010274 0.005801 0.002720 0.000000 0.042625 0.000000
# 6 0.000000 0.000000 0.000000 0.035550 0.000000 0.046232
#
#
# Mechanical properties :
#
#
# Convention : Reuss Voigt Hill
#
# Bulk Modulus (GPa) = 24.49779 32.59090 28.54434
# Shear Modulus (GPa) = 19.49635 31.26264 25.37949
#
# Velocity S-wave (km/s) = 3.02362 3.82880 3.44978
# Velocity P-wave (km/s) = 4.86593 5.90160 5.40861
#
# Compressibility (1/GPa) = 0.04082002
#
# Stress axis : x y z
#
# Youngs Moduli (GPa) = 86.37693 59.82043 81.15723
#
# Poissons Ratio (x) = 0.07586 -0.10243
# Poissons Ratio (y) = 0.10954 -0.00879
# Poissons Ratio (z) = -0.10901 -0.00648
#
# Static dielectric constant tensor:
#      x y z
#    x 1.800190 0.000000 -0.023340 
#    y 0.000000 1.809390 0.000000 
#    z -0.023340 0.000000 1.773330 
# 
# From -- ./inp_files/182260.got.cif
#   From: 2010.05.17/outbox.cif.g08.bks.cpg/sg15_92_cif.got.tgz:182260.got - 2010.06.03 18:47:42.
