data_PCOD9298708
_publ_section_title
;
Structure prediction by ZEFSAII (Michael W. Deem and Ramdas Pophale) SiO2 
 PCOD9298708
Probable space group: C 2/C
;
_chemical_formula_sum "Si O2"
_cell_formula_units_Z 48
_cell_length_a 21.514733
_cell_length_b 9.438697
_cell_length_c 9.773180
_cell_angle_alpha 90.000000
_cell_angle_beta 115.227272
_cell_angle_gamma 90.000000
_cell_volume 1795.362482
_symmetry_space_group_name_H-M "C 2/C"
_symmetry_group_IT_number 15
_symmetry_cell_setting 'monoclinic'
loop_
_space_group_symop_operation_xyz
x,y,z
-x,y,1/2-z
-x,-y,-z
x,-y,1/2+z
1/2+x,1/2+y,z
1/2-x,1/2+y,1/2-z
1/2-x,1/2-y,-z
1/2+x,1/2-y,1/2+z
loop_
_atom_site_type_symbol
_atom_site_label
_atom_site_fract_x
_atom_site_fract_y
_atom_site_fract_z
Si Si1 0.553495 0.592905 0.457673
Si Si2 0.716067 0.062824 0.251570
Si Si3 0.671620 0.251726 0.979884
Si Si4 0.500000 0.356428 0.250000
Si Si5 0.902478 0.627119 0.160976
Si Si6 0.000000 0.642076 0.750000
Si Si7 0.160977 0.737581 0.668993
O O1 0.500000 0.500000 0.500000
O O2 0.633184 0.637138 0.543126
O O3 0.557135 0.471629 0.344778
O O4 0.519303 0.744265 0.386323
O O5 0.671059 0.113872 0.337423
O O6 0.790358 0.133114 0.326781
O O7 0.712213 0.895500 0.235643
O O8 0.674861 0.114542 0.078516
O O9 0.633276 0.265721 0.796433
O O10 0.750000 0.250000 0.000000
O O11 0.452099 0.241331 0.283424
O O12 0.892460 0.310020 0.498015
O O13 0.060956 0.474656 0.292520
#
# Coordination Sequence:
#
# PCOD9298708 Si02
#       7
#     8   8   8   4   8   4   8
#     4  11  23  45  73 105 142 196 258 315 377 459
#     4  11  23  42  68 101 141 193 254 314 384 466
#     4  10  24  45  70 105 152 196 245 319 395 454
#     4  10  26  40  64 102 136 186 250 310 364 442
#     4  11  24  45  70 104 147 197 248 310 391 474
#     4  10  24  46  72 104 152 196 250 328 396 460
#     4  11  24  42  69 103 143 196 250 314 388 467
#
# _framework density 26.735548000000001
#
# number of rings (size 3 to 8) (size 9 to 14) (size 15 to 20)
#    0.000    1.333    0.000    4.500    0.000    9.333 
#    0.000    8.333    0.000    0.000    0.000    0.000 
#    0.000    0.000    0.000    0.000    0.000    0.000 
#
# Total GULP energy -133721.227464 kJ/mol
# GULP energy per Si atom -5571.717811 kJ/mol
# Density = 2.667470 g / cm^3
# Si number density = 26.735548 Si / 1000 Ang^3
#
#
#
# Elastic Constant Matrix: (Units=GPa)
#
#
# Indices 1 2 3 4 5 6 
#
# 1 134.3452 60.8714 40.4516 0.0000 -0.1646 0.0000
# 2 60.8714 205.8666 24.0791 0.0000 2.5834 0.0000
# 3 40.4516 24.0791 110.3608 0.0000 -13.6474 0.0000
# 4 0.0000 0.0000 0.0000 35.5461 0.0000 12.2597
# 5 -0.1646 2.5834 -13.6474 0.0000 41.0036 0.0000
# 6 0.0000 0.0000 0.0000 12.2597 0.0000 55.6957
#
#
#
# Elastic Compliance Matrix: (Units=1/GPa)
#
#
# Indices 1 2 3 4 5 6 
#
# 1 0.009459 -0.002431 -0.003038 0.000000 -0.000820 0.000000
# 2 -0.002431 0.005629 -0.000399 0.000000 -0.000497 0.000000
# 3 -0.003038 -0.000399 0.010704 0.000000 0.003576 0.000000
# 4 0.000000 0.000000 0.000000 0.030444 0.000000 -0.006701
# 5 -0.000820 -0.000497 0.003576 0.000000 0.025606 0.000000
# 6 0.000000 0.000000 0.000000 -0.006701 0.000000 0.019430
#
#
# Mechanical properties :
#
#
# Convention : Reuss Voigt Hill
#
# Bulk Modulus (GPa) = 71.14181 77.93076 74.53628
# Shear Modulus (GPa) = 42.48356 48.12710 45.30533
#
# Velocity S-wave (km/s) = 3.99059 4.24738 4.12098
# Velocity P-wave (km/s) = 6.92100 7.29833 7.11217
#
# Compressibility (1/GPa) = 0.01405643
#
# Stress axis : x y z
#
# Youngs Moduli (GPa) = 105.72148 177.64405 93.42435
#
# Poissons Ratio (x) = 0.43189 0.28382
# Poissons Ratio (y) = 0.25703 0.03723
# Poissons Ratio (z) = 0.32118 0.07080
#
# Static dielectric constant tensor:
#      x y z
#    x 2.127490 0.000000 -0.161850 
#    y 0.000000 1.215710 0.000000 
#    z -0.161850 0.000000 1.169550 
# 
# From -- ./inp_files/116494.got.cif
#   From: 2010.05.17/outbox.cif.g08.bks.cpg/sg15_59_cif.got.tgz:116494.got - 2010.06.03 18:47:42.
