data_PCOD9298508
_publ_section_title
;
Structure prediction by ZEFSAII (Michael W. Deem and Ramdas Pophale) SiO2 
 PCOD9298508
Probable space group: C 2/C
;
_chemical_formula_sum "Si O2"
_cell_formula_units_Z 48
_cell_length_a 14.296195
_cell_length_b 12.972165
_cell_length_c 12.404891
_cell_angle_alpha 90.000000
_cell_angle_beta 63.978615
_cell_angle_gamma 90.000000
_cell_volume 2067.316496
_symmetry_space_group_name_H-M "C 2/C"
_symmetry_group_IT_number 15
_symmetry_cell_setting 'monoclinic'
loop_
_space_group_symop_operation_xyz
x,y,z
-x,y,1/2-z
-x,-y,-z
x,-y,1/2+z
1/2+x,1/2+y,z
1/2-x,1/2+y,1/2-z
1/2-x,1/2-y,-z
1/2+x,1/2-y,1/2+z
loop_
_atom_site_type_symbol
_atom_site_label
_atom_site_fract_x
_atom_site_fract_y
_atom_site_fract_z
Si Si1 0.000272 0.338058 0.537333
Si Si2 0.363023 0.689291 0.164104
Si Si3 0.143651 0.007897 0.988787
Si Si4 0.500000 0.427582 0.750000
Si Si5 0.000000 0.201814 0.750000
Si Si6 0.830371 0.487222 0.560216
Si Si7 0.695614 0.366064 0.263198
O O1 0.004238 0.271531 0.642578
O O2 0.888154 0.383104 0.564132
O O3 0.047561 0.268085 0.419498
O O4 0.078200 0.433453 0.517223
O O5 0.352994 0.600031 0.078449
O O6 0.402825 0.637970 0.253871
O O7 0.261285 0.760713 0.227877
O O8 0.144820 0.100572 0.901143
O O9 0.044689 0.019037 0.118490
O O10 0.247950 0.019662 0.006329
O O11 0.893355 0.140874 0.782807
O O12 0.772049 0.541125 0.689969
#
# Coordination Sequence:
#
# PCOD9298508 Si02
#       7
#     8   8   8   4   4   8   8
#     4  10  24  44  72 105 146 194 248 301 376 433
#     4  11  26  48  71 113 149 199 248 310 368 447
#     4  12  26  46  77 106 156 196 250 308 372 445
#     4  12  28  45  75 106 156 196 251 308 371 450
#     4  12  24  43  75 104 142 196 249 302 359 458
#     4  10  24  46  69 107 146 193 246 310 364 444
#     4  11  27  46  75 111 151 196 251 304 378 436
#
# _framework density 23.218506999999999
#
# number of rings (size 3 to 8) (size 9 to 14) (size 15 to 20)
#    0.000    1.000    0.000    4.500    9.333    8.000 
#    0.000    0.000    0.000    0.000    0.000    0.000 
#    0.000    0.000    0.000    0.000    0.000    0.000 
#
# Total GULP energy -134419.665951 kJ/mol
# GULP energy per Si atom -5600.819415 kJ/mol
# Density = 2.316566 g / cm^3
# Si number density = 23.218507 Si / 1000 Ang^3
#
#
#
# Elastic Constant Matrix: (Units=GPa)
#
#
# Indices 1 2 3 4 5 6 
#
# 1 160.5179 61.7188 46.6819 0.0000 -2.3058 0.0000
# 2 61.7188 122.7008 73.8850 0.0000 -8.3160 0.0000
# 3 46.6819 73.8850 105.5991 0.0000 -0.4607 0.0000
# 4 0.0000 0.0000 0.0000 40.4668 0.0000 -2.3860
# 5 -2.3058 -8.3160 -0.4607 0.0000 35.5264 0.0000
# 6 0.0000 0.0000 0.0000 -2.3860 0.0000 59.8070
#
#
#
# Elastic Compliance Matrix: (Units=1/GPa)
#
#
# Indices 1 2 3 4 5 6 
#
# 1 0.007815 -0.003228 -0.001198 0.000000 -0.000264 0.000000
# 2 -0.003228 0.015783 -0.009601 0.000000 0.003360 0.000000
# 3 -0.001198 -0.009601 0.016708 0.000000 -0.002108 0.000000
# 4 0.000000 0.000000 0.000000 0.024770 0.000000 0.000988
# 5 -0.000264 0.003360 -0.002108 0.000000 0.028890 0.000000
# 6 0.000000 0.000000 0.000000 0.000988 0.000000 0.016760
#
#
# Mechanical properties :
#
#
# Convention : Reuss Voigt Hill
#
# Bulk Modulus (GPa) = 81.61609 83.70993 82.66301
# Shear Modulus (GPa) = 34.99852 40.92886 37.96369
#
# Velocity S-wave (km/s) = 3.88668 4.20309 4.04798
# Velocity P-wave (km/s) = 7.44106 7.72567 7.58470
#
# Compressibility (1/GPa) = 0.01225249
#
# Stress axis : x y z
#
# Youngs Moduli (GPa) = 127.95141 63.36066 59.85281
#
# Poissons Ratio (x) = 0.20452 0.07168
# Poissons Ratio (y) = 0.41302 0.57465
# Poissons Ratio (z) = 0.15324 0.60833
#
# Static dielectric constant tensor:
#      x y z
#    x 1.831720 0.000000 -0.031200 
#    y 0.000000 1.924860 0.000000 
#    z -0.031200 0.000000 1.872270 
# 
# From -- ./inp_files/96916.got.cif
#   From: 2010.05.17/outbox.cif.g08.bks.cpg/sg15_49_cif.got.tgz:96916.got - 2010.06.03 18:47:42.
