data_PCOD9298653
_publ_section_title
;
Structure prediction by ZEFSAII (Michael W. Deem and Ramdas Pophale) SiO2 
 PCOD9298653
Probable space group: C 2/C
;
_chemical_formula_sum "Si O2"
_cell_formula_units_Z 64
_cell_length_a 17.491889
_cell_length_b 8.026659
_cell_length_c 29.067617
_cell_angle_alpha 90.000000
_cell_angle_beta 43.842868
_cell_angle_gamma 90.000000
_cell_volume 2826.932764
_symmetry_space_group_name_H-M "C 2/C"
_symmetry_group_IT_number 15
_symmetry_cell_setting 'monoclinic'
loop_
_space_group_symop_operation_xyz
x,y,z
-x,y,1/2-z
-x,-y,-z
x,-y,1/2+z
1/2+x,1/2+y,z
1/2-x,1/2+y,1/2-z
1/2-x,1/2-y,-z
1/2+x,1/2-y,1/2+z
loop_
_atom_site_type_symbol
_atom_site_label
_atom_site_fract_x
_atom_site_fract_y
_atom_site_fract_z
Si Si1 0.356993 0.665611 0.274043
Si Si2 0.995834 0.005460 0.867450
Si Si3 0.604907 0.911011 0.523341
Si Si4 0.695212 0.455811 0.604205
Si Si5 0.319274 0.082973 0.918449
Si Si6 0.453886 0.021461 0.226385
Si Si7 0.116339 0.658850 0.336135
Si Si8 0.412941 0.524205 0.997075
O O1 0.439789 0.601592 0.198447
O O2 0.353954 0.569599 0.323731
O O3 0.390418 0.855743 0.269876
O O4 0.234543 0.650505 0.307362
O O5 0.075398 0.151820 0.849774
O O6 0.955301 0.926070 0.933117
O O7 0.887507 0.076869 0.887952
O O8 0.477661 0.940862 0.593848
O O9 0.602861 0.715824 0.511800
O O10 0.676070 0.994757 0.451605
O O11 0.676133 0.980364 0.535752
O O12 0.683366 0.282844 0.581040
O O13 0.433491 0.032545 0.846554
O O14 0.209547 0.035954 0.938162
O O15 0.500000 0.123635 0.250000
O O16 0.382062 0.101958 0.217620
O O17 0.500000 0.500000 0.000000
#
# Coordination Sequence:
#
# PCOD9298653 Si02
#       8
#     8   8   8   8   8   8   8   8
#     4  12  24  46  65 102 141 182 225 293 355 424
#     4  11  24  46  68  98 139 181 233 286 359 416
#     4  10  24  45  68 103 135 184 236 290 352 430
#     4  12  24  41  74 101 140 183 238 293 350 434
#     4  11  22  42  71  98 134 185 232 282 348 423
#     4  11  22  42  69  97 131 182 238 272 344 432
#     4  10  26  42  69  95 140 180 228 296 349 416
#     4  11  26  45  71 104 142 180 232 307 366 417
#
# _framework density 22.639377
#
# number of rings (size 3 to 8) (size 9 to 14) (size 15 to 20)
#    0.000    1.000    3.750    1.875    7.000    2.500 
#    4.500    0.000    0.000    0.000    0.000    0.000 
#    0.000    0.000    0.000    0.000    0.000    0.000 
#
# Total GULP energy -178587.834848 kJ/mol
# GULP energy per Si atom -5580.869839 kJ/mol
# Density = 2.258785 g / cm^3
# Si number density = 22.639377 Si / 1000 Ang^3
#
#
#
# Elastic Constant Matrix: (Units=GPa)
#
#
# Indices 1 2 3 4 5 6 
#
# 1 160.2804 9.9331 49.1955 -0.0049 -12.6056 0.0131
# 2 9.9331 31.5749 7.7826 -0.0188 0.5355 0.0500
# 3 49.1955 7.7826 94.7416 0.0008 -0.2536 -0.0018
# 4 -0.0049 -0.0188 0.0008 4.3666 -0.0038 59.0668
# 5 -12.6056 0.5355 -0.2536 -0.0038 32.4653 0.0097
# 6 0.0131 0.0500 -0.0018 59.0668 0.0097 -124.1098
#
#
#
# Elastic Compliance Matrix: (Units=1/GPa)
#
#
# Indices 1 2 3 4 5 6 
#
# 1 0.007768 -0.001534 -0.003899 0.000000 0.003011 0.000000
# 2 -0.001534 0.032638 -0.001888 -0.000005 -0.001149 0.000011
# 3 -0.003899 -0.001888 0.012731 0.000001 -0.001384 -0.000001
# 4 0.000000 -0.000005 0.000001 0.030790 -0.000001 0.014654
# 5 0.003011 -0.001149 -0.001384 -0.000001 0.031979 0.000002
# 6 0.000000 0.000011 -0.000001 0.014654 0.000002 -0.001083
#
#
# Mechanical properties :
#
#
# Convention : Reuss Voigt Hill
#
# Bulk Modulus (GPa) = 25.97723 46.71323 36.34523
# Shear Modulus (GPa) = 35.13789 -2.80986 16.16402
#
# Velocity S-wave (km/s) = 3.94391 -1.11527 2.67494
# Velocity P-wave (km/s) = 5.67789 4.36119 5.06253
#
# Compressibility (1/GPa) = 0.03849525
#
# Stress axis : x y z
#
# Youngs Moduli (GPa) = 128.73695 30.63923 78.54701
#
# Poissons Ratio (x) = 0.04699 0.30629
# Poissons Ratio (y) = 0.19743 0.14828
# Poissons Ratio (z) = 0.50200 0.05784
#
# Static dielectric constant tensor:
#      x y z
#    x 1.813890 0.000000 0.052540 
#    y 0.000000 1.872910 0.000000 
#    z 0.052540 0.000000 1.939890 
# 
# From -- ./inp_files/313116.got.cif
#   From: 2010.05.17/outbox.cif.g08.bks.cpg/sg15_157_cif.got.tgz:313116.got - 2010.06.03 18:47:42.
