data_PCOD9298677
_publ_section_title
;
Structure prediction by ZEFSAII (Michael W. Deem and Ramdas Pophale) SiO2 
 PCOD9298677
Probable space group: C 2/C
;
_chemical_formula_sum "Si O2"
_cell_formula_units_Z 48
_cell_length_a 5.395336
_cell_length_b 25.272124
_cell_length_c 14.394803
_cell_angle_alpha 90.000000
_cell_angle_beta 87.181623
_cell_angle_gamma 90.000000
_cell_volume 1960.380314
_symmetry_space_group_name_H-M "C 2/C"
_symmetry_group_IT_number 15
_symmetry_cell_setting 'monoclinic'
loop_
_space_group_symop_operation_xyz
x,y,z
-x,y,1/2-z
-x,-y,-z
x,-y,1/2+z
1/2+x,1/2+y,z
1/2-x,1/2+y,1/2-z
1/2-x,1/2-y,-z
1/2+x,1/2-y,1/2+z
loop_
_atom_site_type_symbol
_atom_site_label
_atom_site_fract_x
_atom_site_fract_y
_atom_site_fract_z
Si Si1 0.500000 0.916601 0.750000
Si Si2 0.339722 0.646596 0.112810
Si Si3 0.276164 0.559411 0.420226
Si Si4 0.636001 0.462591 0.385620
Si Si5 0.757604 0.260480 0.189769
Si Si6 0.500000 0.077402 0.750000
Si Si7 0.235850 0.368582 0.412293
O O1 0.281070 0.880093 0.794591
O O2 0.412770 0.947161 0.660145
O O3 0.601686 0.617802 0.088752
O O4 0.338953 0.708752 0.130770
O O5 0.179934 0.634706 0.022549
O O6 0.498332 0.518015 0.397844
O O7 0.192375 0.544635 0.525625
O O8 0.770510 0.457658 0.285338
O O9 0.446565 0.413403 0.397694
O O10 0.500000 0.249422 0.250000
O O11 0.694418 0.310304 0.125096
O O12 0.000000 0.272050 0.250000
O O13 0.462142 0.113007 0.660234
#
# Coordination Sequence:
#
# PCOD9298677 Si02
#       7
#     4   8   8   8   8   4   8
#     4  12  22  43  70 102 134 184 239 290 354 432
#     4  11  25  44  68 103 144 187 235 298 363 434
#     4  10  24  45  69 102 142 184 236 295 362 434
#     4  10  24  45  69 102 142 184 236 295 362 434
#     4  12  25  48  75 110 144 192 251 304 373 446
#     4  12  22  43  70 102 134 184 239 290 354 432
#     4  11  25  44  68 103 144 187 235 298 363 434
#
# _framework density 24.485045
#
# number of rings (size 3 to 8) (size 9 to 14) (size 15 to 20)
#    0.000    1.000    1.667    4.500    0.000    5.333 
#    0.000    6.667    0.000    3.000    0.000    0.000 
#    0.000    0.000    0.000    0.000    0.000    0.000 
#
# Total GULP energy -134333.123671 kJ/mol
# GULP energy per Si atom -5597.213486 kJ/mol
# Density = 2.442932 g / cm^3
# Si number density = 24.485045 Si / 1000 Ang^3
#
#
#
# Elastic Constant Matrix: (Units=GPa)
#
#
# Indices 1 2 3 4 5 6 
#
# 1 60.2533 17.8398 21.2869 0.0000 5.1889 0.0000
# 2 17.8398 139.4929 33.4052 0.0000 -4.0645 0.0000
# 3 21.2869 33.4052 140.8343 0.0000 15.0326 0.0000
# 4 0.0000 0.0000 0.0000 33.3874 0.0000 0.7717
# 5 5.1889 -4.0645 15.0326 0.0000 54.9811 0.0000
# 6 0.0000 0.0000 0.0000 0.7717 0.0000 20.3852
#
#
#
# Elastic Compliance Matrix: (Units=1/GPa)
#
#
# Indices 1 2 3 4 5 6 
#
# 1 0.018005 -0.001823 -0.002156 0.000000 -0.001244 0.000000
# 2 -0.001823 0.007849 -0.001717 0.000000 0.001222 0.000000
# 3 -0.002156 -0.001717 0.008061 0.000000 -0.002127 0.000000
# 4 0.000000 0.000000 0.000000 0.029978 0.000000 -0.001135
# 5 -0.001244 0.001222 -0.002127 0.000000 0.018977 0.000000
# 6 0.000000 0.000000 0.000000 -0.001135 0.000000 0.049098
#
#
# Mechanical properties :
#
#
# Convention : Reuss Voigt Hill
#
# Bulk Modulus (GPa) = 44.39791 53.96047 49.17919
# Shear Modulus (GPa) = 33.14189 39.62063 36.38126
#
# Velocity S-wave (km/s) = 3.68306 4.02700 3.85886
# Velocity P-wave (km/s) = 6.02151 6.61122 6.32325
#
# Compressibility (1/GPa) = 0.02252359
#
# Stress axis : x y z
#
# Youngs Moduli (GPa) = 55.53951 127.41158 124.05875
#
# Poissons Ratio (x) = 0.23222 0.26751
# Poissons Ratio (y) = 0.10122 0.21295
# Poissons Ratio (z) = 0.11976 0.21871
#
# Static dielectric constant tensor:
#      x y z
#    x 2.033750 0.000000 0.034650 
#    y 0.000000 1.943440 0.000000 
#    z 0.034650 0.000000 1.942000 
# 
# From -- ./inp_files/130087.got.cif
#   From: 2010.05.17/outbox.cif.g08.bks.cpg/sg15_66_cif.got.tgz:130087.got - 2010.06.03 18:47:42.
