data_PCOD9298804
_publ_section_title
;
Structure prediction by ZEFSAII (Michael W. Deem and Ramdas Pophale) SiO2 
 PCOD9298804
Probable space group: C 2/C
;
_chemical_formula_sum "Si O2"
_cell_formula_units_Z 48
_cell_length_a 14.232054
_cell_length_b 10.454491
_cell_length_c 13.211700
_cell_angle_alpha 90.000000
_cell_angle_beta 93.766122
_cell_angle_gamma 90.000000
_cell_volume 1961.508968
_symmetry_space_group_name_H-M "C 2/C"
_symmetry_group_IT_number 15
_symmetry_cell_setting 'monoclinic'
loop_
_space_group_symop_operation_xyz
x,y,z
-x,y,1/2-z
-x,-y,-z
x,-y,1/2+z
1/2+x,1/2+y,z
1/2-x,1/2+y,1/2-z
1/2-x,1/2-y,-z
1/2+x,1/2-y,1/2+z
loop_
_atom_site_type_symbol
_atom_site_label
_atom_site_fract_x
_atom_site_fract_y
_atom_site_fract_z
Si Si1 0.356337 0.100050 0.705235
Si Si2 0.500000 0.681185 0.250000
Si Si3 0.273618 0.603658 0.974299
Si Si4 0.500000 0.105070 0.250000
Si Si5 0.230204 0.630043 0.606418
Si Si6 0.465316 0.435517 0.362681
Si Si7 0.407896 0.765504 0.551317
O O1 0.419555 0.226068 0.702373
O O2 0.316250 0.057516 0.596643
O O3 0.271767 0.127968 0.773759
O O4 0.412202 0.987296 0.762802
O O5 0.466306 0.585650 0.335784
O O6 0.366203 0.597616 0.909509
O O7 0.250000 0.750000 0.000000
O O8 0.271210 0.503233 0.066183
O O9 0.526319 0.164557 0.361554
O O10 0.304349 0.741398 0.588789
O O11 0.125518 0.665734 0.554778
O O12 0.500000 0.386608 0.250000
O O13 0.541674 0.373423 0.443855
#
# Coordination Sequence:
#
# PCOD9298804 Si02
#       7
#     8   4   8   4   8   8   8
#     4  11  26  48  73 109 155 201 249 320 378 457
#     4   9  25  46  74 108 145 203 250 306 378 455
#     4  12  29  49  76 117 154 201 258 317 384 460
#     4  11  23  46  74 100 149 193 256 302 384 449
#     4  11  28  47  75 109 154 198 254 320 384 453
#     4  10  24  45  76 107 149 203 249 308 382 445
#     4  11  24  45  71 110 139 200 254 308 376 458
#
# _framework density 24.470956000000001
#
# number of rings (size 3 to 8) (size 9 to 14) (size 15 to 20)
#    0.500    0.667    2.500    1.000    9.333    4.000 
#    0.000    0.000    0.000    0.000    0.000    0.000 
#    0.000    0.000    0.000    0.000    0.000    0.000 
#
# Total GULP energy -133814.428849 kJ/mol
# GULP energy per Si atom -5575.601202 kJ/mol
# Density = 2.441526 g / cm^3
# Si number density = 24.470956 Si / 1000 Ang^3
#
#
#
# Elastic Constant Matrix: (Units=GPa)
#
#
# Indices 1 2 3 4 5 6 
#
# 1 92.8922 28.4898 17.7123 0.0000 6.1332 0.0000
# 2 28.4898 88.2433 6.7300 0.0000 2.4364 0.0000
# 3 17.7123 6.7300 35.3208 0.0000 -2.9407 0.0000
# 4 0.0000 0.0000 0.0000 -25.4606 0.0000 33.7685
# 5 6.1332 2.4364 -2.9407 0.0000 45.3346 0.0000
# 6 0.0000 0.0000 0.0000 33.7685 0.0000 -16.3487
#
#
#
# Elastic Compliance Matrix: (Units=1/GPa)
#
#
# Indices 1 2 3 4 5 6 
#
# 1 0.013202 -0.003745 -0.006072 0.000000 -0.001979 0.000000
# 2 -0.003745 0.012588 -0.000538 0.000000 -0.000205 0.000000
# 3 -0.006072 -0.000538 0.031701 0.000000 0.002907 0.000000
# 4 0.000000 0.000000 0.000000 0.022579 0.000000 0.046637
# 5 -0.001979 -0.000205 0.002907 0.000000 0.022525 0.000000
# 6 0.000000 0.000000 0.000000 0.046637 0.000000 0.035163
#
#
# Mechanical properties :
#
#
# Convention : Reuss Voigt Hill
#
# Bulk Modulus (GPa) = 27.18642 35.81339 31.49990
# Shear Modulus (GPa) = 29.28634 11.60667 20.44651
#
# Velocity S-wave (km/s) = 3.46320 2.18021 2.89371
# Velocity P-wave (km/s) = 5.20821 4.58308 4.90561
#
# Compressibility (1/GPa) = 0.03678307
#
# Stress axis : x y z
#
# Youngs Moduli (GPa) = 75.74608 79.44106 31.54461
#
# Poissons Ratio (x) = 0.29748 0.19153
# Poissons Ratio (y) = 0.28364 0.01696
# Poissons Ratio (z) = 0.45990 0.04272
#
# Static dielectric constant tensor:
#      x y z
#    x 1.990680 0.000000 -0.063470 
#    y 0.000000 2.054840 0.000000 
#    z -0.063470 0.000000 2.155810 
# 
# From -- ./inp_files/152054.got.cif
#   From: 2010.05.17/outbox.cif.g08.bks.cpg/sg15_77_cif.got.tgz:152054.got - 2010.06.03 18:47:42.
