data_PCOD9298746
_publ_section_title
;
Structure prediction by ZEFSAII (Michael W. Deem and Ramdas Pophale) SiO2 
 PCOD9298746
Probable space group: C 2/C
;
_chemical_formula_sum "Si O2"
_cell_formula_units_Z 60
_cell_length_a 11.683104
_cell_length_b 14.343443
_cell_length_c 18.139125
_cell_angle_alpha 90.000000
_cell_angle_beta 128.185392
_cell_angle_gamma 90.000000
_cell_volume 2389.233336
_symmetry_space_group_name_H-M "C 2/C"
_symmetry_group_IT_number 15
_symmetry_cell_setting 'monoclinic'
loop_
_space_group_symop_operation_xyz
x,y,z
-x,y,1/2-z
-x,-y,-z
x,-y,1/2+z
1/2+x,1/2+y,z
1/2-x,1/2+y,1/2-z
1/2-x,1/2-y,-z
1/2+x,1/2-y,1/2+z
loop_
_atom_site_type_symbol
_atom_site_label
_atom_site_fract_x
_atom_site_fract_y
_atom_site_fract_z
Si Si1 0.222940 0.196587 0.211841
Si Si2 0.998906 0.756861 0.502074
Si Si3 0.790593 0.341960 0.180709
Si Si4 0.000000 0.302282 0.750000
Si Si5 0.868692 0.401624 0.054503
Si Si6 0.131575 0.389163 0.942331
Si Si7 0.133264 0.989978 0.399567
Si Si8 0.209665 0.004192 0.762123
O O1 0.157114 0.250451 0.255293
O O2 0.370891 0.249050 0.242783
O O3 0.267497 0.096507 0.260843
O O4 0.112614 0.190764 0.100160
O O5 0.077927 0.693786 0.472126
O O6 0.871372 0.816636 0.414131
O O7 0.930241 0.678646 0.528700
O O8 0.785234 0.419557 0.241799
O O9 0.125018 0.375724 0.357615
O O10 0.910420 0.363710 0.656676
O O11 0.929988 0.506468 0.065230
O O12 0.699956 0.417805 0.963519
O O13 0.303055 0.406256 0.025556
O O14 0.209566 0.980606 0.349799
O O15 0.962489 0.993841 0.325227
#
# Coordination Sequence:
#
# PCOD9298746 Si02
#       8
#     8   8   8   4   8   8   8   8
#     4  12  29  45  76 106 148 193 244 312 362 447
#     4  12  25  45  72 107 147 193 248 300 370 436
#     4  12  26  46  74 109 147 195 248 302 365 452
#     4  12  26  48  66 108 142 188 250 300 370 432
#     4  10  24  45  72 105 149 192 245 299 372 431
#     4  10  24  45  74 104 144 197 237 309 359 442
#     4   9  23  44  76 104 147 191 236 299 368 438
#     4  11  24  48  73 110 149 191 243 298 378 430
#
# _framework density 25.112659000000001
#
# number of rings (size 3 to 8) (size 9 to 14) (size 15 to 20)
#    0.800    0.267    1.333    4.000    1.867    8.533 
#    0.000    0.000    0.000    0.000    0.000    0.000 
#    0.000    0.000    0.000    0.000    0.000    0.000 
#
# Total GULP energy -168036.917206 kJ/mol
# GULP energy per Si atom -5601.230574 kJ/mol
# Density = 2.505550 g / cm^3
# Si number density = 25.112659 Si / 1000 Ang^3
#
#
#
# Elastic Constant Matrix: (Units=GPa)
#
#
# Indices 1 2 3 4 5 6 
#
# 1 78.0492 8.4002 22.7809 0.0000 -8.4929 0.0000
# 2 8.4002 86.0067 5.1794 0.0000 -12.5256 0.0000
# 3 22.7809 5.1794 146.5037 0.0000 -17.3837 0.0000
# 4 0.0000 0.0000 0.0000 33.3026 0.0000 -5.3519
# 5 -8.4929 -12.5256 -17.3837 0.0000 42.0488 0.0000
# 6 0.0000 0.0000 0.0000 -5.3519 0.0000 32.3741
#
#
#
# Elastic Compliance Matrix: (Units=1/GPa)
#
#
# Indices 1 2 3 4 5 6 
#
# 1 0.013652 -0.000974 -0.001888 0.000000 0.001687 0.000000
# 2 -0.000974 0.012224 0.000135 0.000000 0.003500 0.000000
# 3 -0.001888 0.000135 0.007439 0.000000 0.002734 0.000000
# 4 0.000000 0.000000 0.000000 0.030847 0.000000 0.005100
# 5 0.001687 0.003500 0.002734 0.000000 0.026296 0.000000
# 6 0.000000 0.000000 0.000000 0.005100 0.000000 0.031732
#
#
# Mechanical properties :
#
#
# Convention : Reuss Voigt Hill
#
# Bulk Modulus (GPa) = 35.89453 42.58674 39.24064
# Shear Modulus (GPa) = 36.51466 39.82503 38.16984
#
# Velocity S-wave (km/s) = 3.81732 3.98660 3.90288
# Velocity P-wave (km/s) = 5.80979 6.17946 5.99747
#
# Compressibility (1/GPa) = 0.02785940
#
# Stress axis : x y z
#
# Youngs Moduli (GPa) = 73.24963 81.80774 134.42569
#
# Poissons Ratio (x) = 0.07968 0.25383
# Poissons Ratio (y) = 0.07135 -0.01810
# Poissons Ratio (z) = 0.13832 -0.01101
#
# Static dielectric constant tensor:
#      x y z
#    x 2.009900 0.000000 0.078150 
#    y 0.000000 1.944960 0.000000 
#    z 0.078150 0.000000 1.980890 
# 
# From -- ./inp_files/244710.got.cif
#   From: 2010.05.17/outbox.cif.g08.bks.cpg/sg15_123_cif.got.tgz:244710.got - 2010.06.03 18:47:42.
