data_PCOD9298694
_publ_section_title
;
Structure prediction by ZEFSAII (Michael W. Deem and Ramdas Pophale) SiO2 
 PCOD9298694
Probable space group: C 2/C
;
_chemical_formula_sum "Si O2"
_cell_formula_units_Z 44
_cell_length_a 12.237774
_cell_length_b 22.345147
_cell_length_c 8.089317
_cell_angle_alpha 90.000000
_cell_angle_beta 106.944437
_cell_angle_gamma 90.000000
_cell_volume 2116.032596
_symmetry_space_group_name_H-M "C 2/C"
_symmetry_group_IT_number 15
_symmetry_cell_setting 'monoclinic'
loop_
_space_group_symop_operation_xyz
x,y,z
-x,y,1/2-z
-x,-y,-z
x,-y,1/2+z
1/2+x,1/2+y,z
1/2-x,1/2+y,1/2-z
1/2-x,1/2-y,-z
1/2+x,1/2-y,1/2+z
loop_
_atom_site_type_symbol
_atom_site_label
_atom_site_fract_x
_atom_site_fract_y
_atom_site_fract_z
Si Si1 0.133237 0.172856 0.004590
Si Si2 0.500000 0.647310 0.250000
Si Si3 0.312687 0.248475 0.269498
Si Si4 0.378686 0.822090 0.108834
Si Si5 0.209250 0.074588 0.496219
Si Si6 0.631809 0.452406 0.330417
O O1 0.122494 0.209543 0.830810
O O2 0.132841 0.102971 0.957549
O O3 0.039385 0.182712 0.105266
O O4 0.250117 0.196661 0.136675
O O5 0.609745 0.609440 0.353699
O O6 0.383085 0.216620 0.443815
O O7 0.214043 0.288440 0.314486
O O8 0.500000 0.827131 0.250000
O O9 0.323258 0.886180 0.039162
O O10 0.173155 0.070209 0.671432
O O11 0.207680 0.007537 0.425334
O O12 0.500000 0.472665 0.250000
#
# Coordination Sequence:
#
# PCOD9298694 Si02
#       6
#     8   4   8   8   8   8
#     4  11  23  40  70 107 137 179 225 287 356 411
#     4  12  22  40  72 102 144 176 224 286 360 404
#     4  10  24  45  69  99 139 182 232 284 344 417
#     4  11  25  46  71  98 138 187 235 284 341 417
#     4  12  24  42  66 102 139 181 227 293 348 411
#     4  12  23  39  68 104 139 172 229 294 360 411
#
# _framework density 20.793631000000001
#
# number of rings (size 3 to 8) (size 9 to 14) (size 15 to 20)
#    0.000    0.727    6.364    1.636    1.273    1.455 
#    0.000    3.636    0.000    0.000    0.000    0.000 
#    0.000    0.000    0.000    0.000    0.000    0.000 
#
# Total GULP energy -123132.621521 kJ/mol
# GULP energy per Si atom -5596.937342 kJ/mol
# Density = 2.074630 g / cm^3
# Si number density = 20.793631 Si / 1000 Ang^3
#
#
#
# Elastic Constant Matrix: (Units=GPa)
#
#
# Indices 1 2 3 4 5 6 
#
# 1 76.7804 63.0888 76.8127 0.0000 5.1102 0.0000
# 2 63.0888 139.1866 77.5124 0.0000 16.6419 0.0000
# 3 76.8127 77.5124 155.8410 0.0000 -1.4664 0.0000
# 4 0.0000 0.0000 0.0000 37.2153 0.0000 1.9918
# 5 5.1102 16.6419 -1.4664 0.0000 55.4463 0.0000
# 6 0.0000 0.0000 0.0000 1.9918 0.0000 19.9221
#
#
#
# Elastic Compliance Matrix: (Units=1/GPa)
#
#
# Indices 1 2 3 4 5 6 
#
# 1 0.030560 -0.007402 -0.011390 0.000000 -0.000896 0.000000
# 2 -0.007402 0.012298 -0.002497 0.000000 -0.003075 0.000000
# 3 -0.011390 -0.002497 0.013293 0.000000 0.002151 0.000000
# 4 0.000000 0.000000 0.000000 0.027015 0.000000 -0.002701
# 5 -0.000896 -0.003075 0.002151 0.000000 0.019098 0.000000
# 6 0.000000 0.000000 0.000000 -0.002701 0.000000 0.050465
#
#
# Mechanical properties :
#
#
# Convention : Reuss Voigt Hill
#
# Bulk Modulus (GPa) = 73.67403 89.62621 81.65012
# Shear Modulus (GPa) = 25.02087 32.80969 28.91528
#
# Velocity S-wave (km/s) = 3.47262 3.97655 3.73310
# Velocity P-wave (km/s) = 7.18239 8.01750 7.61141
#
# Compressibility (1/GPa) = 0.01357330
#
# Stress axis : x y z
#
# Youngs Moduli (GPa) = 32.72208 81.31296 75.22679
#
# Poissons Ratio (x) = 0.60188 0.85682
# Poissons Ratio (y) = 0.24221 0.18787
# Poissons Ratio (z) = 0.37270 0.20307
#
# Static dielectric constant tensor:
#      x y z
#    x 1.741880 0.000000 -0.002480 
#    y 0.000000 1.768060 0.000000 
#    z -0.002480 0.000000 1.760210 
# 
# From -- ./inp_files/31059.got.cif
#   From: 2010.05.17/outbox.cif.g08.bks.cpg/sg15_16_cif.got.tgz:31059.got - 2010.06.03 18:47:42.
