data_PCOD9298125
_publ_section_title
;
Structure prediction by ZEFSAII (Michael W. Deem and Ramdas Pophale) SiO2 
 PCOD9298125
Probable space group: C 2/C
;
_chemical_formula_sum "Si O2"
_cell_formula_units_Z 44
_cell_length_a 11.609792
_cell_length_b 7.882830
_cell_length_c 21.668309
_cell_angle_alpha 90.000000
_cell_angle_beta 118.090873
_cell_angle_gamma 90.000000
_cell_volume 1749.442213
_symmetry_space_group_name_H-M "C 2/C"
_symmetry_group_IT_number 15
_symmetry_cell_setting 'monoclinic'
loop_
_space_group_symop_operation_xyz
x,y,z
-x,y,1/2-z
-x,-y,-z
x,-y,1/2+z
1/2+x,1/2+y,z
1/2-x,1/2+y,1/2-z
1/2-x,1/2-y,-z
1/2+x,1/2-y,1/2+z
loop_
_atom_site_type_symbol
_atom_site_label
_atom_site_fract_x
_atom_site_fract_y
_atom_site_fract_z
Si Si1 0.533520 0.094718 0.137149
Si Si2 0.595700 0.451893 0.100002
Si Si3 0.167512 0.078453 0.477571
Si Si4 0.500000 0.276005 0.250000
Si Si5 0.773979 0.987963 0.129851
Si Si6 0.368602 0.128081 0.675947
O O1 0.531009 0.264520 0.094330
O O2 0.569142 0.170829 0.213321
O O3 0.640378 0.974635 0.133217
O O4 0.410268 0.982459 0.126450
O O5 0.481761 0.583040 0.087311
O O6 0.735034 0.454903 0.169898
O O7 0.637715 0.475658 0.039681
O O8 0.250000 0.250000 0.500000
O O9 0.240595 0.957965 0.446921
O O10 0.388576 0.379273 0.187629
O O11 0.818028 0.184204 0.148074
O O12 0.500000 0.143669 0.750000
#
# Coordination Sequence:
#
# PCOD9298125 Si02
#       6
#     8   8   8   4   8   8
#     4  11  24  41  63  98 133 170 217 276 329 398
#     4  10  24  43  69  95 134 178 221 276 333 393
#     4  11  20  45  72  93 133 181 223 273 332 392
#     4  12  24  40  64  94 130 178 216 268 338 394
#     4  11  25  41  67  95 131 177 222 271 336 394
#     4  11  23  43  63  99 137 168 221 279 330 394
#
# _framework density 25.150874000000002
#
# number of rings (size 3 to 8) (size 9 to 14) (size 15 to 20)
#    0.000    1.091    7.273    0.000    5.091    0.000 
#    3.273    7.273    0.000    0.000    0.000    0.000 
#    0.000    0.000    0.000    0.000    0.000    0.000 
#
# Total GULP energy -122810.092035 kJ/mol
# GULP energy per Si atom -5582.276911 kJ/mol
# Density = 2.509363 g / cm^3
# Si number density = 25.150874 Si / 1000 Ang^3
#
#
#
# Elastic Constant Matrix: (Units=GPa)
#
#
# Indices 1 2 3 4 5 6 
#
# 1 170.7118 21.0883 5.5801 0.0000 7.7293 0.0000
# 2 21.0883 56.5885 -5.0884 0.0000 11.7401 0.0000
# 3 5.5801 -5.0884 46.2877 0.0000 -14.2090 0.0000
# 4 0.0000 0.0000 0.0000 12.0364 0.0000 -5.3222
# 5 7.7293 11.7401 -14.2090 0.0000 58.3941 0.0000
# 6 0.0000 0.0000 0.0000 -5.3222 0.0000 51.1278
#
#
#
# Elastic Compliance Matrix: (Units=1/GPa)
#
#
# Indices 1 2 3 4 5 6 
#
# 1 0.006209 -0.002286 -0.001201 0.000000 -0.000654 0.000000
# 2 -0.002286 0.019322 0.001405 0.000000 -0.003240 0.000000
# 3 -0.001201 0.001405 0.023630 0.000000 0.005626 0.000000
# 4 0.000000 0.000000 0.000000 0.087090 0.000000 0.009066
# 5 -0.000654 -0.003240 0.005626 0.000000 0.019232 0.000000
# 6 0.000000 0.000000 0.000000 0.009066 0.000000 0.020503
#
#
# Mechanical properties :
#
#
# Convention : Reuss Voigt Hill
#
# Bulk Modulus (GPa) = 22.22329 35.19421 28.70875
# Shear Modulus (GPa) = 25.62143 41.11219 33.36681
#
# Velocity S-wave (km/s) = 3.19519 4.04743 3.64629
# Velocity P-wave (km/s) = 4.73998 5.98881 5.40062
#
# Compressibility (1/GPa) = 0.04499784
#
# Stress axis : x y z
#
# Youngs Moduli (GPa) = 161.05368 51.75466 42.31838
#
# Poissons Ratio (x) = 0.11832 0.05081
# Poissons Ratio (y) = 0.36818 -0.05946
# Poissons Ratio (z) = 0.19338 -0.07272
#
# Static dielectric constant tensor:
#      x y z
#    x 1.964560 0.000000 0.009130 
#    y 0.000000 2.021600 0.000000 
#    z 0.009130 0.000000 2.073170 
# 
# From -- ./inp_files/267860.got.cif
#   From: 2010.05.17/outbox.cif.g08.bks.cpg/sg15_134_cif.got.tgz:267860.got - 2010.06.03 18:47:42.
