data_PCOD9298556
_publ_section_title
;
Structure prediction by ZEFSAII (Michael W. Deem and Ramdas Pophale) SiO2 
 PCOD9298556
Probable space group: C 2/C
;
_chemical_formula_sum "Si O2"
_cell_formula_units_Z 32
_cell_length_a 21.655523
_cell_length_b 9.804253
_cell_length_c 16.063879
_cell_angle_alpha 90.000000
_cell_angle_beta 18.716742
_cell_angle_gamma 90.000000
_cell_volume 1094.433711
_symmetry_space_group_name_H-M "C 2/C"
_symmetry_group_IT_number 15
_symmetry_cell_setting 'monoclinic'
loop_
_space_group_symop_operation_xyz
x,y,z
-x,y,1/2-z
-x,-y,-z
x,-y,1/2+z
1/2+x,1/2+y,z
1/2-x,1/2+y,1/2-z
1/2-x,1/2-y,-z
1/2+x,1/2-y,1/2+z
loop_
_atom_site_type_symbol
_atom_site_label
_atom_site_fract_x
_atom_site_fract_y
_atom_site_fract_z
Si Si1 0.539170 0.288290 0.358850
Si Si2 0.123036 0.935327 0.680856
Si Si3 0.388942 0.944152 0.977197
Si Si4 0.906439 0.338451 0.190010
O O1 0.501946 0.429183 0.357858
O O2 0.565337 0.165275 0.259803
O O3 0.716629 0.333548 0.190859
O O4 0.402254 0.219558 0.602708
O O5 0.050936 0.792990 0.808041
O O6 0.211892 0.906144 0.476581
O O7 0.314301 0.963116 0.495425
O O8 0.429605 0.049189 0.999835
#
# Coordination Sequence:
#
# PCOD9298556 Si02
#       4
#     8   8   8   8
#     4  10  24  44  74 107 151 199 254 312 391 455
#     4   9  24  42  72 106 146 198 256 309 378 458
#     4  10  24  45  70 112 145 202 255 311 389 462
#     4  11  21  45  69 105 151 197 251 312 374 465
#
# _framework density 29.238864
#
# number of rings (size 3 to 8) (size 9 to 14) (size 15 to 20)
#    1.500    0.500    0.000    2.250    3.500    1.000 
#    4.500    0.000    0.000    0.000    0.000    0.000 
#    0.000    0.000    0.000    0.000    0.000    0.000 
#
# Total GULP energy -89286.290244 kJ/mol
# GULP energy per Si atom -5580.393140 kJ/mol
# Density = 2.917232 g / cm^3
# Si number density = 29.238864 Si / 1000 Ang^3
#
#
#
# Elastic Constant Matrix: (Units=GPa)
#
#
# Indices 1 2 3 4 5 6 
#
# 1 176.3852 86.9164 33.0391 -0.0005 18.2372 0.0003
# 2 86.9164 289.2057 72.7062 -0.0004 -4.0929 0.0004
# 3 33.0391 72.7062 110.3406 -0.0007 33.1032 0.0006
# 4 -0.0005 -0.0004 -0.0007 32.1942 0.0006 0.8989
# 5 18.2372 -4.0929 33.1032 0.0006 29.8581 -0.0004
# 6 0.0003 0.0004 0.0006 0.8989 -0.0004 79.7366
#
#
#
# Elastic Compliance Matrix: (Units=1/GPa)
#
#
# Indices 1 2 3 4 5 6 
#
# 1 0.007396 -0.002706 0.001551 0.000000 -0.006608 0.000000
# 2 -0.002706 0.005807 -0.005620 0.000000 0.008679 0.000000
# 3 0.001551 -0.005620 0.019204 0.000001 -0.023009 0.000000
# 4 0.000000 0.000000 0.000001 0.031071 -0.000002 -0.000350
# 5 -0.006608 0.008679 -0.023009 -0.000002 0.064228 0.000001
# 6 0.000000 0.000000 0.000000 -0.000350 0.000001 0.012545
#
#
# Mechanical properties :
#
#
# Convention : Reuss Voigt Hill
#
# Bulk Modulus (GPa) = 53.03061 106.80613 79.91837
# Shear Modulus (GPa) = 31.23321 53.90911 42.57116
#
# Velocity S-wave (km/s) = 3.27189 4.29855 3.81987
# Velocity P-wave (km/s) = 5.69650 7.82591 6.84452
#
# Compressibility (1/GPa) = 0.01885703
#
# Stress axis : x y z
#
# Youngs Moduli (GPa) = 135.21683 172.21627 52.07125
#
# Poissons Ratio (x) = 0.46603 -0.08076
# Poissons Ratio (y) = 0.36590 0.29263
# Poissons Ratio (z) = -0.20972 0.96782
#
# Static dielectric constant tensor:
#      x y z
#    x 2.545250 0.000000 0.168820 
#    y 0.000000 2.219500 0.000000 
#    z 0.168820 0.000000 2.664260 
# 
# From -- ./inp_files/258667.got.cif
#   From: 2010.05.17/outbox.cif.g08.bks.cpg/sg15_130_cif.got.tgz:258667.got - 2010.06.03 18:47:42.
