data_PCOD9298493
_publ_section_title
;
Structure prediction by ZEFSAII (Michael W. Deem and Ramdas Pophale) SiO2 
 PCOD9298493
Probable space group: C 2/C
;
_chemical_formula_sum "Si O2"
_cell_formula_units_Z 44
_cell_length_a 22.970924
_cell_length_b 13.676736
_cell_length_c 17.183325
_cell_angle_alpha 90.000000
_cell_angle_beta 159.505507
_cell_angle_gamma 90.000000
_cell_volume 1890.086879
_symmetry_space_group_name_H-M "C 2/C"
_symmetry_group_IT_number 15
_symmetry_cell_setting 'monoclinic'
loop_
_space_group_symop_operation_xyz
x,y,z
-x,y,1/2-z
-x,-y,-z
x,-y,1/2+z
1/2+x,1/2+y,z
1/2-x,1/2+y,1/2-z
1/2-x,1/2-y,-z
1/2+x,1/2-y,1/2+z
loop_
_atom_site_type_symbol
_atom_site_label
_atom_site_fract_x
_atom_site_fract_y
_atom_site_fract_z
Si Si1 0.500000 0.196224 0.250000
Si Si2 0.518977 0.386180 0.546726
Si Si3 0.137108 0.044089 0.361931
Si Si4 0.904022 0.677521 0.709770
Si Si5 0.777297 0.358779 0.599632
Si Si6 0.189001 0.706579 0.192133
O O1 0.664806 0.261062 0.466184
O O2 0.552453 0.142800 0.236497
O O3 0.500000 0.500000 0.500000
O O4 0.596421 0.406246 0.729367
O O5 0.647519 0.325582 0.652402
O O6 0.349081 0.321463 0.334060
O O7 0.315100 0.076177 0.615627
O O8 0.000000 0.080589 0.250000
O O9 0.154098 0.928246 0.394308
O O10 0.750000 0.750000 0.500000
O O11 0.000000 0.671117 0.750000
O O12 0.031516 0.695915 0.937741
O O13 0.817198 0.367041 0.741543
#
# Coordination Sequence:
#
# PCOD9298493 Si02
#       6
#     4   8   8   8   8   8
#     4  10  24  44  72 100 152 194 246 306 398 464
#     4  12  29  50  79 116 160 206 271 332 399 480
#     4  12  26  46  73 107 153 201 260 319 396 474
#     4  12  24  46  72 108 148 201 249 321 395 471
#     4  11  25  46  74 108 147 202 256 318 397 468
#     4  12  26  51  78 113 155 208 264 331 397 474
#
# _framework density 23.279353
#
# number of rings (size 3 to 8) (size 9 to 14) (size 15 to 20)
#    0.000    0.364    4.545    2.727    8.909    0.727 
#    3.273    0.000    0.000    0.000    0.000    0.000 
#    0.000    0.000    0.000    0.000    0.000    0.000 
#
# Total GULP energy -122544.882663 kJ/mol
# GULP energy per Si atom -5570.221939 kJ/mol
# Density = 2.322637 g / cm^3
# Si number density = 23.279353 Si / 1000 Ang^3
#
#
#
# Elastic Constant Matrix: (Units=GPa)
#
#
# Indices 1 2 3 4 5 6 
#
# 1 185.1470 34.1160 48.9247 -0.0009 23.1205 -0.0002
# 2 34.1160 101.0055 21.4875 -0.0015 15.3767 -0.0002
# 3 48.9247 21.4875 79.0798 -0.0018 9.0238 -0.0004
# 4 -0.0009 -0.0015 -0.0018 81.8514 -0.0012 -7.4324
# 5 23.1205 15.3767 9.0238 -0.0012 51.6873 -0.0003
# 6 -0.0002 -0.0002 -0.0004 -7.4324 -0.0003 29.5704
#
#
#
# Elastic Compliance Matrix: (Units=1/GPa)
#
#
# Indices 1 2 3 4 5 6 
#
# 1 0.006854 -0.001220 -0.003674 0.000000 -0.002062 0.000000
# 2 -0.001220 0.011102 -0.001987 0.000000 -0.002410 0.000000
# 3 -0.003674 -0.001987 0.015512 0.000000 -0.000474 0.000000
# 4 0.000000 0.000000 0.000000 0.012503 0.000000 0.003142
# 5 -0.002062 -0.002410 -0.000474 0.000000 0.021069 0.000000
# 6 0.000000 0.000000 0.000000 0.003142 0.000000 0.034607
#
#
# Mechanical properties :
#
#
# Convention : Reuss Voigt Hill
#
# Bulk Modulus (GPa) = 50.74208 63.80986 57.27597
# Shear Modulus (GPa) = 40.99108 50.00210 45.49659
#
# Velocity S-wave (km/s) = 4.20078 4.63959 4.42563
# Velocity P-wave (km/s) = 6.73596 7.49474 7.12545
#
# Compressibility (1/GPa) = 0.01970751
#
# Stress axis : x y z
#
# Youngs Moduli (GPa) = 145.89802 90.07338 64.46497
#
# Poissons Ratio (x) = 0.10986 0.23683
# Poissons Ratio (y) = 0.17795 0.12809
# Poissons Ratio (z) = 0.53600 0.17898
#
# Static dielectric constant tensor:
#      x y z
#    x 1.902880 0.000000 -0.077470 
#    y 0.000000 1.947650 0.000000 
#    z -0.077470 0.000000 1.913170 
# 
# From -- ./inp_files/219771.got.cif
#   From: 2010.05.17/outbox.cif.g08.bks.cpg/sg15_110_cif.got.tgz:219771.got - 2010.06.03 18:47:42.
