data_PCOD9298612
_publ_section_title
;
Structure prediction by ZEFSAII (Michael W. Deem and Ramdas Pophale) SiO2 
 PCOD9298612
Probable space group: C 2/C
;
_chemical_formula_sum "Si O2"
_cell_formula_units_Z 32
_cell_length_a 17.622398
_cell_length_b 7.508092
_cell_length_c 12.358512
_cell_angle_alpha 90.000000
_cell_angle_beta 129.809517
_cell_angle_gamma 90.000000
_cell_volume 1256.094116
_symmetry_space_group_name_H-M "C 2/C"
_symmetry_group_IT_number 15
_symmetry_cell_setting 'monoclinic'
loop_
_space_group_symop_operation_xyz
x,y,z
-x,y,1/2-z
-x,-y,-z
x,-y,1/2+z
1/2+x,1/2+y,z
1/2-x,1/2+y,1/2-z
1/2-x,1/2-y,-z
1/2+x,1/2-y,1/2+z
loop_
_atom_site_type_symbol
_atom_site_label
_atom_site_fract_x
_atom_site_fract_y
_atom_site_fract_z
Si Si1 0.294503 0.627378 0.946311
Si Si2 0.999526 0.217809 0.420980
Si Si3 0.192167 0.217538 0.145852
Si Si4 0.984177 0.612902 0.118915
O O1 0.262148 0.710122 0.801939
O O2 0.265045 0.421416 0.901276
O O3 0.250000 0.750000 0.000000
O O4 0.413797 0.626238 0.065138
O O5 0.978809 0.410055 0.348232
O O6 0.897023 0.127589 0.361932
O O7 0.038220 0.279583 0.574567
O O8 0.130107 0.369364 0.024745
O O9 0.000000 0.691956 0.250000
#
# Coordination Sequence:
#
# PCOD9298612 Si02
#       4
#     8   8   8   8
#     4  12  26  43  71 102 139 186 235 295 359 420
#     4   9  22  42  65  97 143 177 235 287 345 428
#     4  10  24  45  65 104 140 177 239 294 342 430
#     4   9  20  40  73  93 134 190 225 277 359 412
#
# _framework density 25.4758
#
# number of rings (size 3 to 8) (size 9 to 14) (size 15 to 20)
#    1.500    0.500    0.000    2.250    3.500    2.000 
#    0.000    3.750    0.000    0.000    0.000    0.000 
#    0.000    0.000    0.000    0.000    0.000    0.000 
#
# Total GULP energy -89217.354727 kJ/mol
# GULP energy per Si atom -5576.084670 kJ/mol
# Density = 2.541782 g / cm^3
# Si number density = 25.475800 Si / 1000 Ang^3
#
#
#
# Elastic Constant Matrix: (Units=GPa)
#
#
# Indices 1 2 3 4 5 6 
#
# 1 84.8590 11.2071 28.6183 0.0000 -2.9695 0.0000
# 2 11.2071 88.2879 3.5355 0.0000 -1.8537 0.0000
# 3 28.6183 3.5355 91.3117 0.0000 -5.7214 0.0000
# 4 0.0000 0.0000 0.0000 15.3892 0.0000 2.4279
# 5 -2.9695 -1.8537 -5.7214 0.0000 31.8421 0.0000
# 6 0.0000 0.0000 0.0000 2.4279 0.0000 39.1720
#
#
#
# Elastic Compliance Matrix: (Units=1/GPa)
#
#
# Indices 1 2 3 4 5 6 
#
# 1 0.013387 -0.001526 -0.004110 0.000000 0.000421 0.000000
# 2 -0.001526 0.011529 0.000066 0.000000 0.000541 0.000000
# 3 -0.004110 0.000066 0.012352 0.000000 0.001840 0.000000
# 4 0.000000 0.000000 0.000000 0.065622 0.000000 -0.004067
# 5 0.000421 0.000541 0.001840 0.000000 0.031806 0.000000
# 6 0.000000 0.000000 0.000000 -0.004067 0.000000 0.025781
#
#
# Mechanical properties :
#
#
# Convention : Reuss Voigt Hill
#
# Bulk Modulus (GPa) = 38.27374 39.02003 38.64689
# Shear Modulus (GPa) = 27.72746 32.02052 29.87399
#
# Velocity S-wave (km/s) = 3.30265 3.54912 3.42810
# Velocity P-wave (km/s) = 5.44054 5.66964 5.55627
#
# Compressibility (1/GPa) = 0.02612758
#
# Stress axis : x y z
#
# Youngs Moduli (GPa) = 74.70160 86.73788 80.95595
#
# Poissons Ratio (x) = 0.13235 0.33273
# Poissons Ratio (y) = 0.11398 -0.00532
# Poissons Ratio (z) = 0.30703 -0.00570
#
# Static dielectric constant tensor:
#      x y z
#    x 2.083270 0.000000 0.038830 
#    y 0.000000 2.073460 0.000000 
#    z 0.038830 0.000000 2.016190 
# 
# From -- ./inp_files/109865.got.cif
#   From: 2010.05.17/outbox.cif.g08.bks.cpg/sg15_55_cif.got.tgz:109865.got - 2010.06.03 18:47:42.
