data_PCOD9298223
_publ_section_title
;
Structure prediction by ZEFSAII (Michael W. Deem and Ramdas Pophale) SiO2 
 PCOD9298223
Probable space group: C 2/C
;
_chemical_formula_sum "Si O2"
_cell_formula_units_Z 40
_cell_length_a 10.259791
_cell_length_b 22.990328
_cell_length_c 7.981385
_cell_angle_alpha 90.000000
_cell_angle_beta 67.720958
_cell_angle_gamma 90.000000
_cell_volume 1742.076597
_symmetry_space_group_name_H-M "C 2/C"
_symmetry_group_IT_number 15
_symmetry_cell_setting 'monoclinic'
loop_
_space_group_symop_operation_xyz
x,y,z
-x,y,1/2-z
-x,-y,-z
x,-y,1/2+z
1/2+x,1/2+y,z
1/2-x,1/2+y,1/2-z
1/2-x,1/2-y,-z
1/2+x,1/2-y,1/2+z
loop_
_atom_site_type_symbol
_atom_site_label
_atom_site_fract_x
_atom_site_fract_y
_atom_site_fract_z
Si Si1 0.699831 0.842013 0.242864
Si Si2 0.500000 0.976255 0.750000
Si Si3 0.500000 0.463238 0.750000
Si Si4 0.426370 0.869428 0.553204
Si Si5 0.796450 0.954162 0.137370
Si Si6 0.660062 0.236302 0.207398
O O1 0.569081 0.835887 0.431729
O O2 0.782955 0.898383 0.265571
O O3 0.779488 0.781881 0.187252
O O4 0.650511 0.866892 0.087502
O O5 0.470182 0.931408 0.609820
O O6 0.355751 0.014768 0.829132
O O7 0.607381 0.434008 0.567198
O O8 0.608682 0.499726 0.810066
O O9 0.341714 0.829836 0.725930
O O10 0.500000 0.252498 0.250000
O O11 0.750000 0.250000 0.000000
#
# Coordination Sequence:
#
# PCOD9298223 Si02
#       6
#     8   4   4   8   8   8
#     4  11  24  42  68 101 137 176 228 285 343 405
#     4  12  22  44  77  98 135 184 240 280 332 412
#     4  10  24  44  59  98 147 174 224 274 354 410
#     4  11  23  43  69 104 133 173 235 290 333 399
#     4  11  24  43  68 100 137 185 224 284 341 412
#     4  12  24  47  69  96 136 180 229 280 344 411
#
# _framework density 22.961102
#
# number of rings (size 3 to 8) (size 9 to 14) (size 15 to 20)
#    0.000    0.800    3.000    4.200    1.400    2.400 
#    7.200    0.000    0.000    0.000    0.000    0.000 
#    0.000    0.000    0.000    0.000    0.000    0.000 
#
# Total GULP energy -111577.073053 kJ/mol
# GULP energy per Si atom -5578.853653 kJ/mol
# Density = 2.290884 g / cm^3
# Si number density = 22.961102 Si / 1000 Ang^3
#
#
#
# Elastic Constant Matrix: (Units=GPa)
#
#
# Indices 1 2 3 4 5 6 
#
# 1 94.3642 36.9134 33.0601 0.0000 -16.1608 0.0000
# 2 36.9134 105.1566 20.3129 0.0000 -10.4638 0.0000
# 3 33.0601 20.3129 108.2361 0.0000 -15.3068 0.0000
# 4 0.0000 0.0000 0.0000 46.5199 0.0000 54.3702
# 5 -16.1608 -10.4638 -15.3068 0.0000 44.9453 0.0000
# 6 0.0000 0.0000 0.0000 54.3702 0.0000 314.7782
#
#
#
# Elastic Compliance Matrix: (Units=1/GPa)
#
#
# Indices 1 2 3 4 5 6 
#
# 1 0.013706 -0.003930 -0.003027 0.000000 0.002982 0.000000
# 2 -0.003930 0.011127 -0.000758 0.000000 0.000919 0.000000
# 3 -0.003027 -0.000758 0.010639 0.000000 0.002359 0.000000
# 4 0.000000 0.000000 0.000000 0.026933 0.000000 -0.004652
# 5 0.002982 0.000919 0.002359 0.000000 0.024339 0.000000
# 6 0.000000 0.000000 0.000000 -0.004652 0.000000 0.003980
#
#
# Mechanical properties :
#
#
# Convention : Reuss Voigt Hill
#
# Bulk Modulus (GPa) = 49.89313 54.25883 52.07598
# Shear Modulus (GPa) = 44.31253 95.74672 70.02962
#
# Velocity S-wave (km/s) = 4.39782 6.46452 5.52860
# Velocity P-wave (km/s) = 6.89669 8.91079 7.96764
#
# Compressibility (1/GPa) = 0.02004284
#
# Stress axis : x y z
#
# Youngs Moduli (GPa) = 72.96223 89.87186 93.98984
#
# Poissons Ratio (x) = 0.35317 0.28451
# Poissons Ratio (y) = 0.28672 0.07124
# Poissons Ratio (z) = 0.22086 0.06811
#
# Static dielectric constant tensor:
#      x y z
#    x 1.974280 0.000000 0.018490 
#    y 0.000000 1.984190 0.000000 
#    z 0.018490 0.000000 1.941530 
# 
# From -- ./inp_files/31780.got.cif
#   From: 2010.05.17/outbox.cif.g08.bks.cpg/sg15_16_cif.got.tgz:31780.got - 2010.06.03 18:47:42.
