data_PCOD9298127
_publ_section_title
;
Structure prediction by ZEFSAII (Michael W. Deem and Ramdas Pophale) SiO2 
 PCOD9298127
Probable space group: C 2/C
;
_chemical_formula_sum "Si O2"
_cell_formula_units_Z 60
_cell_length_a 16.347658
_cell_length_b 7.657066
_cell_length_c 23.412851
_cell_angle_alpha 90.000000
_cell_angle_beta 105.820199
_cell_angle_gamma 90.000000
_cell_volume 2819.696437
_symmetry_space_group_name_H-M "C 2/C"
_symmetry_group_IT_number 15
_symmetry_cell_setting 'monoclinic'
loop_
_space_group_symop_operation_xyz
x,y,z
-x,y,1/2-z
-x,-y,-z
x,-y,1/2+z
1/2+x,1/2+y,z
1/2-x,1/2+y,1/2-z
1/2-x,1/2-y,-z
1/2+x,1/2-y,1/2+z
loop_
_atom_site_type_symbol
_atom_site_label
_atom_site_fract_x
_atom_site_fract_y
_atom_site_fract_z
Si Si1 0.851439 0.529066 0.119523
Si Si2 0.950865 0.388308 0.841038
Si Si3 0.660502 0.695305 0.457671
Si Si4 0.317083 0.073151 0.736490
Si Si5 0.000000 0.128571 0.750000
Si Si6 0.739406 0.376404 0.423356
Si Si7 0.321931 0.526470 0.205698
Si Si8 0.912189 0.415225 0.963439
O O1 0.844771 0.330677 0.095888
O O2 0.832742 0.543381 0.183437
O O3 0.788855 0.673477 0.078721
O O4 0.950834 0.565058 0.129088
O O5 0.890835 0.528595 0.796657
O O6 0.912706 0.358831 0.896947
O O7 0.962090 0.237548 0.795885
O O8 0.750000 0.750000 0.500000
O O9 0.669120 0.494432 0.442735
O O10 0.597898 0.750965 0.495985
O O11 0.318397 0.268135 0.713920
O O12 0.225451 0.045089 0.747226
O O13 0.080322 0.019614 0.785524
O O14 0.728557 0.443108 0.356446
O O15 0.833937 0.445828 0.457854
O O16 0.000000 0.500000 0.000000
#
# Coordination Sequence:
#
# PCOD9298127 Si02
#       8
#     8   8   8   8   4   8   8   8
#     4  12  23  44  73 103 138 186 230 291 352 416
#     4  12  23  42  69 100 141 180 228 291 351 416
#     4  10  24  43  69  97 134 183 233 284 344 405
#     4  12  25  43  71 104 141 185 226 289 358 419
#     4  12  26  42  68 106 142 174 232 282 352 434
#     4  11  23  45  73  98 137 183 239 285 348 420
#     4  12  25  42  69 107 140 183 232 281 355 428
#     4  11  24  44  70  96 136 183 234 292 349 417
#
# _framework density 21.278886
#
# number of rings (size 3 to 8) (size 9 to 14) (size 15 to 20)
#    0.000    0.533    6.667    1.600    1.867    2.133 
#    0.000    0.667    5.867    0.000    0.000    0.000 
#    0.000    0.000    0.000    0.000    0.000    0.000 
#
# Total GULP energy -167365.440775 kJ/mol
# GULP energy per Si atom -5578.848026 kJ/mol
# Density = 2.123045 g / cm^3
# Si number density = 21.278886 Si / 1000 Ang^3
#
#
#
# Elastic Constant Matrix: (Units=GPa)
#
#
# Indices 1 2 3 4 5 6 
#
# 1 107.0957 20.9702 23.2650 0.0000 -1.9961 0.0000
# 2 20.9702 77.6930 21.4276 0.0000 -4.5143 0.0000
# 3 23.2650 21.4276 103.4943 0.0000 -30.7139 0.0000
# 4 0.0000 0.0000 0.0000 -293.5617 0.0000 99.2503
# 5 -1.9961 -4.5143 -30.7139 0.0000 43.4009 0.0000
# 6 0.0000 0.0000 0.0000 99.2503 0.0000 3.2046
#
#
#
# Elastic Compliance Matrix: (Units=1/GPa)
#
#
# Indices 1 2 3 4 5 6 
#
# 1 0.010234 -0.002223 -0.002240 0.000000 -0.001345 0.000000
# 2 -0.002223 0.014152 -0.002562 0.000000 -0.000443 0.000000
# 3 -0.002240 -0.002562 0.013401 0.000000 0.009114 0.000000
# 4 0.000000 0.000000 0.000000 -0.000297 0.000000 0.009197
# 5 -0.001345 -0.000443 0.009114 0.000000 0.029383 0.000000
# 6 0.000000 0.000000 0.000000 0.009197 0.000000 0.027203
#
#
# Mechanical properties :
#
#
# Convention : Reuss Voigt Hill
#
# Bulk Modulus (GPa) = 42.12582 46.62318 44.37450
# Shear Modulus (GPa) = 43.08936 -34.54989 4.26973
#
# Velocity S-wave (km/s) = 4.50486 -4.03385 1.41807
# Velocity P-wave (km/s) = 6.84824 0.51202 4.85595
#
# Compressibility (1/GPa) = 0.02373841
#
# Stress axis : x y z
#
# Youngs Moduli (GPa) = 97.71215 70.66166 74.62109
#
# Poissons Ratio (x) = 0.15707 0.16713
# Poissons Ratio (y) = 0.21719 0.19117
# Poissons Ratio (z) = 0.21884 0.18103
#
# Static dielectric constant tensor:
#      x y z
#    x 2.024790 0.000000 0.097910 
#    y 0.000000 1.813930 0.000000 
#    z 0.097910 0.000000 1.808980 
# 
# From -- ./inp_files/272779.got.cif
#   From: 2010.05.17/outbox.cif.g08.bks.cpg/sg15_137_cif.got.tgz:272779.got - 2010.06.03 18:47:42.
