data_PCOD9298540
_publ_section_title
;
Structure prediction by ZEFSAII (Michael W. Deem and Ramdas Pophale) SiO2 
 PCOD9298540
Probable space group: C 2/C
;
_chemical_formula_sum "Si O2"
_cell_formula_units_Z 48
_cell_length_a 8.755191
_cell_length_b 30.687587
_cell_length_c 9.062659
_cell_angle_alpha 90.000000
_cell_angle_beta 88.321888
_cell_angle_gamma 90.000000
_cell_volume 2433.871833
_symmetry_space_group_name_H-M "C 2/C"
_symmetry_group_IT_number 15
_symmetry_cell_setting 'monoclinic'
loop_
_space_group_symop_operation_xyz
x,y,z
-x,y,1/2-z
-x,-y,-z
x,-y,1/2+z
1/2+x,1/2+y,z
1/2-x,1/2+y,1/2-z
1/2-x,1/2-y,-z
1/2+x,1/2-y,1/2+z
loop_
_atom_site_type_symbol
_atom_site_label
_atom_site_fract_x
_atom_site_fract_y
_atom_site_fract_z
Si Si1 0.791704 0.300455 0.502876
Si Si2 0.500000 0.844349 0.250000
Si Si3 0.404751 0.466553 0.104577
Si Si4 0.693317 0.114566 0.000355
Si Si5 0.610392 0.022245 0.112435
Si Si6 0.500000 0.835089 0.750000
Si Si7 0.465838 0.368887 0.075040
O O1 0.750000 0.250000 0.500000
O O2 0.645088 0.331832 0.484591
O O3 0.903711 0.314957 0.366148
O O4 0.880323 0.308833 0.653379
O O5 0.386094 0.873504 0.153384
O O6 0.500000 0.461995 0.250000
O O7 0.242328 0.487880 0.147014
O O8 0.393203 0.416931 0.046303
O O9 0.500000 0.500000 0.000000
O O10 0.865990 0.131279 0.999578
O O11 0.689241 0.063510 0.033947
O O12 0.594037 0.136482 0.130853
O O13 0.500000 0.035277 0.250000
O O14 0.500000 0.000000 0.000000
O O15 0.500000 0.363513 0.250000
#
# Coordination Sequence:
#
# PCOD9298540 Si02
#       7
#     8   4   8   8   8   4   8
#     4  11  26  46  73 102 136 177 227 284 353 418
#     4  10  24  44  73  96 138 176 225 282 342 422
#     4  11  24  42  62  94 130 173 225 278 325 396
#     4  11  23  45  66 101 137 182 229 281 347 411
#     4  12  27  40  64  98 139 183 231 280 340 405
#     4  10  26  44  67 104 138 168 225 290 344 406
#     4  11  24  43  71  97 134 182 233 277 344 415
#
# _framework density 19.721662999999999
#
# number of rings (size 3 to 8) (size 9 to 14) (size 15 to 20)
#    0.000    1.000    4.167    1.000    9.333    3.333 
#    0.000    3.333    0.000    0.000    0.000    0.000 
#    0.000    0.000    0.000    0.000    0.000    0.000 
#
# Total GULP energy -134164.144227 kJ/mol
# GULP energy per Si atom -5590.172676 kJ/mol
# Density = 1.967678 g / cm^3
# Si number density = 19.721663 Si / 1000 Ang^3
#
#
#
# Elastic Constant Matrix: (Units=GPa)
#
#
# Indices 1 2 3 4 5 6 
#
# 1 147.3364 72.3073 31.3780 0.0000 11.1711 0.0000
# 2 72.3073 156.1778 39.6279 0.0000 22.6362 0.0000
# 3 31.3780 39.6279 86.6492 0.0000 13.0449 0.0000
# 4 0.0000 0.0000 0.0000 13.8521 0.0000 1.2477
# 5 11.1711 22.6362 13.0449 0.0000 35.8238 0.0000
# 6 0.0000 0.0000 0.0000 1.2477 0.0000 29.5530
#
#
#
# Elastic Compliance Matrix: (Units=1/GPa)
#
#
# Indices 1 2 3 4 5 6 
#
# 1 0.008958 -0.003779 -0.001539 0.000000 0.000155 0.000000
# 2 -0.003779 0.009296 -0.002302 0.000000 -0.003857 0.000000
# 3 -0.001539 -0.002302 0.013605 0.000000 -0.003020 0.000000
# 4 0.000000 0.000000 0.000000 0.072467 0.000000 -0.003059
# 5 0.000155 -0.003857 -0.003020 0.000000 0.031403 0.000000
# 6 0.000000 0.000000 0.000000 -0.003059 0.000000 0.033967
#
#
# Mechanical properties :
#
#
# Convention : Reuss Voigt Hill
#
# Bulk Modulus (GPa) = 60.17280 75.19887 67.68584
# Shear Modulus (GPa) = 26.25010 32.30248 29.27629
#
# Velocity S-wave (km/s) = 3.65228 4.05151 3.85707
# Velocity P-wave (km/s) = 6.95434 7.75237 7.36417
#
# Compressibility (1/GPa) = 0.01661880
#
# Stress axis : x y z
#
# Youngs Moduli (GPa) = 111.63306 107.57455 73.49979
#
# Poissons Ratio (x) = 0.40656 0.11310
# Poissons Ratio (y) = 0.42190 0.16920
# Poissons Ratio (z) = 0.17178 0.24764
#
# Static dielectric constant tensor:
#      x y z
#    x 1.629040 0.000000 0.046150 
#    y 0.000000 1.698590 0.000000 
#    z 0.046150 0.000000 1.620880 
# 
# From -- ./inp_files/26167.got.cif
#   From: 2010.05.17/outbox.cif.g08.bks.cpg/sg15_14_cif.got.tgz:26167.got - 2010.06.03 18:47:42.
