data_PCOD9298046
_publ_section_title
;
Structure prediction by ZEFSAII (Michael W. Deem and Ramdas Pophale) SiO2 
 PCOD9298046
Probable space group: C 2/C
;
_chemical_formula_sum "Si O2"
_cell_formula_units_Z 56
_cell_length_a 14.407387
_cell_length_b 11.352397
_cell_length_c 19.391569
_cell_angle_alpha 90.000000
_cell_angle_beta 65.270157
_cell_angle_gamma 90.000000
_cell_volume 2880.782488
_symmetry_space_group_name_H-M "C 2/C"
_symmetry_group_IT_number 15
_symmetry_cell_setting 'monoclinic'
loop_
_space_group_symop_operation_xyz
x,y,z
-x,y,1/2-z
-x,-y,-z
x,-y,1/2+z
1/2+x,1/2+y,z
1/2-x,1/2+y,1/2-z
1/2-x,1/2-y,-z
1/2+x,1/2-y,1/2+z
loop_
_atom_site_type_symbol
_atom_site_label
_atom_site_fract_x
_atom_site_fract_y
_atom_site_fract_z
Si Si1 0.721232 0.778586 0.931449
Si Si2 0.836795 0.765023 0.530669
Si Si3 0.607059 0.988775 0.428425
Si Si4 0.892188 0.210891 0.264035
Si Si5 0.039512 0.892468 0.439617
Si Si6 0.190724 0.940650 0.832448
Si Si7 0.411996 0.024913 0.725973
O O1 0.819354 0.764051 0.851597
O O2 0.627895 0.691096 0.942674
O O3 0.682832 0.911976 0.933674
O O4 0.750000 0.750000 0.000000
O O5 0.750000 0.750000 0.500000
O O6 0.853006 0.641978 0.566113
O O7 0.812879 0.862675 0.596783
O O8 0.940791 0.810016 0.460866
O O9 0.588451 0.014039 0.353257
O O10 0.500000 0.000000 0.500000
O O11 0.829022 0.139093 0.227764
O O12 0.923942 0.334312 0.220003
O O13 0.000000 0.151116 0.250000
O O14 0.100525 0.962024 0.361348
O O15 0.000000 0.000000 0.500000
O O16 0.301631 0.997390 0.791741
O O17 0.500000 0.978182 0.750000
#
# Coordination Sequence:
#
# PCOD9298046 Si02
#       7
#     8   8   8   8   8   8   8
#     4  12  27  42  71 103 135 177 229 276 346 407
#     4  11  26  43  68  99 138 181 223 278 343 396
#     4  12  26  43  68 101 140 172 231 285 331 411
#     4  11  25  43  68  98 135 179 224 280 338 395
#     4  10  24  43  66  93 135 177 220 269 334 402
#     4  11  23  46  67  95 140 177 231 274 336 409
#     4  11  25  43  69  97 138 182 221 280 343 396
#
# _framework density 19.439163000000001
#
# number of rings (size 3 to 8) (size 9 to 14) (size 15 to 20)
#    0.000    0.857    5.714    0.000   14.000    0.000 
#    0.000    0.000    0.000    0.000    0.000    0.000 
#    0.000    0.000    0.000    0.000    0.000    0.000 
#
# Total GULP energy -156295.567821 kJ/mol
# GULP energy per Si atom -5581.984565 kJ/mol
# Density = 1.939492 g / cm^3
# Si number density = 19.439163 Si / 1000 Ang^3
#
#
#
# Elastic Constant Matrix: (Units=GPa)
#
#
# Indices 1 2 3 4 5 6 
#
# 1 133.8180 27.1032 61.6128 0.0000 2.4437 0.0000
# 2 27.1032 75.0872 18.2486 0.0000 6.8889 0.0000
# 3 61.6128 18.2486 123.1572 0.0000 3.3838 0.0000
# 4 0.0000 0.0000 0.0000 23.8331 0.0000 -9.4402
# 5 2.4437 6.8889 3.3838 0.0000 39.1562 0.0000
# 6 0.0000 0.0000 0.0000 -9.4402 0.0000 29.9264
#
#
#
# Elastic Compliance Matrix: (Units=1/GPa)
#
#
# Indices 1 2 3 4 5 6 
#
# 1 0.010151 -0.002540 -0.004708 0.000000 0.000220 0.000000
# 2 -0.002540 0.014653 -0.000836 0.000000 -0.002347 0.000000
# 3 -0.004708 -0.000836 0.010612 0.000000 -0.000476 0.000000
# 4 0.000000 0.000000 0.000000 0.047950 0.000000 0.015126
# 5 0.000220 -0.002347 -0.000476 0.000000 0.025979 0.000000
# 6 0.000000 0.000000 0.000000 0.015126 0.000000 0.038187
#
#
# Mechanical properties :
#
#
# Convention : Reuss Voigt Hill
#
# Bulk Modulus (GPa) = 51.95327 60.66574 56.30950
# Shear Modulus (GPa) = 29.39181 33.58968 31.49074
#
# Velocity S-wave (km/s) = 3.89265 4.16136 4.02924
# Velocity P-wave (km/s) = 6.85476 7.37326 7.11873
#
# Compressibility (1/GPa) = 0.01924807
#
# Stress axis : x y z
#
# Youngs Moduli (GPa) = 98.51324 68.24443 94.23337
#
# Poissons Ratio (x) = 0.17334 0.44365
# Poissons Ratio (y) = 0.25023 0.07878
# Poissons Ratio (z) = 0.46380 0.05705
#
# Static dielectric constant tensor:
#      x y z
#    x 1.686810 0.000000 -0.003560 
#    y 0.000000 1.701240 0.000000 
#    z -0.003560 0.000000 1.674580 
# 
# From -- ./inp_files/204342.got.cif
#   From: 2010.05.17/outbox.cif.g08.bks.cpg/sg15_103_cif.got.tgz:204342.got - 2010.06.03 18:47:42.
