data_PCOD9298220
_publ_section_title
;
Structure prediction by ZEFSAII (Michael W. Deem and Ramdas Pophale) SiO2 
 PCOD9298220
Probable space group: C 2/C
;
_chemical_formula_sum "Si O2"
_cell_formula_units_Z 44
_cell_length_a 9.462873
_cell_length_b 10.386133
_cell_length_c 30.023376
_cell_angle_alpha 90.000000
_cell_angle_beta 41.852600
_cell_angle_gamma 90.000000
_cell_volume 1968.807425
_symmetry_space_group_name_H-M "C 2/C"
_symmetry_group_IT_number 15
_symmetry_cell_setting 'monoclinic'
loop_
_space_group_symop_operation_xyz
x,y,z
-x,y,1/2-z
-x,-y,-z
x,-y,1/2+z
1/2+x,1/2+y,z
1/2-x,1/2+y,1/2-z
1/2-x,1/2-y,-z
1/2+x,1/2-y,1/2+z
loop_
_atom_site_type_symbol
_atom_site_label
_atom_site_fract_x
_atom_site_fract_y
_atom_site_fract_z
Si Si1 0.928682 0.525654 0.183958
Si Si2 0.729666 0.825594 0.148859
Si Si3 0.477925 0.211614 0.013929
Si Si4 0.403555 0.296201 0.371338
Si Si5 0.029328 0.544893 0.925932
Si Si6 0.000000 0.092299 0.250000
O O1 0.009726 0.483604 0.115885
O O2 0.675376 0.518911 0.237981
O O3 0.043412 0.428704 0.189918
O O4 0.995963 0.673493 0.176924
O O5 0.837063 0.807728 0.075253
O O6 0.632745 0.689103 0.187093
O O7 0.915347 0.856603 0.140272
O O8 0.496497 0.086605 0.041085
O O9 0.714726 0.258889 0.947473
O O10 0.401067 0.151692 0.984665
O O11 0.269588 0.398652 0.374367
#
# Coordination Sequence:
#
# PCOD9298220 Si02
#       6
#     8   8   8   8   8   4
#     4  11  23  41  64  87 116 164 202 255 295 358
#     4  11  22  40  65  87 118 162 205 247 300 353
#     4   9  18  37  65  92 127 158 183 246 314 364
#     4   9  20  39  60  93 123 151 190 243 305 368
#     4   9  19  37  62  89 128 157 182 240 314 351
#     4  10  24  44  56  80 124 164 208 248 298 344
#
# _framework density 22.348555999999999
#
# number of rings (size 3 to 8) (size 9 to 14) (size 15 to 20)
#    1.091    1.091    3.636    0.545    0.000    4.364 
#    3.273    0.000    0.000    0.000    0.000    0.000 
#    0.000    0.000    0.000    0.000    0.000    0.000 
#
# Total GULP energy -122645.375885 kJ/mol
# GULP energy per Si atom -5574.789813 kJ/mol
# Density = 2.229769 g / cm^3
# Si number density = 22.348556 Si / 1000 Ang^3
#
#
#
# Elastic Constant Matrix: (Units=GPa)
#
#
# Indices 1 2 3 4 5 6 
#
# 1 -19.2862 43.4865 8.6023 -0.0001 -16.8606 0.0000
# 2 43.4865 57.3821 -8.8544 0.0000 -17.0890 0.0000
# 3 8.6023 -8.8544 63.2436 0.0002 -8.6933 0.0000
# 4 -0.0001 0.0000 0.0002 16.6815 -0.0001 -20.6523
# 5 -16.8606 -17.0890 -8.6933 -0.0001 37.0302 0.0000
# 6 0.0000 0.0000 0.0000 -20.6523 0.0000 38.8502
#
#
#
# Elastic Compliance Matrix: (Units=1/GPa)
#
#
# Indices 1 2 3 4 5 6 
#
# 1 -0.017834 0.013981 0.004292 0.000000 -0.000660 0.000000
# 2 0.013981 0.010411 0.001128 0.000000 0.011435 0.000000
# 3 0.004292 0.001128 0.016251 0.000000 0.006290 0.000000
# 4 0.000000 0.000000 0.000000 0.175348 0.000000 0.093213
# 5 -0.000660 0.011435 0.006290 0.000000 0.033458 0.000000
# 6 0.000000 0.000000 0.000000 0.093213 0.000000 0.075291
#
#
# Mechanical properties :
#
#
# Convention : Reuss Voigt Hill
#
# Bulk Modulus (GPa) = 20.99513 20.86757 20.93135
# Shear Modulus (GPa) = 18.51865 22.38607 20.45236
#
# Velocity S-wave (km/s) = 2.88171 3.16836 3.02843
# Velocity P-wave (km/s) = 4.52627 4.76889 4.64916
#
# Compressibility (1/GPa) = 0.04763009
#
# Stress axis : x y z
#
# Youngs Moduli (GPa) = -56.07221 96.05051 61.53646
#
# Poissons Ratio (x) = -1.34289 -0.26414
# Poissons Ratio (y) = 0.78395 -0.06940
# Poissons Ratio (z) = 0.24068 -0.10833
#
# Static dielectric constant tensor:
#      x y z
#    x 1.810300 0.000000 -0.000340 
#    y 0.000000 1.802620 0.000000 
#    z -0.000340 0.000000 1.885210 
# 
# From -- ./inp_files/307032.got.cif
#   From: 2010.05.17/outbox.cif.g08.bks.cpg/sg15_154_cif.got.tgz:307032.got - 2010.06.03 18:47:42.
