data_PCOD9298477
_publ_section_title
;
Structure prediction by ZEFSAII (Michael W. Deem and Ramdas Pophale) SiO2 
 PCOD9298477
Probable space group: C 2/C
;
_chemical_formula_sum "Si O2"
_cell_formula_units_Z 40
_cell_length_a 12.151448
_cell_length_b 9.118548
_cell_length_c 14.497370
_cell_angle_alpha 90.000000
_cell_angle_beta 91.475930
_cell_angle_gamma 90.000000
_cell_volume 1605.827297
_symmetry_space_group_name_H-M "C 2/C"
_symmetry_group_IT_number 15
_symmetry_cell_setting 'monoclinic'
loop_
_space_group_symop_operation_xyz
x,y,z
-x,y,1/2-z
-x,-y,-z
x,-y,1/2+z
1/2+x,1/2+y,z
1/2-x,1/2+y,1/2-z
1/2-x,1/2-y,-z
1/2+x,1/2-y,1/2+z
loop_
_atom_site_type_symbol
_atom_site_label
_atom_site_fract_x
_atom_site_fract_y
_atom_site_fract_z
Si Si1 0.885479 0.998587 0.445327
Si Si2 0.799088 0.509936 0.791005
Si Si3 0.571101 0.175695 0.553893
Si Si4 0.348219 0.058709 0.576454
Si Si5 0.379790 0.699603 0.768661
O O1 0.867416 0.172022 0.430809
O O2 0.769549 0.932465 0.477158
O O3 0.904263 0.911826 0.351740
O O4 0.000000 0.000000 0.500000
O O5 0.889160 0.570645 0.862949
O O6 0.828267 0.548187 0.685171
O O7 0.684999 0.597607 0.806194
O O8 0.800868 0.334351 0.794476
O O9 0.600710 0.093754 0.459979
O O10 0.438551 0.181554 0.555897
O O11 0.500000 0.763567 0.750000
#
# Coordination Sequence:
#
# PCOD9298477 Si02
#       5
#     8   8   8   8   8
#     4  11  27  43  66 105 143 178 234 287 344 421
#     4  11  24  46  73 103 140 176 239 286 346 419
#     4  11  24  43  76  97 138 186 226 293 348 409
#     4  10  24  44  71 102 132 184 233 280 355 408
#     4  11  26  44  72 102 138 188 227 289 355 409
#
# _framework density 24.909279999999999
#
# number of rings (size 3 to 8) (size 9 to 14) (size 15 to 20)
#    0.000    1.200    0.000    4.800   11.200    5.600 
#    0.000    1.000    0.000    0.000    0.000    0.000 
#    0.000    0.000    0.000    0.000    0.000    0.000 
#
# Total GULP energy -111881.883537 kJ/mol
# GULP energy per Si atom -5594.094177 kJ/mol
# Density = 2.485258 g / cm^3
# Si number density = 24.909280 Si / 1000 Ang^3
#
#
#
# Elastic Constant Matrix: (Units=GPa)
#
#
# Indices 1 2 3 4 5 6 
#
# 1 156.2723 29.6202 34.1302 0.0000 36.1808 0.0000
# 2 29.6202 123.0213 7.3717 0.0000 17.2123 0.0000
# 3 34.1302 7.3717 62.4603 0.0000 18.1478 0.0000
# 4 0.0000 0.0000 0.0000 26.3375 0.0000 13.3929
# 5 36.1808 17.2123 18.1478 0.0000 43.2585 0.0000
# 6 0.0000 0.0000 0.0000 13.3929 0.0000 37.3018
#
#
#
# Elastic Compliance Matrix: (Units=1/GPa)
#
#
# Indices 1 2 3 4 5 6 
#
# 1 0.008512 -0.001112 -0.002938 0.000000 -0.005444 0.000000
# 2 -0.001112 0.008753 0.000360 0.000000 -0.002704 0.000000
# 3 -0.002938 0.000360 0.019247 0.000000 -0.005760 0.000000
# 4 0.000000 0.000000 0.000000 0.046449 0.000000 -0.016677
# 5 -0.005444 -0.002704 -0.005760 0.000000 0.031163 0.000000
# 6 0.000000 0.000000 0.000000 -0.016677 0.000000 0.032796
#
#
# Mechanical properties :
#
#
# Convention : Reuss Voigt Hill
#
# Bulk Modulus (GPa) = 34.32610 53.77757 44.05183
# Shear Modulus (GPa) = 30.48585 39.42169 34.95377
#
# Velocity S-wave (km/s) = 3.50219 3.98252 3.75005
# Velocity P-wave (km/s) = 5.49219 6.54091 6.03936
#
# Compressibility (1/GPa) = 0.02913235
#
# Stress axis : x y z
#
# Youngs Moduli (GPa) = 117.48127 114.24540 51.95668
#
# Poissons Ratio (x) = 0.12700 0.15266
# Poissons Ratio (y) = 0.13060 -0.01871
# Poissons Ratio (z) = 0.34518 -0.04113
#
# Static dielectric constant tensor:
#      x y z
#    x 2.067670 0.000000 -0.004580 
#    y 0.000000 2.034910 0.000000 
#    z -0.004580 0.000000 1.946050 
# 
# From -- ./inp_files/195250.got.cif
#   From: 2010.05.17/outbox.cif.g08.bks.cpg/sg15_98_cif.got.tgz:195250.got - 2010.06.03 18:47:42.
