data_PCOD9298628
_publ_section_title
;
Structure prediction by ZEFSAII (Michael W. Deem and Ramdas Pophale) SiO2 
 PCOD9298628
Probable space group: C 2/C
;
_chemical_formula_sum "Si O2"
_cell_formula_units_Z 56
_cell_length_a 16.248921
_cell_length_b 16.547223
_cell_length_c 25.766771
_cell_angle_alpha 90.000000
_cell_angle_beta 158.898932
_cell_angle_gamma 90.000000
_cell_volume 2494.188507
_symmetry_space_group_name_H-M "C 2/C"
_symmetry_group_IT_number 15
_symmetry_cell_setting 'monoclinic'
loop_
_space_group_symop_operation_xyz
x,y,z
-x,y,1/2-z
-x,-y,-z
x,-y,1/2+z
1/2+x,1/2+y,z
1/2-x,1/2+y,1/2-z
1/2-x,1/2-y,-z
1/2+x,1/2-y,1/2+z
loop_
_atom_site_type_symbol
_atom_site_label
_atom_site_fract_x
_atom_site_fract_y
_atom_site_fract_z
Si Si1 0.491046 0.185011 0.174676
Si Si2 0.958201 0.215513 0.088569
Si Si3 0.674677 0.407576 0.558033
Si Si4 0.093528 0.633586 0.125835
Si Si5 0.849364 0.424983 0.116108
Si Si6 0.708838 0.957718 0.240937
Si Si7 0.313161 0.829587 0.359911
O O1 0.693376 0.121381 0.312568
O O2 0.263086 0.163355 0.071823
O O3 0.457508 0.170034 0.094616
O O4 0.601238 0.271962 0.249359
O O5 0.192701 0.195013 0.256466
O O6 0.020007 0.272180 0.076481
O O7 0.750000 0.250000 0.000000
O O8 0.871641 0.128880 0.019222
O O9 0.785823 0.487375 0.599414
O O10 0.410655 0.432999 0.400628
O O11 0.175505 0.545512 0.194796
O O12 0.941677 0.634287 0.985118
O O13 0.000000 0.385216 0.250000
O O14 0.982290 0.434900 0.140175
O O15 0.756308 0.899281 0.220575
#
# Coordination Sequence:
#
# PCOD9298628 Si02
#       7
#     8   8   8   8   8   8   8
#     4  10  24  45  67 100 139 175 229 287 344 404
#     4  11  25  43  66 102 137 178 226 288 352 400
#     4  11  23  46  68 103 133 178 232 285 341 405
#     4  11  24  45  70 100 139 179 232 281 342 422
#     4  12  24  41  70 104 132 176 228 289 351 399
#     4  12  25  45  73  98 140 184 234 284 340 424
#     4  11  27  44  69 103 138 190 222 284 351 415
#
# _framework density 22.452192
#
# number of rings (size 3 to 8) (size 9 to 14) (size 15 to 20)
#    0.000    0.857    5.714    0.429   10.000    1.714 
#    2.571    0.000    0.000    0.000    0.000    0.000 
#    0.000    0.000    0.000    0.000    0.000    0.000 
#
# Total GULP energy -156438.758250 kJ/mol
# GULP energy per Si atom -5587.098509 kJ/mol
# Density = 2.240109 g / cm^3
# Si number density = 22.452192 Si / 1000 Ang^3
#
#
#
# Elastic Constant Matrix: (Units=GPa)
#
#
# Indices 1 2 3 4 5 6 
#
# 1 62.9406 17.4707 7.5877 -0.0040 -4.6671 -0.0043
# 2 17.4707 102.8938 13.2788 -0.0005 -5.5763 0.0021
# 3 7.5877 13.2788 57.4051 -0.0077 -16.7847 -0.0070
# 4 -0.0040 -0.0005 -0.0077 36.8021 0.0082 -1.9635
# 5 -4.6671 -5.5763 -16.7847 0.0082 40.7024 0.0007
# 6 -0.0043 0.0021 -0.0070 -1.9635 0.0007 32.4499
#
#
#
# Elastic Compliance Matrix: (Units=1/GPa)
#
#
# Indices 1 2 3 4 5 6 
#
# 1 0.016855 -0.002636 -0.001317 0.000001 0.001028 0.000002
# 2 -0.002636 0.010438 -0.001974 -0.000001 0.000314 -0.000002
# 3 -0.001317 -0.001974 0.020386 0.000003 0.007985 0.000004
# 4 0.000001 -0.000001 0.000003 0.027260 -0.000004 0.001650
# 5 0.001028 0.000314 0.007985 -0.000004 0.028022 0.000001
# 6 0.000002 -0.000002 0.000004 0.001650 0.000001 0.030917
#
#
# Mechanical properties :
#
#
# Convention : Reuss Voigt Hill
#
# Bulk Modulus (GPa) = 27.91524 33.32377 30.61951
# Shear Modulus (GPa) = 31.71091 34.31770 33.01431
#
# Velocity S-wave (km/s) = 3.76223 3.91382 3.83877
# Velocity P-wave (km/s) = 5.59756 5.94124 5.77196
#
# Compressibility (1/GPa) = 0.03582272
#
# Stress axis : x y z
#
# Youngs Moduli (GPa) = 59.33039 95.80243 49.05418
#
# Poissons Ratio (x) = 0.25254 0.06462
# Poissons Ratio (y) = 0.15640 0.09685
# Poissons Ratio (z) = 0.07816 0.18915
#
# Static dielectric constant tensor:
#      x y z
#    x 1.809500 0.000000 0.013570 
#    y 0.000000 1.887380 0.000000 
#    z 0.013570 0.000000 1.890590 
# 
# From -- ./inp_files/299360.got.cif
#   From: 2010.05.17/outbox.cif.g08.bks.cpg/sg15_150_cif.got.tgz:299360.got - 2010.06.03 18:47:42.
