data_PCOD9298672
_publ_section_title
;
Structure prediction by ZEFSAII (Michael W. Deem and Ramdas Pophale) SiO2 
 PCOD9298672
Probable space group: C 2/C
;
_chemical_formula_sum "Si O2"
_cell_formula_units_Z 44
_cell_length_a 18.912490
_cell_length_b 10.429606
_cell_length_c 8.982759
_cell_angle_alpha 90.000000
_cell_angle_beta 97.293614
_cell_angle_gamma 90.000000
_cell_volume 1757.510858
_symmetry_space_group_name_H-M "C 2/C"
_symmetry_group_IT_number 15
_symmetry_cell_setting 'monoclinic'
loop_
_space_group_symop_operation_xyz
x,y,z
-x,y,1/2-z
-x,-y,-z
x,-y,1/2+z
1/2+x,1/2+y,z
1/2-x,1/2+y,1/2-z
1/2-x,1/2-y,-z
1/2+x,1/2-y,1/2+z
loop_
_atom_site_type_symbol
_atom_site_label
_atom_site_fract_x
_atom_site_fract_y
_atom_site_fract_z
Si Si1 0.653668 0.999466 0.768502
Si Si2 0.248825 0.003765 0.951057
Si Si3 0.154006 0.935693 0.178788
Si Si4 0.500000 0.082373 0.250000
Si Si5 0.970105 0.215434 0.992237
Si Si6 0.612232 0.719269 0.215522
O O1 0.657995 0.150859 0.726937
O O2 0.692230 0.934696 0.637739
O O3 0.571813 0.993500 0.795091
O O4 0.698301 0.938307 0.913195
O O5 0.196590 0.096510 0.841909
O O6 0.200574 0.912740 0.043487
O O7 0.154580 0.088916 0.203223
O O8 0.074445 0.884532 0.124774
O O9 0.476776 0.162976 0.387206
O O10 0.926382 0.218890 0.133823
O O11 0.051018 0.203838 0.072562
#
# Coordination Sequence:
#
# PCOD9298672 Si02
#       6
#     8   8   8   4   8   8
#     4  11  24  47  71 106 133 187 241 287 358 404
#     4  10  24  45  69 100 146 182 228 287 346 435
#     4  11  23  46  66 105 143 183 231 282 360 420
#     4  12  26  46  74 100 140 178 244 300 340 412
#     4  11  25  42  69 105 137 188 229 293 346 408
#     4  11  24  43  73 100 141 186 235 294 340 419
#
# _framework density 25.035405000000001
#
# number of rings (size 3 to 8) (size 9 to 14) (size 15 to 20)
#    0.000    1.091    1.818    3.818    2.545    5.091 
#   13.091    0.000    0.000    0.000    0.000    0.000 
#    0.000    0.000    0.000    0.000    0.000    0.000 
#
# Total GULP energy -122568.062182 kJ/mol
# GULP energy per Si atom -5571.275554 kJ/mol
# Density = 2.497842 g / cm^3
# Si number density = 25.035405 Si / 1000 Ang^3
#
#
#
# Elastic Constant Matrix: (Units=GPa)
#
#
# Indices 1 2 3 4 5 6 
#
# 1 77.8083 36.2495 48.6588 0.0000 16.2717 0.0000
# 2 36.2495 87.9244 19.7603 0.0000 18.0591 0.0000
# 3 48.6588 19.7603 127.9012 0.0000 7.8583 0.0000
# 4 0.0000 0.0000 0.0000 4.6920 0.0000 1.9041
# 5 16.2717 18.0591 7.8583 0.0000 37.4604 0.0000
# 6 0.0000 0.0000 0.0000 1.9041 0.0000 15.4656
#
#
#
# Elastic Compliance Matrix: (Units=1/GPa)
#
#
# Indices 1 2 3 4 5 6 
#
# 1 0.020894 -0.006139 -0.006711 0.000000 -0.004708 0.000000
# 2 -0.006139 0.014757 0.000333 0.000000 -0.004518 0.000000
# 3 -0.006711 0.000333 0.010284 0.000000 0.000597 0.000000
# 4 0.000000 0.000000 0.000000 0.224336 0.000000 -0.027620
# 5 -0.004708 -0.004518 0.000597 0.000000 0.030793 0.000000
# 6 0.000000 0.000000 0.000000 -0.027620 0.000000 0.068060
#
#
# Mechanical properties :
#
#
# Convention : Reuss Voigt Hill
#
# Bulk Modulus (GPa) = 47.84469 55.88566 51.86518
# Shear Modulus (GPa) = 12.46499 24.12129 18.29314
#
# Velocity S-wave (km/s) = 2.23378 3.10738 2.70606
# Velocity P-wave (km/s) = 5.07989 5.93679 5.52498
#
# Compressibility (1/GPa) = 0.02090096
#
# Stress axis : x y z
#
# Youngs Moduli (GPa) = 47.86176 67.76293 97.24271
#
# Poissons Ratio (x) = 0.41597 0.65260
# Poissons Ratio (y) = 0.29381 -0.03238
# Poissons Ratio (z) = 0.32120 -0.02257
#
# Static dielectric constant tensor:
#      x y z
#    x 2.122790 0.000000 0.194130 
#    y 0.000000 2.053070 0.000000 
#    z 0.194130 0.000000 2.135840 
# 
# From -- ./inp_files/54502.got.cif
#   From: 2010.05.17/outbox.cif.g08.bks.cpg/sg15_28_cif.got.tgz:54502.got - 2010.06.03 18:47:42.
