data_PCOD9298153
_publ_section_title
;
Structure prediction by ZEFSAII (Michael W. Deem and Ramdas Pophale) SiO2 
 PCOD9298153
Probable space group: C 2/C
;
_chemical_formula_sum "Si O2"
_cell_formula_units_Z 36
_cell_length_a 15.889346
_cell_length_b 13.118682
_cell_length_c 6.939671
_cell_angle_alpha 90.000000
_cell_angle_beta 71.974829
_cell_angle_gamma 90.000000
_cell_volume 1375.559547
_symmetry_space_group_name_H-M "C 2/C"
_symmetry_group_IT_number 15
_symmetry_cell_setting 'monoclinic'
loop_
_space_group_symop_operation_xyz
x,y,z
-x,y,1/2-z
-x,-y,-z
x,-y,1/2+z
1/2+x,1/2+y,z
1/2-x,1/2+y,1/2-z
1/2-x,1/2-y,-z
1/2+x,1/2-y,1/2+z
loop_
_atom_site_type_symbol
_atom_site_label
_atom_site_fract_x
_atom_site_fract_y
_atom_site_fract_z
Si Si1 0.603445 0.896539 0.224438
Si Si2 0.438394 0.745382 0.942629
Si Si3 0.208265 0.573980 0.296385
Si Si4 0.000000 0.094487 0.250000
Si Si5 0.655950 0.570922 0.597760
O O1 0.500000 0.888332 0.250000
O O2 0.617564 0.826487 0.399275
O O3 0.630548 0.012624 0.246887
O O4 0.665506 0.865102 0.001305
O O5 0.500000 0.806837 0.750000
O O6 0.397792 0.669807 0.809424
O O7 0.471320 0.667074 0.091042
O O8 0.271385 0.481263 0.323712
O O9 0.281868 0.623199 0.111010
O O10 0.918431 0.019545 0.373849
#
# Coordination Sequence:
#
# PCOD9298153 Si02
#       5
#     8   8   8   4   8
#     4  11  25  47  68  98 138 185 240 291 340 410
#     4  12  25  41  73 110 138 183 234 279 345 424
#     4  10  24  43  70  99 134 188 231 284 347 406
#     4  12  22  46  74 104 150 182 216 290 348 428
#     4  11  21  43  71 104 139 179 228 277 357 414
#
# _framework density 26.171168000000002
#
# number of rings (size 3 to 8) (size 9 to 14) (size 15 to 20)
#    0.000    0.889    4.444    2.667    0.000    6.222 
#    0.000    0.000    0.000    0.000    0.000    0.000 
#    0.000    0.000    0.000    0.000    0.000    0.000 
#
# Total GULP energy -100342.586335 kJ/mol
# GULP energy per Si atom -5574.588130 kJ/mol
# Density = 2.611160 g / cm^3
# Si number density = 26.171168 Si / 1000 Ang^3
#
#
#
# Elastic Constant Matrix: (Units=GPa)
#
#
# Indices 1 2 3 4 5 6 
#
# 1 100.0090 40.7706 4.0935 0.0000 -16.8928 0.0000
# 2 40.7706 83.6920 30.2225 0.0000 -11.7794 0.0000
# 3 4.0935 30.2225 146.5232 0.0000 -32.0072 0.0000
# 4 0.0000 0.0000 0.0000 42.0346 0.0000 18.9005
# 5 -16.8928 -11.7794 -32.0072 0.0000 26.6509 0.0000
# 6 0.0000 0.0000 0.0000 18.9005 0.0000 30.5976
#
#
#
# Elastic Compliance Matrix: (Units=1/GPa)
#
#
# Indices 1 2 3 4 5 6 
#
# 1 0.014262 -0.006694 0.003133 0.000000 0.009844 0.000000
# 2 -0.006694 0.016283 -0.003425 0.000000 -0.001159 0.000000
# 3 0.003133 -0.003425 0.010231 0.000000 0.012759 0.000000
# 4 0.000000 0.000000 0.000000 0.032939 0.000000 -0.020347
# 5 0.009844 -0.001159 0.012759 0.000000 0.058573 0.000000
# 6 0.000000 0.000000 0.000000 -0.020347 0.000000 0.045251
#
#
# Mechanical properties :
#
#
# Convention : Reuss Voigt Hill
#
# Bulk Modulus (GPa) = 37.30701 53.37747 45.34224
# Shear Modulus (GPa) = 24.94448 36.86579 30.90513
#
# Velocity S-wave (km/s) = 3.09063 3.75726 3.44013
# Velocity P-wave (km/s) = 5.19826 6.26598 5.75693
#
# Compressibility (1/GPa) = 0.02680461
#
# Stress axis : x y z
#
# Youngs Moduli (GPa) = 70.11408 61.41364 97.74318
#
# Poissons Ratio (x) = 0.41108 -0.30619
# Poissons Ratio (y) = 0.46932 0.33475
# Poissons Ratio (z) = -0.21964 0.21033
#
# Static dielectric constant tensor:
#      x y z
#    x 2.142730 0.000000 0.071580 
#    y 0.000000 2.005310 0.000000 
#    z 0.071580 0.000000 2.140820 
# 
# From -- ./inp_files/46617.got.cif
#   From: 2010.05.17/outbox.cif.g08.bks.cpg/sg15_24_cif.got.tgz:46617.got - 2010.06.03 18:47:42.
