data_PCOD9298279
_publ_section_title
;
Structure prediction by ZEFSAII (Michael W. Deem and Ramdas Pophale) SiO2 
 PCOD9298279
Probable space group: C 2/C
;
_chemical_formula_sum "Si O2"
_cell_formula_units_Z 56
_cell_length_a 11.016763
_cell_length_b 22.973455
_cell_length_c 13.023872
_cell_angle_alpha 90.000000
_cell_angle_beta 122.948929
_cell_angle_gamma 90.000000
_cell_volume 2766.068878
_symmetry_space_group_name_H-M "C 2/C"
_symmetry_group_IT_number 15
_symmetry_cell_setting 'monoclinic'
loop_
_space_group_symop_operation_xyz
x,y,z
-x,y,1/2-z
-x,-y,-z
x,-y,1/2+z
1/2+x,1/2+y,z
1/2-x,1/2+y,1/2-z
1/2-x,1/2-y,-z
1/2+x,1/2-y,1/2+z
loop_
_atom_site_type_symbol
_atom_site_label
_atom_site_fract_x
_atom_site_fract_y
_atom_site_fract_z
Si Si1 0.974871 0.240417 0.120646
Si Si2 0.500000 0.529390 0.750000
Si Si3 0.779317 0.536116 0.457374
Si Si4 0.766774 0.242049 0.629286
Si Si5 0.500000 0.836333 0.750000
Si Si6 0.272787 0.618891 0.714016
Si Si7 0.764086 0.344542 0.071757
Si Si8 0.956647 0.429291 0.553703
O O1 0.117871 0.251096 0.121734
O O2 0.000000 0.220780 0.250000
O O3 0.889909 0.301343 0.092157
O O4 0.879017 0.192822 0.018012
O O5 0.377881 0.489729 0.640890
O O6 0.403317 0.572287 0.776695
O O7 0.765327 0.595405 0.512055
O O8 0.869866 0.485285 0.556065
O O9 0.883755 0.551100 0.408489
O O10 0.750000 0.250000 0.500000
O O11 0.821651 0.177156 0.677345
O O12 0.870654 0.292703 0.717354
O O13 0.462745 0.877547 0.637515
O O14 0.225717 0.639499 0.804400
O O15 0.139443 0.591406 0.588308
#
# Coordination Sequence:
#
# PCOD9298279 Si02
#       8
#     8   4   8   8   4   8   8   8
#     4  11  26  45  66 108 138 174 229 286 341 420
#     4  10  25  42  68 100 141 168 234 292 340 400
#     4  10  24  44  68  96 131 181 223 287 335 408
#     4  12  26  42  72 100 138 182 223 282 351 409
#     4  12  27  40  70 100 131 182 228 286 336 412
#     4  11  23  45  66 100 139 181 224 283 347 417
#     4  11  26  42  75  96 138 183 225 277 350 414
#     4  10  24  44  65  96 136 174 234 275 336 411
#
# _framework density 20.245339000000001
#
# number of rings (size 3 to 8) (size 9 to 14) (size 15 to 20)
#    0.000    1.143    2.857    1.286    7.000    4.000 
#    0.000    0.000    0.000    0.000    0.000    0.000 
#    0.000    0.000    0.000    0.000    0.000    0.000 
#
# Total GULP energy -156540.853814 kJ/mol
# GULP energy per Si atom -5590.744779 kJ/mol
# Density = 2.019926 g / cm^3
# Si number density = 20.245339 Si / 1000 Ang^3
#
#
#
# Elastic Constant Matrix: (Units=GPa)
#
#
# Indices 1 2 3 4 5 6 
#
# 1 122.1535 51.5957 53.2726 0.0000 15.2570 0.0000
# 2 51.5957 162.6870 56.7199 0.0000 9.7432 0.0000
# 3 53.2726 56.7199 83.5924 0.0000 5.7427 0.0000
# 4 0.0000 0.0000 0.0000 30.4219 0.0000 -6.9424
# 5 15.2570 9.7432 5.7427 0.0000 27.6791 0.0000
# 6 0.0000 0.0000 0.0000 -6.9424 0.0000 20.6030
#
#
#
# Elastic Compliance Matrix: (Units=1/GPa)
#
#
# Indices 1 2 3 4 5 6 
#
# 1 0.012209 -0.001287 -0.006570 0.000000 -0.004914 0.000000
# 2 -0.001287 0.008269 -0.004706 0.000000 -0.001225 0.000000
# 3 -0.006570 -0.004706 0.019255 0.000000 0.001283 0.000000
# 4 0.000000 0.000000 0.000000 0.035609 0.000000 0.011999
# 5 -0.004914 -0.001225 0.001283 0.000000 0.039002 0.000000
# 6 0.000000 0.000000 0.000000 0.011999 0.000000 0.052580
#
#
# Mechanical properties :
#
#
# Convention : Reuss Voigt Hill
#
# Bulk Modulus (GPa) = 68.46309 76.84547 72.65428
# Shear Modulus (GPa) = 25.39114 29.53045 27.46079
#
# Velocity S-wave (km/s) = 3.54527 3.82334 3.68693
# Velocity P-wave (km/s) = 7.11679 7.58486 7.35455
#
# Compressibility (1/GPa) = 0.01460641
#
# Stress axis : x y z
#
# Youngs Moduli (GPa) = 81.90715 120.92999 51.93503
#
# Poissons Ratio (x) = 0.15567 0.34119
# Poissons Ratio (y) = 0.10544 0.24443
# Poissons Ratio (z) = 0.53810 0.56914
#
# Static dielectric constant tensor:
#      x y z
#    x 1.700740 0.000000 0.014980 
#    y 0.000000 1.709760 0.000000 
#    z 0.014980 0.000000 1.725530 
# 
# From -- ./inp_files/90943.got.cif
#   From: 2010.05.17/outbox.cif.g08.bks.cpg/sg15_46_cif.got.tgz:90943.got - 2010.06.03 18:47:42.
