data_PCOD9299281
_publ_section_title
;
Structure prediction by ZEFSAII (Michael W. Deem and Ramdas Pophale) SiO2 
 PCOD9299281
Probable space group: C 2/C
;
_chemical_formula_sum "Si O2"
_cell_formula_units_Z 44
_cell_length_a 15.521000
_cell_length_b 14.103115
_cell_length_c 12.316429
_cell_angle_alpha 90.000000
_cell_angle_beta 141.274516
_cell_angle_gamma 90.000000
_cell_volume 1686.588572
_symmetry_space_group_name_H-M "C 2/C"
_symmetry_group_IT_number 15
_symmetry_cell_setting 'monoclinic'
loop_
_space_group_symop_operation_xyz
x,y,z
-x,y,1/2-z
-x,-y,-z
x,-y,1/2+z
1/2+x,1/2+y,z
1/2-x,1/2+y,1/2-z
1/2-x,1/2-y,-z
1/2+x,1/2-y,1/2+z
loop_
_atom_site_type_symbol
_atom_site_label
_atom_site_fract_x
_atom_site_fract_y
_atom_site_fract_z
Si Si1 0.273163 0.682415 0.730134
Si Si2 0.517070 0.596059 0.882678
Si Si3 0.676746 0.093303 0.246949
Si Si4 0.114541 0.519813 0.463284
Si Si5 0.000000 0.071224 0.250000
Si Si6 0.228458 0.649637 0.921736
O O1 0.431958 0.647806 0.889465
O O2 0.293809 0.794338 0.734762
O O3 0.202492 0.618928 0.565364
O O4 0.186567 0.661921 0.754951
O O5 0.500000 0.650501 0.750000
O O6 0.435312 0.499484 0.774456
O O7 0.672714 0.565513 0.058543
O O8 0.542660 0.063260 0.185247
O O9 0.646666 0.039060 0.105714
O O10 0.151507 0.432947 0.414081
O O11 0.887808 0.125038 0.076870
O O12 0.250000 0.750000 0.000000
#
# Coordination Sequence:
#
# PCOD9299281 Si02
#       6
#     8   8   8   8   4   8
#     4  12  25  47  86 117 167 224 283 347 427 517
#     4  10  24  49  76 114 154 216 273 340 414 499
#     4  11  25  47  81 118 169 222 278 350 426 509
#     4  11  25  50  77 123 172 219 278 360 425 497
#     4  10  24  48  72 110 146 210 260 338 400 494
#     4  12  26  49  79 121 165 219 282 347 426 507
#
# _framework density 26.088165
#
# number of rings (size 3 to 8) (size 9 to 14) (size 15 to 20)
#    0.545    0.364    3.636    2.182    2.545    3.636 
#    3.273    8.182    0.000    0.000    0.000    0.000 
#    0.000    0.000    0.000    0.000    0.000    0.000 
#
# Total GULP energy -122595.839539 kJ/mol
# GULP energy per Si atom -5572.538161 kJ/mol
# Density = 2.602879 g / cm^3
# Si number density = 26.088165 Si / 1000 Ang^3
#
#
#
# Elastic Constant Matrix: (Units=GPa)
#
#
# Indices 1 2 3 4 5 6 
#
# 1 145.2862 59.4705 62.1301 0.0000 -12.4203 0.0000
# 2 59.4705 209.0536 55.1162 0.0000 -11.9967 0.0000
# 3 62.1301 55.1162 89.7907 0.0000 10.0093 0.0000
# 4 0.0000 0.0000 0.0000 52.9529 0.0000 14.4955
# 5 -12.4203 -11.9967 10.0093 0.0000 44.1814 0.0000
# 6 0.0000 0.0000 0.0000 14.4955 0.0000 55.6409
#
#
#
# Elastic Compliance Matrix: (Units=1/GPa)
#
#
# Indices 1 2 3 4 5 6 
#
# 1 0.010803 -0.000850 -0.007454 0.000000 0.004495 0.000000
# 2 -0.000850 0.006034 -0.003357 0.000000 0.002160 0.000000
# 3 -0.007454 -0.003357 0.019175 0.000000 -0.007351 0.000000
# 4 0.000000 0.000000 0.000000 0.020335 0.000000 -0.005298
# 5 0.004495 0.002160 -0.007351 0.000000 0.026150 0.000000
# 6 0.000000 0.000000 0.000000 -0.005298 0.000000 0.019353
#
#
# Mechanical properties :
#
#
# Convention : Reuss Voigt Hill
#
# Bulk Modulus (GPa) = 78.80158 88.61825 83.70992
# Shear Modulus (GPa) = 38.63964 48.38261 43.51112
#
# Velocity S-wave (km/s) = 3.85270 4.31116 4.08836
# Velocity P-wave (km/s) = 7.07549 7.66968 7.37857
#
# Compressibility (1/GPa) = 0.01269010
#
# Stress axis : x y z
#
# Youngs Moduli (GPa) = 92.56764 165.72323 52.15154
#
# Poissons Ratio (x) = 0.14085 0.38876
# Poissons Ratio (y) = 0.07867 0.17505
# Poissons Ratio (z) = 0.69004 0.55628
#
# Static dielectric constant tensor:
#      x y z
#    x -2.037590 0.000000 1.205150 
#    y 0.000000 1.540000 0.000000 
#    z 1.205150 0.000000 1.777620 
# 
# From -- ./inp_files/111288.got.cif
#   From: 2010.05.17/outbox.cif.g08.bks.cpg/sg15_56_cif.got.tgz:111288.got - 2010.06.03 18:47:42.
