data_PCOD9299285
_publ_section_title
;
Structure prediction by ZEFSAII (Michael W. Deem and Ramdas Pophale) SiO2 
 PCOD9299285
Probable space group: C 2/C
;
_chemical_formula_sum "Si O2"
_cell_formula_units_Z 44
_cell_length_a 26.580722
_cell_length_b 11.283085
_cell_length_c 8.857633
_cell_angle_alpha 90.000000
_cell_angle_beta 130.419640
_cell_angle_gamma 90.000000
_cell_volume 2022.447835
_symmetry_space_group_name_H-M "C 2/C"
_symmetry_group_IT_number 15
_symmetry_cell_setting 'monoclinic'
loop_
_space_group_symop_operation_xyz
x,y,z
-x,y,1/2-z
-x,-y,-z
x,-y,1/2+z
1/2+x,1/2+y,z
1/2-x,1/2+y,1/2-z
1/2-x,1/2-y,-z
1/2+x,1/2-y,1/2+z
loop_
_atom_site_type_symbol
_atom_site_label
_atom_site_fract_x
_atom_site_fract_y
_atom_site_fract_z
Si Si1 0.665269 0.850323 0.984514
Si Si2 0.712911 0.728174 0.586037
Si Si3 0.000000 0.288250 0.250000
Si Si4 0.630837 0.074285 0.090000
Si Si5 0.584913 0.601848 0.235067
Si Si6 0.071211 0.142953 0.863322
O O1 0.660959 0.912097 0.814606
O O2 0.623251 0.730583 0.891782
O O3 0.736616 0.817787 0.189082
O O4 0.631607 0.939169 0.038480
O O5 0.750000 0.750000 0.500000
O O6 0.678126 0.848841 0.572930
O O7 0.654438 0.634105 0.447584
O O8 0.058117 0.368150 0.434063
O O9 0.033464 0.201671 0.191601
O O10 0.561620 0.473727 0.244497
O O11 0.594886 0.606798 0.075924
O O12 0.000000 0.202036 0.750000
#
# Coordination Sequence:
#
# PCOD9299285 Si02
#       6
#     8   8   4   8   8   8
#     4  12  27  45  71 106 140 185 236 287 353 416
#     4  11  24  48  71  99 140 185 232 286 353 412
#     4  10  24  48  72  98 142 186 238 286 358 402
#     4  11  27  46  72 101 143 186 235 293 346 421
#     4  11  25  44  71  99 139 180 228 292 341 421
#     4  12  26  43  72 104 139 178 234 286 353 411
#
# _framework density 21.755814999999998
#
# number of rings (size 3 to 8) (size 9 to 14) (size 15 to 20)
#    0.000    0.727    2.727    3.273   11.455    2.182 
#    0.000    0.000    0.000    0.000    0.000    0.000 
#    0.000    0.000    0.000    0.000    0.000    0.000 
#
# Total GULP energy -123212.912011 kJ/mol
# GULP energy per Si atom -5600.586910 kJ/mol
# Density = 2.170630 g / cm^3
# Si number density = 21.755815 Si / 1000 Ang^3
#
#
#
# Elastic Constant Matrix: (Units=GPa)
#
#
# Indices 1 2 3 4 5 6 
#
# 1 55.6734 -3.8032 10.8849 0.0000 17.3666 0.0000
# 2 -3.8032 58.7494 7.8930 0.0000 17.9817 0.0000
# 3 10.8849 7.8930 100.7550 0.0000 19.2187 0.0000
# 4 0.0000 0.0000 0.0000 24.9957 0.0000 -2.0708
# 5 17.3666 17.9817 19.2187 0.0000 39.0426 0.0000
# 6 0.0000 0.0000 0.0000 -2.0708 0.0000 18.1633
#
#
#
# Elastic Compliance Matrix: (Units=1/GPa)
#
#
# Indices 1 2 3 4 5 6 
#
# 1 0.022153 0.005171 -0.000513 0.000000 -0.011983 0.000000
# 2 0.005171 0.021026 0.000088 0.000000 -0.012027 0.000000
# 3 -0.000513 0.000088 0.010968 0.000000 -0.005212 0.000000
# 4 0.000000 0.000000 0.000000 0.040388 0.000000 0.004605
# 5 -0.011983 -0.012027 -0.005212 0.000000 0.039048 0.000000
# 6 0.000000 0.000000 0.000000 0.004605 0.000000 0.055581
#
#
# Mechanical properties :
#
#
# Convention : Reuss Voigt Hill
#
# Bulk Modulus (GPa) = 15.71350 27.23638 21.47494
# Shear Modulus (GPa) = 24.88999 29.78718 27.33858
#
# Velocity S-wave (km/s) = 3.38607 3.70423 3.54872
# Velocity P-wave (km/s) = 4.74612 5.55350 5.16561
#
# Compressibility (1/GPa) = 0.06363955
#
# Stress axis : x y z
#
# Youngs Moduli (GPa) = 45.13988 47.56127 91.17769
#
# Poissons Ratio (x) = -0.24593 0.04674
# Poissons Ratio (y) = -0.23341 -0.00806
# Poissons Ratio (z) = 0.02314 -0.00421
#
# Static dielectric constant tensor:
#      x y z
#    x 1.774260 0.000000 0.003810 
#    y 0.000000 1.755990 0.000000 
#    z 0.003810 0.000000 1.768850 
# 
# From -- ./inp_files/54485.got.cif
#   From: 2010.05.17/outbox.cif.g08.bks.cpg/sg15_28_cif.got.tgz:54485.got - 2010.06.03 18:47:42.
