data_PCOD9299720
_publ_section_title
;
Structure prediction by ZEFSAII (Michael W. Deem and Ramdas Pophale) SiO2 
 PCOD9299720
Probable space group: C 2/C
;
_chemical_formula_sum "Si O2"
_cell_formula_units_Z 60
_cell_length_a 9.639583
_cell_length_b 21.892724
_cell_length_c 28.888011
_cell_angle_alpha 90.000000
_cell_angle_beta 152.273787
_cell_angle_gamma 90.000000
_cell_volume 2836.346822
_symmetry_space_group_name_H-M "C 2/C"
_symmetry_group_IT_number 15
_symmetry_cell_setting 'monoclinic'
loop_
_space_group_symop_operation_xyz
x,y,z
-x,y,1/2-z
-x,-y,-z
x,-y,1/2+z
1/2+x,1/2+y,z
1/2-x,1/2+y,1/2-z
1/2-x,1/2-y,-z
1/2+x,1/2-y,1/2+z
loop_
_atom_site_type_symbol
_atom_site_label
_atom_site_fract_x
_atom_site_fract_y
_atom_site_fract_z
Si Si1 0.709120 0.899718 0.381789
Si Si2 0.500000 0.796182 0.250000
Si Si3 0.262520 0.355143 0.498976
Si Si4 0.798101 0.745019 0.867073
Si Si5 0.642573 0.089191 0.449239
Si Si6 0.710506 0.057871 0.069591
Si Si7 0.592544 0.773849 0.907057
Si Si8 0.725947 0.508760 0.776263
O O1 0.613337 0.840317 0.324524
O O2 0.824432 0.882936 0.467104
O O3 0.004746 0.925636 0.443473
O O4 0.420371 0.942469 0.304845
O O5 0.763017 0.753342 0.310121
O O6 0.489408 0.302203 0.581448
O O7 0.254704 0.406614 0.535288
O O8 0.952185 0.319194 0.401936
O O9 0.500000 0.751140 0.750000
O O10 0.748572 0.749173 0.907280
O O11 0.474874 0.098339 0.448521
O O12 0.602032 0.152995 0.410673
O O13 0.466538 0.034497 0.372617
O O14 0.016411 0.033155 0.182104
O O15 0.500000 0.000000 0.000000
O O16 0.750000 0.750000 0.000000
O O17 0.500000 0.533512 0.750000
#
# Coordination Sequence:
#
# PCOD9299720 Si02
#       8
#     8   4   8   8   8   8   8   8
#     4  12  25  48  69 103 140 179 238 291 351 424
#     4  12  28  40  74 106 136 188 232 286 360 426
#     4  11  24  44  69  99 141 177 231 285 348 419
#     4  11  25  42  68 103 138 182 229 286 357 415
#     4  11  24  46  70 101 140 186 229 294 351 418
#     4  11  26  44  71 101 137 187 237 286 352 417
#     4  12  24  45  69 101 144 182 236 288 359 425
#     4  10  25  45  71 102 135 189 235 286 355 417
#
# _framework density 21.153972
#
# number of rings (size 3 to 8) (size 9 to 14) (size 15 to 20)
#    0.000    0.800    2.667    3.600    6.533    4.800 
#    0.000    0.000    0.000    0.000    0.000    0.000 
#    0.000    0.000    0.000    0.000    0.000    0.000 
#
# Total GULP energy -167823.588651 kJ/mol
# GULP energy per Si atom -5594.119622 kJ/mol
# Density = 2.110582 g / cm^3
# Si number density = 21.153972 Si / 1000 Ang^3
#
#
#
# Elastic Constant Matrix: (Units=GPa)
#
#
# Indices 1 2 3 4 5 6 
#
# 1 95.8673 37.1070 31.7948 0.0039 6.1951 0.0035
# 2 37.1070 59.2094 19.6324 0.0028 18.3966 0.0029
# 3 31.7948 19.6324 97.5418 0.0017 14.3008 0.0052
# 4 0.0039 0.0028 0.0017 31.4695 0.0022 1.7932
# 5 6.1951 18.3966 14.3008 0.0022 43.3628 0.0031
# 6 0.0035 0.0029 0.0052 1.7932 0.0031 37.4227
#
#
#
# Elastic Compliance Matrix: (Units=1/GPa)
#
#
# Indices 1 2 3 4 5 6 
#
# 1 0.014908 -0.009089 -0.003450 -0.000001 0.002864 0.000000
# 2 -0.009089 0.025775 -0.000854 0.000000 -0.009355 0.000000
# 3 -0.003450 -0.000854 0.012003 0.000000 -0.003104 -0.000001
# 4 -0.000001 0.000000 0.000000 0.031864 -0.000001 -0.001527
# 5 0.002864 -0.009355 -0.003104 -0.000001 0.027644 -0.000001
# 6 0.000000 0.000000 -0.000001 -0.001527 -0.000001 0.026795
#
#
# Mechanical properties :
#
#
# Convention : Reuss Voigt Hill
#
# Bulk Modulus (GPa) = 38.60784 47.74300 43.17542
# Shear Modulus (GPa) = 28.66826 33.38995 31.02910
#
# Velocity S-wave (km/s) = 3.68532 3.97725 3.83407
# Velocity P-wave (km/s) = 6.03318 6.61133 6.32886
#
# Compressibility (1/GPa) = 0.02590147
#
# Stress axis : x y z
#
# Youngs Moduli (GPa) = 67.07687 38.79729 83.30956
#
# Poissons Ratio (x) = 0.35263 0.28742
# Poissons Ratio (y) = 0.60966 0.07111
# Poissons Ratio (z) = 0.23142 0.03312
#
# Static dielectric constant tensor:
#      x y z
#    x 1.701910 -0.000010 0.013760 
#    y -0.000010 1.737780 0.000000 
#    z 0.013760 0.000000 1.752580 
# 
# From -- ./inp_files/290277.got.cif
#   From: 2010.05.17/outbox.cif.g08.bks.cpg/sg15_146_cif.got.tgz:290277.got - 2010.06.03 18:47:42.
