data_PCOD9299680
_publ_section_title
;
Structure prediction by ZEFSAII (Michael W. Deem and Ramdas Pophale) SiO2 
 PCOD9299680
Probable space group: C 2/C
;
_chemical_formula_sum "Si O2"
_cell_formula_units_Z 40
_cell_length_a 21.660664
_cell_length_b 9.343884
_cell_length_c 8.567008
_cell_angle_alpha 90.000000
_cell_angle_beta 112.158080
_cell_angle_gamma 90.000000
_cell_volume 1605.861914
_symmetry_space_group_name_H-M "C 2/C"
_symmetry_group_IT_number 15
_symmetry_cell_setting 'monoclinic'
loop_
_space_group_symop_operation_xyz
x,y,z
-x,y,1/2-z
-x,-y,-z
x,-y,1/2+z
1/2+x,1/2+y,z
1/2-x,1/2+y,1/2-z
1/2-x,1/2-y,-z
1/2+x,1/2-y,1/2+z
loop_
_atom_site_type_symbol
_atom_site_label
_atom_site_fract_x
_atom_site_fract_y
_atom_site_fract_z
Si Si1 0.812265 0.665871 0.129419
Si Si2 0.926137 0.149396 0.863510
Si Si3 0.614323 0.373241 0.811586
Si Si4 0.737818 0.102266 0.078006
Si Si5 0.027924 0.649138 0.599762
O O1 0.879452 0.756183 0.203987
O O2 0.792311 0.633928 0.285807
O O3 0.750000 0.750000 0.000000
O O4 0.810893 0.513460 0.043757
O O5 0.935601 0.993258 0.800935
O O6 0.893721 0.141572 0.008832
O O7 0.993022 0.235988 0.955387
O O8 0.685335 0.445804 0.837015
O O9 0.600568 0.223194 0.706074
O O10 0.750000 0.250000 0.000000
O O11 0.000000 0.650819 0.750000
O O12 0.000000 0.500000 0.500000
#
# Coordination Sequence:
#
# PCOD9299680 Si02
#       5
#     8   8   8   8   8
#     4  12  25  43  65 101 133 177 223 268 335 396
#     4  11  24  43  68  96 134 174 224 271 325 400
#     4  11  23  45  66  97 133 173 223 269 330 393
#     4  12  24  42  66  97 138 173 216 273 329 391
#     4  10  25  45  67  97 129 170 221 276 331 390
#
# _framework density 24.908743999999999
#
# number of rings (size 3 to 8) (size 9 to 14) (size 15 to 20)
#    0.000    0.800    4.000    3.000    2.800    1.600 
#    0.000    0.000    0.000    0.000    0.000    0.000 
#    0.000    0.000    0.000    0.000    0.000    0.000 
#
# Total GULP energy -111771.478756 kJ/mol
# GULP energy per Si atom -5588.573938 kJ/mol
# Density = 2.485205 g / cm^3
# Si number density = 24.908744 Si / 1000 Ang^3
#
#
#
# Elastic Constant Matrix: (Units=GPa)
#
#
# Indices 1 2 3 4 5 6 
#
# 1 39.4743 3.1898 8.0621 0.0000 11.9069 0.0000
# 2 3.1898 159.6563 84.8731 0.0000 23.0737 0.0000
# 3 8.0621 84.8731 138.5890 0.0000 14.6397 0.0000
# 4 0.0000 0.0000 0.0000 89.0298 0.0000 20.1936
# 5 11.9069 23.0737 14.6397 0.0000 40.5735 0.0000
# 6 0.0000 0.0000 0.0000 20.1936 0.0000 28.6881
#
#
#
# Elastic Compliance Matrix: (Units=1/GPa)
#
#
# Indices 1 2 3 4 5 6 
#
# 1 0.028128 0.001575 -0.001699 0.000000 -0.008537 0.000000
# 2 0.001575 0.009837 -0.005693 0.000000 -0.004002 0.000000
# 3 -0.001699 -0.005693 0.010819 0.000000 -0.000167 0.000000
# 4 0.000000 0.000000 0.000000 0.013366 0.000000 -0.009408
# 5 -0.008537 -0.004002 -0.000167 0.000000 0.029488 0.000000
# 6 0.000000 0.000000 0.000000 -0.009408 0.000000 0.041480
#
#
# Mechanical properties :
#
#
# Convention : Reuss Voigt Hill
#
# Bulk Modulus (GPa) = 26.91856 58.88552 42.90204
# Shear Modulus (GPa) = 31.81981 47.76460 39.79221
#
# Velocity S-wave (km/s) = 3.57803 4.38377 4.00123
# Velocity P-wave (km/s) = 5.28205 7.02247 6.21350
#
# Compressibility (1/GPa) = 0.03714909
#
# Stress axis : x y z
#
# Youngs Moduli (GPa) = 35.55208 101.65937 92.43394
#
# Poissons Ratio (x) = -0.16012 0.15705
# Poissons Ratio (y) = -0.05600 0.52623
# Poissons Ratio (z) = 0.06040 0.57875
#
# Static dielectric constant tensor:
#      x y z
#    x 2.505110 0.000000 0.366880 
#    y 0.000000 2.068170 0.000000 
#    z 0.366880 0.000000 2.121480 
# 
# From -- ./inp_files/60088.got.cif
#   From: 2010.05.17/outbox.cif.g08.bks.cpg/sg15_31_cif.got.tgz:60088.got - 2010.06.03 18:47:42.
