data_PCOD9299518
_publ_section_title
;
Structure prediction by ZEFSAII (Michael W. Deem and Ramdas Pophale) SiO2 
 PCOD9299518
Probable space group: C 2/C
;
_chemical_formula_sum "Si O2"
_cell_formula_units_Z 32
_cell_length_a 5.399896
_cell_length_b 9.004731
_cell_length_c 30.324352
_cell_angle_alpha 90.000000
_cell_angle_beta 64.668162
_cell_angle_gamma 90.000000
_cell_volume 1332.728232
_symmetry_space_group_name_H-M "C 2/C"
_symmetry_group_IT_number 15
_symmetry_cell_setting 'monoclinic'
loop_
_space_group_symop_operation_xyz
x,y,z
-x,y,1/2-z
-x,-y,-z
x,-y,1/2+z
1/2+x,1/2+y,z
1/2-x,1/2+y,1/2-z
1/2-x,1/2-y,-z
1/2+x,1/2-y,1/2+z
loop_
_atom_site_type_symbol
_atom_site_label
_atom_site_fract_x
_atom_site_fract_y
_atom_site_fract_z
Si Si1 0.706893 0.081581 0.018039
Si Si2 0.991786 0.147633 0.862567
Si Si3 0.315787 0.574989 0.306750
Si Si4 0.932528 0.582287 0.888230
O O1 0.576225 0.051357 0.076405
O O2 0.750000 0.250000 0.000000
O O3 0.500000 0.000000 0.000000
O O4 0.000000 0.000000 0.000000
O O5 0.175754 0.265848 0.822604
O O6 0.131237 0.132538 0.899277
O O7 0.978496 0.990133 0.837013
O O8 0.668550 0.190589 0.888638
O O9 0.500000 0.562797 0.250000
O O10 0.057665 0.464108 0.331111
#
# Coordination Sequence:
#
# PCOD9299518 Si02
#       4
#     8   8   8   8
#     4  12  28  47  76 107 144 187 242 295 359 426
#     4  10  25  42  69  98 140 180 231 284 353 411
#     4  10  26  43  71  99 140 181 237 285 353 418
#     4  10  26  45  71  99 143 180 235 288 356 414
#
# _framework density 24.010895999999999
#
# number of rings (size 3 to 8) (size 9 to 14) (size 15 to 20)
#    1.500    0.000    0.000    2.250   14.000    0.000 
#    0.000    0.000    0.000    0.000    0.000    0.000 
#    0.000    0.000    0.000    0.000    0.000    0.000 
#
# Total GULP energy -89173.688784 kJ/mol
# GULP energy per Si atom -5573.355549 kJ/mol
# Density = 2.395625 g / cm^3
# Si number density = 24.010896 Si / 1000 Ang^3
#
#
#
# Elastic Constant Matrix: (Units=GPa)
#
#
# Indices 1 2 3 4 5 6 
#
# 1 219.6609 80.0751 39.1174 0.0000 18.8001 0.0000
# 2 80.0751 108.0745 17.2878 0.0000 -8.1554 0.0000
# 3 39.1174 17.2878 92.6255 0.0000 -20.7794 0.0000
# 4 0.0000 0.0000 0.0000 34.4803 0.0000 -10.7460
# 5 18.8001 -8.1554 -20.7794 0.0000 27.8800 0.0000
# 6 0.0000 0.0000 0.0000 -10.7460 0.0000 48.5152
#
#
#
# Elastic Compliance Matrix: (Units=1/GPa)
#
#
# Indices 1 2 3 4 5 6 
#
# 1 0.008917 -0.006671 -0.005172 0.000000 -0.011820 0.000000
# 2 -0.006671 0.014601 0.002473 0.000000 0.010613 0.000000
# 3 -0.005172 0.002473 0.016167 0.000000 0.016261 0.000000
# 4 0.000000 0.000000 0.000000 0.031153 0.000000 0.006900
# 5 -0.011820 0.010613 0.016261 0.000000 0.059062 0.000000
# 6 0.000000 0.000000 0.000000 0.006900 0.000000 0.022140
#
#
# Mechanical properties :
#
#
# Convention : Reuss Voigt Hill
#
# Bulk Modulus (GPa) = 47.74630 77.03573 62.39101
# Shear Modulus (GPa) = 28.12744 41.10049 34.61397
#
# Velocity S-wave (km/s) = 3.42635 4.14181 3.80095
# Velocity P-wave (km/s) = 5.96503 7.41796 6.73081
#
# Compressibility (1/GPa) = 0.02094403
#
# Stress axis : x y z
#
# Youngs Moduli (GPa) = 112.14319 68.48755 61.85542
#
# Poissons Ratio (x) = 0.45691 0.31993
# Poissons Ratio (y) = 0.74816 -0.15298
# Poissons Ratio (z) = 0.58003 -0.16938
#
# Static dielectric constant tensor:
#      x y z
#    x 2.017770 0.000000 -0.030610 
#    y 0.000000 1.961580 0.000000 
#    z -0.030610 0.000000 2.021250 
# 
# From -- ./inp_files/304655.got.cif
#   From: 2010.05.17/outbox.cif.g08.bks.cpg/sg15_153_cif.got.tgz:304655.got - 2010.06.03 18:47:42.
