data_PCOD9299385
_publ_section_title
;
Structure prediction by ZEFSAII (Michael W. Deem and Ramdas Pophale) SiO2 
 PCOD9299385
Probable space group: C 2/C
;
_chemical_formula_sum "Si O2"
_cell_formula_units_Z 52
_cell_length_a 12.581891
_cell_length_b 15.065012
_cell_length_c 13.700719
_cell_angle_alpha 90.000000
_cell_angle_beta 106.365707
_cell_angle_gamma 90.000000
_cell_volume 2491.701132
_symmetry_space_group_name_H-M "C 2/C"
_symmetry_group_IT_number 15
_symmetry_cell_setting 'monoclinic'
loop_
_space_group_symop_operation_xyz
x,y,z
-x,y,1/2-z
-x,-y,-z
x,-y,1/2+z
1/2+x,1/2+y,z
1/2-x,1/2+y,1/2-z
1/2-x,1/2-y,-z
1/2+x,1/2-y,1/2+z
loop_
_atom_site_type_symbol
_atom_site_label
_atom_site_fract_x
_atom_site_fract_y
_atom_site_fract_z
Si Si1 0.436079 0.251664 0.889137
Si Si2 0.338966 0.552718 0.622409
Si Si3 0.836350 0.518830 0.281795
Si Si4 0.988954 0.331051 0.900435
Si Si5 0.500000 0.401996 0.750000
Si Si6 0.000000 0.197082 0.750000
Si Si7 0.255766 0.134347 0.094734
Si Si8 0.000000 0.606037 0.750000
O O1 0.464916 0.336393 0.829330
O O2 0.317587 0.277307 0.906134
O O3 0.454793 0.168973 0.822642
O O4 0.513486 0.221445 0.998903
O O5 0.231321 0.542362 0.662114
O O6 0.411263 0.466779 0.673295
O O7 0.413658 0.635823 0.672293
O O8 0.302951 0.572081 0.502007
O O9 0.922141 0.577897 0.367705
O O10 0.760797 0.584379 0.199592
O O11 0.898297 0.461884 0.214315
O O12 0.940357 0.262330 0.809525
O O13 0.118072 0.347337 0.906334
#
# Coordination Sequence:
#
# PCOD9299385 Si02
#       8
#     8   8   8   8   4   4   8   4
#     4  11  25  43  71  94 143 176 230 279 349 401
#     4  11  26  42  73  97 138 182 236 277 353 409
#     4  12  25  44  67 103 144 173 231 291 337 411
#     4  12  24  43  68 102 139 177 233 287 337 412
#     4  10  24  50  62 106 134 184 226 296 342 416
#     4  11  23  43  67 102 128 180 237 281 333 411
#     4  12  23  43  70  99 132 186 225 281 348 411
#     4  11  25  43  65 104 138 178 219 285 341 405
#
# _framework density 20.869277
#
# number of rings (size 3 to 8) (size 9 to 14) (size 15 to 20)
#    0.000    0.615    6.154    1.385    4.308    3.077 
#    0.000    0.769    0.000    0.000    0.000    0.000 
#    0.000    0.000    0.000    0.000    0.000    0.000 
#
# Total GULP energy -144983.499992 kJ/mol
# GULP energy per Si atom -5576.288461 kJ/mol
# Density = 2.082178 g / cm^3
# Si number density = 20.869277 Si / 1000 Ang^3
#
#
#
# Elastic Constant Matrix: (Units=GPa)
#
#
# Indices 1 2 3 4 5 6 
#
# 1 75.7916 29.5993 21.8698 0.0000 0.1262 0.0000
# 2 29.5993 85.4532 23.7640 0.0000 3.0754 0.0000
# 3 21.8698 23.7640 114.4560 0.0000 3.6154 0.0000
# 4 0.0000 0.0000 0.0000 16.4340 0.0000 -9.7205
# 5 0.1262 3.0754 3.6154 0.0000 23.4574 0.0000
# 6 0.0000 0.0000 0.0000 -9.7205 0.0000 -37.7911
#
#
#
# Elastic Compliance Matrix: (Units=1/GPa)
#
#
# Indices 1 2 3 4 5 6 
#
# 1 0.015688 -0.004907 -0.002006 0.000000 0.000868 0.000000
# 2 -0.004907 0.013990 -0.001919 0.000000 -0.001512 0.000000
# 3 -0.002006 -0.001919 0.009557 0.000000 -0.001211 0.000000
# 4 0.000000 0.000000 0.000000 0.052814 0.000000 -0.013585
# 5 0.000868 -0.001512 -0.001211 0.000000 0.043011 0.000000
# 6 0.000000 0.000000 0.000000 -0.013585 0.000000 -0.022967
#
#
# Mechanical properties :
#
#
# Convention : Reuss Voigt Hill
#
# Bulk Modulus (GPa) = 46.36126 47.35189 46.85657
# Shear Modulus (GPa) = 36.51001 13.78458 25.14729
#
# Velocity S-wave (km/s) = 4.18719 2.57285 3.47506
# Velocity P-wave (km/s) = 6.75575 5.61828 6.21310
#
# Compressibility (1/GPa) = 0.02156973
#
# Stress axis : x y z
#
# Youngs Moduli (GPa) = 63.74295 71.47812 104.63495
#
# Poissons Ratio (x) = 0.35077 0.20991
# Poissons Ratio (y) = 0.31281 0.20083
# Poissons Ratio (z) = 0.12788 0.13719
#
# Static dielectric constant tensor:
#      x y z
#    x 1.777920 0.000000 0.002320 
#    y 0.000000 1.743300 0.000000 
#    z 0.002320 0.000000 1.711710 
# 
# From -- ./inp_files/144195.got.cif
#   From: 2010.05.17/outbox.cif.g08.bks.cpg/sg15_73_cif.got.tgz:144195.got - 2010.06.03 18:47:42.
