data_PCOD9299187
_publ_section_title
;
Structure prediction by ZEFSAII (Michael W. Deem and Ramdas Pophale) SiO2 
 PCOD9299187
Probable space group: C 2/C
;
_chemical_formula_sum "Si O2"
_cell_formula_units_Z 60
_cell_length_a 4.870397
_cell_length_b 13.091846
_cell_length_c 34.069983
_cell_angle_alpha 90.000000
_cell_angle_beta 83.914634
_cell_angle_gamma 90.000000
_cell_volume 2160.145579
_symmetry_space_group_name_H-M "C 2/C"
_symmetry_group_IT_number 15
_symmetry_cell_setting 'monoclinic'
loop_
_space_group_symop_operation_xyz
x,y,z
-x,y,1/2-z
-x,-y,-z
x,-y,1/2+z
1/2+x,1/2+y,z
1/2-x,1/2+y,1/2-z
1/2-x,1/2-y,-z
1/2+x,1/2-y,1/2+z
loop_
_atom_site_type_symbol
_atom_site_label
_atom_site_fract_x
_atom_site_fract_y
_atom_site_fract_z
Si Si1 0.983585 0.835574 0.394003
Si Si2 0.518360 0.076488 0.952423
Si Si3 0.443158 0.459750 0.637552
Si Si4 0.673887 0.442590 0.210340
Si Si5 0.459384 0.348980 0.501784
Si Si6 0.000000 0.384181 0.750000
Si Si7 0.818905 0.369315 0.572060
Si Si8 0.720796 0.756686 0.676073
O O1 0.070592 0.741720 0.419570
O O2 0.673227 0.865500 0.413569
O O3 0.006247 0.791518 0.349595
O O4 0.140757 0.944950 0.389404
O O5 0.258905 0.135990 0.974932
O O6 0.471484 0.955730 0.946223
O O7 0.774063 0.073022 0.979540
O O8 0.485891 0.509621 0.679210
O O9 0.725150 0.422628 0.613598
O O10 0.312096 0.349625 0.646774
O O11 0.500000 0.401402 0.250000
O O12 0.854640 0.351091 0.188677
O O13 0.831061 0.539477 0.225061
O O14 0.250000 0.250000 0.500000
O O15 0.567407 0.357413 0.544903
O O16 0.838987 0.312725 0.782460
#
# Coordination Sequence:
#
# PCOD9299187 Si02
#       8
#     8   8   8   8   8   4   8   8
#     4  10  26  47  81 115 156 212 275 340 408 496
#     4  11  28  53  83 118 164 220 284 342 423 504
#     4  10  24  47  74 111 156 205 268 334 403 496
#     4  11  23  44  69 106 147 193 257 319 388 490
#     4  12  29  51  82 124 168 218 278 354 421 501
#     4  12  24  40  72 106 146 202 248 322 400 484
#     4  11  26  51  83 115 164 219 277 345 423 497
#     4  11  24  44  72 110 154 199 257 323 410 478
#
# _framework density 27.775908000000001
#
# number of rings (size 3 to 8) (size 9 to 14) (size 15 to 20)
#    0.000    1.067    2.000    2.000    5.600    4.267 
#    0.000    0.000    0.000    0.000    0.000    0.000 
#    0.000    0.000    0.000    0.000    0.000    0.000 
#
# Total GULP energy -167451.147083 kJ/mol
# GULP energy per Si atom -5581.704903 kJ/mol
# Density = 2.771269 g / cm^3
# Si number density = 27.775908 Si / 1000 Ang^3
#
#
#
# Elastic Constant Matrix: (Units=GPa)
#
#
# Indices 1 2 3 4 5 6 
#
# 1 110.8826 44.0289 31.5661 0.0000 7.3704 0.0000
# 2 44.0289 176.9992 29.7532 0.0000 13.0150 0.0000
# 3 31.5661 29.7532 97.4577 0.0000 7.2122 0.0000
# 4 0.0000 0.0000 0.0000 26.0562 0.0000 16.2892
# 5 7.3704 13.0150 7.2122 0.0000 34.8846 0.0000
# 6 0.0000 0.0000 0.0000 16.2892 0.0000 30.4632
#
#
#
# Elastic Compliance Matrix: (Units=1/GPa)
#
#
# Indices 1 2 3 4 5 6 
#
# 1 0.010709 -0.002136 -0.002750 0.000000 -0.000897 0.000000
# 2 -0.002136 0.006504 -0.001166 0.000000 -0.001735 0.000000
# 3 -0.002750 -0.001166 0.011610 0.000000 -0.001384 0.000000
# 4 0.000000 0.000000 0.000000 0.057650 0.000000 -0.030826
# 5 -0.000897 -0.001735 -0.001384 0.000000 0.029789 0.000000
# 6 0.000000 0.000000 0.000000 -0.030826 0.000000 0.049310
#
#
# Mechanical properties :
#
#
# Convention : Reuss Voigt Hill
#
# Bulk Modulus (GPa) = 59.80700 66.22620 63.01660
# Shear Modulus (GPa) = 27.28532 36.94689 32.11610
#
# Velocity S-wave (km/s) = 3.13763 3.65112 3.40407
# Velocity P-wave (km/s) = 5.89109 6.45515 6.17956
#
# Compressibility (1/GPa) = 0.01672045
#
# Stress axis : x y z
#
# Youngs Moduli (GPa) = 93.37822 153.74020 86.13285
#
# Poissons Ratio (x) = 0.32833 0.23689
# Poissons Ratio (y) = 0.19942 0.10040
# Poissons Ratio (z) = 0.25681 0.17921
#
# Static dielectric constant tensor:
#      x y z
#    x 2.249830 0.000000 0.010870 
#    y 0.000000 2.173060 0.000000 
#    z 0.010870 0.000000 2.287730 
# 
# From -- ./inp_files/307150.got.cif
#   From: 2010.05.17/outbox.cif.g08.bks.cpg/sg15_154_cif.got.tgz:307150.got - 2010.06.03 18:47:42.
