data_PCOD9299779
_publ_section_title
;
Structure prediction by ZEFSAII (Michael W. Deem and Ramdas Pophale) SiO2 
 PCOD9299779
Probable space group: C 2/C
;
_chemical_formula_sum "Si O2"
_cell_formula_units_Z 60
_cell_length_a 14.460500
_cell_length_b 21.035426
_cell_length_c 25.893330
_cell_angle_alpha 90.000000
_cell_angle_beta 20.119081
_cell_angle_gamma 90.000000
_cell_volume 2709.231695
_symmetry_space_group_name_H-M "C 2/C"
_symmetry_group_IT_number 15
_symmetry_cell_setting 'monoclinic'
loop_
_space_group_symop_operation_xyz
x,y,z
-x,y,1/2-z
-x,-y,-z
x,-y,1/2+z
1/2+x,1/2+y,z
1/2-x,1/2+y,1/2-z
1/2-x,1/2-y,-z
1/2+x,1/2-y,1/2+z
loop_
_atom_site_type_symbol
_atom_site_label
_atom_site_fract_x
_atom_site_fract_y
_atom_site_fract_z
Si Si1 0.963526 0.931124 0.085134
Si Si2 0.622188 0.615129 0.130623
Si Si3 0.266501 0.838639 0.211200
Si Si4 0.237457 0.154691 0.357930
Si Si5 0.000000 0.866965 0.250000
Si Si6 0.469282 0.716146 0.132787
Si Si7 0.530875 0.969175 0.818783
Si Si8 0.151445 0.481199 0.473250
O O1 0.881548 0.893489 0.179646
O O2 0.717289 0.975624 0.198839
O O3 0.046390 0.879945 0.999074
O O4 0.223747 0.973731 0.961105
O O5 0.500000 0.633659 0.250000
O O6 0.454175 0.653321 0.175626
O O7 0.642805 0.538462 0.120102
O O8 0.930103 0.637540 0.959847
O O9 0.262711 0.774422 0.247041
O O10 0.132709 0.828183 0.226173
O O11 0.500000 0.182653 0.250000
O O12 0.365201 0.098043 0.256278
O O13 0.067658 0.197356 0.407654
O O14 0.791337 0.915005 0.386650
O O15 0.750000 0.750000 0.000000
O O16 0.532286 0.973731 0.880015
O O17 0.000000 0.500000 0.500000
#
# Coordination Sequence:
#
# PCOD9299779 Si02
#       8
#     8   8   8   8   4   8   8   8
#     4  11  23  45  69 106 143 186 239 301 367 440
#     4  11  24  42  69 102 142 184 233 300 371 434
#     4  11  24  43  65 100 141 187 244 291 359 435
#     4  10  25  46  70 102 143 192 244 302 364 433
#     4  12  22  38  66 106 142 180 222 300 368 436
#     4  10  26  47  70 102 138 196 253 299 358 434
#     4  11  24  42  70 105 147 186 233 296 373 450
#     4  12  23  37  66 106 141 176 225 295 381 444
#
# _framework density 22.1465
#
# number of rings (size 3 to 8) (size 9 to 14) (size 15 to 20)
#    0.000    1.067    4.667    0.400    4.667    2.133 
#    0.000    6.000    0.000    0.000    0.000    0.000 
#    0.000    0.000    0.000    0.000    0.000    0.000 
#
# Total GULP energy -167656.823396 kJ/mol
# GULP energy per Si atom -5588.560780 kJ/mol
# Density = 2.209609 g / cm^3
# Si number density = 22.146500 Si / 1000 Ang^3
#
#
#
# Elastic Constant Matrix: (Units=GPa)
#
#
# Indices 1 2 3 4 5 6 
#
# 1 137.8376 49.9526 42.8744 0.0189 -7.5675 0.0187
# 2 49.9526 78.5838 22.2448 -0.5904 -19.5228 -0.0777
# 3 42.8744 22.2448 100.3136 0.4135 2.8282 0.0447
# 4 0.0189 -0.5904 0.4135 23.9300 -0.3874 -1.7027
# 5 -7.5675 -19.5228 2.8282 -0.3874 30.1030 0.0102
# 6 0.0187 -0.0777 0.0447 -1.7027 0.0102 50.3184
#
#
#
# Elastic Compliance Matrix: (Units=1/GPa)
#
#
# Indices 1 2 3 4 5 6 
#
# 1 0.010300 -0.005921 -0.003062 -0.000118 -0.000965 -0.000014
# 2 -0.005921 0.020046 -0.002248 0.000732 0.011733 0.000058
# 3 -0.003062 -0.002248 0.011871 -0.000314 -0.003347 -0.000023
# 4 -0.000118 0.000732 -0.000314 0.041930 0.001014 0.001420
# 5 -0.000965 0.011733 -0.003347 0.001014 0.040913 0.000047
# 6 -0.000014 0.000058 -0.000023 0.001420 0.000047 0.019922
#
#
# Mechanical properties :
#
#
# Convention : Reuss Voigt Hill
#
# Bulk Modulus (GPa) = 50.61944 60.76432 55.69188
# Shear Modulus (GPa) = 28.73077 34.31448 31.52263
#
# Velocity S-wave (km/s) = 3.60572 3.94055 3.77685
# Velocity P-wave (km/s) = 6.34360 6.94269 6.64989
#
# Compressibility (1/GPa) = 0.01975526
#
# Stress axis : x y z
#
# Youngs Moduli (GPa) = 97.08575 49.88535 84.23541
#
# Poissons Ratio (x) = 0.29539 0.25789
# Poissons Ratio (y) = 0.57488 0.18938
# Poissons Ratio (z) = 0.29723 0.11216
#
# Static dielectric constant tensor:
#      x y z
#    x 1.812200 0.000080 -0.008160 
#    y 0.000080 1.830310 -0.000140 
#    z -0.008160 -0.000140 1.773060 
# 
# From -- ./inp_files/297004.got.cif
#   From: 2010.05.17/outbox.cif.g08.bks.cpg/sg15_149_cif.got.tgz:297004.got - 2010.06.03 18:47:42.
