data_PCOD9299017
_publ_section_title
;
Structure prediction by ZEFSAII (Michael W. Deem and Ramdas Pophale) SiO2 
 PCOD9299017
Probable space group: C 2/C
;
_chemical_formula_sum "Si O2"
_cell_formula_units_Z 28
_cell_length_a 10.118430
_cell_length_b 14.597388
_cell_length_c 7.486237
_cell_angle_alpha 90.000000
_cell_angle_beta 103.941958
_cell_angle_gamma 90.000000
_cell_volume 1073.162353
_symmetry_space_group_name_H-M "C 2/C"
_symmetry_group_IT_number 15
_symmetry_cell_setting 'monoclinic'
loop_
_space_group_symop_operation_xyz
x,y,z
-x,y,1/2-z
-x,-y,-z
x,-y,1/2+z
1/2+x,1/2+y,z
1/2-x,1/2+y,1/2-z
1/2-x,1/2-y,-z
1/2+x,1/2-y,1/2+z
loop_
_atom_site_type_symbol
_atom_site_label
_atom_site_fract_x
_atom_site_fract_y
_atom_site_fract_z
Si Si1 0.121088 0.681850 0.663399
Si Si2 0.783423 0.125194 0.206496
Si Si3 0.500000 0.831406 0.750000
Si Si4 0.638622 0.554782 0.900716
O O1 0.183679 0.767674 0.792133
O O2 0.237035 0.609204 0.652387
O O3 0.000000 0.645627 0.750000
O O4 0.063994 0.715082 0.449128
O O5 0.626066 0.113911 0.208671
O O6 0.870829 0.091847 0.403394
O O7 0.821026 0.052232 0.070879
O O8 0.500000 0.569224 0.750000
#
# Coordination Sequence:
#
# PCOD9299017 Si02
#       4
#     8   8   4   8
#     4  11  27  46  76 104 139 192 234 290 354 415
#     4  11  26  44  73 103 141 189 231 293 354 412
#     4  10  24  46  74 104 146 178 242 288 352 418
#     4  11  25  46  71 104 145 182 234 291 355 418
#
# _framework density 26.091111000000001
#
# number of rings (size 3 to 8) (size 9 to 14) (size 15 to 20)
#    0.000    1.143    0.000    5.143   14.000    3.429 
#    0.000    0.000    0.000    0.000    0.000    0.000 
#    0.000    0.000    0.000    0.000    0.000    0.000 
#
# Total GULP energy -78418.406796 kJ/mol
# GULP energy per Si atom -5601.314771 kJ/mol
# Density = 2.603173 g / cm^3
# Si number density = 26.091111 Si / 1000 Ang^3
#
#
#
# Elastic Constant Matrix: (Units=GPa)
#
#
# Indices 1 2 3 4 5 6 
#
# 1 155.6277 30.5963 7.8870 0.0000 9.9028 0.0000
# 2 30.5963 96.9015 17.1007 0.0000 -1.3992 0.0000
# 3 7.8870 17.1007 135.1336 0.0000 5.1938 0.0000
# 4 0.0000 0.0000 0.0000 14.6708 0.0000 5.5982
# 5 9.9028 -1.3992 5.1938 0.0000 40.7672 0.0000
# 6 0.0000 0.0000 0.0000 5.5982 0.0000 -21.8032
#
#
#
# Elastic Compliance Matrix: (Units=1/GPa)
#
#
# Indices 1 2 3 4 5 6 
#
# 1 0.006977 -0.002218 -0.000059 0.000000 -0.001763 0.000000
# 2 -0.002218 0.011272 -0.001339 0.000000 0.001096 0.000000
# 3 -0.000059 -0.001339 0.007611 0.000000 -0.001001 0.000000
# 4 0.000000 0.000000 0.000000 0.062080 0.000000 0.015940
# 5 -0.001763 0.001096 -0.001001 0.000000 0.025123 0.000000
# 6 0.000000 0.000000 0.000000 0.015940 0.000000 -0.041772
#
#
# Mechanical properties :
#
#
# Convention : Reuss Voigt Hill
#
# Bulk Modulus (GPa) = 53.68049 55.42567 54.55308
# Shear Modulus (GPa) = 59.00900 28.86556 43.93728
#
# Velocity S-wave (km/s) = 4.76084 3.32977 4.10810
# Velocity P-wave (km/s) = 7.13020 6.00603 6.59212
#
# Compressibility (1/GPa) = 0.01862874
#
# Stress axis : x y z
#
# Youngs Moduli (GPa) = 143.33148 88.71351 131.38080
#
# Poissons Ratio (x) = 0.19677 0.00772
# Poissons Ratio (y) = 0.31791 0.17594
# Poissons Ratio (z) = 0.00842 0.11880
#
# Static dielectric constant tensor:
#      x y z
#    x 2.000780 0.000000 -0.002840 
#    y 0.000000 2.037180 0.000000 
#    z -0.002840 0.000000 2.099780 
# 
# From -- ./inp_files/27821.got.cif
#   From: 2010.05.17/outbox.cif.g08.bks.cpg/sg15_14_cif.got.tgz:27821.got - 2010.06.03 18:47:42.
