data_PCOD9299821
_publ_section_title
;
Structure prediction by ZEFSAII (Michael W. Deem and Ramdas Pophale) SiO2 
 PCOD9299821
Probable space group: C 2/C
;
_chemical_formula_sum "Si O2"
_cell_formula_units_Z 44
_cell_length_a 15.811907
_cell_length_b 17.693489
_cell_length_c 8.508512
_cell_angle_alpha 90.000000
_cell_angle_beta 55.550742
_cell_angle_gamma 90.000000
_cell_volume 1962.949615
_symmetry_space_group_name_H-M "C 2/C"
_symmetry_group_IT_number 15
_symmetry_cell_setting 'monoclinic'
loop_
_space_group_symop_operation_xyz
x,y,z
-x,y,1/2-z
-x,-y,-z
x,-y,1/2+z
1/2+x,1/2+y,z
1/2-x,1/2+y,1/2-z
1/2-x,1/2-y,-z
1/2+x,1/2-y,1/2+z
loop_
_atom_site_type_symbol
_atom_site_label
_atom_site_fract_x
_atom_site_fract_y
_atom_site_fract_z
Si Si1 0.000000 0.533412 0.750000
Si Si2 0.662791 0.751040 0.726338
Si Si3 0.357584 0.526803 0.104371
Si Si4 0.612439 0.609446 0.124225
Si Si5 0.750000 0.250000 0.500000
Si Si6 0.000000 0.863131 0.250000
Si Si7 0.124760 0.418245 0.834541
O O1 0.935348 0.479190 0.705683
O O2 0.075701 0.581395 0.560628
O O3 0.750000 0.750000 0.500000
O O4 0.709746 0.741063 0.852661
O O5 0.574993 0.690912 0.773672
O O6 0.615433 0.835011 0.775462
O O7 0.389204 0.541166 0.249363
O O8 0.241033 0.553772 0.210066
O O9 0.365185 0.438436 0.054875
O O10 0.428832 0.583918 0.932196
O O11 0.500000 0.646257 0.250000
O O12 0.695456 0.669345 0.092892
#
# Coordination Sequence:
#
# PCOD9299821 Si02
#       7
#     4   8   8   8   4   4   8
#     4  10  25  46  76 103 150 202 268 330 385 476
#     4  12  26  50  76 112 163 210 259 325 400 477
#     4  12  25  46  78 114 148 201 263 321 403 466
#     4  12  26  47  74 113 154 201 256 324 393 470
#     4  12  28  48  72 116 156 208 260 322 392 478
#     4  12  25  48  78 113 160 210 260 328 397 478
#     4  11  23  49  71 113 148 207 265 322 401 473
#
# _framework density 22.415247999999998
#
# number of rings (size 3 to 8) (size 9 to 14) (size 15 to 20)
#    0.000    0.364    4.545    3.273    2.545    1.455 
#   11.455    0.000    0.000    0.000    0.000    0.000 
#    0.000    0.000    0.000    0.000    0.000    0.000 
#
# Total GULP energy -122622.608105 kJ/mol
# GULP energy per Si atom -5573.754914 kJ/mol
# Density = 2.236423 g / cm^3
# Si number density = 22.415248 Si / 1000 Ang^3
#
#
#
# Elastic Constant Matrix: (Units=GPa)
#
#
# Indices 1 2 3 4 5 6 
#
# 1 135.4038 53.7156 56.5975 0.0000 -1.9675 0.0000
# 2 53.7156 141.7473 54.6055 0.0000 -13.0369 0.0000
# 3 56.5975 54.6055 125.2135 0.0000 -11.5142 0.0000
# 4 0.0000 0.0000 0.0000 27.0411 0.0000 2.3321
# 5 -1.9675 -13.0369 -11.5142 0.0000 42.5952 0.0000
# 6 0.0000 0.0000 0.0000 2.3321 0.0000 54.3845
#
#
#
# Elastic Compliance Matrix: (Units=1/GPa)
#
#
# Indices 1 2 3 4 5 6 
#
# 1 0.009803 -0.002498 -0.003456 0.000000 -0.001246 0.000000
# 2 -0.002498 0.009229 -0.002714 0.000000 0.001976 0.000000
# 3 -0.003456 -0.002714 0.010912 0.000000 0.001960 0.000000
# 4 0.000000 0.000000 0.000000 0.037118 0.000000 -0.001592
# 5 -0.001246 0.001976 0.001960 0.000000 0.024554 0.000000
# 6 0.000000 0.000000 0.000000 -0.001592 0.000000 0.018456
#
#
# Mechanical properties :
#
#
# Convention : Reuss Voigt Hill
#
# Bulk Modulus (GPa) = 79.31630 81.35575 80.33603
# Shear Modulus (GPa) = 37.99113 40.63387 39.31250
#
# Velocity S-wave (km/s) = 4.12136 4.26229 4.19242
# Velocity P-wave (km/s) = 7.62294 7.78437 7.70408
#
# Compressibility (1/GPa) = 0.01260775
#
# Stress axis : x y z
#
# Youngs Moduli (GPa) = 102.01138 108.35922 91.64015
#
# Poissons Ratio (x) = 0.27068 0.31672
# Poissons Ratio (y) = 0.25482 0.24869
# Poissons Ratio (z) = 0.35257 0.29406
#
# Static dielectric constant tensor:
#      x y z
#    x 1.858510 0.000000 0.032500 
#    y 0.000000 1.768900 0.000000 
#    z 0.032500 0.000000 1.923370 
# 
# From -- ./inp_files/48909.got.cif
#   From: 2010.05.17/outbox.cif.g08.bks.cpg/sg15_25_cif.got.tgz:48909.got - 2010.06.03 18:47:42.
