data_PCOD9299855
_publ_section_title
;
Structure prediction by ZEFSAII (Michael W. Deem and Ramdas Pophale) SiO2 
 PCOD9299855
Probable space group: C 2/C
;
_chemical_formula_sum "Si O2"
_cell_formula_units_Z 28
_cell_length_a 9.395564
_cell_length_b 26.051344
_cell_length_c 5.302539
_cell_angle_alpha 90.000000
_cell_angle_beta 101.984729
_cell_angle_gamma 90.000000
_cell_volume 1269.596867
_symmetry_space_group_name_H-M "C 2/C"
_symmetry_group_IT_number 15
_symmetry_cell_setting 'monoclinic'
loop_
_space_group_symop_operation_xyz
x,y,z
-x,y,1/2-z
-x,-y,-z
x,-y,1/2+z
1/2+x,1/2+y,z
1/2-x,1/2+y,1/2-z
1/2-x,1/2-y,-z
1/2+x,1/2-y,1/2+z
loop_
_atom_site_type_symbol
_atom_site_label
_atom_site_fract_x
_atom_site_fract_y
_atom_site_fract_z
Si Si1 0.000000 0.710582 0.250000
Si Si2 0.349458 0.133774 0.828316
Si Si3 0.173286 0.032392 0.821570
Si Si4 0.914020 0.811227 0.464347
O O1 0.917479 0.750225 0.407015
O O2 0.110897 0.674973 0.442076
O O3 0.500000 0.119797 0.750000
O O4 0.267056 0.083466 0.891478
O O5 0.241256 0.162393 0.596945
O O6 0.000000 0.043416 0.750000
O O7 0.205029 0.005863 0.564584
O O8 0.000000 0.821557 0.750000
O O9 0.000000 0.832159 0.250000
#
# Coordination Sequence:
#
# PCOD9299855 Si02
#       4
#     4   8   8   8
#     4  10  26  44  70 106 152 190 238 286 352 432
#     4  12  27  43  75 110 147 186 237 299 364 412
#     4  10  25  50  76 102 137 185 241 293 354 433
#     4  10  25  47  71  97 147 197 244 280 341 428
#
# _framework density 22.054245000000002
#
# number of rings (size 3 to 8) (size 9 to 14) (size 15 to 20)
#    0.857    0.571    0.000    2.571    8.000    6.857 
#    0.000    0.000    0.000    0.000    0.000    0.000 
#    0.000    0.000    0.000    0.000    0.000    0.000 
#
# Total GULP energy -78329.469005 kJ/mol
# GULP energy per Si atom -5594.962072 kJ/mol
# Density = 2.200405 g / cm^3
# Si number density = 22.054245 Si / 1000 Ang^3
#
#
#
# Elastic Constant Matrix: (Units=GPa)
#
#
# Indices 1 2 3 4 5 6 
#
# 1 84.9038 44.2072 20.6667 0.0000 15.6688 0.0000
# 2 44.2072 106.8864 25.1745 0.0000 23.8236 0.0000
# 3 20.6667 25.1745 128.7407 0.0000 20.4941 0.0000
# 4 0.0000 0.0000 0.0000 314.3176 0.0000 -40.1961
# 5 15.6688 23.8236 20.4941 0.0000 35.0049 0.0000
# 6 0.0000 0.0000 0.0000 -40.1961 0.0000 75.8333
#
#
#
# Elastic Compliance Matrix: (Units=1/GPa)
#
#
# Indices 1 2 3 4 5 6 
#
# 1 0.015381 -0.005569 -0.000979 0.000000 -0.002522 0.000000
# 2 -0.005569 0.013178 -0.000719 0.000000 -0.006055 0.000000
# 3 -0.000979 -0.000719 0.008731 0.000000 -0.004184 0.000000
# 4 0.000000 0.000000 0.000000 0.003413 0.000000 0.001809
# 5 -0.002522 -0.006055 -0.004184 0.000000 0.036267 0.000000
# 6 0.000000 0.000000 0.000000 0.001809 0.000000 0.014146
#
#
# Mechanical properties :
#
#
# Convention : Reuss Voigt Hill
#
# Bulk Modulus (GPa) = 43.94216 55.62528 49.78372
# Shear Modulus (GPa) = 44.15590 100.39665 72.27627
#
# Velocity S-wave (km/s) = 4.47939 6.75436 5.73090
# Velocity P-wave (km/s) = 6.83528 9.27930 8.14943
#
# Compressibility (1/GPa) = 0.02275719
#
# Stress axis : x y z
#
# Youngs Moduli (GPa) = 65.01410 75.88465 114.52928
#
# Poissons Ratio (x) = 0.42260 0.11209
# Poissons Ratio (y) = 0.36206 0.08235
# Poissons Ratio (z) = 0.06363 0.05456
#
# Static dielectric constant tensor:
#      x y z
#    x 1.881990 0.000000 -0.044280 
#    y 0.000000 1.787080 0.000000 
#    z -0.044280 0.000000 1.818880 
# 
# From -- ./inp_files/2058.got.cif
#   From: 2010.05.17/outbox.cif.g08.bks.cpg/sg15_2_cif.got.tgz:2058.got - 2010.06.03 18:47:42.
