data_PCOD9299969
_publ_section_title
;
Structure prediction by ZEFSAII (Michael W. Deem and Ramdas Pophale) SiO2 
 PCOD9299969
Probable space group: C 2/C
;
_chemical_formula_sum "Si O2"
_cell_formula_units_Z 20
_cell_length_a 10.073494
_cell_length_b 13.505600
_cell_length_c 9.682622
_cell_angle_alpha 90.000000
_cell_angle_beta 148.080029
_cell_angle_gamma 90.000000
_cell_volume 696.505278
_symmetry_space_group_name_H-M "C 2/C"
_symmetry_group_IT_number 15
_symmetry_cell_setting 'monoclinic'
loop_
_space_group_symop_operation_xyz
x,y,z
-x,y,1/2-z
-x,-y,-z
x,-y,1/2+z
1/2+x,1/2+y,z
1/2-x,1/2+y,1/2-z
1/2-x,1/2-y,-z
1/2+x,1/2-y,1/2+z
loop_
_atom_site_type_symbol
_atom_site_label
_atom_site_fract_x
_atom_site_fract_y
_atom_site_fract_z
Si Si1 0.227710 0.030150 0.557459
Si Si2 0.959681 0.786922 0.484366
Si Si3 0.500000 0.834890 0.750000
O O1 0.500000 0.070687 0.750000
O O2 0.142003 0.100039 0.607303
O O3 0.298658 0.914605 0.631402
O O4 0.000000 0.037482 0.250000
O O5 0.204773 0.773456 0.796560
O O6 0.061273 0.733206 0.434694
#
# Coordination Sequence:
#
# PCOD9299969 Si02
#       3
#     8   8   4
#     4  10  25  50  76 110 151 196 251 309 374 449
#     4  12  27  46  81 109 150 200 249 310 378 443
#     4  10  28  50  78 106 154 198 250 308 378 444
#
# _framework density 28.714789
#
# number of rings (size 3 to 8) (size 9 to 14) (size 15 to 20)
#    1.200    0.000    0.000    3.600    5.600    8.000 
#    0.000    0.000    4.400    0.000    0.000    0.000 
#    0.000    0.000    0.000    0.000    0.000    0.000 
#
# Total GULP energy -55891.667632 kJ/mol
# GULP energy per Si atom -5589.166763 kJ/mol
# Density = 2.864943 g / cm^3
# Si number density = 28.714789 Si / 1000 Ang^3
#
#
#
# Elastic Constant Matrix: (Units=GPa)
#
#
# Indices 1 2 3 4 5 6 
#
# 1 151.4209 89.0383 49.2510 0.0003 37.3333 0.0001
# 2 89.0383 269.9776 35.7405 0.0001 -2.3614 0.0001
# 3 49.2510 35.7405 188.2513 0.0009 35.8028 0.0007
# 4 0.0003 0.0001 0.0009 51.0175 0.0005 1.6358
# 5 37.3333 -2.3614 35.8028 0.0005 59.1086 0.0003
# 6 0.0001 0.0001 0.0007 1.6358 0.0003 47.3751
#
#
#
# Elastic Compliance Matrix: (Units=1/GPa)
#
#
# Indices 1 2 3 4 5 6 
#
# 1 0.010392 -0.003360 -0.000912 0.000000 -0.006145 0.000000
# 2 -0.003360 0.004909 -0.000558 0.000000 0.002657 0.000000
# 3 -0.000912 -0.000558 0.006274 0.000000 -0.003247 0.000000
# 4 0.000000 0.000000 0.000000 0.019623 0.000000 -0.000678
# 5 -0.006145 0.002657 -0.003247 0.000000 0.022872 0.000000
# 6 0.000000 0.000000 0.000000 -0.000678 0.000000 0.021132
#
#
# Mechanical properties :
#
#
# Convention : Reuss Voigt Hill
#
# Bulk Modulus (GPa) = 83.93259 106.41217 95.17238
# Shear Modulus (GPa) = 50.58994 60.54156 55.56575
#
# Velocity S-wave (km/s) = 4.20194 4.59669 4.40374
# Velocity P-wave (km/s) = 7.26877 8.08155 7.68591
#
# Compressibility (1/GPa) = 0.01191432
#
# Stress axis : x y z
#
# Youngs Moduli (GPa) = 96.23007 203.69366 159.38599
#
# Poissons Ratio (x) = 0.68445 0.14536
# Poissons Ratio (y) = 0.32335 0.08897
# Poissons Ratio (z) = 0.08776 0.11370
#
# Static dielectric constant tensor:
#      x y z
#    x 2.317330 0.000000 0.074660 
#    y 0.000000 2.249430 0.000000 
#    z 0.074660 0.000000 2.300650 
# 
# From -- ./inp_files/2964.got.cif
#   From: 2010.05.17/outbox.cif.g08.bks.cpg/sg15_2_cif.got.tgz:2964.got - 2010.06.03 18:47:42.
