data_PCOD9299353
_publ_section_title
;
Structure prediction by ZEFSAII (Michael W. Deem and Ramdas Pophale) SiO2 
 PCOD9299353
Probable space group: C 2/C
;
_chemical_formula_sum "Si O2"
_cell_formula_units_Z 56
_cell_length_a 8.004239
_cell_length_b 25.703425
_cell_length_c 17.096787
_cell_angle_alpha 90.000000
_cell_angle_beta 129.503138
_cell_angle_gamma 90.000000
_cell_volume 2714.013435
_symmetry_space_group_name_H-M "C 2/C"
_symmetry_group_IT_number 15
_symmetry_cell_setting 'monoclinic'
loop_
_space_group_symop_operation_xyz
x,y,z
-x,y,1/2-z
-x,-y,-z
x,-y,1/2+z
1/2+x,1/2+y,z
1/2-x,1/2+y,1/2-z
1/2-x,1/2-y,-z
1/2+x,1/2-y,1/2+z
loop_
_atom_site_type_symbol
_atom_site_label
_atom_site_fract_x
_atom_site_fract_y
_atom_site_fract_z
Si Si1 0.222488 0.258431 0.114837
Si Si2 0.258077 0.362451 0.830771
Si Si3 0.000000 0.508720 0.750000
Si Si4 0.567204 0.432467 0.182501
Si Si5 0.293556 0.242218 0.421758
Si Si6 0.321058 0.544632 0.459693
Si Si7 0.328005 0.311072 0.295126
Si Si8 0.000000 0.842179 0.750000
O O1 0.212451 0.197459 0.133424
O O2 0.175645 0.290591 0.180378
O O3 0.455327 0.277576 0.156645
O O4 0.047370 0.271347 0.997714
O O5 0.361610 0.402507 0.922934
O O6 0.366819 0.371124 0.778192
O O7 0.000000 0.370250 0.750000
O O8 0.210484 0.540107 0.781040
O O9 0.099778 0.476815 0.853959
O O10 0.500000 0.448329 0.250000
O O11 0.619459 0.371106 0.196923
O O12 0.364356 0.442474 0.063469
O O13 0.250000 0.250000 0.500000
O O14 0.254103 0.293236 0.358123
O O15 0.163406 0.195542 0.344650
O O16 0.500000 0.500000 0.500000
#
# Coordination Sequence:
#
# PCOD9299353 Si02
#       8
#     8   8   4   8   8   8   8   4
#     4  11  21  39  65  94 141 186 215 272 333 406
#     4  12  22  46  71  99 139 185 229 286 353 409
#     4  10  24  49  72 100 132 184 235 304 364 404
#     4  11  24  45  73 103 139 181 235 287 360 430
#     4  12  22  37  60  90 143 191 226 267 328 394
#     4  10  24  49  74 100 137 177 237 311 359 405
#     4  11  22  42  59 101 142 177 228 272 327 427
#     4  12  26  41  60 106 138 184 245 274 324 432
#
# _framework density 20.633647
#
# number of rings (size 3 to 8) (size 9 to 14) (size 15 to 20)
#    0.000    0.857    6.429    1.286    0.000    3.429 
#    7.714    0.000    0.000    0.000    0.000    0.000 
#    0.000    0.000    0.000    0.000    0.000    0.000 
#
# Total GULP energy -156275.496522 kJ/mol
# GULP energy per Si atom -5581.267733 kJ/mol
# Density = 2.058668 g / cm^3
# Si number density = 20.633647 Si / 1000 Ang^3
#
#
#
# Elastic Constant Matrix: (Units=GPa)
#
#
# Indices 1 2 3 4 5 6 
#
# 1 118.1001 21.2681 52.3810 0.0000 -16.8764 0.0000
# 2 21.2681 89.5751 45.0906 0.0000 -6.5059 0.0000
# 3 52.3810 45.0906 186.2116 0.0000 -12.2696 0.0000
# 4 0.0000 0.0000 0.0000 42.3161 0.0000 10.4822
# 5 -16.8764 -6.5059 -12.2696 0.0000 45.2755 0.0000
# 6 0.0000 0.0000 0.0000 10.4822 0.0000 11.2063
#
#
#
# Elastic Compliance Matrix: (Units=1/GPa)
#
#
# Indices 1 2 3 4 5 6 
#
# 1 0.010143 -0.000973 -0.002421 0.000000 0.002985 0.000000
# 2 -0.000973 0.012852 -0.002791 0.000000 0.000728 0.000000
# 3 -0.002421 -0.002791 0.006762 0.000000 0.000529 0.000000
# 4 0.000000 0.000000 0.000000 0.030759 0.000000 -0.028771
# 5 0.002985 0.000728 0.000529 0.000000 0.023448 0.000000
# 6 0.000000 0.000000 0.000000 -0.028771 0.000000 0.116148
#
#
# Mechanical properties :
#
#
# Convention : Reuss Voigt Hill
#
# Bulk Modulus (GPa) = 57.50927 70.15180 63.83054
# Shear Modulus (GPa) = 22.90677 38.10272 30.50474
#
# Velocity S-wave (km/s) = 3.33553 4.30191 3.84917
# Velocity P-wave (km/s) = 6.53961 7.66471 7.12440
#
# Compressibility (1/GPa) = 0.01738850
#
# Stress axis : x y z
#
# Youngs Moduli (GPa) = 98.59133 77.80655 147.88909
#
# Poissons Ratio (x) = 0.07569 0.35803
# Poissons Ratio (y) = 0.09591 0.41269
# Poissons Ratio (z) = 0.23868 0.21712
#
# Static dielectric constant tensor:
#      x y z
#    x 1.871010 0.000000 0.004040 
#    y 0.000000 1.725640 0.000000 
#    z 0.004040 0.000000 1.751880 
# 
# From -- ./inp_files/193353.got.cif
#   From: 2010.05.17/outbox.cif.g08.bks.cpg/sg15_97_cif.got.tgz:193353.got - 2010.06.03 18:47:42.
