data_PCOD9299436
_publ_section_title
;
Structure prediction by ZEFSAII (Michael W. Deem and Ramdas Pophale) SiO2 
 PCOD9299436
Probable space group: C 2/C
;
_chemical_formula_sum "Si O2"
_cell_formula_units_Z 60
_cell_length_a 9.270291
_cell_length_b 11.177862
_cell_length_c 26.175638
_cell_angle_alpha 90.000000
_cell_angle_beta 98.629031
_cell_angle_gamma 90.000000
_cell_volume 2681.670097
_symmetry_space_group_name_H-M "C 2/C"
_symmetry_group_IT_number 15
_symmetry_cell_setting 'monoclinic'
loop_
_space_group_symop_operation_xyz
x,y,z
-x,y,1/2-z
-x,-y,-z
x,-y,1/2+z
1/2+x,1/2+y,z
1/2-x,1/2+y,1/2-z
1/2-x,1/2-y,-z
1/2+x,1/2-y,1/2+z
loop_
_atom_site_type_symbol
_atom_site_label
_atom_site_fract_x
_atom_site_fract_y
_atom_site_fract_z
Si Si1 0.958301 0.665081 0.595736
Si Si2 0.026330 0.679776 0.483643
Si Si3 0.711454 0.500407 0.630313
Si Si4 0.338816 0.577542 0.481326
Si Si5 0.222645 0.093416 0.430357
Si Si6 0.715811 0.750958 0.182829
Si Si7 0.000000 0.158224 0.250000
Si Si8 0.922783 0.954053 0.166835
O O1 0.851148 0.573835 0.618868
O O2 0.868410 0.787332 0.584507
O O3 0.003714 0.630474 0.540323
O O4 0.098911 0.694783 0.636684
O O5 0.178127 0.635023 0.469406
O O6 0.053466 0.821811 0.490938
O O7 0.889400 0.638122 0.443464
O O8 0.627918 0.459752 0.574336
O O9 0.753709 0.381509 0.664041
O O10 0.587023 0.569740 0.655496
O O11 0.318269 0.467577 0.518161
O O12 0.180765 0.997123 0.385153
O O13 0.627526 0.735079 0.230797
O O14 0.850960 0.840782 0.190315
O O15 0.935543 0.069443 0.203902
#
# Coordination Sequence:
#
# PCOD9299436 Si02
#       8
#     8   8   8   8   8   8   4   8
#     4  12  24  43  66 104 146 189 239 285 345 409
#     4  11  24  39  61 101 148 198 244 282 332 410
#     4  11  25  44  67 105 147 188 232 283 340 421
#     4  11  24  40  64  97 153 201 237 283 339 401
#     4  12  24  40  66 105 143 195 241 286 339 423
#     4  11  25  51  76 103 137 180 229 295 359 425
#     4  10  24  54  76 104 136 170 228 306 368 426
#     4  11  26  49  76 103 140 178 233 294 361 422
#
# _framework density 22.374117999999999
#
# number of rings (size 3 to 8) (size 9 to 14) (size 15 to 20)
#    0.000    0.800    5.333    1.600    5.600    3.200 
#    0.000    0.000    0.000    0.000    0.000    0.000 
#    0.000    0.000    0.000    0.000    0.000    0.000 
#
# Total GULP energy -167999.668158 kJ/mol
# GULP energy per Si atom -5599.988939 kJ/mol
# Density = 2.232319 g / cm^3
# Si number density = 22.374118 Si / 1000 Ang^3
#
#
#
# Elastic Constant Matrix: (Units=GPa)
#
#
# Indices 1 2 3 4 5 6 
#
# 1 112.9864 47.0401 14.1286 0.0000 -19.3840 0.0000
# 2 47.0401 84.8121 -5.7393 0.0000 -27.2790 0.0000
# 3 14.1286 -5.7393 56.3812 0.0000 -27.0422 0.0000
# 4 0.0000 0.0000 0.0000 22.9798 0.0000 -16.9785
# 5 -19.3840 -27.2790 -27.0422 0.0000 34.3971 0.0000
# 6 0.0000 0.0000 0.0000 -16.9785 0.0000 53.5802
#
#
#
# Elastic Compliance Matrix: (Units=1/GPa)
#
#
# Indices 1 2 3 4 5 6 
#
# 1 0.012578 -0.009197 -0.006721 0.000000 -0.005489 0.000000
# 2 -0.009197 0.030457 0.023284 0.000000 0.037278 0.000000
# 3 -0.006721 0.023284 0.046283 0.000000 0.051066 0.000000
# 4 0.000000 0.000000 0.000000 0.056819 0.000000 0.018005
# 5 -0.005489 0.037278 0.051066 0.000000 0.095689 0.000000
# 6 0.000000 0.000000 0.000000 0.018005 0.000000 0.024369
#
#
# Mechanical properties :
#
#
# Convention : Reuss Voigt Hill
#
# Bulk Modulus (GPa) = 9.61051 40.55982 25.08516
# Shear Modulus (GPa) = 17.47355 35.44143 26.45749
#
# Velocity S-wave (km/s) = 2.79762 3.98431 3.44249
# Velocity P-wave (km/s) = 3.83930 6.27166 5.19971
#
# Compressibility (1/GPa) = 0.10405280
#
# Stress axis : x y z
#
# Youngs Moduli (GPa) = 79.50240 32.83287 21.60597
#
# Poissons Ratio (x) = 0.30195 0.14521
# Poissons Ratio (y) = 0.73116 -0.50308
# Poissons Ratio (z) = 0.53433 -0.76450
#
# Static dielectric constant tensor:
#      x y z
#    x 1.834090 0.000000 -0.011870 
#    y 0.000000 1.838770 0.000000 
#    z -0.011870 0.000000 1.824650 
# 
# From -- ./inp_files/288036.got.cif
#   From: 2010.05.17/outbox.cif.g08.bks.cpg/sg15_145_cif.got.tgz:288036.got - 2010.06.03 18:47:42.
