data_PCOD9299225
_publ_section_title
;
Structure prediction by ZEFSAII (Michael W. Deem and Ramdas Pophale) SiO2 
 PCOD9299225
Probable space group: C 2/C
;
_chemical_formula_sum "Si O2"
_cell_formula_units_Z 44
_cell_length_a 7.780230
_cell_length_b 15.537005
_cell_length_c 17.013472
_cell_angle_alpha 90.000000
_cell_angle_beta 96.743062
_cell_angle_gamma 90.000000
_cell_volume 2042.387297
_symmetry_space_group_name_H-M "C 2/C"
_symmetry_group_IT_number 15
_symmetry_cell_setting 'monoclinic'
loop_
_space_group_symop_operation_xyz
x,y,z
-x,y,1/2-z
-x,-y,-z
x,-y,1/2+z
1/2+x,1/2+y,z
1/2-x,1/2+y,1/2-z
1/2-x,1/2-y,-z
1/2+x,1/2-y,1/2+z
loop_
_atom_site_type_symbol
_atom_site_label
_atom_site_fract_x
_atom_site_fract_y
_atom_site_fract_z
Si Si1 0.396901 0.820548 0.521176
Si Si2 0.887980 0.721375 0.316277
Si Si3 0.683463 0.524011 0.046277
Si Si4 0.500000 0.067440 0.750000
Si Si5 0.638659 0.845943 0.398329
Si Si6 0.814898 0.065845 0.276829
O O1 0.250000 0.750000 0.500000
O O2 0.482417 0.819349 0.612217
O O3 0.547467 0.801778 0.466711
O O4 0.306068 0.912973 0.502856
O O5 0.777125 0.790105 0.358419
O O6 0.763586 0.649542 0.270573
O O7 0.000000 0.758398 0.250000
O O8 0.777476 0.433994 0.066637
O O9 0.657907 0.572996 0.128064
O O10 0.500000 0.500000 0.000000
O O11 0.502646 0.126454 0.673546
O O12 0.330878 0.007517 0.740586
O O13 0.000000 0.043468 0.250000
#
# Coordination Sequence:
#
# PCOD9299225 Si02
#       6
#     8   8   8   4   8   8
#     4  12  27  46  73 106 147 194 248 307 377 450
#     4  12  25  47  73 104 146 191 253 307 375 456
#     4  11  25  47  70 108 142 188 247 309 374 438
#     4  10  24  48  64 108 138 186 246 308 374 442
#     4  11  27  43  74 101 143 190 240 311 371 439
#     4  11  25  44  76 102 143 197 241 302 379 448
#
# _framework density 21.543417000000002
#
# number of rings (size 3 to 8) (size 9 to 14) (size 15 to 20)
#    0.000    0.727    2.727    3.273   11.455    2.909 
#    0.000    0.000    0.000    0.000    0.000    0.000 
#    0.000    0.000    0.000    0.000    0.000    0.000 
#
# Total GULP energy -123083.427354 kJ/mol
# GULP energy per Si atom -5594.701243 kJ/mol
# Density = 2.149438 g / cm^3
# Si number density = 21.543417 Si / 1000 Ang^3
#
#
#
# Elastic Constant Matrix: (Units=GPa)
#
#
# Indices 1 2 3 4 5 6 
#
# 1 134.5665 40.7036 65.1854 0.0000 -13.8787 0.0000
# 2 40.7036 86.2444 30.1048 0.0000 -0.6577 0.0000
# 3 65.1854 30.1048 118.1737 0.0000 -3.7486 0.0000
# 4 0.0000 0.0000 0.0000 34.3584 0.0000 -7.6158
# 5 -13.8787 -0.6577 -3.7486 0.0000 57.1418 0.0000
# 6 0.0000 0.0000 0.0000 -7.6158 0.0000 18.3549
#
#
#
# Elastic Compliance Matrix: (Units=1/GPa)
#
#
# Indices 1 2 3 4 5 6 
#
# 1 0.011269 -0.003465 -0.005259 0.000000 0.002352 0.000000
# 2 -0.003465 0.013792 -0.001627 0.000000 -0.000790 0.000000
# 3 -0.005259 -0.001627 0.011761 0.000000 -0.000524 0.000000
# 4 0.000000 0.000000 0.000000 0.032053 0.000000 0.013299
# 5 0.002352 -0.000790 -0.000524 0.000000 0.018028 0.000000
# 6 0.000000 0.000000 0.000000 0.013299 0.000000 0.060000
#
#
# Mechanical properties :
#
#
# Convention : Reuss Voigt Hill
#
# Bulk Modulus (GPa) = 62.03449 67.88579 64.96014
# Shear Modulus (GPa) = 28.90517 35.50373 32.20445
#
# Velocity S-wave (km/s) = 3.66692 4.06397 3.87054
# Velocity P-wave (km/s) = 6.84003 7.32125 7.08473
#
# Compressibility (1/GPa) = 0.01612007
#
# Stress axis : x y z
#
# Youngs Moduli (GPa) = 88.73520 72.50409 85.02734
#
# Poissons Ratio (x) = 0.25123 0.44716
# Poissons Ratio (y) = 0.30747 0.13837
# Poissons Ratio (z) = 0.46666 0.11799
#
# Static dielectric constant tensor:
#      x y z
#    x 1.830550 0.000000 0.057510 
#    y 0.000000 1.767870 0.000000 
#    z 0.057510 0.000000 1.889050 
# 
# From -- ./inp_files/188917.got.cif
#   From: 2010.05.17/outbox.cif.g08.bks.cpg/sg15_95_cif.got.tgz:188917.got - 2010.06.03 18:47:42.
