data_PCOD9299422
_publ_section_title
;
Structure prediction by ZEFSAII (Michael W. Deem and Ramdas Pophale) SiO2 
 PCOD9299422
Probable space group: C 2/C
;
_chemical_formula_sum "Si O2"
_cell_formula_units_Z 52
_cell_length_a 16.827740
_cell_length_b 9.463367
_cell_length_c 16.638417
_cell_angle_alpha 90.000000
_cell_angle_beta 132.356272
_cell_angle_gamma 90.000000
_cell_volume 1957.988525
_symmetry_space_group_name_H-M "C 2/C"
_symmetry_group_IT_number 15
_symmetry_cell_setting 'monoclinic'
loop_
_space_group_symop_operation_xyz
x,y,z
-x,y,1/2-z
-x,-y,-z
x,-y,1/2+z
1/2+x,1/2+y,z
1/2-x,1/2+y,1/2-z
1/2-x,1/2-y,-z
1/2+x,1/2-y,1/2+z
loop_
_atom_site_type_symbol
_atom_site_label
_atom_site_fract_x
_atom_site_fract_y
_atom_site_fract_z
Si Si1 0.618905 0.653536 0.864363
Si Si2 0.728850 0.093618 0.341228
Si Si3 0.378002 0.879210 0.320091
Si Si4 0.500000 0.125251 0.750000
Si Si5 0.940663 0.214882 0.494289
Si Si6 0.826510 0.188351 0.896598
Si Si7 0.293735 0.905281 0.003683
O O1 0.500000 0.615963 0.750000
O O2 0.677436 0.781867 0.857835
O O3 0.704851 0.525544 0.923971
O O4 0.592432 0.705711 0.936501
O O5 0.843436 0.134842 0.383067
O O6 0.635365 0.039804 0.219094
O O7 0.437608 0.803441 0.283553
O O8 0.430280 0.861742 0.441051
O O9 0.254667 0.826297 0.232751
O O10 0.403196 0.055167 0.630125
O O11 0.054952 0.153854 0.551129
O O12 0.829328 0.340707 0.939853
O O13 0.773645 0.055962 0.911958
O O14 0.250000 0.750000 0.000000
#
# Coordination Sequence:
#
# PCOD9299422 Si02
#       7
#     8   8   8   4   8   8   8
#     4  12  31  56  88 127 185 233 297 365 454 527
#     4  10  26  55  80 123 174 230 288 364 443 530
#     4  10  25  46  86 119 171 222 290 360 438 523
#     4  12  22  46  84 124 178 222 290 354 426 530
#     4  12  24  53  85 125 167 228 288 368 433 524
#     4  10  24  50  86 123 166 224 299 358 434 527
#     4  12  25  51  85 134 167 236 298 355 443 540
#
# _framework density 26.557867000000002
#
# number of rings (size 3 to 8) (size 9 to 14) (size 15 to 20)
#    0.923    0.000    3.077    2.769    4.308    0.000 
#    8.308    4.615    0.000    0.000    0.000    0.000 
#    0.000    0.000    0.000    0.000    0.000    0.000 
#
# Total GULP energy -144785.745185 kJ/mol
# GULP energy per Si atom -5568.682507 kJ/mol
# Density = 2.649742 g / cm^3
# Si number density = 26.557867 Si / 1000 Ang^3
#
#
#
# Elastic Constant Matrix: (Units=GPa)
#
#
# Indices 1 2 3 4 5 6 
#
# 1 142.9705 76.3986 67.6158 0.0000 44.4074 0.0000
# 2 76.3986 168.1081 84.7829 0.0000 13.1512 0.0000
# 3 67.6158 84.7829 152.6918 0.0000 34.2305 0.0000
# 4 0.0000 0.0000 0.0000 42.4444 0.0000 1.2294
# 5 44.4074 13.1512 34.2305 0.0000 55.9145 0.0000
# 6 0.0000 0.0000 0.0000 1.2294 0.0000 29.2587
#
#
#
# Elastic Compliance Matrix: (Units=1/GPa)
#
#
# Indices 1 2 3 4 5 6 
#
# 1 0.012446 -0.004386 -0.001265 0.000000 -0.008078 0.000000
# 2 -0.004386 0.009857 -0.004395 0.000000 0.003856 0.000000
# 3 -0.001265 -0.004395 0.010539 0.000000 -0.004414 0.000000
# 4 0.000000 0.000000 0.000000 0.023589 0.000000 -0.000991
# 5 -0.008078 0.003856 -0.004414 0.000000 0.026095 0.000000
# 6 0.000000 0.000000 0.000000 -0.000991 0.000000 0.034220
#
#
# Mechanical properties :
#
#
# Convention : Reuss Voigt Hill
#
# Bulk Modulus (GPa) = 78.43523 102.37390 90.40456
# Shear Modulus (GPa) = 35.43894 41.18840 38.31367
#
# Velocity S-wave (km/s) = 3.65691 3.94241 3.80234
# Velocity P-wave (km/s) = 6.88684 7.70420 7.30695
#
# Compressibility (1/GPa) = 0.01274937
#
# Stress axis : x y z
#
# Youngs Moduli (GPa) = 80.34941 101.45155 94.88443
#
# Poissons Ratio (x) = 0.44499 0.12001
# Poissons Ratio (y) = 0.35243 0.41703
# Poissons Ratio (z) = 0.10162 0.44590
#
# Static dielectric constant tensor:
#      x y z
#    x 2.711600 0.000000 -0.383280 
#    y 0.000000 2.227620 0.000000 
#    z -0.383280 0.000000 2.285580 
# 
# From -- ./inp_files/211111.got.cif
#   From: 2010.05.17/outbox.cif.g08.bks.cpg/sg15_106_cif.got.tgz:211111.got - 2010.06.03 18:47:42.
