data_PCOD9299158
_publ_section_title
;
Structure prediction by ZEFSAII (Michael W. Deem and Ramdas Pophale) SiO2 
 PCOD9299158
Probable space group: C 2/C
;
_chemical_formula_sum "Si O2"
_cell_formula_units_Z 36
_cell_length_a 4.938615
_cell_length_b 16.437868
_cell_length_c 18.259642
_cell_angle_alpha 90.000000
_cell_angle_beta 79.695422
_cell_angle_gamma 90.000000
_cell_volume 1458.414478
_symmetry_space_group_name_H-M "C 2/C"
_symmetry_group_IT_number 15
_symmetry_cell_setting 'monoclinic'
loop_
_space_group_symop_operation_xyz
x,y,z
-x,y,1/2-z
-x,-y,-z
x,-y,1/2+z
1/2+x,1/2+y,z
1/2-x,1/2+y,1/2-z
1/2-x,1/2-y,-z
1/2+x,1/2-y,1/2+z
loop_
_atom_site_type_symbol
_atom_site_label
_atom_site_fract_x
_atom_site_fract_y
_atom_site_fract_z
Si Si1 0.770190 0.359505 0.699751
Si Si2 0.270992 0.127818 0.627726
Si Si3 0.500000 0.796213 0.250000
Si Si4 0.267328 0.962103 0.563877
Si Si5 0.644921 0.669711 0.964120
O O1 0.500000 0.400551 0.750000
O O2 0.659439 0.268273 0.690445
O O3 0.875789 0.403414 0.622749
O O4 0.000000 0.354755 0.750000
O O5 0.291391 0.152719 0.711126
O O6 0.590515 0.133007 0.589967
O O7 0.101825 0.184825 0.580430
O O8 0.150894 0.039338 0.613779
O O9 0.072398 0.902646 0.525793
O O10 0.500000 0.000000 0.500000
O O11 0.750000 0.750000 0.000000
#
# Coordination Sequence:
#
# PCOD9299158 Si02
#       5
#     8   8   4   8   8
#     4  10  25  43  71  98 140 186 235 288 356 425
#     4  11  25  41  66 102 134 180 227 293 342 421
#     4  10  26  44  70  96 146 180 246 278 366 424
#     4  10  24  47  72 104 145 182 239 294 360 414
#     4  11  24  42  70  98 137 180 234 282 349 414
#
# _framework density 24.684341
#
# number of rings (size 3 to 8) (size 9 to 14) (size 15 to 20)
#    0.667    0.889    0.000    2.667    7.778    7.111 
#    0.000    0.000    0.000    0.000    0.000    0.000 
#    0.000    0.000    0.000    0.000    0.000    0.000 
#
# Total GULP energy -100542.356568 kJ/mol
# GULP energy per Si atom -5585.686476 kJ/mol
# Density = 2.462816 g / cm^3
# Si number density = 24.684341 Si / 1000 Ang^3
#
#
#
# Elastic Constant Matrix: (Units=GPa)
#
#
# Indices 1 2 3 4 5 6 
#
# 1 113.1511 13.1128 41.1133 0.0000 22.9002 0.0000
# 2 13.1128 127.2700 70.6832 0.0000 13.4156 0.0000
# 3 41.1133 70.6832 120.2457 0.0000 33.0947 0.0000
# 4 0.0000 0.0000 0.0000 42.2712 0.0000 -1.0564
# 5 22.9002 13.4156 33.0947 0.0000 53.6637 0.0000
# 6 0.0000 0.0000 0.0000 -1.0564 0.0000 9.6050
#
#
#
# Elastic Compliance Matrix: (Units=1/GPa)
#
#
# Indices 1 2 3 4 5 6 
#
# 1 0.010524 0.001176 -0.003580 0.000000 -0.002577 0.000000
# 2 0.001176 0.011910 -0.007763 0.000000 0.001308 0.000000
# 3 -0.003580 -0.007763 0.015837 0.000000 -0.006298 0.000000
# 4 0.000000 0.000000 0.000000 0.023722 0.000000 0.002609
# 5 -0.002577 0.001308 -0.006298 0.000000 0.023291 0.000000
# 6 0.000000 0.000000 0.000000 0.002609 0.000000 0.104399
#
#
# Mechanical properties :
#
#
# Convention : Reuss Voigt Hill
#
# Bulk Modulus (GPa) = 55.75365 67.83170 61.79268
# Shear Modulus (GPa) = 23.14855 36.82514 29.98685
#
# Velocity S-wave (km/s) = 3.06565 3.86663 3.48920
# Velocity P-wave (km/s) = 5.93014 6.89012 6.42808
#
# Compressibility (1/GPa) = 0.01793605
#
# Stress axis : x y z
#
# Youngs Moduli (GPa) = 95.02228 83.96618 63.14336
#
# Poissons Ratio (x) = -0.09871 0.22606
# Poissons Ratio (y) = -0.11171 0.49017
# Poissons Ratio (z) = 0.34018 0.65181
#
# Static dielectric constant tensor:
#      x y z
#    x 2.012170 0.000000 0.006320 
#    y 0.000000 2.018910 0.000000 
#    z 0.006320 0.000000 2.111590 
# 
# From -- ./inp_files/226519.got.cif
#   From: 2010.05.17/outbox.cif.g08.bks.cpg/sg15_114_cif.got.tgz:226519.got - 2010.06.03 18:47:42.
