data_PCOD9299891
_publ_section_title
;
Structure prediction by ZEFSAII (Michael W. Deem and Ramdas Pophale) SiO2 
 PCOD9299891
Probable space group: C 2/C
;
_chemical_formula_sum "Si O2"
_cell_formula_units_Z 32
_cell_length_a 14.109700
_cell_length_b 7.542668
_cell_length_c 10.954587
_cell_angle_alpha 90.000000
_cell_angle_beta 78.285207
_cell_angle_gamma 90.000000
_cell_volume 1141.555594
_symmetry_space_group_name_H-M "C 2/C"
_symmetry_group_IT_number 15
_symmetry_cell_setting 'monoclinic'
loop_
_space_group_symop_operation_xyz
x,y,z
-x,y,1/2-z
-x,-y,-z
x,-y,1/2+z
1/2+x,1/2+y,z
1/2-x,1/2+y,1/2-z
1/2-x,1/2-y,-z
1/2+x,1/2-y,1/2+z
loop_
_atom_site_type_symbol
_atom_site_label
_atom_site_fract_x
_atom_site_fract_y
_atom_site_fract_z
Si Si1 0.203385 0.218898 0.143896
Si Si2 0.906079 0.998501 0.661845
Si Si3 0.197350 0.411408 0.654312
Si Si4 0.534138 0.799848 0.521760
O O1 0.135689 0.051179 0.193183
O O2 0.308679 0.527465 0.105210
O O3 0.286690 0.196916 0.225864
O O4 0.250000 0.250000 0.000000
O O5 0.963970 0.827334 0.596519
O O6 0.966124 0.176963 0.626027
O O7 0.137860 0.326331 0.561315
O O8 0.147681 0.600532 0.691934
O O9 0.500000 0.000000 0.500000
#
# Coordination Sequence:
#
# PCOD9299891 Si02
#       4
#     8   8   8   8
#     4  10  25  48  84 115 166 236 300 359 450 547
#     4   9  25  49  79 126 167 222 294 370 434 540
#     4  10  25  47  85 113 167 232 290 353 457 531
#     4  11  24  48  87 127 171 220 291 373 446 532
#
# _framework density 28.031925999999999
#
# number of rings (size 3 to 8) (size 9 to 14) (size 15 to 20)
#    1.500    0.500    0.000    0.750    7.000    0.000 
#    4.500    8.750    0.000    0.000    0.000    0.000 
#    0.000    0.000    0.000    0.000    0.000    0.000 
#
# Total GULP energy -89280.021313 kJ/mol
# GULP energy per Si atom -5580.001332 kJ/mol
# Density = 2.796812 g / cm^3
# Si number density = 28.031926 Si / 1000 Ang^3
#
#
#
# Elastic Constant Matrix: (Units=GPa)
#
#
# Indices 1 2 3 4 5 6 
#
# 1 164.8395 63.9424 35.7680 0.0000 41.3473 0.0000
# 2 63.9424 229.5524 65.4720 0.0000 10.4701 0.0000
# 3 35.7680 65.4720 144.7920 0.0000 17.6089 0.0000
# 4 0.0000 0.0000 0.0000 54.2024 0.0000 10.0857
# 5 41.3473 10.4701 17.6089 0.0000 47.2343 0.0000
# 6 0.0000 0.0000 0.0000 10.0857 0.0000 42.6786
#
#
#
# Elastic Compliance Matrix: (Units=1/GPa)
#
#
# Indices 1 2 3 4 5 6 
#
# 1 0.008681 -0.001986 -0.000394 0.000000 -0.007012 0.000000
# 2 -0.001986 0.005459 -0.002139 0.000000 0.001326 0.000000
# 3 -0.000394 -0.002139 0.008245 0.000000 -0.002255 0.000000
# 4 0.000000 0.000000 0.000000 0.019298 0.000000 -0.004560
# 5 -0.007012 0.001326 -0.002255 0.000000 0.027856 0.000000
# 6 0.000000 0.000000 0.000000 -0.004560 0.000000 0.024509
#
#
# Mechanical properties :
#
#
# Convention : Reuss Voigt Hill
#
# Bulk Modulus (GPa) = 74.91842 96.61653 85.76747
# Shear Modulus (GPa) = 46.49631 53.75651 50.12641
#
# Velocity S-wave (km/s) = 4.07712 4.38389 4.23329
# Velocity P-wave (km/s) = 6.99629 7.75668 7.38628
#
# Compressibility (1/GPa) = 0.01334785
#
# Stress axis : x y z
#
# Youngs Moduli (GPa) = 115.19089 183.17797 121.28216
#
# Poissons Ratio (x) = 0.36380 0.04775
# Poissons Ratio (y) = 0.22878 0.25944
# Poissons Ratio (z) = 0.04535 0.39185
#
# Static dielectric constant tensor:
#      x y z
#    x 2.685020 0.000000 -0.506890 
#    y 0.000000 2.364400 0.000000 
#    z -0.506890 0.000000 2.703470 
# 
# From -- ./inp_files/109176.got.cif
#   From: 2010.05.17/outbox.cif.g08.bks.cpg/sg15_55_cif.got.tgz:109176.got - 2010.06.03 18:47:42.
