data_PCOD9299360
_publ_section_title
;
Structure prediction by ZEFSAII (Michael W. Deem and Ramdas Pophale) SiO2 
 PCOD9299360
Probable space group: C 2/C
;
_chemical_formula_sum "Si O2"
_cell_formula_units_Z 48
_cell_length_a 14.125016
_cell_length_b 11.390853
_cell_length_c 13.288105
_cell_angle_alpha 90.000000
_cell_angle_beta 56.250262
_cell_angle_gamma 90.000000
_cell_volume 1777.689698
_symmetry_space_group_name_H-M "C 2/C"
_symmetry_group_IT_number 15
_symmetry_cell_setting 'monoclinic'
loop_
_space_group_symop_operation_xyz
x,y,z
-x,y,1/2-z
-x,-y,-z
x,-y,1/2+z
1/2+x,1/2+y,z
1/2-x,1/2+y,1/2-z
1/2-x,1/2-y,-z
1/2+x,1/2-y,1/2+z
loop_
_atom_site_type_symbol
_atom_site_label
_atom_site_fract_x
_atom_site_fract_y
_atom_site_fract_z
Si Si1 0.503709 0.262582 0.570740
Si Si2 0.289740 0.016380 0.300218
Si Si3 0.745794 0.514217 0.096651
Si Si4 0.172800 0.262255 0.155802
Si Si5 0.468766 0.120427 0.404424
Si Si6 0.596257 0.377514 0.040570
O O1 0.387240 0.257654 0.701980
O O2 0.588380 0.259467 0.613277
O O3 0.504700 0.149538 0.498284
O O4 0.502049 0.369164 0.489700
O O5 0.419856 0.064578 0.213464
O O6 0.208255 0.108743 0.404051
O O7 0.284142 0.894187 0.364168
O O8 0.245530 0.983137 0.214978
O O9 0.756250 0.654117 0.095275
O O10 0.855798 0.456540 0.980176
O O11 0.630217 0.468737 0.108771
O O12 0.426000 0.250369 0.395567
#
# Coordination Sequence:
#
# PCOD9299360 Si02
#       6
#     8   8   8   8   8   8
#     4   9  22  48  68 112 147 200 265 316 397 469
#     4  12  25  48  77 115 158 211 268 319 393 485
#     4  12  24  46  75 112 157 201 266 335 380 465
#     4  11  24  44  76 111 156 210 259 324 399 467
#     4  10  24  49  74 109 155 207 267 316 392 479
#     4  10  25  47  79 111 157 200 269 329 388 468
#
# _framework density 27.001336999999999
#
# number of rings (size 3 to 8) (size 9 to 14) (size 15 to 20)
#    1.000    0.333    3.333    1.000    2.333    3.333 
#    0.000    5.000    0.000    0.000    0.000    0.000 
#    0.000    0.000    0.000    0.000    0.000    0.000 
#
# Total GULP energy -134123.044133 kJ/mol
# GULP energy per Si atom -5588.460172 kJ/mol
# Density = 2.693988 g / cm^3
# Si number density = 27.001337 Si / 1000 Ang^3
#
#
#
# Elastic Constant Matrix: (Units=GPa)
#
#
# Indices 1 2 3 4 5 6 
#
# 1 141.0005 53.1526 48.3761 0.0000 39.1995 0.0000
# 2 53.1526 176.3734 51.5652 0.0000 1.4213 0.0000
# 3 48.3761 51.5652 128.8669 0.0000 2.6825 0.0000
# 4 0.0000 0.0000 0.0000 39.0073 0.0000 13.7756
# 5 39.1995 1.4213 2.6825 0.0000 51.9530 0.0000
# 6 0.0000 0.0000 0.0000 13.7756 0.0000 35.0022
#
#
#
# Elastic Compliance Matrix: (Units=1/GPa)
#
#
# Indices 1 2 3 4 5 6 
#
# 1 0.011427 -0.002461 -0.003130 0.000000 -0.008393 0.000000
# 2 -0.002461 0.006951 -0.001894 0.000000 0.001764 0.000000
# 3 -0.003130 -0.001894 0.009653 0.000000 0.001915 0.000000
# 4 0.000000 0.000000 0.000000 0.029775 0.000000 -0.011718
# 5 -0.008393 0.001764 0.001915 0.000000 0.025434 0.000000
# 6 0.000000 0.000000 0.000000 -0.011718 0.000000 0.033182
#
#
# Mechanical properties :
#
#
# Convention : Reuss Voigt Hill
#
# Bulk Modulus (GPa) = 76.56767 83.60315 80.08541
# Shear Modulus (GPa) = 36.83357 44.73563 40.78460
#
# Velocity S-wave (km/s) = 3.69743 4.07479 3.89069
# Velocity P-wave (km/s) = 6.82983 7.29166 7.06452
#
# Compressibility (1/GPa) = 0.01306034
#
# Stress axis : x y z
#
# Youngs Moduli (GPa) = 87.51061 143.86355 103.59298
#
# Poissons Ratio (x) = 0.35404 0.32428
# Poissons Ratio (y) = 0.21536 0.19624
# Poissons Ratio (z) = 0.27393 0.27252
#
# Static dielectric constant tensor:
#      x y z
#    x 2.302520 0.000000 0.030670 
#    y 0.000000 2.137280 0.000000 
#    z 0.030670 0.000000 2.161200 
# 
# From -- ./inp_files/151843.got.cif
#   From: 2010.05.17/outbox.cif.g08.bks.cpg/sg15_76_cif.got.tgz:151843.got - 2010.06.03 18:47:42.
