data_PCOD9299797
_publ_section_title
;
Structure prediction by ZEFSAII (Michael W. Deem and Ramdas Pophale) SiO2 
 PCOD9299797
Probable space group: C 2/C
;
_chemical_formula_sum "Si O2"
_cell_formula_units_Z 40
_cell_length_a 13.043440
_cell_length_b 13.241955
_cell_length_c 10.400067
_cell_angle_alpha 90.000000
_cell_angle_beta 86.888779
_cell_angle_gamma 90.000000
_cell_volume 1793.658638
_symmetry_space_group_name_H-M "C 2/C"
_symmetry_group_IT_number 15
_symmetry_cell_setting 'monoclinic'
loop_
_space_group_symop_operation_xyz
x,y,z
-x,y,1/2-z
-x,-y,-z
x,-y,1/2+z
1/2+x,1/2+y,z
1/2-x,1/2+y,1/2-z
1/2-x,1/2-y,-z
1/2+x,1/2-y,1/2+z
loop_
_atom_site_type_symbol
_atom_site_label
_atom_site_fract_x
_atom_site_fract_y
_atom_site_fract_z
Si Si1 0.028999 0.360084 0.605327
Si Si2 0.696124 0.163527 0.422493
Si Si3 0.068292 0.004156 0.364440
Si Si4 0.759556 0.444093 0.003475
Si Si5 0.649429 0.690476 0.708179
O O1 0.124734 0.422041 0.546907
O O2 0.065552 0.244397 0.623642
O O3 0.000000 0.399819 0.750000
O O4 0.923594 0.355588 0.534038
O O5 0.750000 0.250000 0.500000
O O6 0.692616 0.214350 0.283010
O O7 0.749427 0.056249 0.436387
O O8 0.105559 0.894918 0.306860
O O9 0.000000 0.046290 0.250000
O O10 0.768922 0.863675 0.386391
O O11 0.173000 0.060277 0.398493
O O12 0.500000 0.500000 0.000000
#
# Coordination Sequence:
#
# PCOD9299797 Si02
#       5
#     8   8   8   8   8
#     4  10  25  46  71  99 150 197 246 308 387 450
#     4  11  24  43  70 103 143 191 250 308 368 448
#     4  12  25  43  74 112 151 192 253 314 384 449
#     4  12  26  46  76 107 149 201 251 313 386 455
#     4  11  25  47  71 106 147 197 248 316 378 451
#
# _framework density 22.300788000000001
#
# number of rings (size 3 to 8) (size 9 to 14) (size 15 to 20)
#    0.000    0.800    4.000    3.000    5.600    0.000 
#    0.000    1.000    0.000    1.200    0.000    0.000 
#    0.000    0.000    0.000    0.000    0.000    0.000 
#
# Total GULP energy -111743.201953 kJ/mol
# GULP energy per Si atom -5587.160098 kJ/mol
# Density = 2.225003 g / cm^3
# Si number density = 22.300788 Si / 1000 Ang^3
#
#
#
# Elastic Constant Matrix: (Units=GPa)
#
#
# Indices 1 2 3 4 5 6 
#
# 1 152.4000 47.1031 65.9443 0.0000 8.8458 0.0000
# 2 47.1031 94.1084 42.8155 0.0000 -16.9238 0.0000
# 3 65.9443 42.8155 96.1445 0.0000 -6.8136 0.0000
# 4 0.0000 0.0000 0.0000 38.9807 0.0000 -1.9116
# 5 8.8458 -16.9238 -6.8136 0.0000 41.5260 0.0000
# 6 0.0000 0.0000 0.0000 -1.9116 0.0000 44.6315
#
#
#
# Elastic Compliance Matrix: (Units=1/GPa)
#
#
# Indices 1 2 3 4 5 6 
#
# 1 0.010456 -0.003317 -0.006018 0.000000 -0.004566 0.000000
# 2 -0.003317 0.015268 -0.004081 0.000000 0.006259 0.000000
# 3 -0.006018 -0.004081 0.016511 0.000000 0.002328 0.000000
# 4 0.000000 0.000000 0.000000 0.025708 0.000000 0.001101
# 5 -0.004566 0.006259 0.002328 0.000000 0.027987 0.000000
# 6 0.000000 0.000000 0.000000 0.001101 0.000000 0.022453
#
#
# Mechanical properties :
#
#
# Convention : Reuss Voigt Hill
#
# Bulk Modulus (GPa) = 64.91868 72.70876 68.81372
# Shear Modulus (GPa) = 33.25585 37.48029 35.36807
#
# Velocity S-wave (km/s) = 3.86585 4.10405 3.98673
# Velocity P-wave (km/s) = 7.00714 7.42510 7.21914
#
# Compressibility (1/GPa) = 0.01540389
#
# Stress axis : x y z
#
# Youngs Moduli (GPa) = 95.63946 65.49484 60.56478
#
# Poissons Ratio (x) = 0.21722 0.36450
# Poissons Ratio (y) = 0.31719 0.24717
# Poissons Ratio (z) = 0.57559 0.26729
#
# Static dielectric constant tensor:
#      x y z
#    x 1.916750 0.000000 0.059950 
#    y 0.000000 1.814310 0.000000 
#    z 0.059950 0.000000 1.890580 
# 
# From -- ./inp_files/133203.got.cif
#   From: 2010.05.17/outbox.cif.g08.bks.cpg/sg15_67_cif.got.tgz:133203.got - 2010.06.03 18:47:42.
