data_PCOD9299763
_publ_section_title
;
Structure prediction by ZEFSAII (Michael W. Deem and Ramdas Pophale) SiO2 
 PCOD9299763
Probable space group: C 2/C
;
_chemical_formula_sum "Si O2"
_cell_formula_units_Z 48
_cell_length_a 25.335396
_cell_length_b 9.686074
_cell_length_c 14.186741
_cell_angle_alpha 90.000000
_cell_angle_beta 38.898349
_cell_angle_gamma 90.000000
_cell_volume 2186.133631
_symmetry_space_group_name_H-M "C 2/C"
_symmetry_group_IT_number 15
_symmetry_cell_setting 'monoclinic'
loop_
_space_group_symop_operation_xyz
x,y,z
-x,y,1/2-z
-x,-y,-z
x,-y,1/2+z
1/2+x,1/2+y,z
1/2-x,1/2+y,1/2-z
1/2-x,1/2-y,-z
1/2+x,1/2-y,1/2+z
loop_
_atom_site_type_symbol
_atom_site_label
_atom_site_fract_x
_atom_site_fract_y
_atom_site_fract_z
Si Si1 0.161920 0.822861 0.588167
Si Si2 0.330942 0.110642 0.069214
Si Si3 0.137639 0.811264 0.826960
Si Si4 0.402398 0.879055 0.855807
Si Si5 0.598884 0.992391 0.848946
Si Si6 0.407268 0.425464 0.411008
O O1 0.250000 0.750000 0.500000
O O2 0.124286 0.708941 0.569738
O O3 0.115122 0.856692 0.751243
O O4 0.161101 0.960476 0.525494
O O5 0.234233 0.149298 0.208466
O O6 0.367526 0.115886 0.122039
O O7 0.344363 0.957824 0.010593
O O8 0.130581 0.645784 0.829098
O O9 0.091367 0.880004 0.980585
O O10 0.500000 0.903362 0.750000
O O11 0.383592 0.943113 0.780574
O O12 0.389172 0.716120 0.880338
O O13 0.500000 0.000000 0.000000
O O14 0.500000 0.474578 0.250000
#
# Coordination Sequence:
#
# PCOD9299763 Si02
#       6
#     8   8   8   8   8   8
#     4  10  25  46  68 100 145 186 238 292 357 435
#     4  11  24  42  72 104 142 192 236 297 354 430
#     4  11  25  43  72 100 148 186 239 297 361 424
#     4  11  22  43  72 108 144 183 245 299 354 425
#     4  12  23  43  76 105 140 193 243 292 358 432
#     4  11  25  45  69 104 145 180 237 309 361 422
#
# _framework density 21.956572000000001
#
# number of rings (size 3 to 8) (size 9 to 14) (size 15 to 20)
#    0.000    1.000    5.000    1.000    4.667    4.000 
#    3.000    4.167    0.000    0.000    0.000    0.000 
#    0.000    0.000    0.000    0.000    0.000    0.000 
#
# Total GULP energy -134022.683881 kJ/mol
# GULP energy per Si atom -5584.278495 kJ/mol
# Density = 2.190660 g / cm^3
# Si number density = 21.956572 Si / 1000 Ang^3
#
#
#
# Elastic Constant Matrix: (Units=GPa)
#
#
# Indices 1 2 3 4 5 6 
#
# 1 119.3158 52.9267 34.7364 0.0004 35.8671 0.0004
# 2 52.9267 103.8414 11.3062 0.0024 -3.2435 0.0019
# 3 34.7364 11.3062 71.3107 0.0010 18.6898 0.0008
# 4 0.0004 0.0024 0.0010 -427.4406 -0.0002 -426.4750
# 5 35.8671 -3.2435 18.6898 -0.0002 56.7526 -0.0002
# 6 0.0004 0.0019 0.0008 -426.4750 -0.0002 -371.4423
#
#
#
# Elastic Compliance Matrix: (Units=1/GPa)
#
#
# Indices 1 2 3 4 5 6 
#
# 1 0.015801 -0.007896 -0.004060 0.000000 -0.009100 0.000000
# 2 -0.007896 0.013817 0.000154 0.000000 0.005729 0.000000
# 3 -0.004060 0.000154 0.016747 0.000000 -0.002940 0.000000
# 4 0.000000 0.000000 0.000000 0.016072 0.000000 -0.018453
# 5 -0.009100 0.005729 -0.002940 0.000000 0.024668 0.000000
# 6 0.000000 0.000000 0.000000 -0.018453 0.000000 0.018495
#
#
# Mechanical properties :
#
#
# Convention : Reuss Voigt Hill
#
# Bulk Modulus (GPa) = 43.93414 54.71183 49.32298
# Shear Modulus (GPa) = 36.55241 -135.39280 -49.42020
#
# Velocity S-wave (km/s) = 4.08457 -7.86116 -4.74942
# Velocity P-wave (km/s) = 6.50369 7.57791 2.75016
#
# Compressibility (1/GPa) = 0.02276134
#
# Stress axis : x y z
#
# Youngs Moduli (GPa) = 63.28606 72.37615 59.71203
#
# Poissons Ratio (x) = 0.57148 0.24243
# Poissons Ratio (y) = 0.49970 -0.00920
# Poissons Ratio (z) = 0.25694 -0.01115
#
# Static dielectric constant tensor:
#      x y z
#    x 1.882360 0.000000 0.053750 
#    y 0.000000 1.825380 0.000000 
#    z 0.053750 0.000000 1.888350 
# 
# From -- ./inp_files/176853.got.cif
#   From: 2010.05.17/outbox.cif.g08.bks.cpg/sg15_89_cif.got.tgz:176853.got - 2010.06.03 18:47:42.
