data_PCOD9299116
_publ_section_title
;
Structure prediction by ZEFSAII (Michael W. Deem and Ramdas Pophale) SiO2 
 PCOD9299116
Probable space group: C 2/C
;
_chemical_formula_sum "Si O2"
_cell_formula_units_Z 52
_cell_length_a 15.323054
_cell_length_b 6.168303
_cell_length_c 23.134097
_cell_angle_alpha 90.000000
_cell_angle_beta 66.820626
_cell_angle_gamma 90.000000
_cell_volume 2010.064635
_symmetry_space_group_name_H-M "C 2/C"
_symmetry_group_IT_number 15
_symmetry_cell_setting 'monoclinic'
loop_
_space_group_symop_operation_xyz
x,y,z
-x,y,1/2-z
-x,-y,-z
x,-y,1/2+z
1/2+x,1/2+y,z
1/2-x,1/2+y,1/2-z
1/2-x,1/2-y,-z
1/2+x,1/2-y,1/2+z
loop_
_atom_site_type_symbol
_atom_site_label
_atom_site_fract_x
_atom_site_fract_y
_atom_site_fract_z
Si Si1 0.156467 0.602129 0.826684
Si Si2 0.517562 0.468585 0.838324
Si Si3 0.203398 0.466519 0.691251
Si Si4 0.463130 0.233766 0.063671
Si Si5 0.643567 0.045910 0.506210
Si Si6 0.309499 0.309691 0.894430
Si Si7 0.000000 0.686926 0.250000
O O1 0.208997 0.490251 0.759122
O O2 0.093701 0.450846 0.884709
O O3 0.231356 0.759131 0.839207
O O4 0.080357 0.757842 0.814631
O O5 0.408199 0.420951 0.854368
O O6 0.542851 0.661609 0.788741
O O7 0.535191 0.552861 0.898477
O O8 0.233979 0.682651 0.648896
O O9 0.092350 0.438309 0.703708
O O10 0.570630 0.150922 0.027298
O O11 0.412514 0.234418 0.014892
O O12 0.668658 0.127391 0.563018
O O13 0.739481 0.024769 0.444877
#
# Coordination Sequence:
#
# PCOD9299116 Si02
#       7
#     8   8   8   8   8   8   4
#     4  12  26  47  70 107 138 189 232 296 352 438
#     4  12  24  44  74 101 145 182 235 289 365 413
#     4  12  26  45  75 102 146 180 242 290 365 425
#     4  11  24  48  70 102 139 189 238 288 348 429
#     4  10  24  47  67 100 145 181 243 284 345 420
#     4  11  24  45  70 105 138 186 231 297 351 417
#     4  12  24  42  68 108 136 182 222 302 356 420
#
# _framework density 25.869817000000001
#
# number of rings (size 3 to 8) (size 9 to 14) (size 15 to 20)
#    0.000    0.615    3.077    4.615    4.308    1.231 
#   11.077    0.000    0.000    0.000    0.000    0.000 
#    0.000    0.000    0.000    0.000    0.000    0.000 
#
# Total GULP energy -145787.637741 kJ/mol
# GULP energy per Si atom -5607.216836 kJ/mol
# Density = 2.581094 g / cm^3
# Si number density = 25.869817 Si / 1000 Ang^3
#
#
#
# Elastic Constant Matrix: (Units=GPa)
#
#
# Indices 1 2 3 4 5 6 
#
# 1 102.7725 13.7854 21.3753 0.0001 -14.5511 0.0008
# 2 13.7854 52.4626 35.4073 0.0002 -14.2330 0.0011
# 3 21.3753 35.4073 106.1560 0.0000 -3.0538 0.0001
# 4 0.0001 0.0002 0.0000 44.5687 0.0000 1.1667
# 5 -14.5511 -14.2330 -3.0538 0.0000 56.7486 0.0001
# 6 0.0008 0.0011 0.0001 1.1667 0.0001 55.9712
#
#
#
# Elastic Compliance Matrix: (Units=1/GPa)
#
#
# Indices 1 2 3 4 5 6 
#
# 1 0.010556 -0.000957 -0.001738 0.000000 0.002373 0.000000
# 2 -0.000957 0.026703 -0.008541 0.000000 0.005992 0.000000
# 3 -0.001738 -0.008541 0.012564 0.000000 -0.001912 0.000000
# 4 0.000000 0.000000 0.000000 0.022450 0.000000 -0.000468
# 5 0.002373 0.005992 -0.001912 0.000000 0.019630 0.000000
# 6 0.000000 0.000000 0.000000 -0.000468 0.000000 0.017876
#
#
# Mechanical properties :
#
#
# Convention : Reuss Voigt Hill
#
# Bulk Modulus (GPa) = 36.56282 44.72523 40.64402
# Shear Modulus (GPa) = 35.36853 44.17925 39.77389
#
# Velocity S-wave (km/s) = 3.70154 4.13698 3.92530
# Velocity P-wave (km/s) = 5.69496 6.33605 6.02404
#
# Compressibility (1/GPa) = 0.02735019
#
# Stress axis : x y z
#
# Youngs Moduli (GPa) = 94.73200 37.44889 79.59237
#
# Poissons Ratio (x) = 0.03583 0.13834
# Poissons Ratio (y) = 0.09065 0.67984
# Poissons Ratio (z) = 0.16466 0.31987
#
# Static dielectric constant tensor:
#      x y z
#    x 2.026720 0.000000 0.014550 
#    y 0.000000 1.971390 0.000000 
#    z 0.014550 0.000000 2.002660 
# 
# From -- ./inp_files/297696.got.cif
#   From: 2010.05.17/outbox.cif.g08.bks.cpg/sg15_149_cif.got.tgz:297696.got - 2010.06.03 18:47:42.
