data_PCOD9299862
_publ_section_title
;
Structure prediction by ZEFSAII (Michael W. Deem and Ramdas Pophale) SiO2 
 PCOD9299862
Probable space group: C 2/C
;
_chemical_formula_sum "Si O2"
_cell_formula_units_Z 40
_cell_length_a 15.188096
_cell_length_b 11.215028
_cell_length_c 12.030199
_cell_angle_alpha 90.000000
_cell_angle_beta 61.578148
_cell_angle_gamma 90.000000
_cell_volume 1802.171470
_symmetry_space_group_name_H-M "C 2/C"
_symmetry_group_IT_number 15
_symmetry_cell_setting 'monoclinic'
loop_
_space_group_symop_operation_xyz
x,y,z
-x,y,1/2-z
-x,-y,-z
x,-y,1/2+z
1/2+x,1/2+y,z
1/2-x,1/2+y,1/2-z
1/2-x,1/2-y,-z
1/2+x,1/2-y,1/2+z
loop_
_atom_site_type_symbol
_atom_site_label
_atom_site_fract_x
_atom_site_fract_y
_atom_site_fract_z
Si Si1 0.109280 0.510522 0.487913
Si Si2 0.397610 0.555542 0.019019
Si Si3 0.745178 0.817297 0.749513
Si Si4 0.273419 0.135144 0.912562
Si Si5 0.897310 0.714387 0.372789
O O1 0.178859 0.589663 0.363642
O O2 0.126563 0.577626 0.596533
O O3 0.133560 0.375691 0.510148
O O4 0.000000 0.500000 0.500000
O O5 0.346160 0.616971 0.155930
O O6 0.316827 0.459006 0.025163
O O7 0.500000 0.500000 0.000000
O O8 0.413009 0.656105 0.916603
O O9 0.770997 0.692651 0.792867
O O10 0.685184 0.791735 0.673022
O O11 0.250000 0.250000 0.000000
O O12 0.000000 0.676396 0.250000
#
# Coordination Sequence:
#
# PCOD9299862 Si02
#       5
#     8   8   8   8   8
#     4  11  24  46  77 111 147 191 254 310 371 445
#     4  12  28  47  73 108 150 199 249 305 378 442
#     4  11  25  48  76 107 154 192 251 314 370 448
#     4  10  25  47  72 107 146 192 245 307 376 436
#     4  12  25  46  77 110 149 201 251 307 381 447
#
# _framework density 22.195444999999999
#
# number of rings (size 3 to 8) (size 9 to 14) (size 15 to 20)
#    0.000    0.800    4.000    1.800    5.600    4.800 
#    0.000    2.000    0.000    0.000    0.000    0.000 
#    0.000    0.000    0.000    0.000    0.000    0.000 
#
# Total GULP energy -111787.935538 kJ/mol
# GULP energy per Si atom -5589.396777 kJ/mol
# Density = 2.214493 g / cm^3
# Si number density = 22.195445 Si / 1000 Ang^3
#
#
#
# Elastic Constant Matrix: (Units=GPa)
#
#
# Indices 1 2 3 4 5 6 
#
# 1 191.5516 71.7970 64.3486 0.0000 21.6848 0.0000
# 2 71.7970 145.5034 47.2064 0.0000 19.5214 0.0000
# 3 64.3486 47.2064 93.8478 0.0000 9.0197 0.0000
# 4 0.0000 0.0000 0.0000 46.0656 0.0000 17.8287
# 5 21.6848 19.5214 9.0197 0.0000 41.4562 0.0000
# 6 0.0000 0.0000 0.0000 17.8287 0.0000 44.2527
#
#
#
# Elastic Compliance Matrix: (Units=1/GPa)
#
#
# Indices 1 2 3 4 5 6 
#
# 1 0.007591 -0.002201 -0.003897 0.000000 -0.002086 0.000000
# 2 -0.002201 0.009242 -0.002892 0.000000 -0.002571 0.000000
# 3 -0.003897 -0.002892 0.014764 0.000000 0.000188 0.000000
# 4 0.000000 0.000000 0.000000 0.025718 0.000000 -0.010362
# 5 -0.002086 -0.002571 0.000188 0.000000 0.026383 0.000000
# 6 0.000000 0.000000 0.000000 -0.010362 0.000000 0.026772
#
#
# Mechanical properties :
#
#
# Convention : Reuss Voigt Hill
#
# Bulk Modulus (GPa) = 73.44311 88.62297 81.03304
# Shear Modulus (GPa) = 37.59639 42.85831 40.22735
#
# Velocity S-wave (km/s) = 4.12014 4.39903 4.26186
# Velocity P-wave (km/s) = 7.46962 8.11277 7.79783
#
# Compressibility (1/GPa) = 0.01361598
#
# Stress axis : x y z
#
# Youngs Moduli (GPa) = 131.73520 108.19762 67.73024
#
# Poissons Ratio (x) = 0.23819 0.26395
# Poissons Ratio (y) = 0.29001 0.19590
# Poissons Ratio (z) = 0.51338 0.31295
#
# Static dielectric constant tensor:
#      x y z
#    x 1.790030 0.000000 0.010790 
#    y 0.000000 1.782520 0.000000 
#    z 0.010790 0.000000 1.875950 
# 
# From -- ./inp_files/94892.got.cif
#   From: 2010.05.17/outbox.cif.g08.bks.cpg/sg15_48_cif.got.tgz:94892.got - 2010.06.03 18:47:42.
