data_PCOD9299086
_publ_section_title
;
Structure prediction by ZEFSAII (Michael W. Deem and Ramdas Pophale) SiO2 
 PCOD9299086
Probable space group: C 2/C
;
_chemical_formula_sum "Si O2"
_cell_formula_units_Z 40
_cell_length_a 15.230939
_cell_length_b 17.728591
_cell_length_c 10.547343
_cell_angle_alpha 90.000000
_cell_angle_beta 141.700166
_cell_angle_gamma 90.000000
_cell_volume 1765.140401
_symmetry_space_group_name_H-M "C 2/C"
_symmetry_group_IT_number 15
_symmetry_cell_setting 'monoclinic'
loop_
_space_group_symop_operation_xyz
x,y,z
-x,y,1/2-z
-x,-y,-z
x,-y,1/2+z
1/2+x,1/2+y,z
1/2-x,1/2+y,1/2-z
1/2-x,1/2-y,-z
1/2+x,1/2-y,1/2+z
loop_
_atom_site_type_symbol
_atom_site_label
_atom_site_fract_x
_atom_site_fract_y
_atom_site_fract_z
Si Si1 0.940483 0.334168 0.414797
Si Si2 0.123954 0.936420 0.630547
Si Si3 0.737833 0.790031 0.622852
Si Si4 0.213679 0.477938 0.373808
Si Si5 0.500000 0.546853 0.750000
Si Si6 0.500000 0.089018 0.250000
O O1 0.825365 0.269008 0.305943
O O2 0.863712 0.400039 0.244299
O O3 0.079601 0.305019 0.496108
O O4 0.981164 0.365212 0.598975
O O5 0.177010 0.868886 0.776951
O O6 0.260416 0.982049 0.733618
O O7 0.130868 0.987812 0.887100
O O8 0.000000 0.000000 0.500000
O O9 0.750000 0.750000 0.500000
O O10 0.445298 0.600116 0.575694
O O11 0.126475 0.532333 0.363896
#
# Coordination Sequence:
#
# PCOD9299086 Si02
#       6
#     8   8   8   8   4   4
#     4  12  29  50  76 115 159 209 263 329 424 467
#     4  10  24  46  78 114 152 210 271 324 394 475
#     4  12  30  50  73 115 163 209 257 330 415 489
#     4  10  25  44  79 115 149 200 268 329 389 470
#     4   8  22  41  74 115 140 196 270 314 380 455
#     4  12  26  49  82 111 150 204 274 338 376 499
#
# _framework density 22.661087999999999
#
# number of rings (size 3 to 8) (size 9 to 14) (size 15 to 20)
#    1.200    0.000    2.000    1.200   11.200    1.600 
#    0.000    0.000    0.000    0.000    0.000    0.000 
#    0.000    0.000    0.000    0.000    0.000    0.000 
#
# Total GULP energy -111367.397506 kJ/mol
# GULP energy per Si atom -5568.369875 kJ/mol
# Density = 2.260951 g / cm^3
# Si number density = 22.661088 Si / 1000 Ang^3
#
#
#
# Elastic Constant Matrix: (Units=GPa)
#
#
# Indices 1 2 3 4 5 6 
#
# 1 133.3620 72.2935 69.4939 0.0000 27.4951 0.0000
# 2 72.2935 130.2483 80.4016 0.0000 10.7023 0.0000
# 3 69.4939 80.4016 156.6387 0.0000 19.2813 0.0000
# 4 0.0000 0.0000 0.0000 52.0297 0.0000 -10.6236
# 5 27.4951 10.7023 19.2813 0.0000 32.0250 0.0000
# 6 0.0000 0.0000 0.0000 -10.6236 0.0000 42.3865
#
#
#
# Elastic Compliance Matrix: (Units=1/GPa)
#
#
# Indices 1 2 3 4 5 6 
#
# 1 0.013197 -0.005357 -0.002086 0.000000 -0.008284 0.000000
# 2 -0.005357 0.013416 -0.004886 0.000000 0.003057 0.000000
# 3 -0.002086 -0.004886 0.010148 0.000000 -0.002686 0.000000
# 4 0.000000 0.000000 0.000000 0.020256 0.000000 0.005077
# 5 -0.008284 0.003057 -0.002686 0.000000 0.038934 0.000000
# 6 0.000000 0.000000 0.000000 0.005077 0.000000 0.024865
#
#
# Mechanical properties :
#
#
# Convention : Reuss Voigt Hill
#
# Bulk Modulus (GPa) = 82.61668 96.06966 89.34317
# Shear Modulus (GPa) = 33.44314 38.49223 35.96769
#
# Velocity S-wave (km/s) = 3.84578 4.12588 3.98829
# Velocity P-wave (km/s) = 7.50044 8.07362 7.79230
#
# Compressibility (1/GPa) = 0.01210409
#
# Stress axis : x y z
#
# Youngs Moduli (GPa) = 75.77492 74.53915 98.54128
#
# Poissons Ratio (x) = 0.39929 0.20551
# Poissons Ratio (y) = 0.40591 0.48147
# Poissons Ratio (z) = 0.15803 0.36420
#
# Static dielectric constant tensor:
#      x y z
#    x 2.012370 0.000000 -0.192640 
#    y 0.000000 1.863610 0.000000 
#    z -0.192640 0.000000 1.927650 
# 
# From -- ./inp_files/98558.got.cif
#   From: 2010.05.17/outbox.cif.g08.bks.cpg/sg15_50_cif.got.tgz:98558.got - 2010.06.03 18:47:42.
