data_PCOD9299312
_publ_section_title
;
Structure prediction by ZEFSAII (Michael W. Deem and Ramdas Pophale) SiO2 
 PCOD9299312
Probable space group: C 2/C
;
_chemical_formula_sum "Si O2"
_cell_formula_units_Z 36
_cell_length_a 8.773456
_cell_length_b 29.650217
_cell_length_c 8.970828
_cell_angle_alpha 90.000000
_cell_angle_beta 132.650021
_cell_angle_gamma 90.000000
_cell_volume 1716.395050
_symmetry_space_group_name_H-M "C 2/C"
_symmetry_group_IT_number 15
_symmetry_cell_setting 'monoclinic'
loop_
_space_group_symop_operation_xyz
x,y,z
-x,y,1/2-z
-x,-y,-z
x,-y,1/2+z
1/2+x,1/2+y,z
1/2-x,1/2+y,1/2-z
1/2-x,1/2-y,-z
1/2+x,1/2-y,1/2+z
loop_
_atom_site_type_symbol
_atom_site_label
_atom_site_fract_x
_atom_site_fract_y
_atom_site_fract_z
Si Si1 0.000000 0.516894 0.750000
Si Si2 0.685034 0.691492 0.261345
Si Si3 0.073219 0.351925 0.966882
Si Si4 0.744763 0.450299 0.365939
Si Si5 0.109817 0.218460 0.680965
O O1 0.164230 0.541569 0.743757
O O2 0.862373 0.485929 0.549488
O O3 0.500000 0.687266 0.250000
O O4 0.851899 0.652899 0.401266
O O5 0.793665 0.740461 0.346664
O O6 0.568307 0.692205 0.025359
O O7 0.000000 0.341610 0.750000
O O8 0.179674 0.400069 0.043514
O O9 0.220466 0.315603 0.143644
O O10 0.500000 0.453606 0.250000
O O11 0.000000 0.240533 0.750000
#
# Coordination Sequence:
#
# PCOD9299312 Si02
#       5
#     4   8   8   8   8
#     4  10  24  48  76 108 138 176 220 280 346 426
#     4  12  26  41  62  96 132 180 231 287 335 391
#     4  12  25  43  66  99 137 177 233 282 329 405
#     4  11  24  46  75 106 141 178 223 278 347 410
#     4  12  23  41  66  88 129 183 233 274 335 398
#
# _framework density 20.974194000000001
#
# number of rings (size 3 to 8) (size 9 to 14) (size 15 to 20)
#    0.000    0.444    5.556    3.333    0.000    1.778 
#    0.000    1.111    0.000    0.000    0.000    0.000 
#    0.000    0.000    0.000    0.000    0.000    0.000 
#
# Total GULP energy -100439.035051 kJ/mol
# GULP energy per Si atom -5579.946392 kJ/mol
# Density = 2.092646 g / cm^3
# Si number density = 20.974194 Si / 1000 Ang^3
#
#
#
# Elastic Constant Matrix: (Units=GPa)
#
#
# Indices 1 2 3 4 5 6 
#
# 1 170.4573 35.1252 42.8468 0.0000 27.2425 0.0000
# 2 35.1252 66.7258 36.8589 0.0000 20.1777 0.0000
# 3 42.8468 36.8589 101.2713 0.0000 22.2399 0.0000
# 4 0.0000 0.0000 0.0000 28.9122 0.0000 -6.9176
# 5 27.2425 20.1777 22.2399 0.0000 43.7753 0.0000
# 6 0.0000 0.0000 0.0000 -6.9176 0.0000 39.3110
#
#
#
# Elastic Compliance Matrix: (Units=1/GPa)
#
#
# Indices 1 2 3 4 5 6 
#
# 1 0.007133 -0.002014 -0.001704 0.000000 -0.002645 0.000000
# 2 -0.002014 0.020747 -0.005487 0.000000 -0.005523 0.000000
# 3 -0.001704 -0.005487 0.013286 0.000000 -0.003161 0.000000
# 4 0.000000 0.000000 0.000000 0.036108 0.000000 0.006354
# 5 -0.002645 -0.005523 -0.003161 0.000000 0.028641 0.000000
# 6 0.000000 0.000000 0.000000 0.006354 0.000000 0.026556
#
#
# Mechanical properties :
#
#
# Convention : Reuss Voigt Hill
#
# Bulk Modulus (GPa) = 43.94009 63.12404 53.53206
# Shear Modulus (GPa) = 31.55250 37.30793 34.43021
#
# Velocity S-wave (km/s) = 3.88280 4.22210 4.05600
# Velocity P-wave (km/s) = 6.41066 7.34368 6.89297
#
# Compressibility (1/GPa) = 0.02275826
#
# Stress axis : x y z
#
# Youngs Moduli (GPa) = 140.20275 48.19860 75.26485
#
# Poissons Ratio (x) = 0.09705 0.12825
# Poissons Ratio (y) = 0.28231 0.41294
# Poissons Ratio (z) = 0.23891 0.26444
#
# Static dielectric constant tensor:
#      x y z
#    x 1.895590 0.000000 -0.077620 
#    y 0.000000 1.713090 0.000000 
#    z -0.077620 0.000000 1.832140 
# 
# From -- ./inp_files/25890.got.cif
#   From: 2010.05.17/outbox.cif.g08.bks.cpg/sg15_13_cif.got.tgz:25890.got - 2010.06.03 18:47:42.
