data_PCOD9299740
_publ_section_title
;
Structure prediction by ZEFSAII (Michael W. Deem and Ramdas Pophale) SiO2 
 PCOD9299740
Probable space group: C 2/C
;
_chemical_formula_sum "Si O2"
_cell_formula_units_Z 32
_cell_length_a 25.753808
_cell_length_b 5.289541
_cell_length_c 14.884056
_cell_angle_alpha 90.000000
_cell_angle_beta 143.828009
_cell_angle_gamma 90.000000
_cell_volume 1196.707797
_symmetry_space_group_name_H-M "C 2/C"
_symmetry_group_IT_number 15
_symmetry_cell_setting 'monoclinic'
loop_
_space_group_symop_operation_xyz
x,y,z
-x,y,1/2-z
-x,-y,-z
x,-y,1/2+z
1/2+x,1/2+y,z
1/2-x,1/2+y,1/2-z
1/2-x,1/2-y,-z
1/2+x,1/2-y,1/2+z
loop_
_atom_site_type_symbol
_atom_site_label
_atom_site_fract_x
_atom_site_fract_y
_atom_site_fract_z
Si Si1 0.528988 0.481591 0.392550
Si Si2 0.857888 0.482357 0.921025
Si Si3 0.792650 0.503797 0.518869
Si Si4 0.918553 0.375803 0.831737
O O1 0.500000 0.457986 0.250000
O O2 0.576588 0.747099 0.469129
O O3 0.447975 0.408527 0.346178
O O4 0.597790 0.256115 0.507326
O O5 0.838768 0.429270 0.789614
O O6 0.789808 0.475560 0.907464
O O7 0.750000 0.750000 0.500000
O O8 0.891863 0.494608 0.698779
O O9 0.750000 0.250000 0.500000
O O10 0.000000 0.500000 0.000000
#
# Coordination Sequence:
#
# PCOD9299740 Si02
#       4
#     8   8   8   8
#     4  11  21  39  72 103 142 174 235 299 367 410
#     4  11  24  43  69 102 142 188 234 297 357 428
#     4  12  28  47  70 101 148 196 235 289 363 435
#     4  10  25  45  74 110 138 183 246 300 359 424
#
# _framework density 26.740027999999999
#
# number of rings (size 3 to 8) (size 9 to 14) (size 15 to 20)
#    0.000    1.000    2.500    3.000    3.500    6.000 
#    0.000    0.000    0.000    0.000    0.000    0.000 
#    0.000    0.000    0.000    0.000    0.000    0.000 
#
# Total GULP energy -89505.975932 kJ/mol
# GULP energy per Si atom -5594.123496 kJ/mol
# Density = 2.667917 g / cm^3
# Si number density = 26.740028 Si / 1000 Ang^3
#
#
#
# Elastic Constant Matrix: (Units=GPa)
#
#
# Indices 1 2 3 4 5 6 
#
# 1 145.9163 67.0188 -10.6383 0.0000 -43.5180 -0.0001
# 2 67.0188 167.8112 25.9733 0.0002 8.5788 0.0001
# 3 -10.6383 25.9733 84.9655 0.0000 -13.4899 0.0000
# 4 0.0000 0.0002 0.0000 46.0749 0.0000 12.2153
# 5 -43.5180 8.5788 -13.4899 0.0000 45.4982 0.0000
# 6 -0.0001 0.0001 0.0000 12.2153 0.0000 49.5813
#
#
#
# Elastic Compliance Matrix: (Units=1/GPa)
#
#
# Indices 1 2 3 4 5 6 
#
# 1 0.018947 -0.010133 0.009078 0.000000 0.022724 0.000000
# 2 -0.010133 0.011824 -0.007111 0.000000 -0.014030 0.000000
# 3 0.009078 -0.007111 0.017495 0.000000 0.015211 0.000000
# 4 0.000000 0.000000 0.000000 0.023220 0.000000 -0.005721
# 5 0.022724 -0.014030 0.015211 0.000000 0.050869 0.000000
# 6 0.000000 0.000000 0.000000 -0.005721 0.000000 0.021578
#
#
# Mechanical properties :
#
#
# Convention : Reuss Voigt Hill
#
# Bulk Modulus (GPa) = 31.31603 62.60008 46.95806
# Shear Modulus (GPa) = 29.25507 49.32017 39.28762
#
# Velocity S-wave (km/s) = 3.31124 4.29934 3.83723
# Velocity P-wave (km/s) = 5.13379 6.93594 6.10176
#
# Compressibility (1/GPa) = 0.03193252
#
# Stress axis : x y z
#
# Youngs Moduli (GPa) = 52.77988 84.57426 57.15982
#
# Poissons Ratio (x) = 0.85703 -0.51889
# Poissons Ratio (y) = 0.53484 0.40645
# Poissons Ratio (z) = -0.47913 0.60139
#
# Static dielectric constant tensor:
#      x y z
#    x 2.382960 0.000000 0.049800 
#    y 0.000000 2.172740 0.000000 
#    z 0.049800 0.000000 2.156150 
# 
# From -- ./inp_files/179568.got.cif
#   From: 2010.05.17/outbox.cif.g08.bks.cpg/sg15_90_cif.got.tgz:179568.got - 2010.06.03 18:47:42.
