data_PCOD9299887
_publ_section_title
;
Structure prediction by ZEFSAII (Michael W. Deem and Ramdas Pophale) SiO2 
 PCOD9299887
Probable space group: C 2/C
;
_chemical_formula_sum "Si O2"
_cell_formula_units_Z 36
_cell_length_a 9.656670
_cell_length_b 17.442396
_cell_length_c 8.194270
_cell_angle_alpha 90.000000
_cell_angle_beta 79.576683
_cell_angle_gamma 90.000000
_cell_volume 1357.429398
_symmetry_space_group_name_H-M "C 2/C"
_symmetry_group_IT_number 15
_symmetry_cell_setting 'monoclinic'
loop_
_space_group_symop_operation_xyz
x,y,z
-x,y,1/2-z
-x,-y,-z
x,-y,1/2+z
1/2+x,1/2+y,z
1/2-x,1/2+y,1/2-z
1/2-x,1/2-y,-z
1/2+x,1/2-y,1/2+z
loop_
_atom_site_type_symbol
_atom_site_label
_atom_site_fract_x
_atom_site_fract_y
_atom_site_fract_z
Si Si1 0.319517 0.384355 0.439527
Si Si2 0.567568 0.682154 0.055933
Si Si3 0.212031 0.963743 0.391925
Si Si4 0.000000 0.456159 0.750000
Si Si5 0.503560 0.847269 0.049676
O O1 0.441612 0.326539 0.451350
O O2 0.329880 0.431359 0.272313
O O3 0.351859 0.453402 0.559169
O O4 0.164697 0.346111 0.463589
O O5 0.500000 0.679512 0.250000
O O6 0.600901 0.771543 0.016417
O O7 0.670365 0.609140 0.011837
O O8 0.374205 0.991367 0.344579
O O9 0.950424 0.405325 0.606573
O O10 0.500000 0.858176 0.250000
#
# Coordination Sequence:
#
# PCOD9299887 Si02
#       5
#     8   8   8   4   8
#     4  11  24  43  75 111 157 197 264 325 398 469
#     4  11  24  49  74 118 159 204 260 328 408 476
#     4  11  25  43  77 109 155 206 260 321 397 467
#     4  10  26  48  78 116 158 206 268 328 390 472
#     4  10  25  47  79 114 159 208 264 328 402 476
#
# _framework density 26.520717000000001
#
# number of rings (size 3 to 8) (size 9 to 14) (size 15 to 20)
#    0.000    1.333    0.000    3.333    7.778    1.778 
#    0.000    2.222    0.000    0.000    0.000    0.000 
#    0.000    0.000    0.000    0.000    0.000    0.000 
#
# Total GULP energy -100422.023329 kJ/mol
# GULP energy per Si atom -5579.001296 kJ/mol
# Density = 2.646035 g / cm^3
# Si number density = 26.520717 Si / 1000 Ang^3
#
#
#
# Elastic Constant Matrix: (Units=GPa)
#
#
# Indices 1 2 3 4 5 6 
#
# 1 125.9280 57.7546 27.4916 0.0000 13.4004 0.0000
# 2 57.7546 185.8293 61.2994 0.0000 -11.7289 0.0000
# 3 27.4916 61.2994 110.5731 0.0000 13.4655 0.0000
# 4 0.0000 0.0000 0.0000 28.0296 0.0000 -13.4218
# 5 13.4004 -11.7289 13.4655 0.0000 33.3980 0.0000
# 6 0.0000 0.0000 0.0000 -13.4218 0.0000 56.6988
#
#
#
# Elastic Compliance Matrix: (Units=1/GPa)
#
#
# Indices 1 2 3 4 5 6 
#
# 1 0.010093 -0.003497 0.000076 0.000000 -0.005308 0.000000
# 2 -0.003497 0.008342 -0.004504 0.000000 0.006149 0.000000
# 3 0.000076 -0.004504 0.012323 0.000000 -0.006581 0.000000
# 4 0.000000 0.000000 0.000000 0.040238 0.000000 0.009525
# 5 -0.005308 0.006149 -0.006581 0.000000 0.036884 0.000000
# 6 0.000000 0.000000 0.000000 0.009525 0.000000 0.019892
#
#
# Mechanical properties :
#
#
# Convention : Reuss Voigt Hill
#
# Bulk Modulus (GPa) = 67.07846 79.49129 73.28488
# Shear Modulus (GPa) = 33.64925 42.01091 37.83008
#
# Velocity S-wave (km/s) = 3.56587 3.98437 3.78091
# Velocity P-wave (km/s) = 6.50398 7.15578 6.83765
#
# Compressibility (1/GPa) = 0.01490792
#
# Stress axis : x y z
#
# Youngs Moduli (GPa) = 99.07662 119.87742 81.14749
#
# Poissons Ratio (x) = 0.41920 -0.00613
# Poissons Ratio (y) = 0.34646 0.36548
# Poissons Ratio (z) = -0.00749 0.53991
#
# Static dielectric constant tensor:
#      x y z
#    x 2.327230 0.000000 -0.042610 
#    y 0.000000 2.149710 0.000000 
#    z -0.042610 0.000000 2.148600 
# 
# From -- ./inp_files/28729.got.cif
#   From: 2010.05.17/outbox.cif.g08.bks.cpg/sg15_15_cif.got.tgz:28729.got - 2010.06.03 18:47:42.
