data_PCOD9299425
_publ_section_title
;
Structure prediction by ZEFSAII (Michael W. Deem and Ramdas Pophale) SiO2 
 PCOD9299425
Probable space group: C 2/C
;
_chemical_formula_sum "Si O2"
_cell_formula_units_Z 32
_cell_length_a 9.893920
_cell_length_b 9.324957
_cell_length_c 15.134429
_cell_angle_alpha 90.000000
_cell_angle_beta 55.018473
_cell_angle_gamma 90.000000
_cell_volume 1144.046834
_symmetry_space_group_name_H-M "C 2/C"
_symmetry_group_IT_number 15
_symmetry_cell_setting 'monoclinic'
loop_
_space_group_symop_operation_xyz
x,y,z
-x,y,1/2-z
-x,-y,-z
x,-y,1/2+z
1/2+x,1/2+y,z
1/2-x,1/2+y,1/2-z
1/2-x,1/2-y,-z
1/2+x,1/2-y,1/2+z
loop_
_atom_site_type_symbol
_atom_site_label
_atom_site_fract_x
_atom_site_fract_y
_atom_site_fract_z
Si Si1 0.362234 0.562416 0.986990
Si Si2 0.981420 0.329109 0.012765
Si Si3 0.181437 0.858293 0.659370
Si Si4 0.682162 0.828611 0.701895
O O1 0.413616 0.729467 0.958874
O O2 0.644334 0.513704 0.103969
O O3 0.207919 0.557394 0.112061
O O4 0.500000 0.500000 0.000000
O O5 0.836004 0.283716 0.134236
O O6 0.000000 0.500000 0.000000
O O7 0.170785 0.276465 0.947585
O O8 0.273426 0.891672 0.718261
O O9 0.000000 0.796916 0.750000
O O10 0.500000 0.771822 0.750000
#
# Coordination Sequence:
#
# PCOD9299425 Si02
#       4
#     8   8   8   8
#     4  10  24  51  81 126 176 223 313 362 430 562
#     4  10  27  49  82 127 178 225 299 368 437 543
#     4  12  25  48  90 124 176 237 284 374 453 515
#     4  10  26  50  84 132 180 236 297 376 458 532
#
# _framework density 27.970884000000002
#
# number of rings (size 3 to 8) (size 9 to 14) (size 15 to 20)
#    1.500    0.000    2.500    0.000    3.500   11.000 
#    0.000    1.250    5.500    0.000    0.000    0.000 
#    0.000    0.000    0.000    0.000    0.000    0.000 
#
# Total GULP energy -89098.548097 kJ/mol
# GULP energy per Si atom -5568.659256 kJ/mol
# Density = 2.790722 g / cm^3
# Si number density = 27.970884 Si / 1000 Ang^3
#
#
#
# Elastic Constant Matrix: (Units=GPa)
#
#
# Indices 1 2 3 4 5 6 
#
# 1 243.1949 56.9962 120.9318 0.0000 -3.7327 0.0000
# 2 56.9962 120.1248 57.5389 0.0000 10.9117 0.0000
# 3 120.9318 57.5389 180.6665 0.0000 -13.8343 0.0000
# 4 0.0000 0.0000 0.0000 48.1191 0.0000 -3.9864
# 5 -3.7327 10.9117 -13.8343 0.0000 76.4434 0.0000
# 6 0.0000 0.0000 0.0000 -3.9864 0.0000 52.8717
#
#
#
# Elastic Compliance Matrix: (Units=1/GPa)
#
#
# Indices 1 2 3 4 5 6 
#
# 1 0.006298 -0.001108 -0.003881 0.000000 -0.000237 0.000000
# 2 -0.001108 0.010328 -0.002702 0.000000 -0.002017 0.000000
# 3 -0.003881 -0.002702 0.009135 0.000000 0.001849 0.000000
# 4 0.000000 0.000000 0.000000 0.020912 0.000000 0.001577
# 5 -0.000237 -0.002017 0.001849 0.000000 0.013693 0.000000
# 6 0.000000 0.000000 0.000000 0.001577 0.000000 0.019033
#
#
# Mechanical properties :
#
#
# Convention : Reuss Voigt Hill
#
# Bulk Modulus (GPa) = 96.34833 112.76890 104.55861
# Shear Modulus (GPa) = 50.89616 56.05481 53.47549
#
# Velocity S-wave (km/s) = 4.27032 4.48151 4.37719
# Velocity P-wave (km/s) = 7.67039 8.19650 7.93780
#
# Compressibility (1/GPa) = 0.01037901
#
# Stress axis : x y z
#
# Youngs Moduli (GPa) = 158.78887 96.82554 109.46982
#
# Poissons Ratio (x) = 0.10726 0.42483
# Poissons Ratio (y) = 0.17589 0.29581
# Poissons Ratio (z) = 0.61622 0.26164
#
# Static dielectric constant tensor:
#      x y z
#    x 2.204290 0.000000 -0.086260 
#    y 0.000000 2.335380 0.000000 
#    z -0.086260 0.000000 2.382290 
# 
# From -- ./inp_files/195845.got.cif
#   From: 2010.05.17/outbox.cif.g08.bks.cpg/sg15_98_cif.got.tgz:195845.got - 2010.06.03 18:47:42.
