data_PCOD9299507
_publ_section_title
;
Structure prediction by ZEFSAII (Michael W. Deem and Ramdas Pophale) SiO2 
 PCOD9299507
Probable space group: C 2/C
;
_chemical_formula_sum "Si O2"
_cell_formula_units_Z 40
_cell_length_a 7.410383
_cell_length_b 13.434053
_cell_length_c 22.988816
_cell_angle_alpha 90.000000
_cell_angle_beta 52.128734
_cell_angle_gamma 90.000000
_cell_volume 1806.579448
_symmetry_space_group_name_H-M "C 2/C"
_symmetry_group_IT_number 15
_symmetry_cell_setting 'monoclinic'
loop_
_space_group_symop_operation_xyz
x,y,z
-x,y,1/2-z
-x,-y,-z
x,-y,1/2+z
1/2+x,1/2+y,z
1/2-x,1/2+y,1/2-z
1/2-x,1/2-y,-z
1/2+x,1/2-y,1/2+z
loop_
_atom_site_type_symbol
_atom_site_label
_atom_site_fract_x
_atom_site_fract_y
_atom_site_fract_z
Si Si1 0.876290 0.228174 0.331103
Si Si2 0.779134 0.568360 0.055087
Si Si3 0.487386 0.371925 0.390022
Si Si4 0.030441 0.886095 0.976961
Si Si5 0.207315 0.726978 0.165380
O O1 0.713223 0.145386 0.393284
O O2 0.742918 0.327339 0.337673
O O3 0.000000 0.184675 0.250000
O O4 0.071736 0.249617 0.339504
O O5 0.574097 0.488034 0.105710
O O6 0.704703 0.631515 0.012576
O O7 0.000000 0.500000 0.000000
O O8 0.423423 0.340395 0.468983
O O9 0.354324 0.316931 0.365136
O O10 0.227756 0.860079 0.892583
O O11 0.000000 0.000000 0.000000
O O12 0.000000 0.704977 0.250000
#
# Coordination Sequence:
#
# PCOD9299507 Si02
#       5
#     8   8   8   8   8
#     4  11  25  45  66 100 142 181 229 290 357 418
#     4  10  25  42  68 104 134 184 239 284 350 422
#     4  11  24  43  70  99 136 182 230 290 349 418
#     4   9  22  41  64 100 133 175 232 283 344 410
#     4  11  23  41  69  98 133 182 230 282 355 420
#
# _framework density 22.141292
#
# number of rings (size 3 to 8) (size 9 to 14) (size 15 to 20)
#    0.000    1.600    2.000    0.600   11.200    2.400 
#    0.000    9.000    0.000    0.000    0.000    0.000 
#    0.000    0.000    0.000    0.000    0.000    0.000 
#
# Total GULP energy -111488.803235 kJ/mol
# GULP energy per Si atom -5574.440162 kJ/mol
# Density = 2.209090 g / cm^3
# Si number density = 22.141292 Si / 1000 Ang^3
#
#
#
# Elastic Constant Matrix: (Units=GPa)
#
#
# Indices 1 2 3 4 5 6 
#
# 1 107.8549 17.8750 26.0500 -0.0010 14.2623 0.0003
# 2 17.8750 78.1760 35.5266 -0.0006 -6.7380 0.0002
# 3 26.0500 35.5266 95.4927 -0.0010 22.7913 0.0003
# 4 -0.0010 -0.0006 -0.0010 22.0968 0.0010 -0.8411
# 5 14.2623 -6.7380 22.7913 0.0010 40.7600 -0.0003
# 6 0.0003 0.0002 0.0003 -0.8411 -0.0003 23.4947
#
#
#
# Elastic Compliance Matrix: (Units=1/GPa)
#
#
# Indices 1 2 3 4 5 6 
#
# 1 0.010353 -0.002065 -0.001281 0.000000 -0.003248 0.000000
# 2 -0.002065 0.017534 -0.007875 0.000000 0.008025 0.000000
# 3 -0.001281 -0.007875 0.016104 0.000001 -0.009859 0.000000
# 4 0.000000 0.000000 0.000001 0.045317 -0.000002 0.001622
# 5 -0.003248 0.008025 -0.009859 -0.000002 0.032509 0.000000
# 6 0.000000 0.000000 0.000000 0.001622 0.000000 0.042621
#
#
# Mechanical properties :
#
#
# Convention : Reuss Voigt Hill
#
# Bulk Modulus (GPa) = 46.40571 48.93630 47.67101
# Shear Modulus (GPa) = 25.76469 30.74176 28.25323
#
# Velocity S-wave (km/s) = 3.41493 3.73021 3.57605
# Velocity P-wave (km/s) = 6.04594 6.37985 6.21514
#
# Compressibility (1/GPa) = 0.02154907
#
# Stress axis : x y z
#
# Youngs Moduli (GPa) = 96.59248 57.03089 62.09552
#
# Poissons Ratio (x) = 0.11777 0.07953
# Poissons Ratio (y) = 0.19947 0.48902
# Poissons Ratio (z) = 0.12371 0.44914
#
# Static dielectric constant tensor:
#      x y z
#    x 1.911510 0.000000 -0.009780 
#    y 0.000000 1.844290 0.000000 
#    z -0.009780 0.000000 1.868850 
# 
# From -- ./inp_files/288302.got.cif
#   From: 2010.05.17/outbox.cif.g08.bks.cpg/sg15_145_cif.got.tgz:288302.got - 2010.06.03 18:47:42.
