data_PCOD9299629
_publ_section_title
;
Structure prediction by ZEFSAII (Michael W. Deem and Ramdas Pophale) SiO2 
 PCOD9299629
Probable space group: C 2/C
;
_chemical_formula_sum "Si O2"
_cell_formula_units_Z 44
_cell_length_a 17.880086
_cell_length_b 21.556243
_cell_length_c 8.905918
_cell_angle_alpha 90.000000
_cell_angle_beta 38.265650
_cell_angle_gamma 90.000000
_cell_volume 2125.829152
_symmetry_space_group_name_H-M "C 2/C"
_symmetry_group_IT_number 15
_symmetry_cell_setting 'monoclinic'
loop_
_space_group_symop_operation_xyz
x,y,z
-x,y,1/2-z
-x,-y,-z
x,-y,1/2+z
1/2+x,1/2+y,z
1/2-x,1/2+y,1/2-z
1/2-x,1/2-y,-z
1/2+x,1/2-y,1/2+z
loop_
_atom_site_type_symbol
_atom_site_label
_atom_site_fract_x
_atom_site_fract_y
_atom_site_fract_z
Si Si1 0.738724 0.527234 0.239059
Si Si2 0.438113 0.942042 0.008651
Si Si3 0.910496 0.952909 0.262963
Si Si4 0.500000 0.238152 0.750000
Si Si5 0.040767 0.142840 0.345344
Si Si6 0.830686 0.365225 0.418825
O O1 0.639367 0.504279 0.273877
O O2 0.698231 0.563576 0.452368
O O3 0.801852 0.464893 0.192615
O O4 0.834491 0.571106 0.007149
O O5 0.500000 0.932250 0.750000
O O6 0.416727 0.880843 0.141817
O O7 0.500000 0.000000 0.000000
O O8 0.000000 0.978505 0.250000
O O9 0.973041 0.895247 0.081714
O O10 0.501404 0.285812 0.607401
O O11 0.614812 0.193727 0.583727
O O12 0.000000 0.114622 0.250000
O O13 0.186458 0.142520 0.122884
#
# Coordination Sequence:
#
# PCOD9299629 Si02
#       6
#     8   8   8   4   8   8
#     4  12  24  38  69 105 141 173 214 276 355 418
#     4  12  23  40  64 102 142 175 217 265 342 420
#     4  12  24  40  64 105 142 170 216 279 347 412
#     4  10  26  46  70  90 128 190 240 274 326 390
#     4  10  25  44  69  93 130 180 235 276 333 390
#     4  12  22  43  71  94 135 179 221 279 339 400
#
# _framework density 20.697806
#
# number of rings (size 3 to 8) (size 9 to 14) (size 15 to 20)
#    0.545    0.000    5.455    3.273    0.000    0.000 
#    0.000    1.818    0.000    0.000    0.000    0.000 
#    0.000    0.000    0.000    0.000    0.000    0.000 
#
# Total GULP energy -122643.651927 kJ/mol
# GULP energy per Si atom -5574.711451 kJ/mol
# Density = 2.065070 g / cm^3
# Si number density = 20.697806 Si / 1000 Ang^3
#
#
#
# Elastic Constant Matrix: (Units=GPa)
#
#
# Indices 1 2 3 4 5 6 
#
# 1 105.3666 43.2588 44.1055 -0.0001 -3.3105 0.0000
# 2 43.2588 116.5637 40.8800 0.0000 -0.6523 0.0000
# 3 44.1055 40.8800 140.8767 -0.0002 19.2082 0.0001
# 4 -0.0001 0.0000 -0.0002 24.7692 0.0002 -2.1696
# 5 -3.3105 -0.6523 19.2082 0.0002 32.8729 -0.0001
# 6 0.0000 0.0000 0.0001 -2.1696 -0.0001 33.2743
#
#
#
# Elastic Compliance Matrix: (Units=1/GPa)
#
#
# Indices 1 2 3 4 5 6 
#
# 1 0.012375 -0.003415 -0.003308 0.000000 0.003111 0.000000
# 2 -0.003415 0.010612 -0.002164 0.000000 0.001131 0.000000
# 3 -0.003308 -0.002164 0.009576 0.000000 -0.005972 0.000000
# 4 0.000000 0.000000 0.000000 0.040605 0.000000 0.002648
# 5 0.003111 0.001131 -0.005972 0.000000 0.034245 0.000000
# 6 0.000000 0.000000 0.000000 0.002648 0.000000 0.030226
#
#
# Mechanical properties :
#
#
# Convention : Reuss Voigt Hill
#
# Bulk Modulus (GPa) = 67.61858 68.81063 68.21460
# Shear Modulus (GPa) = 31.18319 33.82077 32.50198
#
# Velocity S-wave (km/s) = 3.88570 4.04669 3.96701
# Velocity P-wave (km/s) = 7.27131 7.42643 7.34928
#
# Compressibility (1/GPa) = 0.01478884
#
# Stress axis : x y z
#
# Youngs Moduli (GPa) = 80.80769 94.23418 104.42547
#
# Poissons Ratio (x) = 0.32183 0.34539
# Poissons Ratio (y) = 0.27598 0.22602
# Poissons Ratio (z) = 0.26727 0.20396
#
# Static dielectric constant tensor:
#      x y z
#    x 1.845630 0.000000 -0.062820 
#    y 0.000000 1.706970 0.000000 
#    z -0.062820 0.000000 1.878530 
# 
# From -- ./inp_files/51428.got.cif
#   From: 2010.05.17/outbox.cif.g08.bks.cpg/sg15_26_cif.got.tgz:51428.got - 2010.06.03 18:47:42.
