data_PCOD9299896
_publ_section_title
;
Structure prediction by ZEFSAII (Michael W. Deem and Ramdas Pophale) SiO2 
 PCOD9299896
Probable space group: C 2/C
;
_chemical_formula_sum "Si O2"
_cell_formula_units_Z 44
_cell_length_a 8.447066
_cell_length_b 12.103212
_cell_length_c 19.715005
_cell_angle_alpha 90.000000
_cell_angle_beta 103.806068
_cell_angle_gamma 90.000000
_cell_volume 1957.363133
_symmetry_space_group_name_H-M "C 2/C"
_symmetry_group_IT_number 15
_symmetry_cell_setting 'monoclinic'
loop_
_space_group_symop_operation_xyz
x,y,z
-x,y,1/2-z
-x,-y,-z
x,-y,1/2+z
1/2+x,1/2+y,z
1/2-x,1/2+y,1/2-z
1/2-x,1/2-y,-z
1/2+x,1/2-y,1/2+z
loop_
_atom_site_type_symbol
_atom_site_label
_atom_site_fract_x
_atom_site_fract_y
_atom_site_fract_z
Si Si1 0.042205 0.738698 0.131052
Si Si2 0.108239 0.083116 0.467414
Si Si3 0.817262 0.926930 0.259927
Si Si4 0.500000 0.071484 0.250000
Si Si5 0.435486 0.171312 0.516465
Si Si6 0.237833 0.899604 0.395344
O O1 0.145859 0.833347 0.180317
O O2 0.103014 0.688779 0.067061
O O3 0.012456 0.646345 0.184195
O O4 0.876186 0.800109 0.092534
O O5 0.274593 0.109687 0.525611
O O6 0.037822 0.205879 0.450172
O O7 0.147982 0.013867 0.404135
O O8 0.000000 0.000000 0.500000
O O9 0.739829 0.881874 0.182060
O O10 0.000000 0.963625 0.250000
O O11 0.673766 0.006964 0.271382
O O12 0.594364 0.102291 0.547824
#
# Coordination Sequence:
#
# PCOD9299896 Si02
#       6
#     8   8   8   4   8   8
#     4  11  23  45  69 103 136 176 241 282 340 432
#     4  11  24  41  66 101 136 180 222 276 339 411
#     4  10  25  48  67 101 142 178 238 292 338 426
#     4  12  24  46  78  92 136 200 222 284 368 396
#     4  11  25  42  70 102 138 178 230 278 350 409
#     4  11  22  46  67  97 144 174 224 296 337 405
#
# _framework density 22.479220999999999
#
# number of rings (size 3 to 8) (size 9 to 14) (size 15 to 20)
#    0.000    1.091    4.545    2.182    0.000    7.273 
#    1.636    0.000    0.000    0.000    0.000    0.000 
#    0.000    0.000    0.000    0.000    0.000    0.000 
#
# Total GULP energy -122802.893551 kJ/mol
# GULP energy per Si atom -5581.949707 kJ/mol
# Density = 2.242806 g / cm^3
# Si number density = 22.479221 Si / 1000 Ang^3
#
#
#
# Elastic Constant Matrix: (Units=GPa)
#
#
# Indices 1 2 3 4 5 6 
#
# 1 109.2616 79.3145 49.0490 0.0000 3.6984 0.0000
# 2 79.3145 88.2876 28.0003 0.0000 8.3893 0.0000
# 3 49.0490 28.0003 105.9760 0.0000 3.5373 0.0000
# 4 0.0000 0.0000 0.0000 31.0759 0.0000 4.7405
# 5 3.6984 8.3893 3.5373 0.0000 16.0142 0.0000
# 6 0.0000 0.0000 0.0000 4.7405 0.0000 53.8868
#
#
#
# Elastic Compliance Matrix: (Units=1/GPa)
#
#
# Indices 1 2 3 4 5 6 
#
# 1 0.032209 -0.027213 -0.008004 0.000000 0.008585 0.000000
# 2 -0.027213 0.035912 0.003551 0.000000 -0.013313 0.000000
# 3 -0.008004 0.003551 0.012293 0.000000 -0.002727 0.000000
# 4 0.000000 0.000000 0.000000 0.032617 0.000000 -0.002869
# 5 0.008585 -0.013313 -0.002727 0.000000 0.068038 0.000000
# 6 0.000000 0.000000 0.000000 -0.002869 0.000000 0.018810
#
#
# Mechanical properties :
#
#
# Convention : Reuss Voigt Hill
#
# Bulk Modulus (GPa) = 58.53766 68.47252 63.50509
# Shear Modulus (GPa) = 18.59387 30.00614 24.30000
#
# Velocity S-wave (km/s) = 2.87916 3.65751 3.29142
# Velocity P-wave (km/s) = 6.09508 6.95435 6.53885
#
# Compressibility (1/GPa) = 0.01708302
#
# Stress axis : x y z
#
# Youngs Moduli (GPa) = 31.04742 27.84554 81.34431
#
# Poissons Ratio (x) = 0.75775 0.65107
# Poissons Ratio (y) = 0.84488 -0.28883
# Poissons Ratio (z) = 0.24850 -0.09887
#
# Static dielectric constant tensor:
#      x y z
#    x 1.978960 0.000000 -0.063340 
#    y 0.000000 1.874960 0.000000 
#    z -0.063340 0.000000 1.820420 
# 
# From -- ./inp_files/230296.got.cif
#   From: 2010.05.17/outbox.cif.g08.bks.cpg/sg15_116_cif.got.tgz:230296.got - 2010.06.03 18:47:42.
