data_PCOD9299702
_publ_section_title
;
Structure prediction by ZEFSAII (Michael W. Deem and Ramdas Pophale) SiO2 
 PCOD9299702
Probable space group: C 2/C
;
_chemical_formula_sum "Si O2"
_cell_formula_units_Z 60
_cell_length_a 26.007266
_cell_length_b 5.891587
_cell_length_c 20.478416
_cell_angle_alpha 90.000000
_cell_angle_beta 127.855829
_cell_angle_gamma 90.000000
_cell_volume 2477.462420
_symmetry_space_group_name_H-M "C 2/C"
_symmetry_group_IT_number 15
_symmetry_cell_setting 'monoclinic'
loop_
_space_group_symop_operation_xyz
x,y,z
-x,y,1/2-z
-x,-y,-z
x,-y,1/2+z
1/2+x,1/2+y,z
1/2-x,1/2+y,1/2-z
1/2-x,1/2-y,-z
1/2+x,1/2-y,1/2+z
loop_
_atom_site_type_symbol
_atom_site_label
_atom_site_fract_x
_atom_site_fract_y
_atom_site_fract_z
Si Si1 0.000000 0.659683 0.750000
Si Si2 0.961260 0.683191 0.928544
Si Si3 0.909777 0.610051 0.267954
Si Si4 0.845110 0.183456 0.524713
Si Si5 0.238748 0.940728 0.936907
Si Si6 0.984107 0.016950 0.625788
Si Si7 0.833787 0.900448 0.877363
Si Si8 0.293450 0.377677 0.216606
O O1 0.060365 0.508794 0.772341
O O2 0.023467 0.822853 0.825973
O O3 0.928124 0.557667 0.841208
O O4 0.903211 0.783369 0.925458
O O5 0.006476 0.881091 0.934212
O O6 0.000000 0.500000 0.000000
O O7 0.834971 0.679967 0.213756
O O8 0.950792 0.840918 0.310243
O O9 0.805908 0.416189 0.483328
O O10 0.826652 0.025261 0.447267
O O11 0.816675 0.088623 0.569593
O O12 0.922820 0.183406 0.584623
O O13 0.213704 0.919611 0.842395
O O14 0.250000 0.750000 0.000000
O O15 0.777203 0.717187 0.821805
O O16 0.827699 0.068696 0.811817
#
# Coordination Sequence:
#
# PCOD9299702 Si02
#       8
#     4   8   8   8   8   8   8   8
#     4  10  26  42  70 102 144 186 246 298 370 438
#     4  11  25  43  69 107 144 188 245 297 369 443
#     4  11  24  45  69 104 142 183 241 306 364 433
#     4  10  25  45  69 102 143 192 239 297 368 432
#     4  10  25  48  69 104 142 191 248 302 362 441
#     4  11  24  45  68 105 141 192 239 299 367 446
#     4  11  24  46  71 105 143 190 242 296 368 429
#     4  11  25  44  75 103 144 186 243 301 362 444
#
# _framework density 24.218328
#
# number of rings (size 3 to 8) (size 9 to 14) (size 15 to 20)
#    0.000    1.333    1.333    2.000    7.467    5.333 
#    7.200    0.000    0.000    0.000    0.000    0.000 
#    0.000    0.000    0.000    0.000    0.000    0.000 
#
# Total GULP energy -167858.330634 kJ/mol
# GULP energy per Si atom -5595.277688 kJ/mol
# Density = 2.416321 g / cm^3
# Si number density = 24.218328 Si / 1000 Ang^3
#
#
#
# Elastic Constant Matrix: (Units=GPa)
#
#
# Indices 1 2 3 4 5 6 
#
# 1 152.6466 44.2980 48.5116 -0.0002 0.9674 0.0000
# 2 44.2980 55.3497 8.3581 -0.0010 -8.8497 -0.0029
# 3 48.5116 8.3581 72.1536 -0.0003 -21.4751 -0.0003
# 4 -0.0002 -0.0010 -0.0003 42.9739 0.0001 -11.1580
# 5 0.9674 -8.8497 -21.4751 0.0001 45.7347 0.0002
# 6 0.0000 -0.0029 -0.0003 -11.1580 0.0002 34.9340
#
#
#
# Elastic Compliance Matrix: (Units=1/GPa)
#
#
# Indices 1 2 3 4 5 6 
#
# 1 0.012161 -0.009384 -0.008958 0.000000 -0.006280 -0.000001
# 2 -0.009384 0.025985 0.005644 0.000001 0.007877 0.000003
# 3 -0.008958 0.005644 0.022796 0.000000 0.011986 0.000001
# 4 0.000000 0.000001 0.000000 0.025374 0.000000 0.008105
# 5 -0.006280 0.007877 0.011986 0.000000 0.029150 0.000001
# 6 -0.000001 0.000003 0.000001 0.008105 0.000001 0.031214
#
#
# Mechanical properties :
#
#
# Convention : Reuss Voigt Hill
#
# Bulk Modulus (GPa) = 28.13429 53.60947 40.87188
# Shear Modulus (GPa) = 27.18491 36.66068 31.92279
#
# Velocity S-wave (km/s) = 3.35400 3.89492 3.63454
# Velocity P-wave (km/s) = 5.16151 6.51239 5.87590
#
# Compressibility (1/GPa) = 0.03554382
#
# Stress axis : x y z
#
# Youngs Moduli (GPa) = 82.22902 38.48441 43.86759
#
# Poissons Ratio (x) = 0.36115 0.39298
# Poissons Ratio (y) = 0.77165 -0.24757
# Poissons Ratio (z) = 0.73664 -0.21719
#
# Static dielectric constant tensor:
#      x y z
#    x 1.889890 0.000000 -0.024390 
#    y 0.000000 1.942100 0.000000 
#    z -0.024390 0.000000 1.958680 
# 
# From -- ./inp_files/256786.got.cif
#   From: 2010.05.17/outbox.cif.g08.bks.cpg/sg15_129_cif.got.tgz:256786.got - 2010.06.03 18:47:42.
