data_PCOD9299308
_publ_section_title
;
Structure prediction by ZEFSAII (Michael W. Deem and Ramdas Pophale) SiO2 
 PCOD9299308
Probable space group: C 2/C
;
_chemical_formula_sum "Si O2"
_cell_formula_units_Z 36
_cell_length_a 11.685726
_cell_length_b 26.336806
_cell_length_c 8.574668
_cell_angle_alpha 90.000000
_cell_angle_beta 37.826139
_cell_angle_gamma 90.000000
_cell_volume 1618.400651
_symmetry_space_group_name_H-M "C 2/C"
_symmetry_group_IT_number 15
_symmetry_cell_setting 'monoclinic'
loop_
_space_group_symop_operation_xyz
x,y,z
-x,y,1/2-z
-x,-y,-z
x,-y,1/2+z
1/2+x,1/2+y,z
1/2-x,1/2+y,1/2-z
1/2-x,1/2-y,-z
1/2+x,1/2-y,1/2+z
loop_
_atom_site_type_symbol
_atom_site_label
_atom_site_fract_x
_atom_site_fract_y
_atom_site_fract_z
Si Si1 0.682840 0.430093 0.319194
Si Si2 0.500000 0.507184 0.750000
Si Si3 0.878110 0.728515 0.504835
Si Si4 0.003574 0.639696 0.932869
Si Si5 0.576690 0.342298 0.989896
O O1 0.627918 0.470877 0.507910
O O2 0.630927 0.457554 0.214404
O O3 0.890172 0.408922 0.112820
O O4 0.545248 0.381287 0.478689
O O5 0.750000 0.750000 0.500000
O O6 0.870853 0.688612 0.651075
O O7 0.947614 0.781358 0.507648
O O8 0.000000 0.696080 0.250000
O O9 0.000000 0.636453 0.750000
O O10 0.792662 0.645935 0.222849
O O11 0.500000 0.349105 0.250000
#
# Coordination Sequence:
#
# PCOD9299308 Si02
#       5
#     8   4   8   8   8
#     4  11  24  48  73 105 143 188 242 309 366 426
#     4  10  24  48  76 102 142 186 250 310 370 420
#     4  11  22  41  67 104 146 194 241 276 345 449
#     4  12  27  45  72 112 152 186 244 301 364 430
#     4  11  24  44  73 105 146 195 238 295 356 441
#
# _framework density 22.244181999999999
#
# number of rings (size 3 to 8) (size 9 to 14) (size 15 to 20)
#    0.000    0.889    3.333    4.000    0.000    0.889 
#    2.000   12.222    0.000    0.000    0.000    0.000 
#    0.000    0.000    0.000    0.000    0.000    0.000 
#
# Total GULP energy -100210.563587 kJ/mol
# GULP energy per Si atom -5567.253533 kJ/mol
# Density = 2.219355 g / cm^3
# Si number density = 22.244182 Si / 1000 Ang^3
#
#
#
# Elastic Constant Matrix: (Units=GPa)
#
#
# Indices 1 2 3 4 5 6 
#
# 1 104.1073 63.2311 59.7450 0.0000 4.7250 0.0000
# 2 63.2311 147.6629 45.4196 0.0000 4.1709 0.0000
# 3 59.7450 45.4196 120.0333 0.0000 -8.3343 0.0000
# 4 0.0000 0.0000 0.0000 -29.3340 0.0000 -4.4235
# 5 4.7250 4.1709 -8.3343 0.0000 26.5417 0.0000
# 6 0.0000 0.0000 0.0000 -4.4235 0.0000 -5.0426
#
#
#
# Elastic Compliance Matrix: (Units=1/GPa)
#
#
# Indices 1 2 3 4 5 6 
#
# 1 0.016661 -0.004946 -0.006720 0.000000 -0.004299 0.000000
# 2 -0.004946 0.009256 -0.001104 0.000000 -0.000921 0.000000
# 3 -0.006720 -0.001104 0.012460 0.000000 0.005282 0.000000
# 4 0.000000 0.000000 0.000000 -0.039287 0.000000 0.034464
# 5 -0.004299 -0.000921 0.005282 0.000000 0.040245 0.000000
# 6 0.000000 0.000000 0.000000 0.034464 0.000000 -0.228542
#
#
# Mechanical properties :
#
#
# Convention : Reuss Voigt Hill
#
# Bulk Modulus (GPa) = 77.90134 78.73277 78.31705
# Shear Modulus (GPa) = -31.37013 11.99354 -9.68830
#
# Velocity S-wave (km/s) = -3.75942 2.32454 -2.08923
# Velocity P-wave (km/s) = 4.03146 6.53270 5.42812
#
# Compressibility (1/GPa) = 0.01283675
#
# Stress axis : x y z
#
# Youngs Moduli (GPa) = 60.02058 108.03933 80.25464
#
# Poissons Ratio (x) = 0.53437 0.53929
# Poissons Ratio (y) = 0.29687 0.08864
# Poissons Ratio (z) = 0.40332 0.11932
#
# Static dielectric constant tensor:
#      x y z
#    x 1.970520 0.000000 -0.197180 
#    y 0.000000 1.803300 0.000000 
#    z -0.197180 0.000000 2.052410 
# 
# From -- ./inp_files/33270.got.cif
#   From: 2010.05.17/outbox.cif.g08.bks.cpg/sg15_17_cif.got.tgz:33270.got - 2010.06.03 18:47:42.
