data_PCOD9299651
_publ_section_title
;
Structure prediction by ZEFSAII (Michael W. Deem and Ramdas Pophale) SiO2 
 PCOD9299651
Probable space group: C 2/C
;
_chemical_formula_sum "Si O2"
_cell_formula_units_Z 32
_cell_length_a 11.564203
_cell_length_b 10.757120
_cell_length_c 13.552552
_cell_angle_alpha 90.000000
_cell_angle_beta 44.242305
_cell_angle_gamma 90.000000
_cell_volume 1176.245426
_symmetry_space_group_name_H-M "C 2/C"
_symmetry_group_IT_number 15
_symmetry_cell_setting 'monoclinic'
loop_
_space_group_symop_operation_xyz
x,y,z
-x,y,1/2-z
-x,-y,-z
x,-y,1/2+z
1/2+x,1/2+y,z
1/2-x,1/2+y,1/2-z
1/2-x,1/2-y,-z
1/2+x,1/2-y,1/2+z
loop_
_atom_site_type_symbol
_atom_site_label
_atom_site_fract_x
_atom_site_fract_y
_atom_site_fract_z
Si Si1 0.323146 0.861473 0.371143
Si Si2 0.842744 0.384083 0.567666
Si Si3 0.557756 0.208503 0.109649
Si Si4 0.377863 0.462160 0.163263
O O1 0.500000 0.799846 0.250000
O O2 0.181033 0.758593 0.452899
O O3 0.325076 0.942625 0.468752
O O4 0.292257 0.934205 0.289784
O O5 0.682935 0.433196 0.724504
O O6 0.998930 0.369810 0.547251
O O7 0.500000 0.153033 0.250000
O O8 0.451958 0.338012 0.165618
O O9 0.750000 0.250000 0.000000
O O10 0.500000 0.500000 0.000000
#
# Coordination Sequence:
#
# PCOD9299651 Si02
#       4
#     8   8   8   8
#     4  10  25  44  72 102 137 196 240 303 368 433
#     4  10  25  47  72 101 149 185 252 304 367 452
#     4  11  26  46  73 106 146 194 240 307 381 440
#     4  11  26  43  72 107 140 190 244 304 369 441
#
# _framework density 27.205207999999999
#
# number of rings (size 3 to 8) (size 9 to 14) (size 15 to 20)
#    0.000    1.500    0.000    1.500   21.000    4.000 
#    0.000    0.000    0.000    0.000    0.000    0.000 
#    0.000    0.000    0.000    0.000    0.000    0.000 
#
# Total GULP energy -89410.197273 kJ/mol
# GULP energy per Si atom -5588.137330 kJ/mol
# Density = 2.714329 g / cm^3
# Si number density = 27.205208 Si / 1000 Ang^3
#
#
#
# Elastic Constant Matrix: (Units=GPa)
#
#
# Indices 1 2 3 4 5 6 
#
# 1 228.7237 47.4961 62.0406 0.0000 18.4558 0.0000
# 2 47.4961 44.5966 -5.0048 0.0000 13.2635 0.0000
# 3 62.0406 -5.0048 122.7153 0.0000 23.4248 0.0000
# 4 0.0000 0.0000 0.0000 35.3735 0.0000 2.7356
# 5 18.4558 13.2635 23.4248 0.0000 51.9726 0.0000
# 6 0.0000 0.0000 0.0000 2.7356 0.0000 69.6953
#
#
#
# Elastic Compliance Matrix: (Units=1/GPa)
#
#
# Indices 1 2 3 4 5 6 
#
# 1 0.007198 -0.008617 -0.004292 0.000000 0.001577 0.000000
# 2 -0.008617 0.035231 0.007577 0.000000 -0.009346 0.000000
# 3 -0.004292 0.007577 0.011714 0.000000 -0.005689 0.000000
# 4 0.000000 0.000000 0.000000 0.028356 0.000000 -0.001113
# 5 0.001577 -0.009346 -0.005689 0.000000 0.023630 0.000000
# 6 0.000000 0.000000 0.000000 -0.001113 0.000000 0.014392
#
#
# Mechanical properties :
#
#
# Convention : Reuss Voigt Hill
#
# Bulk Modulus (GPa) = 22.99919 67.23326 45.11622
# Shear Modulus (GPa) = 34.32260 50.84188 42.58224
#
# Velocity S-wave (km/s) = 3.55578 4.32769 3.96058
# Velocity P-wave (km/s) = 5.03293 7.05258 6.12655
#
# Compressibility (1/GPa) = 0.04347980
#
# Stress axis : x y z
#
# Youngs Moduli (GPa) = 138.92089 28.38446 85.36971
#
# Poissons Ratio (x) = 0.24459 0.36639
# Poissons Ratio (y) = 1.19709 -0.64688
# Poissons Ratio (z) = 0.59621 -0.21508
#
# Static dielectric constant tensor:
#      x y z
#    x 2.364850 0.000000 0.065820 
#    y 0.000000 2.431230 0.000000 
#    z 0.065820 0.000000 2.104100 
# 
# From -- ./inp_files/83978.got.cif
#   From: 2010.05.17/outbox.cif.g08.bks.cpg/sg15_42_cif.got.tgz:83978.got - 2010.06.03 18:47:42.
