data_PCOD9299467
_publ_section_title
;
Structure prediction by ZEFSAII (Michael W. Deem and Ramdas Pophale) SiO2 
 PCOD9299467
Probable space group: C 2/C
;
_chemical_formula_sum "Si O2"
_cell_formula_units_Z 24
_cell_length_a 11.487206
_cell_length_b 17.829385
_cell_length_c 5.221830
_cell_angle_alpha 90.000000
_cell_angle_beta 86.657800
_cell_angle_gamma 90.000000
_cell_volume 1067.663023
_symmetry_space_group_name_H-M "C 2/C"
_symmetry_group_IT_number 15
_symmetry_cell_setting 'monoclinic'
loop_
_space_group_symop_operation_xyz
x,y,z
-x,y,1/2-z
-x,-y,-z
x,-y,1/2+z
1/2+x,1/2+y,z
1/2-x,1/2+y,1/2-z
1/2-x,1/2-y,-z
1/2+x,1/2-y,1/2+z
loop_
_atom_site_type_symbol
_atom_site_label
_atom_site_fract_x
_atom_site_fract_y
_atom_site_fract_z
Si Si1 0.299928 0.811110 0.698408
Si Si2 0.072887 0.188793 0.501715
Si Si3 0.368038 0.032819 0.009361
O O1 0.250000 0.750000 0.500000
O O2 0.194001 0.844820 0.880808
O O3 0.364025 0.878653 0.549142
O O4 0.383354 0.767188 0.881979
O O5 0.000000 0.197757 0.250000
O O6 0.000000 0.153705 0.750000
O O7 0.310093 0.991702 0.255417
O O8 0.500000 0.000000 0.000000
#
# Coordination Sequence:
#
# PCOD9299467 Si02
#       3
#     8   8   8
#     4  11  25  42  72 106 145 191 254 293 354 442
#     4  11  24  39  66 103 140 182 245 303 355 408
#     4  10  25  41  64  99 147 182 223 295 379 420
#
# _framework density 22.479002000000001
#
# number of rings (size 3 to 8) (size 9 to 14) (size 15 to 20)
#    0.000    1.333    3.333    0.000   14.000    2.667 
#    0.000    0.000    0.000    6.000    0.000    0.000 
#    0.000    0.000    0.000    0.000    0.000    0.000 
#
# Total GULP energy -66936.353313 kJ/mol
# GULP energy per Si atom -5578.029443 kJ/mol
# Density = 2.242784 g / cm^3
# Si number density = 22.479002 Si / 1000 Ang^3
#
#
#
# Elastic Constant Matrix: (Units=GPa)
#
#
# Indices 1 2 3 4 5 6 
#
# 1 80.8782 9.1995 20.9621 0.0000 -19.5856 0.0000
# 2 9.1995 110.1448 24.2090 0.0000 -1.7686 0.0000
# 3 20.9621 24.2090 187.7486 0.0000 3.8760 0.0000
# 4 0.0000 0.0000 0.0000 32.6587 0.0000 -10.4303
# 5 -19.5856 -1.7686 3.8760 0.0000 41.2836 0.0000
# 6 0.0000 0.0000 0.0000 -10.4303 0.0000 29.0418
#
#
#
# Elastic Compliance Matrix: (Units=1/GPa)
#
#
# Indices 1 2 3 4 5 6 
#
# 1 0.014590 -0.000736 -0.001680 0.000000 0.007048 0.000000
# 2 -0.000736 0.009392 -0.001132 0.000000 0.000159 0.000000
# 3 -0.001680 -0.001132 0.005688 0.000000 -0.001379 0.000000
# 4 0.000000 0.000000 0.000000 0.034587 0.000000 0.012422
# 5 0.007048 0.000159 -0.001379 0.000000 0.027703 0.000000
# 6 0.000000 0.000000 0.000000 0.012422 0.000000 0.038894
#
#
# Mechanical properties :
#
#
# Convention : Reuss Voigt Hill
#
# Bulk Modulus (GPa) = 44.29812 54.16806 49.23309
# Shear Modulus (GPa) = 34.37025 42.22357 38.29691
#
# Velocity S-wave (km/s) = 3.91448 4.33870 4.13204
# Velocity P-wave (km/s) = 6.33877 7.01774 6.68688
#
# Compressibility (1/GPa) = 0.02257432
#
# Stress axis : x y z
#
# Youngs Moduli (GPa) = 68.53982 106.47541 175.80117
#
# Poissons Ratio (x) = 0.07839 0.29526
# Poissons Ratio (y) = 0.05046 0.19902
# Poissons Ratio (z) = 0.11512 0.12054
#
# Static dielectric constant tensor:
#      x y z
#    x 1.923120 0.000000 -0.078560 
#    y 0.000000 1.818990 0.000000 
#    z -0.078560 0.000000 1.985660 
# 
# From -- ./inp_files/3263.got.cif
#   From: 2010.05.17/outbox.cif.g08.bks.cpg/sg15_2_cif.got.tgz:3263.got - 2010.06.03 18:47:42.
