data_PCOD9299649
_publ_section_title
;
Structure prediction by ZEFSAII (Michael W. Deem and Ramdas Pophale) SiO2 
 PCOD9299649
Probable space group: C 2/C
;
_chemical_formula_sum "Si O2"
_cell_formula_units_Z 40
_cell_length_a 9.933909
_cell_length_b 7.766566
_cell_length_c 24.230891
_cell_angle_alpha 90.000000
_cell_angle_beta 64.920567
_cell_angle_gamma 90.000000
_cell_volume 1693.218643
_symmetry_space_group_name_H-M "C 2/C"
_symmetry_group_IT_number 15
_symmetry_cell_setting 'monoclinic'
loop_
_space_group_symop_operation_xyz
x,y,z
-x,y,1/2-z
-x,-y,-z
x,-y,1/2+z
1/2+x,1/2+y,z
1/2-x,1/2+y,1/2-z
1/2-x,1/2-y,-z
1/2+x,1/2-y,1/2+z
loop_
_atom_site_type_symbol
_atom_site_label
_atom_site_fract_x
_atom_site_fract_y
_atom_site_fract_z
Si Si1 0.592858 0.322822 0.545787
Si Si2 0.503435 0.322362 0.439697
Si Si3 0.785305 0.555788 0.824094
Si Si4 0.836602 0.929434 0.765886
Si Si5 0.525810 0.984918 0.365448
O O1 0.750000 0.250000 0.500000
O O2 0.494329 0.311854 0.507242
O O3 0.603764 0.522745 0.560838
O O4 0.526115 0.198883 0.603210
O O5 0.664836 0.393246 0.391800
O O6 0.486744 0.136878 0.415155
O O7 0.832247 0.732616 0.786357
O O8 0.704801 0.446319 0.791030
O O9 0.929053 0.475553 0.827789
O O10 0.700130 0.014165 0.822588
O O11 0.000000 0.001694 0.750000
#
# Coordination Sequence:
#
# PCOD9299649 Si02
#       5
#     8   8   8   8   8
#     4  11  23  47  73 106 153 188 238 299 357 433
#     4  10  25  44  71 111 141 192 241 289 363 433
#     4  11  25  47  70 107 142 189 245 302 359 434
#     4  11  26  45  70 102 144 189 242 306 367 431
#     4  11  24  48  75 104 146 192 242 300 366 431
#
# _framework density 23.623646999999998
#
# number of rings (size 3 to 8) (size 9 to 14) (size 15 to 20)
#    0.000    1.200    2.000    2.400    5.600    4.000 
#    3.600    0.000    0.000    0.000    0.000    0.000 
#    0.000    0.000    0.000    0.000    0.000    0.000 
#
# Total GULP energy -112002.645242 kJ/mol
# GULP energy per Si atom -5600.132262 kJ/mol
# Density = 2.356988 g / cm^3
# Si number density = 23.623647 Si / 1000 Ang^3
#
#
#
# Elastic Constant Matrix: (Units=GPa)
#
#
# Indices 1 2 3 4 5 6 
#
# 1 116.1214 15.5147 23.3896 0.0000 -2.5416 0.0000
# 2 15.5147 63.7241 11.7309 0.0000 1.5813 0.0000
# 3 23.3896 11.7309 77.8946 0.0000 14.5138 0.0000
# 4 0.0000 0.0000 0.0000 49.3489 0.0000 -1.0315
# 5 -2.5416 1.5813 14.5138 0.0000 38.5531 0.0000
# 6 0.0000 0.0000 0.0000 -1.0315 0.0000 18.5184
#
#
#
# Elastic Compliance Matrix: (Units=1/GPa)
#
#
# Indices 1 2 3 4 5 6 
#
# 1 0.009479 -0.001817 -0.002907 0.000000 0.001794 0.000000
# 2 -0.001817 0.016491 -0.001925 0.000000 -0.000072 0.000000
# 3 -0.002907 -0.001925 0.015079 0.000000 -0.005790 0.000000
# 4 0.000000 0.000000 0.000000 0.020288 0.000000 0.001130
# 5 0.001794 -0.000072 -0.005790 0.000000 0.028239 0.000000
# 6 0.000000 0.000000 0.000000 0.001130 0.000000 0.054063
#
#
# Mechanical properties :
#
#
# Convention : Reuss Voigt Hill
#
# Bulk Modulus (GPa) = 36.03303 39.89004 37.96154
# Shear Modulus (GPa) = 30.08648 35.09108 32.58878
#
# Velocity S-wave (km/s) = 3.57259 3.85830 3.71819
# Velocity P-wave (km/s) = 5.68365 6.06390 5.87685
#
# Compressibility (1/GPa) = 0.02775231
#
# Stress axis : x y z
#
# Youngs Moduli (GPa) = 105.49349 60.63853 66.31608
#
# Poissons Ratio (x) = 0.11020 0.19277
# Poissons Ratio (y) = 0.19171 0.12763
# Poissons Ratio (z) = 0.30666 0.11670
#
# Static dielectric constant tensor:
#      x y z
#    x 1.927100 0.000000 0.001340 
#    y 0.000000 1.891970 0.000000 
#    z 0.001340 0.000000 1.895550 
# 
# From -- ./inp_files/262422.got.cif
#   From: 2010.05.17/outbox.cif.g08.bks.cpg/sg15_132_cif.got.tgz:262422.got - 2010.06.03 18:47:42.
