data_PCOD9299584
_publ_section_title
;
Structure prediction by ZEFSAII (Michael W. Deem and Ramdas Pophale) SiO2 
 PCOD9299584
Probable space group: C 2/C
;
_chemical_formula_sum "Si O2"
_cell_formula_units_Z 40
_cell_length_a 6.700010
_cell_length_b 22.004901
_cell_length_c 9.835275
_cell_angle_alpha 90.000000
_cell_angle_beta 111.562589
_cell_angle_gamma 90.000000
_cell_volume 1348.565679
_symmetry_space_group_name_H-M "C 2/C"
_symmetry_group_IT_number 15
_symmetry_cell_setting 'monoclinic'
loop_
_space_group_symop_operation_xyz
x,y,z
-x,y,1/2-z
-x,-y,-z
x,-y,1/2+z
1/2+x,1/2+y,z
1/2-x,1/2+y,1/2-z
1/2-x,1/2-y,-z
1/2+x,1/2-y,1/2+z
loop_
_atom_site_type_symbol
_atom_site_label
_atom_site_fract_x
_atom_site_fract_y
_atom_site_fract_z
Si Si1 0.952667 0.886963 0.954718
Si Si2 0.065778 0.235607 0.631427
Si Si3 0.310080 0.935002 0.842290
Si Si4 0.781854 0.568398 0.866628
Si Si5 0.421054 0.202203 0.853229
O O1 0.755597 0.892533 0.799680
O O2 0.145877 0.916174 0.919946
O O3 0.925039 0.920729 0.091037
O O4 0.989472 0.818288 0.009858
O O5 0.168639 0.232698 0.818333
O O6 0.342193 0.223257 0.665778
O O7 0.013916 0.295461 0.531581
O O8 0.275176 0.004985 0.787575
O O9 0.536737 0.936725 0.971130
O O10 0.845354 0.631397 0.812663
#
# Coordination Sequence:
#
# PCOD9299584 Si02
#       5
#     8   8   8   8   8
#     4  11  24  45  75 107 152 195 256 312 385 448
#     4  12  27  48  74 112 149 204 258 319 392 457
#     4  10  25  43  75 112 146 200 252 320 374 466
#     4  11  24  46  71 110 152 196 254 311 393 450
#     4  12  28  47  77 109 155 199 260 322 387 465
#
# _framework density 29.661142999999999
#
# number of rings (size 3 to 8) (size 9 to 14) (size 15 to 20)
#    0.000    0.800    2.000    3.600    5.600    8.000 
#    0.000    0.000    0.000    0.000    0.000    0.000 
#    0.000    0.000    0.000    0.000    0.000    0.000 
#
# Total GULP energy -111924.048022 kJ/mol
# GULP energy per Si atom -5596.202401 kJ/mol
# Density = 2.959363 g / cm^3
# Si number density = 29.661143 Si / 1000 Ang^3
#
#
#
# Elastic Constant Matrix: (Units=GPa)
#
#
# Indices 1 2 3 4 5 6 
#
# 1 192.2053 18.5175 60.0596 0.0000 -33.9206 0.0000
# 2 18.5175 119.1179 67.6877 0.0000 12.1138 0.0000
# 3 60.0596 67.6877 178.2578 0.0000 -4.5922 0.0000
# 4 0.0000 0.0000 0.0000 37.3926 0.0000 11.8266
# 5 -33.9206 12.1138 -4.5922 0.0000 85.1034 0.0000
# 6 0.0000 0.0000 0.0000 11.8266 0.0000 31.4157
#
#
#
# Elastic Compliance Matrix: (Units=1/GPa)
#
#
# Indices 1 2 3 4 5 6 
#
# 1 0.006265 -0.000068 -0.002023 0.000000 0.002397 0.000000
# 2 -0.000068 0.010971 -0.004190 0.000000 -0.001815 0.000000
# 3 -0.002023 -0.004190 0.007888 0.000000 0.000216 0.000000
# 4 0.000000 0.000000 0.000000 0.030358 0.000000 -0.011428
# 5 0.002397 -0.001815 0.000216 0.000000 0.012976 0.000000
# 6 0.000000 0.000000 0.000000 -0.011428 0.000000 0.036134
#
#
# Mechanical properties :
#
#
# Convention : Reuss Voigt Hill
#
# Bulk Modulus (GPa) = 79.60652 86.90117 83.25385
# Shear Modulus (GPa) = 41.20662 53.67009 47.43835
#
# Velocity S-wave (km/s) = 3.73130 4.25837 4.00352
# Velocity P-wave (km/s) = 6.74243 7.31709 7.03563
#
# Compressibility (1/GPa) = 0.01256178
#
# Stress axis : x y z
#
# Youngs Moduli (GPa) = 159.62695 91.14991 126.77591
#
# Poissons Ratio (x) = 0.00621 0.25648
# Poissons Ratio (y) = 0.01087 0.53115
# Poissons Ratio (z) = 0.32294 0.38189
#
# Static dielectric constant tensor:
#      x y z
#    x 2.641640 0.000000 0.065250 
#    y 0.000000 2.195880 0.000000 
#    z 0.065250 0.000000 2.183800 
# 
# From -- ./inp_files/79544.got.cif
#   From: 2010.05.17/outbox.cif.g08.bks.cpg/sg15_40_cif.got.tgz:79544.got - 2010.06.03 18:47:42.
