data_PCOD9299883
_publ_section_title
;
Structure prediction by ZEFSAII (Michael W. Deem and Ramdas Pophale) SiO2 
 PCOD9299883
Probable space group: C 2/C
;
_chemical_formula_sum "Si O2"
_cell_formula_units_Z 32
_cell_length_a 24.331717
_cell_length_b 5.096296
_cell_length_c 10.161903
_cell_angle_alpha 90.000000
_cell_angle_beta 81.336074
_cell_angle_gamma 90.000000
_cell_volume 1245.713547
_symmetry_space_group_name_H-M "C 2/C"
_symmetry_group_IT_number 15
_symmetry_cell_setting 'monoclinic'
loop_
_space_group_symop_operation_xyz
x,y,z
-x,y,1/2-z
-x,-y,-z
x,-y,1/2+z
1/2+x,1/2+y,z
1/2-x,1/2+y,1/2-z
1/2-x,1/2-y,-z
1/2+x,1/2-y,1/2+z
loop_
_atom_site_type_symbol
_atom_site_label
_atom_site_fract_x
_atom_site_fract_y
_atom_site_fract_z
Si Si1 0.715259 0.481477 0.292108
Si Si2 0.463739 0.449170 0.383763
Si Si3 0.645195 0.161529 0.974497
Si Si4 0.127791 0.719409 0.692965
O O1 0.741149 0.195674 0.281110
O O2 0.692420 0.619039 0.433183
O O3 0.660415 0.514934 0.221897
O O4 0.500000 0.340113 0.250000
O O5 0.500000 0.500000 0.500000
O O6 0.411936 0.276865 0.449090
O O7 0.432906 0.707051 0.336458
O O8 0.629560 0.069167 0.831683
O O9 0.660639 0.933455 0.068502
#
# Coordination Sequence:
#
# PCOD9299883 Si02
#       4
#     8   8   8   8
#     4  10  25  47  77 113 151 205 247 311 384 448
#     4  12  25  47  72 101 147 194 250 313 382 438
#     4  10  26  44  72 105 150 185 254 311 366 463
#     4  10  26  44  71 109 144 192 253 306 373 459
#
# _framework density 25.688088
#
# number of rings (size 3 to 8) (size 9 to 14) (size 15 to 20)
#    1.500    0.000    2.500    0.000   10.500    4.000 
#    0.000    0.000    0.000    0.000    0.000    0.000 
#    0.000    0.000    0.000    0.000    0.000    0.000 
#
# Total GULP energy -89468.945263 kJ/mol
# GULP energy per Si atom -5591.809079 kJ/mol
# Density = 2.562962 g / cm^3
# Si number density = 25.688088 Si / 1000 Ang^3
#
#
#
# Elastic Constant Matrix: (Units=GPa)
#
#
# Indices 1 2 3 4 5 6 
#
# 1 112.3357 18.9397 37.3654 0.0000 -4.3728 0.0000
# 2 18.9397 78.6019 31.0580 0.0000 -3.0648 0.0000
# 3 37.3654 31.0580 187.8471 0.0000 -2.0140 0.0000
# 4 0.0000 0.0000 0.0000 41.0098 0.0000 -16.7296
# 5 -4.3728 -3.0648 -2.0140 0.0000 55.3189 0.0000
# 6 0.0000 0.0000 0.0000 -16.7296 0.0000 35.3305
#
#
#
# Elastic Compliance Matrix: (Units=1/GPa)
#
#
# Indices 1 2 3 4 5 6 
#
# 1 0.009759 -0.001672 -0.001658 0.000000 0.000618 0.000000
# 2 -0.001672 0.013923 -0.001963 0.000000 0.000568 0.000000
# 3 -0.001658 -0.001963 0.005978 0.000000 -0.000022 0.000000
# 4 0.000000 0.000000 0.000000 0.030222 0.000000 0.014311
# 5 0.000618 0.000568 -0.000022 0.000000 0.018157 0.000000
# 6 0.000000 0.000000 0.000000 0.014311 0.000000 0.035081
#
#
# Mechanical properties :
#
#
# Convention : Reuss Voigt Hill
#
# Bulk Modulus (GPa) = 52.43067 61.50123 56.96595
# Shear Modulus (GPa) = 38.44235 45.75995 42.10115
#
# Velocity S-wave (km/s) = 3.87267 4.22521 4.05277
# Velocity P-wave (km/s) = 6.36015 6.91351 6.64260
#
# Compressibility (1/GPa) = 0.01907281
#
# Stress axis : x y z
#
# Youngs Moduli (GPa) = 102.46474 71.82265 167.28913
#
# Poissons Ratio (x) = 0.12011 0.27739
# Poissons Ratio (y) = 0.17135 0.32844
# Poissons Ratio (z) = 0.16990 0.14101
#
# Static dielectric constant tensor:
#      x y z
#    x 2.000410 0.000000 0.002250 
#    y 0.000000 2.101250 0.000000 
#    z 0.002250 0.000000 2.060910 
# 
# From -- ./inp_files/115390.got.cif
#   From: 2010.05.17/outbox.cif.g08.bks.cpg/sg15_58_cif.got.tgz:115390.got - 2010.06.03 18:47:42.
