data_PCOD9299064
_publ_section_title
;
Structure prediction by ZEFSAII (Michael W. Deem and Ramdas Pophale) SiO2 
 PCOD9299064
Probable space group: C 2/C
;
_chemical_formula_sum "Si O2"
_cell_formula_units_Z 40
_cell_length_a 25.067949
_cell_length_b 10.516932
_cell_length_c 10.172215
_cell_angle_alpha 90.000000
_cell_angle_beta 142.058842
_cell_angle_gamma 90.000000
_cell_volume 1648.898415
_symmetry_space_group_name_H-M "C 2/C"
_symmetry_group_IT_number 15
_symmetry_cell_setting 'monoclinic'
loop_
_space_group_symop_operation_xyz
x,y,z
-x,y,1/2-z
-x,-y,-z
x,-y,1/2+z
1/2+x,1/2+y,z
1/2-x,1/2+y,1/2-z
1/2-x,1/2-y,-z
1/2+x,1/2-y,1/2+z
loop_
_atom_site_type_symbol
_atom_site_label
_atom_site_fract_x
_atom_site_fract_y
_atom_site_fract_z
Si Si1 0.759245 0.426999 0.777087
Si Si2 0.019470 0.282416 0.631838
Si Si3 0.084964 0.253382 0.316273
Si Si4 0.084992 0.037083 0.830108
Si Si5 0.201729 0.614950 0.427580
O O1 0.659199 0.390122 0.557812
O O2 0.788223 0.462403 0.686796
O O3 0.831033 0.326785 0.965227
O O4 0.755596 0.542389 0.869809
O O5 0.054941 0.139339 0.664189
O O6 0.101263 0.369873 0.763227
O O7 0.000000 0.288663 0.750000
O O8 0.944000 0.307599 0.381614
O O9 0.000000 0.265207 0.250000
O O10 0.110768 0.105440 0.344872
O O11 0.000000 0.018563 0.750000
O O12 0.250000 0.750000 0.500000
#
# Coordination Sequence:
#
# PCOD9299064 Si02
#       5
#     8   8   8   8   8
#     4  12  27  46  82 111 155 208 256 323 399 459
#     4  11  25  46  76 111 155 203 258 320 390 463
#     4  11  24  47  78 112 153 204 264 320 390 467
#     4  10  24  46  76 109 152 206 263 320 388 461
#     4  12  27  51  75 115 163 201 258 331 390 467
#
# _framework density 24.258620000000001
#
# number of rings (size 3 to 8) (size 9 to 14) (size 15 to 20)
#    0.000    0.800    4.000    1.800    5.600    4.800 
#    0.000    6.000    0.000    0.000    0.000    0.000 
#    0.000    0.000    0.000    0.000    0.000    0.000 
#
# Total GULP energy -111834.958989 kJ/mol
# GULP energy per Si atom -5591.747949 kJ/mol
# Density = 2.420341 g / cm^3
# Si number density = 24.258620 Si / 1000 Ang^3
#
#
#
# Elastic Constant Matrix: (Units=GPa)
#
#
# Indices 1 2 3 4 5 6 
#
# 1 129.4236 31.2786 54.1224 0.0000 -20.6012 0.0000
# 2 31.2786 52.7884 23.4046 0.0000 0.2195 0.0000
# 3 54.1224 23.4046 175.7763 0.0000 1.8759 0.0000
# 4 0.0000 0.0000 0.0000 35.8787 0.0000 2.7284
# 5 -20.6012 0.2195 1.8759 0.0000 48.3899 0.0000
# 6 0.0000 0.0000 0.0000 2.7284 0.0000 33.0353
#
#
#
# Elastic Compliance Matrix: (Units=1/GPa)
#
#
# Indices 1 2 3 4 5 6 
#
# 1 0.010889 -0.005274 -0.002701 0.000000 0.004765 0.000000
# 2 -0.005274 0.022687 -0.001372 0.000000 -0.002295 0.000000
# 3 -0.002701 -0.001372 0.006719 0.000000 -0.001404 0.000000
# 4 0.000000 0.000000 0.000000 0.028048 0.000000 -0.002317
# 5 0.004765 -0.002295 -0.001404 0.000000 0.022759 0.000000
# 6 0.000000 0.000000 0.000000 -0.002317 0.000000 0.030462
#
#
# Mechanical properties :
#
#
# Convention : Reuss Voigt Hill
#
# Bulk Modulus (GPa) = 46.29944 63.95549 55.12747
# Shear Modulus (GPa) = 33.90777 40.07294 36.99036
#
# Velocity S-wave (km/s) = 3.74272 4.06877 3.90915
# Velocity P-wave (km/s) = 6.14854 6.96380 6.56883
#
# Compressibility (1/GPa) = 0.02159853
#
# Stress axis : x y z
#
# Youngs Moduli (GPa) = 91.83285 44.07871 148.84174
#
# Poissons Ratio (x) = 0.23248 0.40209
# Poissons Ratio (y) = 0.48436 0.20425
# Poissons Ratio (z) = 0.24808 0.06049
#
# Static dielectric constant tensor:
#      x y z
#    x 1.956580 0.000000 -0.001300 
#    y 0.000000 2.018750 0.000000 
#    z -0.001300 0.000000 2.015300 
# 
# From -- ./inp_files/122849.got.cif
#   From: 2010.05.17/outbox.cif.g08.bks.cpg/sg15_62_cif.got.tgz:122849.got - 2010.06.03 18:47:42.
