data_PCOD9299951
_publ_section_title
;
Structure prediction by ZEFSAII (Michael W. Deem and Ramdas Pophale) SiO2 
 PCOD9299951
Probable space group: C 2/C
;
_chemical_formula_sum "Si O2"
_cell_formula_units_Z 40
_cell_length_a 15.383929
_cell_length_b 12.610164
_cell_length_c 8.037447
_cell_angle_alpha 90.000000
_cell_angle_beta 81.045246
_cell_angle_gamma 90.000000
_cell_volume 1540.211038
_symmetry_space_group_name_H-M "C 2/C"
_symmetry_group_IT_number 15
_symmetry_cell_setting 'monoclinic'
loop_
_space_group_symop_operation_xyz
x,y,z
-x,y,1/2-z
-x,-y,-z
x,-y,1/2+z
1/2+x,1/2+y,z
1/2-x,1/2+y,1/2-z
1/2-x,1/2-y,-z
1/2+x,1/2-y,1/2+z
loop_
_atom_site_type_symbol
_atom_site_label
_atom_site_fract_x
_atom_site_fract_y
_atom_site_fract_z
Si Si1 0.835334 0.782604 0.082523
Si Si2 0.523695 0.311605 0.048476
Si Si3 0.798213 0.429076 0.731294
Si Si4 0.188053 0.925686 0.083277
Si Si5 0.555835 0.091613 0.890515
O O1 0.857135 0.665701 0.148117
O O2 0.810875 0.855619 0.248640
O O3 0.929320 0.823077 0.985490
O O4 0.750000 0.750000 0.000000
O O5 0.500000 0.308340 0.250000
O O6 0.595646 0.404773 0.019073
O O7 0.568431 0.199857 0.987349
O O8 0.715258 0.457377 0.637171
O O9 0.857534 0.533941 0.705338
O O10 0.760691 0.401195 0.922048
O O11 0.500000 0.125759 0.750000
O O12 0.500000 0.000000 0.000000
#
# Coordination Sequence:
#
# PCOD9299951 Si02
#       5
#     8   8   8   8   8
#     4  11  25  48  76 110 150 203 264 317 388 465
#     4  10  25  49  74 109 152 196 251 328 384 462
#     4  12  26  44  74 112 155 203 254 321 395 468
#     4  11  27  48  76 114 159 203 258 321 397 465
#     4  12  25  41  71 114 149 189 257 323 396 453
#
# _framework density 25.970468
#
# number of rings (size 3 to 8) (size 9 to 14) (size 15 to 20)
#    0.000    0.800    2.000    3.600   14.000    0.000 
#    0.000   16.000    0.000    0.000    0.000    0.000 
#    0.000    0.000    0.000    0.000    0.000    0.000 
#
# Total GULP energy -111883.480031 kJ/mol
# GULP energy per Si atom -5594.174002 kJ/mol
# Density = 2.591136 g / cm^3
# Si number density = 25.970468 Si / 1000 Ang^3
#
#
#
# Elastic Constant Matrix: (Units=GPa)
#
#
# Indices 1 2 3 4 5 6 
#
# 1 201.5883 36.3186 37.4413 0.0000 6.3456 0.0000
# 2 36.3186 83.2846 -21.0958 0.0000 -11.2606 0.0000
# 3 37.4413 -21.0958 36.3601 0.0000 -8.3602 0.0000
# 4 0.0000 0.0000 0.0000 39.1056 0.0000 -1.4450
# 5 6.3456 -11.2606 -8.3602 0.0000 42.9667 0.0000
# 6 0.0000 0.0000 0.0000 -1.4450 0.0000 50.6901
#
#
#
# Elastic Compliance Matrix: (Units=1/GPa)
#
#
# Indices 1 2 3 4 5 6 
#
# 1 0.010585 -0.010453 -0.018795 0.000000 -0.007960 0.000000
# 2 -0.010453 0.025773 0.028919 0.000000 0.013925 0.000000
# 3 -0.018795 0.028919 0.069107 0.000000 0.023801 0.000000
# 4 0.000000 0.000000 0.000000 0.025599 0.000000 0.000730
# 5 -0.007960 0.013925 0.023801 0.000000 0.032730 0.000000
# 6 0.000000 0.000000 0.000000 0.000730 0.000000 0.019749
#
#
# Mechanical properties :
#
#
# Convention : Reuss Voigt Hill
#
# Bulk Modulus (GPa) = 9.54130 47.39567 28.46849
# Shear Modulus (GPa) = 22.81694 44.45707 33.63701
#
# Velocity S-wave (km/s) = 2.96729 4.14192 3.60280
# Velocity P-wave (km/s) = 3.92704 6.41587 5.31907
#
# Compressibility (1/GPa) = 0.10480752
#
# Stress axis : x y z
#
# Youngs Moduli (GPa) = 94.47255 38.80035 14.47032
#
# Poissons Ratio (x) = 0.40557 0.27196
# Poissons Ratio (y) = 0.98750 -0.41846
# Poissons Ratio (z) = 1.77557 -1.12205
#
# Static dielectric constant tensor:
#      x y z
#    x 2.179950 0.000000 0.086140 
#    y 0.000000 2.001090 0.000000 
#    z 0.086140 0.000000 2.071120 
# 
# From -- ./inp_files/37985.got.cif
#   From: 2010.05.17/outbox.cif.g08.bks.cpg/sg15_19_cif.got.tgz:37985.got - 2010.06.03 18:47:42.
