data_PCOD9299001
_publ_section_title
;
Structure prediction by ZEFSAII (Michael W. Deem and Ramdas Pophale) SiO2 
 PCOD9299001
Probable space group: C 2/C
;
_chemical_formula_sum "Si O2"
_cell_formula_units_Z 40
_cell_length_a 9.633843
_cell_length_b 17.618530
_cell_length_c 19.661427
_cell_angle_alpha 90.000000
_cell_angle_beta 150.354863
_cell_angle_gamma 90.000000
_cell_volume 1650.675931
_symmetry_space_group_name_H-M "C 2/C"
_symmetry_group_IT_number 15
_symmetry_cell_setting 'monoclinic'
loop_
_space_group_symop_operation_xyz
x,y,z
-x,y,1/2-z
-x,-y,-z
x,-y,1/2+z
1/2+x,1/2+y,z
1/2-x,1/2+y,1/2-z
1/2-x,1/2-y,-z
1/2+x,1/2-y,1/2+z
loop_
_atom_site_type_symbol
_atom_site_label
_atom_site_fract_x
_atom_site_fract_y
_atom_site_fract_z
Si Si1 0.550984 0.534164 0.656029
Si Si2 0.412166 0.688556 0.521509
Si Si3 0.624748 0.621797 0.137279
Si Si4 0.699508 0.171031 0.144976
Si Si5 0.074344 0.580797 0.970243
O O1 0.463771 0.610571 0.581791
O O2 0.660023 0.469440 0.649485
O O3 0.279731 0.491151 0.572296
O O4 0.801299 0.553637 0.814013
O O5 0.250000 0.750000 0.500000
O O6 0.311814 0.666884 0.403605
O O7 0.688959 0.739463 0.630437
O O8 0.811375 0.647958 0.280978
O O9 0.293078 0.630180 0.016555
O O10 0.000000 0.140266 0.250000
O O11 0.502219 0.130893 0.005521
#
# Coordination Sequence:
#
# PCOD9299001 Si02
#       5
#     8   8   8   8   8
#     4  10  24  47  78 108 151 200 258 311 380 462
#     4  12  28  46  71 114 153 201 252 324 384 448
#     4   9  24  48  72 103 151 197 254 307 379 461
#     4  10  24  46  73 105 147 195 249 322 383 452
#     4   9  23  47  76 111 143 206 251 317 377 462
#
# _framework density 24.232496999999999
#
# number of rings (size 3 to 8) (size 9 to 14) (size 15 to 20)
#    1.200    0.800    0.000    0.600    8.400    3.200 
#    3.600    0.000    0.000    0.000    0.000    0.000 
#    0.000    0.000    0.000    0.000    0.000    0.000 
#
# Total GULP energy -111645.300721 kJ/mol
# GULP energy per Si atom -5582.265036 kJ/mol
# Density = 2.417734 g / cm^3
# Si number density = 24.232497 Si / 1000 Ang^3
#
#
#
# Elastic Constant Matrix: (Units=GPa)
#
#
# Indices 1 2 3 4 5 6 
#
# 1 130.4467 62.0996 75.1158 0.0013 -35.5054 -0.0013
# 2 62.0996 186.4366 63.2621 0.0007 -40.3672 -0.0025
# 3 75.1158 63.2621 161.0422 0.0135 -29.0469 -0.0016
# 4 0.0013 0.0007 0.0135 40.5156 0.0032 -10.6957
# 5 -35.5054 -40.3672 -29.0469 0.0032 30.1325 -0.0018
# 6 -0.0013 -0.0025 -0.0016 -10.6957 -0.0018 47.4282
#
#
#
# Elastic Compliance Matrix: (Units=1/GPa)
#
#
# Indices 1 2 3 4 5 6 
#
# 1 0.013218 -0.000729 -0.003929 0.000000 0.010811 0.000001
# 2 -0.000729 0.007859 -0.001214 0.000000 0.008499 0.000001
# 3 -0.003929 -0.001214 0.008946 -0.000003 0.002367 0.000000
# 4 0.000000 0.000000 -0.000003 0.026244 -0.000005 0.005918
# 5 0.010811 0.008499 0.002367 -0.000005 0.059593 0.000002
# 6 0.000001 0.000001 0.000000 0.005918 0.000002 0.022419
#
#
# Mechanical properties :
#
#
# Convention : Reuss Voigt Hill
#
# Bulk Modulus (GPa) = 54.70859 97.65339 76.18099
# Shear Modulus (GPa) = 32.02734 42.11178 37.06956
#
# Velocity S-wave (km/s) = 3.63942 4.17324 3.91544
# Velocity P-wave (km/s) = 6.34713 7.97542 7.20740
#
# Compressibility (1/GPa) = 0.01827867
#
# Stress axis : x y z
#
# Youngs Moduli (GPa) = 75.65454 127.24824 111.77852
#
# Poissons Ratio (x) = 0.09272 0.43919
# Poissons Ratio (y) = 0.05513 0.13574
# Poissons Ratio (z) = 0.29725 0.15452
#
# Static dielectric constant tensor:
#      x y z
#    x 2.201210 0.000000 0.131730 
#    y 0.000000 1.917450 0.000000 
#    z 0.131730 0.000000 1.949880 
# 
# From -- ./inp_files/239911.got.cif
#   From: 2010.05.17/outbox.cif.g08.bks.cpg/sg15_120_cif.got.tgz:239911.got - 2010.06.03 18:47:42.
