data_PCOD9299931
_publ_section_title
;
Structure prediction by ZEFSAII (Michael W. Deem and Ramdas Pophale) SiO2 
 PCOD9299931
Probable space group: C 2/C
;
_chemical_formula_sum "Si O2"
_cell_formula_units_Z 48
_cell_length_a 22.118887
_cell_length_b 10.421878
_cell_length_c 27.850620
_cell_angle_alpha 90.000000
_cell_angle_beta 162.115438
_cell_angle_gamma 90.000000
_cell_volume 1971.624605
_symmetry_space_group_name_H-M "C 2/C"
_symmetry_group_IT_number 15
_symmetry_cell_setting 'monoclinic'
loop_
_space_group_symop_operation_xyz
x,y,z
-x,y,1/2-z
-x,-y,-z
x,-y,1/2+z
1/2+x,1/2+y,z
1/2-x,1/2+y,1/2-z
1/2-x,1/2-y,-z
1/2+x,1/2-y,1/2+z
loop_
_atom_site_type_symbol
_atom_site_label
_atom_site_fract_x
_atom_site_fract_y
_atom_site_fract_z
Si Si1 0.344078 0.311084 0.961397
Si Si2 0.391208 0.502932 0.574849
Si Si3 0.553219 0.079246 0.589299
Si Si4 0.223795 0.343413 0.763377
Si Si5 0.500000 0.668581 0.750000
Si Si6 0.857269 0.828883 0.686383
Si Si7 0.000000 0.589675 0.750000
O O1 0.241103 0.344955 0.834005
O O2 0.187706 0.254139 0.880401
O O3 0.433988 0.431401 0.056950
O O4 0.515408 0.208250 0.086279
O O5 0.464804 0.591169 0.674043
O O6 0.511206 0.370542 0.669205
O O7 0.157604 0.482167 0.401346
O O8 0.628539 0.226073 0.638648
O O9 0.349677 0.100504 0.465412
O O10 0.500000 0.000000 0.500000
O O11 0.714552 0.990267 0.738108
O O12 0.863020 0.677637 0.681042
O O13 0.000000 0.869164 0.750000
#
# Coordination Sequence:
#
# PCOD9299931 Si02
#       7
#     8   8   8   8   4   8   4
#     4  12  26  46  73 115 157 208 277 325 414 480
#     4  12  23  43  73 112 157 204 265 336 402 482
#     4  12  27  54  83 117 166 216 272 340 407 493
#     4  12  28  52  80 115 158 220 272 338 412 490
#     4  12  24  42  74 110 162 208 248 348 402 478
#     4  10  25  48  77 111 161 206 263 336 409 468
#     4  10  26  44  72 118 152 210 268 328 406 486
#
# _framework density 24.345407000000002
#
# number of rings (size 3 to 8) (size 9 to 14) (size 15 to 20)
#    0.500    0.000    4.167    3.500    2.333    3.333 
#    3.000    0.000    0.000    0.000    0.000    0.000 
#    0.000    0.000    0.000    0.000    0.000    0.000 
#
# Total GULP energy -134027.836213 kJ/mol
# GULP energy per Si atom -5584.493176 kJ/mol
# Density = 2.429000 g / cm^3
# Si number density = 24.345407 Si / 1000 Ang^3
#
#
#
# Elastic Constant Matrix: (Units=GPa)
#
#
# Indices 1 2 3 4 5 6 
#
# 1 77.6674 42.8788 31.7950 -0.0786 9.0215 0.0818
# 2 42.8788 90.5293 31.3717 0.0816 -0.9114 -0.0693
# 3 31.7950 31.3717 94.1258 0.1526 6.5350 -0.0461
# 4 -0.0786 0.0816 0.1526 35.9702 0.0367 28.7411
# 5 9.0215 -0.9114 6.5350 0.0367 51.1214 -0.0544
# 6 0.0818 -0.0693 -0.0461 28.7411 -0.0544 -12.7344
#
#
#
# Elastic Compliance Matrix: (Units=1/GPa)
#
#
# Indices 1 2 3 4 5 6 
#
# 1 0.019001 -0.007777 -0.003616 -0.000027 -0.003029 0.000130
# 2 -0.007777 0.015701 -0.002745 0.000023 0.002003 -0.000082
# 3 -0.003616 -0.002745 0.012833 -0.000005 -0.001051 -0.000062
# 4 -0.000027 0.000023 -0.000005 0.009917 0.000022 0.022382
# 5 -0.003029 0.002003 -0.001051 0.000022 0.020266 -0.000062
# 6 0.000130 -0.000082 -0.000062 0.022382 -0.000062 -0.028011
#
#
# Mechanical properties :
#
#
# Convention : Reuss Voigt Hill
#
# Bulk Modulus (GPa) = 51.92334 52.71262 52.31798
# Shear Modulus (GPa) = 59.23889 25.28991 42.26440
#
# Velocity S-wave (km/s) = 4.93817 3.22653 4.17109
# Velocity P-wave (km/s) = 7.34085 5.96487 6.68834
#
# Compressibility (1/GPa) = 0.01925916
#
# Stress axis : x y z
#
# Youngs Moduli (GPa) = 52.62889 63.68968 77.92139
#
# Poissons Ratio (x) = 0.49532 0.28176
# Poissons Ratio (y) = 0.40930 0.21391
# Poissons Ratio (z) = 0.19030 0.17484
#
# Static dielectric constant tensor:
#      x y z
#    x 1.982900 0.000000 0.040760 
#    y 0.000000 2.055790 -0.000010 
#    z 0.040760 -0.000010 1.884350 
# 
# From -- ./inp_files/300992.got.cif
#   From: 2010.05.17/outbox.cif.g08.bks.cpg/sg15_151_cif.got.tgz:300992.got - 2010.06.03 18:47:42.
