data_PCOD9299942
_publ_section_title
;
Structure prediction by ZEFSAII (Michael W. Deem and Ramdas Pophale) SiO2 
 PCOD9299942
Probable space group: C 2/C
;
_chemical_formula_sum "Si O2"
_cell_formula_units_Z 20
_cell_length_a 9.496446
_cell_length_b 4.843803
_cell_length_c 14.835693
_cell_angle_alpha 90.000000
_cell_angle_beta 94.932115
_cell_angle_gamma 90.000000
_cell_volume 679.898917
_symmetry_space_group_name_H-M "C 2/C"
_symmetry_group_IT_number 15
_symmetry_cell_setting 'monoclinic'
loop_
_space_group_symop_operation_xyz
x,y,z
-x,y,1/2-z
-x,-y,-z
x,-y,1/2+z
1/2+x,1/2+y,z
1/2-x,1/2+y,1/2-z
1/2-x,1/2-y,-z
1/2+x,1/2-y,1/2+z
loop_
_atom_site_type_symbol
_atom_site_label
_atom_site_fract_x
_atom_site_fract_y
_atom_site_fract_z
Si Si1 0.876202 0.401217 0.557904
Si Si2 0.500000 0.684744 0.750000
Si Si3 0.727506 0.808244 0.283418
O O1 0.750000 0.250000 0.500000
O O2 0.807634 0.646686 0.614611
O O3 0.000000 0.500000 0.500000
O O4 0.939920 0.204758 0.638300
O O5 0.637273 0.452873 0.732565
O O6 0.639738 0.071797 0.228442
#
# Coordination Sequence:
#
# PCOD9299942 Si02
#       3
#     8   4   8
#     4  11  28  49  82 124 162 222 285 352 435 521
#     4  10  26  48  80 110 168 214 270 358 416 514
#     4  10  25  48  79 112 160 213 268 344 420 505
#
# _framework density 29.416142000000001
#
# number of rings (size 3 to 8) (size 9 to 14) (size 15 to 20)
#    0.000    1.600    0.000    0.000   28.000    4.800 
#    0.000    0.000    0.000    0.000    0.000    0.000 
#    0.000    0.000    0.000    0.000    0.000    0.000 
#
# Total GULP energy -55940.568105 kJ/mol
# GULP energy per Si atom -5594.056811 kJ/mol
# Density = 2.934919 g / cm^3
# Si number density = 29.416142 Si / 1000 Ang^3
#
#
#
# Elastic Constant Matrix: (Units=GPa)
#
#
# Indices 1 2 3 4 5 6 
#
# 1 368.0750 90.0230 145.0916 0.0000 3.2984 0.0000
# 2 90.0230 339.0809 115.5414 0.0000 -5.1102 0.0000
# 3 145.0916 115.5414 277.7839 0.0000 -16.0121 0.0000
# 4 0.0000 0.0000 0.0000 63.9694 0.0000 12.0067
# 5 3.2984 -5.1102 -16.0121 0.0000 110.0796 0.0000
# 6 0.0000 0.0000 0.0000 12.0067 0.0000 73.6868
#
#
#
# Elastic Compliance Matrix: (Units=1/GPa)
#
#
# Indices 1 2 3 4 5 6 
#
# 1 0.003472 -0.000352 -0.001688 0.000000 -0.000366 0.000000
# 2 -0.000352 0.003472 -0.001261 0.000000 -0.000012 0.000000
# 3 -0.001688 -0.001261 0.005048 0.000000 0.000726 0.000000
# 4 0.000000 0.000000 0.000000 0.016126 0.000000 -0.002628
# 5 -0.000366 -0.000012 0.000726 0.000000 0.009200 0.000000
# 6 0.000000 0.000000 0.000000 -0.002628 0.000000 0.013999
#
#
# Mechanical properties :
#
#
# Convention : Reuss Voigt Hill
#
# Bulk Modulus (GPa) = 185.53902 187.36132 186.45017
# Shear Modulus (GPa) = 83.73066 91.83274 87.78170
#
# Velocity S-wave (km/s) = 5.34097 5.59341 5.46865
# Velocity P-wave (km/s) = 10.06208 10.27359 10.16838
#
# Compressibility (1/GPa) = 0.00538970
#
# Stress axis : x y z
#
# Youngs Moduli (GPa) = 288.05291 288.00896 198.10111
#
# Poissons Ratio (x) = 0.10139 0.33438
# Poissons Ratio (y) = 0.10140 0.24980
# Poissons Ratio (z) = 0.48622 0.36318
#
# Static dielectric constant tensor:
#      x y z
#    x 2.429160 0.000000 -0.092210 
#    y 0.000000 2.305920 0.000000 
#    z -0.092210 0.000000 2.035380 
# 
# From -- ./inp_files/82811.got.cif
#   From: 2010.05.17/outbox.cif.g08.bks.cpg/sg15_42_cif.got.tgz:82811.got - 2010.06.03 18:47:42.
