data_PCOD9299973
_publ_section_title
;
Structure prediction by ZEFSAII (Michael W. Deem and Ramdas Pophale) SiO2 
 PCOD9299973
Probable space group: C 2/C
;
_chemical_formula_sum "Si O2"
_cell_formula_units_Z 28
_cell_length_a 26.164649
_cell_length_b 8.434379
_cell_length_c 10.438257
_cell_angle_alpha 90.000000
_cell_angle_beta 26.653394
_cell_angle_gamma 90.000000
_cell_volume 1033.350578
_symmetry_space_group_name_H-M "C 2/C"
_symmetry_group_IT_number 15
_symmetry_cell_setting 'monoclinic'
loop_
_space_group_symop_operation_xyz
x,y,z
-x,y,1/2-z
-x,-y,-z
x,-y,1/2+z
1/2+x,1/2+y,z
1/2-x,1/2+y,1/2-z
1/2-x,1/2-y,-z
1/2+x,1/2-y,1/2+z
loop_
_atom_site_type_symbol
_atom_site_label
_atom_site_fract_x
_atom_site_fract_y
_atom_site_fract_z
Si Si1 0.298246 0.150144 0.227334
Si Si2 0.463344 0.292447 0.192487
Si Si3 0.500000 0.397631 0.750000
Si Si4 0.164606 0.613046 0.642474
O O1 0.170103 0.211605 0.532109
O O2 0.325681 0.025989 0.276736
O O3 0.389527 0.290560 0.015161
O O4 0.303435 0.071431 0.074234
O O5 0.500000 0.222491 0.250000
O O6 0.507091 0.522298 0.851186
O O7 0.540234 0.194301 0.923219
O O8 0.250000 0.750000 0.500000
#
# Coordination Sequence:
#
# PCOD9299973 Si02
#       4
#     8   8   4   8
#     4  12  28  52  81 119 155 211 267 324 392 473
#     4  10  25  50  79 115 161 206 255 328 397 459
#     4  10  26  48  76 116 156 204 260 320 390 468
#     4  12  27  53  83 115 163 207 264 327 395 470
#
# _framework density 27.096319999999999
#
# number of rings (size 3 to 8) (size 9 to 14) (size 15 to 20)
#    0.857    0.000    2.857    1.714    2.000    8.000 
#    0.000   17.143    0.000    0.000    0.000    0.000 
#    0.000    0.000    0.000    0.000    0.000    0.000 
#
# Total GULP energy -78712.400393 kJ/mol
# GULP energy per Si atom -5622.314314 kJ/mol
# Density = 2.703465 g / cm^3
# Si number density = 27.096320 Si / 1000 Ang^3
#
#
#
# Elastic Constant Matrix: (Units=GPa)
#
#
# Indices 1 2 3 4 5 6 
#
# 1 165.4216 96.5262 109.2985 0.0000 5.9342 0.0000
# 2 96.5262 163.2051 85.9372 0.0000 -2.6082 0.0000
# 3 109.2985 85.9372 212.8978 0.0000 -19.2205 0.0000
# 4 0.0000 0.0000 0.0000 16.1700 0.0000 10.3176
# 5 5.9342 -2.6082 -19.2205 0.0000 82.8397 0.0000
# 6 0.0000 0.0000 0.0000 10.3176 0.0000 24.9411
#
#
#
# Elastic Compliance Matrix: (Units=1/GPa)
#
#
# Indices 1 2 3 4 5 6 
#
# 1 0.011680 -0.004684 -0.004284 0.000000 -0.001978 0.000000
# 2 -0.004684 0.009679 -0.001476 0.000000 0.000298 0.000000
# 3 -0.004284 -0.001476 0.007677 0.000000 0.002042 0.000000
# 4 0.000000 0.000000 0.000000 0.084021 0.000000 -0.034758
# 5 -0.001978 0.000298 0.002042 0.000000 0.012696 0.000000
# 6 0.000000 0.000000 0.000000 -0.034758 0.000000 0.054473
#
#
# Mechanical properties :
#
#
# Convention : Reuss Voigt Hill
#
# Bulk Modulus (GPa) = 122.72307 125.00537 123.86422
# Shear Modulus (GPa) = 24.53041 41.44099 32.98570
#
# Velocity S-wave (km/s) = 3.01209 3.91499 3.49284
# Velocity P-wave (km/s) = 7.58200 8.16517 7.87898
#
# Compressibility (1/GPa) = 0.00814843
#
# Stress axis : x y z
#
# Youngs Moduli (GPa) = 85.61770 103.31526 130.26722
#
# Poissons Ratio (x) = 0.48389 0.55810
# Poissons Ratio (y) = 0.40100 0.19223
# Poissons Ratio (z) = 0.36681 0.15245
#
# Static dielectric constant tensor:
#      x y z
#    x 2.143590 0.000000 0.071430 
#    y 0.000000 2.112610 0.000000 
#    z 0.071430 0.000000 2.097170 
# 
# From -- ./inp_files/61128.got.cif
#   From: 2010.05.17/outbox.cif.g08.bks.cpg/sg15_31_cif.got.tgz:61128.got - 2010.06.03 18:47:42.
