data_PCOD9299705
_publ_section_title
;
Structure prediction by ZEFSAII (Michael W. Deem and Ramdas Pophale) SiO2 
 PCOD9299705
Probable space group: C 2/C
;
_chemical_formula_sum "Si O2"
_cell_formula_units_Z 32
_cell_length_a 16.715918
_cell_length_b 8.746696
_cell_length_c 9.829381
_cell_angle_alpha 90.000000
_cell_angle_beta 116.169297
_cell_angle_gamma 90.000000
_cell_volume 1289.829748
_symmetry_space_group_name_H-M "C 2/C"
_symmetry_group_IT_number 15
_symmetry_cell_setting 'monoclinic'
loop_
_space_group_symop_operation_xyz
x,y,z
-x,y,1/2-z
-x,-y,-z
x,-y,1/2+z
1/2+x,1/2+y,z
1/2-x,1/2+y,1/2-z
1/2-x,1/2-y,-z
1/2+x,1/2-y,1/2+z
loop_
_atom_site_type_symbol
_atom_site_label
_atom_site_fract_x
_atom_site_fract_y
_atom_site_fract_z
Si Si1 0.085650 0.999891 0.905606
Si Si2 0.229724 0.583513 0.552601
Si Si3 0.114798 0.533495 0.726777
Si Si4 0.987064 0.254968 0.981800
O O1 0.000000 0.969287 0.750000
O O2 0.082018 0.870934 0.017473
O O3 0.175888 0.999217 0.890419
O O4 0.062692 0.163518 0.955361
O O5 0.250000 0.750000 0.500000
O O6 0.192483 0.576252 0.677082
O O7 0.157627 0.493948 0.405274
O O8 0.066264 0.376260 0.647344
O O9 0.039037 0.658279 0.640556
#
# Coordination Sequence:
#
# PCOD9299705 Si02
#       4
#     8   8   8   8
#     4  11  25  43  71 100 148 186 235 292 360 422
#     4  12  27  47  74 108 146 185 241 301 356 419
#     4  11  27  47  75 103 143 189 241 295 356 425
#     4  10  25  45  69 104 141 190 236 289 359 426
#
# _framework density 24.809477999999999
#
# number of rings (size 3 to 8) (size 9 to 14) (size 15 to 20)
#    0.000    1.000    2.500    1.500   14.000    3.000 
#    0.000    0.000    0.000    0.000    0.000    0.000 
#    0.000    0.000    0.000    0.000    0.000    0.000 
#
# Total GULP energy -89713.094476 kJ/mol
# GULP energy per Si atom -5607.068405 kJ/mol
# Density = 2.475301 g / cm^3
# Si number density = 24.809478 Si / 1000 Ang^3
#
#
#
# Elastic Constant Matrix: (Units=GPa)
#
#
# Indices 1 2 3 4 5 6 
#
# 1 126.4624 10.4885 -5.7314 0.0000 7.9740 0.0000
# 2 10.4885 92.1145 1.3742 0.0000 3.8233 0.0000
# 3 -5.7314 1.3742 78.6829 0.0000 14.7424 0.0000
# 4 0.0000 0.0000 0.0000 15.0748 0.0000 -5.8155
# 5 7.9740 3.8233 14.7424 0.0000 45.1560 0.0000
# 6 0.0000 0.0000 0.0000 -5.8155 0.0000 14.5639
#
#
#
# Elastic Compliance Matrix: (Units=1/GPa)
#
#
# Indices 1 2 3 4 5 6 
#
# 1 0.008126 -0.000870 0.000918 0.000000 -0.001661 0.000000
# 2 -0.000870 0.010988 -0.000117 0.000000 -0.000738 0.000000
# 3 0.000918 -0.000117 0.013641 0.000000 -0.004606 0.000000
# 4 0.000000 0.000000 0.000000 0.078415 0.000000 0.031312
# 5 -0.001661 -0.000738 -0.004606 0.000000 0.024005 0.000000
# 6 0.000000 0.000000 0.000000 0.031312 0.000000 0.081166
#
#
# Mechanical properties :
#
#
# Convention : Reuss Voigt Hill
#
# Bulk Modulus (GPa) = 30.65839 34.39138 32.52489
# Shear Modulus (GPa) = 21.99245 34.36751 28.17998
#
# Velocity S-wave (km/s) = 2.98057 3.72594 3.37390
# Velocity P-wave (km/s) = 4.92234 5.69232 5.32127
#
# Compressibility (1/GPa) = 0.03261750
#
# Stress axis : x y z
#
# Youngs Moduli (GPa) = 123.06172 91.01244 73.30769
#
# Poissons Ratio (x) = 0.07918 -0.06732
# Poissons Ratio (y) = 0.10706 0.00857
# Poissons Ratio (z) = -0.11301 0.01064
#
# Static dielectric constant tensor:
#      x y z
#    x 1.961480 0.000000 -0.045880 
#    y 0.000000 1.986270 0.000000 
#    z -0.045880 0.000000 1.953180 
# 
# From -- ./inp_files/102283.got.cif
#   From: 2010.05.17/outbox.cif.g08.bks.cpg/sg15_52_cif.got.tgz:102283.got - 2010.06.03 18:47:42.
