data_PCOD9299370
_publ_section_title
;
Structure prediction by ZEFSAII (Michael W. Deem and Ramdas Pophale) SiO2 
 PCOD9299370
Probable space group: C 2/C
;
_chemical_formula_sum "Si O2"
_cell_formula_units_Z 40
_cell_length_a 12.658270
_cell_length_b 25.612300
_cell_length_c 5.711165
_cell_angle_alpha 90.000000
_cell_angle_beta 96.679865
_cell_angle_gamma 90.000000
_cell_volume 1839.032570
_symmetry_space_group_name_H-M "C 2/C"
_symmetry_group_IT_number 15
_symmetry_cell_setting 'monoclinic'
loop_
_space_group_symop_operation_xyz
x,y,z
-x,y,1/2-z
-x,-y,-z
x,-y,1/2+z
1/2+x,1/2+y,z
1/2-x,1/2+y,1/2-z
1/2-x,1/2-y,-z
1/2+x,1/2-y,1/2+z
loop_
_atom_site_type_symbol
_atom_site_label
_atom_site_fract_x
_atom_site_fract_y
_atom_site_fract_z
Si Si1 0.126233 0.530800 0.788203
Si Si2 0.500000 0.774188 0.750000
Si Si3 0.266631 0.803261 0.651920
Si Si4 0.081618 0.187636 0.444394
Si Si5 0.500000 0.470935 0.250000
Si Si6 0.805960 0.893107 0.195610
O O1 0.146204 0.499004 0.544678
O O2 0.203290 0.581083 0.792876
O O3 0.000000 0.543520 0.750000
O O4 0.392258 0.806287 0.722594
O O5 0.514107 0.734977 0.534774
O O6 0.250000 0.750000 0.500000
O O7 0.188397 0.794167 0.846840
O O8 0.232056 0.858454 0.532577
O O9 0.125430 0.149288 0.647332
O O10 0.000000 0.159404 0.250000
O O11 0.500000 0.500000 0.500000
O O12 0.391373 0.438446 0.192135
#
# Coordination Sequence:
#
# PCOD9299370 Si02
#       6
#     8   4   8   8   4   8
#     4  10  24  49  77 105 145 190 243 314 388 453
#     4  12  25  46  66 102 142 202 242 297 362 444
#     4  12  26  45  70 105 147 198 246 302 374 443
#     4  12  24  44  72  98 150 191 251 303 369 441
#     4  12  29  50  80 114 150 198 254 317 392 456
#     4  12  27  45  73 110 142 193 248 309 373 457
#
# _framework density 21.750565999999999
#
# number of rings (size 3 to 8) (size 9 to 14) (size 15 to 20)
#    0.000    0.400    4.000    3.600    7.000    1.600 
#    1.800    0.000    0.000    0.000    0.000    0.000 
#    0.000    0.000    0.000    0.000    0.000    0.000 
#
# Total GULP energy -111631.317182 kJ/mol
# GULP energy per Si atom -5581.565859 kJ/mol
# Density = 2.170106 g / cm^3
# Si number density = 21.750566 Si / 1000 Ang^3
#
#
#
# Elastic Constant Matrix: (Units=GPa)
#
#
# Indices 1 2 3 4 5 6 
#
# 1 163.2025 38.3341 38.0179 0.0000 1.5532 0.0000
# 2 38.3341 66.2015 28.3137 0.0000 -4.6914 0.0000
# 3 38.0179 28.3137 84.8487 0.0000 -6.1916 0.0000
# 4 0.0000 0.0000 0.0000 2.2794 0.0000 3.7381
# 5 1.5532 -4.6914 -6.1916 0.0000 43.3589 0.0000
# 6 0.0000 0.0000 0.0000 3.7381 0.0000 25.9290
#
#
#
# Elastic Compliance Matrix: (Units=1/GPa)
#
#
# Indices 1 2 3 4 5 6 
#
# 1 0.007470 -0.003420 -0.002276 0.000000 -0.000963 0.000000
# 2 -0.003420 0.019236 -0.004775 0.000000 0.001522 0.000000
# 3 -0.002276 -0.004775 0.014519 0.000000 0.001638 0.000000
# 4 0.000000 0.000000 0.000000 0.574544 0.000000 -0.082829
# 5 -0.000963 0.001522 0.001638 0.000000 0.023496 0.000000
# 6 0.000000 0.000000 0.000000 -0.082829 0.000000 0.050508
#
#
# Mechanical properties :
#
#
# Convention : Reuss Voigt Hill
#
# Bulk Modulus (GPa) = 49.30656 58.17601 53.74128
# Shear Modulus (GPa) = 6.96887 28.28593 17.62740
#
# Velocity S-wave (km/s) = 1.79191 3.61011 2.84990
# Velocity P-wave (km/s) = 5.19611 6.64697 5.96581
#
# Compressibility (1/GPa) = 0.02028128
#
# Stress axis : x y z
#
# Youngs Moduli (GPa) = 133.86677 51.98526 68.87741
#
# Poissons Ratio (x) = 0.17781 0.15676
# Poissons Ratio (y) = 0.45788 0.32892
# Poissons Ratio (z) = 0.30468 0.24825
#
# Static dielectric constant tensor:
#      x y z
#    x 1.717790 0.000000 0.042630 
#    y 0.000000 1.887120 0.000000 
#    z 0.042630 0.000000 1.820880 
# 
# From -- ./inp_files/5050.got.cif
#   From: 2010.05.17/outbox.cif.g08.bks.cpg/sg15_3_cif.got.tgz:5050.got - 2010.06.03 18:47:42.
