data_PCOD9299196
_publ_section_title
;
Structure prediction by ZEFSAII (Michael W. Deem and Ramdas Pophale) SiO2 
 PCOD9299196
Probable space group: C 2/C
;
_chemical_formula_sum "Si O2"
_cell_formula_units_Z 40
_cell_length_a 13.764274
_cell_length_b 19.056242
_cell_length_c 8.686056
_cell_angle_alpha 90.000000
_cell_angle_beta 137.005084
_cell_angle_gamma 90.000000
_cell_volume 1553.657177
_symmetry_space_group_name_H-M "C 2/C"
_symmetry_group_IT_number 15
_symmetry_cell_setting 'monoclinic'
loop_
_space_group_symop_operation_xyz
x,y,z
-x,y,1/2-z
-x,-y,-z
x,-y,1/2+z
1/2+x,1/2+y,z
1/2-x,1/2+y,1/2-z
1/2-x,1/2-y,-z
1/2+x,1/2-y,1/2+z
loop_
_atom_site_type_symbol
_atom_site_label
_atom_site_fract_x
_atom_site_fract_y
_atom_site_fract_z
Si Si1 0.293275 0.632719 0.766949
Si Si2 0.983218 0.379691 0.911448
Si Si3 0.090868 0.917809 0.672795
Si Si4 0.283024 0.783231 0.868814
Si Si5 0.786264 0.962961 0.979159
O O1 0.271548 0.715487 0.748059
O O2 0.316269 0.603240 0.624243
O O3 0.142906 0.600076 0.645228
O O4 0.431635 0.609514 0.022436
O O5 0.924738 0.323031 0.967814
O O6 0.870213 0.443409 0.767526
O O7 0.000000 0.354474 0.750000
O O8 0.170313 0.845254 0.727827
O O9 0.098680 0.961052 0.522289
O O10 0.188132 0.967863 0.891614
O O11 0.250000 0.750000 0.000000
#
# Coordination Sequence:
#
# PCOD9299196 Si02
#       5
#     8   8   8   8   8
#     4  11  23  43  76 111 152 198 267 322 392 462
#     4   9  22  46  74 109 158 206 263 323 402 468
#     4  11  25  47  80 111 159 207 267 328 403 476
#     4  11  26  47  76 115 160 209 260 332 403 479
#     4  10  24  47  75 114 153 216 257 330 400 489
#
# _framework density 25.745708
#
# number of rings (size 3 to 8) (size 9 to 14) (size 15 to 20)
#    0.000    1.600    0.000    2.400    2.800   12.000 
#    0.000   29.000   13.200    0.000    0.000    0.000 
#    0.000    0.000    0.000    0.000    0.000    0.000 
#
# Total GULP energy -111761.687959 kJ/mol
# GULP energy per Si atom -5588.084398 kJ/mol
# Density = 2.568711 g / cm^3
# Si number density = 25.745708 Si / 1000 Ang^3
#
#
#
# Elastic Constant Matrix: (Units=GPa)
#
#
# Indices 1 2 3 4 5 6 
#
# 1 183.5311 54.9134 63.3235 0.0000 15.2429 0.0000
# 2 54.9134 177.4867 55.7086 0.0000 1.1284 0.0000
# 3 63.3235 55.7086 128.8291 0.0000 34.7266 0.0000
# 4 0.0000 0.0000 0.0000 24.9611 0.0000 -17.6786
# 5 15.2429 1.1284 34.7266 0.0000 59.9969 0.0000
# 6 0.0000 0.0000 0.0000 -17.6786 0.0000 51.2012
#
#
#
# Elastic Compliance Matrix: (Units=1/GPa)
#
#
# Indices 1 2 3 4 5 6 
#
# 1 0.006782 -0.001225 -0.002779 0.000000 -0.000092 0.000000
# 2 -0.001225 0.006906 -0.002883 0.000000 0.001850 0.000000
# 3 -0.002779 -0.002883 0.012050 0.000000 -0.006214 0.000000
# 4 0.000000 0.000000 0.000000 0.053030 0.000000 0.018310
# 5 -0.000092 0.001850 -0.006214 0.000000 0.020253 0.000000
# 6 0.000000 0.000000 0.000000 0.018310 0.000000 0.025853
#
#
# Mechanical properties :
#
#
# Convention : Reuss Voigt Hill
#
# Bulk Modulus (GPa) = 83.58616 93.08198 88.33407
# Shear Modulus (GPa) = 35.05417 48.29194 41.67305
#
# Velocity S-wave (km/s) = 3.69393 4.33567 4.02760
# Velocity P-wave (km/s) = 7.12250 7.82923 7.48421
#
# Compressibility (1/GPa) = 0.01196370
#
# Stress axis : x y z
#
# Youngs Moduli (GPa) = 147.45555 144.79191 82.98877
#
# Poissons Ratio (x) = 0.17743 0.23061
# Poissons Ratio (y) = 0.18070 0.23925
# Poissons Ratio (z) = 0.40976 0.41742
#
# Static dielectric constant tensor:
#      x y z
#    x 2.208130 0.000000 -0.114300 
#    y 0.000000 2.012110 0.000000 
#    z -0.114300 0.000000 2.170740 
# 
# From -- ./inp_files/41076.got.cif
#   From: 2010.05.17/outbox.cif.g08.bks.cpg/sg15_21_cif.got.tgz:41076.got - 2010.06.03 18:47:42.
