data_PCOD9299755
_publ_section_title
;
Structure prediction by ZEFSAII (Michael W. Deem and Ramdas Pophale) SiO2 
 PCOD9299755
Probable space group: C 2/C
;
_chemical_formula_sum "Si O2"
_cell_formula_units_Z 48
_cell_length_a 10.905540
_cell_length_b 22.264447
_cell_length_c 9.776628
_cell_angle_alpha 90.000000
_cell_angle_beta 121.898564
_cell_angle_gamma 90.000000
_cell_volume 2015.339238
_symmetry_space_group_name_H-M "C 2/C"
_symmetry_group_IT_number 15
_symmetry_cell_setting 'monoclinic'
loop_
_space_group_symop_operation_xyz
x,y,z
-x,y,1/2-z
-x,-y,-z
x,-y,1/2+z
1/2+x,1/2+y,z
1/2-x,1/2+y,1/2-z
1/2-x,1/2-y,-z
1/2+x,1/2-y,1/2+z
loop_
_atom_site_type_symbol
_atom_site_label
_atom_site_fract_x
_atom_site_fract_y
_atom_site_fract_z
Si Si1 0.962915 0.718987 0.433215
Si Si2 0.668028 0.097282 0.819368
Si Si3 0.649568 0.497789 0.669446
Si Si4 0.000000 0.096472 0.750000
Si Si5 0.721561 0.313193 0.353109
Si Si6 0.768961 0.131031 0.171440
Si Si7 0.000000 0.228880 0.250000
O O1 0.875122 0.767078 0.292059
O O2 0.883895 0.655308 0.364764
O O3 0.133209 0.715754 0.499081
O O4 0.945626 0.734062 0.586021
O O5 0.500000 0.100950 0.750000
O O6 0.711074 0.141433 0.721667
O O7 0.715666 0.028350 0.825452
O O8 0.756223 0.118295 0.003045
O O9 0.500000 0.500000 0.500000
O O10 0.613794 0.547932 0.761074
O O11 0.679047 0.430533 0.731713
O O12 0.885731 0.145126 0.618075
O O13 0.880308 0.185714 0.246021
#
# Coordination Sequence:
#
# PCOD9299755 Si02
#       7
#     8   8   8   4   8   8   4
#     4  12  23  39  67 102 138 174 220 282 343 410
#     4  11  22  41  66  96 134 170 221 286 339 393
#     4  11  25  45  66  95 129 180 233 278 340 406
#     4  10  25  46  66  90 134 183 224 284 332 410
#     4  11  24  43  66 100 137 177 225 275 342 409
#     4  12  23  39  67 103 134 174 225 280 343 401
#     4  12  21  36  66 104 136 175 218 278 338 404
#
# _framework density 23.817329999999998
#
# number of rings (size 3 to 8) (size 9 to 14) (size 15 to 20)
#    0.000    0.667    5.000    4.000    2.333    1.333 
#    3.000    0.000    0.000    0.000    0.000    0.000 
#    0.000    0.000    0.000    0.000    0.000    0.000 
#
# Total GULP energy -134077.105646 kJ/mol
# GULP energy per Si atom -5586.546069 kJ/mol
# Density = 2.376312 g / cm^3
# Si number density = 23.817330 Si / 1000 Ang^3
#
#
#
# Elastic Constant Matrix: (Units=GPa)
#
#
# Indices 1 2 3 4 5 6 
#
# 1 84.0772 51.5358 28.3128 0.0000 26.9037 0.0000
# 2 51.5358 156.2154 66.8221 0.0000 25.3239 0.0000
# 3 28.3128 66.8221 96.7879 0.0000 24.1576 0.0000
# 4 0.0000 0.0000 0.0000 43.4105 0.0000 19.2871
# 5 26.9037 25.3239 24.1576 0.0000 39.5871 0.0000
# 6 0.0000 0.0000 0.0000 19.2871 0.0000 42.4229
#
#
#
# Elastic Compliance Matrix: (Units=1/GPa)
#
#
# Indices 1 2 3 4 5 6 
#
# 1 0.017431 -0.004344 0.000193 0.000000 -0.009185 0.000000
# 2 -0.004344 0.010354 -0.005853 0.000000 -0.000100 0.000000
# 3 0.000193 -0.005853 0.015825 0.000000 -0.006044 0.000000
# 4 0.000000 0.000000 0.000000 0.028867 0.000000 -0.013124
# 5 -0.009185 -0.000100 -0.006044 0.000000 0.035255 0.000000
# 6 0.000000 0.000000 0.000000 -0.013124 0.000000 0.029539
#
#
# Mechanical properties :
#
#
# Convention : Reuss Voigt Hill
#
# Bulk Modulus (GPa) = 42.37074 70.04688 56.20881
# Shear Modulus (GPa) = 30.27632 37.77810 34.02721
#
# Velocity S-wave (km/s) = 3.56924 3.98698 3.78388
# Velocity P-wave (km/s) = 5.90038 7.11819 6.53770
#
# Compressibility (1/GPa) = 0.02360119
#
# Stress axis : x y z
#
# Youngs Moduli (GPa) = 57.37049 96.57840 63.19160
#
# Poissons Ratio (x) = 0.41952 -0.01217
# Poissons Ratio (y) = 0.24921 0.36986
# Poissons Ratio (z) = -0.01105 0.56527
#
# Static dielectric constant tensor:
#      x y z
#    x 1.930230 0.000000 -0.005870 
#    y 0.000000 1.893830 0.000000 
#    z -0.005870 0.000000 1.944480 
# 
# From -- ./inp_files/89809.got.cif
#   From: 2010.05.17/outbox.cif.g08.bks.cpg/sg15_45_cif.got.tgz:89809.got - 2010.06.03 18:47:42.
