data_PCOD9299796
_publ_section_title
;
Structure prediction by ZEFSAII (Michael W. Deem and Ramdas Pophale) SiO2 
 PCOD9299796
Probable space group: C 2/C
;
_chemical_formula_sum "Si O2"
_cell_formula_units_Z 44
_cell_length_a 12.028120
_cell_length_b 7.155066
_cell_length_c 27.170209
_cell_angle_alpha 90.000000
_cell_angle_beta 54.684974
_cell_angle_gamma 90.000000
_cell_volume 1908.038318
_symmetry_space_group_name_H-M "C 2/C"
_symmetry_group_IT_number 15
_symmetry_cell_setting 'monoclinic'
loop_
_space_group_symop_operation_xyz
x,y,z
-x,y,1/2-z
-x,-y,-z
x,-y,1/2+z
1/2+x,1/2+y,z
1/2-x,1/2+y,1/2-z
1/2-x,1/2-y,-z
1/2+x,1/2-y,1/2+z
loop_
_atom_site_type_symbol
_atom_site_label
_atom_site_fract_x
_atom_site_fract_y
_atom_site_fract_z
Si Si1 0.108704 0.439408 0.808378
Si Si2 0.500000 0.000000 0.500000
Si Si3 0.771753 0.029730 0.483549
Si Si4 0.650670 0.682636 0.708389
Si Si5 0.556455 0.661607 0.908398
Si Si6 0.189933 0.442745 0.611571
O O1 0.227935 0.559737 0.801564
O O2 0.142101 0.366083 0.745580
O O3 0.088797 0.259451 0.848440
O O4 0.960113 0.536327 0.846742
O O5 0.665269 0.991077 0.467983
O O6 0.521214 0.176764 0.456353
O O7 0.750000 0.250000 0.500000
O O8 0.724376 0.924000 0.545495
O O9 0.571167 0.521398 0.564414
O O10 0.500000 0.593169 0.750000
O O11 0.676589 0.754919 0.646903
O O12 0.687785 0.555714 0.895362
#
# Coordination Sequence:
#
# PCOD9299796 Si02
#       6
#     8   4   8   8   8   8
#     4  11  25  46  71 102 136 184 235 294 355 426
#     4  12  26  42  66  98 142 186 230 282 344 426
#     4  12  27  45  67 106 146 188 232 290 355 433
#     4  10  25  46  71  98 140 181 241 301 354 424
#     4  12  27  41  72 105 141 186 235 283 362 431
#     4  11  25  44  70 102 141 183 233 291 351 424
#
# _framework density 23.060333
#
# number of rings (size 3 to 8) (size 9 to 14) (size 15 to 20)
#    0.000    0.727    3.636    2.182    5.091    2.909 
#    0.000    0.000    0.000    0.000    0.000    0.000 
#    0.000    0.000    0.000    0.000    0.000    0.000 
#
# Total GULP energy -122636.989152 kJ/mol
# GULP energy per Si atom -5574.408598 kJ/mol
# Density = 2.300785 g / cm^3
# Si number density = 23.060333 Si / 1000 Ang^3
#
#
#
# Elastic Constant Matrix: (Units=GPa)
#
#
# Indices 1 2 3 4 5 6 
#
# 1 251.5692 49.1300 43.5593 0.0000 -23.5820 0.0000
# 2 49.1300 46.7804 36.0634 0.0000 -5.2227 0.0000
# 3 43.5593 36.0634 78.0450 0.0000 -8.2414 0.0000
# 4 0.0000 0.0000 0.0000 19.3304 0.0000 1.8583
# 5 -23.5820 -5.2227 -8.2414 0.0000 29.3147 0.0000
# 6 0.0000 0.0000 0.0000 1.8583 0.0000 48.0919
#
#
#
# Elastic Compliance Matrix: (Units=1/GPa)
#
#
# Indices 1 2 3 4 5 6 
#
# 1 0.005308 -0.004957 -0.000324 0.000000 0.003296 0.000000
# 2 -0.004957 0.037912 -0.014902 0.000000 -0.001423 0.000000
# 3 -0.000324 -0.014902 0.020171 0.000000 0.002755 0.000000
# 4 0.000000 0.000000 0.000000 0.051925 0.000000 -0.002006
# 5 0.003296 -0.001423 0.002755 0.000000 0.037285 0.000000
# 6 0.000000 0.000000 0.000000 -0.002006 0.000000 0.020871
#
#
# Mechanical properties :
#
#
# Convention : Reuss Voigt Hill
#
# Bulk Modulus (GPa) = 43.43173 70.43331 56.93252
# Shear Modulus (GPa) = 22.57209 35.85689 29.21449
#
# Velocity S-wave (km/s) = 3.13202 3.94752 3.56318
# Velocity P-wave (km/s) = 5.65281 7.16844 6.45526
#
# Compressibility (1/GPa) = 0.02302464
#
# Stress axis : x y z
#
# Youngs Moduli (GPa) = 188.38809 26.37711 49.57635
#
# Poissons Ratio (x) = 0.13075 0.01607
# Poissons Ratio (y) = 0.93384 0.73879
# Poissons Ratio (z) = 0.06105 0.39307
#
# Static dielectric constant tensor:
#      x y z
#    x 1.841800 0.000000 -0.016380 
#    y 0.000000 1.895480 0.000000 
#    z -0.016380 0.000000 1.860560 
# 
# From -- ./inp_files/309522.got.cif
#   From: 2010.05.17/outbox.cif.g08.bks.cpg/sg15_155_cif.got.tgz:309522.got - 2010.06.03 18:47:42.
