data_PCOD9299981
_publ_section_title
;
Structure prediction by ZEFSAII (Michael W. Deem and Ramdas Pophale) SiO2 
 PCOD9299981
Probable space group: C 2/C
;
_chemical_formula_sum "Si O2"
_cell_formula_units_Z 48
_cell_length_a 23.828022
_cell_length_b 5.245855
_cell_length_c 16.522085
_cell_angle_alpha 90.000000
_cell_angle_beta 123.283586
_cell_angle_gamma 90.000000
_cell_volume 1726.461981
_symmetry_space_group_name_H-M "C 2/C"
_symmetry_group_IT_number 15
_symmetry_cell_setting 'monoclinic'
loop_
_space_group_symop_operation_xyz
x,y,z
-x,y,1/2-z
-x,-y,-z
x,-y,1/2+z
1/2+x,1/2+y,z
1/2-x,1/2+y,1/2-z
1/2-x,1/2-y,-z
1/2+x,1/2-y,1/2+z
loop_
_atom_site_type_symbol
_atom_site_label
_atom_site_fract_x
_atom_site_fract_y
_atom_site_fract_z
Si Si1 0.118205 0.814943 0.462020
Si Si2 0.094630 0.099183 0.125043
Si Si3 0.010057 0.435940 0.411794
Si Si4 0.897426 0.260173 0.724380
Si Si5 0.740407 0.952588 0.423645
Si Si6 0.779499 0.377713 0.252920
O O1 0.099022 0.957620 0.532669
O O2 0.091044 0.896095 0.350964
O O3 0.083851 0.536061 0.447845
O O4 0.198301 0.847839 0.520861
O O5 0.022676 0.157044 0.108294
O O6 0.141967 0.348888 0.169907
O O7 0.123425 0.905582 0.213703
O O8 0.961564 0.584458 0.309616
O O9 0.000000 0.500000 0.500000
O O10 0.834571 0.436298 0.647391
O O11 0.750000 0.750000 0.500000
O O12 0.746787 0.764036 0.351977
O O13 0.752706 0.659781 0.218628
#
# Coordination Sequence:
#
# PCOD9299981 Si02
#       6
#     8   8   8   8   8   8
#     4  11  26  47  77 119 170 222 289 363 444 531
#     4  11  25  48  80 116 163 229 286 359 439 536
#     4  10  25  51  77 114 161 220 288 358 440 532
#     4  12  26  52  79 119 177 221 296 365 443 543
#     4  12  27  46  80 126 172 229 289 368 449 547
#     4  12  25  45  78 118 164 224 281 356 441 529
#
# _framework density 27.802524999999999
#
# number of rings (size 3 to 8) (size 9 to 14) (size 15 to 20)
#    0.000    0.667    3.333    3.000    2.333    2.667 
#    6.000    3.333    0.000    0.000    0.000    0.000 
#    0.000    0.000    0.000    0.000    0.000    0.000 
#
# Total GULP energy -133770.653212 kJ/mol
# GULP energy per Si atom -5573.777217 kJ/mol
# Density = 2.773925 g / cm^3
# Si number density = 27.802525 Si / 1000 Ang^3
#
#
#
# Elastic Constant Matrix: (Units=GPa)
#
#
# Indices 1 2 3 4 5 6 
#
# 1 141.0155 49.1633 67.4290 0.0000 21.0316 0.0000
# 2 49.1633 76.0470 39.8103 -0.0002 25.0736 0.0001
# 3 67.4290 39.8103 242.2017 0.0000 -7.8433 0.0000
# 4 0.0000 -0.0002 0.0000 57.7144 0.0000 11.7971
# 5 21.0316 25.0736 -7.8433 0.0000 75.4114 0.0000
# 6 0.0000 0.0001 0.0000 11.7971 0.0000 49.2162
#
#
#
# Elastic Compliance Matrix: (Units=1/GPa)
#
#
# Indices 1 2 3 4 5 6 
#
# 1 0.009980 -0.004958 -0.002007 0.000000 -0.001343 0.000000
# 2 -0.004958 0.019059 -0.001919 0.000000 -0.005154 0.000000
# 3 -0.002007 -0.001919 0.005059 0.000000 0.001724 0.000000
# 4 0.000000 0.000000 0.000000 0.018219 0.000000 -0.004367
# 5 -0.001343 -0.005154 0.001724 0.000000 0.015528 0.000000
# 6 0.000000 0.000000 0.000000 -0.004367 0.000000 0.021365
#
#
# Mechanical properties :
#
#
# Convention : Reuss Voigt Hill
#
# Bulk Modulus (GPa) = 61.24064 85.78549 73.51306
# Shear Modulus (GPa) = 44.47475 56.65917 50.56696
#
# Velocity S-wave (km/s) = 4.00392 4.51922 4.26935
# Velocity P-wave (km/s) = 6.59166 7.62584 7.12753
#
# Compressibility (1/GPa) = 0.01632903
#
# Stress axis : x y z
#
# Youngs Moduli (GPa) = 100.19882 52.46793 197.67460
#
# Poissons Ratio (x) = 0.26016 0.39673
# Poissons Ratio (y) = 0.49683 0.37938
# Poissons Ratio (z) = 0.20110 0.10070
#
# Static dielectric constant tensor:
#      x y z
#    x 2.546100 0.000000 -0.138400 
#    y 0.000000 1.686210 0.000000 
#    z -0.138400 0.000000 2.382540 
# 
# From -- ./inp_files/221393.got.cif
#   From: 2010.05.17/outbox.cif.g08.bks.cpg/sg15_111_cif.got.tgz:221393.got - 2010.06.03 18:47:42.
