data_PCOD9299791
_publ_section_title
;
Structure prediction by ZEFSAII (Michael W. Deem and Ramdas Pophale) SiO2 
 PCOD9299791
Probable space group: C 2/C
;
_chemical_formula_sum "Si O2"
_cell_formula_units_Z 52
_cell_length_a 8.887833
_cell_length_b 17.059629
_cell_length_c 22.063441
_cell_angle_alpha 90.000000
_cell_angle_beta 134.313031
_cell_angle_gamma 90.000000
_cell_volume 2393.695541
_symmetry_space_group_name_H-M "C 2/C"
_symmetry_group_IT_number 15
_symmetry_cell_setting 'monoclinic'
loop_
_space_group_symop_operation_xyz
x,y,z
-x,y,1/2-z
-x,-y,-z
x,-y,1/2+z
1/2+x,1/2+y,z
1/2-x,1/2+y,1/2-z
1/2-x,1/2-y,-z
1/2+x,1/2-y,1/2+z
loop_
_atom_site_type_symbol
_atom_site_label
_atom_site_fract_x
_atom_site_fract_y
_atom_site_fract_z
Si Si1 0.759566 0.473829 0.419675
Si Si2 0.654013 0.704822 0.916154
Si Si3 0.176954 0.719932 0.748890
Si Si4 0.651362 0.314770 0.623512
Si Si5 0.000000 0.561967 0.250000
Si Si6 0.614013 0.050796 0.675193
Si Si7 0.632216 0.559509 0.495161
O O1 0.704343 0.387487 0.429574
O O2 0.746813 0.474114 0.343448
O O3 0.622289 0.531090 0.422487
O O4 0.000000 0.500000 0.500000
O O5 0.408673 0.725945 0.842354
O O6 0.764384 0.739735 0.887941
O O7 0.750000 0.750000 0.000000
O O8 0.126533 0.787153 0.685565
O O9 0.179223 0.635837 0.716582
O O10 0.000000 0.719163 0.750000
O O11 0.456681 0.352664 0.532972
O O12 0.828882 0.381888 0.671121
O O13 0.889781 0.508683 0.269760
O O14 0.371234 0.056992 0.584994
O O15 0.500000 0.500000 0.500000
#
# Coordination Sequence:
#
# PCOD9299791 Si02
#       7
#     8   8   8   8   4   8   8
#     4  10  25  46  71 108 139 183 243 292 358 427
#     4  12  27  47  76 101 148 193 240 298 366 432
#     4  12  28  47  71 109 145 192 242 300 373 427
#     4  12  26  47  72 105 146 187 241 297 362 433
#     4  12  24  44  72 100 144 190 236 294 356 436
#     4  11  25  45  73 101 151 187 242 299 362 433
#     4  11  24  44  74 108 139 188 244 294 361 434
#
# _framework density 21.723732999999999
#
# number of rings (size 3 to 8) (size 9 to 14) (size 15 to 20)
#    0.000    0.615    5.385    0.923    8.615    4.308 
#    0.000    0.000    0.000    0.000    0.000    0.000 
#    0.000    0.000    0.000    0.000    0.000    0.000 
#
# Total GULP energy -145459.150266 kJ/mol
# GULP energy per Si atom -5594.582703 kJ/mol
# Density = 2.167429 g / cm^3
# Si number density = 21.723733 Si / 1000 Ang^3
#
#
#
# Elastic Constant Matrix: (Units=GPa)
#
#
# Indices 1 2 3 4 5 6 
#
# 1 90.5835 -11.8984 18.6426 0.0000 -23.9517 0.0000
# 2 -11.8984 53.3363 -6.1460 0.0000 -6.4646 0.0000
# 3 18.6426 -6.1460 79.5247 0.0000 -0.2088 0.0000
# 4 0.0000 0.0000 0.0000 37.2770 0.0000 -11.5094
# 5 -23.9517 -6.4646 -0.2088 0.0000 34.8736 0.0000
# 6 0.0000 0.0000 0.0000 -11.5094 0.0000 31.1719
#
#
#
# Elastic Compliance Matrix: (Units=1/GPa)
#
#
# Indices 1 2 3 4 5 6 
#
# 1 0.015260 0.004401 -0.003207 0.000000 0.011277 0.000000
# 2 0.004401 0.020628 0.000580 0.000000 0.006850 0.000000
# 3 -0.003207 0.000580 0.013366 0.000000 -0.002015 0.000000
# 4 0.000000 0.000000 0.000000 0.030278 0.000000 0.011179
# 5 0.011277 0.006850 -0.002015 0.000000 0.037678 0.000000
# 6 0.000000 0.000000 0.000000 0.011179 0.000000 0.036208
#
#
# Mechanical properties :
#
#
# Convention : Reuss Voigt Hill
#
# Bulk Modulus (GPa) = 18.93845 24.96008 21.94927
# Shear Modulus (GPa) = 29.85612 35.52093 32.68853
#
# Velocity S-wave (km/s) = 3.71125 4.04805 3.88330
# Velocity P-wave (km/s) = 5.20589 5.77613 5.49841
#
# Compressibility (1/GPa) = 0.05280262
#
# Stress axis : x y z
#
# Youngs Moduli (GPa) = 65.53216 48.47774 74.81560
#
# Poissons Ratio (x) = -0.21337 0.23997
# Poissons Ratio (y) = -0.28844 -0.04342
# Poissons Ratio (z) = 0.21019 -0.02814
#
# Static dielectric constant tensor:
#      x y z
#    x 1.775400 0.000000 -0.045070 
#    y 0.000000 1.971830 0.000000 
#    z -0.045070 0.000000 1.882640 
# 
# From -- ./inp_files/233126.got.cif
#   From: 2010.05.17/outbox.cif.g08.bks.cpg/sg15_117_cif.got.tgz:233126.got - 2010.06.03 18:47:42.
