data_PCOD9299182
_publ_section_title
;
Structure prediction by ZEFSAII (Michael W. Deem and Ramdas Pophale) SiO2 
 PCOD9299182
Probable space group: C 2/C
;
_chemical_formula_sum "Si O2"
_cell_formula_units_Z 44
_cell_length_a 13.163202
_cell_length_b 5.378745
_cell_length_c 28.586032
_cell_angle_alpha 90.000000
_cell_angle_beta 119.728663
_cell_angle_gamma 90.000000
_cell_volume 1757.551108
_symmetry_space_group_name_H-M "C 2/C"
_symmetry_group_IT_number 15
_symmetry_cell_setting 'monoclinic'
loop_
_space_group_symop_operation_xyz
x,y,z
-x,y,1/2-z
-x,-y,-z
x,-y,1/2+z
1/2+x,1/2+y,z
1/2-x,1/2+y,1/2-z
1/2-x,1/2-y,-z
1/2+x,1/2-y,1/2+z
loop_
_atom_site_type_symbol
_atom_site_label
_atom_site_fract_x
_atom_site_fract_y
_atom_site_fract_z
Si Si1 0.620312 0.525934 0.387619
Si Si2 0.434064 0.779395 0.540116
Si Si3 0.195021 0.016442 0.297093
Si Si4 0.149029 0.220217 0.529064
Si Si5 0.923890 0.341190 0.308483
Si Si6 0.500000 0.867157 0.750000
O O1 0.604072 0.282164 0.415831
O O2 0.664889 0.508579 0.344726
O O3 0.717489 0.703997 0.432684
O O4 0.491110 0.641054 0.354457
O O5 0.570493 0.737423 0.558295
O O6 0.371008 0.555089 0.496349
O O7 0.401889 0.053590 0.514576
O O8 0.148100 0.234588 0.252800
O O9 0.330642 0.980497 0.318512
O O10 0.112519 0.790975 0.261239
O O11 0.024090 0.488123 0.303381
#
# Coordination Sequence:
#
# PCOD9299182 Si02
#       6
#     8   8   8   8   8   4
#     4  12  25  44  73 110 136 189 253 290 370 434
#     4  10  24  47  74 107 149 188 237 305 370 435
#     4  12  26  45  68 103 143 189 238 298 355 426
#     4  10  24  47  74 107 149 188 237 305 370 435
#     4  12  26  45  68 103 143 189 238 298 355 426
#     4  12  22  44  74  88 144 190 234 288 364 416
#
# _framework density 25.034832000000002
#
# number of rings (size 3 to 8) (size 9 to 14) (size 15 to 20)
#    0.000    0.727    5.455    1.091    0.000   11.636 
#    0.000    0.000    0.000    0.000    0.000    0.000 
#    0.000    0.000    0.000    0.000    0.000    0.000 
#
# Total GULP energy -123033.585872 kJ/mol
# GULP energy per Si atom -5592.435721 kJ/mol
# Density = 2.497785 g / cm^3
# Si number density = 25.034832 Si / 1000 Ang^3
#
#
#
# Elastic Constant Matrix: (Units=GPa)
#
#
# Indices 1 2 3 4 5 6 
#
# 1 133.8576 9.7908 36.0127 0.0000 -12.6377 0.0000
# 2 9.7908 72.1591 11.0795 0.0000 -15.1351 0.0000
# 3 36.0127 11.0795 72.0450 0.0000 -19.7765 0.0000
# 4 0.0000 0.0000 0.0000 35.3305 0.0000 -10.3804
# 5 -12.6377 -15.1351 -19.7765 0.0000 21.5950 0.0000
# 6 0.0000 0.0000 0.0000 -10.3804 0.0000 59.7906
#
#
#
# Elastic Compliance Matrix: (Units=1/GPa)
#
#
# Indices 1 2 3 4 5 6 
#
# 1 0.008672 -0.000310 -0.003946 0.000000 0.001245 0.000000
# 2 -0.000310 0.016296 0.000981 0.000000 0.012138 0.000000
# 3 -0.003946 0.000981 0.020380 0.000000 0.017042 0.000000
# 4 0.000000 0.000000 0.000000 0.029825 0.000000 0.005178
# 5 0.001245 0.012138 0.017042 0.000000 0.071149 0.000000
# 6 0.000000 0.000000 0.000000 0.005178 0.000000 0.017624
#
#
# Mechanical properties :
#
#
# Convention : Reuss Voigt Hill
#
# Bulk Modulus (GPa) = 25.77461 43.53640 34.65550
# Shear Modulus (GPa) = 27.25864 38.08848 32.67356
#
# Velocity S-wave (km/s) = 3.30332 3.90477 3.61657
# Velocity P-wave (km/s) = 4.98669 6.14473 5.59575
#
# Compressibility (1/GPa) = 0.03879787
#
# Stress axis : x y z
#
# Youngs Moduli (GPa) = 115.30927 61.36643 49.06847
#
# Poissons Ratio (x) = 0.01901 0.19361
# Poissons Ratio (y) = 0.03572 -0.04812
# Poissons Ratio (z) = 0.45497 -0.06018
#
# Static dielectric constant tensor:
#      x y z
#    x 1.910910 0.000000 0.017490 
#    y 0.000000 2.075590 0.000000 
#    z 0.017490 0.000000 2.016340 
# 
# From -- ./inp_files/294297.got.cif
#   From: 2010.05.17/outbox.cif.g08.bks.cpg/sg15_148_cif.got.tgz:294297.got - 2010.06.03 18:47:42.
