data_PCOD9299920
_publ_section_title
;
Structure prediction by ZEFSAII (Michael W. Deem and Ramdas Pophale) SiO2 
 PCOD9299920
Probable space group: C 2/C
;
_chemical_formula_sum "Si O2"
_cell_formula_units_Z 56
_cell_length_a 13.842682
_cell_length_b 22.568471
_cell_length_c 7.947221
_cell_angle_alpha 90.000000
_cell_angle_beta 87.326342
_cell_angle_gamma 90.000000
_cell_volume 2480.074063
_symmetry_space_group_name_H-M "C 2/C"
_symmetry_group_IT_number 15
_symmetry_cell_setting 'monoclinic'
loop_
_space_group_symop_operation_xyz
x,y,z
-x,y,1/2-z
-x,-y,-z
x,-y,1/2+z
1/2+x,1/2+y,z
1/2-x,1/2+y,1/2-z
1/2-x,1/2-y,-z
1/2+x,1/2-y,1/2+z
loop_
_atom_site_type_symbol
_atom_site_label
_atom_site_fract_x
_atom_site_fract_y
_atom_site_fract_z
Si Si1 0.109111 0.130362 0.162226
Si Si2 0.944651 0.444839 0.584614
Si Si3 0.241267 0.966121 0.498928
Si Si4 0.478195 0.276414 0.065015
Si Si5 0.314502 0.692835 0.038730
Si Si6 0.021772 0.339720 0.426678
Si Si7 0.771367 0.591867 0.628285
O O1 0.149586 0.069534 0.079135
O O2 0.189241 0.155578 0.287999
O O3 0.000000 0.121227 0.250000
O O4 0.097522 0.182358 0.023520
O O5 0.832624 0.455587 0.614845
O O6 0.000000 0.427992 0.750000
O O7 0.000000 0.500000 0.500000
O O8 0.952868 0.395638 0.443279
O O9 0.264748 0.937450 0.314072
O O10 0.240506 0.037891 0.505866
O O11 0.500000 0.297375 0.250000
O O12 0.578467 0.282550 0.958200
O O13 0.473779 0.205293 0.064293
O O14 0.250000 0.750000 0.000000
O O15 0.303726 0.645108 0.891920
O O16 0.128110 0.371724 0.426934
O O17 0.000000 0.310471 0.250000
#
# Coordination Sequence:
#
# PCOD9299920 Si02
#       7
#     8   8   8   8   8   8   8
#     4  10  25  48  75 100 140 186 244 301 359 423
#     4  12  24  38  62  95 138 182 226 282 346 427
#     4  12  25  45  69 102 142 188 244 292 359 434
#     4  11  24  46  69 100 141 183 237 292 355 428
#     4  11  23  43  71 100 138 183 235 291 359 420
#     4  12  23  41  64  99 140 187 225 287 360 420
#     4  12  25  42  69 103 142 186 238 291 357 430
#
# _framework density 22.579972000000001
#
# number of rings (size 3 to 8) (size 9 to 14) (size 15 to 20)
#    0.000    0.571    4.286    4.714    2.000    1.143 
#    0.000    9.286    0.000    0.000    0.000    0.000 
#    0.000    0.000    0.000    0.000    0.000    0.000 
#
# Total GULP energy -155911.399240 kJ/mol
# GULP energy per Si atom -5568.264259 kJ/mol
# Density = 2.252858 g / cm^3
# Si number density = 22.579972 Si / 1000 Ang^3
#
#
#
# Elastic Constant Matrix: (Units=GPa)
#
#
# Indices 1 2 3 4 5 6 
#
# 1 73.5261 52.7032 19.0663 0.0000 3.4253 0.0000
# 2 52.7032 139.2881 36.4107 0.0000 14.7855 0.0000
# 3 19.0663 36.4107 108.8577 0.0000 16.6556 0.0000
# 4 0.0000 0.0000 0.0000 34.5952 0.0000 4.5651
# 5 3.4253 14.7855 16.6556 0.0000 25.2900 0.0000
# 6 0.0000 0.0000 0.0000 4.5651 0.0000 38.7646
#
#
#
# Elastic Compliance Matrix: (Units=1/GPa)
#
#
# Indices 1 2 3 4 5 6 
#
# 1 0.018891 -0.007062 -0.001320 0.000000 0.002439 0.000000
# 2 -0.007062 0.010745 -0.001715 0.000000 -0.004196 0.000000
# 3 -0.001320 -0.001715 0.010910 0.000000 -0.006003 0.000000
# 4 0.000000 0.000000 0.000000 0.029362 0.000000 -0.003458
# 5 0.002439 -0.004196 -0.006003 0.000000 0.045618 0.000000
# 6 0.000000 0.000000 0.000000 -0.003458 0.000000 0.026204
#
#
# Mechanical properties :
#
#
# Convention : Reuss Voigt Hill
#
# Bulk Modulus (GPa) = 49.13488 59.78138 54.45813
# Shear Modulus (GPa) = 29.63708 33.96276 31.79992
#
# Velocity S-wave (km/s) = 3.62683 3.88249 3.75684
# Velocity P-wave (km/s) = 6.27265 6.82871 6.55657
#
# Compressibility (1/GPa) = 0.02035214
#
# Stress axis : x y z
#
# Youngs Moduli (GPa) = 52.93486 93.06535 91.66138
#
# Poissons Ratio (x) = 0.65721 0.12099
# Poissons Ratio (y) = 0.37382 0.15721
# Poissons Ratio (z) = 0.06987 0.15962
#
# Static dielectric constant tensor:
#      x y z
#    x 1.740380 0.000000 -0.085550 
#    y 0.000000 2.183380 0.000000 
#    z -0.085550 0.000000 1.937250 
# 
# From -- ./inp_files/41261.got.cif
#   From: 2010.05.17/outbox.cif.g08.bks.cpg/sg15_21_cif.got.tgz:41261.got - 2010.06.03 18:47:42.
