data_PCOD9299295
_publ_section_title
;
Structure prediction by ZEFSAII (Michael W. Deem and Ramdas Pophale) SiO2 
 PCOD9299295
Probable space group: C 2/C
;
_chemical_formula_sum "Si O2"
_cell_formula_units_Z 48
_cell_length_a 11.662343
_cell_length_b 24.296523
_cell_length_c 8.654556
_cell_angle_alpha 90.000000
_cell_angle_beta 109.818387
_cell_angle_gamma 90.000000
_cell_volume 2307.061226
_symmetry_space_group_name_H-M "C 2/C"
_symmetry_group_IT_number 15
_symmetry_cell_setting 'monoclinic'
loop_
_space_group_symop_operation_xyz
x,y,z
-x,y,1/2-z
-x,-y,-z
x,-y,1/2+z
1/2+x,1/2+y,z
1/2-x,1/2+y,1/2-z
1/2-x,1/2-y,-z
1/2+x,1/2-y,1/2+z
loop_
_atom_site_type_symbol
_atom_site_label
_atom_site_fract_x
_atom_site_fract_y
_atom_site_fract_z
Si Si1 0.000000 0.748726 0.250000
Si Si2 0.000000 0.380478 0.250000
Si Si3 0.001832 0.937670 0.566539
Si Si4 0.772647 0.431659 0.628867
Si Si5 0.365360 0.837258 0.478169
Si Si6 0.374524 0.030295 0.497378
Si Si7 0.106642 0.146715 0.689972
O O1 0.940629 0.790436 0.348914
O O2 0.096227 0.712813 0.392528
O O3 0.955873 0.345142 0.375480
O O4 0.098572 0.422920 0.364424
O O5 0.133634 0.913017 0.578389
O O6 0.000000 0.940470 0.750000
O O7 0.898418 0.896022 0.453507
O O8 0.000000 0.000000 0.500000
O O9 0.863535 0.388940 0.591733
O O10 0.784832 0.485901 0.530515
O O11 0.817357 0.444812 0.819290
O O12 0.232935 0.843561 0.336686
O O13 0.500000 0.000000 0.500000
O O14 0.000000 0.121914 0.750000
#
# Coordination Sequence:
#
# PCOD9299295 Si02
#       7
#     4   4   8   8   8   8   8
#     4  10  24  49  78 100 135 188 240 296 364 406
#     4  12  26  37  62 102 141 172 238 290 346 424
#     4  12  27  43  68 104 140 187 232 278 358 419
#     4  12  23  39  64  91 140 183 230 282 349 414
#     4  12  24  45  73 104 137 182 239 292 356 419
#     4  12  22  37  57  93 138 188 227 282 341 417
#     4  10  24  48  73  99 133 181 234 287 350 425
#
# _framework density 20.805689999999998
#
# number of rings (size 3 to 8) (size 9 to 14) (size 15 to 20)
#    0.500    0.000    5.000    3.000    7.000    0.000 
#    1.500    0.833    0.000    0.000    0.000    0.000 
#    0.000    0.000    0.000    0.000    0.000    0.000 
#
# Total GULP energy -133891.434669 kJ/mol
# GULP energy per Si atom -5578.809778 kJ/mol
# Density = 2.075833 g / cm^3
# Si number density = 20.805690 Si / 1000 Ang^3
#
#
#
# Elastic Constant Matrix: (Units=GPa)
#
#
# Indices 1 2 3 4 5 6 
#
# 1 70.6000 12.3838 28.0911 0.0000 2.8965 0.0000
# 2 12.3838 112.1306 80.1311 0.0000 4.4858 0.0000
# 3 28.0911 80.1311 160.1737 0.0000 5.4373 0.0000
# 4 0.0000 0.0000 0.0000 38.6559 0.0000 6.3909
# 5 2.8965 4.4858 5.4373 0.0000 41.9202 0.0000
# 6 0.0000 0.0000 0.0000 6.3909 0.0000 23.4425
#
#
#
# Elastic Compliance Matrix: (Units=1/GPa)
#
#
# Indices 1 2 3 4 5 6 
#
# 1 0.015258 0.000371 -0.002837 0.000000 -0.000726 0.000000
# 2 0.000371 0.013904 -0.007000 0.000000 -0.000606 0.000000
# 3 -0.002837 -0.007000 0.010256 0.000000 -0.000385 0.000000
# 4 0.000000 0.000000 0.000000 0.027090 0.000000 -0.007385
# 5 -0.000726 -0.000606 -0.000385 0.000000 0.024020 0.000000
# 6 0.000000 0.000000 0.000000 -0.007385 0.000000 0.044671
#
#
# Mechanical properties :
#
#
# Convention : Reuss Voigt Hill
#
# Bulk Modulus (GPa) = 48.81470 64.90182 56.85826
# Shear Modulus (GPa) = 31.06368 35.62359 33.34363
#
# Velocity S-wave (km/s) = 3.86818 4.14237 4.00762
# Velocity P-wave (km/s) = 6.59269 7.35805 6.98586
#
# Compressibility (1/GPa) = 0.02048563
#
# Stress axis : x y z
#
# Youngs Moduli (GPa) = 65.54032 71.92145 97.50383
#
# Poissons Ratio (x) = -0.02671 0.27662
# Poissons Ratio (y) = -0.02434 0.68257
# Poissons Ratio (z) = 0.18594 0.50348
#
# Static dielectric constant tensor:
#      x y z
#    x 1.853610 0.000000 0.082250 
#    y 0.000000 1.760100 0.000000 
#    z 0.082250 0.000000 1.808400 
# 
# From -- ./inp_files/32678.got.cif
#   From: 2010.05.17/outbox.cif.g08.bks.cpg/sg15_17_cif.got.tgz:32678.got - 2010.06.03 18:47:42.
