data_PCOD9299830
_publ_section_title
;
Structure prediction by ZEFSAII (Michael W. Deem and Ramdas Pophale) SiO2 
 PCOD9299830
Probable space group: C 2/C
;
_chemical_formula_sum "Si O2"
_cell_formula_units_Z 48
_cell_length_a 8.886236
_cell_length_b 11.398209
_cell_length_c 22.685669
_cell_angle_alpha 90.000000
_cell_angle_beta 67.270220
_cell_angle_gamma 90.000000
_cell_volume 2119.316714
_symmetry_space_group_name_H-M "C 2/C"
_symmetry_group_IT_number 15
_symmetry_cell_setting 'monoclinic'
loop_
_space_group_symop_operation_xyz
x,y,z
-x,y,1/2-z
-x,-y,-z
x,-y,1/2+z
1/2+x,1/2+y,z
1/2-x,1/2+y,1/2-z
1/2-x,1/2-y,-z
1/2+x,1/2-y,1/2+z
loop_
_atom_site_type_symbol
_atom_site_label
_atom_site_fract_x
_atom_site_fract_y
_atom_site_fract_z
Si Si1 0.333900 0.809608 0.542140
Si Si2 0.705995 0.144456 0.284588
Si Si3 0.175904 0.282866 0.447879
Si Si4 0.688133 0.629965 0.850357
Si Si5 0.359052 0.508692 0.859687
Si Si6 0.169387 0.400131 0.652114
O O1 0.250000 0.750000 0.500000
O O2 0.507797 0.845427 0.490207
O O3 0.366872 0.710859 0.586873
O O4 0.216160 0.909005 0.586013
O O5 0.758193 0.276187 0.293542
O O6 0.516026 0.136526 0.334456
O O7 0.701129 0.130119 0.215578
O O8 0.812544 0.047475 0.303306
O O9 0.250000 0.250000 0.500000
O O10 0.266995 0.372311 0.390798
O O11 0.194141 0.161456 0.408839
O O12 0.544193 0.549217 0.844886
O O13 0.820722 0.539690 0.854077
#
# Coordination Sequence:
#
# PCOD9299830 Si02
#       6
#     8   8   8   8   8   8
#     4  11  25  40  64 101 138 175 225 276 335 409
#     4  10  25  47  65 100 129 178 230 276 342 394
#     4  12  23  42  69 101 135 182 222 274 349 404
#     4  11  24  46  68  98 137 177 230 279 337 406
#     4  11  23  44  69  95 135 181 221 280 337 403
#     4  11  25  43  72  95 134 178 222 285 336 403
#
# _framework density 22.648810000000001
#
# number of rings (size 3 to 8) (size 9 to 14) (size 15 to 20)
#    0.000    1.000    3.333    2.500    7.000    2.000 
#    0.000    0.000    0.000    0.000    0.000    0.000 
#    0.000    0.000    0.000    0.000    0.000    0.000 
#
# Total GULP energy -134032.633584 kJ/mol
# GULP energy per Si atom -5584.693066 kJ/mol
# Density = 2.259726 g / cm^3
# Si number density = 22.648810 Si / 1000 Ang^3
#
#
#
# Elastic Constant Matrix: (Units=GPa)
#
#
# Indices 1 2 3 4 5 6 
#
# 1 69.2497 26.0579 25.7474 0.0000 24.3681 0.0000
# 2 26.0579 121.9249 17.4722 0.0000 8.4078 0.0000
# 3 25.7474 17.4722 73.4138 0.0000 9.8729 0.0000
# 4 0.0000 0.0000 0.0000 -2.6901 0.0000 -4.9263
# 5 24.3681 8.4078 9.8729 0.0000 27.9847 0.0000
# 6 0.0000 0.0000 0.0000 -4.9263 0.0000 37.0613
#
#
#
# Elastic Compliance Matrix: (Units=1/GPa)
#
#
# Indices 1 2 3 4 5 6 
#
# 1 0.023898 -0.003117 -0.005214 0.000000 -0.018033 0.000000
# 2 -0.003117 0.008998 -0.001102 0.000000 0.000399 0.000000
# 3 -0.005214 -0.001102 0.015807 0.000000 -0.000705 0.000000
# 4 0.000000 0.000000 0.000000 -0.298959 0.000000 -0.039739
# 5 -0.018033 0.000399 -0.000705 0.000000 0.051565 0.000000
# 6 0.000000 0.000000 0.000000 -0.039739 0.000000 0.021700
#
#
# Mechanical properties :
#
#
# Convention : Reuss Voigt Hill
#
# Bulk Modulus (GPa) = 33.51564 44.79370 39.15467
# Shear Modulus (GPa) = -33.74303 25.49190 -4.12556
#
# Velocity S-wave (km/s) = -3.86403 3.35853 -1.35111
# Velocity P-wave (km/s) = 2.25334 5.90424 3.85892
#
# Compressibility (1/GPa) = 0.02983682
#
# Stress axis : x y z
#
# Youngs Moduli (GPa) = 41.84510 111.13235 63.26176
#
# Poissons Ratio (x) = 0.34636 0.32987
# Poissons Ratio (y) = 0.13042 0.06973
# Poissons Ratio (z) = 0.21820 0.12249
#
# Static dielectric constant tensor:
#      x y z
#    x 1.806860 0.000000 0.019950 
#    y 0.000000 1.860910 0.000000 
#    z 0.019950 0.000000 1.796630 
# 
# From -- ./inp_files/263254.got.cif
#   From: 2010.05.17/outbox.cif.g08.bks.cpg/sg15_132_cif.got.tgz:263254.got - 2010.06.03 18:47:42.
