data_PCOD9299023
_publ_section_title
;
Structure prediction by ZEFSAII (Michael W. Deem and Ramdas Pophale) SiO2 
 PCOD9299023
Probable space group: C 2/C
;
_chemical_formula_sum "Si O2"
_cell_formula_units_Z 36
_cell_length_a 5.088593
_cell_length_b 13.669847
_cell_length_c 19.995518
_cell_angle_alpha 90.000000
_cell_angle_beta 74.951881
_cell_angle_gamma 90.000000
_cell_volume 1343.197617
_symmetry_space_group_name_H-M "C 2/C"
_symmetry_group_IT_number 15
_symmetry_cell_setting 'monoclinic'
loop_
_space_group_symop_operation_xyz
x,y,z
-x,y,1/2-z
-x,-y,-z
x,-y,1/2+z
1/2+x,1/2+y,z
1/2-x,1/2+y,1/2-z
1/2-x,1/2-y,-z
1/2+x,1/2-y,1/2+z
loop_
_atom_site_type_symbol
_atom_site_label
_atom_site_fract_x
_atom_site_fract_y
_atom_site_fract_z
Si Si1 0.912122 0.057496 0.109108
Si Si2 0.882039 0.210551 0.693504
Si Si3 0.193031 0.589947 0.977387
Si Si4 0.010282 0.736140 0.890604
Si Si5 0.000000 0.602771 0.250000
O O1 0.094292 0.153402 0.112333
O O2 0.675173 0.048946 0.180978
O O3 0.814198 0.097754 0.043051
O O4 0.075735 0.956760 0.087173
O O5 0.645196 0.179483 0.658936
O O6 0.000000 0.149830 0.750000
O O7 0.163329 0.235891 0.638292
O O8 0.800307 0.315993 0.730431
O O9 0.006497 0.676449 0.960034
O O10 0.000000 0.500000 0.000000
#
# Coordination Sequence:
#
# PCOD9299023 Si02
#       5
#     8   8   8   8   4
#     4  10  24  46  74 107 150 200 257 316 384 465
#     4   9  21  40  75 107 136 189 260 300 378 461
#     4  11  27  44  70 114 151 198 256 309 384 470
#     4  11  23  44  76 104 147 199 248 320 376 454
#     4   8  20  44  76 104 138 202 256 310 388 458
#
# _framework density 26.801715999999999
#
# number of rings (size 3 to 8) (size 9 to 14) (size 15 to 20)
#    0.667    1.333    0.000    1.333   12.444    0.889 
#    0.000    2.222    0.000    0.000    0.000    0.000 
#    0.000    0.000    0.000    0.000    0.000    0.000 
#
# Total GULP energy -100223.135312 kJ/mol
# GULP energy per Si atom -5567.951962 kJ/mol
# Density = 2.674071 g / cm^3
# Si number density = 26.801716 Si / 1000 Ang^3
#
#
#
# Elastic Constant Matrix: (Units=GPa)
#
#
# Indices 1 2 3 4 5 6 
#
# 1 127.4384 22.5662 53.0305 0.0000 13.3977 0.0000
# 2 22.5662 101.6465 34.0417 0.0000 1.1742 0.0000
# 3 53.0305 34.0417 129.6528 0.0000 -2.3962 0.0000
# 4 0.0000 0.0000 0.0000 25.8364 0.0000 -16.5677
# 5 13.3977 1.1742 -2.3962 0.0000 77.7163 0.0000
# 6 0.0000 0.0000 0.0000 -16.5677 0.0000 28.3321
#
#
#
# Elastic Compliance Matrix: (Units=1/GPa)
#
#
# Indices 1 2 3 4 5 6 
#
# 1 0.009771 -0.000876 -0.003800 0.000000 -0.001788 0.000000
# 2 -0.000876 0.010870 -0.002497 0.000000 -0.000090 0.000000
# 3 -0.003800 -0.002497 0.009941 0.000000 0.000999 0.000000
# 4 0.000000 0.000000 0.000000 0.061927 0.000000 0.036213
# 5 -0.001788 -0.000090 0.000999 0.000000 0.013208 0.000000
# 6 0.000000 0.000000 0.000000 0.036213 0.000000 0.056472
#
#
# Mechanical properties :
#
#
# Convention : Reuss Voigt Hill
#
# Bulk Modulus (GPa) = 61.59084 64.22384 62.90734
# Shear Modulus (GPa) = 27.48057 42.98357 35.23207
#
# Velocity S-wave (km/s) = 3.20555 4.00904 3.62960
# Velocity P-wave (km/s) = 6.06059 6.74126 6.40997
#
# Compressibility (1/GPa) = 0.01623618
#
# Stress axis : x y z
#
# Youngs Moduli (GPa) = 102.34150 91.99694 100.59148
#
# Poissons Ratio (x) = 0.08060 0.38221
# Poissons Ratio (y) = 0.08966 0.25121
# Poissons Ratio (z) = 0.38886 0.22975
#
# Static dielectric constant tensor:
#      x y z
#    x 1.809610 0.000000 -0.639090 
#    y 0.000000 0.466360 0.000000 
#    z -0.639090 0.000000 1.142780 
# 
# From -- ./inp_files/259892.got.cif
#   From: 2010.05.17/outbox.cif.g08.bks.cpg/sg15_130_cif.got.tgz:259892.got - 2010.06.03 18:47:42.
