data_PCOD9299025
_publ_section_title
;
Structure prediction by ZEFSAII (Michael W. Deem and Ramdas Pophale) SiO2 
 PCOD9299025
Probable space group: C 2/C
;
_chemical_formula_sum "Si O2"
_cell_formula_units_Z 40
_cell_length_a 13.217046
_cell_length_b 29.282526
_cell_length_c 5.478072
_cell_angle_alpha 90.000000
_cell_angle_beta 52.395161
_cell_angle_gamma 90.000000
_cell_volume 1679.679435
_symmetry_space_group_name_H-M "C 2/C"
_symmetry_group_IT_number 15
_symmetry_cell_setting 'monoclinic'
loop_
_space_group_symop_operation_xyz
x,y,z
-x,y,1/2-z
-x,-y,-z
x,-y,1/2+z
1/2+x,1/2+y,z
1/2-x,1/2+y,1/2-z
1/2-x,1/2-y,-z
1/2+x,1/2-y,1/2+z
loop_
_atom_site_type_symbol
_atom_site_label
_atom_site_fract_x
_atom_site_fract_y
_atom_site_fract_z
Si Si1 0.837670 0.696646 0.121065
Si Si2 0.500000 0.631075 0.250000
Si Si3 0.000000 0.645483 0.250000
Si Si4 0.594208 0.286737 0.311065
Si Si5 0.643985 0.015720 0.713312
Si Si6 0.717828 0.888236 0.131795
O O1 0.725545 0.700111 0.486909
O O2 0.870680 0.750017 0.029534
O O3 0.959718 0.674689 0.075091
O O4 0.791547 0.660818 0.988469
O O5 0.474609 0.667361 0.503260
O O6 0.368689 0.603546 0.430442
O O7 0.873048 0.617281 0.499217
O O8 0.500000 0.264762 0.250000
O O9 0.654587 0.067663 0.601335
O O10 0.702886 0.987263 0.400872
O O11 0.500000 0.000000 0.000000
#
# Coordination Sequence:
#
# PCOD9299025 Si02
#       6
#     8   4   4   8   8   8
#     4  11  25  40  68 101 140 195 244 303 350 437
#     4  12  26  44  68 100 143 199 236 300 352 444
#     4  12  24  40  62 106 135 181 244 300 350 428
#     4  11  23  44  63  96 149 195 247 293 363 413
#     4  10  24  46  74 108 144 184 231 311 386 451
#     4  12  27  44  73 104 143 189 246 297 377 443
#
# _framework density 23.814067999999999
#
# number of rings (size 3 to 8) (size 9 to 14) (size 15 to 20)
#    0.000    0.800    5.000    1.800   11.200    0.800 
#    0.000    1.000    0.000    0.000    0.000    0.000 
#    0.000    0.000    0.000    0.000    0.000    0.000 
#
# Total GULP energy -111591.719617 kJ/mol
# GULP energy per Si atom -5579.585981 kJ/mol
# Density = 2.375987 g / cm^3
# Si number density = 23.814068 Si / 1000 Ang^3
#
#
#
# Elastic Constant Matrix: (Units=GPa)
#
#
# Indices 1 2 3 4 5 6 
#
# 1 83.5285 12.9636 28.2047 0.0000 -27.3006 0.0000
# 2 12.9636 102.0309 21.8315 0.0000 -12.2500 0.0000
# 3 28.2047 21.8315 126.6675 0.0000 -24.7265 0.0000
# 4 0.0000 0.0000 0.0000 17.3393 0.0000 1.8675
# 5 -27.3006 -12.2500 -24.7265 0.0000 58.4611 0.0000
# 6 0.0000 0.0000 0.0000 1.8675 0.0000 31.1362
#
#
#
# Elastic Compliance Matrix: (Units=1/GPa)
#
#
# Indices 1 2 3 4 5 6 
#
# 1 0.014674 -0.000734 -0.001998 0.000000 0.005853 0.000000
# 2 -0.000734 0.010338 -0.001376 0.000000 0.001241 0.000000
# 3 -0.001998 -0.001376 0.009089 0.000000 0.002623 0.000000
# 4 0.000000 0.000000 0.000000 0.058047 0.000000 -0.003482
# 5 0.005853 0.001241 0.002623 0.000000 0.021208 0.000000
# 6 0.000000 0.000000 0.000000 -0.003482 0.000000 0.032326
#
#
# Mechanical properties :
#
#
# Convention : Reuss Voigt Hill
#
# Bulk Modulus (GPa) = 38.63420 48.69183 43.66302
# Shear Modulus (GPa) = 30.76433 38.00247 34.38340
#
# Velocity S-wave (km/s) = 3.59814 3.99908 3.80389
# Velocity P-wave (km/s) = 5.78970 6.46642 6.13739
#
# Compressibility (1/GPa) = 0.02588380
#
# Stress axis : x y z
#
# Youngs Moduli (GPa) = 68.14877 96.73359 110.02632
#
# Poissons Ratio (x) = 0.07101 0.21985
# Poissons Ratio (y) = 0.05002 0.15139
# Poissons Ratio (z) = 0.13617 0.13310
#
# Static dielectric constant tensor:
#      x y z
#    x 2.040930 0.000000 0.064790 
#    y 0.000000 1.956080 0.000000 
#    z 0.064790 0.000000 1.979860 
# 
# From -- ./inp_files/5515.got.cif
#   From: 2010.05.17/outbox.cif.g08.bks.cpg/sg15_3_cif.got.tgz:5515.got - 2010.06.03 18:47:42.
