data_PCOD9299470
_publ_section_title
;
Structure prediction by ZEFSAII (Michael W. Deem and Ramdas Pophale) SiO2 
 PCOD9299470
Probable space group: C 2/C
;
_chemical_formula_sum "Si O2"
_cell_formula_units_Z 44
_cell_length_a 9.742031
_cell_length_b 9.788649
_cell_length_c 23.251401
_cell_angle_alpha 90.000000
_cell_angle_beta 54.448241
_cell_angle_gamma 90.000000
_cell_volume 1803.961694
_symmetry_space_group_name_H-M "C 2/C"
_symmetry_group_IT_number 15
_symmetry_cell_setting 'monoclinic'
loop_
_space_group_symop_operation_xyz
x,y,z
-x,y,1/2-z
-x,-y,-z
x,-y,1/2+z
1/2+x,1/2+y,z
1/2-x,1/2+y,1/2-z
1/2-x,1/2-y,-z
1/2+x,1/2-y,1/2+z
loop_
_atom_site_type_symbol
_atom_site_label
_atom_site_fract_x
_atom_site_fract_y
_atom_site_fract_z
Si Si1 0.135982 0.247065 0.653321
Si Si2 0.699761 0.166715 0.596643
Si Si3 0.275904 0.783116 0.695703
Si Si4 0.011100 0.165545 0.439359
Si Si5 0.754263 0.489233 0.815252
Si Si6 0.500000 0.507716 0.250000
O O1 0.314186 0.273068 0.578624
O O2 0.172474 0.336017 0.703721
O O3 0.974033 0.295167 0.657283
O O4 0.099120 0.094208 0.683535
O O5 0.743597 0.279255 0.634490
O O6 0.563697 0.222146 0.585879
O O7 0.867115 0.133062 0.519789
O O8 0.647057 0.042654 0.650455
O O9 0.229874 0.626536 0.725595
O O10 0.139714 0.896919 0.748202
O O11 0.067677 0.035973 0.386834
#
# Coordination Sequence:
#
# PCOD9299470 Si02
#       6
#     8   8   8   8   8   4
#     4  10  25  41  66  92 125 168 213 263 312 372
#     4   9  19  39  69  98 130 163 200 258 321 383
#     4  10  25  41  66  92 125 168 213 263 312 372
#     4   9  19  39  69  98 130 163 200 258 321 383
#     4   8  21  39  64  90 128 167 201 248 320 378
#     4  12  28  42  58  94 132 158 224 276 304 366
#
# _framework density 24.390763
#
# number of rings (size 3 to 8) (size 9 to 14) (size 15 to 20)
#    2.182    0.364    0.000    0.545    5.091    5.818 
#    0.000    0.909    0.000    0.000    0.000    0.000 
#    0.000    0.000    0.000    0.000    0.000    0.000 
#
# Total GULP energy -122501.877947 kJ/mol
# GULP energy per Si atom -5568.267179 kJ/mol
# Density = 2.433525 g / cm^3
# Si number density = 24.390763 Si / 1000 Ang^3
#
#
#
# Elastic Constant Matrix: (Units=GPa)
#
#
# Indices 1 2 3 4 5 6 
#
# 1 133.1950 33.8500 0.8333 0.0000 -44.7691 0.0000
# 2 33.8500 152.8457 10.4798 0.0000 -22.2780 0.0000
# 3 0.8333 10.4798 29.4774 0.0000 -11.9193 0.0000
# 4 0.0000 0.0000 0.0000 -21.4124 0.0000 -62.3947
# 5 -44.7691 -22.2780 -11.9193 0.0000 27.9599 0.0000
# 6 0.0000 0.0000 0.0000 -62.3947 0.0000 -31.8874
#
#
#
# Elastic Compliance Matrix: (Units=1/GPa)
#
#
# Indices 1 2 3 4 5 6 
#
# 1 0.020900 0.000168 0.015629 0.000000 0.040261 0.000000
# 2 0.000168 0.007406 -0.000173 0.000000 0.006096 0.000000
# 3 0.015629 -0.000173 0.052690 0.000000 0.047350 0.000000
# 4 0.000000 0.000000 0.000000 0.009933 0.000000 -0.019436
# 5 0.040261 0.006096 0.047350 0.000000 0.125275 0.000000
# 6 0.000000 0.000000 0.000000 -0.019436 0.000000 0.006670
#
#
# Mechanical properties :
#
#
# Convention : Reuss Voigt Hill
#
# Bulk Modulus (GPa) = 8.90906 45.09382 27.00144
# Shear Modulus (GPa) = 21.83043 12.95568 17.39305
#
# Velocity S-wave (km/s) = 2.99495 2.30722 2.67329
# Velocity P-wave (km/s) = 3.95224 5.06220 4.54126
#
# Compressibility (1/GPa) = 0.11224524
#
# Stress axis : x y z
#
# Youngs Moduli (GPa) = 47.84720 135.03078 18.97895
#
# Poissons Ratio (x) = -0.02269 -0.29663
# Poissons Ratio (y) = -0.00804 0.00328
# Poissons Ratio (z) = -0.74782 0.02330
#
# Static dielectric constant tensor:
#      x y z
#    x 1.789150 0.000000 -0.163200 
#    y 0.000000 2.098150 0.000000 
#    z -0.163200 0.000000 1.771230 
# 
# From -- ./inp_files/291431.got.cif
#   From: 2010.05.17/outbox.cif.g08.bks.cpg/sg15_146_cif.got.tgz:291431.got - 2010.06.03 18:47:42.
