data_PCOD9299850
_publ_section_title
;
Structure prediction by ZEFSAII (Michael W. Deem and Ramdas Pophale) SiO2 
 PCOD9299850
Probable space group: C 2/C
;
_chemical_formula_sum "Si O2"
_cell_formula_units_Z 44
_cell_length_a 5.369895
_cell_length_b 16.860291
_cell_length_c 22.676288
_cell_angle_alpha 90.000000
_cell_angle_beta 90.000222
_cell_angle_gamma 90.000000
_cell_volume 2053.065589
_symmetry_space_group_name_H-M "C 2/C"
_symmetry_group_IT_number 15
_symmetry_cell_setting 'monoclinic'
loop_
_space_group_symop_operation_xyz
x,y,z
-x,y,1/2-z
-x,-y,-z
x,-y,1/2+z
1/2+x,1/2+y,z
1/2-x,1/2+y,1/2-z
1/2-x,1/2-y,-z
1/2+x,1/2-y,1/2+z
loop_
_atom_site_type_symbol
_atom_site_label
_atom_site_fract_x
_atom_site_fract_y
_atom_site_fract_z
Si Si1 0.500000 0.551165 0.750000
Si Si2 0.000000 0.448838 0.750000
Si Si3 0.763571 0.904372 0.534962
Si Si4 0.142373 0.330414 0.657523
Si Si5 0.736431 0.904371 0.034961
Si Si6 0.500000 0.250000 0.750000
Si Si7 0.142376 0.169588 0.842478
O O1 0.750000 0.500001 0.757394
O O2 0.472418 0.605783 0.808330
O O3 0.027583 0.394220 0.808330
O O4 0.761620 0.867746 0.599833
O O5 0.512277 0.880918 0.500193
O O6 0.012277 0.880917 0.499808
O O7 0.750003 0.000000 0.539836
O O8 0.336485 0.304319 0.707475
O O9 0.999997 0.250001 0.641196
O O10 0.738381 0.867744 0.099832
O O11 0.336490 0.195682 0.792526
#
# Coordination Sequence:
#
# PCOD9299850 Si02
#       7
#     4   4   8   8   8   4   8
#     4  12  26  44  71 105 140 190 244 290 366 432
#     4  12  26  44  71 105 140 190 244 290 366 432
#     4  10  25  47  71 103 141 187 242 294 351 424
#     4  12  26  45  72 104 148 188 235 303 360 429
#     4  10  25  47  71 103 141 187 242 294 351 424
#     4  12  24  48  68 108 152 186 234 300 358 442
#     4  12  26  45  72 104 148 188 235 303 360 429
#
# _framework density 21.431365
#
# number of rings (size 3 to 8) (size 9 to 14) (size 15 to 20)
#    0.000    0.727    3.636    2.182    5.091    5.818 
#    0.000    0.000    0.000    0.000    0.000    0.000 
#    0.000    0.000    0.000    0.000    0.000    0.000 
#
# Total GULP energy -123166.330029 kJ/mol
# GULP energy per Si atom -5598.469547 kJ/mol
# Density = 2.138259 g / cm^3
# Si number density = 21.431365 Si / 1000 Ang^3
#
#
#
# Elastic Constant Matrix: (Units=GPa)
#
#
# Indices 1 2 3 4 5 6 
#
# 1 130.2108 32.0418 52.6611 0.0000 44.8827 0.0000
# 2 32.0418 61.3666 36.7649 0.0000 0.3847 0.0000
# 3 52.6611 36.7649 182.0319 0.0000 -40.7164 0.0000
# 4 0.0000 0.0000 0.0000 50.4141 0.0000 2.3980
# 5 44.8827 0.3847 -40.7164 0.0000 313.3071 0.0000
# 6 0.0000 0.0000 0.0000 2.3980 0.0000 20.3330
#
#
#
# Elastic Compliance Matrix: (Units=1/GPa)
#
#
# Indices 1 2 3 4 5 6 
#
# 1 0.010297 -0.003797 -0.002617 0.000000 -0.001810 0.000000
# 2 -0.003797 0.020023 -0.002914 0.000000 0.000141 0.000000
# 3 -0.002617 -0.002914 0.007131 0.000000 0.001305 0.000000
# 4 0.000000 0.000000 0.000000 0.019948 0.000000 -0.002353
# 5 -0.001810 0.000141 0.001305 0.000000 0.003621 0.000000
# 6 0.000000 0.000000 0.000000 -0.002353 0.000000 0.049459
#
#
# Mechanical properties :
#
#
# Convention : Reuss Voigt Hill
#
# Bulk Modulus (GPa) = 53.20657 68.50497 60.85577
# Shear Modulus (GPa) = 36.92801 93.62026 65.27413
#
# Velocity S-wave (km/s) = 4.15551 6.61654 5.52480
# Velocity P-wave (km/s) = 6.92132 9.50819 8.31596
#
# Compressibility (1/GPa) = 0.01879467
#
# Stress axis : x y z
#
# Youngs Moduli (GPa) = 97.11936 49.94232 140.23138
#
# Poissons Ratio (x) = 0.18964 0.36696
# Poissons Ratio (y) = 0.36878 0.40865
# Poissons Ratio (z) = 0.25414 0.14554
#
# Static dielectric constant tensor:
#      x y z
#    x 1.809240 0.000000 -0.007300 
#    y 0.000000 1.845300 0.000000 
#    z -0.007300 0.000000 1.717730 
# 
# From -- ./inp_files/226987.got.cif
#   From: 2010.05.17/outbox.cif.g08.bks.cpg/sg15_114_cif.got.tgz:226987.got - 2010.06.03 18:47:42.
