data_PCOD9299540
_publ_section_title
;
Structure prediction by ZEFSAII (Michael W. Deem and Ramdas Pophale) SiO2 
 PCOD9299540
Probable space group: C 2/C
;
_chemical_formula_sum "Si O2"
_cell_formula_units_Z 56
_cell_length_a 8.867800
_cell_length_b 30.680352
_cell_length_c 13.351915
_cell_angle_alpha 90.000000
_cell_angle_beta 130.051685
_cell_angle_gamma 90.000000
_cell_volume 2780.639717
_symmetry_space_group_name_H-M "C 2/C"
_symmetry_group_IT_number 15
_symmetry_cell_setting 'monoclinic'
loop_
_space_group_symop_operation_xyz
x,y,z
-x,y,1/2-z
-x,-y,-z
x,-y,1/2+z
1/2+x,1/2+y,z
1/2-x,1/2+y,1/2-z
1/2-x,1/2-y,-z
1/2+x,1/2-y,1/2+z
loop_
_atom_site_type_symbol
_atom_site_label
_atom_site_fract_x
_atom_site_fract_y
_atom_site_fract_z
Si Si1 0.000000 0.703322 0.750000
Si Si2 0.220105 0.870390 0.045147
Si Si3 0.704330 0.529735 0.891668
Si Si4 0.202907 0.295725 0.932756
Si Si5 0.944744 0.539558 0.616213
Si Si6 0.000000 0.148039 0.250000
Si Si7 0.739105 0.718143 0.254240
Si Si8 0.077583 0.122440 0.896420
O O1 0.138707 0.672220 0.878446
O O2 0.147519 0.736037 0.751548
O O3 0.361349 0.911984 0.093435
O O4 0.093317 0.874421 0.093256
O O5 0.073064 0.873205 0.885274
O O6 0.500000 0.518364 0.750000
O O7 0.670633 0.574309 0.938547
O O8 0.865911 0.538996 0.874956
O O9 0.784231 0.491451 0.995615
O O10 0.334877 0.294278 0.887953
O O11 0.968072 0.290096 0.833280
O O12 0.250000 0.250000 0.000000
O O13 0.267389 0.339273 0.016077
O O14 0.000000 0.522797 0.750000
O O15 0.823270 0.181021 0.196907
O O16 0.000000 0.128104 0.750000
#
# Coordination Sequence:
#
# PCOD9299540 Si02
#       8
#     4   8   8   8   8   4   8   8
#     4  11  26  44  70  96 138 188 232 298 345 422
#     4  12  26  44  71 103 138 185 236 290 350 420
#     4  10  25  46  73 106 144 184 230 290 353 419
#     4  11  24  41  65  97 133 180 233 290 346 411
#     4  11  24  47  72 110 139 183 236 284 354 424
#     4  11  26  44  62  98 136 180 230 284 353 416
#     4  10  25  43  63  92 135 179 232 283 353 413
#     4  11  25  45  71 102 137 185 237 289 351 414
#
# _framework density 20.139251000000002
#
# number of rings (size 3 to 8) (size 9 to 14) (size 15 to 20)
#    0.000    1.143    2.143    2.571    9.000    3.429 
#    5.143    0.000    0.000    0.000    0.000    0.000 
#    0.000    0.000    0.000    0.000    0.000    0.000 
#
# Total GULP energy -156071.681254 kJ/mol
# GULP energy per Si atom -5573.988616 kJ/mol
# Density = 2.009341 g / cm^3
# Si number density = 20.139251 Si / 1000 Ang^3
#
#
#
# Elastic Constant Matrix: (Units=GPa)
#
#
# Indices 1 2 3 4 5 6 
#
# 1 111.5170 57.2142 46.3692 0.0000 0.6258 0.0000
# 2 57.2142 113.3131 58.0910 0.0000 8.2093 0.0000
# 3 46.3692 58.0910 107.2411 0.0000 -4.2555 0.0000
# 4 0.0000 0.0000 0.0000 151.2714 0.0000 66.8012
# 5 0.6258 8.2093 -4.2555 0.0000 33.0024 0.0000
# 6 0.0000 0.0000 0.0000 66.8012 0.0000 68.9077
#
#
#
# Elastic Compliance Matrix: (Units=1/GPa)
#
#
# Indices 1 2 3 4 5 6 
#
# 1 0.012691 -0.005063 -0.002719 0.000000 0.000668 0.000000
# 2 -0.005063 0.014762 -0.005980 0.000000 -0.004347 0.000000
# 3 -0.002719 -0.005980 0.013871 0.000000 0.003328 0.000000
# 4 0.000000 0.000000 0.000000 0.011559 0.000000 -0.011206
# 5 0.000668 -0.004347 0.003328 0.000000 0.031799 0.000000
# 6 0.000000 0.000000 0.000000 -0.011206 0.000000 0.025375
#
#
# Mechanical properties :
#
#
# Convention : Reuss Voigt Hill
#
# Bulk Modulus (GPa) = 72.45082 72.82442 72.63762
# Shear Modulus (GPa) = 35.16647 61.99608 48.58127
#
# Velocity S-wave (km/s) = 4.18325 5.55433 4.91681
# Velocity P-wave (km/s) = 7.70622 8.79619 8.26918
#
# Compressibility (1/GPa) = 0.01380247
#
# Stress axis : x y z
#
# Youngs Moduli (GPa) = 78.79352 67.74163 72.09065
#
# Poissons Ratio (x) = 0.34297 0.19598
# Poissons Ratio (y) = 0.39892 0.43108
# Poissons Ratio (z) = 0.21420 0.40508
#
# Static dielectric constant tensor:
#      x y z
#    x 1.709720 0.000000 -0.144310 
#    y 0.000000 1.700080 0.000000 
#    z -0.144310 0.000000 1.873190 
# 
# From -- ./inp_files/82716.got.cif
#   From: 2010.05.17/outbox.cif.g08.bks.cpg/sg15_42_cif.got.tgz:82716.got - 2010.06.03 18:47:42.
