data_PCOD9299988
_publ_section_title
;
Structure prediction by ZEFSAII (Michael W. Deem and Ramdas Pophale) SiO2 
 PCOD9299988
Probable space group: C 2/C
;
_chemical_formula_sum "Si O2"
_cell_formula_units_Z 56
_cell_length_a 28.867947
_cell_length_b 7.351200
_cell_length_c 29.992763
_cell_angle_alpha 90.000000
_cell_angle_beta 160.297527
_cell_angle_gamma 90.000000
_cell_volume 2145.831452
_symmetry_space_group_name_H-M "C 2/C"
_symmetry_group_IT_number 15
_symmetry_cell_setting 'monoclinic'
loop_
_space_group_symop_operation_xyz
x,y,z
-x,y,1/2-z
-x,-y,-z
x,-y,1/2+z
1/2+x,1/2+y,z
1/2-x,1/2+y,1/2-z
1/2-x,1/2-y,-z
1/2+x,1/2-y,1/2+z
loop_
_atom_site_type_symbol
_atom_site_label
_atom_site_fract_x
_atom_site_fract_y
_atom_site_fract_z
Si Si1 0.992166 0.700890 0.914686
Si Si2 0.829940 0.388980 0.814164
Si Si3 0.724876 0.583700 0.320408
Si Si4 0.927600 0.111105 0.486669
Si Si5 0.511782 0.676027 0.860220
Si Si6 0.829141 0.855091 0.532168
Si Si7 0.453196 0.948458 0.259351
O O1 0.133015 0.612702 0.026095
O O2 0.919483 0.563787 0.882305
O O3 0.294494 0.890212 0.113764
O O4 0.034947 0.897912 0.973203
O O5 0.773085 0.425207 0.812101
O O6 0.703944 0.368297 0.664757
O O7 0.937548 0.221599 0.907994
O O8 0.046667 0.716678 0.860242
O O9 0.626593 0.757663 0.227904
O O10 0.629507 0.426742 0.253695
O O11 0.907198 0.180401 0.519048
O O12 0.594381 0.551546 0.899341
O O13 0.479208 0.871199 0.811152
O O14 0.750000 0.750000 0.500000
O O15 0.500000 0.986852 0.250000
#
# Coordination Sequence:
#
# PCOD9299988 Si02
#       7
#     8   8   8   8   8   8   8
#     4  11  25  48  72 103 156 209 270 336 404 460
#     4  12  27  48  77 109 163 212 282 336 404 476
#     4  11  26  46  76 116 155 222 273 337 403 480
#     4  11  29  48  77 115 153 217 277 334 403 479
#     4  11  28  47  80 123 166 211 277 338 408 486
#     4  10  25  51  85 123 162 212 265 331 420 503
#     4  10  25  52  87 125 166 210 261 331 416 509
#
# _framework density 26.097111000000002
#
# number of rings (size 3 to 8) (size 9 to 14) (size 15 to 20)
#    0.000    1.143    1.429    1.286   10.000   12.571 
#    0.000    2.857    0.000    0.000    0.000    0.000 
#    0.000    0.000    0.000    0.000    0.000    0.000 
#
# Total GULP energy -156863.134440 kJ/mol
# GULP energy per Si atom -5602.254801 kJ/mol
# Density = 2.603771 g / cm^3
# Si number density = 26.097111 Si / 1000 Ang^3
#
#
#
# Elastic Constant Matrix: (Units=GPa)
#
#
# Indices 1 2 3 4 5 6 
#
# 1 80.9220 13.8979 13.6188 0.0058 -13.1650 0.0056
# 2 13.8979 162.9821 64.8157 0.0086 -17.4875 -0.0025
# 3 13.6188 64.8157 198.7964 0.0304 -17.4690 0.0106
# 4 0.0058 0.0086 0.0304 53.6073 0.0038 2.0097
# 5 -13.1650 -17.4875 -17.4690 0.0038 55.5798 0.0005
# 6 0.0056 -0.0025 0.0106 2.0097 0.0005 31.0090
#
#
#
# Elastic Compliance Matrix: (Units=1/GPa)
#
#
# Indices 1 2 3 4 5 6 
#
# 1 0.012987 -0.000638 -0.000441 -0.000001 0.002737 -0.000002
# 2 -0.000638 0.007211 -0.002182 0.000000 0.001432 0.000001
# 3 -0.000441 -0.002182 0.005864 -0.000003 0.001052 -0.000002
# 4 -0.000001 0.000000 -0.000003 0.018700 -0.000002 -0.001212
# 5 0.002737 0.001432 0.001052 -0.000002 0.019422 -0.000001
# 6 -0.000002 0.000001 -0.000002 -0.001212 -0.000001 0.032327
#
#
# Mechanical properties :
#
#
# Convention : Reuss Voigt Hill
#
# Bulk Modulus (GPa) = 51.17667 69.70726 60.44196
# Shear Modulus (GPa) = 45.64281 51.39708 48.51995
#
# Velocity S-wave (km/s) = 4.18659 4.44267 4.31653
# Velocity P-wave (km/s) = 6.55917 7.28595 6.93209
#
# Compressibility (1/GPa) = 0.01954015
#
# Stress axis : x y z
#
# Youngs Moduli (GPa) = 77.00214 138.67060 170.52478
#
# Poissons Ratio (x) = 0.08852 0.07521
# Poissons Ratio (y) = 0.04916 0.37202
# Poissons Ratio (z) = 0.03396 0.30253
#
# Static dielectric constant tensor:
#      x y z
#    x 2.235290 0.000000 0.083090 
#    y 0.000000 2.023540 0.000000 
#    z 0.083090 0.000000 2.091890 
# 
# From -- ./inp_files/317577.got.cif
#   From: 2010.05.17/outbox.cif.g08.bks.cpg/sg15_159_cif.got.tgz:317577.got - 2010.06.03 18:47:42.
