data_PCOD9299275
_publ_section_title
;
Structure prediction by ZEFSAII (Michael W. Deem and Ramdas Pophale) SiO2 
 PCOD9299275
Probable space group: C 2/C
;
_chemical_formula_sum "Si O2"
_cell_formula_units_Z 36
_cell_length_a 10.099471
_cell_length_b 18.880459
_cell_length_c 18.779483
_cell_angle_alpha 90.000000
_cell_angle_beta 153.559130
_cell_angle_gamma 90.000000
_cell_volume 1594.491232
_symmetry_space_group_name_H-M "C 2/C"
_symmetry_group_IT_number 15
_symmetry_cell_setting 'monoclinic'
loop_
_space_group_symop_operation_xyz
x,y,z
-x,y,1/2-z
-x,-y,-z
x,-y,1/2+z
1/2+x,1/2+y,z
1/2-x,1/2+y,1/2-z
1/2-x,1/2-y,-z
1/2+x,1/2-y,1/2+z
loop_
_atom_site_type_symbol
_atom_site_label
_atom_site_fract_x
_atom_site_fract_y
_atom_site_fract_z
Si Si1 0.000000 0.360828 0.250000
Si Si2 0.413556 0.719340 0.846610
Si Si3 0.701764 0.636255 0.277311
Si Si4 0.149467 0.911554 0.388436
Si Si5 0.117170 0.966451 0.983089
O O1 0.722424 0.314879 0.146219
O O2 0.120143 0.412590 0.369633
O O3 0.211189 0.788494 0.740412
O O4 0.425796 0.652703 0.799707
O O5 0.750000 0.750000 0.000000
O O6 0.500000 0.639159 0.250000
O O7 0.608421 0.578404 0.174160
O O8 0.026842 0.620840 0.465835
O O9 0.000000 0.950104 0.250000
O O10 0.195923 0.966085 0.474133
O O11 0.000000 0.000000 0.000000
#
# Coordination Sequence:
#
# PCOD9299275 Si02
#       5
#     4   8   8   8   8
#     4  12  24  46  76 106 148 196 246 302 376 440
#     4  10  24  48  72 106 145 192 244 305 369 438
#     4  11  26  45  74 106 141 188 247 298 365 437
#     4  11  26  48  71 104 148 192 240 301 369 438
#     4  12  26  45  74 107 147 190 244 300 372 444
#
# _framework density 22.577734
#
# number of rings (size 3 to 8) (size 9 to 14) (size 15 to 20)
#    0.000    0.889    3.333    2.000    3.111    6.222 
#    0.000    0.000    0.000    0.000    0.000    0.000 
#    0.000    0.000    0.000    0.000    0.000    0.000 
#
# Total GULP energy -100458.302569 kJ/mol
# GULP energy per Si atom -5581.016809 kJ/mol
# Density = 2.252635 g / cm^3
# Si number density = 22.577734 Si / 1000 Ang^3
#
#
#
# Elastic Constant Matrix: (Units=GPa)
#
#
# Indices 1 2 3 4 5 6 
#
# 1 138.1382 54.7629 57.7379 -0.0029 22.5586 0.0003
# 2 54.7629 120.3978 32.4361 0.0059 17.9532 -0.0050
# 3 57.7379 32.4361 94.7944 -0.0035 -3.0550 -0.0292
# 4 -0.0029 0.0059 -0.0035 26.7849 -0.0031 7.1509
# 5 22.5586 17.9532 -3.0550 -0.0031 27.7828 -0.0083
# 6 0.0003 -0.0050 -0.0292 7.1509 -0.0083 9.0327
#
#
#
# Elastic Compliance Matrix: (Units=1/GPa)
#
#
# Indices 1 2 3 4 5 6 
#
# 1 0.012825 -0.002431 -0.007290 0.000011 -0.009644 -0.000043
# 2 -0.002431 0.010849 -0.002402 -0.000002 -0.005301 -0.000005
# 3 -0.007290 -0.002402 0.016110 -0.000016 0.009243 0.000073
# 4 0.000011 -0.000002 -0.000016 0.047340 -0.000015 -0.037478
# 5 -0.009644 -0.005301 0.009243 -0.000015 0.048266 0.000084
# 6 -0.000043 -0.000005 0.000073 -0.037478 0.000084 0.140379
#
#
# Mechanical properties :
#
#
# Convention : Reuss Voigt Hill
#
# Bulk Modulus (GPa) = 64.36731 71.46713 67.91722
# Shear Modulus (GPa) = 16.38293 26.61299 21.49796
#
# Velocity S-wave (km/s) = 2.69666 3.43698 3.08908
# Velocity P-wave (km/s) = 6.18604 6.89007 6.54752
#
# Compressibility (1/GPa) = 0.01553584
#
# Stress axis : x y z
#
# Youngs Moduli (GPa) = 77.97190 92.17174 62.07483
#
# Poissons Ratio (x) = 0.22410 0.45256
# Poissons Ratio (y) = 0.18957 0.14912
# Poissons Ratio (z) = 0.56845 0.22142
#
# Static dielectric constant tensor:
#      x y z
#    x 1.851900 -0.000020 0.044930 
#    y -0.000020 1.857680 -0.000030 
#    z 0.044930 -0.000030 1.863040 
# 
# From -- ./inp_files/192658.got.cif
#   From: 2010.05.17/outbox.cif.g08.bks.cpg/sg15_97_cif.got.tgz:192658.got - 2010.06.03 18:47:42.
