data_PCOD9299589
_publ_section_title
;
Structure prediction by ZEFSAII (Michael W. Deem and Ramdas Pophale) SiO2 
 PCOD9299589
Probable space group: C 2/C
;
_chemical_formula_sum "Si O2"
_cell_formula_units_Z 32
_cell_length_a 13.528827
_cell_length_b 7.323187
_cell_length_c 17.881501
_cell_angle_alpha 90.000000
_cell_angle_beta 136.423434
_cell_angle_gamma 90.000000
_cell_volume 1221.201128
_symmetry_space_group_name_H-M "C 2/C"
_symmetry_group_IT_number 15
_symmetry_cell_setting 'monoclinic'
loop_
_space_group_symop_operation_xyz
x,y,z
-x,y,1/2-z
-x,-y,-z
x,-y,1/2+z
1/2+x,1/2+y,z
1/2-x,1/2+y,1/2-z
1/2-x,1/2-y,-z
1/2+x,1/2-y,1/2+z
loop_
_atom_site_type_symbol
_atom_site_label
_atom_site_fract_x
_atom_site_fract_y
_atom_site_fract_z
Si Si1 0.274909 0.222050 0.715659
Si Si2 0.212708 0.555592 0.394449
Si Si3 0.785587 0.985421 0.094659
Si Si4 0.020911 0.025812 0.109402
O O1 0.244254 0.386970 0.640536
O O2 0.127424 0.145456 0.667720
O O3 0.378823 0.297343 0.836540
O O4 0.348832 0.063317 0.706347
O O5 0.197692 0.771105 0.380378
O O6 0.181970 0.500031 0.464080
O O7 0.383641 0.505487 0.481845
O O8 0.937027 0.044898 0.142129
#
# Coordination Sequence:
#
# PCOD9299589 Si02
#       4
#     8   8   8   8
#     4  12  23  45  68 100 141 176 227 286 344 405
#     4   9  22  48  70  97 138 183 227 285 343 407
#     4   9  22  48  68  97 135 182 232 280 344 410
#     4  10  25  44  63 108 134 174 240 272 338 426
#
# _framework density 26.203710999999998
#
# number of rings (size 3 to 8) (size 9 to 14) (size 15 to 20)
#    1.500    0.500    0.000    2.250    3.500    1.000 
#   13.500    0.000    0.000    0.000    0.000    0.000 
#    0.000    0.000    0.000    0.000    0.000    0.000 
#
# Total GULP energy -89436.041507 kJ/mol
# GULP energy per Si atom -5589.752594 kJ/mol
# Density = 2.614407 g / cm^3
# Si number density = 26.203711 Si / 1000 Ang^3
#
#
#
# Elastic Constant Matrix: (Units=GPa)
#
#
# Indices 1 2 3 4 5 6 
#
# 1 48.9751 -0.3365 18.7012 0.0000 -1.8286 0.0000
# 2 -0.3365 110.3352 29.9127 0.0000 -7.7313 0.0000
# 3 18.7012 29.9127 90.1608 0.0000 -5.1532 0.0000
# 4 0.0000 0.0000 0.0000 46.8225 0.0000 -11.1661
# 5 -1.8286 -7.7313 -5.1532 0.0000 40.3158 0.0000
# 6 0.0000 0.0000 0.0000 -11.1661 0.0000 63.9941
#
#
#
# Elastic Compliance Matrix: (Units=1/GPa)
#
#
# Indices 1 2 3 4 5 6 
#
# 1 0.022403 0.001498 -0.005107 0.000000 0.000651 0.000000
# 2 0.001498 0.010150 -0.003589 0.000000 0.001556 0.000000
# 3 -0.005107 -0.003589 0.013387 0.000000 0.000791 0.000000
# 4 0.000000 0.000000 0.000000 0.022285 0.000000 0.003888
# 5 0.000651 0.001556 0.000791 0.000000 0.025233 0.000000
# 6 0.000000 0.000000 0.000000 0.003888 0.000000 0.016305
#
#
# Mechanical properties :
#
#
# Convention : Reuss Voigt Hill
#
# Bulk Modulus (GPa) = 31.70148 38.44732 35.07440
# Shear Modulus (GPa) = 37.12707 43.63940 40.38323
#
# Velocity S-wave (km/s) = 3.76821 4.08535 3.92998
# Velocity P-wave (km/s) = 5.57287 6.07929 5.83158
#
# Compressibility (1/GPa) = 0.03154427
#
# Stress axis : x y z
#
# Youngs Moduli (GPa) = 44.63647 98.52252 74.70143
#
# Poissons Ratio (x) = -0.14763 0.38149
# Poissons Ratio (y) = -0.06688 0.26813
# Poissons Ratio (z) = 0.22795 0.35363
#
# Static dielectric constant tensor:
#      x y z
#    x 2.155580 0.000000 -0.106320 
#    y 0.000000 2.012120 0.000000 
#    z -0.106320 0.000000 2.159760 
# 
# From -- ./inp_files/275770.got.cif
#   From: 2010.05.17/outbox.cif.g08.bks.cpg/sg15_138_cif.got.tgz:275770.got - 2010.06.03 18:47:42.
