data_PCOD9299482
_publ_section_title
;
Structure prediction by ZEFSAII (Michael W. Deem and Ramdas Pophale) SiO2 
 PCOD9299482
Probable space group: C 2/C
;
_chemical_formula_sum "Si O2"
_cell_formula_units_Z 44
_cell_length_a 18.717307
_cell_length_b 11.219824
_cell_length_c 9.311294
_cell_angle_alpha 90.000000
_cell_angle_beta 110.807886
_cell_angle_gamma 90.000000
_cell_volume 1827.878687
_symmetry_space_group_name_H-M "C 2/C"
_symmetry_group_IT_number 15
_symmetry_cell_setting 'monoclinic'
loop_
_space_group_symop_operation_xyz
x,y,z
-x,y,1/2-z
-x,-y,-z
x,-y,1/2+z
1/2+x,1/2+y,z
1/2-x,1/2+y,1/2-z
1/2-x,1/2-y,-z
1/2+x,1/2-y,1/2+z
loop_
_atom_site_type_symbol
_atom_site_label
_atom_site_fract_x
_atom_site_fract_y
_atom_site_fract_z
Si Si1 0.500000 0.785970 0.250000
Si Si2 0.919241 0.483378 0.021076
Si Si3 0.634670 0.648017 0.677058
Si Si4 0.331283 0.482970 0.037834
Si Si5 0.529193 0.364531 0.498438
Si Si6 0.170700 0.607522 0.312434
O O1 0.435061 0.870097 0.134660
O O2 0.464684 0.705415 0.349457
O O3 0.892153 0.588603 0.106651
O O4 0.858725 0.457734 0.852693
O O5 0.000000 0.500000 0.000000
O O6 0.647818 0.608143 0.522229
O O7 0.546321 0.687894 0.632024
O O8 0.683252 0.756647 0.772559
O O9 0.655705 0.529917 0.783168
O O10 0.391751 0.383383 0.025177
O O11 0.246863 0.449643 0.930232
O O12 0.500000 0.500000 0.500000
#
# Coordination Sequence:
#
# PCOD9299482 Si02
#       6
#     4   8   8   8   8   8
#     4  12  24  46  72 106 138 186 244 294 342 418
#     4  12  26  46  73 105 139 188 244 289 351 431
#     4  11  25  45  71 103 142 194 234 299 354 427
#     4  11  26  44  69 105 148 183 239 291 364 430
#     4  10  25  41  71  99 138 182 243 276 351 423
#     4  12  26  47  71 108 145 185 239 301 364 418
#
# _framework density 24.071618000000001
#
# number of rings (size 3 to 8) (size 9 to 14) (size 15 to 20)
#    0.000    0.727    3.636    2.182   12.727    2.909 
#    0.000    2.727    0.000    0.000    0.000    0.000 
#    0.000    0.000    0.000    0.000    0.000    0.000 
#
# Total GULP energy -123108.573991 kJ/mol
# GULP energy per Si atom -5595.844272 kJ/mol
# Density = 2.401683 g / cm^3
# Si number density = 24.071618 Si / 1000 Ang^3
#
#
#
# Elastic Constant Matrix: (Units=GPa)
#
#
# Indices 1 2 3 4 5 6 
#
# 1 76.7857 2.3703 14.7988 0.0000 16.7579 0.0000
# 2 2.3703 79.2497 19.8128 0.0000 -13.4331 0.0000
# 3 14.7988 19.8128 135.7913 0.0000 11.0756 0.0000
# 4 0.0000 0.0000 0.0000 57.9201 0.0000 -6.9731
# 5 16.7579 -13.4331 11.0756 0.0000 40.7336 0.0000
# 6 0.0000 0.0000 0.0000 -6.9731 0.0000 22.6608
#
#
#
# Elastic Compliance Matrix: (Units=1/GPa)
#
#
# Indices 1 2 3 4 5 6 
#
# 1 0.014582 -0.001256 -0.000903 0.000000 -0.006168 0.000000
# 2 -0.001256 0.014258 -0.002423 0.000000 0.005877 0.000000
# 3 -0.000903 -0.002423 0.008029 0.000000 -0.002611 0.000000
# 4 0.000000 0.000000 0.000000 0.017929 0.000000 0.005517
# 5 -0.006168 0.005877 -0.002611 0.000000 0.029735 0.000000
# 6 0.000000 0.000000 0.000000 0.005517 0.000000 0.045827
#
#
# Mechanical properties :
#
#
# Convention : Reuss Voigt Hill
#
# Bulk Modulus (GPa) = 36.09339 40.64337 38.36838
# Shear Modulus (GPa) = 33.61142 41.25255 37.43198
#
# Velocity S-wave (km/s) = 3.74078 4.14423 3.94766
# Velocity P-wave (km/s) = 5.80384 6.31035 6.06239
#
# Compressibility (1/GPa) = 0.02770590
#
# Stress axis : x y z
#
# Youngs Moduli (GPa) = 68.57715 70.13679 124.54724
#
# Poissons Ratio (x) = 0.08808 0.11245
# Poissons Ratio (y) = 0.08612 0.30176
# Poissons Ratio (z) = 0.06192 0.16993
#
# Static dielectric constant tensor:
#      x y z
#    x 1.964850 0.000000 -0.023370 
#    y 0.000000 1.944330 0.000000 
#    z -0.023370 0.000000 1.929370 
# 
# From -- ./inp_files/54526.got.cif
#   From: 2010.05.17/outbox.cif.g08.bks.cpg/sg15_28_cif.got.tgz:54526.got - 2010.06.03 18:47:42.
