data_PCOD9299665
_publ_section_title
;
Structure prediction by ZEFSAII (Michael W. Deem and Ramdas Pophale) SiO2 
 PCOD9299665
Probable space group: C 2/C
;
_chemical_formula_sum "Si O2"
_cell_formula_units_Z 56
_cell_length_a 19.229570
_cell_length_b 17.141401
_cell_length_c 11.909285
_cell_angle_alpha 90.000000
_cell_angle_beta 145.346355
_cell_angle_gamma 90.000000
_cell_volume 2232.128871
_symmetry_space_group_name_H-M "C 2/C"
_symmetry_group_IT_number 15
_symmetry_cell_setting 'monoclinic'
loop_
_space_group_symop_operation_xyz
x,y,z
-x,y,1/2-z
-x,-y,-z
x,-y,1/2+z
1/2+x,1/2+y,z
1/2-x,1/2+y,1/2-z
1/2-x,1/2-y,-z
1/2+x,1/2-y,1/2+z
loop_
_atom_site_type_symbol
_atom_site_label
_atom_site_fract_x
_atom_site_fract_y
_atom_site_fract_z
Si Si1 0.460628 0.372651 0.358093
Si Si2 0.241820 0.582651 0.163137
Si Si3 0.033347 0.297553 0.979295
Si Si4 0.262182 0.864702 0.592321
Si Si5 0.995209 0.054765 0.370927
Si Si6 0.618223 0.205554 0.842897
Si Si7 0.367962 0.933338 0.532952
O O1 0.541717 0.295434 0.481700
O O2 0.638047 0.341088 0.363618
O O3 0.507885 0.459819 0.386155
O O4 0.416245 0.397468 0.425935
O O5 0.259123 0.619354 0.307406
O O6 0.364258 0.573481 0.252517
O O7 0.151823 0.633524 0.967770
O O8 0.185807 0.498567 0.117054
O O9 0.115696 0.348899 0.003581
O O10 0.891577 0.319025 0.764980
O O11 0.071591 0.317524 0.157083
O O12 0.291042 0.935299 0.545498
O O13 0.000000 0.080174 0.250000
O O14 0.500000 0.244170 0.750000
O O15 0.750000 0.250000 0.000000
O O16 0.500000 0.957384 0.750000
#
# Coordination Sequence:
#
# PCOD9299665 Si02
#       7
#     8   8   8   8   8   8   8
#     4  11  26  48  76 111 163 207 275 340 417 507
#     4  12  26  50  78 113 159 212 279 346 415 507
#     4  11  26  50  76 119 160 212 275 347 424 504
#     4  11  25  47  76 110 160 210 268 339 425 492
#     4  11  28  50  79 115 154 222 275 347 418 504
#     4  12  28  54  82 123 168 224 284 354 430 512
#     4  10  25  44  76 114 146 207 262 337 417 490
#
# _framework density 25.088156999999999
#
# number of rings (size 3 to 8) (size 9 to 14) (size 15 to 20)
#    0.000    0.857    2.857    1.714    6.000    7.429 
#   10.286    0.000    0.000    0.000    0.000    0.000 
#    0.000    0.000    0.000    0.000    0.000    0.000 
#
# Total GULP energy -156281.042196 kJ/mol
# GULP energy per Si atom -5581.465793 kJ/mol
# Density = 2.503105 g / cm^3
# Si number density = 25.088157 Si / 1000 Ang^3
#
#
#
# Elastic Constant Matrix: (Units=GPa)
#
#
# Indices 1 2 3 4 5 6 
#
# 1 140.2260 42.1706 62.3493 0.0000 -24.9113 0.0000
# 2 42.1706 135.4540 70.2602 0.0000 -2.8966 0.0000
# 3 62.3493 70.2602 165.1835 0.0000 -49.0737 0.0000
# 4 0.0000 0.0000 0.0000 29.2942 0.0000 3.7822
# 5 -24.9113 -2.8966 -49.0737 0.0000 59.1921 0.0000
# 6 0.0000 0.0000 0.0000 3.7822 0.0000 3.5635
#
#
#
# Elastic Compliance Matrix: (Units=1/GPa)
#
#
# Indices 1 2 3 4 5 6 
#
# 1 0.008897 -0.001649 -0.002081 0.000000 0.001938 0.000000
# 2 -0.001649 0.010476 -0.005158 0.000000 -0.004457 0.000000
# 3 -0.002081 -0.005158 0.011540 0.000000 0.008439 0.000000
# 4 0.000000 0.000000 0.000000 0.039557 0.000000 -0.041984
# 5 0.001938 -0.004457 0.008439 0.000000 0.024489 0.000000
# 6 0.000000 0.000000 0.000000 -0.041984 0.000000 0.325182
#
#
# Mechanical properties :
#
#
# Convention : Reuss Voigt Hill
#
# Bulk Modulus (GPa) = 76.11522 87.82485 81.97004
# Shear Modulus (GPa) = 11.30467 36.14888 23.72678
#
# Velocity S-wave (km/s) = 2.12503 3.80000 3.07862
# Velocity P-wave (km/s) = 6.03539 7.37129 6.73654
#
# Compressibility (1/GPa) = 0.01313798
#
# Stress axis : x y z
#
# Youngs Moduli (GPa) = 112.39932 95.45668 86.65231
#
# Poissons Ratio (x) = 0.15741 0.18031
# Poissons Ratio (y) = 0.18535 0.44693
# Poissons Ratio (z) = 0.23389 0.49234
#
# Static dielectric constant tensor:
#      x y z
#    x 2.080370 0.000000 0.136020 
#    y 0.000000 1.956730 0.000000 
#    z 0.136020 0.000000 2.157280 
# 
# From -- ./inp_files/106750.got.cif
#   From: 2010.05.17/outbox.cif.g08.bks.cpg/sg15_54_cif.got.tgz:106750.got - 2010.06.03 18:47:42.
