data_PCOD9299937
_publ_section_title
;
Structure prediction by ZEFSAII (Michael W. Deem and Ramdas Pophale) SiO2 
 PCOD9299937
Probable space group: C 2/C
;
_chemical_formula_sum "Si O2"
_cell_formula_units_Z 40
_cell_length_a 26.801245
_cell_length_b 7.467630
_cell_length_c 8.687002
_cell_angle_alpha 90.000000
_cell_angle_beta 54.944459
_cell_angle_gamma 90.000000
_cell_volume 1423.236636
_symmetry_space_group_name_H-M "C 2/C"
_symmetry_group_IT_number 15
_symmetry_cell_setting 'monoclinic'
loop_
_space_group_symop_operation_xyz
x,y,z
-x,y,1/2-z
-x,-y,-z
x,-y,1/2+z
1/2+x,1/2+y,z
1/2-x,1/2+y,1/2-z
1/2-x,1/2-y,-z
1/2+x,1/2-y,1/2+z
loop_
_atom_site_type_symbol
_atom_site_label
_atom_site_fract_x
_atom_site_fract_y
_atom_site_fract_z
Si Si1 0.572205 0.257068 0.809190
Si Si2 0.255301 0.024013 0.726817
Si Si3 0.750000 0.750000 0.000000
Si Si4 0.377572 0.896243 0.852410
Si Si5 0.884931 0.084724 0.591440
Si Si6 0.500000 0.972570 0.250000
O O1 0.576589 0.412197 0.923878
O O2 0.592364 0.348531 0.613141
O O3 0.508723 0.158827 0.881919
O O4 0.618640 0.090233 0.740277
O O5 0.255062 0.049714 0.911910
O O6 0.315537 0.126102 0.555843
O O7 0.185131 0.026979 0.795822
O O8 0.270574 0.822024 0.636124
O O9 0.386110 0.738282 0.717466
O O10 0.438082 0.915376 0.853707
#
# Coordination Sequence:
#
# PCOD9299937 Si02
#       6
#     8   8   4   8   8   4
#     4  10  26  49  74 116 154 208 269 330 397 487
#     4  12  27  50  77 128 158 218 262 349 415 509
#     4  12  32  48  84 118 178 206 276 330 434 494
#     4  10  25  48  78 110 162 206 268 332 398 491
#     4  12  25  46  78 115 158 206 262 340 412 473
#     4   8  24  54  68 120 146 218 278 316 400 476
#
# _framework density 28.104955
#
# number of rings (size 3 to 8) (size 9 to 14) (size 15 to 20)
#    1.200    0.000    0.000    4.200   11.200    4.000 
#    0.000    0.000    0.000    0.000    0.000    0.000 
#    0.000    0.000    0.000    0.000    0.000    0.000 
#
# Total GULP energy -111553.303148 kJ/mol
# GULP energy per Si atom -5577.665157 kJ/mol
# Density = 2.804099 g / cm^3
# Si number density = 28.104955 Si / 1000 Ang^3
#
#
#
# Elastic Constant Matrix: (Units=GPa)
#
#
# Indices 1 2 3 4 5 6 
#
# 1 126.2734 15.6953 12.9250 0.0000 4.8698 0.0000
# 2 15.6953 142.7139 34.7794 0.0000 28.8285 0.0000
# 3 12.9250 34.7794 99.1453 0.0000 -6.5481 0.0000
# 4 0.0000 0.0000 0.0000 49.3827 0.0000 10.5344
# 5 4.8698 28.8285 -6.5481 0.0000 40.7999 0.0000
# 6 0.0000 0.0000 0.0000 10.5344 0.0000 51.3514
#
#
#
# Elastic Compliance Matrix: (Units=1/GPa)
#
#
# Indices 1 2 3 4 5 6 
#
# 1 0.008107 -0.000514 -0.000926 0.000000 -0.000753 0.000000
# 2 -0.000514 0.009421 -0.003713 0.000000 -0.007191 0.000000
# 3 -0.000926 -0.003713 0.011815 0.000000 0.004630 0.000000
# 4 0.000000 0.000000 0.000000 0.021177 0.000000 -0.004344
# 5 -0.000753 -0.007191 0.004630 0.000000 0.030424 0.000000
# 6 0.000000 0.000000 0.000000 -0.004344 0.000000 0.020365
#
#
# Mechanical properties :
#
#
# Convention : Reuss Voigt Hill
#
# Bulk Modulus (GPa) = 52.52796 54.99246 53.76021
# Shear Modulus (GPa) = 42.38707 48.62234 45.50470
#
# Velocity S-wave (km/s) = 3.88773 4.16387 4.02817
# Velocity P-wave (km/s) = 6.23563 6.53654 6.38786
#
# Compressibility (1/GPa) = 0.01903748
#
# Stress axis : x y z
#
# Youngs Moduli (GPa) = 123.34947 106.14612 84.63668
#
# Poissons Ratio (x) = 0.05452 0.07841
# Poissons Ratio (y) = 0.06336 0.31424
# Poissons Ratio (z) = 0.11428 0.39410
#
# Static dielectric constant tensor:
#      x y z
#    x 2.300510 0.000000 -0.095420 
#    y 0.000000 2.391960 0.000000 
#    z -0.095420 0.000000 2.233990 
# 
# From -- ./inp_files/68157.got.cif
#   From: 2010.05.17/outbox.cif.g08.bks.cpg/sg15_35_cif.got.tgz:68157.got - 2010.06.03 18:47:42.
