data_PCOD9299372
_publ_section_title
;
Structure prediction by ZEFSAII (Michael W. Deem and Ramdas Pophale) SiO2 
 PCOD9299372
Probable space group: C 2/C
;
_chemical_formula_sum "Si O2"
_cell_formula_units_Z 24
_cell_length_a 20.464269
_cell_length_b 4.594229
_cell_length_c 21.496493
_cell_angle_alpha 90.000000
_cell_angle_beta 154.561423
_cell_angle_gamma 90.000000
_cell_volume 868.127243
_symmetry_space_group_name_H-M "C 2/C"
_symmetry_group_IT_number 15
_symmetry_cell_setting 'monoclinic'
loop_
_space_group_symop_operation_xyz
x,y,z
-x,y,1/2-z
-x,-y,-z
x,-y,1/2+z
1/2+x,1/2+y,z
1/2-x,1/2+y,1/2-z
1/2-x,1/2-y,-z
1/2+x,1/2-y,1/2+z
loop_
_atom_site_type_symbol
_atom_site_label
_atom_site_fract_x
_atom_site_fract_y
_atom_site_fract_z
Si Si1 0.500000 0.202154 0.250000
Si Si2 0.250000 0.750000 0.000000
Si Si3 0.901431 0.692132 0.041224
Si Si4 0.776781 0.403258 0.727704
O O1 0.450805 0.382255 0.145962
O O2 0.639633 0.978948 0.364675
O O3 0.214228 0.544870 0.031150
O O4 0.054628 0.529217 0.151535
O O5 0.834335 0.858475 0.925535
O O6 0.708372 0.607010 0.721250
#
# Coordination Sequence:
#
# PCOD9299372 Si02
#       4
#     4   4   8   8
#     4   8  20  44  78 116 148 202 246 348 380 454
#     4   8  20  46  78 114 146 198 248 340 386 440
#     4  10  24  49  77 117 156 197 276 313 404 457
#     4  12  28  50  78 115 162 216 255 314 381 482
#
# _framework density 27.645714999999999
#
# number of rings (size 3 to 8) (size 9 to 14) (size 15 to 20)
#    2.000    0.000    0.000    2.000    4.667    1.333 
#    6.000    0.000    0.000    0.000    0.000    0.000 
#    0.000    0.000    0.000    0.000    0.000    0.000 
#
# Total GULP energy -66823.202939 kJ/mol
# GULP energy per Si atom -5568.600245 kJ/mol
# Density = 2.758279 g / cm^3
# Si number density = 27.645715 Si / 1000 Ang^3
#
#
#
# Elastic Constant Matrix: (Units=GPa)
#
#
# Indices 1 2 3 4 5 6 
#
# 1 161.3527 55.3576 71.6701 0.0019 -33.8477 0.0001
# 2 55.3576 130.6461 37.9980 0.0045 -28.6563 0.0085
# 3 71.6701 37.9980 212.6530 0.0012 -40.8168 0.0022
# 4 0.0019 0.0045 0.0012 28.8314 -0.0002 -16.6998
# 5 -33.8477 -28.6563 -40.8168 -0.0002 72.8823 0.0005
# 6 0.0001 0.0085 0.0022 -16.6998 0.0005 50.7130
#
#
#
# Elastic Compliance Matrix: (Units=1/GPa)
#
#
# Indices 1 2 3 4 5 6 
#
# 1 0.008338 -0.002566 -0.002019 0.000000 0.001733 0.000001
# 2 -0.002566 0.009348 -0.000368 -0.000003 0.002278 -0.000002
# 3 -0.002019 -0.000368 0.005872 0.000000 0.002206 0.000000
# 4 0.000000 -0.000003 0.000000 0.042859 -0.000001 0.014114
# 5 0.001733 0.002278 0.002206 -0.000001 0.016657 -0.000001
# 6 0.000001 -0.000002 0.000000 0.014114 -0.000001 0.024366
#
#
# Mechanical properties :
#
#
# Convention : Reuss Voigt Hill
#
# Bulk Modulus (GPa) = 73.24977 92.74479 82.99728
# Shear Modulus (GPa) = 41.01779 53.12710 47.07244
#
# Velocity S-wave (km/s) = 3.85605 4.38849 4.13086
# Velocity P-wave (km/s) = 6.81021 7.70058 7.26904
#
# Compressibility (1/GPa) = 0.01365192
#
# Stress axis : x y z
#
# Youngs Moduli (GPa) = 119.92928 106.97258 170.29126
#
# Poissons Ratio (x) = 0.27447 0.34385
# Poissons Ratio (y) = 0.30771 0.06275
# Poissons Ratio (z) = 0.24216 0.03942
#
# Static dielectric constant tensor:
#      x y z
#    x 2.043990 0.000010 -0.166860 
#    y 0.000010 1.614020 0.000010 
#    z -0.166860 0.000010 1.799660 
# 
# From -- ./inp_files/53096.got.cif
#   From: 2010.05.17/outbox.cif.g08.bks.cpg/sg15_27_cif.got.tgz:53096.got - 2010.06.03 18:47:42.
