data_PCOD9299280
_publ_section_title
;
Structure prediction by ZEFSAII (Michael W. Deem and Ramdas Pophale) SiO2 
 PCOD9299280
Probable space group: C 2/C
;
_chemical_formula_sum "Si O2"
_cell_formula_units_Z 48
_cell_length_a 23.317293
_cell_length_b 9.175078
_cell_length_c 10.449644
_cell_angle_alpha 90.000000
_cell_angle_beta 108.568822
_cell_angle_gamma 90.000000
_cell_volume 2119.195777
_symmetry_space_group_name_H-M "C 2/C"
_symmetry_group_IT_number 15
_symmetry_cell_setting 'monoclinic'
loop_
_space_group_symop_operation_xyz
x,y,z
-x,y,1/2-z
-x,-y,-z
x,-y,1/2+z
1/2+x,1/2+y,z
1/2-x,1/2+y,1/2-z
1/2-x,1/2-y,-z
1/2+x,1/2-y,1/2+z
loop_
_atom_site_type_symbol
_atom_site_label
_atom_site_fract_x
_atom_site_fract_y
_atom_site_fract_z
Si Si1 0.581714 0.741753 0.201683
Si Si2 0.809079 0.344667 0.079666
Si Si3 0.500000 0.005781 0.750000
Si Si4 0.583831 0.246248 0.415396
Si Si5 0.000000 0.007772 0.750000
Si Si6 0.794840 0.205138 0.645752
Si Si7 0.279560 0.033586 0.309409
O O1 0.541558 0.599185 0.195722
O O2 0.633236 0.747532 0.346441
O O3 0.539968 0.885074 0.192207
O O4 0.607534 0.747887 0.077032
O O5 0.800307 0.440645 0.201412
O O6 0.724191 0.193670 0.250388
O O7 0.750000 0.250000 0.000000
O O8 0.820422 0.449852 0.965454
O O9 0.455163 0.898268 0.641461
O O10 0.540209 0.384667 0.364094
O O11 0.637915 0.264027 0.352759
O O12 0.750000 0.250000 0.500000
O O13 0.781155 0.041043 0.680123
#
# Coordination Sequence:
#
# PCOD9299280 Si02
#       7
#     8   8   4   8   4   8   8
#     4  11  25  47  76 105 152 189 249 301 373 433
#     4  12  27  46  74 112 149 188 247 304 372 441
#     4  10  24  48  72 110 140 198 248 308 360 434
#     4  11  25  47  76 108 146 194 246 308 363 441
#     4  10  26  50  72 110 140 198 246 306 362 436
#     4  12  26  44  73 107 149 190 243 302 369 440
#     4  12  26  47  69 110 145 193 239 295 374 436
#
# _framework density 22.650100999999999
#
# number of rings (size 3 to 8) (size 9 to 14) (size 15 to 20)
#    0.000    0.667    3.333    3.000    4.667    0.000 
#   15.000    0.000    0.000    0.000    0.000    0.000 
#    0.000    0.000    0.000    0.000    0.000    0.000 
#
# Total GULP energy -134271.108321 kJ/mol
# GULP energy per Si atom -5594.629513 kJ/mol
# Density = 2.259855 g / cm^3
# Si number density = 22.650101 Si / 1000 Ang^3
#
#
#
# Elastic Constant Matrix: (Units=GPa)
#
#
# Indices 1 2 3 4 5 6 
#
# 1 91.3020 54.3442 49.5553 0.0000 8.1735 0.0000
# 2 54.3442 137.7386 43.0024 0.0000 1.8857 0.0000
# 3 49.5553 43.0024 147.6582 0.0000 -11.0970 0.0000
# 4 0.0000 0.0000 0.0000 27.6435 0.0000 -3.1364
# 5 8.1735 1.8857 -11.0970 0.0000 40.9925 0.0000
# 6 0.0000 0.0000 0.0000 -3.1364 0.0000 29.3343
#
#
#
# Elastic Compliance Matrix: (Units=1/GPa)
#
#
# Indices 1 2 3 4 5 6 
#
# 1 0.016860 -0.005197 -0.004471 0.000000 -0.004333 0.000000
# 2 -0.005197 0.009630 -0.001037 0.000000 0.000313 0.000000
# 3 -0.004471 -0.001037 0.008825 0.000000 0.003328 0.000000
# 4 0.000000 0.000000 0.000000 0.036619 0.000000 0.003915
# 5 -0.004333 0.000313 0.003328 0.000000 0.026145 0.000000
# 6 0.000000 0.000000 0.000000 0.003915 0.000000 0.034508
#
#
# Mechanical properties :
#
#
# Convention : Reuss Voigt Hill
#
# Bulk Modulus (GPa) = 71.91060 74.50031 73.20545
# Shear Modulus (GPa) = 31.51937 34.91385 33.21661
#
# Velocity S-wave (km/s) = 3.73443 3.93038 3.83366
# Velocity P-wave (km/s) = 7.10014 7.31850 7.21015
#
# Compressibility (1/GPa) = 0.01390616
#
# Stress axis : x y z
#
# Youngs Moduli (GPa) = 59.31043 103.84121 113.31661
#
# Poissons Ratio (x) = 0.53968 0.50659
# Poissons Ratio (y) = 0.30825 0.11749
# Poissons Ratio (z) = 0.26515 0.10767
#
# Static dielectric constant tensor:
#      x y z
#    x 1.838750 0.000000 -0.007130 
#    y 0.000000 1.873730 0.000000 
#    z -0.007130 0.000000 1.842190 
# 
# From -- ./inp_files/116821.got.cif
#   From: 2010.05.17/outbox.cif.g08.bks.cpg/sg15_59_cif.got.tgz:116821.got - 2010.06.03 18:47:42.
