data_PCOD9299524
_publ_section_title
;
Structure prediction by ZEFSAII (Michael W. Deem and Ramdas Pophale) SiO2 
 PCOD9299524
Probable space group: C 2/C
;
_chemical_formula_sum "Si O2"
_cell_formula_units_Z 44
_cell_length_a 25.560686
_cell_length_b 10.116879
_cell_length_c 9.300509
_cell_angle_alpha 90.000000
_cell_angle_beta 135.266034
_cell_angle_gamma 90.000000
_cell_volume 1692.719065
_symmetry_space_group_name_H-M "C 2/C"
_symmetry_group_IT_number 15
_symmetry_cell_setting 'monoclinic'
loop_
_space_group_symop_operation_xyz
x,y,z
-x,y,1/2-z
-x,-y,-z
x,-y,1/2+z
1/2+x,1/2+y,z
1/2-x,1/2+y,1/2-z
1/2-x,1/2-y,-z
1/2+x,1/2-y,1/2+z
loop_
_atom_site_type_symbol
_atom_site_label
_atom_site_fract_x
_atom_site_fract_y
_atom_site_fract_z
Si Si1 0.593307 0.627071 0.172293
Si Si2 0.007846 0.362902 0.934137
Si Si3 0.151186 0.272884 0.819490
Si Si4 0.500000 0.472691 0.750000
Si Si5 0.765203 0.555563 0.527019
Si Si6 0.243556 0.758050 0.235130
O O1 0.555166 0.605222 0.252282
O O2 0.675229 0.565794 0.334325
O O3 0.581835 0.782259 0.115899
O O4 0.547829 0.558779 0.954953
O O5 0.936397 0.276245 0.841188
O O6 0.000000 0.385518 0.750000
O O7 0.000000 0.500000 0.000000
O O8 0.180594 0.211586 0.729288
O O9 0.187755 0.421073 0.891122
O O10 0.188697 0.206647 0.032601
O O11 0.786840 0.653519 0.438828
O O12 0.772205 0.618618 0.699275
#
# Coordination Sequence:
#
# PCOD9299524 Si02
#       6
#     8   8   8   4   8   8
#     4  11  26  48  73 108 145 196 252 314 378 455
#     4  12  30  48  75 106 158 199 252 305 384 463
#     4  11  26  46  73 108 143 193 245 305 373 438
#     4  10  26  44  76 104 144 192 250 318 386 446
#     4  11  25  43  75 103 147 186 252 303 369 441
#     4  10  25  42  71 101 145 189 238 307 366 441
#
# _framework density 25.993682
#
# number of rings (size 3 to 8) (size 9 to 14) (size 15 to 20)
#    0.000    1.091    0.909    2.182   19.091    2.909 
#    0.000    0.000    0.000    0.000    0.000    0.000 
#    0.000    0.000    0.000    0.000    0.000    0.000 
#
# Total GULP energy -123350.447547 kJ/mol
# GULP energy per Si atom -5606.838525 kJ/mol
# Density = 2.593452 g / cm^3
# Si number density = 25.993682 Si / 1000 Ang^3
#
#
#
# Elastic Constant Matrix: (Units=GPa)
#
#
# Indices 1 2 3 4 5 6 
#
# 1 150.8870 24.3425 73.7601 0.0000 -16.3716 0.0000
# 2 24.3425 112.4619 31.2441 0.0000 -18.2725 0.0000
# 3 73.7601 31.2441 148.6969 0.0000 -13.8971 0.0000
# 4 0.0000 0.0000 0.0000 25.9205 0.0000 7.5928
# 5 -16.3716 -18.2725 -13.8971 0.0000 63.0618 0.0000
# 6 0.0000 0.0000 0.0000 7.5928 0.0000 36.6089
#
#
#
# Elastic Compliance Matrix: (Units=1/GPa)
#
#
# Indices 1 2 3 4 5 6 
#
# 1 0.008894 -0.000565 -0.004179 0.000000 0.001224 0.000000
# 2 -0.000565 0.009832 -0.001565 0.000000 0.002357 0.000000
# 3 -0.004179 -0.001565 0.009172 0.000000 0.000483 0.000000
# 4 0.000000 0.000000 0.000000 0.041075 0.000000 -0.008519
# 5 0.001224 0.002357 0.000483 0.000000 0.016965 0.000000
# 6 0.000000 0.000000 0.000000 -0.008519 0.000000 0.029083
#
#
# Mechanical properties :
#
#
# Convention : Reuss Voigt Hill
#
# Bulk Modulus (GPa) = 65.44573 74.52657 69.98615
# Shear Modulus (GPa) = 37.66977 43.96485 40.81731
#
# Velocity S-wave (km/s) = 3.81095 4.11708 3.96697
# Velocity P-wave (km/s) = 6.67808 7.16476 6.92569
#
# Compressibility (1/GPa) = 0.01527983
#
# Stress axis : x y z
#
# Youngs Moduli (GPa) = 112.43196 101.70773 109.02832
#
# Poissons Ratio (x) = 0.05750 0.45560
# Poissons Ratio (y) = 0.06356 0.17065
# Poissons Ratio (z) = 0.46982 0.15919
#
# Static dielectric constant tensor:
#      x y z
#    x 2.004030 0.000000 0.046390 
#    y 0.000000 2.131740 0.000000 
#    z 0.046390 0.000000 2.000250 
# 
# From -- ./inp_files/65643.got.cif
#   From: 2010.05.17/outbox.cif.g08.bks.cpg/sg15_33_cif.got.tgz:65643.got - 2010.06.03 18:47:42.
