data_PCOD9299588
_publ_section_title
;
Structure prediction by ZEFSAII (Michael W. Deem and Ramdas Pophale) SiO2 
 PCOD9299588
Probable space group: C 2/C
;
_chemical_formula_sum "Si O2"
_cell_formula_units_Z 60
_cell_length_a 22.494639
_cell_length_b 15.093092
_cell_length_c 9.564183
_cell_angle_alpha 90.000000
_cell_angle_beta 113.347606
_cell_angle_gamma 90.000000
_cell_volume 2981.283996
_symmetry_space_group_name_H-M "C 2/C"
_symmetry_group_IT_number 15
_symmetry_cell_setting 'monoclinic'
loop_
_space_group_symop_operation_xyz
x,y,z
-x,y,1/2-z
-x,-y,-z
x,-y,1/2+z
1/2+x,1/2+y,z
1/2-x,1/2+y,1/2-z
1/2-x,1/2-y,-z
1/2+x,1/2-y,1/2+z
loop_
_atom_site_type_symbol
_atom_site_label
_atom_site_fract_x
_atom_site_fract_y
_atom_site_fract_z
Si Si1 0.657949 0.898938 0.629661
Si Si2 0.558396 0.681264 0.210549
Si Si3 0.183084 0.709524 0.883806
Si Si4 0.500000 0.493767 0.750000
Si Si5 0.583252 0.348395 0.431497
Si Si6 0.735060 0.652139 0.048289
Si Si7 0.071488 0.674627 0.279004
Si Si8 0.322783 0.900004 0.403647
O O1 0.662184 0.864584 0.476229
O O2 0.720319 0.865316 0.775820
O O3 0.597003 0.858298 0.654513
O O4 0.656918 0.004609 0.633138
O O5 0.500000 0.719972 0.250000
O O6 0.626877 0.716568 0.327367
O O7 0.546745 0.575399 0.213511
O O8 0.556178 0.700469 0.044053
O O9 0.189172 0.666054 0.736265
O O10 0.250000 0.750000 0.000000
O O11 0.454293 0.560040 0.622072
O O12 0.660321 0.360365 0.515033
O O13 0.573258 0.281361 0.293130
O O14 0.750000 0.750000 0.000000
O O15 0.759856 0.590315 0.944519
O O16 0.122432 0.638845 0.441880
O O17 0.000000 0.643555 0.250000
#
# Coordination Sequence:
#
# PCOD9299588 Si02
#       8
#     8   8   8   4   8   8   8   8
#     4  11  25  42  67 102 133 177 237 286 344 411
#     4  10  25  44  62  98 147 174 219 295 352 403
#     4  12  24  41  71 100 140 186 231 285 364 412
#     4  10  26  40  68 102 130 176 232 282 346 428
#     4  12  21  43  70  94 137 178 230 269 345 425
#     4  11  21  42  69  96 132 185 226 280 346 413
#     4  11  24  42  73  95 129 188 231 280 345 419
#     4  11  24  46  65 100 141 172 232 300 339 406
#
# _framework density 20.125554999999999
#
# number of rings (size 3 to 8) (size 9 to 14) (size 15 to 20)
#    0.400    0.533    4.667    3.600    1.867    3.733 
#    0.000    1.333    0.000    0.000    0.000    0.000 
#    0.000    0.000    0.000    0.000    0.000    0.000 
#
# Total GULP energy -167541.658556 kJ/mol
# GULP energy per Si atom -5584.721952 kJ/mol
# Density = 2.007975 g / cm^3
# Si number density = 20.125555 Si / 1000 Ang^3
#
#
#
# Elastic Constant Matrix: (Units=GPa)
#
#
# Indices 1 2 3 4 5 6 
#
# 1 127.9723 8.6828 32.6773 0.0000 -0.7235 0.0000
# 2 8.6828 82.8268 4.1082 0.0000 4.4027 0.0000
# 3 32.6773 4.1082 74.2613 0.0000 -10.0522 0.0000
# 4 0.0000 0.0000 0.0000 31.7995 0.0000 -4.5818
# 5 -0.7235 4.4027 -10.0522 0.0000 36.5399 0.0000
# 6 0.0000 0.0000 0.0000 -4.5818 0.0000 15.8639
#
#
#
# Elastic Compliance Matrix: (Units=1/GPa)
#
#
# Indices 1 2 3 4 5 6 
#
# 1 0.008872 -0.000688 -0.003979 0.000000 -0.000836 0.000000
# 2 -0.000688 0.012263 -0.000600 0.000000 -0.001656 0.000000
# 3 -0.003979 -0.000600 0.015839 0.000000 0.004351 0.000000
# 4 0.000000 0.000000 0.000000 0.032813 0.000000 0.009477
# 5 -0.000836 -0.001656 0.004351 0.000000 0.028747 0.000000
# 6 0.000000 0.000000 0.000000 0.009477 0.000000 0.065773
#
#
# Mechanical properties :
#
#
# Convention : Reuss Voigt Hill
#
# Bulk Modulus (GPa) = 37.82113 41.77743 39.79928
# Shear Modulus (GPa) = 27.22487 32.81347 30.01917
#
# Velocity S-wave (km/s) = 3.68197 4.04225 3.86631
# Velocity P-wave (km/s) = 6.07530 6.52609 6.30472
#
# Compressibility (1/GPa) = 0.02644024
#
# Stress axis : x y z
#
# Youngs Moduli (GPa) = 112.71128 81.54401 63.13516
#
# Poissons Ratio (x) = 0.05612 0.25122
# Poissons Ratio (y) = 0.07758 0.03786
# Poissons Ratio (z) = 0.44850 0.04890
#
# Static dielectric constant tensor:
#      x y z
#    x 1.736980 0.000000 -0.016440 
#    y 0.000000 1.717830 0.000000 
#    z -0.016440 0.000000 1.716050 
# 
# From -- ./inp_files/61956.got.cif
#   From: 2010.05.17/outbox.cif.g08.bks.cpg/sg15_31_cif.got.tgz:61956.got - 2010.06.03 18:47:42.
