data_PCOD9299491
_publ_section_title
;
Structure prediction by ZEFSAII (Michael W. Deem and Ramdas Pophale) SiO2 
 PCOD9299491
Probable space group: C 2/C
;
_chemical_formula_sum "Si O2"
_cell_formula_units_Z 28
_cell_length_a 9.134625
_cell_length_b 25.803478
_cell_length_c 9.615377
_cell_angle_alpha 90.000000
_cell_angle_beta 32.358458
_cell_angle_gamma 90.000000
_cell_volume 1213.006536
_symmetry_space_group_name_H-M "C 2/C"
_symmetry_group_IT_number 15
_symmetry_cell_setting 'monoclinic'
loop_
_space_group_symop_operation_xyz
x,y,z
-x,y,1/2-z
-x,-y,-z
x,-y,1/2+z
1/2+x,1/2+y,z
1/2-x,1/2+y,1/2-z
1/2-x,1/2-y,-z
1/2+x,1/2-y,1/2+z
loop_
_atom_site_type_symbol
_atom_site_label
_atom_site_fract_x
_atom_site_fract_y
_atom_site_fract_z
Si Si1 0.289980 0.690853 0.022726
Si Si2 0.000000 0.285267 0.250000
Si Si3 0.820890 0.465183 0.536707
Si Si4 0.749706 0.349212 0.656121
O O1 0.348744 0.685737 0.136532
O O2 0.000000 0.663258 0.250000
O O3 0.500000 0.665796 0.750000
O O4 0.250000 0.750000 0.000000
O O5 0.750000 0.250000 0.500000
O O6 0.015029 0.323022 0.371677
O O7 0.500000 0.479282 0.750000
O O8 0.801550 0.409759 0.631576
O O9 0.000000 0.500000 0.500000
O O10 0.000000 0.459895 0.250000
O O11 0.500000 0.348359 0.750000
#
# Coordination Sequence:
#
# PCOD9299491 Si02
#       4
#     8   4   8   8
#     4  10  25  42  63  96 146 188 233 294 364 424
#     4  12  26  38  70 106 144 190 250 298 362 428
#     4  11  25  49  79 114 150 197 254 326 394 462
#     4  11  26  47  74 106 145 197 258 306 368 462
#
# _framework density 23.08314
#
# number of rings (size 3 to 8) (size 9 to 14) (size 15 to 20)
#    0.000    1.143    2.857    0.857   12.000    1.143 
#    0.000    2.857    0.000    0.000    0.000    0.000 
#    0.000    0.000    0.000    0.000    0.000    0.000 
#
# Total GULP energy -78014.318395 kJ/mol
# GULP energy per Si atom -5572.451314 kJ/mol
# Density = 2.303060 g / cm^3
# Si number density = 23.083140 Si / 1000 Ang^3
#
#
#
# Elastic Constant Matrix: (Units=GPa)
#
#
# Indices 1 2 3 4 5 6 
#
# 1 125.9368 65.7300 65.7955 0.0000 8.3997 0.0000
# 2 65.7300 137.3753 34.8769 0.0000 4.4218 0.0000
# 3 65.7955 34.8769 226.3285 0.0000 -0.1784 0.0000
# 4 0.0000 0.0000 0.0000 14.6815 0.0000 0.2310
# 5 8.3997 4.4218 -0.1784 0.0000 54.7600 0.0000
# 6 0.0000 0.0000 0.0000 0.2310 0.0000 39.1348
#
#
#
# Elastic Compliance Matrix: (Units=1/GPa)
#
#
# Indices 1 2 3 4 5 6 
#
# 1 0.012106 -0.005049 -0.002742 0.000000 -0.001458 0.000000
# 2 -0.005049 0.009702 -0.000027 0.000000 -0.000009 0.000000
# 3 -0.002742 -0.000027 0.005220 0.000000 0.000440 0.000000
# 4 0.000000 0.000000 0.000000 0.068119 0.000000 -0.000402
# 5 -0.001458 -0.000009 0.000440 0.000000 0.018487 0.000000
# 6 0.000000 0.000000 0.000000 -0.000402 0.000000 0.025555
#
#
# Mechanical properties :
#
#
# Convention : Reuss Voigt Hill
#
# Bulk Modulus (GPa) = 87.79020 91.38284 89.58652
# Shear Modulus (GPa) = 31.52102 43.26448 37.39275
#
# Velocity S-wave (km/s) = 3.69933 4.33400 4.02918
# Velocity P-wave (km/s) = 7.50743 8.04483 7.78077
#
# Compressibility (1/GPa) = 0.01139079
#
# Stress axis : x y z
#
# Youngs Moduli (GPa) = 82.60555 103.06739 191.56611
#
# Poissons Ratio (x) = 0.52040 0.52534
# Poissons Ratio (y) = 0.41708 0.00523
# Poissons Ratio (z) = 0.22653 0.00282
#
# Static dielectric constant tensor:
#      x y z
#    x 1.071220 0.000000 -0.180630 
#    y 0.000000 1.906310 0.000000 
#    z -0.180630 0.000000 1.947750 
# 
# From -- ./inp_files/24200.got.cif
#   From: 2010.05.17/outbox.cif.g08.bks.cpg/sg15_13_cif.got.tgz:24200.got - 2010.06.03 18:47:42.
