data_PCOD9299898
_publ_section_title
;
Structure prediction by ZEFSAII (Michael W. Deem and Ramdas Pophale) SiO2 
 PCOD9299898
Probable space group: C 2/C
;
_chemical_formula_sum "Si O2"
_cell_formula_units_Z 40
_cell_length_a 5.550133
_cell_length_b 16.838402
_cell_length_c 17.729054
_cell_angle_alpha 90.000000
_cell_angle_beta 72.633223
_cell_angle_gamma 90.000000
_cell_volume 1581.344277
_symmetry_space_group_name_H-M "C 2/C"
_symmetry_group_IT_number 15
_symmetry_cell_setting 'monoclinic'
loop_
_space_group_symop_operation_xyz
x,y,z
-x,y,1/2-z
-x,-y,-z
x,-y,1/2+z
1/2+x,1/2+y,z
1/2-x,1/2+y,1/2-z
1/2-x,1/2-y,-z
1/2+x,1/2-y,1/2+z
loop_
_atom_site_type_symbol
_atom_site_label
_atom_site_fract_x
_atom_site_fract_y
_atom_site_fract_z
Si Si1 0.485259 0.202692 0.839906
Si Si2 0.430614 0.440311 0.940846
Si Si3 0.686639 0.565087 0.656738
Si Si4 0.213949 0.142819 0.297057
Si Si5 0.015569 0.806943 0.046196
O O1 0.500000 0.201023 0.750000
O O2 0.555304 0.112687 0.852416
O O3 0.689146 0.270522 0.838264
O O4 0.223129 0.236114 0.894752
O O5 0.252889 0.484910 0.896398
O O6 0.660554 0.423483 0.863592
O O7 0.395686 0.357275 0.987548
O O8 0.500000 0.500000 0.000000
O O9 0.500000 0.559466 0.750000
O O10 0.573751 0.626700 0.605093
O O11 0.500000 0.133529 0.250000
O O12 0.000000 0.136529 0.250000
O O13 0.250000 0.750000 0.000000
#
# Coordination Sequence:
#
# PCOD9299898 Si02
#       5
#     8   8   8   8   8
#     4  11  24  43  79 111 143 206 262 323 393 475
#     4  10  25  48  68 108 155 202 251 323 405 469
#     4  11  22  45  72 103 154 202 258 310 395 485
#     4  11  26  49  80 111 152 204 270 326 392 478
#     4  11  25  45  74 112 152 194 260 332 393 462
#
# _framework density 25.294936
#
# number of rings (size 3 to 8) (size 9 to 14) (size 15 to 20)
#    0.000    1.200    2.000    2.400    8.400    4.000 
#   18.000    0.000    0.000    0.000    0.000    0.000 
#    0.000    0.000    0.000    0.000    0.000    0.000 
#
# Total GULP energy -111418.787190 kJ/mol
# GULP energy per Si atom -5570.939359 kJ/mol
# Density = 2.523736 g / cm^3
# Si number density = 25.294936 Si / 1000 Ang^3
#
#
#
# Elastic Constant Matrix: (Units=GPa)
#
#
# Indices 1 2 3 4 5 6 
#
# 1 109.6105 26.1799 71.5808 0.0000 -28.1754 0.0000
# 2 26.1799 91.0909 63.4154 0.0000 8.2198 0.0000
# 3 71.5808 63.4154 170.7092 0.0000 -8.9660 0.0000
# 4 0.0000 0.0000 0.0000 383.9542 0.0000 -56.5297
# 5 -28.1754 8.2198 -8.9660 0.0000 34.8206 0.0000
# 6 0.0000 0.0000 0.0000 -56.5297 0.0000 46.3348
#
#
#
# Elastic Compliance Matrix: (Units=1/GPa)
#
#
# Indices 1 2 3 4 5 6 
#
# 1 0.016317 -0.001999 -0.005455 0.000000 0.012271 0.000000
# 2 -0.001999 0.015956 -0.005445 0.000000 -0.006787 0.000000
# 3 -0.005455 -0.005445 0.010141 0.000000 -0.000517 0.000000
# 4 0.000000 0.000000 0.000000 0.003175 0.000000 0.003873
# 5 0.012271 -0.006787 -0.000517 0.000000 0.040116 0.000000
# 6 0.000000 0.000000 0.000000 0.003873 0.000000 0.026308
#
#
# Mechanical properties :
#
#
# Convention : Reuss Voigt Hill
#
# Bulk Modulus (GPa) = 60.18709 77.08474 68.63592
# Shear Modulus (GPa) = 34.87958 107.03755 70.95857
#
# Velocity S-wave (km/s) = 3.71740 6.51212 5.30221
# Velocity P-wave (km/s) = 6.50163 9.33189 8.04224
#
# Compressibility (1/GPa) = 0.01661486
#
# Stress axis : x y z
#
# Youngs Moduli (GPa) = 61.28521 62.67201 98.61029
#
# Poissons Ratio (x) = 0.12530 0.53790
# Poissons Ratio (y) = 0.12253 0.53698
# Poissons Ratio (z) = 0.33430 0.34128
#
# Static dielectric constant tensor:
#      x y z
#    x 2.127810 0.000000 0.080520 
#    y 0.000000 2.163300 0.000000 
#    z 0.080520 0.000000 2.087850 
# 
# From -- ./inp_files/184325.got.cif
#   From: 2010.05.17/outbox.cif.g08.bks.cpg/sg15_93_cif.got.tgz:184325.got - 2010.06.03 18:47:42.
