data_PCOD9299167
_publ_section_title
;
Structure prediction by ZEFSAII (Michael W. Deem and Ramdas Pophale) SiO2 
 PCOD9299167
Probable space group: C 2/C
;
_chemical_formula_sum "Si O2"
_cell_formula_units_Z 36
_cell_length_a 15.184295
_cell_length_b 9.525069
_cell_length_c 13.963626
_cell_angle_alpha 90.000000
_cell_angle_beta 44.899182
_cell_angle_gamma 90.000000
_cell_volume 1425.543388
_symmetry_space_group_name_H-M "C 2/C"
_symmetry_group_IT_number 15
_symmetry_cell_setting 'monoclinic'
loop_
_space_group_symop_operation_xyz
x,y,z
-x,y,1/2-z
-x,-y,-z
x,-y,1/2+z
1/2+x,1/2+y,z
1/2-x,1/2+y,1/2-z
1/2-x,1/2-y,-z
1/2+x,1/2-y,1/2+z
loop_
_atom_site_type_symbol
_atom_site_label
_atom_site_fract_x
_atom_site_fract_y
_atom_site_fract_z
Si Si1 0.586350 0.365350 0.464848
Si Si2 0.509807 0.102662 0.627430
Si Si3 0.500000 0.344503 0.250000
Si Si4 0.867017 0.667375 0.228778
Si Si5 0.241092 0.976647 0.000346
O O1 0.500000 0.500000 0.500000
O O2 0.499832 0.244808 0.576663
O O3 0.669423 0.279255 0.322918
O O4 0.680291 0.410459 0.475823
O O5 0.500000 0.125288 0.750000
O O6 0.410421 0.987998 0.667718
O O7 0.648442 0.035515 0.519794
O O8 0.495296 0.242902 0.163493
O O9 0.374905 0.431228 0.345982
O O10 0.786937 0.640981 0.387020
#
# Coordination Sequence:
#
# PCOD9299167 Si02
#       5
#     8   8   4   8   8
#     4  12  26  43  70 109 143 181 236 295 349 416
#     4  10  24  47  73 101 140 188 233 287 359 421
#     4  12  22  44  74 104 140 188 240 282 350 430
#     4  11  24  46  71 103 140 183 238 290 352 418
#     4  11  25  44  73 103 139 191 234 288 353 416
#
# _framework density 25.253530000000001
#
# number of rings (size 3 to 8) (size 9 to 14) (size 15 to 20)
#    0.000    0.889    5.556    2.000    1.556    5.333 
#    0.000    0.000    0.000    0.000    0.000    0.000 
#    0.000    0.000    0.000    0.000    0.000    0.000 
#
# Total GULP energy -100486.307569 kJ/mol
# GULP energy per Si atom -5582.572643 kJ/mol
# Density = 2.519605 g / cm^3
# Si number density = 25.253530 Si / 1000 Ang^3
#
#
#
# Elastic Constant Matrix: (Units=GPa)
#
#
# Indices 1 2 3 4 5 6 
#
# 1 54.6915 42.0677 15.3947 0.0000 9.1435 0.0000
# 2 42.0677 161.7025 67.3976 0.0000 9.2581 0.0000
# 3 15.3947 67.3976 99.9192 0.0000 -10.3179 0.0000
# 4 0.0000 0.0000 0.0000 42.5326 0.0000 19.1090
# 5 9.1435 9.2581 -10.3179 0.0000 36.5697 0.0000
# 6 0.0000 0.0000 0.0000 19.1090 0.0000 50.4689
#
#
#
# Elastic Compliance Matrix: (Units=1/GPa)
#
#
# Indices 1 2 3 4 5 6 
#
# 1 0.023538 -0.005792 -0.000181 0.000000 -0.004470 0.000000
# 2 -0.005792 0.010614 -0.006587 0.000000 -0.003097 0.000000
# 3 -0.000181 -0.006587 0.015095 0.000000 0.005972 0.000000
# 4 0.000000 0.000000 0.000000 0.028331 0.000000 -0.010727
# 5 -0.004470 -0.003097 0.005972 0.000000 0.030932 0.000000
# 6 0.000000 0.000000 0.000000 -0.010727 0.000000 0.023876
#
#
# Mechanical properties :
#
#
# Convention : Reuss Voigt Hill
#
# Bulk Modulus (GPa) = 41.44687 62.89259 52.16973
# Shear Modulus (GPa) = 30.20290 38.67779 34.44035
#
# Velocity S-wave (km/s) = 3.46206 3.91779 3.69695
# Velocity P-wave (km/s) = 5.69465 6.73973 6.23911
#
# Compressibility (1/GPa) = 0.02412728
#
# Stress axis : x y z
#
# Youngs Moduli (GPa) = 42.48481 94.21854 66.24517
#
# Poissons Ratio (x) = 0.54572 0.01201
# Poissons Ratio (y) = 0.24607 0.43633
# Poissons Ratio (z) = 0.00770 0.62058
#
# Static dielectric constant tensor:
#      x y z
#    x 2.077200 0.000000 0.044060 
#    y 0.000000 2.127510 0.000000 
#    z 0.044060 0.000000 2.119320 
# 
# From -- ./inp_files/208848.got.cif
#   From: 2010.05.17/outbox.cif.g08.bks.cpg/sg15_105_cif.got.tgz:208848.got - 2010.06.03 18:47:42.
