data_PCOD9299817
_publ_section_title
;
Structure prediction by ZEFSAII (Michael W. Deem and Ramdas Pophale) SiO2 
 PCOD9299817
Probable space group: C 2/C
;
_chemical_formula_sum "Si O2"
_cell_formula_units_Z 36
_cell_length_a 13.507810
_cell_length_b 5.069163
_cell_length_c 22.387778
_cell_angle_alpha 90.000000
_cell_angle_beta 101.598880
_cell_angle_gamma 90.000000
_cell_volume 1501.660431
_symmetry_space_group_name_H-M "C 2/C"
_symmetry_group_IT_number 15
_symmetry_cell_setting 'monoclinic'
loop_
_space_group_symop_operation_xyz
x,y,z
-x,y,1/2-z
-x,-y,-z
x,-y,1/2+z
1/2+x,1/2+y,z
1/2-x,1/2+y,1/2-z
1/2-x,1/2-y,-z
1/2+x,1/2-y,1/2+z
loop_
_atom_site_type_symbol
_atom_site_label
_atom_site_fract_x
_atom_site_fract_y
_atom_site_fract_z
Si Si1 0.360553 0.988974 0.560808
Si Si2 0.320169 0.391337 0.259562
Si Si3 0.763120 0.524571 0.423899
Si Si4 0.000000 0.827585 0.750000
Si Si5 0.928752 0.473164 0.852229
O O1 0.298698 0.205637 0.591508
O O2 0.476548 0.978504 0.592681
O O3 0.313168 0.704278 0.567063
O O4 0.338569 0.063875 0.489401
O O5 0.240161 0.623007 0.261265
O O6 0.402427 0.494046 0.221813
O O7 0.393392 0.312312 0.323528
O O8 0.829642 0.437392 0.375942
O O9 0.038224 0.643081 0.701018
#
# Coordination Sequence:
#
# PCOD9299817 Si02
#       5
#     8   8   8   4   8
#     4  10  25  48  73 110 141 180 243 296 366 422
#     4  12  29  49  69 103 149 193 246 299 356 428
#     4  10  25  46  75 107 145 183 231 306 358 431
#     4  12  30  48  70 112 146 196 246 302 352 440
#     4  12  28  46  79 104 144 196 241 293 361 432
#
# _framework density 23.973459999999999
#
# number of rings (size 3 to 8) (size 9 to 14) (size 15 to 20)
#    0.000    0.889    2.222    1.333    9.333    1.778 
#    0.000    6.667    0.000    0.000    0.000    0.000 
#    0.000    0.000    0.000    0.000    0.000    0.000 
#
# Total GULP energy -100795.711330 kJ/mol
# GULP energy per Si atom -5599.761741 kJ/mol
# Density = 2.391890 g / cm^3
# Si number density = 23.973460 Si / 1000 Ang^3
#
#
#
# Elastic Constant Matrix: (Units=GPa)
#
#
# Indices 1 2 3 4 5 6 
#
# 1 127.2614 42.1552 19.0256 0.0000 5.2592 0.0000
# 2 42.1552 120.7776 10.1238 0.0000 19.7314 0.0000
# 3 19.0256 10.1238 51.8018 0.0000 0.3423 0.0000
# 4 0.0000 0.0000 0.0000 25.5823 0.0000 2.1765
# 5 5.2592 19.7314 0.3423 0.0000 44.7324 0.0000
# 6 0.0000 0.0000 0.0000 2.1765 0.0000 44.6408
#
#
#
# Elastic Compliance Matrix: (Units=1/GPa)
#
#
# Indices 1 2 3 4 5 6 
#
# 1 0.009276 -0.003047 -0.002813 0.000000 0.000275 0.000000
# 2 -0.003047 0.010079 -0.000824 0.000000 -0.004081 0.000000
# 3 -0.002813 -0.000824 0.020495 0.000000 0.000537 0.000000
# 4 0.000000 0.000000 0.000000 0.039252 0.000000 -0.001914
# 5 0.000275 -0.004081 0.000537 0.000000 0.024119 0.000000
# 6 0.000000 0.000000 0.000000 -0.001914 0.000000 0.022494
#
#
# Mechanical properties :
#
#
# Convention : Reuss Voigt Hill
#
# Bulk Modulus (GPa) = 37.76083 49.16112 43.46098
# Shear Modulus (GPa) = 33.80404 38.22685 36.01544
#
# Velocity S-wave (km/s) = 3.75915 3.99751 3.88016
# Velocity P-wave (km/s) = 5.88446 6.46976 6.18404
#
# Compressibility (1/GPa) = 0.02648247
#
# Stress axis : x y z
#
# Youngs Moduli (GPa) = 107.80120 99.21697 48.79222
#
# Poissons Ratio (x) = 0.30230 0.13727
# Poissons Ratio (y) = 0.32845 0.04019
# Poissons Ratio (z) = 0.30328 0.08173
#
# Static dielectric constant tensor:
#      x y z
#    x 1.879100 0.000000 0.024260 
#    y 0.000000 1.906280 0.000000 
#    z 0.024260 0.000000 1.998730 
# 
# From -- ./inp_files/267119.got.cif
#   From: 2010.05.17/outbox.cif.g08.bks.cpg/sg15_134_cif.got.tgz:267119.got - 2010.06.03 18:47:42.
