data_PCOD9299302
_publ_section_title
;
Structure prediction by ZEFSAII (Michael W. Deem and Ramdas Pophale) SiO2 
 PCOD9299302
Probable space group: C 2/C
;
_chemical_formula_sum "Si O2"
_cell_formula_units_Z 36
_cell_length_a 23.809130
_cell_length_b 6.832879
_cell_length_c 13.931900
_cell_angle_alpha 90.000000
_cell_angle_beta 140.274724
_cell_angle_gamma 90.000000
_cell_volume 1448.542689
_symmetry_space_group_name_H-M "C 2/C"
_symmetry_group_IT_number 15
_symmetry_cell_setting 'monoclinic'
loop_
_space_group_symop_operation_xyz
x,y,z
-x,y,1/2-z
-x,-y,-z
x,-y,1/2+z
1/2+x,1/2+y,z
1/2-x,1/2+y,1/2-z
1/2-x,1/2-y,-z
1/2+x,1/2-y,1/2+z
loop_
_atom_site_type_symbol
_atom_site_label
_atom_site_fract_x
_atom_site_fract_y
_atom_site_fract_z
Si Si1 0.500000 0.350634 0.750000
Si Si2 0.187724 0.396793 0.358621
Si Si3 0.085505 0.035855 0.176626
Si Si4 0.238209 0.250724 0.795453
Si Si5 0.636778 0.054245 0.996120
O O1 0.440991 0.478060 0.745074
O O2 0.445416 0.200722 0.610462
O O3 0.250000 0.250000 0.500000
O O4 0.118509 0.259732 0.214292
O O5 0.234057 0.557007 0.355318
O O6 0.142152 0.496272 0.390348
O O7 0.164947 0.894887 0.246360
O O8 0.000000 0.000000 0.000000
O O9 0.206472 0.312613 0.648043
O O10 0.334178 0.153854 0.922341
#
# Coordination Sequence:
#
# PCOD9299302 Si02
#       5
#     4   8   8   8   8
#     4  10  24  48  74 112 152 188 260 306 364 438
#     4  11  24  46  70 104 144 185 248 297 356 445
#     4  11  24  48  73 109 148 193 240 309 368 432
#     4  12  25  47  76 108 146 199 244 299 377 438
#     4  11  24  45  73 106 149 193 244 303 367 438
#
# _framework density 24.852564000000001
#
# number of rings (size 3 to 8) (size 9 to 14) (size 15 to 20)
#    0.000    0.889    4.444    2.000    0.000    0.889 
#    4.000    1.111    0.000    0.000    0.000    0.000 
#    0.000    0.000    0.000    0.000    0.000    0.000 
#
# Total GULP energy -100404.078310 kJ/mol
# GULP energy per Si atom -5578.004351 kJ/mol
# Density = 2.479600 g / cm^3
# Si number density = 24.852564 Si / 1000 Ang^3
#
#
#
# Elastic Constant Matrix: (Units=GPa)
#
#
# Indices 1 2 3 4 5 6 
#
# 1 116.9908 35.3039 33.3876 0.0000 -29.0293 0.0000
# 2 35.3039 115.7835 64.0260 0.0000 -20.8571 0.0000
# 3 33.3876 64.0260 148.8976 0.0000 -3.4478 0.0000
# 4 0.0000 0.0000 0.0000 46.1877 0.0000 -6.7035
# 5 -29.0293 -20.8571 -3.4478 0.0000 28.5411 0.0000
# 6 0.0000 0.0000 0.0000 -6.7035 0.0000 56.1832
#
#
#
# Elastic Compliance Matrix: (Units=1/GPa)
#
#
# Indices 1 2 3 4 5 6 
#
# 1 0.012283 -0.000280 -0.002356 0.000000 0.012004 0.000000
# 2 -0.000280 0.013328 -0.005465 0.000000 0.008795 0.000000
# 3 -0.002356 -0.005465 0.009473 0.000000 -0.005245 0.000000
# 4 0.000000 0.000000 0.000000 0.022032 0.000000 0.002629
# 5 0.012004 0.008795 -0.005245 0.000000 0.053040 0.000000
# 6 0.000000 0.000000 0.000000 0.002629 0.000000 0.018113
#
#
# Mechanical properties :
#
#
# Convention : Reuss Voigt Hill
#
# Bulk Modulus (GPa) = 52.95869 71.90076 62.42972
# Shear Modulus (GPa) = 33.16430 42.77937 37.97183
#
# Velocity S-wave (km/s) = 3.65696 4.15339 3.91306
# Velocity P-wave (km/s) = 6.25992 7.21073 6.75208
#
# Compressibility (1/GPa) = 0.01888264
#
# Stress axis : x y z
#
# Youngs Moduli (GPa) = 81.41268 75.02754 105.56697
#
# Poissons Ratio (x) = 0.02102 0.24870
# Poissons Ratio (y) = 0.02281 0.57690
# Poissons Ratio (z) = 0.19179 0.41001
#
# Static dielectric constant tensor:
#      x y z
#    x 2.143200 0.000000 0.009320 
#    y 0.000000 2.006140 0.000000 
#    z 0.009320 0.000000 1.943670 
# 
# From -- ./inp_files/180252.got.cif
#   From: 2010.05.17/outbox.cif.g08.bks.cpg/sg15_91_cif.got.tgz:180252.got - 2010.06.03 18:47:42.
