data_PCOD9299391
_publ_section_title
;
Structure prediction by ZEFSAII (Michael W. Deem and Ramdas Pophale) SiO2 
 PCOD9299391
Probable space group: C 2/C
;
_chemical_formula_sum "Si O2"
_cell_formula_units_Z 60
_cell_length_a 18.184911
_cell_length_b 13.300434
_cell_length_c 11.933272
_cell_angle_alpha 90.000000
_cell_angle_beta 112.489132
_cell_angle_gamma 90.000000
_cell_volume 2666.772641
_symmetry_space_group_name_H-M "C 2/C"
_symmetry_group_IT_number 15
_symmetry_cell_setting 'monoclinic'
loop_
_space_group_symop_operation_xyz
x,y,z
-x,y,1/2-z
-x,-y,-z
x,-y,1/2+z
1/2+x,1/2+y,z
1/2-x,1/2+y,1/2-z
1/2-x,1/2-y,-z
1/2+x,1/2-y,1/2+z
loop_
_atom_site_type_symbol
_atom_site_label
_atom_site_fract_x
_atom_site_fract_y
_atom_site_fract_z
Si Si1 0.690462 0.298349 0.375703
Si Si2 0.296789 0.961231 0.780172
Si Si3 0.441497 0.172401 0.301303
Si Si4 0.500000 0.369175 0.750000
Si Si5 0.685833 0.193872 0.739547
Si Si6 0.962025 0.200609 0.461028
Si Si7 0.655815 0.540738 0.026839
Si Si8 0.825660 0.115913 0.118360
O O1 0.750000 0.250000 0.500000
O O2 0.608635 0.241242 0.313189
O O3 0.731834 0.295186 0.279601
O O4 0.671542 0.405247 0.417720
O O5 0.376863 0.897991 0.820814
O O6 0.227185 0.930947 0.651879
O O7 0.251049 0.936454 0.869208
O O8 0.321325 0.074077 0.759945
O O9 0.500000 0.114824 0.250000
O O10 0.485902 0.242106 0.417156
O O11 0.491165 0.309403 0.628818
O O12 0.586669 0.419206 0.784351
O O13 0.616336 0.235277 0.617239
O O14 0.681320 0.267012 0.845689
O O15 0.926229 0.091923 0.479339
O O16 0.665862 0.422575 0.004655
#
# Coordination Sequence:
#
# PCOD9299391 Si02
#       8
#     8   8   8   4   8   8   8   8
#     4  12  19  40  75 101 138 182 238 304 352 429
#     4  12  25  45  71 106 146 194 245 292 366 439
#     4  12  24  41  74 115 143 183 253 303 360 432
#     4  10  24  50  66  98 152 190 230 300 376 422
#     4  11  23  46  69  97 152 190 236 299 365 435
#     4  11  24  46  72 103 145 193 238 311 366 429
#     4  12  23  43  77 104 138 192 246 303 361 433
#     4  11  24  45  70 104 139 187 240 295 363 432
#
# _framework density 22.499106999999999
#
# number of rings (size 3 to 8) (size 9 to 14) (size 15 to 20)
#    0.000    0.533    9.333    0.000    0.000    3.733 
#    9.600    0.000    0.000    0.000    0.000    0.000 
#    0.000    0.000    0.000    0.000    0.000    0.000 
#
# Total GULP energy -167233.603236 kJ/mol
# GULP energy per Si atom -5574.453441 kJ/mol
# Density = 2.244790 g / cm^3
# Si number density = 22.499107 Si / 1000 Ang^3
#
#
#
# Elastic Constant Matrix: (Units=GPa)
#
#
# Indices 1 2 3 4 5 6 
#
# 1 136.9288 46.0699 34.3096 0.0000 -15.6452 0.0000
# 2 46.0699 104.2141 41.8041 0.0000 -9.8318 0.0000
# 3 34.3096 41.8041 69.4073 0.0000 -1.5022 0.0000
# 4 0.0000 0.0000 0.0000 30.4986 0.0000 -7.8191
# 5 -15.6452 -9.8318 -1.5022 0.0000 29.9669 0.0000
# 6 0.0000 0.0000 0.0000 -7.8191 0.0000 31.9765
#
#
#
# Elastic Compliance Matrix: (Units=1/GPa)
#
#
# Indices 1 2 3 4 5 6 
#
# 1 0.009364 -0.002570 -0.002996 0.000000 0.003895 0.000000
# 2 -0.002570 0.013799 -0.006979 0.000000 0.002836 0.000000
# 3 -0.002996 -0.006979 0.020031 0.000000 -0.002850 0.000000
# 4 0.000000 0.000000 0.000000 0.034981 0.000000 0.008554
# 5 0.003895 0.002836 -0.002850 0.000000 0.036191 0.000000
# 6 0.000000 0.000000 0.000000 0.008554 0.000000 0.033365
#
#
# Mechanical properties :
#
#
# Convention : Reuss Voigt Hill
#
# Bulk Modulus (GPa) = 55.24265 61.65748 58.45006
# Shear Modulus (GPa) = 27.95543 31.04619 29.50081
#
# Velocity S-wave (km/s) = 3.52875 3.71871 3.62498
# Velocity P-wave (km/s) = 6.41945 6.77512 6.59969
#
# Compressibility (1/GPa) = 0.01810196
#
# Stress axis : x y z
#
# Youngs Moduli (GPa) = 106.79679 72.46952 49.92279
#
# Poissons Ratio (x) = 0.18624 0.14959
# Poissons Ratio (y) = 0.27445 0.34843
# Poissons Ratio (z) = 0.32001 0.50579
#
# Static dielectric constant tensor:
#      x y z
#    x 1.845290 0.000000 -0.023600 
#    y 0.000000 2.053690 0.000000 
#    z -0.023600 0.000000 1.871700 
# 
# From -- ./inp_files/105755.got.cif
#   From: 2010.05.17/outbox.cif.g08.bks.cpg/sg15_53_cif.got.tgz:105755.got - 2010.06.03 18:47:42.
