data_PCOD9299790
_publ_section_title
;
Structure prediction by ZEFSAII (Michael W. Deem and Ramdas Pophale) SiO2 
 PCOD9299790
Probable space group: C 2/C
;
_chemical_formula_sum "Si O2"
_cell_formula_units_Z 40
_cell_length_a 7.148405
_cell_length_b 16.834798
_cell_length_c 15.358353
_cell_angle_alpha 90.000000
_cell_angle_beta 56.816747
_cell_angle_gamma 90.000000
_cell_volume 1546.848910
_symmetry_space_group_name_H-M "C 2/C"
_symmetry_group_IT_number 15
_symmetry_cell_setting 'monoclinic'
loop_
_space_group_symop_operation_xyz
x,y,z
-x,y,1/2-z
-x,-y,-z
x,-y,1/2+z
1/2+x,1/2+y,z
1/2-x,1/2+y,1/2-z
1/2-x,1/2-y,-z
1/2+x,1/2-y,1/2+z
loop_
_atom_site_type_symbol
_atom_site_label
_atom_site_fract_x
_atom_site_fract_y
_atom_site_fract_z
Si Si1 0.390621 0.514121 0.933179
Si Si2 0.153720 0.140279 0.794009
Si Si3 0.044138 0.779668 0.992668
Si Si4 0.321178 0.694529 0.226450
Si Si5 0.064500 0.382673 0.934371
O O1 0.599458 0.546708 0.820708
O O2 0.250581 0.443749 0.922573
O O3 0.500000 0.500000 0.000000
O O4 0.404757 0.333031 0.093356
O O5 0.331598 0.208689 0.726794
O O6 0.000000 0.158974 0.750000
O O7 0.123035 0.823137 0.886490
O O8 0.317302 0.921890 0.006145
O O9 0.250000 0.750000 0.000000
O O10 0.919148 0.696086 0.009766
O O11 0.500000 0.666546 0.250000
O O12 0.106873 0.652797 0.325867
#
# Coordination Sequence:
#
# PCOD9299790 Si02
#       5
#     8   8   8   8   8
#     4  11  25  46  73 100 150 200 238 299 379 450
#     4  11  23  45  71 101 140 187 240 301 366 437
#     4  11  21  44  75 103 141 184 245 308 373 431
#     4  11  26  41  75 111 141 180 256 313 369 435
#     4  10  25  46  71 106 146 189 250 308 367 447
#
# _framework density 25.859022
#
# number of rings (size 3 to 8) (size 9 to 14) (size 15 to 20)
#    0.000    1.200    4.000    0.000    5.600    2.400 
#    0.000    0.000    4.400    0.000    0.000    0.000 
#    0.000    0.000    0.000    0.000    0.000    0.000 
#
# Total GULP energy -111359.320469 kJ/mol
# GULP energy per Si atom -5567.966023 kJ/mol
# Density = 2.580017 g / cm^3
# Si number density = 25.859022 Si / 1000 Ang^3
#
#
#
# Elastic Constant Matrix: (Units=GPa)
#
#
# Indices 1 2 3 4 5 6 
#
# 1 92.1510 25.3937 12.4860 0.0000 21.1741 0.0000
# 2 25.3937 119.5820 24.3251 0.0000 3.0960 0.0000
# 3 12.4860 24.3251 175.4160 0.0000 35.1492 0.0000
# 4 0.0000 0.0000 0.0000 18.8669 0.0000 -7.1673
# 5 21.1741 3.0960 35.1492 0.0000 35.1367 0.0000
# 6 0.0000 0.0000 0.0000 -7.1673 0.0000 36.9011
#
#
#
# Elastic Compliance Matrix: (Units=1/GPa)
#
#
# Indices 1 2 3 4 5 6 
#
# 1 0.013599 -0.002910 0.001284 0.000000 -0.009223 0.000000
# 2 -0.002910 0.009236 -0.001578 0.000000 0.002519 0.000000
# 3 0.001284 -0.001578 0.007448 0.000000 -0.008085 0.000000
# 4 0.000000 0.000000 0.000000 0.057225 0.000000 0.011115
# 5 -0.009223 0.002519 -0.008085 0.000000 0.041884 0.000000
# 6 0.000000 0.000000 0.000000 0.011115 0.000000 0.029258
#
#
# Mechanical properties :
#
#
# Convention : Reuss Voigt Hill
#
# Bulk Modulus (GPa) = 41.88697 56.83984 49.36340
# Shear Modulus (GPa) = 28.89850 39.84389 34.37119
#
# Velocity S-wave (km/s) = 3.34659 3.92958 3.64974
# Velocity P-wave (km/s) = 5.58267 6.52818 6.07385
#
# Compressibility (1/GPa) = 0.02387377
#
# Stress axis : x y z
#
# Youngs Moduli (GPa) = 73.53535 108.26860 134.25745
#
# Poissons Ratio (x) = 0.31507 -0.17233
# Poissons Ratio (y) = 0.21400 0.21191
# Poissons Ratio (z) = -0.09439 0.17089
#
# Static dielectric constant tensor:
#      x y z
#    x 2.174030 0.000000 -0.074750 
#    y 0.000000 2.308940 0.000000 
#    z -0.074750 0.000000 2.155280 
# 
# From -- ./inp_files/134213.got.cif
#   From: 2010.05.17/outbox.cif.g08.bks.cpg/sg15_68_cif.got.tgz:134213.got - 2010.06.03 18:47:42.
