data_PCOD9299313
_publ_section_title
;
Structure prediction by ZEFSAII (Michael W. Deem and Ramdas Pophale) SiO2 
 PCOD9299313
Probable space group: C 2/C
;
_chemical_formula_sum "Si O2"
_cell_formula_units_Z 44
_cell_length_a 21.530407
_cell_length_b 7.851542
_cell_length_c 9.288996
_cell_angle_alpha 90.000000
_cell_angle_beta 97.874220
_cell_angle_gamma 90.000000
_cell_volume 1555.470121
_symmetry_space_group_name_H-M "C 2/C"
_symmetry_group_IT_number 15
_symmetry_cell_setting 'monoclinic'
loop_
_space_group_symop_operation_xyz
x,y,z
-x,y,1/2-z
-x,-y,-z
x,-y,1/2+z
1/2+x,1/2+y,z
1/2-x,1/2+y,1/2-z
1/2-x,1/2-y,-z
1/2+x,1/2-y,1/2+z
loop_
_atom_site_type_symbol
_atom_site_label
_atom_site_fract_x
_atom_site_fract_y
_atom_site_fract_z
Si Si1 0.245587 0.593384 0.104735
Si Si2 0.161547 0.446337 0.837238
Si Si3 0.379560 0.558104 0.066825
Si Si4 0.500000 0.603883 0.750000
Si Si5 0.472493 0.188781 0.514009
Si Si6 0.107445 0.727133 0.586787
O O1 0.317967 0.545856 0.144075
O O2 0.206492 0.643278 0.233071
O O3 0.250000 0.750000 0.000000
O O4 0.209355 0.467616 0.987212
O O5 0.136172 0.598290 0.718515
O O6 0.097458 0.745979 0.958024
O O7 0.109478 0.355372 0.922715
O O8 0.443257 0.492504 0.157000
O O9 0.367292 0.418110 0.937458
O O10 0.530167 0.721654 0.639548
O O11 0.535212 0.259172 0.610809
O O12 0.500000 0.000000 0.500000
#
# Coordination Sequence:
#
# PCOD9299313 Si02
#       6
#     8   8   8   4   8   8
#     4  11  28  44  78 115 161 207 270 330 406 490
#     4  10  26  47  76 122 158 219 262 341 408 482
#     4  11  27  48  78 110 158 215 267 336 401 495
#     4  10  24  48  76 108 148 210 268 332 402 472
#     4  11  27  46  74 116 153 208 266 334 406 476
#     4  10  24  49  80 111 162 207 274 326 408 488
#
# _framework density 28.287268000000001
#
# number of rings (size 3 to 8) (size 9 to 14) (size 15 to 20)
#    0.000    1.455    0.000    2.182   17.818    3.636 
#    0.000    0.000    0.000    0.000    0.000    0.000 
#    0.000    0.000    0.000    0.000    0.000    0.000 
#
# Total GULP energy -122553.980868 kJ/mol
# GULP energy per Si atom -5570.635494 kJ/mol
# Density = 2.822288 g / cm^3
# Si number density = 28.287268 Si / 1000 Ang^3
#
#
#
# Elastic Constant Matrix: (Units=GPa)
#
#
# Indices 1 2 3 4 5 6 
#
# 1 209.2772 41.6446 83.9061 0.0000 -23.3740 0.0000
# 2 41.6446 102.4336 40.3669 0.0000 -5.5455 0.0000
# 3 83.9061 40.3669 188.0979 0.0000 -25.4535 0.0000
# 4 0.0000 0.0000 0.0000 46.0650 0.0000 -14.0303
# 5 -23.3740 -5.5455 -25.4535 0.0000 60.3485 0.0000
# 6 0.0000 0.0000 0.0000 -14.0303 0.0000 31.8066
#
#
#
# Elastic Compliance Matrix: (Units=1/GPa)
#
#
# Indices 1 2 3 4 5 6 
#
# 1 0.006121 -0.001542 -0.002225 0.000000 0.001291 0.000000
# 2 -0.001542 0.011053 -0.001726 0.000000 -0.000310 0.000000
# 3 -0.002225 -0.001726 0.006937 0.000000 0.001906 0.000000
# 4 0.000000 0.000000 0.000000 0.025078 0.000000 0.011062
# 5 0.001291 -0.000310 0.001906 0.000000 0.017846 0.000000
# 6 0.000000 0.000000 0.000000 0.011062 0.000000 0.036320
#
#
# Mechanical properties :
#
#
# Convention : Reuss Voigt Hill
#
# Bulk Modulus (GPa) = 76.18886 92.40487 84.29687
# Shear Modulus (GPa) = 42.11743 49.90340 46.01042
#
# Velocity S-wave (km/s) = 3.86284 4.20475 4.03742
# Velocity P-wave (km/s) = 6.84747 7.50405 7.18326
#
# Compressibility (1/GPa) = 0.01312528
#
# Stress axis : x y z
#
# Youngs Moduli (GPa) = 163.35986 90.47524 144.15032
#
# Poissons Ratio (x) = 0.13951 0.32074
# Poissons Ratio (y) = 0.25189 0.24881
# Poissons Ratio (z) = 0.36348 0.15616
#
# Static dielectric constant tensor:
#      x y z
#    x 2.003630 0.000000 -0.018460 
#    y 0.000000 2.519540 0.000000 
#    z -0.018460 0.000000 2.236980 
# 
# From -- ./inp_files/171061.got.cif
#   From: 2010.05.17/outbox.cif.g08.bks.cpg/sg15_86_cif.got.tgz:171061.got - 2010.06.03 18:47:42.
