data_PCOD9299541
_publ_section_title
;
Structure prediction by ZEFSAII (Michael W. Deem and Ramdas Pophale) SiO2 
 PCOD9299541
Probable space group: C 2/C
;
_chemical_formula_sum "Si O2"
_cell_formula_units_Z 64
_cell_length_a 7.527858
_cell_length_b 29.915436
_cell_length_c 13.114880
_cell_angle_alpha 90.000000
_cell_angle_beta 117.140910
_cell_angle_gamma 90.000000
_cell_volume 2628.246478
_symmetry_space_group_name_H-M "C 2/C"
_symmetry_group_IT_number 15
_symmetry_cell_setting 'monoclinic'
loop_
_space_group_symop_operation_xyz
x,y,z
-x,y,1/2-z
-x,-y,-z
x,-y,1/2+z
1/2+x,1/2+y,z
1/2-x,1/2+y,1/2-z
1/2-x,1/2-y,-z
1/2+x,1/2-y,1/2+z
loop_
_atom_site_type_symbol
_atom_site_label
_atom_site_fract_x
_atom_site_fract_y
_atom_site_fract_z
Si Si1 0.468922 0.074141 0.470732
Si Si2 0.214980 0.075129 0.762595
Si Si3 0.677093 0.790120 0.208457
Si Si4 0.790548 0.192043 0.254348
Si Si5 0.119774 0.669839 0.011701
Si Si6 0.783049 0.106443 0.388233
Si Si7 0.130185 0.150829 0.602163
Si Si8 0.209887 0.477707 0.744746
O O1 0.615065 0.068993 0.606001
O O2 0.338310 0.117481 0.460153
O O3 0.601189 0.090607 0.410091
O O4 0.341476 0.034285 0.387123
O O5 0.266804 0.111621 0.689555
O O6 0.000000 0.090276 0.750000
O O7 0.183151 0.024951 0.713217
O O8 0.500000 0.790571 0.250000
O O9 0.701789 0.738775 0.185596
O O10 0.591120 0.820448 0.095596
O O11 0.870016 0.812308 0.309722
O O12 0.741257 0.149524 0.308810
O O13 0.000000 0.184131 0.250000
O O14 0.637654 0.195780 0.120744
O O15 0.286465 0.679614 0.971273
O O16 0.824860 0.064107 0.325818
O O17 0.947419 0.123144 0.510820
O O18 0.000000 0.483025 0.750000
#
# Coordination Sequence:
#
# PCOD9299541 Si02
#       8
#     8   8   8   8   8   8   8   8
#     4  11  23  44  65  90 129 167 205 257 321 367
#     4  12  25  43  66  93 127 167 204 262 320 370
#     4   9  22  37  61  98 128 160 215 262 304 367
#     4  11  22  38  66  95 128 167 210 262 314 364
#     4  11  22  39  68  92 124 171 210 258 310 372
#     4  11  23  43  63  92 130 165 204 263 311 374
#     4  11  23  40  65  95 125 163 216 259 304 373
#     4  10  25  43  64  93 125 162 213 257 308 381
#
# _framework density 24.350838
#
# number of rings (size 3 to 8) (size 9 to 14) (size 15 to 20)
#    0.000    1.250    5.000    0.375    3.500    3.500 
#    0.000    0.625    5.500    0.000    0.000    0.000 
#    0.000    0.000    0.000    0.000    0.000    0.000 
#
# Total GULP energy -178787.946759 kJ/mol
# GULP energy per Si atom -5587.123336 kJ/mol
# Density = 2.429541 g / cm^3
# Si number density = 24.350838 Si / 1000 Ang^3
#
#
#
# Elastic Constant Matrix: (Units=GPa)
#
#
# Indices 1 2 3 4 5 6 
#
# 1 31.4393 -2.8829 6.0581 0.0000 -1.5971 0.0000
# 2 -2.8829 127.2804 19.9679 0.0000 -12.6506 0.0000
# 3 6.0581 19.9679 103.9117 0.0000 -11.1493 0.0000
# 4 0.0000 0.0000 0.0000 23.5028 0.0000 3.2479
# 5 -1.5971 -12.6506 -11.1493 0.0000 24.1574 0.0000
# 6 0.0000 0.0000 0.0000 3.2479 0.0000 21.0683
#
#
#
# Elastic Compliance Matrix: (Units=1/GPa)
#
#
# Indices 1 2 3 4 5 6 
#
# 1 0.032386 0.001223 -0.001920 0.000000 0.001896 0.000000
# 2 0.001223 0.008475 -0.001278 0.000000 0.003929 0.000000
# 3 -0.001920 -0.001278 0.010411 0.000000 0.004009 0.000000
# 4 0.000000 0.000000 0.000000 0.043474 0.000000 -0.006702
# 5 0.001896 0.003929 0.004009 0.000000 0.045428 0.000000
# 6 0.000000 0.000000 0.000000 -0.006702 0.000000 0.048498
#
#
# Mechanical properties :
#
#
# Convention : Reuss Voigt Hill
#
# Bulk Modulus (GPa) = 21.13165 34.32415 27.72790
# Shear Modulus (GPa) = 23.99268 29.71159 26.85213
#
# Velocity S-wave (km/s) = 3.14234 3.49685 3.32432
# Velocity P-wave (km/s) = 4.67574 5.51636 5.11335
#
# Compressibility (1/GPa) = 0.04732238
#
# Stress axis : x y z
#
# Youngs Moduli (GPa) = 30.87784 117.98771 96.04992
#
# Poissons Ratio (x) = -0.14431 0.18439
# Poissons Ratio (y) = -0.03777 0.12279
# Poissons Ratio (z) = 0.05928 0.15083
#
# Static dielectric constant tensor:
#      x y z
#    x 2.020310 0.000000 0.008230 
#    y 0.000000 1.893590 0.000000 
#    z 0.008230 0.000000 2.010200 
# 
# From -- ./inp_files/139859.got.cif
#   From: 2010.05.17/outbox.cif.g08.bks.cpg/sg15_70_cif.got.tgz:139859.got - 2010.06.03 18:47:42.
