data_PCOD9299770
_publ_section_title
;
Structure prediction by ZEFSAII (Michael W. Deem and Ramdas Pophale) SiO2 
 PCOD9299770
Probable space group: C 2/C
;
_chemical_formula_sum "Si O2"
_cell_formula_units_Z 44
_cell_length_a 19.485546
_cell_length_b 9.282566
_cell_length_c 24.168148
_cell_angle_alpha 90.000000
_cell_angle_beta 25.940830
_cell_angle_gamma 90.000000
_cell_volume 1912.252286
_symmetry_space_group_name_H-M "C 2/C"
_symmetry_group_IT_number 15
_symmetry_cell_setting 'monoclinic'
loop_
_space_group_symop_operation_xyz
x,y,z
-x,y,1/2-z
-x,-y,-z
x,-y,1/2+z
1/2+x,1/2+y,z
1/2-x,1/2+y,1/2-z
1/2-x,1/2-y,-z
1/2+x,1/2-y,1/2+z
loop_
_atom_site_type_symbol
_atom_site_label
_atom_site_fract_x
_atom_site_fract_y
_atom_site_fract_z
Si Si1 0.890814 0.482908 0.025004
Si Si2 0.325009 0.461496 0.644168
Si Si3 0.825829 0.189604 0.032975
Si Si4 0.500000 0.078788 0.250000
Si Si5 0.073898 0.042027 0.308561
Si Si6 0.034776 0.641720 0.826189
O O1 0.920788 0.337959 0.967931
O O2 0.709267 0.476167 0.172915
O O3 0.000000 0.500000 0.000000
O O4 0.924569 0.612500 0.958763
O O5 0.500000 0.500000 0.500000
O O6 0.285262 0.344257 0.626971
O O7 0.336237 0.416184 0.699295
O O8 0.209022 0.595841 0.720456
O O9 0.654610 0.176734 0.130264
O O10 0.936058 0.067126 0.925694
O O11 0.495110 0.968987 0.201744
O O12 0.018598 0.191984 0.322537
#
# Coordination Sequence:
#
# PCOD9299770 Si02
#       6
#     8   8   8   4   8   8
#     4  12  26  41  75 110 145 180 240 299 375 432
#     4   9  20  37  68  94 142 180 230 294 364 418
#     4  10  25  46  69 104 142 196 237 296 356 426
#     4  10  26  52  74  90 152 200 252 286 348 426
#     4  11  25  42  70 107 144 179 242 304 365 420
#     4  11  25  44  69 102 142 194 239 296 359 433
#
# _framework density 23.009516999999999
#
# number of rings (size 3 to 8) (size 9 to 14) (size 15 to 20)
#    0.000    1.455    1.818    1.091   17.818    1.455 
#    0.000    0.000    0.000    0.000    0.000    0.000 
#    0.000    0.000    0.000    0.000    0.000    0.000 
#
# Total GULP energy -122920.719891 kJ/mol
# GULP energy per Si atom -5587.305450 kJ/mol
# Density = 2.295715 g / cm^3
# Si number density = 23.009517 Si / 1000 Ang^3
#
#
#
# Elastic Constant Matrix: (Units=GPa)
#
#
# Indices 1 2 3 4 5 6 
#
# 1 55.8421 5.5160 17.7023 0.0000 -6.3428 0.0000
# 2 5.5160 111.7359 21.4214 0.0007 -14.2321 -0.0001
# 3 17.7023 21.4214 120.2566 0.0020 -5.8561 0.0003
# 4 0.0000 0.0007 0.0020 29.0620 0.0001 -1.3495
# 5 -6.3428 -14.2321 -5.8561 0.0001 35.1559 0.0000
# 6 0.0000 -0.0001 0.0003 -1.3495 0.0000 17.1586
#
#
#
# Elastic Compliance Matrix: (Units=1/GPa)
#
#
# Indices 1 2 3 4 5 6 
#
# 1 0.019093 -0.000054 -0.002656 0.000000 0.002981 0.000000
# 2 -0.000054 0.009715 -0.001544 0.000000 0.003666 0.000000
# 3 -0.002656 -0.001544 0.009001 -0.000001 0.000395 0.000000
# 4 0.000000 0.000000 -0.000001 0.034535 0.000000 0.002716
# 5 0.002981 0.003666 0.000395 0.000000 0.030532 0.000000
# 6 0.000000 0.000000 0.000000 0.002716 0.000000 0.058493
#
#
# Mechanical properties :
#
#
# Convention : Reuss Voigt Hill
#
# Bulk Modulus (GPa) = 34.12743 41.90156 38.01450
# Shear Modulus (GPa) = 27.83256 32.48828 30.16042
#
# Velocity S-wave (km/s) = 3.48172 3.76167 3.62440
# Velocity P-wave (km/s) = 5.57021 6.09237 5.83713
#
# Compressibility (1/GPa) = 0.02930194
#
# Stress axis : x y z
#
# Youngs Moduli (GPa) = 52.37399 102.93010 111.10113
#
# Poissons Ratio (x) = 0.00553 0.29507
# Poissons Ratio (y) = 0.00282 0.17156
# Poissons Ratio (z) = 0.13910 0.15894
#
# Static dielectric constant tensor:
#      x y z
#    x 1.955220 0.000000 -0.028400 
#    y 0.000000 1.872810 0.000000 
#    z -0.028400 0.000000 1.851630 
# 
# From -- ./inp_files/318560.got.cif
#   From: 2010.05.17/outbox.cif.g08.bks.cpg/sg15_160_cif.got.tgz:318560.got - 2010.06.03 18:47:42.
