data_PCOD9299035
_publ_section_title
;
Structure prediction by ZEFSAII (Michael W. Deem and Ramdas Pophale) SiO2 
 PCOD9299035
Probable space group: C 2/C
;
_chemical_formula_sum "Si O2"
_cell_formula_units_Z 36
_cell_length_a 12.665335
_cell_length_b 18.640013
_cell_length_c 9.780663
_cell_angle_alpha 90.000000
_cell_angle_beta 35.165386
_cell_angle_gamma 90.000000
_cell_volume 1329.864328
_symmetry_space_group_name_H-M "C 2/C"
_symmetry_group_IT_number 15
_symmetry_cell_setting 'monoclinic'
loop_
_space_group_symop_operation_xyz
x,y,z
-x,y,1/2-z
-x,-y,-z
x,-y,1/2+z
1/2+x,1/2+y,z
1/2-x,1/2+y,1/2-z
1/2-x,1/2-y,-z
1/2+x,1/2-y,1/2+z
loop_
_atom_site_type_symbol
_atom_site_label
_atom_site_fract_x
_atom_site_fract_y
_atom_site_fract_z
Si Si1 0.132839 0.847123 0.989662
Si Si2 0.017115 0.623931 0.036982
Si Si3 0.884373 0.249452 0.258897
Si Si4 0.339213 0.013850 0.026701
Si Si5 0.000000 0.012340 0.750000
O O1 0.080496 0.931723 0.054593
O O2 0.000000 0.816222 0.250000
O O3 0.350415 0.837652 0.793531
O O4 0.105513 0.811725 0.869661
O O5 0.169180 0.572288 0.942024
O O6 0.898955 0.562672 0.086313
O O7 0.102770 0.676234 0.836721
O O8 0.631941 0.250970 0.552768
O O9 0.500000 0.023467 0.750000
O O10 0.153522 0.036048 0.152854
#
# Coordination Sequence:
#
# PCOD9299035 Si02
#       5
#     8   8   8   8   4
#     4  10  24  47  70 110 148 197 258 309 384 461
#     4  11  25  46  72 105 157 203 249 318 392 458
#     4  12  26  46  71 110 149 202 257 314 389 454
#     4  11  23  46  74 109 151 200 255 321 383 462
#     4  10  24  46  74 118 142 198 262 308 394 448
#
# _framework density 27.070430999999999
#
# number of rings (size 3 to 8) (size 9 to 14) (size 15 to 20)
#    0.667    0.444    4.444    0.667    3.111    2.667 
#    2.000    0.000    0.000    0.000    0.000    0.000 
#    0.000    0.000    0.000    0.000    0.000    0.000 
#
# Total GULP energy -100446.789362 kJ/mol
# GULP energy per Si atom -5580.377187 kJ/mol
# Density = 2.700882 g / cm^3
# Si number density = 27.070431 Si / 1000 Ang^3
#
#
#
# Elastic Constant Matrix: (Units=GPa)
#
#
# Indices 1 2 3 4 5 6 
#
# 1 85.9481 9.1598 18.8818 0.0145 -14.2885 -0.0059
# 2 9.1598 58.9186 52.5909 0.0113 11.3662 -0.0052
# 3 18.8818 52.5909 198.6890 0.0195 22.1302 -0.0100
# 4 0.0145 0.0113 0.0195 -15.5408 -0.0116 22.2422
# 5 -14.2885 11.3662 22.1302 -0.0116 53.1792 0.0059
# 6 -0.0059 -0.0052 -0.0100 22.2422 0.0059 41.6419
#
#
#
# Elastic Compliance Matrix: (Units=1/GPa)
#
#
# Indices 1 2 3 4 5 6 
#
# 1 0.012811 -0.001715 -0.001246 0.000004 0.004327 -0.000001
# 2 -0.001715 0.022752 -0.005522 0.000007 -0.003025 -0.000002
# 3 -0.001246 -0.005522 0.006836 0.000004 -0.001999 -0.000001
# 4 0.000004 0.000007 0.000004 -0.036468 -0.000012 0.019479
# 5 0.004327 -0.003025 -0.001999 -0.000012 0.021445 0.000003
# 6 -0.000001 -0.000002 -0.000001 0.019479 0.000003 0.013610
#
#
# Mechanical properties :
#
#
# Convention : Reuss Voigt Hill
#
# Bulk Modulus (GPa) = 39.31817 56.09121 47.70469
# Shear Modulus (GPa) = 75.26963 33.38428 54.32696
#
# Velocity S-wave (km/s) = 5.27878 3.51556 4.48468
# Velocity P-wave (km/s) = 7.19096 6.10281 6.66912
#
# Compressibility (1/GPa) = 0.02543353
#
# Stress axis : x y z
#
# Youngs Moduli (GPa) = 78.06043 43.95226 146.29094
#
# Poissons Ratio (x) = 0.07536 0.18221
# Poissons Ratio (y) = 0.13384 0.80786
# Poissons Ratio (z) = 0.09723 0.24272
#
# Static dielectric constant tensor:
#      x y z
#    x 3.889890 0.000000 -2.562010 
#    y 0.000000 2.141200 0.000010 
#    z -2.562010 0.000010 5.741580 
# 
# From -- ./inp_files/99598.got.cif
#   From: 2010.05.17/outbox.cif.g08.bks.cpg/sg15_50_cif.got.tgz:99598.got - 2010.06.03 18:47:42.
