data_PCOD9299282
_publ_section_title
;
Structure prediction by ZEFSAII (Michael W. Deem and Ramdas Pophale) SiO2 
 PCOD9299282
Probable space group: C 2/C
;
_chemical_formula_sum "Si O2"
_cell_formula_units_Z 48
_cell_length_a 21.163427
_cell_length_b 11.353708
_cell_length_c 9.107074
_cell_angle_alpha 90.000000
_cell_angle_beta 117.936895
_cell_angle_gamma 90.000000
_cell_volume 1933.265501
_symmetry_space_group_name_H-M "C 2/C"
_symmetry_group_IT_number 15
_symmetry_cell_setting 'monoclinic'
loop_
_space_group_symop_operation_xyz
x,y,z
-x,y,1/2-z
-x,-y,-z
x,-y,1/2+z
1/2+x,1/2+y,z
1/2-x,1/2+y,1/2-z
1/2-x,1/2-y,-z
1/2+x,1/2-y,1/2+z
loop_
_atom_site_type_symbol
_atom_site_label
_atom_site_fract_x
_atom_site_fract_y
_atom_site_fract_z
Si Si1 0.750000 0.750000 0.000000
Si Si2 0.623718 0.453206 0.003750
Si Si3 0.000000 0.218812 0.250000
Si Si4 0.576668 0.110980 0.614292
Si Si5 0.737401 0.803801 0.323767
Si Si6 0.427633 0.612862 0.760287
Si Si7 0.895380 0.626833 0.189619
O O1 0.751518 0.763825 0.817970
O O2 0.688563 0.856625 0.940239
O O3 0.569187 0.362931 0.862090
O O4 0.632195 0.571887 0.920101
O O5 0.700772 0.402048 0.118618
O O6 0.582812 0.469870 0.112429
O O7 0.022431 0.304087 0.141329
O O8 0.655740 0.157530 0.736562
O O9 0.567618 0.116339 0.429563
O O10 0.580292 0.979056 0.681124
O O11 0.750000 0.750000 0.500000
O O12 0.500000 0.599709 0.750000
O O13 0.414362 0.747225 0.781888
#
# Coordination Sequence:
#
# PCOD9299282 Si02
#       7
#     4   8   4   8   8   8   8
#     4  10  24  48  72 110 148 190 258 310 372 464
#     4  12  27  47  77 110 152 199 255 323 383 454
#     4  12  26  50  74 112 150 202 264 314 384 468
#     4  11  28  45  77 107 154 196 253 313 385 457
#     4  11  24  48  79 109 149 203 255 317 387 454
#     4  12  27  47  76 108 152 199 254 315 382 458
#     4  11  27  48  73 113 147 198 250 316 378 462
#
# _framework density 24.828458000000001
#
# number of rings (size 3 to 8) (size 9 to 14) (size 15 to 20)
#    0.000    0.667    4.167    1.500   10.500    0.667 
#    0.000    0.000    0.000    0.000    0.000    0.000 
#    0.000    0.000    0.000    0.000    0.000    0.000 
#
# Total GULP energy -133868.024097 kJ/mol
# GULP energy per Si atom -5577.834337 kJ/mol
# Density = 2.477195 g / cm^3
# Si number density = 24.828458 Si / 1000 Ang^3
#
#
#
# Elastic Constant Matrix: (Units=GPa)
#
#
# Indices 1 2 3 4 5 6 
#
# 1 101.7040 15.1596 31.6113 0.0000 -4.9988 0.0000
# 2 15.1596 80.9053 38.7164 0.0000 -6.6098 0.0000
# 3 31.6113 38.7164 142.0938 0.0000 -19.5781 0.0000
# 4 0.0000 0.0000 0.0000 39.9695 0.0000 4.1601
# 5 -4.9988 -6.6098 -19.5781 0.0000 50.5563 0.0000
# 6 0.0000 0.0000 0.0000 4.1601 0.0000 13.4972
#
#
#
# Elastic Compliance Matrix: (Units=1/GPa)
#
#
# Indices 1 2 3 4 5 6 
#
# 1 0.010632 -0.000987 -0.002080 0.000000 0.000117 0.000000
# 2 -0.000987 0.014312 -0.003629 0.000000 0.000368 0.000000
# 3 -0.002080 -0.003629 0.008869 0.000000 0.002754 0.000000
# 4 0.000000 0.000000 0.000000 0.025848 0.000000 -0.007967
# 5 0.000117 0.000368 0.002754 0.000000 0.020906 0.000000
# 6 0.000000 0.000000 0.000000 -0.007967 0.000000 0.076545
#
#
# Mechanical properties :
#
#
# Convention : Reuss Voigt Hill
#
# Bulk Modulus (GPa) = 48.97325 55.07529 52.02427
# Shear Modulus (GPa) = 28.19892 36.75232 32.47562
#
# Velocity S-wave (km/s) = 3.37375 3.85158 3.62055
# Velocity P-wave (km/s) = 5.91132 6.48151 6.20297
#
# Compressibility (1/GPa) = 0.02041931
#
# Stress axis : x y z
#
# Youngs Moduli (GPa) = 94.05667 69.87188 112.75563
#
# Poissons Ratio (x) = 0.06897 0.23456
# Poissons Ratio (y) = 0.09285 0.40922
# Poissons Ratio (z) = 0.19566 0.25358
#
# Static dielectric constant tensor:
#      x y z
#    x 1.748960 0.000000 -0.213590 
#    y 0.000000 1.930040 0.000000 
#    z -0.213590 0.000000 1.775570 
# 
# From -- ./inp_files/60914.got.cif
#   From: 2010.05.17/outbox.cif.g08.bks.cpg/sg15_31_cif.got.tgz:60914.got - 2010.06.03 18:47:42.
