data_PCOD9299748
_publ_section_title
;
Structure prediction by ZEFSAII (Michael W. Deem and Ramdas Pophale) SiO2 
 PCOD9299748
Probable space group: C 2/C
;
_chemical_formula_sum "Si O2"
_cell_formula_units_Z 36
_cell_length_a 20.212542
_cell_length_b 7.618121
_cell_length_c 9.511949
_cell_angle_alpha 90.000000
_cell_angle_beta 80.017937
_cell_angle_gamma 90.000000
_cell_volume 1442.493036
_symmetry_space_group_name_H-M "C 2/C"
_symmetry_group_IT_number 15
_symmetry_cell_setting 'monoclinic'
loop_
_space_group_symop_operation_xyz
x,y,z
-x,y,1/2-z
-x,-y,-z
x,-y,1/2+z
1/2+x,1/2+y,z
1/2-x,1/2+y,1/2-z
1/2-x,1/2-y,-z
1/2+x,1/2-y,1/2+z
loop_
_atom_site_type_symbol
_atom_site_label
_atom_site_fract_x
_atom_site_fract_y
_atom_site_fract_z
Si Si1 0.114340 0.824480 0.732173
Si Si2 0.532758 0.187542 0.027921
Si Si3 0.500000 0.563978 0.750000
Si Si4 0.757887 0.407227 0.610673
Si Si5 0.841628 0.567030 0.357091
O O1 0.072497 0.775645 0.886135
O O2 0.184833 0.927859 0.708581
O O3 0.132983 0.634638 0.664772
O O4 0.060639 0.943267 0.673068
O O5 0.480906 0.315194 0.124023
O O6 0.500000 0.000000 0.000000
O O7 0.591708 0.163537 0.120550
O O8 0.750000 0.250000 0.500000
O O9 0.787953 0.564119 0.505072
O O10 0.808625 0.378446 0.721876
#
# Coordination Sequence:
#
# PCOD9299748 Si02
#       5
#     8   8   4   8   8
#     4  11  25  47  72 114 156 192 266 319 396 460
#     4  12  26  49  77 108 155 212 263 315 397 478
#     4  12  28  44  74 112 152 204 256 334 384 470
#     4  10  25  45  79 114 153 200 260 325 393 466
#     4  11  23  50  79 110 152 208 259 322 399 477
#
# _framework density 24.956792
#
# number of rings (size 3 to 8) (size 9 to 14) (size 15 to 20)
#    0.000    0.889    2.222    3.333    3.111    4.444 
#    0.000    0.000    0.000    0.000    0.000    0.000 
#    0.000    0.000    0.000    0.000    0.000    0.000 
#
# Total GULP energy -100617.920484 kJ/mol
# GULP energy per Si atom -5589.884471 kJ/mol
# Density = 2.489999 g / cm^3
# Si number density = 24.956792 Si / 1000 Ang^3
#
#
#
# Elastic Constant Matrix: (Units=GPa)
#
#
# Indices 1 2 3 4 5 6 
#
# 1 137.6241 41.8428 62.2498 0.0000 3.3387 0.0000
# 2 41.8428 87.4702 39.8220 0.0000 0.1349 0.0000
# 3 62.2498 39.8220 154.7976 0.0000 -3.7316 0.0000
# 4 0.0000 0.0000 0.0000 24.8095 0.0000 2.7592
# 5 3.3387 0.1349 -3.7316 0.0000 60.9753 0.0000
# 6 0.0000 0.0000 0.0000 2.7592 0.0000 32.4089
#
#
#
# Elastic Compliance Matrix: (Units=1/GPa)
#
#
# Indices 1 2 3 4 5 6 
#
# 1 0.009650 -0.003218 -0.003070 0.000000 -0.000709 0.000000
# 2 -0.003218 0.014025 -0.002314 0.000000 0.000004 0.000000
# 3 -0.003070 -0.002314 0.008306 0.000000 0.000682 0.000000
# 4 0.000000 0.000000 0.000000 0.040693 0.000000 -0.003465
# 5 -0.000709 0.000004 0.000682 0.000000 0.016481 0.000000
# 6 0.000000 0.000000 0.000000 -0.003465 0.000000 0.031151
#
#
# Mechanical properties :
#
#
# Convention : Reuss Voigt Hill
#
# Bulk Modulus (GPa) = 67.66625 74.19122 70.92874
# Shear Modulus (GPa) = 35.10370 39.37055 37.23713
#
# Velocity S-wave (km/s) = 3.75451 3.97615 3.86691
# Velocity P-wave (km/s) = 6.77992 7.13246 6.95843
#
# Compressibility (1/GPa) = 0.01477842
#
# Stress axis : x y z
#
# Youngs Moduli (GPa) = 103.62380 71.30066 120.38969
#
# Poissons Ratio (x) = 0.22941 0.36961
# Poissons Ratio (y) = 0.33342 0.27858
# Poissons Ratio (z) = 0.31814 0.16499
#
# Static dielectric constant tensor:
#      x y z
#    x 2.053540 0.000000 -0.032830 
#    y 0.000000 2.403440 0.000000 
#    z -0.032830 0.000000 1.973880 
# 
# From -- ./inp_files/53635.got.cif
#   From: 2010.05.17/outbox.cif.g08.bks.cpg/sg15_27_cif.got.tgz:53635.got - 2010.06.03 18:47:42.
