data_PCOD9299811
_publ_section_title
;
Structure prediction by ZEFSAII (Michael W. Deem and Ramdas Pophale) SiO2 
 PCOD9299811
Probable space group: C 2/C
;
_chemical_formula_sum "Si O2"
_cell_formula_units_Z 24
_cell_length_a 18.774073
_cell_length_b 8.521189
_cell_length_c 11.720656
_cell_angle_alpha 90.000000
_cell_angle_beta 30.762973
_cell_angle_gamma 90.000000
_cell_volume 959.060007
_symmetry_space_group_name_H-M "C 2/C"
_symmetry_group_IT_number 15
_symmetry_cell_setting 'monoclinic'
loop_
_space_group_symop_operation_xyz
x,y,z
-x,y,1/2-z
-x,-y,-z
x,-y,1/2+z
1/2+x,1/2+y,z
1/2-x,1/2+y,1/2-z
1/2-x,1/2-y,-z
1/2+x,1/2-y,1/2+z
loop_
_atom_site_type_symbol
_atom_site_label
_atom_site_fract_x
_atom_site_fract_y
_atom_site_fract_z
Si Si1 0.856218 0.880275 0.899048
Si Si2 0.856173 0.453578 0.639738
Si Si3 0.711032 0.359067 0.161575
O O1 0.000000 0.816776 0.750000
O O2 0.887381 0.006543 0.755626
O O3 0.750000 0.750000 0.000000
O O4 0.771087 0.976999 0.110938
O O5 0.835449 0.539503 0.547221
O O6 0.842409 0.266570 0.672447
O O7 0.000000 0.500000 0.500000
O O8 0.750000 0.250000 0.000000
#
# Coordination Sequence:
#
# PCOD9299811 Si02
#       3
#     8   8   8
#     4  11  27  46  73 109 158 203 262 321 389 464
#     4  11  26  45  78 108 152 203 259 320 397 463
#     4  10  25  46  74 110 152 200 261 324 396 463
#
# _framework density 25.024502999999999
#
# number of rings (size 3 to 8) (size 9 to 14) (size 15 to 20)
#    0.000    1.333    0.000    2.000   18.667    4.000 
#    0.000    0.000    0.000    0.000    0.000    0.000 
#    0.000    0.000    0.000    0.000    0.000    0.000 
#
# Total GULP energy -67114.039564 kJ/mol
# GULP energy per Si atom -5592.836630 kJ/mol
# Density = 2.496755 g / cm^3
# Si number density = 25.024503 Si / 1000 Ang^3
#
#
#
# Elastic Constant Matrix: (Units=GPa)
#
#
# Indices 1 2 3 4 5 6 
#
# 1 155.4459 86.4645 59.3073 0.0000 -32.0005 0.0000
# 2 86.4645 206.0207 44.6987 0.0000 -20.6316 0.0000
# 3 59.3073 44.6987 118.1113 0.0000 -23.6528 0.0000
# 4 0.0000 0.0000 0.0000 22.2259 0.0000 -1.3445
# 5 -32.0005 -20.6316 -23.6528 0.0000 61.8111 0.0000
# 6 0.0000 0.0000 0.0000 -1.3445 0.0000 83.2285
#
#
#
# Elastic Compliance Matrix: (Units=1/GPa)
#
#
# Indices 1 2 3 4 5 6 
#
# 1 0.010065 -0.003229 -0.003254 0.000000 0.002888 0.000000
# 2 -0.003229 0.006392 -0.000764 0.000000 0.000170 0.000000
# 3 -0.003254 -0.000764 0.010831 0.000000 0.002205 0.000000
# 4 0.000000 0.000000 0.000000 0.045037 0.000000 0.000728
# 5 0.002888 0.000170 0.002205 0.000000 0.018574 0.000000
# 6 0.000000 0.000000 0.000000 0.000728 0.000000 0.012027
#
#
# Mechanical properties :
#
#
# Convention : Reuss Voigt Hill
#
# Bulk Modulus (GPa) = 78.15399 95.61322 86.88361
# Shear Modulus (GPa) = 41.09046 52.72693 46.90869
#
# Velocity S-wave (km/s) = 4.05657 4.59520 4.33426
# Velocity P-wave (km/s) = 7.29656 8.15140 7.73579
#
# Compressibility (1/GPa) = 0.01279525
#
# Stress axis : x y z
#
# Youngs Moduli (GPa) = 99.35302 156.45210 92.32826
#
# Poissons Ratio (x) = 0.50520 0.30040
# Poissons Ratio (y) = 0.32082 0.07050
# Poissons Ratio (z) = 0.32326 0.11946
#
# Static dielectric constant tensor:
#      x y z
#    x 2.049460 0.000000 0.046250 
#    y 0.000000 1.985180 0.000000 
#    z 0.046250 0.000000 1.899440 
# 
# From -- ./inp_files/45495.got.cif
#   From: 2010.05.17/outbox.cif.g08.bks.cpg/sg15_23_cif.got.tgz:45495.got - 2010.06.03 18:47:42.
