data_PCOD9299600
_publ_section_title
;
Structure prediction by ZEFSAII (Michael W. Deem and Ramdas Pophale) SiO2 
 PCOD9299600
Probable space group: C 2/C
;
_chemical_formula_sum "Si O2"
_cell_formula_units_Z 40
_cell_length_a 13.579735
_cell_length_b 13.481749
_cell_length_c 14.597153
_cell_angle_alpha 90.000000
_cell_angle_beta 41.222324
_cell_angle_gamma 90.000000
_cell_volume 1761.082174
_symmetry_space_group_name_H-M "C 2/C"
_symmetry_group_IT_number 15
_symmetry_cell_setting 'monoclinic'
loop_
_space_group_symop_operation_xyz
x,y,z
-x,y,1/2-z
-x,-y,-z
x,-y,1/2+z
1/2+x,1/2+y,z
1/2-x,1/2+y,1/2-z
1/2-x,1/2-y,-z
1/2+x,1/2-y,1/2+z
loop_
_atom_site_type_symbol
_atom_site_label
_atom_site_fract_x
_atom_site_fract_y
_atom_site_fract_z
Si Si1 0.632961 0.109860 0.720398
Si Si2 0.000000 0.415303 0.750000
Si Si3 0.051197 0.057864 0.057508
Si Si4 0.326349 0.717468 0.183329
Si Si5 0.000000 0.085076 0.750000
Si Si6 0.999271 0.746639 0.384734
O O1 0.500000 0.150684 0.750000
O O2 0.800224 0.119913 0.566630
O O3 0.628824 0.172383 0.815233
O O4 0.601958 0.991417 0.736790
O O5 0.926153 0.338862 0.873103
O O6 0.917542 0.133251 0.172933
O O7 0.084248 0.986544 0.120284
O O8 0.000000 0.000000 0.000000
O O9 0.150889 0.702508 0.320183
O O10 0.384088 0.711630 0.038572
O O11 0.933113 0.163989 0.724747
#
# Coordination Sequence:
#
# PCOD9299600 Si02
#       6
#     8   4   8   8   4   8
#     4  10  25  44  66 100 139 184 229 284 351 418
#     4   9  24  43  64  98 140 173 238 277 350 412
#     4  12  24  47  69 105 142 185 234 287 351 422
#     4  12  24  45  69 101 144 176 241 279 353 412
#     4  11  26  43  74 102 142 181 240 283 352 410
#     4  11  25  42  72 103 134 190 225 295 339 414
#
# _framework density 22.713307
#
# number of rings (size 3 to 8) (size 9 to 14) (size 15 to 20)
#    0.600    0.400    4.000    1.200    4.200    4.800 
#    0.000    0.000    0.000    0.000    0.000    0.000 
#    0.000    0.000    0.000    0.000    0.000    0.000 
#
# Total GULP energy -111431.840772 kJ/mol
# GULP energy per Si atom -5571.592039 kJ/mol
# Density = 2.266161 g / cm^3
# Si number density = 22.713307 Si / 1000 Ang^3
#
#
#
# Elastic Constant Matrix: (Units=GPa)
#
#
# Indices 1 2 3 4 5 6 
#
# 1 71.9368 19.5178 23.5841 0.0000 -6.3405 0.0000
# 2 19.5178 99.2525 13.3838 0.0000 13.5631 0.0000
# 3 23.5841 13.3838 58.2605 0.0000 0.1625 0.0000
# 4 0.0000 0.0000 0.0000 7.8619 0.0000 14.2684
# 5 -6.3405 13.5631 0.1625 0.0000 38.9927 0.0000
# 6 0.0000 0.0000 0.0000 14.2684 0.0000 31.0921
#
#
#
# Elastic Compliance Matrix: (Units=1/GPa)
#
#
# Indices 1 2 3 4 5 6 
#
# 1 0.017116 -0.003054 -0.006238 0.000000 0.003871 0.000000
# 2 -0.003054 0.011475 -0.001388 0.000000 -0.004482 0.000000
# 3 -0.006238 -0.001388 0.020010 0.000000 -0.000615 0.000000
# 4 0.000000 0.000000 0.000000 0.761064 0.000000 -0.349259
# 5 0.003871 -0.004482 -0.000615 0.000000 0.027837 0.000000
# 6 0.000000 0.000000 0.000000 -0.349259 0.000000 0.192440
#
#
# Mechanical properties :
#
#
# Convention : Reuss Voigt Hill
#
# Bulk Modulus (GPa) = 36.70668 38.04682 37.37675
# Shear Modulus (GPa) = 4.71528 27.12028 15.91778
#
# Velocity S-wave (km/s) = 1.44240 3.45922 2.65016
# Velocity P-wave (km/s) = 4.35545 5.72208 5.08489
#
# Compressibility (1/GPa) = 0.02724300
#
# Stress axis : x y z
#
# Youngs Moduli (GPa) = 58.42526 87.14259 49.97531
#
# Poissons Ratio (x) = 0.26611 0.31174
# Poissons Ratio (y) = 0.17841 0.06934
# Poissons Ratio (z) = 0.36445 0.12091
#
# Static dielectric constant tensor:
#      x y z
#    x 1.882460 0.000000 0.011220 
#    y 0.000000 1.872710 0.000000 
#    z 0.011220 0.000000 1.795560 
# 
# From -- ./inp_files/153776.got.cif
#   From: 2010.05.17/outbox.cif.g08.bks.cpg/sg15_77_cif.got.tgz:153776.got - 2010.06.03 18:47:42.
