data_PCOD9299882
_publ_section_title
;
Structure prediction by ZEFSAII (Michael W. Deem and Ramdas Pophale) SiO2 
 PCOD9299882
Probable space group: C 2/C
;
_chemical_formula_sum "Si O2"
_cell_formula_units_Z 36
_cell_length_a 5.144282
_cell_length_b 25.503399
_cell_length_c 11.263815
_cell_angle_alpha 90.000000
_cell_angle_beta 79.780870
_cell_angle_gamma 90.000000
_cell_volume 1454.332300
_symmetry_space_group_name_H-M "C 2/C"
_symmetry_group_IT_number 15
_symmetry_cell_setting 'monoclinic'
loop_
_space_group_symop_operation_xyz
x,y,z
-x,y,1/2-z
-x,-y,-z
x,-y,1/2+z
1/2+x,1/2+y,z
1/2-x,1/2+y,1/2-z
1/2-x,1/2-y,-z
1/2+x,1/2-y,1/2+z
loop_
_atom_site_type_symbol
_atom_site_label
_atom_site_fract_x
_atom_site_fract_y
_atom_site_fract_z
Si Si1 0.339831 0.997031 0.639616
Si Si2 0.763518 0.765337 0.862171
Si Si3 0.306485 0.116129 0.079951
Si Si4 0.000000 0.182771 0.750000
Si Si5 0.863403 0.898519 0.424265
O O1 0.500000 0.007064 0.750000
O O2 0.233351 0.937716 0.652398
O O3 0.500000 0.000000 0.500000
O O4 0.132714 0.043012 0.627659
O O5 0.731976 0.827895 0.855221
O O6 0.533918 0.725377 0.847266
O O7 0.000000 0.751155 0.750000
O O8 0.750000 0.750000 0.000000
O O9 0.618142 0.109755 0.031503
O O10 0.131463 0.115192 0.972920
O O11 0.799055 0.141081 0.821665
#
# Coordination Sequence:
#
# PCOD9299882 Si02
#       5
#     8   8   8   4   8
#     4  10  25  47  77 112 155 202 261 326 399 472
#     4  12  28  49  77 114 159 209 267 329 399 474
#     4  11  26  50  75 114 157 202 263 331 398 464
#     4  12  28  44  82 104 160 204 272 310 398 478
#     4  11  26  48  78 110 154 211 262 321 392 484
#
# _framework density 24.753627999999999
#
# number of rings (size 3 to 8) (size 9 to 14) (size 15 to 20)
#    0.000    0.889    2.222    2.000   10.889    3.556 
#    2.000    0.000    0.000    0.000    0.000    0.000 
#    0.000    0.000    0.000    0.000    0.000    0.000 
#
# Total GULP energy -100263.817329 kJ/mol
# GULP energy per Si atom -5570.212074 kJ/mol
# Density = 2.469729 g / cm^3
# Si number density = 24.753628 Si / 1000 Ang^3
#
#
#
# Elastic Constant Matrix: (Units=GPa)
#
#
# Indices 1 2 3 4 5 6 
#
# 1 31.7908 0.2036 3.6519 0.0000 -5.7023 0.0000
# 2 0.2036 214.4579 -3.2117 0.0000 0.9611 0.0000
# 3 3.6519 -3.2117 94.3351 0.0000 -1.5592 0.0000
# 4 0.0000 0.0000 0.0000 137.5099 0.0000 78.3574
# 5 -5.7023 0.9611 -1.5592 0.0000 50.4994 0.0000
# 6 0.0000 0.0000 0.0000 78.3574 0.0000 80.7930
#
#
#
# Elastic Compliance Matrix: (Units=1/GPa)
#
#
# Indices 1 2 3 4 5 6 
#
# 1 0.032239 -0.000065 -0.001191 0.000000 0.003605 0.000000
# 2 -0.000065 0.004666 0.000160 0.000000 -0.000091 0.000000
# 3 -0.001191 0.000160 0.010655 0.000000 0.000191 0.000000
# 4 0.000000 0.000000 0.000000 0.016256 0.000000 -0.015766
# 5 0.003605 -0.000091 0.000191 0.000000 0.020217 0.000000
# 6 0.000000 0.000000 0.000000 -0.015766 0.000000 0.027668
#
#
# Mechanical properties :
#
#
# Convention : Reuss Voigt Hill
#
# Bulk Modulus (GPa) = 22.04121 37.98571 30.01346
# Shear Modulus (GPa) = 38.75493 76.42313 57.58903
#
# Velocity S-wave (km/s) = 3.96109 5.56242 4.82860
# Velocity P-wave (km/s) = 5.46296 7.52548 6.57559
#
# Compressibility (1/GPa) = 0.04536957
#
# Stress axis : x y z
#
# Youngs Moduli (GPa) = 31.01792 214.32624 93.85079
#
# Poissons Ratio (x) = 0.01384 0.11175
# Poissons Ratio (y) = 0.00200 -0.01500
# Poissons Ratio (z) = 0.03693 -0.03426
#
# Static dielectric constant tensor:
#      x y z
#    x 2.053790 0.000000 -0.077960 
#    y 0.000000 1.429040 0.000000 
#    z -0.077960 0.000000 1.884760 
# 
# From -- ./inp_files/72598.got.cif
#   From: 2010.05.17/outbox.cif.g08.bks.cpg/sg15_37_cif.got.tgz:72598.got - 2010.06.03 18:47:42.
