data_PCOD9299283
_publ_section_title
;
Structure prediction by ZEFSAII (Michael W. Deem and Ramdas Pophale) SiO2 
 PCOD9299283
Probable space group: C 2/C
;
_chemical_formula_sum "Si O2"
_cell_formula_units_Z 60
_cell_length_a 30.982654
_cell_length_b 11.769880
_cell_length_c 9.452774
_cell_angle_alpha 90.000000
_cell_angle_beta 60.991529
_cell_angle_gamma 90.000000
_cell_volume 3014.627022
_symmetry_space_group_name_H-M "C 2/C"
_symmetry_group_IT_number 15
_symmetry_cell_setting 'monoclinic'
loop_
_space_group_symop_operation_xyz
x,y,z
-x,y,1/2-z
-x,-y,-z
x,-y,1/2+z
1/2+x,1/2+y,z
1/2-x,1/2+y,1/2-z
1/2-x,1/2-y,-z
1/2+x,1/2-y,1/2+z
loop_
_atom_site_type_symbol
_atom_site_label
_atom_site_fract_x
_atom_site_fract_y
_atom_site_fract_z
Si Si1 0.559963 0.890920 0.892677
Si Si2 0.648643 0.961063 0.366558
Si Si3 0.138911 0.797475 0.246093
Si Si4 0.292937 0.275869 0.096358
Si Si5 0.183358 0.763041 0.875526
Si Si6 0.790284 0.526821 0.978609
Si Si7 0.317667 0.466593 0.826086
Si Si8 0.500000 0.023659 0.750000
O O1 0.587148 0.770151 0.824947
O O2 0.602344 0.977258 0.877333
O O3 0.535635 0.941320 0.787800
O O4 0.523847 0.898830 0.087149
O O5 0.646297 0.825753 0.360329
O O6 0.663701 0.986706 0.501819
O O7 0.696408 0.001185 0.202250
O O8 0.166554 0.762723 0.346134
O O9 0.141752 0.935048 0.232909
O O10 0.171387 0.761824 0.059271
O O11 0.238721 0.277741 0.252749
O O12 0.289566 0.162431 0.006079
O O13 0.309506 0.382903 0.973838
O O14 0.175539 0.885681 0.819538
O O15 0.736994 0.478819 0.102203
#
# Coordination Sequence:
#
# PCOD9299283 Si02
#       8
#     8   8   8   8   8   8   8   4
#     4  11  24  43  68 103 116 155 196 269 341 404
#     4  12  21  37  61  92 128 160 218 258 305 366
#     4  12  24  36  61  93 123 160 228 260 307 376
#     4  11  21  40  53  85 133 188 226 244 290 342
#     4  11  22  37  55  87 133 186 216 255 290 341
#     4  11  22  34  55  85 133 180 218 259 286 343
#     4  11  23  39  53  83 134 190 222 251 288 344
#     4  10  24  48  72  92 132 142 190 276 368 404
#
# _framework density 19.902958999999999
#
# number of rings (size 3 to 8) (size 9 to 14) (size 15 to 20)
#    0.000    0.800    4.000    5.200    3.733    0.000 
#    0.000    0.000    0.000    0.000    0.000   31.733 
#    0.000    0.000    0.000    0.000    0.000    0.000 
#
# Total GULP energy -167501.164211 kJ/mol
# GULP energy per Si atom -5583.372140 kJ/mol
# Density = 1.985766 g / cm^3
# Si number density = 19.902959 Si / 1000 Ang^3
#
#
#
# Elastic Constant Matrix: (Units=GPa)
#
#
# Indices 1 2 3 4 5 6 
#
# 1 73.7944 26.3573 20.8138 0.0000 8.8448 0.0000
# 2 26.3573 89.9598 17.4706 0.0000 -5.0247 0.0000
# 3 20.8138 17.4706 101.6039 0.0000 9.0786 0.0000
# 4 0.0000 0.0000 0.0000 28.5718 0.0000 -0.2936
# 5 8.8448 -5.0247 9.0786 0.0000 25.2844 0.0000
# 6 0.0000 0.0000 0.0000 -0.2936 0.0000 34.0313
#
#
#
# Elastic Compliance Matrix: (Units=1/GPa)
#
#
# Indices 1 2 3 4 5 6 
#
# 1 0.016557 -0.004793 -0.002030 0.000000 -0.006015 0.000000
# 2 -0.004793 0.013127 -0.001713 0.000000 0.004900 0.000000
# 3 -0.002030 -0.001713 0.010868 0.000000 -0.003533 0.000000
# 4 0.000000 0.000000 0.000000 0.035003 0.000000 0.000302
# 5 -0.006015 0.004900 -0.003533 0.000000 0.043897 0.000000
# 6 0.000000 0.000000 0.000000 0.000302 0.000000 0.029387
#
#
# Mechanical properties :
#
#
# Convention : Reuss Voigt Hill
#
# Bulk Modulus (GPa) = 42.59004 43.84903 43.21954
# Shear Modulus (GPa) = 28.77927 30.95860 29.86894
#
# Velocity S-wave (km/s) = 3.80673 3.94823 3.87813
# Velocity P-wave (km/s) = 6.38489 6.54706 6.46648
#
# Compressibility (1/GPa) = 0.02347967
#
# Stress axis : x y z
#
# Youngs Moduli (GPa) = 60.39922 76.18079 92.01118
#
# Poissons Ratio (x) = 0.36510 0.18679
# Poissons Ratio (y) = 0.28947 0.15763
# Poissons Ratio (z) = 0.12262 0.13051
#
# Static dielectric constant tensor:
#      x y z
#    x 1.690160 0.000000 -0.004300 
#    y 0.000000 1.783400 0.000000 
#    z -0.004300 0.000000 1.754710 
# 
# From -- ./inp_files/69355.got.cif
#   From: 2010.05.17/outbox.cif.g08.bks.cpg/sg15_35_cif.got.tgz:69355.got - 2010.06.03 18:47:42.
