data_PCOD9299038
_publ_section_title
;
Structure prediction by ZEFSAII (Michael W. Deem and Ramdas Pophale) SiO2 
 PCOD9299038
Probable space group: C 2/C
;
_chemical_formula_sum "Si O2"
_cell_formula_units_Z 44
_cell_length_a 8.304370
_cell_length_b 22.898213
_cell_length_c 12.230673
_cell_angle_alpha 90.000000
_cell_angle_beta 108.792859
_cell_angle_gamma 90.000000
_cell_volume 2201.740643
_symmetry_space_group_name_H-M "C 2/C"
_symmetry_group_IT_number 15
_symmetry_cell_setting 'monoclinic'
loop_
_space_group_symop_operation_xyz
x,y,z
-x,y,1/2-z
-x,-y,-z
x,-y,1/2+z
1/2+x,1/2+y,z
1/2-x,1/2+y,1/2-z
1/2-x,1/2-y,-z
1/2+x,1/2-y,1/2+z
loop_
_atom_site_type_symbol
_atom_site_label
_atom_site_fract_x
_atom_site_fract_y
_atom_site_fract_z
Si Si1 0.247214 0.811860 0.058387
Si Si2 0.573332 0.652758 0.143093
Si Si3 0.000000 0.454092 0.250000
Si Si4 0.899295 0.373953 0.415761
Si Si5 0.798092 0.230542 0.705859
Si Si6 0.353260 0.067544 0.137367
O O1 0.413742 0.846390 0.057464
O O2 0.250472 0.796212 0.186589
O O3 0.250000 0.750000 0.000000
O O4 0.077518 0.842495 0.977875
O O5 0.500000 0.652952 0.250000
O O6 0.695327 0.709885 0.161697
O O7 0.679880 0.594645 0.143161
O O8 0.112173 0.415482 0.192764
O O9 0.120730 0.498104 0.344728
O O10 0.765433 0.320640 0.388722
O O11 0.883623 0.410940 0.521870
O O12 0.000000 0.240369 0.750000
O O13 0.500000 0.092167 0.250000
#
# Coordination Sequence:
#
# PCOD9299038 Si02
#       6
#     8   8   4   8   8   8
#     4  12  23  38  66  98 133 179 214 272 345 403
#     4  12  23  41  64 100 140 171 224 275 340 399
#     4  10  24  46  74  94 132 184 228 272 338 394
#     4  12  22  48  69  95 140 175 228 278 337 404
#     4  12  25  39  66 101 135 179 218 278 339 403
#     4  10  25  41  69 100 125 180 227 277 327 393
#
# _framework density 19.984190000000002
#
# number of rings (size 3 to 8) (size 9 to 14) (size 15 to 20)
#    0.545    0.000    5.455    3.273    2.545    1.455 
#    0.000    1.818    0.000    0.000    0.000    0.000 
#    0.000    0.000    0.000    0.000    0.000    0.000 
#
# Total GULP energy -122959.733934 kJ/mol
# GULP energy per Si atom -5589.078815 kJ/mol
# Density = 1.993871 g / cm^3
# Si number density = 19.984190 Si / 1000 Ang^3
#
#
#
# Elastic Constant Matrix: (Units=GPa)
#
#
# Indices 1 2 3 4 5 6 
#
# 1 87.2733 26.4783 1.7415 0.0000 10.0827 0.0000
# 2 26.4783 77.8666 0.6695 0.0000 -7.9374 0.0000
# 3 1.7415 0.6695 58.5594 0.0000 -11.8544 0.0000
# 4 0.0000 0.0000 0.0000 32.0510 0.0000 5.0748
# 5 10.0827 -7.9374 -11.8544 0.0000 41.6610 0.0000
# 6 0.0000 0.0000 0.0000 5.0748 0.0000 26.8448
#
#
#
# Elastic Compliance Matrix: (Units=1/GPa)
#
#
# Indices 1 2 3 4 5 6 
#
# 1 0.013554 -0.005068 -0.001278 0.000000 -0.004610 0.000000
# 2 -0.005068 0.015000 0.000855 0.000000 0.004328 0.000000
# 3 -0.001278 0.000855 0.018252 0.000000 0.005666 0.000000
# 4 0.000000 0.000000 0.000000 0.032163 0.000000 -0.006080
# 5 -0.004610 0.004328 0.005666 0.000000 0.027556 0.000000
# 6 0.000000 0.000000 0.000000 -0.006080 0.000000 0.038401
#
#
# Mechanical properties :
#
#
# Convention : Reuss Voigt Hill
#
# Bulk Modulus (GPa) = 27.91451 31.27531 29.59491
# Shear Modulus (GPa) = 29.78899 33.09868 31.44384
#
# Velocity S-wave (km/s) = 3.86505 4.07411 3.97096
# Velocity P-wave (km/s) = 5.82381 6.14941 5.98882
#
# Compressibility (1/GPa) = 0.03582366
#
# Stress axis : x y z
#
# Youngs Moduli (GPa) = 73.77968 66.66862 54.78893
#
# Poissons Ratio (x) = 0.33787 0.07003
# Poissons Ratio (y) = 0.37390 -0.04686
# Poissons Ratio (z) = 0.09431 -0.05702
#
# Static dielectric constant tensor:
#      x y z
#    x 1.773600 0.000000 0.020850 
#    y 0.000000 1.696290 0.000000 
#    z 0.020850 0.000000 1.712650 
# 
# From -- ./inp_files/79492.got.cif
#   From: 2010.05.17/outbox.cif.g08.bks.cpg/sg15_40_cif.got.tgz:79492.got - 2010.06.03 18:47:42.
