data_PCOD9299079
_publ_section_title
;
Structure prediction by ZEFSAII (Michael W. Deem and Ramdas Pophale) SiO2 
 PCOD9299079
Probable space group: C 2/C
;
_chemical_formula_sum "Si O2"
_cell_formula_units_Z 44
_cell_length_a 30.983504
_cell_length_b 7.776480
_cell_length_c 8.479050
_cell_angle_alpha 90.000000
_cell_angle_beta 83.967030
_cell_angle_gamma 90.000000
_cell_volume 2031.649554
_symmetry_space_group_name_H-M "C 2/C"
_symmetry_group_IT_number 15
_symmetry_cell_setting 'monoclinic'
loop_
_space_group_symop_operation_xyz
x,y,z
-x,y,1/2-z
-x,-y,-z
x,-y,1/2+z
1/2+x,1/2+y,z
1/2-x,1/2+y,1/2-z
1/2-x,1/2-y,-z
1/2+x,1/2-y,1/2+z
loop_
_atom_site_type_symbol
_atom_site_label
_atom_site_fract_x
_atom_site_fract_y
_atom_site_fract_z
Si Si1 0.886432 0.769520 0.042921
Si Si2 0.618816 0.617017 0.594066
Si Si3 0.063521 0.404847 0.469610
Si Si4 0.500000 0.002560 0.250000
Si Si5 0.202470 0.711942 0.956122
Si Si6 0.703400 0.825766 0.076153
O O1 0.887890 0.826040 0.224183
O O2 0.912338 0.589546 0.021990
O O3 0.836827 0.753910 0.003384
O O4 0.901510 0.931734 0.933422
O O5 0.597136 0.756286 0.487319
O O6 0.669515 0.643966 0.533004
O O7 0.038595 0.397751 0.314959
O O8 0.024530 0.387821 0.609802
O O9 0.200181 0.701450 0.766456
O O10 0.250000 0.750000 0.000000
O O11 0.195109 0.525917 0.037802
O O12 0.750000 0.750000 0.000000
#
# Coordination Sequence:
#
# PCOD9299079 Si02
#       6
#     8   8   8   4   8   8
#     4  12  26  44  72 105 142 189 237 288 354 423
#     4  12  26  44  72 105 142 189 237 288 354 423
#     4  11  24  48  74 104 144 182 236 288 368 417
#     4  10  24  46  78 102 138 186 228 302 354 436
#     4  12  25  43  67  99 142 187 237 291 345 411
#     4  12  25  43  67  99 142 187 237 291 345 411
#
# _framework density 21.657277000000001
#
# number of rings (size 3 to 8) (size 9 to 14) (size 15 to 20)
#    0.000    0.364    3.636    5.455    5.091    0.000 
#    0.000    5.455    0.000    0.000    0.000    0.000 
#    0.000    0.000    0.000    0.000    0.000    0.000 
#
# Total GULP energy -122927.811977 kJ/mol
# GULP energy per Si atom -5587.627817 kJ/mol
# Density = 2.160798 g / cm^3
# Si number density = 21.657277 Si / 1000 Ang^3
#
#
#
# Elastic Constant Matrix: (Units=GPa)
#
#
# Indices 1 2 3 4 5 6 
#
# 1 97.1577 22.3490 4.2523 0.0000 28.1825 0.0000
# 2 22.3490 114.8543 -22.8237 0.0000 13.9622 0.0000
# 3 4.2523 -22.8237 36.6336 0.0000 12.3984 0.0000
# 4 0.0000 0.0000 0.0000 28.4531 0.0000 -2.0862
# 5 28.1825 13.9622 12.3984 0.0000 46.0997 0.0000
# 6 0.0000 0.0000 0.0000 -2.0862 0.0000 5.8322
#
#
#
# Elastic Compliance Matrix: (Units=1/GPa)
#
#
# Indices 1 2 3 4 5 6 
#
# 1 0.012787 -0.001596 0.000004 0.000000 -0.007335 0.000000
# 2 -0.001596 0.011383 0.008927 0.000000 -0.004873 0.000000
# 3 0.000004 0.008927 0.037156 0.000000 -0.012699 0.000000
# 4 0.000000 0.000000 0.000000 0.036092 0.000000 0.012910
# 5 -0.007335 -0.004873 -0.012699 0.000000 0.031068 0.000000
# 6 0.000000 0.000000 0.000000 0.012910 0.000000 0.176079
#
#
# Mechanical properties :
#
#
# Convention : Reuss Voigt Hill
#
# Bulk Modulus (GPa) = 13.15845 28.46677 20.81261
# Shear Modulus (GPa) = 15.86156 32.40154 24.13155
#
# Velocity S-wave (km/s) = 2.70921 3.87215 3.34165
# Velocity P-wave (km/s) = 3.98439 5.75883 4.95174
#
# Compressibility (1/GPa) = 0.07599679
#
# Stress axis : x y z
#
# Youngs Moduli (GPa) = 78.20380 87.84684 26.91330
#
# Poissons Ratio (x) = 0.14018 -0.00011
# Poissons Ratio (y) = 0.12479 -0.24025
# Poissons Ratio (z) = -0.00031 -0.78418
#
# Static dielectric constant tensor:
#      x y z
#    x 1.737400 0.000000 -0.155660 
#    y 0.000000 1.803040 0.000000 
#    z -0.155660 0.000000 1.498440 
# 
# From -- ./inp_files/68377.got.cif
#   From: 2010.05.17/outbox.cif.g08.bks.cpg/sg15_35_cif.got.tgz:68377.got - 2010.06.03 18:47:42.
