data_PCOD9299479
_publ_section_title
;
Structure prediction by ZEFSAII (Michael W. Deem and Ramdas Pophale) SiO2 
 PCOD9299479
Probable space group: C 2/C
;
_chemical_formula_sum "Si O2"
_cell_formula_units_Z 32
_cell_length_a 5.105030
_cell_length_b 9.477075
_cell_length_c 29.579500
_cell_angle_alpha 90.000000
_cell_angle_beta 74.462193
_cell_angle_gamma 90.000000
_cell_volume 1378.778129
_symmetry_space_group_name_H-M "C 2/C"
_symmetry_group_IT_number 15
_symmetry_cell_setting 'monoclinic'
loop_
_space_group_symop_operation_xyz
x,y,z
-x,y,1/2-z
-x,-y,-z
x,-y,1/2+z
1/2+x,1/2+y,z
1/2-x,1/2+y,1/2-z
1/2-x,1/2-y,-z
1/2+x,1/2-y,1/2+z
loop_
_atom_site_type_symbol
_atom_site_label
_atom_site_fract_x
_atom_site_fract_y
_atom_site_fract_z
Si Si1 0.073496 0.672941 0.176199
Si Si2 0.222092 0.087668 0.017856
Si Si3 0.866187 0.945166 0.209876
Si Si4 0.851424 0.886684 0.872908
O O1 0.870916 0.777055 0.211845
O O2 0.105740 0.525369 0.202020
O O3 0.393529 0.709958 0.155243
O O4 0.937169 0.658342 0.133508
O O5 0.146189 0.093746 0.074228
O O6 0.250000 0.250000 0.000000
O O7 0.500000 0.000000 0.000000
O O8 0.000000 0.000000 0.000000
O O9 0.075172 0.973218 0.158698
O O10 0.000000 0.999133 0.250000
#
# Coordination Sequence:
#
# PCOD9299479 Si02
#       4
#     8   8   8   8
#     4  10  25  41  69  96 139 178 230 283 353 409
#     4  12  28  46  77 106 144 187 242 294 360 425
#     4  10  26  43  71  98 140 181 237 284 353 418
#     4  10  26  45  70 100 142 180 234 289 355 414
#
# _framework density 23.208955
#
# number of rings (size 3 to 8) (size 9 to 14) (size 15 to 20)
#    1.500    0.000    0.000    2.250   14.000    0.000 
#    0.000    0.000    0.000    0.000    0.000    0.000 
#    0.000    0.000    0.000    0.000    0.000    0.000 
#
# Total GULP energy -89164.508856 kJ/mol
# GULP energy per Si atom -5572.781804 kJ/mol
# Density = 2.315613 g / cm^3
# Si number density = 23.208955 Si / 1000 Ang^3
#
#
#
# Elastic Constant Matrix: (Units=GPa)
#
#
# Indices 1 2 3 4 5 6 
#
# 1 169.3366 66.3711 45.9243 0.0000 34.4226 0.0000
# 2 66.3711 149.4828 38.4610 0.0000 20.5959 0.0000
# 3 45.9243 38.4610 167.3225 0.0000 38.8241 0.0000
# 4 0.0000 0.0000 0.0000 23.0174 0.0000 4.9044
# 5 34.4226 20.5959 38.8241 0.0000 48.3275 0.0000
# 6 0.0000 0.0000 0.0000 4.9044 0.0000 59.2845
#
#
#
# Elastic Compliance Matrix: (Units=1/GPa)
#
#
# Indices 1 2 3 4 5 6 
#
# 1 0.007998 -0.002843 -0.000616 0.000000 -0.003990 0.000000
# 2 -0.002843 0.008300 -0.000955 0.000000 -0.000746 0.000000
# 3 -0.000616 -0.000955 0.007582 0.000000 -0.005246 0.000000
# 4 0.000000 0.000000 0.000000 0.044225 0.000000 -0.003659
# 5 -0.003990 -0.000746 -0.005246 0.000000 0.028066 0.000000
# 6 0.000000 0.000000 0.000000 -0.003659 0.000000 0.017170
#
#
# Mechanical properties :
#
#
# Convention : Reuss Voigt Hill
#
# Bulk Modulus (GPa) = 66.42894 87.51720 76.97307
# Shear Modulus (GPa) = 39.31242 48.48492 43.89867
#
# Velocity S-wave (km/s) = 4.12010 4.57558 4.35380
# Velocity P-wave (km/s) = 7.16365 8.10585 7.64927
#
# Compressibility (1/GPa) = 0.01505368
#
# Stress axis : x y z
#
# Youngs Moduli (GPa) = 125.03421 120.47731 131.88990
#
# Poissons Ratio (x) = 0.34250 0.08121
# Poissons Ratio (y) = 0.35545 0.12591
# Poissons Ratio (z) = 0.07699 0.11502
#
# Static dielectric constant tensor:
#      x y z
#    x 1.652310 0.000000 0.210900 
#    y 0.000000 2.009670 0.000000 
#    z 0.210900 0.000000 1.618120 
# 
# From -- ./inp_files/304617.got.cif
#   From: 2010.05.17/outbox.cif.g08.bks.cpg/sg15_153_cif.got.tgz:304617.got - 2010.06.03 18:47:42.
