data_PCOD9299457
_publ_section_title
;
Structure prediction by ZEFSAII (Michael W. Deem and Ramdas Pophale) SiO2 
 PCOD9299457
Probable space group: C 2/C
;
_chemical_formula_sum "Si O2"
_cell_formula_units_Z 56
_cell_length_a 26.334286
_cell_length_b 9.410625
_cell_length_c 12.208385
_cell_angle_alpha 90.000000
_cell_angle_beta 105.194233
_cell_angle_gamma 90.000000
_cell_volume 2919.744459
_symmetry_space_group_name_H-M "C 2/C"
_symmetry_group_IT_number 15
_symmetry_cell_setting 'monoclinic'
loop_
_space_group_symop_operation_xyz
x,y,z
-x,y,1/2-z
-x,-y,-z
x,-y,1/2+z
1/2+x,1/2+y,z
1/2-x,1/2+y,1/2-z
1/2-x,1/2-y,-z
1/2+x,1/2-y,1/2+z
loop_
_atom_site_type_symbol
_atom_site_label
_atom_site_fract_x
_atom_site_fract_y
_atom_site_fract_z
Si Si1 0.196279 0.283288 0.326809
Si Si2 0.365881 0.561250 0.335352
Si Si3 0.320497 0.291726 0.433934
Si Si4 0.863655 0.504818 0.355117
Si Si5 0.442041 0.608105 0.737608
Si Si6 0.974932 0.386999 0.854577
Si Si7 0.580598 0.209137 0.489427
O O1 0.182881 0.151508 0.238832
O O2 0.258200 0.306165 0.376903
O O3 0.172973 0.244969 0.433552
O O4 0.170207 0.419521 0.253140
O O5 0.348473 0.435818 0.407799
O O6 0.397097 0.494440 0.251646
O O7 0.406227 0.672128 0.413425
O O8 0.340917 0.156165 0.376769
O O9 0.922762 0.523630 0.343089
O O10 0.873070 0.405712 0.467896
O O11 0.500000 0.541691 0.750000
O O12 0.454089 0.724606 0.837442
O O13 0.422631 0.703141 0.624944
O O14 0.000000 0.422732 0.750000
O O15 0.024811 0.373034 0.962797
#
# Coordination Sequence:
#
# PCOD9299457 Si02
#       7
#     8   8   8   8   8   8   8
#     4  10  25  41  57  92 117 143 211 249 280 358
#     4  11  20  40  60  84 118 158 190 240 300 345
#     4  11  23  40  64  84 117 159 192 249 301 336
#     4  11  21  39  62  86 115 160 190 240 301 345
#     4   9  19  35  54  83 116 150 190 233 280 350
#     4   9  19  35  56  86 119 148 188 236 280 355
#     4   9  21  35  56  87 121 149 195 238 280 355
#
# _framework density 19.179760000000002
#
# number of rings (size 3 to 8) (size 9 to 14) (size 15 to 20)
#    0.000    2.286    1.429    2.143    4.000    2.286 
#    2.571    1.429    0.000    9.429    0.000    0.000 
#    0.000    0.000    0.000    0.000    0.000    0.000 
#
# Total GULP energy -155951.726297 kJ/mol
# GULP energy per Si atom -5569.704511 kJ/mol
# Density = 1.913611 g / cm^3
# Si number density = 19.179760 Si / 1000 Ang^3
#
#
#
# Elastic Constant Matrix: (Units=GPa)
#
#
# Indices 1 2 3 4 5 6 
#
# 1 79.3367 32.0094 35.1282 0.0000 1.3636 0.0000
# 2 32.0094 86.2226 38.4709 0.0000 0.8425 0.0000
# 3 35.1282 38.4709 86.4700 0.0000 19.0503 0.0000
# 4 0.0000 0.0000 0.0000 15.4591 0.0000 4.7395
# 5 1.3636 0.8425 19.0503 0.0000 27.0329 0.0000
# 6 0.0000 0.0000 0.0000 4.7395 0.0000 22.8328
#
#
#
# Elastic Compliance Matrix: (Units=1/GPa)
#
#
# Indices 1 2 3 4 5 6 
#
# 1 0.016602 -0.003554 -0.005922 0.000000 0.003447 0.000000
# 2 -0.003554 0.015786 -0.006523 0.000000 0.004284 0.000000
# 3 -0.005922 -0.006523 0.019843 0.000000 -0.013481 0.000000
# 4 0.000000 0.000000 0.000000 0.069083 0.000000 -0.014340
# 5 0.003447 0.004284 -0.013481 0.000000 0.046185 0.000000
# 6 0.000000 0.000000 0.000000 -0.014340 0.000000 0.046773
#
#
# Mechanical properties :
#
#
# Convention : Reuss Voigt Hill
#
# Bulk Modulus (GPa) = 49.42986 51.47180 50.45083
# Shear Modulus (GPa) = 19.76162 22.82635 21.29398
#
# Velocity S-wave (km/s) = 3.21337 3.45356 3.33563
# Velocity P-wave (km/s) = 6.29249 6.54199 6.41845
#
# Compressibility (1/GPa) = 0.02023069
#
# Stress axis : x y z
#
# Youngs Moduli (GPa) = 60.23514 63.34684 50.39569
#
# Poissons Ratio (x) = 0.22516 0.29846
# Poissons Ratio (y) = 0.21410 0.32874
# Poissons Ratio (z) = 0.35673 0.41323
#
# Static dielectric constant tensor:
#      x y z
#    x 1.668830 0.000000 -0.002100 
#    y 0.000000 1.690410 0.000000 
#    z -0.002100 0.000000 1.697180 
# 
# From -- ./inp_files/121999.got.cif
#   From: 2010.05.17/outbox.cif.g08.bks.cpg/sg15_61_cif.got.tgz:121999.got - 2010.06.03 18:47:42.
