data_PCOD9299336
_publ_section_title
;
Structure prediction by ZEFSAII (Michael W. Deem and Ramdas Pophale) SiO2 
 PCOD9299336
Probable space group: C 2/C
;
_chemical_formula_sum "Si O2"
_cell_formula_units_Z 40
_cell_length_a 10.813227
_cell_length_b 31.303752
_cell_length_c 5.434376
_cell_angle_alpha 90.000000
_cell_angle_beta 74.549688
_cell_angle_gamma 90.000000
_cell_volume 1773.030420
_symmetry_space_group_name_H-M "C 2/C"
_symmetry_group_IT_number 15
_symmetry_cell_setting 'monoclinic'
loop_
_space_group_symop_operation_xyz
x,y,z
-x,y,1/2-z
-x,-y,-z
x,-y,1/2+z
1/2+x,1/2+y,z
1/2-x,1/2+y,1/2-z
1/2-x,1/2-y,-z
1/2+x,1/2-y,1/2+z
loop_
_atom_site_type_symbol
_atom_site_label
_atom_site_fract_x
_atom_site_fract_y
_atom_site_fract_z
Si Si1 0.821069 0.190897 0.185914
Si Si2 0.743225 0.385539 0.404779
Si Si3 0.085425 0.273886 0.500936
Si Si4 0.154921 0.524035 0.640269
Si Si5 0.500000 0.638631 0.750000
Si Si6 0.000000 0.654197 0.750000
O O1 0.776763 0.155578 0.406012
O O2 0.711896 0.202854 0.041582
O O3 0.867251 0.239159 0.225132
O O4 0.939625 0.167251 0.995227
O O5 0.772156 0.432919 0.483810
O O6 0.620808 0.386830 0.294018
O O7 0.882340 0.373878 0.222877
O O8 0.988062 0.310978 0.471110
O O9 0.000000 0.250165 0.750000
O O10 0.186968 0.490883 0.402407
O O11 0.000000 0.529996 0.750000
#
# Coordination Sequence:
#
# PCOD9299336 Si02
#       6
#     8   8   8   8   4   4
#     4  11  25  42  66  96 144 192 243 296 359 428
#     4  12  26  45  72 106 142 190 239 298 370 446
#     4  11  23  41  65  98 137 191 251 306 349 408
#     4  10  24  48  81 117 146 181 238 316 383 447
#     4  12  26  44  62 102 143 191 232 294 364 438
#     4  12  24  40  70 102 135 189 244 300 342 428
#
# _framework density 22.560245999999999
#
# number of rings (size 3 to 8) (size 9 to 14) (size 15 to 20)
#    0.000    0.800    6.000    0.600    5.600    0.800 
#    3.600    1.000    0.000    0.000    0.000    0.000 
#    0.000    0.000    0.000    0.000    0.000    0.000 
#
# Total GULP energy -111340.215974 kJ/mol
# GULP energy per Si atom -5567.010799 kJ/mol
# Density = 2.250890 g / cm^3
# Si number density = 22.560246 Si / 1000 Ang^3
#
#
#
# Elastic Constant Matrix: (Units=GPa)
#
#
# Indices 1 2 3 4 5 6 
#
# 1 113.7216 32.8564 7.4313 0.0000 1.7214 0.0000
# 2 32.8564 96.2044 14.4379 0.0000 3.9527 0.0000
# 3 7.4313 14.4379 50.8482 0.0000 1.2688 0.0000
# 4 0.0000 0.0000 0.0000 16.9928 0.0000 4.2356
# 5 1.7214 3.9527 1.2688 0.0000 24.4890 0.0000
# 6 0.0000 0.0000 0.0000 4.2356 0.0000 -19.5755
#
#
#
# Elastic Compliance Matrix: (Units=1/GPa)
#
#
# Indices 1 2 3 4 5 6 
#
# 1 0.009769 -0.003256 -0.000500 0.000000 -0.000135 0.000000
# 2 -0.003256 0.012005 -0.002894 0.000000 -0.001559 0.000000
# 3 -0.000500 -0.002894 0.020575 0.000000 -0.000564 0.000000
# 4 0.000000 0.000000 0.000000 0.055837 0.000000 0.012081
# 5 -0.000135 -0.001559 -0.000564 0.000000 0.041125 0.000000
# 6 0.000000 0.000000 0.000000 0.012081 0.000000 -0.048470
#
#
# Mechanical properties :
#
#
# Convention : Reuss Voigt Hill
#
# Bulk Modulus (GPa) = 34.42371 41.13613 37.77992
# Shear Modulus (GPa) = 43.92789 18.11784 31.02286
#
# Velocity S-wave (km/s) = 4.41742 2.83695 3.71227
# Velocity P-wave (km/s) = 6.42728 5.38559 5.92935
#
# Compressibility (1/GPa) = 0.02904974
#
# Stress axis : x y z
#
# Youngs Moduli (GPa) = 102.36723 83.29996 48.60215
#
# Poissons Ratio (x) = 0.27120 0.02429
# Poissons Ratio (y) = 0.33328 0.14065
# Poissons Ratio (z) = 0.05117 0.24107
#
# Static dielectric constant tensor:
#      x y z
#    x 1.928510 0.000000 0.054410 
#    y 0.000000 1.832320 0.000000 
#    z 0.054410 0.000000 1.955010 
# 
# From -- ./inp_files/5728.got.cif
#   From: 2010.05.17/outbox.cif.g08.bks.cpg/sg15_3_cif.got.tgz:5728.got - 2010.06.03 18:47:42.
