data_PCOD9299406
_publ_section_title
;
Structure prediction by ZEFSAII (Michael W. Deem and Ramdas Pophale) SiO2 
 PCOD9299406
Probable space group: C 2/C
;
_chemical_formula_sum "Si O2"
_cell_formula_units_Z 40
_cell_length_a 8.397097
_cell_length_b 26.366963
_cell_length_c 12.913190
_cell_angle_alpha 90.000000
_cell_angle_beta 32.226500
_cell_angle_gamma 90.000000
_cell_volume 1524.642472
_symmetry_space_group_name_H-M "C 2/C"
_symmetry_group_IT_number 15
_symmetry_cell_setting 'monoclinic'
loop_
_space_group_symop_operation_xyz
x,y,z
-x,y,1/2-z
-x,-y,-z
x,-y,1/2+z
1/2+x,1/2+y,z
1/2-x,1/2+y,1/2-z
1/2-x,1/2-y,-z
1/2+x,1/2-y,1/2+z
loop_
_atom_site_type_symbol
_atom_site_label
_atom_site_fract_x
_atom_site_fract_y
_atom_site_fract_z
Si Si1 0.289291 0.273746 0.773185
Si Si2 0.417937 0.426144 0.009945
Si Si3 0.004435 0.374118 0.913561
Si Si4 0.911832 0.544907 0.625900
Si Si5 0.506439 0.675022 0.944160
O O1 0.500000 0.255950 0.750000
O O2 0.129831 0.324506 0.903596
O O3 0.430162 0.298349 0.594549
O O4 0.125716 0.224005 0.819713
O O5 0.305660 0.373436 0.124672
O O6 0.358495 0.462786 0.142799
O O7 0.738903 0.408683 0.784998
O O8 0.202920 0.443319 0.036028
O O9 0.848486 0.409318 0.082724
O O10 0.227223 0.349646 0.538874
O O11 0.000000 0.500000 0.500000
#
# Coordination Sequence:
#
# PCOD9299406 Si02
#       5
#     8   8   8   8   8
#     4  11  23  41  73 111 155 213 257 308 384 467
#     4  10  24  50  76 110 154 194 259 315 391 466
#     4  11  24  49  71 112 163 200 257 329 385 458
#     4  11  26  50  81 111 143 205 263 328 397 465
#     4  11  25  45  74 115 161 208 257 320 384 471
#
# _framework density 26.235659999999999
#
# number of rings (size 3 to 8) (size 9 to 14) (size 15 to 20)
#    0.000    1.200    0.000    6.600    5.600    1.600 
#   25.200    0.000    0.000    0.000    0.000    0.000 
#    0.000    0.000    0.000    0.000    0.000    0.000 
#
# Total GULP energy -111766.518493 kJ/mol
# GULP energy per Si atom -5588.325925 kJ/mol
# Density = 2.617595 g / cm^3
# Si number density = 26.235660 Si / 1000 Ang^3
#
#
#
# Elastic Constant Matrix: (Units=GPa)
#
#
# Indices 1 2 3 4 5 6 
#
# 1 153.7366 56.2116 60.5369 0.0000 3.1118 0.0000
# 2 56.2116 115.4377 74.0792 0.0000 4.8281 0.0000
# 3 60.5369 74.0792 176.3371 0.0000 13.2686 0.0000
# 4 0.0000 0.0000 0.0000 10.2376 0.0000 -23.1405
# 5 3.1118 4.8281 13.2686 0.0000 29.7979 0.0000
# 6 0.0000 0.0000 0.0000 -23.1405 0.0000 27.1526
#
#
#
# Elastic Compliance Matrix: (Units=1/GPa)
#
#
# Indices 1 2 3 4 5 6 
#
# 1 0.008219 -0.002997 -0.001588 0.000000 0.000334 0.000000
# 2 -0.002997 0.012956 -0.004428 0.000000 0.000185 0.000000
# 3 -0.001588 -0.004428 0.008287 0.000000 -0.002807 0.000000
# 4 0.000000 0.000000 0.000000 -0.105446 0.000000 -0.089865
# 5 0.000334 0.000185 -0.002807 0.000000 0.034744 0.000000
# 6 0.000000 0.000000 0.000000 -0.089865 0.000000 -0.039757
#
#
# Mechanical properties :
#
#
# Convention : Reuss Voigt Hill
#
# Bulk Modulus (GPa) = 87.43688 91.90742 89.67215
# Shear Modulus (GPa) = -84.51764 30.41654 -27.05055
#
# Velocity S-wave (km/s) = -5.68197 3.40863 -3.21450
# Velocity P-wave (km/s) = 3.10588 7.11331 4.52508
#
# Compressibility (1/GPa) = 0.01143682
#
# Stress axis : x y z
#
# Youngs Moduli (GPa) = 121.67021 77.18533 120.66741
#
# Poissons Ratio (x) = 0.23135 0.19156
# Poissons Ratio (y) = 0.36469 0.53428
# Poissons Ratio (z) = 0.19316 0.34175
#
# Static dielectric constant tensor:
#      x y z
#    x 2.182420 0.000000 -0.229310 
#    y 0.000000 2.545150 0.000000 
#    z -0.229310 0.000000 2.341960 
# 
# From -- ./inp_files/91660.got.cif
#   From: 2010.05.17/outbox.cif.g08.bks.cpg/sg15_46_cif.got.tgz:91660.got - 2010.06.03 18:47:42.
