data_PCOD9299914
_publ_section_title
;
Structure prediction by ZEFSAII (Michael W. Deem and Ramdas Pophale) SiO2 
 PCOD9299914
Probable space group: C 2/C
;
_chemical_formula_sum "Si O2"
_cell_formula_units_Z 36
_cell_length_a 14.428394
_cell_length_b 6.654381
_cell_length_c 16.476947
_cell_angle_alpha 90.000000
_cell_angle_beta 115.351261
_cell_angle_gamma 90.000000
_cell_volume 1429.639725
_symmetry_space_group_name_H-M "C 2/C"
_symmetry_group_IT_number 15
_symmetry_cell_setting 'monoclinic'
loop_
_space_group_symop_operation_xyz
x,y,z
-x,y,1/2-z
-x,-y,-z
x,-y,1/2+z
1/2+x,1/2+y,z
1/2-x,1/2+y,1/2-z
1/2-x,1/2-y,-z
1/2+x,1/2-y,1/2+z
loop_
_atom_site_type_symbol
_atom_site_label
_atom_site_fract_x
_atom_site_fract_y
_atom_site_fract_z
Si Si1 0.888204 0.079104 0.849011
Si Si2 0.405723 0.046409 0.664358
Si Si3 0.500000 0.432571 0.750000
Si Si4 0.762524 0.731322 0.846358
Si Si5 0.662941 0.139837 0.022809
O O1 0.865568 0.850469 0.865301
O O2 0.984399 0.062078 0.824759
O O3 0.114424 0.782610 0.073100
O O4 0.795477 0.152163 0.755430
O O5 0.500000 0.959200 0.750000
O O6 0.309619 0.905055 0.643567
O O7 0.406217 0.275797 0.699591
O O8 0.419992 0.066436 0.574021
O O9 0.785817 0.549669 0.914413
O O10 0.750000 0.250000 0.000000
#
# Coordination Sequence:
#
# PCOD9299914 Si02
#       5
#     8   8   4   8   8
#     4  12  25  45  80 110 153 206 261 313 388 461
#     4  10  25  48  73 113 161 196 254 323 386 455
#     4  10  26  48  72 114 160 202 250 324 396 446
#     4  12  24  49  78 109 151 206 257 320 375 466
#     4  12  25  46  81 116 148 208 268 306 387 469
#
# _framework density 25.181170000000002
#
# number of rings (size 3 to 8) (size 9 to 14) (size 15 to 20)
#    0.667    0.000    4.444    3.333    1.556    0.889 
#    0.000    4.444    0.000    0.000    0.000    0.000 
#    0.000    0.000    0.000    0.000    0.000    0.000 
#
# Total GULP energy -100765.236302 kJ/mol
# GULP energy per Si atom -5598.068683 kJ/mol
# Density = 2.512386 g / cm^3
# Si number density = 25.181170 Si / 1000 Ang^3
#
#
#
# Elastic Constant Matrix: (Units=GPa)
#
#
# Indices 1 2 3 4 5 6 
#
# 1 133.6250 78.5459 28.3153 0.0000 -35.9068 0.0000
# 2 78.5459 141.7488 50.9878 0.0000 -29.7919 0.0000
# 3 28.3153 50.9878 115.6537 0.0000 -36.3520 0.0000
# 4 0.0000 0.0000 0.0000 13.9683 0.0000 -14.3585
# 5 -35.9068 -29.7919 -36.3520 0.0000 43.2569 0.0000
# 6 0.0000 0.0000 0.0000 -14.3585 0.0000 40.8865
#
#
#
# Elastic Compliance Matrix: (Units=1/GPa)
#
#
# Indices 1 2 3 4 5 6 
#
# 1 0.012873 -0.006178 0.002165 0.000000 0.008251 0.000000
# 2 -0.006178 0.011790 -0.003730 0.000000 -0.000143 0.000000
# 3 0.002165 -0.003730 0.012935 0.000000 0.010099 0.000000
# 4 0.000000 0.000000 0.000000 0.112034 0.000000 0.039344
# 5 0.008251 -0.000143 0.010099 0.000000 0.038354 0.000000
# 6 0.000000 0.000000 0.000000 0.039344 0.000000 0.038275
#
#
# Mechanical properties :
#
#
# Convention : Reuss Voigt Hill
#
# Bulk Modulus (GPa) = 45.22395 78.52507 61.87451
# Shear Modulus (GPa) = 20.07075 35.16758 27.61917
#
# Velocity S-wave (km/s) = 2.82628 3.74114 3.31542
# Velocity P-wave (km/s) = 5.35246 7.06493 6.26746
#
# Compressibility (1/GPa) = 0.02211218
#
# Stress axis : x y z
#
# Youngs Moduli (GPa) = 77.67906 84.81847 77.30919
#
# Poissons Ratio (x) = 0.52403 -0.16740
# Poissons Ratio (y) = 0.47992 0.28838
# Poissons Ratio (z) = -0.16820 0.31639
#
# Static dielectric constant tensor:
#      x y z
#    x 2.106470 0.000000 0.053340 
#    y 0.000000 1.987570 0.000000 
#    z 0.053340 0.000000 1.997120 
# 
# From -- ./inp_files/272143.got.cif
#   From: 2010.05.17/outbox.cif.g08.bks.cpg/sg15_137_cif.got.tgz:272143.got - 2010.06.03 18:47:42.
