data_PCOD9299934
_publ_section_title
;
Structure prediction by ZEFSAII (Michael W. Deem and Ramdas Pophale) SiO2 
 PCOD9299934
Probable space group: C 2/C
;
_chemical_formula_sum "Si O2"
_cell_formula_units_Z 56
_cell_length_a 18.291142
_cell_length_b 18.790730
_cell_length_c 8.126253
_cell_angle_alpha 90.000000
_cell_angle_beta 69.286235
_cell_angle_gamma 90.000000
_cell_volume 2612.481244
_symmetry_space_group_name_H-M "C 2/C"
_symmetry_group_IT_number 15
_symmetry_cell_setting 'monoclinic'
loop_
_space_group_symop_operation_xyz
x,y,z
-x,y,1/2-z
-x,-y,-z
x,-y,1/2+z
1/2+x,1/2+y,z
1/2-x,1/2+y,1/2-z
1/2-x,1/2-y,-z
1/2+x,1/2-y,1/2+z
loop_
_atom_site_type_symbol
_atom_site_label
_atom_site_fract_x
_atom_site_fract_y
_atom_site_fract_z
Si Si1 0.407124 0.919760 0.789216
Si Si2 0.685004 0.794410 0.457337
Si Si3 0.525398 0.267618 0.034757
Si Si4 0.429899 0.399183 0.029198
Si Si5 0.233209 0.170479 0.939684
Si Si6 0.863232 0.427236 0.448157
Si Si7 0.500000 0.832878 0.250000
Si Si8 0.000000 0.020371 0.750000
O O1 0.500000 0.917840 0.750000
O O2 0.395958 0.922072 0.604494
O O3 0.368256 0.991345 0.890884
O O4 0.361716 0.852424 0.899165
O O5 0.750000 0.750000 0.500000
O O6 0.617812 0.740934 0.452398
O O7 0.726702 0.830024 0.270492
O O8 0.500000 0.259956 0.250000
O O9 0.499609 0.342698 0.983360
O O10 0.491327 0.212081 0.926154
O O11 0.355148 0.355621 0.023394
O O12 0.435264 0.431274 0.209348
O O13 0.451447 0.467017 0.903726
O O14 0.279928 0.111413 0.006202
O O15 0.250000 0.250000 0.000000
O O16 0.924099 0.382092 0.289386
#
# Coordination Sequence:
#
# PCOD9299934 Si02
#       8
#     8   8   8   8   8   8   4   4
#     4  12  26  47  73 104 147 195 245 303 373 457
#     4  12  26  45  71 105 143 193 241 305 378 436
#     4  12  24  45  75 106 147 195 251 308 368 455
#     4  11  25  48  74 107 142 192 254 311 377 454
#     4  12  27  47  70 109 150 190 244 308 380 446
#     4  12  25  44  70 106 145 190 245 300 372 452
#     4  12  23  42  70 105 142 200 242 294 372 445
#     4  10  25  48  78 103 138 198 250 312 378 449
#
# _framework density 21.435559999999999
#
# number of rings (size 3 to 8) (size 9 to 14) (size 15 to 20)
#    0.000    0.286    2.857    6.429    2.000    2.286 
#    2.571    0.000    0.000    0.000    0.000    0.000 
#    0.000    0.000    0.000    0.000    0.000    0.000 
#
# Total GULP energy -156501.498488 kJ/mol
# GULP energy per Si atom -5589.339232 kJ/mol
# Density = 2.138677 g / cm^3
# Si number density = 21.435560 Si / 1000 Ang^3
#
#
#
# Elastic Constant Matrix: (Units=GPa)
#
#
# Indices 1 2 3 4 5 6 
#
# 1 125.6426 68.3753 -5.2577 0.0000 15.6541 0.0000
# 2 68.3753 148.8955 10.6138 0.0000 7.9440 0.0000
# 3 -5.2577 10.6138 44.8194 0.0000 18.3091 0.0000
# 4 0.0000 0.0000 0.0000 32.0679 0.0000 -4.8130
# 5 15.6541 7.9440 18.3091 0.0000 30.0633 0.0000
# 6 0.0000 0.0000 0.0000 -4.8130 0.0000 41.7879
#
#
#
# Elastic Compliance Matrix: (Units=1/GPa)
#
#
# Indices 1 2 3 4 5 6 
#
# 1 0.012436 -0.005695 0.006440 0.000000 -0.008893 0.000000
# 2 -0.005695 0.009467 -0.004126 0.000000 0.002977 0.000000
# 3 0.006440 -0.004126 0.033238 0.000000 -0.022506 0.000000
# 4 0.000000 0.000000 0.000000 0.031732 0.000000 0.003655
# 5 -0.008893 0.002977 -0.022506 0.000000 0.050814 0.000000
# 6 0.000000 0.000000 0.000000 0.003655 0.000000 0.024351
#
#
# Mechanical properties :
#
#
# Convention : Reuss Voigt Hill
#
# Bulk Modulus (GPa) = 20.67020 51.86889 36.26955
# Shear Modulus (GPa) = 27.03768 37.15889 32.09828
#
# Velocity S-wave (km/s) = 3.55540 4.16807 3.87386
# Velocity P-wave (km/s) = 5.14960 6.88577 6.07998
#
# Compressibility (1/GPa) = 0.04837882
#
# Stress axis : x y z
#
# Youngs Moduli (GPa) = 80.41114 105.63147 30.08584
#
# Poissons Ratio (x) = 0.60162 -0.19377
# Poissons Ratio (y) = 0.45798 0.12414
# Poissons Ratio (z) = -0.51788 0.43585
#
# Static dielectric constant tensor:
#      x y z
#    x 1.787760 0.000000 0.033270 
#    y 0.000000 1.960900 0.000000 
#    z 0.033270 0.000000 1.811940 
# 
# From -- ./inp_files/49045.got.cif
#   From: 2010.05.17/outbox.cif.g08.bks.cpg/sg15_25_cif.got.tgz:49045.got - 2010.06.03 18:47:42.
