data_PCOD9299509
_publ_section_title
;
Structure prediction by ZEFSAII (Michael W. Deem and Ramdas Pophale) SiO2 
 PCOD9299509
Probable space group: C 2/C
;
_chemical_formula_sum "Si O2"
_cell_formula_units_Z 44
_cell_length_a 17.201483
_cell_length_b 4.865034
_cell_length_c 19.763489
_cell_angle_alpha 90.000000
_cell_angle_beta 106.217951
_cell_angle_gamma 90.000000
_cell_volume 1588.107533
_symmetry_space_group_name_H-M "C 2/C"
_symmetry_group_IT_number 15
_symmetry_cell_setting 'monoclinic'
loop_
_space_group_symop_operation_xyz
x,y,z
-x,y,1/2-z
-x,-y,-z
x,-y,1/2+z
1/2+x,1/2+y,z
1/2-x,1/2+y,1/2-z
1/2-x,1/2-y,-z
1/2+x,1/2-y,1/2+z
loop_
_atom_site_type_symbol
_atom_site_label
_atom_site_fract_x
_atom_site_fract_y
_atom_site_fract_z
Si Si1 0.835702 0.074597 0.166709
Si Si2 0.330517 0.312197 0.414285
Si Si3 0.422123 0.574880 0.560843
Si Si4 0.235700 0.092044 0.222375
Si Si5 0.000000 0.373036 0.250000
Si Si6 0.530700 0.949750 0.107205
O O1 0.762698 0.217869 0.104496
O O2 0.868681 0.871899 0.114077
O O3 0.796060 0.324148 0.230219
O O4 0.923902 0.192871 0.208161
O O5 0.367065 0.451667 0.488397
O O6 0.328270 0.525173 0.350520
O O7 0.384061 0.058614 0.400355
O O8 0.464897 0.858369 0.553993
O O9 0.495483 0.356316 0.590201
O O10 0.294709 0.359433 0.213745
O O11 0.973479 0.523412 0.313131
#
# Coordination Sequence:
#
# PCOD9299509 Si02
#       6
#     8   8   8   8   4   8
#     4  10  25  46  74 102 145 182 241 284 357 407
#     4  11  25  45  77 102 145 181 243 282 353 419
#     4  11  26  49  69 108 140 191 224 296 350 420
#     4  10  25  42  68 106 136 176 233 293 341 406
#     4  10  26  48  70 106 142 188 230 300 346 416
#     4  11  27  45  75 100 149 180 239 281 359 408
#
# _framework density 27.705932000000001
#
# number of rings (size 3 to 8) (size 9 to 14) (size 15 to 20)
#    0.000    1.455    0.000    1.636   17.818    6.545 
#    0.000    5.455    0.000    0.000    0.000    0.000 
#    0.000    0.000    0.000    0.000    0.000    0.000 
#
# Total GULP energy -123024.987145 kJ/mol
# GULP energy per Si atom -5592.044870 kJ/mol
# Density = 2.764287 g / cm^3
# Si number density = 27.705932 Si / 1000 Ang^3
#
#
#
# Elastic Constant Matrix: (Units=GPa)
#
#
# Indices 1 2 3 4 5 6 
#
# 1 152.7672 31.3314 59.9084 -0.0002 18.2474 0.0002
# 2 31.3314 185.9130 29.0945 -0.0002 18.3916 0.0003
# 3 59.9084 29.0945 123.8860 0.0000 2.1244 0.0000
# 4 -0.0002 -0.0002 0.0000 47.6104 0.0001 2.8709
# 5 18.2474 18.3916 2.1244 0.0001 48.9620 -0.0001
# 6 0.0002 0.0003 0.0000 2.8709 -0.0001 40.2068
#
#
#
# Elastic Compliance Matrix: (Units=1/GPa)
#
#
# Indices 1 2 3 4 5 6 
#
# 1 0.008544 -0.000543 -0.003956 0.000000 -0.002809 0.000000
# 2 -0.000543 0.005830 -0.001073 0.000000 -0.001941 0.000000
# 3 -0.003956 -0.001073 0.010212 0.000000 0.001434 0.000000
# 4 0.000000 0.000000 0.000000 0.021095 0.000000 -0.001506
# 5 -0.002809 -0.001941 0.001434 0.000000 0.022138 0.000000
# 6 0.000000 0.000000 0.000000 -0.001506 0.000000 0.024979
#
#
# Mechanical properties :
#
#
# Convention : Reuss Voigt Hill
#
# Bulk Modulus (GPa) = 74.39300 78.13719 76.26509
# Shear Modulus (GPa) = 46.11532 50.17130 48.14331
#
# Velocity S-wave (km/s) = 4.08420 4.26003 4.17304
# Velocity P-wave (km/s) = 7.01072 7.24297 7.12779
#
# Compressibility (1/GPa) = 0.01344213
#
# Stress axis : x y z
#
# Youngs Moduli (GPa) = 117.03928 171.51556 97.91935
#
# Poissons Ratio (x) = 0.09313 0.38738
# Poissons Ratio (y) = 0.06355 0.10511
# Poissons Ratio (z) = 0.46302 0.18411
#
# Static dielectric constant tensor:
#      x y z
#    x 2.213490 0.000000 -0.305860 
#    y 0.000000 2.260060 0.000000 
#    z -0.305860 0.000000 2.414510 
# 
# From -- ./inp_files/246534.got.cif
#   From: 2010.05.17/outbox.cif.g08.bks.cpg/sg15_124_cif.got.tgz:246534.got - 2010.06.03 18:47:42.
