data_PCOD9299724
_publ_section_title
;
Structure prediction by ZEFSAII (Michael W. Deem and Ramdas Pophale) SiO2 
 PCOD9299724
Probable space group: C 2/C
;
_chemical_formula_sum "Si O2"
_cell_formula_units_Z 40
_cell_length_a 10.570190
_cell_length_b 17.352914
_cell_length_c 9.547989
_cell_angle_alpha 90.000000
_cell_angle_beta 85.145096
_cell_angle_gamma 90.000000
_cell_volume 1745.043117
_symmetry_space_group_name_H-M "C 2/C"
_symmetry_group_IT_number 15
_symmetry_cell_setting 'monoclinic'
loop_
_space_group_symop_operation_xyz
x,y,z
-x,y,1/2-z
-x,-y,-z
x,-y,1/2+z
1/2+x,1/2+y,z
1/2-x,1/2+y,1/2-z
1/2-x,1/2-y,-z
1/2+x,1/2-y,1/2+z
loop_
_atom_site_type_symbol
_atom_site_label
_atom_site_fract_x
_atom_site_fract_y
_atom_site_fract_z
Si Si1 0.852412 0.803736 0.805676
Si Si2 0.725241 0.633451 0.471172
Si Si3 0.054009 0.086528 0.971050
Si Si4 0.912792 0.506511 0.374122
Si Si5 0.723592 0.858754 0.222812
O O1 0.767643 0.823852 0.677733
O O2 0.801316 0.720514 0.856774
O O3 0.000000 0.791363 0.750000
O O4 0.861773 0.877128 0.909463
O O5 0.576292 0.633847 0.518708
O O6 0.785540 0.550668 0.429998
O O7 0.790911 0.657728 0.609894
O O8 0.139664 0.103856 0.827902
O O9 0.000000 0.000000 0.000000
O O10 0.872315 0.424664 0.316169
O O11 0.000000 0.548217 0.250000
O O12 0.000000 0.500000 0.500000
#
# Coordination Sequence:
#
# PCOD9299724 Si02
#       5
#     8   8   8   8   8
#     4  10  25  45  71 105 146 189 237 301 363 429
#     4  11  25  44  71 103 142 185 243 294 355 436
#     4  11  24  44  73 105 143 189 241 295 361 431
#     4  12  26  44  69 102 137 188 238 294 354 428
#     4  12  24  46  73 102 146 185 240 297 363 423
#
# _framework density 22.922072
#
# number of rings (size 3 to 8) (size 9 to 14) (size 15 to 20)
#    0.000    0.800    4.000    2.400    5.600    1.600 
#    0.000    0.000    0.000    0.000    0.000    0.000 
#    0.000    0.000    0.000    0.000    0.000    0.000 
#
# Total GULP energy -111608.813569 kJ/mol
# GULP energy per Si atom -5580.440678 kJ/mol
# Density = 2.286990 g / cm^3
# Si number density = 22.922072 Si / 1000 Ang^3
#
#
#
# Elastic Constant Matrix: (Units=GPa)
#
#
# Indices 1 2 3 4 5 6 
#
# 1 83.1104 15.3108 22.6118 0.0000 -2.2242 0.0000
# 2 15.3108 125.5598 41.1512 0.0000 18.4436 0.0000
# 3 22.6118 41.1512 124.2163 0.0000 17.3174 0.0000
# 4 0.0000 0.0000 0.0000 19.8697 0.0000 -3.6892
# 5 -2.2242 18.4436 17.3174 0.0000 34.7545 0.0000
# 6 0.0000 0.0000 0.0000 -3.6892 0.0000 29.3509
#
#
#
# Elastic Compliance Matrix: (Units=1/GPa)
#
#
# Indices 1 2 3 4 5 6 
#
# 1 0.012957 -0.001203 -0.002326 0.000000 0.002627 0.000000
# 2 -0.001203 0.009463 -0.002370 0.000000 -0.003918 0.000000
# 3 -0.002326 -0.002370 0.009784 0.000000 -0.003766 0.000000
# 4 0.000000 0.000000 0.000000 0.051530 0.000000 0.006477
# 5 0.002627 -0.003918 -0.003766 0.000000 0.032897 0.000000
# 6 0.000000 0.000000 0.000000 0.006477 0.000000 0.034885
#
#
# Mechanical properties :
#
#
# Convention : Reuss Voigt Hill
#
# Bulk Modulus (GPa) = 49.00601 54.55934 51.78267
# Shear Modulus (GPa) = 29.39141 33.71585 31.55363
#
# Velocity S-wave (km/s) = 3.58471 3.83938 3.71423
# Velocity P-wave (km/s) = 6.20962 6.59608 6.40576
#
# Compressibility (1/GPa) = 0.02040566
#
# Stress axis : x y z
#
# Youngs Moduli (GPa) = 77.17787 105.67138 102.20681
#
# Poissons Ratio (x) = 0.12717 0.23775
# Poissons Ratio (y) = 0.09288 0.24220
# Poissons Ratio (z) = 0.17953 0.25041
#
# Static dielectric constant tensor:
#      x y z
#    x 1.854700 0.000000 -0.021600 
#    y 0.000000 1.897340 0.000000 
#    z -0.021600 0.000000 1.896530 
# 
# From -- ./inp_files/29362.got.cif
#   From: 2010.05.17/outbox.cif.g08.bks.cpg/sg15_15_cif.got.tgz:29362.got - 2010.06.03 18:47:42.
