data_PCOD9299577
_publ_section_title
;
Structure prediction by ZEFSAII (Michael W. Deem and Ramdas Pophale) SiO2 
 PCOD9299577
Probable space group: C 2/C
;
_chemical_formula_sum "Si O2"
_cell_formula_units_Z 40
_cell_length_a 6.258732
_cell_length_b 14.155890
_cell_length_c 25.735114
_cell_angle_alpha 90.000000
_cell_angle_beta 127.444766
_cell_angle_gamma 90.000000
_cell_volume 1810.244427
_symmetry_space_group_name_H-M "C 2/C"
_symmetry_group_IT_number 15
_symmetry_cell_setting 'monoclinic'
loop_
_space_group_symop_operation_xyz
x,y,z
-x,y,1/2-z
-x,-y,-z
x,-y,1/2+z
1/2+x,1/2+y,z
1/2-x,1/2+y,1/2-z
1/2-x,1/2-y,-z
1/2+x,1/2-y,1/2+z
loop_
_atom_site_type_symbol
_atom_site_label
_atom_site_fract_x
_atom_site_fract_y
_atom_site_fract_z
Si Si1 0.263114 0.125000 0.855246
Si Si2 0.190034 0.027639 0.575426
Si Si3 0.299706 0.476794 0.808569
Si Si4 0.437097 0.722361 0.575426
Si Si5 0.493139 0.273206 0.808569
O O1 0.509980 0.051845 0.898590
O O2 0.232971 0.198156 0.898590
O O3 0.336002 0.192781 0.817788
O O4 0.002938 0.057219 0.817788
O O5 0.074636 0.125000 0.579855
O O6 0.182586 0.963891 0.626030
O O7 0.000000 0.000000 0.500000
O O8 0.355372 0.375000 0.792149
O O9 0.000000 0.507174 0.750000
O O10 0.250000 0.750000 0.500000
O O11 0.697565 0.786108 0.626030
O O12 0.500000 0.242826 0.750000
#
# Coordination Sequence:
#
# PCOD9299577 Si02
#       5
#     8   8   8   8   8
#     4  10  26  49  70  98 152 180 236 316 344 440
#     4  10  25  43  72 106 139 190 235 294 366 432
#     4  11  28  47  72 108 139 195 244 297 370 436
#     4  10  25  43  72 106 139 190 235 294 366 432
#     4  11  28  47  72 108 139 195 244 297 370 436
#
# _framework density 22.096463
#
# number of rings (size 3 to 8) (size 9 to 14) (size 15 to 20)
#    0.000    1.600    0.000    0.000   14.000   12.000 
#    0.000    0.000    0.000    0.000    0.000    0.000 
#    0.000    0.000    0.000    0.000    0.000    0.000 
#
# Total GULP energy -111854.821606 kJ/mol
# GULP energy per Si atom -5592.741080 kJ/mol
# Density = 2.204617 g / cm^3
# Si number density = 22.096463 Si / 1000 Ang^3
#
#
#
# Elastic Constant Matrix: (Units=GPa)
#
#
# Indices 1 2 3 4 5 6 
#
# 1 174.5841 56.6850 94.1288 0.0000 0.3235 0.0000
# 2 56.6850 84.4842 34.2653 0.0000 2.2794 0.0000
# 3 94.1288 34.2653 140.7705 0.0000 3.1143 0.0000
# 4 0.0000 0.0000 0.0000 32.2074 0.0000 -0.1316
# 5 0.3235 2.2794 3.1143 0.0000 38.3529 0.0000
# 6 0.0000 0.0000 0.0000 -0.1316 0.0000 30.9145
#
#
#
# Elastic Compliance Matrix: (Units=1/GPa)
#
#
# Indices 1 2 3 4 5 6 
#
# 1 0.010362 -0.004609 -0.005821 0.000000 0.000659 0.000000
# 2 -0.004609 0.015194 -0.000598 0.000000 -0.000816 0.000000
# 3 -0.005821 -0.000598 0.011160 0.000000 -0.000822 0.000000
# 4 0.000000 0.000000 0.000000 0.031049 0.000000 0.000132
# 5 0.000659 -0.000816 -0.000822 0.000000 0.026183 0.000000
# 6 0.000000 0.000000 0.000000 0.000132 0.000000 0.032348
#
#
# Mechanical properties :
#
#
# Convention : Reuss Voigt Hill
#
# Bulk Modulus (GPa) = 68.22138 85.55523 76.88830
# Shear Modulus (GPa) = 32.62869 34.61227 33.62048
#
# Velocity S-wave (km/s) = 3.84689 3.96209 3.90491
# Velocity P-wave (km/s) = 7.11848 7.72877 7.42989
#
# Compressibility (1/GPa) = 0.01465816
#
# Stress axis : x y z
#
# Youngs Moduli (GPa) = 96.50869 65.81682 89.60511
#
# Poissons Ratio (x) = 0.30335 0.52161
# Poissons Ratio (y) = 0.44481 0.05362
# Poissons Ratio (z) = 0.56180 0.03938
#
# Static dielectric constant tensor:
#      x y z
#    x 1.826880 0.000000 -0.055330 
#    y 0.000000 1.799350 0.000000 
#    z -0.055330 0.000000 2.371120 
# 
# From -- ./inp_files/305275.got.cif
#   From: 2010.05.17/outbox.cif.g08.bks.cpg/sg15_153_cif.got.tgz:305275.got - 2010.06.03 18:47:42.
