data_PCOD9299404
_publ_section_title
;
Structure prediction by ZEFSAII (Michael W. Deem and Ramdas Pophale) SiO2 
 PCOD9299404
Probable space group: C 2/C
;
_chemical_formula_sum "Si O2"
_cell_formula_units_Z 36
_cell_length_a 8.093725
_cell_length_b 30.230187
_cell_length_c 8.640688
_cell_angle_alpha 90.000000
_cell_angle_beta 52.008691
_cell_angle_gamma 90.000000
_cell_volume 1666.177273
_symmetry_space_group_name_H-M "C 2/C"
_symmetry_group_IT_number 15
_symmetry_cell_setting 'monoclinic'
loop_
_space_group_symop_operation_xyz
x,y,z
-x,y,1/2-z
-x,-y,-z
x,-y,1/2+z
1/2+x,1/2+y,z
1/2-x,1/2+y,1/2-z
1/2-x,1/2-y,-z
1/2+x,1/2-y,1/2+z
loop_
_atom_site_type_symbol
_atom_site_label
_atom_site_fract_x
_atom_site_fract_y
_atom_site_fract_z
Si Si1 0.053245 0.274253 0.380535
Si Si2 0.749699 0.944768 0.863088
Si Si3 0.500000 0.995468 0.750000
Si Si4 0.158529 0.350947 0.806822
Si Si5 0.013096 0.186961 0.921107
O O1 0.242870 0.303713 0.205706
O O2 0.000000 0.250068 0.250000
O O3 0.904578 0.308434 0.555225
O O4 0.091480 0.234643 0.479043
O O5 0.667679 0.966049 0.748752
O O6 0.661690 0.894863 0.906773
O O7 0.000000 0.945608 0.750000
O O8 0.632320 0.973642 0.059330
O O9 0.390692 0.346138 0.600633
O O10 0.000000 0.352827 0.750000
O O11 0.000000 0.174205 0.750000
#
# Coordination Sequence:
#
# PCOD9299404 Si02
#       5
#     8   8   4   8   8
#     4  12  26  40  64  96 132 181 236 291 338 400
#     4  11  25  46  76 107 141 180 227 283 351 422
#     4  10  24  50  76 106 140 178 222 288 352 426
#     4  12  26  44  65 100 140 181 233 285 339 413
#     4  12  24  43  65  88 130 190 234 277 342 398
#
# _framework density 21.606342999999999
#
# number of rings (size 3 to 8) (size 9 to 14) (size 15 to 20)
#    0.000    0.444    5.556    2.667    4.667    0.000 
#    0.000    1.111    0.000    0.000    0.000    0.000 
#    0.000    0.000    0.000    0.000    0.000    0.000 
#
# Total GULP energy -100461.125468 kJ/mol
# GULP energy per Si atom -5581.173637 kJ/mol
# Density = 2.155717 g / cm^3
# Si number density = 21.606343 Si / 1000 Ang^3
#
#
#
# Elastic Constant Matrix: (Units=GPa)
#
#
# Indices 1 2 3 4 5 6 
#
# 1 82.2518 -2.7607 16.3509 0.0000 -4.4493 0.0000
# 2 -2.7607 63.8605 -7.9817 0.0000 0.8124 0.0000
# 3 16.3509 -7.9817 72.5966 0.0000 -10.3861 0.0000
# 4 0.0000 0.0000 0.0000 21.0853 0.0000 5.1549
# 5 -4.4493 0.8124 -10.3861 0.0000 33.3163 0.0000
# 6 0.0000 0.0000 0.0000 5.1549 0.0000 28.9170
#
#
#
# Elastic Compliance Matrix: (Units=1/GPa)
#
#
# Indices 1 2 3 4 5 6 
#
# 1 0.012753 0.000199 -0.002729 0.000000 0.000847 0.000000
# 2 0.000199 0.015881 0.001727 0.000000 0.000178 0.000000
# 3 -0.002729 0.001727 0.015199 0.000000 0.004332 0.000000
# 4 0.000000 0.000000 0.000000 0.049587 0.000000 -0.008840
# 5 0.000847 0.000178 0.004332 0.000000 0.031475 0.000000
# 6 0.000000 0.000000 0.000000 -0.008840 0.000000 0.036157
#
#
# Mechanical properties :
#
#
# Convention : Reuss Voigt Hill
#
# Bulk Modulus (GPa) = 23.68164 25.54732 24.61448
# Shear Modulus (GPa) = 28.29102 30.87042 29.58072
#
# Velocity S-wave (km/s) = 3.62247 3.78400 3.70412
# Velocity P-wave (km/s) = 5.33673 5.56248 5.45078
#
# Compressibility (1/GPa) = 0.04222681
#
# Stress axis : x y z
#
# Youngs Moduli (GPa) = 78.41384 62.96717 65.79397
#
# Poissons Ratio (x) = -0.01256 0.17956
# Poissons Ratio (y) = -0.01564 -0.11360
# Poissons Ratio (z) = 0.21400 -0.10872
#
# Static dielectric constant tensor:
#      x y z
#    x 1.988450 0.000000 0.005570 
#    y 0.000000 1.727040 0.000000 
#    z 0.005570 0.000000 1.749370 
# 
# From -- ./inp_files/25277.got.cif
#   From: 2010.05.17/outbox.cif.g08.bks.cpg/sg15_13_cif.got.tgz:25277.got - 2010.06.03 18:47:42.
