data_PCOD9299291
_publ_section_title
;
Structure prediction by ZEFSAII (Michael W. Deem and Ramdas Pophale) SiO2 
 PCOD9299291
Probable space group: C 2/C
;
_chemical_formula_sum "Si O2"
_cell_formula_units_Z 48
_cell_length_a 9.496647
_cell_length_b 22.443161
_cell_length_c 11.306589
_cell_angle_alpha 90.000000
_cell_angle_beta 100.521631
_cell_angle_gamma 90.000000
_cell_volume 2369.308586
_symmetry_space_group_name_H-M "C 2/C"
_symmetry_group_IT_number 15
_symmetry_cell_setting 'monoclinic'
loop_
_space_group_symop_operation_xyz
x,y,z
-x,y,1/2-z
-x,-y,-z
x,-y,1/2+z
1/2+x,1/2+y,z
1/2-x,1/2+y,1/2-z
1/2-x,1/2-y,-z
1/2+x,1/2-y,1/2+z
loop_
_atom_site_type_symbol
_atom_site_label
_atom_site_fract_x
_atom_site_fract_y
_atom_site_fract_z
Si Si1 0.609620 0.763024 0.055154
Si Si2 0.637011 0.348144 0.705557
Si Si3 0.299666 0.119249 0.859912
Si Si4 0.500000 0.033651 0.750000
Si Si5 0.336965 0.760640 0.890476
Si Si6 0.384203 0.081389 0.136000
Si Si7 0.000000 0.836516 0.250000
O O1 0.571949 0.699036 0.101815
O O2 0.644717 0.813397 0.155736
O O3 0.750000 0.750000 0.000000
O O4 0.484232 0.789499 0.957131
O O5 0.500000 0.373040 0.750000
O O6 0.740711 0.304342 0.797043
O O7 0.733364 0.400470 0.670162
O O8 0.373504 0.074135 0.781645
O O9 0.126864 0.124643 0.829314
O O10 0.360748 0.102365 0.998427
O O11 0.569987 0.987865 0.854876
O O12 0.408281 0.705453 0.826949
O O13 0.250000 0.750000 0.000000
O O14 0.500000 0.107482 0.250000
#
# Coordination Sequence:
#
# PCOD9299291 Si02
#       7
#     8   8   8   4   8   8   4
#     4  12  22  39  67  98 141 181 215 284 353 433
#     4  12  23  39  63 102 138 175 229 277 351 422
#     4  12  24  46  72 101 144 180 239 294 358 420
#     4  10  28  47  74 104 125 194 254 290 348 414
#     4  12  24  39  61 103 149 184 220 270 360 438
#     4  10  24  48  73  94 131 188 243 300 339 410
#     4  12  26  41  66 108 149 184 222 292 364 426
#
# _framework density 20.259074999999999
#
# number of rings (size 3 to 8) (size 9 to 14) (size 15 to 20)
#    0.500    0.000    6.667    1.500    4.667    0.000 
#    1.500    0.833    0.000    0.000    0.000    0.000 
#    0.000    0.000    0.000    0.000    0.000    0.000 
#
# Total GULP energy -133633.980876 kJ/mol
# GULP energy per Si atom -5568.082536 kJ/mol
# Density = 2.021296 g / cm^3
# Si number density = 20.259075 Si / 1000 Ang^3
#
#
#
# Elastic Constant Matrix: (Units=GPa)
#
#
# Indices 1 2 3 4 5 6 
#
# 1 119.3925 41.0447 37.6786 0.0000 5.8302 0.0000
# 2 41.0447 72.2767 11.1866 0.0000 -2.5884 0.0000
# 3 37.6786 11.1866 68.5257 0.0000 8.0917 0.0000
# 4 0.0000 0.0000 0.0000 26.3143 0.0000 -4.3442
# 5 5.8302 -2.5884 8.0917 0.0000 45.7301 0.0000
# 6 0.0000 0.0000 0.0000 -4.3442 0.0000 25.6142
#
#
#
# Elastic Compliance Matrix: (Units=1/GPa)
#
#
# Indices 1 2 3 4 5 6 
#
# 1 0.012324 -0.006155 -0.005663 0.000000 -0.000917 0.000000
# 2 -0.006155 0.017337 0.000353 0.000000 0.001704 0.000000
# 3 -0.005663 0.000353 0.017936 0.000000 -0.002432 0.000000
# 4 0.000000 0.000000 0.000000 0.039097 0.000000 0.006631
# 5 -0.000917 0.001704 -0.002432 0.000000 0.022511 0.000000
# 6 0.000000 0.000000 0.000000 0.006631 0.000000 0.040165
#
#
# Mechanical properties :
#
#
# Convention : Reuss Voigt Hill
#
# Bulk Modulus (GPa) = 40.53949 48.89055 44.71502
# Shear Modulus (GPa) = 27.69730 30.88406 29.29068
#
# Velocity S-wave (km/s) = 3.70152 3.90866 3.80650
# Velocity P-wave (km/s) = 6.19050 6.67497 6.43730
#
# Compressibility (1/GPa) = 0.02466730
#
# Stress axis : x y z
#
# Youngs Moduli (GPa) = 81.14536 57.67918 55.75251
#
# Poissons Ratio (x) = 0.35500 0.31573
# Poissons Ratio (y) = 0.49943 -0.01967
# Poissons Ratio (z) = 0.45953 -0.02035
#
# Static dielectric constant tensor:
#      x y z
#    x 1.783740 0.000000 0.005380 
#    y 0.000000 1.736660 0.000000 
#    z 0.005380 0.000000 1.802520 
# 
# From -- ./inp_files/79330.got.cif
#   From: 2010.05.17/outbox.cif.g08.bks.cpg/sg15_40_cif.got.tgz:79330.got - 2010.06.03 18:47:42.
