data_PCOD9299856
_publ_section_title
;
Structure prediction by ZEFSAII (Michael W. Deem and Ramdas Pophale) SiO2 
 PCOD9299856
Probable space group: C 2/C
;
_chemical_formula_sum "Si O2"
_cell_formula_units_Z 64
_cell_length_a 29.476239
_cell_length_b 8.630310
_cell_length_c 14.262005
_cell_angle_alpha 90.000000
_cell_angle_beta 53.522966
_cell_angle_gamma 90.000000
_cell_volume 2917.336529
_symmetry_space_group_name_H-M "C 2/C"
_symmetry_group_IT_number 15
_symmetry_cell_setting 'monoclinic'
loop_
_space_group_symop_operation_xyz
x,y,z
-x,y,1/2-z
-x,-y,-z
x,-y,1/2+z
1/2+x,1/2+y,z
1/2-x,1/2+y,1/2-z
1/2-x,1/2-y,-z
1/2+x,1/2-y,1/2+z
loop_
_atom_site_type_symbol
_atom_site_label
_atom_site_fract_x
_atom_site_fract_y
_atom_site_fract_z
Si Si1 0.314138 0.551262 0.138930
Si Si2 0.169973 0.883097 0.093113
Si Si3 0.279241 0.913210 0.480428
Si Si4 0.410543 0.479087 0.666488
Si Si5 0.693627 0.822599 0.855448
Si Si6 0.992966 0.468072 0.647527
Si Si7 0.137406 0.571497 0.242419
Si Si8 0.989559 0.243409 0.493365
O O1 0.362620 0.580251 0.155084
O O2 0.308372 0.364101 0.137271
O O3 0.255399 0.625040 0.243788
O O4 0.330434 0.618127 0.017878
O O5 0.120384 0.987793 0.197870
O O6 0.158341 0.718257 0.154815
O O7 0.230355 0.956738 0.047575
O O8 0.250000 0.750000 0.500000
O O9 0.313769 0.898964 0.533958
O O10 0.319920 0.940189 0.343301
O O11 0.437473 0.636073 0.588992
O O12 0.462478 0.363893 0.609429
O O13 0.649503 0.886424 0.834410
O O14 0.926265 0.471986 0.703705
O O15 0.021256 0.620172 0.567681
O O16 0.000000 0.453657 0.750000
O O17 0.012849 0.322473 0.560440
#
# Coordination Sequence:
#
# PCOD9299856 Si02
#       8
#     8   8   8   8   8   8   8   8
#     4  12  26  39  72  99 141 184 231 274 346 412
#     4  12  24  44  65 103 138 182 227 280 345 408
#     4  12  25  42  68 108 143 182 237 273 338 427
#     4  11  24  46  72 100 137 183 229 293 339 406
#     4  12  23  44  66 101 144 187 224 281 343 414
#     4  11  26  48  71 103 136 180 231 290 351 412
#     4  12  26  45  69  99 146 183 223 289 351 416
#     4  10  25  47  72 101 135 176 241 287 344 410
#
# _framework density 21.937816999999999
#
# number of rings (size 3 to 8) (size 9 to 14) (size 15 to 20)
#    0.000    0.500    6.250    0.375    5.250    5.000 
#    0.000    2.500    0.000    0.000    0.000    0.000 
#    0.000    0.000    0.000    0.000    0.000    0.000 
#
# Total GULP energy -179153.265896 kJ/mol
# GULP energy per Si atom -5598.539559 kJ/mol
# Density = 2.188789 g / cm^3
# Si number density = 21.937817 Si / 1000 Ang^3
#
#
#
# Elastic Constant Matrix: (Units=GPa)
#
#
# Indices 1 2 3 4 5 6 
#
# 1 73.2655 4.1615 11.9443 0.0000 7.7687 0.0000
# 2 4.1615 44.8294 8.2878 0.0000 -2.4645 0.0000
# 3 11.9443 8.2878 55.1585 0.0000 3.4346 0.0000
# 4 0.0000 0.0000 0.0000 42.6046 0.0000 -7.4762
# 5 7.7687 -2.4645 3.4346 0.0000 51.8237 0.0000
# 6 0.0000 0.0000 0.0000 -7.4762 0.0000 20.8015
#
#
#
# Elastic Compliance Matrix: (Units=1/GPa)
#
#
# Indices 1 2 3 4 5 6 
#
# 1 0.014379 -0.000918 -0.002851 0.000000 -0.002010 0.000000
# 2 -0.000918 0.023094 -0.003362 0.000000 0.001459 0.000000
# 3 -0.002851 -0.003362 0.019315 0.000000 -0.001013 0.000000
# 4 0.000000 0.000000 0.000000 0.025052 0.000000 0.009004
# 5 -0.002010 0.001459 -0.001013 0.000000 0.019734 0.000000
# 6 0.000000 0.000000 0.000000 0.009004 0.000000 0.051310
#
#
# Mechanical properties :
#
#
# Convention : Reuss Voigt Hill
#
# Bulk Modulus (GPa) = 23.51487 24.67116 24.09301
# Shear Modulus (GPa) = 27.57556 32.96996 30.27276
#
# Velocity S-wave (km/s) = 3.54925 3.88091 3.71878
# Velocity P-wave (km/s) = 5.24770 5.59931 5.42636
#
# Compressibility (1/GPa) = 0.04252629
#
# Stress axis : x y z
#
# Youngs Moduli (GPa) = 69.54577 43.30177 51.77312
#
# Poissons Ratio (x) = 0.03976 0.14758
# Poissons Ratio (y) = 0.06386 0.17406
# Poissons Ratio (z) = 0.19824 0.14558
#
# Static dielectric constant tensor:
#      x y z
#    x 1.774740 0.000000 -0.007710 
#    y 0.000000 1.841950 0.000000 
#    z -0.007710 0.000000 1.788610 
# 
# From -- ./inp_files/181133.got.cif
#   From: 2010.05.17/outbox.cif.g08.bks.cpg/sg15_91_cif.got.tgz:181133.got - 2010.06.03 18:47:42.
