data_PCOD9299618
_publ_section_title
;
Structure prediction by ZEFSAII (Michael W. Deem and Ramdas Pophale) SiO2 
 PCOD9299618
Probable space group: C 2/C
;
_chemical_formula_sum "Si O2"
_cell_formula_units_Z 48
_cell_length_a 10.355118
_cell_length_b 8.867973
_cell_length_c 20.417165
_cell_angle_alpha 90.000000
_cell_angle_beta 91.477956
_cell_angle_gamma 90.000000
_cell_volume 1874.262210
_symmetry_space_group_name_H-M "C 2/C"
_symmetry_group_IT_number 15
_symmetry_cell_setting 'monoclinic'
loop_
_space_group_symop_operation_xyz
x,y,z
-x,y,1/2-z
-x,-y,-z
x,-y,1/2+z
1/2+x,1/2+y,z
1/2-x,1/2+y,1/2-z
1/2-x,1/2-y,-z
1/2+x,1/2-y,1/2+z
loop_
_atom_site_type_symbol
_atom_site_label
_atom_site_fract_x
_atom_site_fract_y
_atom_site_fract_z
Si Si1 0.255718 0.922364 0.282598
Si Si2 0.400825 0.321138 0.102843
Si Si3 0.333241 0.514660 0.975946
Si Si4 0.131188 0.798835 0.625802
Si Si5 0.330953 0.763829 0.835457
Si Si6 0.885188 0.302981 0.058271
O O1 0.143194 0.925822 0.336172
O O2 0.350609 0.780685 0.303354
O O3 0.192712 0.877552 0.213458
O O4 0.324028 0.082939 0.292100
O O5 0.277785 0.209808 0.103053
O O6 0.531985 0.240859 0.126202
O O7 0.374752 0.402978 0.033717
O O8 0.398421 0.461533 0.907973
O O9 0.180097 0.546232 0.969354
O O10 0.380192 0.677288 0.002151
O O11 0.027570 0.691098 0.589270
O O12 0.213261 0.752709 0.885731
#
# Coordination Sequence:
#
# PCOD9299618 Si02
#       6
#     8   8   8   8   8   8
#     4  10  27  48  73 104 141 196 242 304 365 432
#     4  10  25  46  71 100 140 188 238 301 365 427
#     4  11  24  44  69 106 149 191 233 303 368 441
#     4  10  25  44  68 107 141 190 239 299 368 430
#     4  12  26  50  73 103 145 191 251 297 368 443
#     4  11  26  41  71 107 147 188 244 298 367 437
#
# _framework density 25.610077
#
# number of rings (size 3 to 8) (size 9 to 14) (size 15 to 20)
#    1.000    0.333    1.667    1.500   11.667    1.333 
#    6.000    0.000    0.000    0.000    0.000    0.000 
#    0.000    0.000    0.000    0.000    0.000    0.000 
#
# Total GULP energy -133822.749908 kJ/mol
# GULP energy per Si atom -5575.947913 kJ/mol
# Density = 2.555179 g / cm^3
# Si number density = 25.610077 Si / 1000 Ang^3
#
#
#
# Elastic Constant Matrix: (Units=GPa)
#
#
# Indices 1 2 3 4 5 6 
#
# 1 98.8599 21.1296 49.0760 0.0000 35.6055 0.0000
# 2 21.1296 57.6878 16.6204 0.0000 11.5164 0.0000
# 3 49.0760 16.6204 127.1416 0.0000 26.0773 0.0000
# 4 0.0000 0.0000 0.0000 40.6950 0.0000 -2.6838
# 5 35.6055 11.5164 26.0773 0.0000 48.1049 0.0000
# 6 0.0000 0.0000 0.0000 -2.6838 0.0000 20.3966
#
#
#
# Elastic Compliance Matrix: (Units=1/GPa)
#
#
# Indices 1 2 3 4 5 6 
#
# 1 0.015909 -0.002909 -0.003925 0.000000 -0.008952 0.000000
# 2 -0.002909 0.019058 -0.000984 0.000000 -0.001876 0.000000
# 3 -0.003925 -0.000984 0.009974 0.000000 -0.002266 0.000000
# 4 0.000000 0.000000 0.000000 0.024788 0.000000 0.003262
# 5 -0.008952 -0.001876 -0.002266 0.000000 0.029091 0.000000
# 6 0.000000 0.000000 0.000000 0.003262 0.000000 0.049457
#
#
# Mechanical properties :
#
#
# Convention : Reuss Voigt Hill
#
# Bulk Modulus (GPa) = 34.12285 50.81569 42.46927
# Shear Modulus (GPa) = 28.78838 34.96354 31.87596
#
# Velocity S-wave (km/s) = 3.35640 3.69890 3.53181
# Velocity P-wave (km/s) = 5.32668 6.17476 5.76633
#
# Compressibility (1/GPa) = 0.02930588
#
# Stress axis : x y z
#
# Youngs Moduli (GPa) = 62.85587 52.47076 100.26552
#
# Poissons Ratio (x) = 0.15266 0.39350
# Poissons Ratio (y) = 0.18288 0.09862
# Poissons Ratio (z) = 0.24668 0.05161
#
# Static dielectric constant tensor:
#      x y z
#    x 2.088520 0.000000 0.011460 
#    y 0.000000 2.094410 0.000000 
#    z 0.011460 0.000000 2.024530 
# 
# From -- ./inp_files/268078.got.cif
#   From: 2010.05.17/outbox.cif.g08.bks.cpg/sg15_135_cif.got.tgz:268078.got - 2010.06.03 18:47:42.
