data_PCOD9299290
_publ_section_title
;
Structure prediction by ZEFSAII (Michael W. Deem and Ramdas Pophale) SiO2 
 PCOD9299290
Probable space group: C 2/C
;
_chemical_formula_sum "Si O2"
_cell_formula_units_Z 40
_cell_length_a 7.285907
_cell_length_b 22.287736
_cell_length_c 10.106321
_cell_angle_alpha 90.000000
_cell_angle_beta 64.360058
_cell_angle_gamma 90.000000
_cell_volume 1479.528638
_symmetry_space_group_name_H-M "C 2/C"
_symmetry_group_IT_number 15
_symmetry_cell_setting 'monoclinic'
loop_
_space_group_symop_operation_xyz
x,y,z
-x,y,1/2-z
-x,-y,-z
x,-y,1/2+z
1/2+x,1/2+y,z
1/2-x,1/2+y,1/2-z
1/2-x,1/2-y,-z
1/2+x,1/2-y,1/2+z
loop_
_atom_site_type_symbol
_atom_site_label
_atom_site_fract_x
_atom_site_fract_y
_atom_site_fract_z
Si Si1 0.500000 0.348811 0.250000
Si Si2 0.544622 0.734767 0.949884
Si Si3 0.770480 0.071229 0.618984
Si Si4 0.211846 0.932844 0.859383
Si Si5 0.000000 0.243481 0.250000
Si Si6 0.535304 0.121594 0.451950
O O1 0.583243 0.301603 0.116035
O O2 0.659201 0.389961 0.277237
O O3 0.525351 0.570864 0.035191
O O4 0.783150 0.723432 0.838375
O O5 0.525607 0.806298 0.954115
O O6 0.596349 0.096998 0.577277
O O7 0.734521 0.002983 0.672400
O O8 0.289403 0.897984 0.706796
O O9 0.337162 0.907815 0.946438
O O10 0.010463 0.788972 0.887720
#
# Coordination Sequence:
#
# PCOD9299290 Si02
#       6
#     4   8   8   8   4   8
#     4  12  28  46  71 118 157 202 258 330 386 482
#     4  11  26  47  77 117 157 207 266 326 406 466
#     4  11  25  45  73 108 154 204 255 324 390 468
#     4  10  25  44  74 110 149 202 265 315 396 464
#     4  10  24  48  73 112 159 212 266 322 388 488
#     4  11  24  49  77 113 152 205 258 333 384 483
#
# _framework density 27.035636
#
# number of rings (size 3 to 8) (size 9 to 14) (size 15 to 20)
#    0.000    1.200    0.000    4.800   14.000    0.800 
#    0.000    0.000    0.000    0.000    0.000    0.000 
#    0.000    0.000    0.000    0.000    0.000    0.000 
#
# Total GULP energy -112227.495564 kJ/mol
# GULP energy per Si atom -5611.374778 kJ/mol
# Density = 2.697410 g / cm^3
# Si number density = 27.035636 Si / 1000 Ang^3
#
#
#
# Elastic Constant Matrix: (Units=GPa)
#
#
# Indices 1 2 3 4 5 6 
#
# 1 152.0261 47.6372 52.3989 0.0000 6.2124 0.0000
# 2 47.6372 238.2676 66.6592 0.0000 42.1693 0.0000
# 3 52.3989 66.6592 204.7196 0.0000 32.0837 0.0000
# 4 0.0000 0.0000 0.0000 27.5579 0.0000 10.6676
# 5 6.2124 42.1693 32.0837 0.0000 79.3420 0.0000
# 6 0.0000 0.0000 0.0000 10.6676 0.0000 18.6110
#
#
#
# Elastic Compliance Matrix: (Units=1/GPa)
#
#
# Indices 1 2 3 4 5 6 
#
# 1 0.007480 -0.001158 -0.001646 0.000000 0.000696 0.000000
# 2 -0.001158 0.005105 -0.001019 0.000000 -0.002210 0.000000
# 3 -0.001646 -0.001019 0.005907 0.000000 -0.001718 0.000000
# 4 0.000000 0.000000 0.000000 0.046635 0.000000 -0.026730
# 5 0.000696 -0.002210 -0.001718 0.000000 0.014419 0.000000
# 6 0.000000 0.000000 0.000000 -0.026730 0.000000 0.069053
#
#
# Mechanical properties :
#
#
# Convention : Reuss Voigt Hill
#
# Bulk Modulus (GPa) = 92.21414 103.15598 97.68506
# Shear Modulus (GPa) = 31.27721 53.65671 42.46696
#
# Velocity S-wave (km/s) = 3.40500 4.45979 3.96760
# Velocity P-wave (km/s) = 7.04564 8.04724 7.56304
#
# Compressibility (1/GPa) = 0.01084432
#
# Stress axis : x y z
#
# Youngs Moduli (GPa) = 133.69511 195.89218 169.28109
#
# Poissons Ratio (x) = 0.22683 0.27871
# Poissons Ratio (y) = 0.15481 0.17257
# Poissons Ratio (z) = 0.22012 0.19970
#
# Static dielectric constant tensor:
#      x y z
#    x 2.166820 0.000000 -0.057480 
#    y 0.000000 2.044920 0.000000 
#    z -0.057480 0.000000 2.111940 
# 
# From -- ./inp_files/133921.got.cif
#   From: 2010.05.17/outbox.cif.g08.bks.cpg/sg15_67_cif.got.tgz:133921.got - 2010.06.03 18:47:42.
