data_PCOD9299036
_publ_section_title
;
Structure prediction by ZEFSAII (Michael W. Deem and Ramdas Pophale) SiO2 
 PCOD9299036
Probable space group: C 2/C
;
_chemical_formula_sum "Si O2"
_cell_formula_units_Z 52
_cell_length_a 16.404610
_cell_length_b 8.468521
_cell_length_c 18.570543
_cell_angle_alpha 90.000000
_cell_angle_beta 45.877023
_cell_angle_gamma 90.000000
_cell_volume 1851.953463
_symmetry_space_group_name_H-M "C 2/C"
_symmetry_group_IT_number 15
_symmetry_cell_setting 'monoclinic'
loop_
_space_group_symop_operation_xyz
x,y,z
-x,y,1/2-z
-x,-y,-z
x,-y,1/2+z
1/2+x,1/2+y,z
1/2-x,1/2+y,1/2-z
1/2-x,1/2-y,-z
1/2+x,1/2-y,1/2+z
loop_
_atom_site_type_symbol
_atom_site_label
_atom_site_fract_x
_atom_site_fract_y
_atom_site_fract_z
Si Si1 0.046061 0.451794 0.377970
Si Si2 0.245229 0.220361 0.727719
Si Si3 0.513854 0.330839 0.156839
Si Si4 0.774503 0.195326 0.370751
Si Si5 0.500000 0.870893 0.250000
Si Si6 0.552372 0.608087 0.031976
Si Si7 0.168848 0.360022 0.469879
O O1 0.180436 0.442096 0.307519
O O2 0.023989 0.472355 0.306154
O O3 0.042001 0.429740 0.530623
O O4 0.010146 0.273476 0.418567
O O5 0.282526 0.303056 0.778956
O O6 0.284808 0.255893 0.621043
O O7 0.108501 0.213102 0.805271
O O8 0.500000 0.328794 0.250000
O O9 0.536442 0.503157 0.111683
O O10 0.629094 0.236847 0.064013
O O11 0.890664 0.263054 0.329939
O O12 0.820239 0.169959 0.557571
O O13 0.740812 0.023366 0.423606
O O14 0.500000 0.500000 0.000000
#
# Coordination Sequence:
#
# PCOD9299036 Si02
#       7
#     8   8   8   8   4   8   8
#     4  10  25  44  77 109 144 202 261 317 377 463
#     4  11  25  44  78 112 152 203 259 319 395 463
#     4  12  30  48  74 115 165 205 255 325 408 466
#     4  10  25  48  83 114 149 209 263 328 384 469
#     4  10  24  46  74 118 144 196 270 316 378 462
#     4  11  23  47  77 116 152 205 260 322 389 472
#     4  11  27  50  76 110 156 201 259 324 390 473
#
# _framework density 28.078458999999999
#
# number of rings (size 3 to 8) (size 9 to 14) (size 15 to 20)
#    0.000    1.231    1.538    1.385   10.769    5.538 
#    2.769    1.538    0.000    0.923    0.000    0.000 
#    0.000    0.000    0.000    0.000    0.000    0.000 
#
# Total GULP energy -145530.293167 kJ/mol
# GULP energy per Si atom -5597.318968 kJ/mol
# Density = 2.801455 g / cm^3
# Si number density = 28.078459 Si / 1000 Ang^3
#
#
#
# Elastic Constant Matrix: (Units=GPa)
#
#
# Indices 1 2 3 4 5 6 
#
# 1 151.5693 18.2190 45.8911 0.0000 -27.6997 0.0000
# 2 18.2190 109.4959 55.9709 0.0000 -11.9846 0.0000
# 3 45.8911 55.9709 176.8262 0.0000 -12.5741 0.0000
# 4 0.0000 0.0000 0.0000 35.3765 0.0000 -5.6561
# 5 -27.6997 -11.9846 -12.5741 0.0000 63.2116 0.0000
# 6 0.0000 0.0000 0.0000 -5.6561 0.0000 27.3279
#
#
#
# Elastic Compliance Matrix: (Units=1/GPa)
#
#
# Indices 1 2 3 4 5 6 
#
# 1 0.007688 -0.000047 -0.001766 0.000000 0.003009 0.000000
# 2 -0.000047 0.011019 -0.003376 0.000000 0.001397 0.000000
# 3 -0.001766 -0.003376 0.007184 0.000000 0.000015 0.000000
# 4 0.000000 0.000000 0.000000 0.029235 0.000000 0.006051
# 5 0.003009 0.001397 0.000015 0.000000 0.017406 0.000000
# 6 0.000000 0.000000 0.000000 0.006051 0.000000 0.037845
#
#
# Mechanical properties :
#
#
# Convention : Reuss Voigt Hill
#
# Bulk Modulus (GPa) = 64.46953 75.33927 69.90440
# Shear Modulus (GPa) = 39.70560 46.37055 43.03808
#
# Velocity S-wave (km/s) = 3.76452 4.06823 3.91932
# Velocity P-wave (km/s) = 6.47347 6.99695 6.74029
#
# Compressibility (1/GPa) = 0.01551120
#
# Stress axis : x y z
#
# Youngs Moduli (GPa) = 130.07376 90.74887 139.20786
#
# Poissons Ratio (x) = 0.00426 0.24590
# Poissons Ratio (y) = 0.00611 0.47003
# Poissons Ratio (z) = 0.22976 0.30641
#
# Static dielectric constant tensor:
#      x y z
#    x 2.363990 0.000000 0.039190 
#    y 0.000000 2.211780 0.000000 
#    z 0.039190 0.000000 2.329550 
# 
# From -- ./inp_files/243069.got.cif
#   From: 2010.05.17/outbox.cif.g08.bks.cpg/sg15_122_cif.got.tgz:243069.got - 2010.06.03 18:47:42.
