data_PCOD9299829
_publ_section_title
;
Structure prediction by ZEFSAII (Michael W. Deem and Ramdas Pophale) SiO2 
 PCOD9299829
Probable space group: C 2/C
;
_chemical_formula_sum "Si O2"
_cell_formula_units_Z 56
_cell_length_a 27.117841
_cell_length_b 10.003549
_cell_length_c 23.027305
_cell_angle_alpha 90.000000
_cell_angle_beta 158.308777
_cell_angle_gamma 90.000000
_cell_volume 2308.816859
_symmetry_space_group_name_H-M "C 2/C"
_symmetry_group_IT_number 15
_symmetry_cell_setting 'monoclinic'
loop_
_space_group_symop_operation_xyz
x,y,z
-x,y,1/2-z
-x,-y,-z
x,-y,1/2+z
1/2+x,1/2+y,z
1/2-x,1/2+y,1/2-z
1/2-x,1/2-y,-z
1/2+x,1/2-y,1/2+z
loop_
_atom_site_type_symbol
_atom_site_label
_atom_site_fract_x
_atom_site_fract_y
_atom_site_fract_z
Si Si1 0.278215 0.227846 0.806692
Si Si2 0.248567 0.394210 0.544310
Si Si3 0.726882 0.449196 0.540130
Si Si4 0.000000 0.753525 0.250000
Si Si5 0.000000 0.227687 0.250000
Si Si6 0.482051 0.193269 0.351250
Si Si7 0.167800 0.036888 0.599125
Si Si8 0.107498 0.952719 0.204244
O O1 0.284723 0.390184 0.821538
O O2 0.165255 0.150772 0.720705
O O3 0.253212 0.160941 0.716934
O O4 0.414494 0.171554 0.984722
O O5 0.208149 0.468340 0.440463
O O6 0.117945 0.305117 0.412781
O O7 0.397718 0.343408 0.684989
O O8 0.280084 0.472832 0.637261
O O9 0.626697 0.351665 0.395989
O O10 0.836488 0.365752 0.695008
O O11 0.671407 0.535020 0.532897
O O12 0.975953 0.660606 0.167974
O O13 0.465218 0.353070 0.330146
O O14 0.012096 0.046716 0.447289
#
# Coordination Sequence:
#
# PCOD9299829 Si02
#       8
#     8   8   8   4   4   8   8   8
#     4  11  25  45  67 100 141 187 244 296 353 431
#     4  11  24  43  74  98 143 182 236 301 369 444
#     4  12  22  39  69 102 134 180 227 293 365 425
#     4  12  19  37  66 104 144 170 218 296 374 420
#     4  10  25  47  58  96 152 186 230 280 358 462
#     4  11  23  37  67 108 139 166 227 302 358 425
#     4  11  24  46  68  99 143 190 243 293 358 429
#     4  11  21  44  71  97 133 180 233 296 361 423
#
# _framework density 24.254846000000001
#
# number of rings (size 3 to 8) (size 9 to 14) (size 15 to 20)
#    0.000    0.857    5.714    2.143    4.000    0.571 
#    7.714    0.000    0.000    0.000    0.000    0.000 
#    0.000    0.000    0.000    0.000    0.000    0.000 
#
# Total GULP energy -155950.021594 kJ/mol
# GULP energy per Si atom -5569.643628 kJ/mol
# Density = 2.419964 g / cm^3
# Si number density = 24.254846 Si / 1000 Ang^3
#
#
#
# Elastic Constant Matrix: (Units=GPa)
#
#
# Indices 1 2 3 4 5 6 
#
# 1 43.5837 2.4921 13.3877 0.0001 -8.3204 0.0001
# 2 2.4921 60.4605 46.9215 0.0002 -4.3625 0.0002
# 3 13.3877 46.9215 143.1520 0.0001 -8.6977 0.0001
# 4 0.0001 0.0002 0.0001 61.3658 0.0001 -4.0095
# 5 -8.3204 -4.3625 -8.6977 0.0001 27.9741 0.0001
# 6 0.0001 0.0002 0.0001 -4.0095 0.0001 21.8850
#
#
#
# Elastic Compliance Matrix: (Units=1/GPa)
#
#
# Indices 1 2 3 4 5 6 
#
# 1 0.024901 0.001278 -0.002330 0.000000 0.006881 0.000000
# 2 0.001278 0.022289 -0.007329 0.000000 0.001577 0.000000
# 3 -0.002330 -0.007329 0.009677 0.000000 0.001173 0.000000
# 4 0.000000 0.000000 0.000000 0.016493 0.000000 0.003022
# 5 0.006881 0.001577 0.001173 0.000000 0.038405 0.000000
# 6 0.000000 0.000000 0.000000 0.003022 0.000000 0.046247
#
#
# Mechanical properties :
#
#
# Convention : Reuss Voigt Hill
#
# Bulk Modulus (GPa) = 24.93473 41.42208 33.17840
# Shear Modulus (GPa) = 26.57573 34.53797 30.55685
#
# Velocity S-wave (km/s) = 3.31371 3.77764 3.55325
# Velocity P-wave (km/s) = 4.99435 6.01185 5.52656
#
# Compressibility (1/GPa) = 0.04010470
#
# Stress axis : x y z
#
# Youngs Moduli (GPa) = 40.15982 44.86520 103.33671
#
# Poissons Ratio (x) = -0.05734 0.24073
# Poissons Ratio (y) = -0.05132 0.75740
# Poissons Ratio (z) = 0.09355 0.32884
#
# Static dielectric constant tensor:
#      x y z
#    x 2.125600 0.000000 0.039470 
#    y 0.000000 2.076180 0.000000 
#    z 0.039470 0.000000 1.958710 
# 
# From -- ./inp_files/284663.got.cif
#   From: 2010.05.17/outbox.cif.g08.bks.cpg/sg15_143_cif.got.tgz:284663.got - 2010.06.03 18:47:42.
