data_PCOD9299622
_publ_section_title
;
Structure prediction by ZEFSAII (Michael W. Deem and Ramdas Pophale) SiO2 
 PCOD9299622
Probable space group: C 2/C
;
_chemical_formula_sum "Si O2"
_cell_formula_units_Z 48
_cell_length_a 23.821576
_cell_length_b 7.528423
_cell_length_c 10.690486
_cell_angle_alpha 90.000000
_cell_angle_beta 77.768339
_cell_angle_gamma 90.000000
_cell_volume 1873.697137
_symmetry_space_group_name_H-M "C 2/C"
_symmetry_group_IT_number 15
_symmetry_cell_setting 'monoclinic'
loop_
_space_group_symop_operation_xyz
x,y,z
-x,y,1/2-z
-x,-y,-z
x,-y,1/2+z
1/2+x,1/2+y,z
1/2-x,1/2+y,1/2-z
1/2-x,1/2-y,-z
1/2+x,1/2-y,1/2+z
loop_
_atom_site_type_symbol
_atom_site_label
_atom_site_fract_x
_atom_site_fract_y
_atom_site_fract_z
Si Si1 0.756171 0.207936 0.145713
Si Si2 0.652640 0.476094 0.500943
Si Si3 0.841759 0.693541 0.799763
Si Si4 0.047528 0.810918 0.400570
Si Si5 0.631066 0.821018 0.667454
Si Si6 0.033965 0.217399 0.353614
O O1 0.793815 0.333123 0.216417
O O2 0.690134 0.208789 0.218040
O O3 0.750000 0.250000 0.000000
O O4 0.796929 0.034091 0.116047
O O5 0.675805 0.356584 0.603662
O O6 0.600184 0.367839 0.466595
O O7 0.628520 0.661325 0.569985
O O8 0.856922 0.523056 0.878029
O O9 0.899817 0.741226 0.698420
O O10 0.075296 0.693001 0.279874
O O11 0.996860 0.724579 0.504503
O O12 0.028068 0.002490 0.358352
O O13 0.000000 0.287281 0.250000
#
# Coordination Sequence:
#
# PCOD9299622 Si02
#       6
#     8   8   8   8   8   8
#     4  10  25  44  68  99 142 181 229 284 350 419
#     4  11  22  47  68 100 141 181 226 288 356 420
#     4  12  25  43  72 104 139 178 241 290 345 425
#     4  11  22  43  76  94 139 190 228 288 358 416
#     4  11  26  43  69 106 135 182 239 284 350 427
#     4  11  22  43  69 102 137 185 233 288 355 421
#
# _framework density 25.617804
#
# number of rings (size 3 to 8) (size 9 to 14) (size 15 to 20)
#    0.000    1.000    5.000    0.000    7.000    4.000 
#    0.000    4.167    0.000    0.000    0.000    0.000 
#    0.000    0.000    0.000    0.000    0.000    0.000 
#
# Total GULP energy -134244.586859 kJ/mol
# GULP energy per Si atom -5593.524452 kJ/mol
# Density = 2.555950 g / cm^3
# Si number density = 25.617804 Si / 1000 Ang^3
#
#
#
# Elastic Constant Matrix: (Units=GPa)
#
#
# Indices 1 2 3 4 5 6 
#
# 1 92.4520 -20.6956 21.0553 0.0000 -14.9405 0.0000
# 2 -20.6956 104.3771 32.6951 0.0000 -2.7626 0.0000
# 3 21.0553 32.6951 66.8590 0.0000 -8.3068 0.0000
# 4 0.0000 0.0000 0.0000 13.7921 0.0000 -8.9233
# 5 -14.9405 -2.7626 -8.3068 0.0000 54.9394 0.0000
# 6 0.0000 0.0000 0.0000 -8.9233 0.0000 26.5034
#
#
#
# Elastic Compliance Matrix: (Units=1/GPa)
#
#
# Indices 1 2 3 4 5 6 
#
# 1 0.013824 0.004802 -0.006323 0.000000 0.003045 0.000000
# 2 0.004802 0.012986 -0.007765 0.000000 0.000785 0.000000
# 3 -0.006323 -0.007765 0.020876 0.000000 0.001046 0.000000
# 4 0.000000 0.000000 0.000000 0.092698 0.000000 0.031210
# 5 0.003045 0.000785 0.001046 0.000000 0.019228 0.000000
# 6 0.000000 0.000000 0.000000 0.031210 0.000000 0.048239
#
#
# Mechanical properties :
#
#
# Convention : Reuss Voigt Hill
#
# Bulk Modulus (GPa) = 34.34971 36.64420 35.49695
# Shear Modulus (GPa) = 21.17513 34.42254 27.79883
#
# Velocity S-wave (km/s) = 2.87815 3.66962 3.29772
# Velocity P-wave (km/s) = 4.94799 5.68244 5.32788
#
# Compressibility (1/GPa) = 0.02911233
#
# Stress axis : x y z
#
# Youngs Moduli (GPa) = 72.34032 77.00632 47.90302
#
# Poissons Ratio (x) = -0.36980 0.30291
# Poissons Ratio (y) = -0.34740 0.37197
# Poissons Ratio (z) = 0.45744 0.59797
#
# Static dielectric constant tensor:
#      x y z
#    x 2.024680 0.000000 0.014240 
#    y 0.000000 2.073670 0.000000 
#    z 0.014240 0.000000 2.017270 
# 
# From -- ./inp_files/116271.got.cif
#   From: 2010.05.17/outbox.cif.g08.bks.cpg/sg15_59_cif.got.tgz:116271.got - 2010.06.03 18:47:42.
