data_PCOD9299173
_publ_section_title
;
Structure prediction by ZEFSAII (Michael W. Deem and Ramdas Pophale) SiO2 
 PCOD9299173
Probable space group: C 2/C
;
_chemical_formula_sum "Si O2"
_cell_formula_units_Z 36
_cell_length_a 11.748868
_cell_length_b 18.800746
_cell_length_c 5.990971
_cell_angle_alpha 90.000000
_cell_angle_beta 82.680830
_cell_angle_gamma 90.000000
_cell_volume 1312.547841
_symmetry_space_group_name_H-M "C 2/C"
_symmetry_group_IT_number 15
_symmetry_cell_setting 'monoclinic'
loop_
_space_group_symop_operation_xyz
x,y,z
-x,y,1/2-z
-x,-y,-z
x,-y,1/2+z
1/2+x,1/2+y,z
1/2-x,1/2+y,1/2-z
1/2-x,1/2-y,-z
1/2+x,1/2-y,1/2+z
loop_
_atom_site_type_symbol
_atom_site_label
_atom_site_fract_x
_atom_site_fract_y
_atom_site_fract_z
Si Si1 0.146525 0.019653 0.814982
Si Si2 0.500000 0.680094 0.250000
Si Si3 0.678426 0.345658 0.067504
Si Si4 0.131376 0.576748 0.220158
Si Si5 0.860432 0.726312 0.103685
O O1 0.276258 0.986060 0.774391
O O2 0.102987 0.995203 0.578191
O O3 0.137066 0.104174 0.780646
O O4 0.604942 0.640849 0.356171
O O5 0.458277 0.733134 0.451168
O O6 0.659150 0.266251 0.156912
O O7 0.806034 0.376905 0.991300
O O8 0.126281 0.641828 0.398452
O O9 0.000000 0.550536 0.250000
O O10 0.750000 0.750000 0.000000
#
# Coordination Sequence:
#
# PCOD9299173 Si02
#       5
#     8   4   8   8   8
#     4  10  24  47  73 107 153 204 256 313 384 461
#     4  12  26  46  76 110 150 198 256 320 384 468
#     4  11  25  46  74 107 154 200 254 313 385 464
#     4  11  24  45  75 114 154 199 255 321 396 464
#     4  12  25  45  77 113 154 193 255 321 393 467
#
# _framework density 27.427568999999998
#
# number of rings (size 3 to 8) (size 9 to 14) (size 15 to 20)
#    0.000    0.889    2.222    4.000    6.222    3.556 
#    0.000    4.444    0.000    0.000    0.000    0.000 
#    0.000    0.000    0.000    0.000    0.000    0.000 
#
# Total GULP energy -100445.002591 kJ/mol
# GULP energy per Si atom -5580.277922 kJ/mol
# Density = 2.736514 g / cm^3
# Si number density = 27.427569 Si / 1000 Ang^3
#
#
#
# Elastic Constant Matrix: (Units=GPa)
#
#
# Indices 1 2 3 4 5 6 
#
# 1 146.5778 2.2270 52.9004 0.0000 14.2642 0.0000
# 2 2.2270 133.5361 28.6957 0.0000 6.8496 0.0000
# 3 52.9004 28.6957 170.0343 0.0000 -3.2522 0.0000
# 4 0.0000 0.0000 0.0000 54.0616 0.0000 6.2947
# 5 14.2642 6.8496 -3.2522 0.0000 48.4105 0.0000
# 6 0.0000 0.0000 0.0000 6.2947 0.0000 32.5267
#
#
#
# Elastic Compliance Matrix: (Units=1/GPa)
#
#
# Indices 1 2 3 4 5 6 
#
# 1 0.008022 0.000568 -0.002642 0.000000 -0.002622 0.000000
# 2 0.000568 0.007880 -0.001533 0.000000 -0.001385 0.000000
# 3 -0.002642 -0.001533 0.006990 0.000000 0.001465 0.000000
# 4 0.000000 0.000000 0.000000 0.018924 0.000000 -0.003662
# 5 -0.002622 -0.001385 0.001465 0.000000 0.021724 0.000000
# 6 0.000000 0.000000 0.000000 -0.003662 0.000000 0.031453
#
#
# Mechanical properties :
#
#
# Convention : Reuss Voigt Hill
#
# Bulk Modulus (GPa) = 63.78163 68.64381 66.21272
# Shear Modulus (GPa) = 46.54131 51.42143 48.98137
#
# Velocity S-wave (km/s) = 4.12379 4.33460 4.23051
# Velocity P-wave (km/s) = 6.78080 7.08049 6.93226
#
# Compressibility (1/GPa) = 0.01567850
#
# Stress axis : x y z
#
# Youngs Moduli (GPa) = 124.65261 126.90913 143.06411
#
# Poissons Ratio (x) = -0.07214 0.37797
# Poissons Ratio (y) = -0.07085 0.21934
# Poissons Ratio (z) = 0.32932 0.19457
#
# Static dielectric constant tensor:
#      x y z
#    x 2.881430 0.000000 0.131460 
#    y 0.000000 2.109220 0.000000 
#    z 0.131460 0.000000 2.232710 
# 
# From -- ./inp_files/4285.got.cif
#   From: 2010.05.17/outbox.cif.g08.bks.cpg/sg15_3_cif.got.tgz:4285.got - 2010.06.03 18:47:42.
