data_PCOD9299504
_publ_section_title
;
Structure prediction by ZEFSAII (Michael W. Deem and Ramdas Pophale) SiO2 
 PCOD9299504
Probable space group: C 2/C
;
_chemical_formula_sum "Si O2"
_cell_formula_units_Z 32
_cell_length_a 8.115873
_cell_length_b 10.500307
_cell_length_c 24.793879
_cell_angle_alpha 90.000000
_cell_angle_beta 135.945514
_cell_angle_gamma 90.000000
_cell_volume 1469.197747
_symmetry_space_group_name_H-M "C 2/C"
_symmetry_group_IT_number 15
_symmetry_cell_setting 'monoclinic'
loop_
_space_group_symop_operation_xyz
x,y,z
-x,y,1/2-z
-x,-y,-z
x,-y,1/2+z
1/2+x,1/2+y,z
1/2-x,1/2+y,1/2-z
1/2-x,1/2-y,-z
1/2+x,1/2-y,1/2+z
loop_
_atom_site_type_symbol
_atom_site_label
_atom_site_fract_x
_atom_site_fract_y
_atom_site_fract_z
Si Si1 0.663629 0.042363 0.674427
Si Si2 0.257633 0.268321 0.726367
Si Si3 0.349663 0.412817 0.104589
Si Si4 0.172107 0.390556 0.491872
O O1 0.697475 0.177464 0.711729
O O2 0.842721 0.039526 0.665171
O O3 0.413309 0.044076 0.583657
O O4 0.685873 0.916248 0.715867
O O5 0.500000 0.264396 0.750000
O O6 0.042217 0.196494 0.644937
O O7 0.073141 0.375713 0.031200
O O8 0.371852 0.530480 0.069742
O O9 0.250000 0.250000 0.500000
#
# Coordination Sequence:
#
# PCOD9299504 Si02
#       4
#     8   8   8   8
#     4  10  25  42  67  92 135 170 214 268 325 384
#     4  12  25  39  65  97 131 172 218 262 326 387
#     4   9  22  44  66  90 131 170 212 270 323 379
#     4   9  21  42  73  91 126 172 217 267 328 376
#
# _framework density 21.780593
#
# number of rings (size 3 to 8) (size 9 to 14) (size 15 to 20)
#    1.500    0.500    0.000    2.250    7.000    5.000 
#    0.000    2.500    0.000    0.000    0.000    0.000 
#    0.000    0.000    0.000    0.000    0.000    0.000 
#
# Total GULP energy -89121.235723 kJ/mol
# GULP energy per Si atom -5570.077233 kJ/mol
# Density = 2.173102 g / cm^3
# Si number density = 21.780593 Si / 1000 Ang^3
#
#
#
# Elastic Constant Matrix: (Units=GPa)
#
#
# Indices 1 2 3 4 5 6 
#
# 1 19.4780 27.9514 18.7100 0.0000 4.2488 0.0000
# 2 27.9514 152.1530 48.2635 0.0000 -20.1234 0.0000
# 3 18.7100 48.2635 73.0598 0.0000 -16.2278 0.0000
# 4 0.0000 0.0000 0.0000 39.5863 0.0000 0.5588
# 5 4.2488 -20.1234 -16.2278 0.0000 30.1994 0.0000
# 6 0.0000 0.0000 0.0000 0.5588 0.0000 26.4212
#
#
#
# Elastic Compliance Matrix: (Units=1/GPa)
#
#
# Indices 1 2 3 4 5 6 
#
# 1 0.110086 -0.017474 -0.025748 0.000000 -0.040968 0.000000
# 2 -0.017474 0.011325 -0.000890 0.000000 0.009526 0.000000
# 3 -0.025748 -0.000890 0.024462 0.000000 0.016174 0.000000
# 4 0.000000 0.000000 0.000000 0.025269 0.000000 -0.000534
# 5 -0.040968 0.009526 0.016174 0.000000 0.053916 0.000000
# 6 0.000000 0.000000 0.000000 -0.000534 0.000000 0.037860
#
#
# Mechanical properties :
#
#
# Convention : Reuss Voigt Hill
#
# Bulk Modulus (GPa) = 17.34691 48.28230 32.81461
# Shear Modulus (GPa) = 13.50042 29.22577 21.36310
#
# Velocity S-wave (km/s) = 2.49235 3.66707 3.13522
# Velocity P-wave (km/s) = 4.03288 6.33605 5.31082
#
# Compressibility (1/GPa) = 0.05764714
#
# Stress axis : x y z
#
# Youngs Moduli (GPa) = 9.08380 88.30189 40.87986
#
# Poissons Ratio (x) = 1.54302 1.05259
# Poissons Ratio (y) = 0.15873 0.03639
# Poissons Ratio (z) = 0.23389 0.07860
#
# Static dielectric constant tensor:
#      x y z
#    x 1.833460 0.000000 -0.011120 
#    y 0.000000 1.826370 0.000000 
#    z -0.011120 0.000000 1.934340 
# 
# From -- ./inp_files/187459.got.cif
#   From: 2010.05.17/outbox.cif.g08.bks.cpg/sg15_94_cif.got.tgz:187459.got - 2010.06.03 18:47:42.
