data_PCOD9299355
_publ_section_title
;
Structure prediction by ZEFSAII (Michael W. Deem and Ramdas Pophale) SiO2 
 PCOD9299355
Probable space group: C 2/C
;
_chemical_formula_sum "Si O2"
_cell_formula_units_Z 36
_cell_length_a 7.502815
_cell_length_b 18.071069
_cell_length_c 11.655314
_cell_angle_alpha 90.000000
_cell_angle_beta 71.875284
_cell_angle_gamma 90.000000
_cell_volume 1501.862215
_symmetry_space_group_name_H-M "C 2/C"
_symmetry_group_IT_number 15
_symmetry_cell_setting 'monoclinic'
loop_
_space_group_symop_operation_xyz
x,y,z
-x,y,1/2-z
-x,-y,-z
x,-y,1/2+z
1/2+x,1/2+y,z
1/2-x,1/2+y,1/2-z
1/2-x,1/2-y,-z
1/2+x,1/2-y,1/2+z
loop_
_atom_site_type_symbol
_atom_site_label
_atom_site_fract_x
_atom_site_fract_y
_atom_site_fract_z
Si Si1 0.052145 0.267177 0.429576
Si Si2 0.779357 0.850063 0.102120
Si Si3 0.500000 0.427422 0.250000
Si Si4 0.722326 0.003249 0.990076
Si Si5 0.325698 0.853735 0.869267
O O1 0.197202 0.210993 0.341665
O O2 0.134427 0.321016 0.511067
O O3 0.921147 0.210362 0.525179
O O4 0.923590 0.314993 0.373322
O O5 0.857205 0.875740 0.208040
O O6 0.777621 0.923313 0.024928
O O7 0.635948 0.474050 0.139644
O O8 0.747833 0.064500 0.085888
O O9 0.500000 0.000000 0.000000
O O10 0.500000 0.861893 0.750000
#
# Coordination Sequence:
#
# PCOD9299355 Si02
#       5
#     8   8   4   8   8
#     4  10  24  49  72 112 152 196 258 313 389 460
#     4  11  25  48  77 110 150 202 260 315 383 460
#     4  12  28  48  84 108 160 206 260 328 376 474
#     4  12  27  49  74 115 153 203 265 314 389 465
#     4  11  25  47  75 111 159 196 252 325 386 461
#
# _framework density 23.970241999999999
#
# number of rings (size 3 to 8) (size 9 to 14) (size 15 to 20)
#    0.000    0.889    4.444    0.667    4.667    0.000 
#    4.000    2.222    0.000    0.000    0.000    0.000 
#    0.000    0.000    0.000    0.000    0.000    0.000 
#
# Total GULP energy -100818.050421 kJ/mol
# GULP energy per Si atom -5601.002801 kJ/mol
# Density = 2.391568 g / cm^3
# Si number density = 23.970242 Si / 1000 Ang^3
#
#
#
# Elastic Constant Matrix: (Units=GPa)
#
#
# Indices 1 2 3 4 5 6 
#
# 1 117.1289 28.6278 30.6402 0.0000 9.4887 0.0000
# 2 28.6278 125.9113 36.4148 0.0000 3.4848 0.0000
# 3 30.6402 36.4148 114.3748 0.0000 -23.9074 0.0000
# 4 0.0000 0.0000 0.0000 -19.9789 0.0000 53.4499
# 5 9.4887 3.4848 -23.9074 0.0000 43.5480 0.0000
# 6 0.0000 0.0000 0.0000 53.4499 0.0000 -114.5019
#
#
#
# Elastic Compliance Matrix: (Units=1/GPa)
#
#
# Indices 1 2 3 4 5 6 
#
# 1 0.009947 -0.001280 -0.003038 0.000000 -0.003733 0.000000
# 2 -0.001280 0.009164 -0.003016 0.000000 -0.002110 0.000000
# 3 -0.003038 -0.003016 0.012094 0.000000 0.007542 0.000000
# 4 0.000000 0.000000 0.000000 0.201139 0.000000 0.093892
# 5 -0.003733 -0.002110 0.007542 0.000000 0.028086 0.000000
# 6 0.000000 0.000000 0.000000 0.093892 0.000000 0.035096
#
#
# Mechanical properties :
#
#
# Convention : Reuss Voigt Hill
#
# Bulk Modulus (GPa) = 60.46539 60.97564 60.72051
# Shear Modulus (GPa) = 15.83760 -0.73775 7.54992
#
# Velocity S-wave (km/s) = 2.57323 -0.55538 1.77667
# Velocity P-wave (km/s) = 5.84026 5.00820 5.44016
#
# Compressibility (1/GPa) = 0.01653839
#
# Stress axis : x y z
#
# Youngs Moduli (GPa) = 100.52868 109.12643 82.68790
#
# Poissons Ratio (x) = 0.13967 0.25117
# Poissons Ratio (y) = 0.12867 0.24936
# Poissons Ratio (z) = 0.30536 0.32910
#
# Static dielectric constant tensor:
#      x y z
#    x 1.983730 0.000000 -0.003540 
#    y 0.000000 1.860230 0.000000 
#    z -0.003540 0.000000 1.880370 
# 
# From -- ./inp_files/76595.got.cif
#   From: 2010.05.17/outbox.cif.g08.bks.cpg/sg15_39_cif.got.tgz:76595.got - 2010.06.03 18:47:42.
