data_PCOD9299861
_publ_section_title
;
Structure prediction by ZEFSAII (Michael W. Deem and Ramdas Pophale) SiO2 
 PCOD9299861
Probable space group: C 2/C
;
_chemical_formula_sum "Si O2"
_cell_formula_units_Z 32
_cell_length_a 10.064510
_cell_length_b 16.961305
_cell_length_c 9.219454
_cell_angle_alpha 90.000000
_cell_angle_beta 66.035225
_cell_angle_gamma 90.000000
_cell_volume 1438.156147
_symmetry_space_group_name_H-M "C 2/C"
_symmetry_group_IT_number 15
_symmetry_cell_setting 'monoclinic'
loop_
_space_group_symop_operation_xyz
x,y,z
-x,y,1/2-z
-x,-y,-z
x,-y,1/2+z
1/2+x,1/2+y,z
1/2-x,1/2+y,1/2-z
1/2-x,1/2-y,-z
1/2+x,1/2-y,1/2+z
loop_
_atom_site_type_symbol
_atom_site_label
_atom_site_fract_x
_atom_site_fract_y
_atom_site_fract_z
Si Si1 0.222373 0.822188 0.682572
Si Si2 0.972897 0.320568 0.109049
Si Si3 0.601666 0.469629 0.581319
Si Si4 0.147671 0.419711 0.605724
O O1 0.127532 0.751067 0.788999
O O2 0.372156 0.798036 0.534108
O O3 0.135141 0.879202 0.609898
O O4 0.265852 0.873172 0.805973
O O5 0.000000 0.365655 0.250000
O O6 0.890701 0.367019 0.017806
O O7 0.500000 0.503923 0.750000
O O8 0.500000 0.500000 0.500000
O O9 0.757409 0.508593 0.492824
O O10 0.000000 0.444097 0.750000
#
# Coordination Sequence:
#
# PCOD9299861 Si02
#       4
#     8   8   8   8
#     4  11  25  48  70 107 144 189 242 292 362 427
#     4  11  25  42  73 103 147 188 235 296 356 434
#     4  12  26  46  76 105 147 189 241 300 356 429
#     4  10  25  47  72 107 142 189 240 299 361 424
#
# _framework density 22.250713000000001
#
# number of rings (size 3 to 8) (size 9 to 14) (size 15 to 20)
#    0.000    1.000    2.500    2.250    3.500    7.000 
#    0.000    0.000    0.000    0.000    0.000    0.000 
#    0.000    0.000    0.000    0.000    0.000    0.000 
#
# Total GULP energy -89316.150131 kJ/mol
# GULP energy per Si atom -5582.259383 kJ/mol
# Density = 2.220007 g / cm^3
# Si number density = 22.250713 Si / 1000 Ang^3
#
#
#
# Elastic Constant Matrix: (Units=GPa)
#
#
# Indices 1 2 3 4 5 6 
#
# 1 84.6231 61.5983 38.7207 0.0000 -2.2562 0.0000
# 2 61.5983 121.7030 72.9135 0.0000 -13.5002 0.0000
# 3 38.7207 72.9135 178.3945 0.0000 -5.0309 0.0000
# 4 0.0000 0.0000 0.0000 20.0003 0.0000 -20.2867
# 5 -2.2562 -13.5002 -5.0309 0.0000 59.2744 0.0000
# 6 0.0000 0.0000 0.0000 -20.2867 0.0000 27.9296
#
#
#
# Elastic Compliance Matrix: (Units=1/GPa)
#
#
# Indices 1 2 3 4 5 6 
#
# 1 0.018845 -0.009570 -0.000220 0.000000 -0.001481 0.000000
# 2 -0.009570 0.016010 -0.004384 0.000000 0.002910 0.000000
# 3 -0.000220 -0.004384 0.007435 0.000000 -0.000376 0.000000
# 4 0.000000 0.000000 0.000000 0.189935 0.000000 0.137960
# 5 -0.001481 0.002910 -0.000376 0.000000 0.017445 0.000000
# 6 0.000000 0.000000 0.000000 0.137960 0.000000 0.136012
#
#
# Mechanical properties :
#
#
# Convention : Reuss Voigt Hill
#
# Bulk Modulus (GPa) = 71.73860 81.24284 76.49072
# Shear Modulus (GPa) = 11.94234 35.54007 23.74120
#
# Velocity S-wave (km/s) = 2.31923 4.00090 3.27002
# Velocity P-wave (km/s) = 6.28353 7.61148 6.97917
#
# Compressibility (1/GPa) = 0.01393950
#
# Stress axis : x y z
#
# Youngs Moduli (GPa) = 53.06504 62.46064 134.50284
#
# Poissons Ratio (x) = 0.59776 0.02966
# Poissons Ratio (y) = 0.50784 0.58971
# Poissons Ratio (z) = 0.01170 0.27385
#
# Static dielectric constant tensor:
#      x y z
#    x 1.924780 0.000000 0.013750 
#    y 0.000000 1.802390 0.000000 
#    z 0.013750 0.000000 1.766660 
# 
# From -- ./inp_files/28615.got.cif
#   From: 2010.05.17/outbox.cif.g08.bks.cpg/sg15_15_cif.got.tgz:28615.got - 2010.06.03 18:47:42.
