data_PCOD9299180
_publ_section_title
;
Structure prediction by ZEFSAII (Michael W. Deem and Ramdas Pophale) SiO2 
 PCOD9299180
Probable space group: C 2/C
;
_chemical_formula_sum "Si O2"
_cell_formula_units_Z 36
_cell_length_a 31.773197
_cell_length_b 5.931025
_cell_length_c 14.612688
_cell_angle_alpha 90.000000
_cell_angle_beta 34.313145
_cell_angle_gamma 90.000000
_cell_volume 1552.318398
_symmetry_space_group_name_H-M "C 2/C"
_symmetry_group_IT_number 15
_symmetry_cell_setting 'monoclinic'
loop_
_space_group_symop_operation_xyz
x,y,z
-x,y,1/2-z
-x,-y,-z
x,-y,1/2+z
1/2+x,1/2+y,z
1/2-x,1/2+y,1/2-z
1/2-x,1/2-y,-z
1/2+x,1/2-y,1/2+z
loop_
_atom_site_type_symbol
_atom_site_label
_atom_site_fract_x
_atom_site_fract_y
_atom_site_fract_z
Si Si1 0.000000 0.832840 0.250000
Si Si2 0.241016 0.532735 0.307272
Si Si3 0.175907 0.257258 0.193519
Si Si4 0.100013 0.465906 0.978001
Si Si5 0.471369 0.631092 0.141123
O O1 0.946924 0.683460 0.408440
O O2 0.953958 0.977960 0.260106
O O3 0.239630 0.266569 0.283349
O O4 0.303479 0.553817 0.273995
O O5 0.151886 0.586118 0.472718
O O6 0.156871 0.468739 0.293807
O O7 0.103957 0.241670 0.259662
O O8 0.250000 0.250000 0.000000
O O9 0.038770 0.289090 0.054818
O O10 0.500000 0.500000 0.000000
#
# Coordination Sequence:
#
# PCOD9299180 Si02
#       5
#     4   8   8   8   8
#     4  12  28  44  82 106 152 204 270 332 388 466
#     4  10  24  47  74 106 153 198 251 318 393 467
#     4  11  26  45  74 114 153 200 254 330 399 474
#     4  11  26  48  76 111 152 204 266 321 395 479
#     4  12  26  49  79 109 153 202 269 322 395 479
#
# _framework density 23.191120999999999
#
# number of rings (size 3 to 8) (size 9 to 14) (size 15 to 20)
#    0.000    0.889    2.222    2.667    9.333    3.556 
#    0.000    6.667    0.000    0.000    0.000    0.000 
#    0.000    0.000    0.000    0.000    0.000    0.000 
#
# Total GULP energy -100201.422860 kJ/mol
# GULP energy per Si atom -5566.745714 kJ/mol
# Density = 2.313834 g / cm^3
# Si number density = 23.191121 Si / 1000 Ang^3
#
#
#
# Elastic Constant Matrix: (Units=GPa)
#
#
# Indices 1 2 3 4 5 6 
#
# 1 122.0853 36.9502 16.4513 -0.0001 -22.4875 -0.0003
# 2 36.9502 85.3695 39.4682 0.0007 8.8539 0.0000
# 3 16.4513 39.4682 97.8344 0.0005 -11.2078 0.0002
# 4 -0.0001 0.0007 0.0005 19.0252 0.0001 -4.3468
# 5 -22.4875 8.8539 -11.2078 0.0001 54.3395 0.0000
# 6 -0.0003 0.0000 0.0002 -4.3468 0.0000 39.2134
#
#
#
# Elastic Compliance Matrix: (Units=1/GPa)
#
#
# Indices 1 2 3 4 5 6 
#
# 1 0.010842 -0.005826 0.001178 0.000000 0.005679 0.000000
# 2 -0.005826 0.018265 -0.007175 -0.000001 -0.006867 0.000000
# 3 0.001178 -0.007175 0.013425 0.000000 0.004426 0.000000
# 4 0.000000 -0.000001 0.000000 0.053928 0.000000 0.005978
# 5 0.005679 -0.006867 0.004426 0.000000 0.022785 0.000000
# 6 0.000000 0.000000 0.000000 0.005978 0.000000 0.026164
#
#
# Mechanical properties :
#
#
# Convention : Reuss Voigt Hill
#
# Bulk Modulus (GPa) = 52.95408 54.55873 53.75640
# Shear Modulus (GPa) = 28.51439 36.67693 32.59566
#
# Velocity S-wave (km/s) = 3.51028 3.98113 3.75310
# Velocity P-wave (km/s) = 6.26999 6.68650 6.48159
#
# Compressibility (1/GPa) = 0.01888429
#
# Stress axis : x y z
#
# Youngs Moduli (GPa) = 92.23735 54.74944 74.48791
#
# Poissons Ratio (x) = 0.31897 -0.08773
# Poissons Ratio (y) = 0.53738 0.53448
# Poissons Ratio (z) = -0.10864 0.39285
#
# Static dielectric constant tensor:
#      x y z
#    x 2.109960 0.000000 -0.024140 
#    y 0.000000 1.981350 0.000000 
#    z -0.024140 0.000000 1.972050 
# 
# From -- ./inp_files/179944.got.cif
#   From: 2010.05.17/outbox.cif.g08.bks.cpg/sg15_90_cif.got.tgz:179944.got - 2010.06.03 18:47:42.
