data_PCOD9299340
_publ_section_title
;
Structure prediction by ZEFSAII (Michael W. Deem and Ramdas Pophale) SiO2 
 PCOD9299340
Probable space group: C 2/C
;
_chemical_formula_sum "Si O2"
_cell_formula_units_Z 20
_cell_length_a 18.580907
_cell_length_b 5.238637
_cell_length_c 9.001296
_cell_angle_alpha 90.000000
_cell_angle_beta 119.239779
_cell_angle_gamma 90.000000
_cell_volume 764.534496
_symmetry_space_group_name_H-M "C 2/C"
_symmetry_group_IT_number 15
_symmetry_cell_setting 'monoclinic'
loop_
_space_group_symop_operation_xyz
x,y,z
-x,y,1/2-z
-x,-y,-z
x,-y,1/2+z
1/2+x,1/2+y,z
1/2-x,1/2+y,1/2-z
1/2-x,1/2-y,-z
1/2+x,1/2-y,1/2+z
loop_
_atom_site_type_symbol
_atom_site_label
_atom_site_fract_x
_atom_site_fract_y
_atom_site_fract_z
Si Si1 0.242296 0.498292 0.092012
Si Si2 0.500000 0.406573 0.250000
Si Si3 0.108024 0.783346 0.092150
O O1 0.155240 0.531114 0.086881
O O2 0.317939 0.470404 0.281466
O O3 0.250000 0.750000 0.000000
O O4 0.250000 0.250000 0.000000
O O5 0.550812 0.248179 0.178745
O O6 0.558703 0.587155 0.408533
#
# Coordination Sequence:
#
# PCOD9299340 Si02
#       3
#     8   4   8
#     4  12  26  49  85 120 163 224 281 343 403 513
#     4  10  24  48  86 128 176 218 268 368 426 500
#     4  11  24  50  85 123 174 220 289 337 436 493
#
# _framework density 26.159708999999999
#
# number of rings (size 3 to 8) (size 9 to 14) (size 15 to 20)
#    0.000    0.800    4.000    2.400    0.000    0.000 
#    0.000    6.000    0.000    0.000    0.000    0.000 
#    0.000    0.000    0.000    0.000    0.000    0.000 
#
# Total GULP energy -56177.901076 kJ/mol
# GULP energy per Si atom -5617.790108 kJ/mol
# Density = 2.610017 g / cm^3
# Si number density = 26.159709 Si / 1000 Ang^3
#
#
#
# Elastic Constant Matrix: (Units=GPa)
#
#
# Indices 1 2 3 4 5 6 
#
# 1 242.1752 80.2710 81.1832 0.0000 -36.1806 0.0000
# 2 80.2710 179.3677 78.8602 0.0000 -19.3771 0.0000
# 3 81.1832 78.8602 231.3418 0.0000 9.0945 0.0000
# 4 0.0000 0.0000 0.0000 33.3987 0.0000 -19.7042
# 5 -36.1806 -19.3771 9.0945 0.0000 58.3119 0.0000
# 6 0.0000 0.0000 0.0000 -19.7042 0.0000 59.3455
#
#
#
# Elastic Compliance Matrix: (Units=1/GPa)
#
#
# Indices 1 2 3 4 5 6 
#
# 1 0.005642 -0.001465 -0.001609 0.000000 0.003265 0.000000
# 2 -0.001465 0.007336 -0.002059 0.000000 0.001850 0.000000
# 3 -0.001609 -0.002059 0.005690 0.000000 -0.002570 0.000000
# 4 0.000000 0.000000 0.000000 0.037235 0.000000 0.012363
# 5 0.003265 0.001850 -0.002570 0.000000 0.020190 0.000000
# 6 0.000000 0.000000 0.000000 0.012363 0.000000 0.020955
#
#
# Mechanical properties :
#
#
# Convention : Reuss Voigt Hill
#
# Bulk Modulus (GPa) = 119.02058 125.94594 122.48326
# Shear Modulus (GPa) = 45.40687 57.71593 51.56140
#
# Velocity S-wave (km/s) = 4.17076 4.70221 4.44444
# Velocity P-wave (km/s) = 8.29398 8.81650 8.55923
#
# Compressibility (1/GPa) = 0.00840191
#
# Stress axis : x y z
#
# Youngs Moduli (GPa) = 177.24687 136.31473 175.73949
#
# Poissons Ratio (x) = 0.19968 0.28274
# Poissons Ratio (y) = 0.25963 0.36192
# Poissons Ratio (z) = 0.28517 0.28073
#
# Static dielectric constant tensor:
#      x y z
#    x 2.135360 0.000000 -0.017320 
#    y 0.000000 2.022970 0.000000 
#    z -0.017320 0.000000 2.063180 
# 
# From -- ./inp_files/45083.got.cif
#   From: 2010.05.17/outbox.cif.g08.bks.cpg/sg15_23_cif.got.tgz:45083.got - 2010.06.03 18:47:42.
