data_PCOD9299713
_publ_section_title
;
Structure prediction by ZEFSAII (Michael W. Deem and Ramdas Pophale) SiO2 
 PCOD9299713
Probable space group: C 2/C
;
_chemical_formula_sum "Si O2"
_cell_formula_units_Z 56
_cell_length_a 14.354700
_cell_length_b 5.119959
_cell_length_c 29.714192
_cell_angle_alpha 90.000000
_cell_angle_beta 77.299110
_cell_angle_gamma 90.000000
_cell_volume 2130.422113
_symmetry_space_group_name_H-M "C 2/C"
_symmetry_group_IT_number 15
_symmetry_cell_setting 'monoclinic'
loop_
_space_group_symop_operation_xyz
x,y,z
-x,y,1/2-z
-x,-y,-z
x,-y,1/2+z
1/2+x,1/2+y,z
1/2-x,1/2+y,1/2-z
1/2-x,1/2-y,-z
1/2+x,1/2-y,1/2+z
loop_
_atom_site_type_symbol
_atom_site_label
_atom_site_fract_x
_atom_site_fract_y
_atom_site_fract_z
Si Si1 0.618763 0.086530 0.651345
Si Si2 0.337177 0.917585 0.081485
Si Si3 0.540682 0.741814 0.865920
Si Si4 0.701088 0.076710 0.735094
Si Si5 0.464837 0.424371 0.709596
Si Si6 0.136129 0.954359 0.576094
Si Si7 0.608762 0.577008 0.978342
O O1 0.694745 0.034126 0.681836
O O2 0.562866 0.338677 0.675618
O O3 0.638460 0.162677 0.597207
O O4 0.535359 0.879106 0.658358
O O5 0.392382 0.042275 0.118086
O O6 0.372327 0.127706 0.039888
O O7 0.222570 0.922436 0.095531
O O8 0.360477 0.626021 0.063519
O O9 0.591926 0.546561 0.826343
O O10 0.467710 0.587926 0.906879
O O11 0.770507 0.309659 0.743738
O O12 0.599192 0.189221 0.763726
O O13 0.500000 0.579515 0.750000
O O14 0.160074 0.962504 0.520930
O O15 0.500000 0.500000 0.000000
#
# Coordination Sequence:
#
# PCOD9299713 Si02
#       7
#     8   8   8   8   8   8   8
#     4  10  25  45  70 102 143 190 232 302 357 429
#     4  12  28  45  75 107 141 194 241 299 360 428
#     4  11  25  46  75 103 148 191 241 301 364 429
#     4  11  27  46  72 107 141 183 241 297 355 432
#     4   9  23  45  69  99 139 191 232 291 368 427
#     4  11  26  45  71 107 146 185 245 298 360 430
#     4  12  25  49  73 103 147 193 239 294 366 428
#
# _framework density 26.285869000000002
#
# number of rings (size 3 to 8) (size 9 to 14) (size 15 to 20)
#    0.000    1.143    1.429    2.143   16.000    0.571 
#    0.000    0.000    0.000    0.000    0.000    0.000 
#    0.000    0.000    0.000    0.000    0.000    0.000 
#
# Total GULP energy -156533.129617 kJ/mol
# GULP energy per Si atom -5590.468915 kJ/mol
# Density = 2.622604 g / cm^3
# Si number density = 26.285869 Si / 1000 Ang^3
#
#
#
# Elastic Constant Matrix: (Units=GPa)
#
#
# Indices 1 2 3 4 5 6 
#
# 1 132.7424 7.4026 19.7478 -0.0001 20.7282 0.0002
# 2 7.4026 45.9327 25.6668 0.0009 12.8144 0.0003
# 3 19.7478 25.6668 116.4718 -0.0003 40.0529 0.0001
# 4 -0.0001 0.0009 -0.0003 40.4518 0.0000 3.1678
# 5 20.7282 12.8144 40.0529 0.0000 47.8242 0.0002
# 6 0.0002 0.0003 0.0001 3.1678 0.0002 38.5237
#
#
#
# Elastic Compliance Matrix: (Units=1/GPa)
#
#
# Indices 1 2 3 4 5 6 
#
# 1 0.008088 -0.000288 -0.000181 0.000000 -0.003277 0.000000
# 2 -0.000288 0.025130 -0.004517 -0.000001 -0.002825 0.000000
# 3 -0.000181 -0.004517 0.012878 0.000000 -0.009496 0.000000
# 4 0.000000 -0.000001 0.000000 0.024881 0.000000 -0.002046
# 5 -0.003277 -0.002825 -0.009496 0.000000 0.031040 0.000000
# 6 0.000000 0.000000 0.000000 -0.002046 0.000000 0.026126
#
#
# Mechanical properties :
#
#
# Convention : Reuss Voigt Hill
#
# Bulk Modulus (GPa) = 27.68374 44.53124 36.10749
# Shear Modulus (GPa) = 33.29849 41.51525 37.40687
#
# Velocity S-wave (km/s) = 3.56305 3.97845 3.77646
# Velocity P-wave (km/s) = 5.24231 6.17106 5.72554
#
# Compressibility (1/GPa) = 0.03612229
#
# Stress axis : x y z
#
# Youngs Moduli (GPa) = 123.63899 39.79320 77.65467
#
# Poissons Ratio (x) = 0.01147 0.01406
# Poissons Ratio (y) = 0.03563 0.35080
# Poissons Ratio (z) = 0.02238 0.17976
#
# Static dielectric constant tensor:
#      x y z
#    x 2.082980 0.000000 0.006130 
#    y 0.000000 2.201210 0.000000 
#    z 0.006130 0.000000 2.138830 
# 
# From -- ./inp_files/312337.got.cif
#   From: 2010.05.17/outbox.cif.g08.bks.cpg/sg15_157_cif.got.tgz:312337.got - 2010.06.03 18:47:42.
