data_PCOD9299572
_publ_section_title
;
Structure prediction by ZEFSAII (Michael W. Deem and Ramdas Pophale) SiO2 
 PCOD9299572
Probable space group: C 2/C
;
_chemical_formula_sum "Si O2"
_cell_formula_units_Z 44
_cell_length_a 6.722868
_cell_length_b 18.724272
_cell_length_c 16.668555
_cell_angle_alpha 90.000000
_cell_angle_beta 117.756752
_cell_angle_gamma 90.000000
_cell_volume 1856.811218
_symmetry_space_group_name_H-M "C 2/C"
_symmetry_group_IT_number 15
_symmetry_cell_setting 'monoclinic'
loop_
_space_group_symop_operation_xyz
x,y,z
-x,y,1/2-z
-x,-y,-z
x,-y,1/2+z
1/2+x,1/2+y,z
1/2-x,1/2+y,1/2-z
1/2-x,1/2-y,-z
1/2+x,1/2-y,1/2+z
loop_
_atom_site_type_symbol
_atom_site_label
_atom_site_fract_x
_atom_site_fract_y
_atom_site_fract_z
Si Si1 0.758418 0.983475 0.540870
Si Si2 0.762893 0.133926 0.170144
Si Si3 0.000000 0.545336 0.250000
Si Si4 0.023194 0.730010 0.502428
Si Si5 0.892960 0.925895 0.318676
Si Si6 0.217359 0.354906 0.423010
O O1 0.834556 0.931139 0.625966
O O2 0.757840 0.935188 0.461855
O O3 0.500000 0.000000 0.500000
O O4 0.899843 0.054001 0.583397
O O5 0.576130 0.099137 0.193742
O O6 0.633495 0.190851 0.092191
O O7 0.000000 0.160868 0.250000
O O8 0.212752 0.490923 0.288686
O O9 0.250000 0.750000 0.500000
O O10 0.007385 0.679219 0.578857
O O11 0.906809 0.805366 0.498459
O O12 0.762155 0.860042 0.336465
O O13 0.000000 0.916287 0.250000
#
# Coordination Sequence:
#
# PCOD9299572 Si02
#       6
#     8   8   4   8   8   8
#     4  11  22  42  70 105 139 183 235 295 364 435
#     4  11  23  44  68 101 145 185 240 293 362 435
#     4  12  22  40  68  98 144 184 226 290 370 438
#     4  10  25  46  71 101 136 191 253 297 350 422
#     4  12  25  43  67 106 146 182 233 298 375 439
#     4  10  25  43  70  99 141 182 240 295 355 429
#
# _framework density 23.696536999999999
#
# number of rings (size 3 to 8) (size 9 to 14) (size 15 to 20)
#    0.000    1.091    3.636    1.636    7.636    1.455 
#    3.273    0.000    0.000    0.000    0.000    0.000 
#    0.000    0.000    0.000    0.000    0.000    0.000 
#
# Total GULP energy -122692.318756 kJ/mol
# GULP energy per Si atom -5576.923580 kJ/mol
# Density = 2.364260 g / cm^3
# Si number density = 23.696537 Si / 1000 Ang^3
#
#
#
# Elastic Constant Matrix: (Units=GPa)
#
#
# Indices 1 2 3 4 5 6 
#
# 1 207.9540 48.2158 72.6525 0.0000 -28.5678 0.0000
# 2 48.2158 63.0619 35.8508 0.0000 -19.1485 0.0000
# 3 72.6525 35.8508 61.7626 0.0000 -13.4344 0.0000
# 4 0.0000 0.0000 0.0000 32.3108 0.0000 -10.1608
# 5 -28.5678 -19.1485 -13.4344 0.0000 54.7307 0.0000
# 6 0.0000 0.0000 0.0000 -10.1608 0.0000 47.4397
#
#
#
# Elastic Compliance Matrix: (Units=1/GPa)
#
#
# Indices 1 2 3 4 5 6 
#
# 1 0.008398 -0.000686 -0.009063 0.000000 0.001919 0.000000
# 2 -0.000686 0.025204 -0.012659 0.000000 0.005353 0.000000
# 3 -0.009063 -0.012659 0.034024 0.000000 -0.000808 0.000000
# 4 0.000000 0.000000 0.000000 0.033185 0.000000 0.007108
# 5 0.001919 0.005353 -0.000808 0.000000 0.020947 0.000000
# 6 0.000000 0.000000 0.000000 0.007108 0.000000 0.022602
#
#
# Mechanical properties :
#
#
# Convention : Reuss Voigt Hill
#
# Bulk Modulus (GPa) = 43.83936 71.80186 57.82061
# Shear Modulus (GPa) = 25.40946 38.63354 32.02150
#
# Velocity S-wave (km/s) = 3.27813 4.04213 3.68001
# Velocity P-wave (km/s) = 5.73312 7.22160 6.51998
#
# Compressibility (1/GPa) = 0.02281055
#
# Stress axis : x y z
#
# Youngs Moduli (GPa) = 119.08135 39.67681 29.39099
#
# Poissons Ratio (x) = 0.02721 0.26637
# Poissons Ratio (y) = 0.08166 0.37205
# Poissons Ratio (z) = 1.07922 0.50226
#
# Static dielectric constant tensor:
#      x y z
#    x 1.975270 0.000000 -0.093550 
#    y 0.000000 1.918570 0.000000 
#    z -0.093550 0.000000 1.930840 
# 
# From -- ./inp_files/184972.got.cif
#   From: 2010.05.17/outbox.cif.g08.bks.cpg/sg15_93_cif.got.tgz:184972.got - 2010.06.03 18:47:42.
