data_PCOD9299247
_publ_section_title
;
Structure prediction by ZEFSAII (Michael W. Deem and Ramdas Pophale) SiO2 
 PCOD9299247
Probable space group: C 2/C
;
_chemical_formula_sum "Si O2"
_cell_formula_units_Z 56
_cell_length_a 7.985124
_cell_length_b 12.757973
_cell_length_c 25.360144
_cell_angle_alpha 90.000000
_cell_angle_beta 113.671010
_cell_angle_gamma 90.000000
_cell_volume 2366.175342
_symmetry_space_group_name_H-M "C 2/C"
_symmetry_group_IT_number 15
_symmetry_cell_setting 'monoclinic'
loop_
_space_group_symop_operation_xyz
x,y,z
-x,y,1/2-z
-x,-y,-z
x,-y,1/2+z
1/2+x,1/2+y,z
1/2-x,1/2+y,1/2-z
1/2-x,1/2-y,-z
1/2+x,1/2-y,1/2+z
loop_
_atom_site_type_symbol
_atom_site_label
_atom_site_fract_x
_atom_site_fract_y
_atom_site_fract_z
Si Si1 0.853124 0.968149 0.024613
Si Si2 0.539230 0.278591 0.822055
Si Si3 0.087689 0.657335 0.416090
Si Si4 0.251041 0.848699 0.233908
Si Si5 0.373567 0.358141 0.131535
Si Si6 0.248003 0.687041 0.053083
Si Si7 0.797336 0.472167 0.820339
O O1 0.748620 0.067295 0.035243
O O2 0.941589 0.915493 0.087051
O O3 0.713721 0.896776 0.974845
O O4 0.000000 0.000000 0.000000
O O5 0.646155 0.181129 0.807735
O O6 0.332565 0.244686 0.781494
O O7 0.578871 0.287853 0.888306
O O8 0.636625 0.384364 0.810144
O O9 0.192693 0.747177 0.397971
O O10 0.922015 0.705735 0.429694
O O11 0.985650 0.583922 0.360340
O O12 0.287011 0.962862 0.264404
O O13 0.038723 0.841962 0.193192
O O14 0.232500 0.435550 0.140915
O O15 0.250000 0.750000 0.000000
#
# Coordination Sequence:
#
# PCOD9299247 Si02
#       7
#     8   8   8   8   8   8   8
#     4  12  27  43  72 111 147 194 246 308 369 445
#     4  10  24  48  68 107 142 190 244 301 366 451
#     4  11  25  49  71 106 150 191 250 306 373 446
#     4  11  25  40  75 101 140 191 240 301 376 440
#     4  12  24  45  70 107 141 189 247 302 367 448
#     4  11  23  45  77 103 148 198 245 303 383 445
#     4  11  25  47  74 101 146 195 244 308 380 435
#
# _framework density 23.666886000000002
#
# number of rings (size 3 to 8) (size 9 to 14) (size 15 to 20)
#    0.000    0.857    5.714    2.143    6.000    2.286 
#    0.000    2.857    0.000    0.000    0.000    0.000 
#    0.000    0.000    0.000    0.000    0.000    0.000 
#
# Total GULP energy -156474.866822 kJ/mol
# GULP energy per Si atom -5588.388101 kJ/mol
# Density = 2.361302 g / cm^3
# Si number density = 23.666886 Si / 1000 Ang^3
#
#
#
# Elastic Constant Matrix: (Units=GPa)
#
#
# Indices 1 2 3 4 5 6 
#
# 1 47.3518 29.2364 3.4603 0.0000 -7.8717 0.0000
# 2 29.2364 136.3096 51.6658 0.0000 -11.4429 0.0000
# 3 3.4603 51.6658 141.5315 0.0000 -8.9758 0.0000
# 4 0.0000 0.0000 0.0000 59.4944 0.0000 -21.9106
# 5 -7.8717 -11.4429 -8.9758 0.0000 30.2252 0.0000
# 6 0.0000 0.0000 0.0000 -21.9106 0.0000 21.0473
#
#
#
# Elastic Compliance Matrix: (Units=1/GPa)
#
#
# Indices 1 2 3 4 5 6 
#
# 1 0.025326 -0.005686 0.001772 0.000000 0.004969 0.000000
# 2 -0.005686 0.009957 -0.003415 0.000000 0.001275 0.000000
# 3 0.001772 -0.003415 0.008374 0.000000 0.001655 0.000000
# 4 0.000000 0.000000 0.000000 0.027259 0.000000 0.028377
# 5 0.004969 0.001275 0.001655 0.000000 0.035353 0.000000
# 6 0.000000 0.000000 0.000000 0.028377 0.000000 0.077053
#
#
# Mechanical properties :
#
#
# Convention : Reuss Voigt Hill
#
# Bulk Modulus (GPa) = 34.48537 54.87978 44.68257
# Shear Modulus (GPa) = 24.07924 38.20875 31.14399
#
# Velocity S-wave (km/s) = 3.19317 4.02237 3.63151
# Velocity P-wave (km/s) = 5.31017 6.69413 6.04190
#
# Compressibility (1/GPa) = 0.02899780
#
# Stress axis : x y z
#
# Youngs Moduli (GPa) = 39.48496 100.42865 119.41904
#
# Poissons Ratio (x) = 0.57109 -0.21158
# Poissons Ratio (y) = 0.22453 0.40782
# Poissons Ratio (z) = -0.06996 0.34297
#
# Static dielectric constant tensor:
#      x y z
#    x 1.988690 0.000000 0.032710 
#    y 0.000000 1.827900 0.000000 
#    z 0.032710 0.000000 1.575780 
# 
# From -- ./inp_files/307537.got.cif
#   From: 2010.05.17/outbox.cif.g08.bks.cpg/sg15_154_cif.got.tgz:307537.got - 2010.06.03 18:47:42.
