data_PCOD9299682
_publ_section_title
;
Structure prediction by ZEFSAII (Michael W. Deem and Ramdas Pophale) SiO2 
 PCOD9299682
Probable space group: C 2/C
;
_chemical_formula_sum "Si O2"
_cell_formula_units_Z 48
_cell_length_a 14.841569
_cell_length_b 10.224055
_cell_length_c 17.230777
_cell_angle_alpha 90.000000
_cell_angle_beta 53.414720
_cell_angle_gamma 90.000000
_cell_volume 2099.459557
_symmetry_space_group_name_H-M "C 2/C"
_symmetry_group_IT_number 15
_symmetry_cell_setting 'monoclinic'
loop_
_space_group_symop_operation_xyz
x,y,z
-x,y,1/2-z
-x,-y,-z
x,-y,1/2+z
1/2+x,1/2+y,z
1/2-x,1/2+y,1/2-z
1/2-x,1/2-y,-z
1/2+x,1/2-y,1/2+z
loop_
_atom_site_type_symbol
_atom_site_label
_atom_site_fract_x
_atom_site_fract_y
_atom_site_fract_z
Si Si1 0.602058 0.540696 0.545720
Si Si2 0.500000 0.991784 0.750000
Si Si3 0.933023 0.284198 0.051137
Si Si4 0.847732 0.273909 0.261471
Si Si5 0.841182 0.230687 0.522145
Si Si6 0.832254 0.378752 0.958030
Si Si7 0.500000 0.541109 0.250000
O O1 0.568299 0.656806 0.506187
O O2 0.576857 0.393397 0.534194
O O3 0.735997 0.521708 0.483691
O O4 0.547288 0.550303 0.657984
O O5 0.431221 0.901331 0.845676
O O6 0.584523 0.094709 0.748676
O O7 0.853838 0.262806 0.165959
O O8 0.877948 0.387592 0.020896
O O9 0.055273 0.329726 0.019018
O O10 0.727067 0.281944 0.363424
O O11 0.906269 0.143421 0.267026
O O12 0.750000 0.250000 0.500000
O O13 0.750000 0.250000 0.000000
#
# Coordination Sequence:
#
# PCOD9299682 Si02
#       7
#     8   4   8   8   8   8   4
#     4  11  23  45  70  97 140 183 224 285 349 402
#     4  11  22  45  72  94 136 191 226 277 354 412
#     4  11  26  43  65 104 139 167 233 292 332 409
#     4  11  23  40  68 102 133 180 237 278 338 418
#     4  12  22  43  70  97 135 181 227 285 339 406
#     4  10  25  45  67  97 140 179 225 284 349 410
#     4  11  22  39  74 100 136 185 230 275 350 410
#
# _framework density 22.863026999999999
#
# number of rings (size 3 to 8) (size 9 to 14) (size 15 to 20)
#    0.000    1.000    5.000    1.500    0.000    7.333 
#    0.000    0.000    0.000    0.000    0.000    0.000 
#    0.000    0.000    0.000    0.000    0.000    0.000 
#
# Total GULP energy -133753.865732 kJ/mol
# GULP energy per Si atom -5573.077739 kJ/mol
# Density = 2.281099 g / cm^3
# Si number density = 22.863027 Si / 1000 Ang^3
#
#
#
# Elastic Constant Matrix: (Units=GPa)
#
#
# Indices 1 2 3 4 5 6 
#
# 1 104.2583 -21.7542 20.5391 0.0000 13.7368 0.0000
# 2 -21.7542 74.9188 1.4739 0.0000 13.9939 0.0000
# 3 20.5391 1.4739 215.0420 0.0000 6.0298 0.0000
# 4 0.0000 0.0000 0.0000 37.7925 0.0000 1.4987
# 5 13.7368 13.9939 6.0298 0.0000 39.7111 0.0000
# 6 0.0000 0.0000 0.0000 1.4987 0.0000 4.0805
#
#
#
# Elastic Compliance Matrix: (Units=1/GPa)
#
#
# Indices 1 2 3 4 5 6 
#
# 1 0.011383 0.004316 -0.000968 0.000000 -0.005312 0.000000
# 2 0.004316 0.015925 -0.000324 0.000000 -0.007056 0.000000
# 3 -0.000968 -0.000324 0.004753 0.000000 -0.000273 0.000000
# 4 0.000000 0.000000 0.000000 0.026851 0.000000 -0.009862
# 5 -0.005312 -0.007056 -0.000273 0.000000 0.029547 0.000000
# 6 0.000000 0.000000 0.000000 -0.009862 0.000000 0.248691
#
#
# Mechanical properties :
#
#
# Convention : Reuss Voigt Hill
#
# Bulk Modulus (GPa) = 26.23933 43.85963 35.04948
# Shear Modulus (GPa) = 14.54316 42.58085 28.56201
#
# Velocity S-wave (km/s) = 2.52484 4.32027 3.53833
# Velocity P-wave (km/s) = 4.47229 6.64166 5.66185
#
# Compressibility (1/GPa) = 0.03811073
#
# Stress axis : x y z
#
# Youngs Moduli (GPa) = 87.85252 62.79246 210.41283
#
# Poissons Ratio (x) = -0.27104 0.20364
# Poissons Ratio (y) = -0.37921 0.06808
# Poissons Ratio (z) = 0.08503 0.02032
#
# Static dielectric constant tensor:
#      x y z
#    x 2.223730 0.000000 0.123610 
#    y 0.000000 2.171720 0.000000 
#    z 0.123610 0.000000 1.854820 
# 
# From -- ./inp_files/151896.got.cif
#   From: 2010.05.17/outbox.cif.g08.bks.cpg/sg15_76_cif.got.tgz:151896.got - 2010.06.03 18:47:42.
