data_PCOD9299323
_publ_section_title
;
Structure prediction by ZEFSAII (Michael W. Deem and Ramdas Pophale) SiO2 
 PCOD9299323
Probable space group: C 2/C
;
_chemical_formula_sum "Si O2"
_cell_formula_units_Z 48
_cell_length_a 8.028743
_cell_length_b 27.172777
_cell_length_c 13.208431
_cell_angle_alpha 90.000000
_cell_angle_beta 136.514529
_cell_angle_gamma 90.000000
_cell_volume 1983.028411
_symmetry_space_group_name_H-M "C 2/C"
_symmetry_group_IT_number 15
_symmetry_cell_setting 'monoclinic'
loop_
_space_group_symop_operation_xyz
x,y,z
-x,y,1/2-z
-x,-y,-z
x,-y,1/2+z
1/2+x,1/2+y,z
1/2-x,1/2+y,1/2-z
1/2-x,1/2-y,-z
1/2+x,1/2-y,1/2+z
loop_
_atom_site_type_symbol
_atom_site_label
_atom_site_fract_x
_atom_site_fract_y
_atom_site_fract_z
Si Si1 0.000000 0.673997 0.750000
Si Si2 0.726346 0.208684 0.285417
Si Si3 0.502620 0.628752 0.989367
Si Si4 0.474170 0.204128 0.525006
Si Si5 0.000000 0.026300 0.750000
Si Si6 0.270170 0.956205 0.713322
Si Si7 0.873901 0.394015 0.492025
O O1 0.767403 0.639401 0.664170
O O2 0.084763 0.708177 0.881443
O O3 0.500000 0.189103 0.250000
O O4 0.800458 0.258593 0.375217
O O5 0.930403 0.167623 0.393455
O O6 0.669174 0.214971 0.141902
O O7 0.581876 0.574767 0.062039
O O8 0.681486 0.636567 0.973958
O O9 0.521979 0.145772 0.538169
O O10 0.779807 0.061111 0.619281
O O11 0.885994 0.993233 0.788623
O O12 0.500000 0.977184 0.750000
O O13 0.409479 0.916903 0.846495
#
# Coordination Sequence:
#
# PCOD9299323 Si02
#       7
#     4   8   8   8   4   8   8
#     4  12  30  44  67 116 152 206 243 314 392 452
#     4  12  24  46  82 110 141 205 261 309 383 458
#     4  11  24  49  75 108 153 201 254 320 381 461
#     4  12  27  45  76 111 154 195 253 314 378 465
#     4  12  26  42  79 112 156 204 255 322 392 458
#     4  10  24  48  77 110 149 203 257 319 391 457
#     4  11  24  50  73 111 152 194 258 318 372 462
#
# _framework density 24.205400999999998
#
# number of rings (size 3 to 8) (size 9 to 14) (size 15 to 20)
#    0.000    0.667    3.333    3.500    5.833    6.000 
#    9.000    0.000    0.000    0.000    0.000    0.000 
#    0.000    0.000    0.000    0.000    0.000    0.000 
#
# Total GULP energy -134121.095950 kJ/mol
# GULP energy per Si atom -5588.378998 kJ/mol
# Density = 2.415031 g / cm^3
# Si number density = 24.205401 Si / 1000 Ang^3
#
#
#
# Elastic Constant Matrix: (Units=GPa)
#
#
# Indices 1 2 3 4 5 6 
#
# 1 60.8866 26.6426 32.5029 0.0000 -22.2136 0.0000
# 2 26.6426 62.6097 23.1763 0.0000 -3.2254 0.0000
# 3 32.5029 23.1763 118.6885 0.0000 -15.4548 0.0000
# 4 0.0000 0.0000 0.0000 19.8012 0.0000 -13.0805
# 5 -22.2136 -3.2254 -15.4548 0.0000 42.0732 0.0000
# 6 0.0000 0.0000 0.0000 -13.0805 0.0000 38.0703
#
#
#
# Elastic Compliance Matrix: (Units=1/GPa)
#
#
# Indices 1 2 3 4 5 6 
#
# 1 0.027109 -0.009429 -0.004005 0.000000 0.012119 0.000000
# 2 -0.009429 0.020496 -0.001957 0.000000 -0.004126 0.000000
# 3 -0.004005 -0.001957 0.010092 0.000000 0.001443 0.000000
# 4 0.000000 0.000000 0.000000 0.065330 0.000000 0.022447
# 5 0.012119 -0.004126 0.001443 0.000000 0.030380 0.000000
# 6 0.000000 0.000000 0.000000 0.022447 0.000000 0.033980
#
#
# Mechanical properties :
#
#
# Convention : Reuss Voigt Hill
#
# Bulk Modulus (GPa) = 37.15339 45.20315 41.17827
# Shear Modulus (GPa) = 22.01269 30.64649 26.32959
#
# Velocity S-wave (km/s) = 3.01892 3.56209 3.30169
# Velocity P-wave (km/s) = 5.24732 5.96937 5.61995
#
# Compressibility (1/GPa) = 0.02691544
#
# Stress axis : x y z
#
# Youngs Moduli (GPa) = 36.88788 48.78900 99.08681
#
# Poissons Ratio (x) = 0.46004 0.39680
# Poissons Ratio (y) = 0.34782 0.19396
# Poissons Ratio (z) = 0.14772 0.09550
#
# Static dielectric constant tensor:
#      x y z
#    x 2.009320 0.000000 -0.002990 
#    y 0.000000 1.928550 0.000000 
#    z -0.002990 0.000000 1.943430 
# 
# From -- ./inp_files/139076.got.cif
#   From: 2010.05.17/outbox.cif.g08.bks.cpg/sg15_70_cif.got.tgz:139076.got - 2010.06.03 18:47:42.
