data_PCOD9299812
_publ_section_title
;
Structure prediction by ZEFSAII (Michael W. Deem and Ramdas Pophale) SiO2 
 PCOD9299812
Probable space group: C 2/C
;
_chemical_formula_sum "Si O2"
_cell_formula_units_Z 48
_cell_length_a 9.284497
_cell_length_b 17.915115
_cell_length_c 12.081864
_cell_angle_alpha 90.000000
_cell_angle_beta 68.766726
_cell_angle_gamma 90.000000
_cell_volume 1873.185484
_symmetry_space_group_name_H-M "C 2/C"
_symmetry_group_IT_number 15
_symmetry_cell_setting 'monoclinic'
loop_
_space_group_symop_operation_xyz
x,y,z
-x,y,1/2-z
-x,-y,-z
x,-y,1/2+z
1/2+x,1/2+y,z
1/2-x,1/2+y,1/2-z
1/2-x,1/2-y,-z
1/2+x,1/2-y,1/2+z
loop_
_atom_site_type_symbol
_atom_site_label
_atom_site_fract_x
_atom_site_fract_y
_atom_site_fract_z
Si Si1 0.747659 0.461359 0.241772
Si Si2 0.500000 0.357922 0.250000
Si Si3 0.387749 0.974986 0.414121
Si Si4 0.480063 0.735167 0.968110
Si Si5 0.294398 0.143843 0.376222
Si Si6 0.500000 0.413828 0.750000
Si Si7 0.302682 0.144683 0.109438
O O1 0.654554 0.406102 0.188218
O O2 0.770382 0.434336 0.361194
O O3 0.624893 0.530986 0.275846
O O4 0.929894 0.467925 0.163190
O O5 0.463565 0.311220 0.152844
O O6 0.333599 0.060698 0.409776
O O7 0.639210 0.068682 0.464930
O O8 0.376679 0.800078 0.938787
O O9 0.617947 0.786266 0.973681
O O10 0.377728 0.678740 0.068481
O O11 0.339803 0.147796 0.232596
O O12 0.380910 0.362044 0.848149
#
# Coordination Sequence:
#
# PCOD9299812 Si02
#       7
#     8   4   8   8   8   4   8
#     4  10  25  46  74 123 156 202 267 328 399 473
#     4  11  24  48  78 112 160 213 264 314 399 494
#     4  11  26  48  83 116 160 202 266 346 394 459
#     4  11  26  46  78 109 156 217 261 316 390 492
#     4  11  25  47  76 117 153 204 272 321 391 480
#     4  11  24  44  74 114 166 197 262 332 391 472
#     4  12  26  48  79 118 158 211 267 330 399 474
#
# _framework density 25.624797999999998
#
# number of rings (size 3 to 8) (size 9 to 14) (size 15 to 20)
#    0.000    1.000    3.333    1.000   11.667    3.333 
#    0.000    5.000    0.000    0.000    0.000    0.000 
#    0.000    0.000    0.000    0.000    0.000    0.000 
#
# Total GULP energy -133862.801373 kJ/mol
# GULP energy per Si atom -5577.616724 kJ/mol
# Density = 2.556647 g / cm^3
# Si number density = 25.624798 Si / 1000 Ang^3
#
#
#
# Elastic Constant Matrix: (Units=GPa)
#
#
# Indices 1 2 3 4 5 6 
#
# 1 192.4315 65.0553 35.7498 0.0000 -9.2084 0.0000
# 2 65.0553 143.5815 47.6092 0.0000 -23.9846 0.0000
# 3 35.7498 47.6092 106.0576 0.0000 -18.2684 0.0000
# 4 0.0000 0.0000 0.0000 31.4541 0.0000 -9.7195
# 5 -9.2084 -23.9846 -18.2684 0.0000 45.1114 0.0000
# 6 0.0000 0.0000 0.0000 -9.7195 0.0000 26.1652
#
#
#
# Elastic Compliance Matrix: (Units=1/GPa)
#
#
# Indices 1 2 3 4 5 6 
#
# 1 0.006232 -0.002565 -0.001037 0.000000 -0.000512 0.000000
# 2 -0.002565 0.009656 -0.002877 0.000000 0.003445 0.000000
# 3 -0.001037 -0.002877 0.011577 0.000000 0.002947 0.000000
# 4 0.000000 0.000000 0.000000 0.035915 0.000000 0.013341
# 5 -0.000512 0.003445 0.002947 0.000000 0.025088 0.000000
# 6 0.000000 0.000000 0.000000 0.013341 0.000000 0.043175
#
#
# Mechanical properties :
#
#
# Convention : Reuss Voigt Hill
#
# Bulk Modulus (GPa) = 68.92916 82.09991 75.51454
# Shear Modulus (GPa) = 33.45874 40.12323 36.79098
#
# Velocity S-wave (km/s) = 3.61739 3.96131 3.79325
# Velocity P-wave (km/s) = 6.66372 7.28227 6.97985
#
# Compressibility (1/GPa) = 0.01450765
#
# Stress axis : x y z
#
# Youngs Moduli (GPa) = 160.45930 103.55900 86.37475
#
# Poissons Ratio (x) = 0.26565 0.08960
# Poissons Ratio (y) = 0.41162 0.24846
# Poissons Ratio (z) = 0.16645 0.29789
#
# Static dielectric constant tensor:
#      x y z
#    x 2.184990 0.000000 0.086110 
#    y 0.000000 2.081020 0.000000 
#    z 0.086110 0.000000 2.171330 
# 
# From -- ./inp_files/135939.got.cif
#   From: 2010.05.17/outbox.cif.g08.bks.cpg/sg15_68_cif.got.tgz:135939.got - 2010.06.03 18:47:42.
