data_PCOD9299810
_publ_section_title
;
Structure prediction by ZEFSAII (Michael W. Deem and Ramdas Pophale) SiO2 
 PCOD9299810
Probable space group: C 2/C
;
_chemical_formula_sum "Si O2"
_cell_formula_units_Z 32
_cell_length_a 5.829760
_cell_length_b 27.886446
_cell_length_c 9.422755
_cell_angle_alpha 90.000000
_cell_angle_beta 107.146504
_cell_angle_gamma 90.000000
_cell_volume 1463.784009
_symmetry_space_group_name_H-M "C 2/C"
_symmetry_group_IT_number 15
_symmetry_cell_setting 'monoclinic'
loop_
_space_group_symop_operation_xyz
x,y,z
-x,y,1/2-z
-x,-y,-z
x,-y,1/2+z
1/2+x,1/2+y,z
1/2-x,1/2+y,1/2-z
1/2-x,1/2-y,-z
1/2+x,1/2-y,1/2+z
loop_
_atom_site_type_symbol
_atom_site_label
_atom_site_fract_x
_atom_site_fract_y
_atom_site_fract_z
Si Si1 0.000000 0.944388 0.250000
Si Si2 0.342293 0.973523 0.852711
Si Si3 0.000000 0.648349 0.250000
Si Si4 0.291844 0.701790 0.092710
Si Si5 0.499084 0.394825 0.953179
O O1 0.055904 0.914961 0.401204
O O2 0.207262 0.982155 0.254419
O O3 0.500000 0.954693 0.750000
O O4 0.164304 0.935040 0.900133
O O5 0.500000 0.000000 0.000000
O O6 0.944466 0.683112 0.370988
O O7 0.748026 0.621430 0.169136
O O8 0.500000 0.708673 0.250000
O O9 0.361812 0.655414 0.012022
O O10 0.250000 0.750000 0.000000
#
# Coordination Sequence:
#
# PCOD9299810 Si02
#       5
#     4   8   4   8   8
#     4  12  28  43  70 112 144 200 249 304 378 444
#     4  12  28  47  74 106 156 198 255 310 373 450
#     4  10  26  47  78 104 158 188 253 308 378 458
#     4  10  25  46  74 109 145 194 243 306 387 446
#     4  11  27  46  75 113 147 205 246 313 386 437
#
# _framework density 21.861149999999999
#
# number of rings (size 3 to 8) (size 9 to 14) (size 15 to 20)
#    0.000    1.000    2.500    0.750   10.500    7.000 
#    0.000    0.000    0.000    0.000    0.000    0.000 
#    0.000    0.000    0.000    0.000    0.000    0.000 
#
# Total GULP energy -89246.999035 kJ/mol
# GULP energy per Si atom -5577.937440 kJ/mol
# Density = 2.181139 g / cm^3
# Si number density = 21.861150 Si / 1000 Ang^3
#
#
#
# Elastic Constant Matrix: (Units=GPa)
#
#
# Indices 1 2 3 4 5 6 
#
# 1 121.4460 71.6616 37.6750 0.0000 -19.6804 0.0000
# 2 71.6616 192.1089 65.6692 0.0000 -11.9568 0.0000
# 3 37.6750 65.6692 87.5703 0.0000 -14.2942 0.0000
# 4 0.0000 0.0000 0.0000 53.0080 0.0000 -19.9550
# 5 -19.6804 -11.9568 -14.2942 0.0000 38.8261 0.0000
# 6 0.0000 0.0000 0.0000 -19.9550 0.0000 -11.0910
#
#
#
# Elastic Compliance Matrix: (Units=1/GPa)
#
#
# Indices 1 2 3 4 5 6 
#
# 1 0.011454 -0.003445 -0.001671 0.000000 0.004130 0.000000
# 2 -0.003445 0.008038 -0.004709 0.000000 -0.001005 0.000000
# 3 -0.001671 -0.004709 0.016273 0.000000 0.003694 0.000000
# 4 0.000000 0.000000 0.000000 0.011247 0.000000 -0.020236
# 5 0.004130 -0.001005 0.003694 0.000000 0.028900 0.000000
# 6 0.000000 0.000000 0.000000 -0.020236 0.000000 -0.053754
#
#
# Mechanical properties :
#
#
# Convention : Reuss Voigt Hill
#
# Bulk Modulus (GPa) = 62.05315 83.45963 72.75639
# Shear Modulus (GPa) = 105.98057 31.22324 68.60191
#
# Velocity S-wave (km/s) = 6.97024 3.78332 5.60793
# Velocity P-wave (km/s) = 9.65534 7.57263 8.67670
#
# Compressibility (1/GPa) = 0.01611522
#
# Stress axis : x y z
#
# Youngs Moduli (GPa) = 87.30411 124.41480 61.45245
#
# Poissons Ratio (x) = 0.42856 0.10266
# Poissons Ratio (y) = 0.30073 0.28941
# Poissons Ratio (z) = 0.14585 0.58593
#
# Static dielectric constant tensor:
#      x y z
#    x 1.963610 0.000000 0.163140 
#    y 0.000000 1.796710 0.000000 
#    z 0.163140 0.000000 1.773270 
# 
# From -- ./inp_files/20319.got.cif
#   From: 2010.05.17/outbox.cif.g08.bks.cpg/sg15_11_cif.got.tgz:20319.got - 2010.06.03 18:47:42.
