data_PCOD9299533
_publ_section_title
;
Structure prediction by ZEFSAII (Michael W. Deem and Ramdas Pophale) SiO2 
 PCOD9299533
Probable space group: C 2/C
;
_chemical_formula_sum "Si O2"
_cell_formula_units_Z 40
_cell_length_a 20.409592
_cell_length_b 8.643541
_cell_length_c 27.517688
_cell_angle_alpha 90.000000
_cell_angle_beta 20.282535
_cell_angle_gamma 90.000000
_cell_volume 1682.785839
_symmetry_space_group_name_H-M "C 2/C"
_symmetry_group_IT_number 15
_symmetry_cell_setting 'monoclinic'
loop_
_space_group_symop_operation_xyz
x,y,z
-x,y,1/2-z
-x,-y,-z
x,-y,1/2+z
1/2+x,1/2+y,z
1/2-x,1/2+y,1/2-z
1/2-x,1/2-y,-z
1/2+x,1/2-y,1/2+z
loop_
_atom_site_type_symbol
_atom_site_label
_atom_site_fract_x
_atom_site_fract_y
_atom_site_fract_z
Si Si1 0.150910 0.390613 0.368463
Si Si2 0.423888 0.370312 0.514230
Si Si3 0.446133 0.812502 0.341675
Si Si4 0.814823 0.798913 0.739306
Si Si5 0.163463 0.347709 0.604501
O O1 0.209856 0.250809 0.362695
O O2 0.062482 0.295254 0.385160
O O3 0.302863 0.517010 0.244935
O O4 0.000000 0.500000 0.500000
O O5 0.500000 0.500000 0.500000
O O6 0.606101 0.266082 0.374943
O O7 0.313754 0.406251 0.541026
O O8 0.500000 0.762954 0.250000
O O9 0.250000 0.750000 0.500000
O O10 0.613102 0.752661 0.259161
O O11 0.428884 0.997721 0.353475
O O12 0.250000 0.250000 0.500000
O O13 0.000000 0.264136 0.750000
#
# Coordination Sequence:
#
# PCOD9299533 Si02
#       5
#     8   8   8   8   8
#     4  10  25  42  74 108 143 189 256 312 374 447
#     4  11  24  44  76 104 148 196 258 313 386 463
#     4  11  28  47  73 107 155 197 249 310 388 462
#     4  11  25  43  73 104 147 192 258 305 381 456
#     4  11  28  48  73 111 153 198 251 319 395 465
#
# _framework density 23.770109000000001
#
# number of rings (size 3 to 8) (size 9 to 14) (size 15 to 20)
#    0.000    1.200    0.000    3.600   19.600    0.800 
#    0.000    0.000    0.000    0.000    0.000    0.000 
#    0.000    0.000    0.000    0.000    0.000    0.000 
#
# Total GULP energy -111690.954787 kJ/mol
# GULP energy per Si atom -5584.547739 kJ/mol
# Density = 2.371601 g / cm^3
# Si number density = 23.770109 Si / 1000 Ang^3
#
#
#
# Elastic Constant Matrix: (Units=GPa)
#
#
# Indices 1 2 3 4 5 6 
#
# 1 136.7507 64.7760 30.5864 0.0051 18.4292 0.0022
# 2 64.7760 162.3215 35.7427 -0.0005 20.3719 0.0014
# 3 30.5864 35.7427 127.1489 0.0033 20.2677 0.0065
# 4 0.0051 -0.0005 0.0033 47.1299 0.0024 19.1040
# 5 18.4292 20.3719 20.2677 0.0024 46.4499 0.0007
# 6 0.0022 0.0014 0.0065 19.1040 0.0007 27.9784
#
#
#
# Elastic Compliance Matrix: (Units=1/GPa)
#
#
# Indices 1 2 3 4 5 6 
#
# 1 0.009339 -0.003270 -0.001037 -0.000001 -0.001818 0.000000
# 2 -0.003270 0.007934 -0.001178 0.000001 -0.001668 0.000000
# 3 -0.001037 -0.001178 0.008918 0.000001 -0.002963 -0.000002
# 4 -0.000001 0.000001 0.000001 0.029338 -0.000001 -0.020032
# 5 -0.001818 -0.001668 -0.002963 -0.000001 0.024275 0.000001
# 6 0.000000 0.000000 -0.000002 -0.020032 0.000001 0.049420
#
#
# Mechanical properties :
#
#
# Convention : Reuss Voigt Hill
#
# Bulk Modulus (GPa) = 65.70220 76.49236 71.09728
# Shear Modulus (GPa) = 34.41930 43.98604 39.20267
#
# Velocity S-wave (km/s) = 3.80940 4.30638 4.06549
# Velocity P-wave (km/s) = 6.85925 7.54828 7.21200
#
# Compressibility (1/GPa) = 0.01522019
#
# Stress axis : x y z
#
# Youngs Moduli (GPa) = 107.08262 126.03500 112.13605
#
# Poissons Ratio (x) = 0.41214 0.11633
# Poissons Ratio (y) = 0.35016 0.13208
# Poissons Ratio (z) = 0.11108 0.14845
#
# Static dielectric constant tensor:
#      x y z
#    x 1.896460 -0.000380 0.092800 
#    y -0.000380 1.911440 -0.000350 
#    z 0.092800 -0.000350 2.149280 
# 
# From -- ./inp_files/276721.got.cif
#   From: 2010.05.17/outbox.cif.g08.bks.cpg/sg15_139_cif.got.tgz:276721.got - 2010.06.03 18:47:42.
