data_PCOD9299262
_publ_section_title
;
Structure prediction by ZEFSAII (Michael W. Deem and Ramdas Pophale) SiO2 
 PCOD9299262
Probable space group: C 2/C
;
_chemical_formula_sum "Si O2"
_cell_formula_units_Z 36
_cell_length_a 6.865257
_cell_length_b 11.998291
_cell_length_c 22.427498
_cell_angle_alpha 90.000000
_cell_angle_beta 137.788740
_cell_angle_gamma 90.000000
_cell_volume 1241.194339
_symmetry_space_group_name_H-M "C 2/C"
_symmetry_group_IT_number 15
_symmetry_cell_setting 'monoclinic'
loop_
_space_group_symop_operation_xyz
x,y,z
-x,y,1/2-z
-x,-y,-z
x,-y,1/2+z
1/2+x,1/2+y,z
1/2-x,1/2+y,1/2-z
1/2-x,1/2-y,-z
1/2+x,1/2-y,1/2+z
loop_
_atom_site_type_symbol
_atom_site_label
_atom_site_fract_x
_atom_site_fract_y
_atom_site_fract_z
Si Si1 0.124399 0.166056 0.082562
Si Si2 0.371613 0.720985 0.283024
Si Si3 0.238997 0.411844 0.074287
Si Si4 0.500000 0.362260 0.250000
Si Si5 0.776607 0.566072 0.605799
O O1 0.115441 0.285386 0.046641
O O2 0.534852 0.255537 0.207378
O O3 0.851656 0.106501 0.985533
O O4 0.052954 0.164535 0.137756
O O5 0.500000 0.686554 0.250000
O O6 0.147078 0.563842 0.376458
O O7 0.462097 0.851949 0.316810
O O8 0.343432 0.439100 0.165594
O O9 0.522633 0.413630 0.096501
O O10 0.000000 0.500000 0.000000
#
# Coordination Sequence:
#
# PCOD9299262 Si02
#       5
#     8   8   8   4   8
#     4  10  26  45  74 108 148 190 258 306 377 457
#     4  11  23  49  73 106 154 198 254 314 382 445
#     4  11  25  46  77 110 152 200 255 315 375 454
#     4  10  24  48  70 114 154 190 262 314 374 458
#     4  11  24  47  76 108 146 205 244 310 390 452
#
# _framework density 29.004321000000001
#
# number of rings (size 3 to 8) (size 9 to 14) (size 15 to 20)
#    0.000    1.333    2.222    1.333   15.556    0.000 
#   10.000    0.000    0.000    0.000    0.000    0.000 
#    0.000    0.000    0.000    0.000    0.000    0.000 
#
# Total GULP energy -100440.661827 kJ/mol
# GULP energy per Si atom -5580.036768 kJ/mol
# Density = 2.893831 g / cm^3
# Si number density = 29.004321 Si / 1000 Ang^3
#
#
#
# Elastic Constant Matrix: (Units=GPa)
#
#
# Indices 1 2 3 4 5 6 
#
# 1 -93.4767 -193.8532 -276.7141 0.0000 -201.6595 0.0000
# 2 -193.8532 33.2979 -230.8707 0.0000 -160.2542 0.0000
# 3 -276.7141 -230.8707 -272.1642 0.0000 -245.4415 0.0000
# 4 0.0000 0.0000 0.0000 16.1823 0.0000 -24.7597
# 5 -201.6595 -160.2542 -245.4415 0.0000 -54.1089 0.0000
# 6 0.0000 0.0000 0.0000 -24.7597 0.0000 29.5662
#
#
#
# Elastic Compliance Matrix: (Units=1/GPa)
#
#
# Indices 1 2 3 4 5 6 
#
# 1 0.005857 -0.000738 -0.004007 0.000000 -0.001465 0.000000
# 2 -0.000738 0.004736 -0.002233 0.000000 -0.001146 0.000000
# 3 -0.004007 -0.002233 0.005545 0.000000 -0.003605 0.000000
# 4 0.000000 0.000000 0.000000 -0.219668 0.000000 -0.183957
# 5 -0.001465 -0.001146 -0.003605 0.000000 0.006728 0.000000
# 6 0.000000 0.000000 0.000000 -0.183957 0.000000 -0.120229
#
#
# Mechanical properties :
#
#
# Convention : Reuss Voigt Hill
#
# Bulk Modulus (GPa) = 458.43800 -192.80209 132.81796
# Shear Modulus (GPa) = -16.53725 22.93426 3.19851
#
# Velocity S-wave (km/s) = -2.39040 2.81502 1.05127
# Velocity P-wave (km/s) = 12.27937 7.48679 6.88225
#
# Compressibility (1/GPa) = 0.00218132
#
# Stress axis : x y z
#
# Youngs Moduli (GPa) = 170.73039 211.16086 180.34149
#
# Poissons Ratio (x) = 0.15588 0.72268
# Poissons Ratio (y) = 0.12604 0.40266
# Poissons Ratio (z) = 0.68417 0.47148
#
# Static dielectric constant tensor:
#      x y z
#    x 1.955730 0.000000 -0.152390 
#    y 0.000000 2.282670 0.000000 
#    z -0.152390 0.000000 2.294860 
# 
# From -- ./inp_files/306972.got.cif
#   From: 2010.05.17/outbox.cif.g08.bks.cpg/sg15_154_cif.got.tgz:306972.got - 2010.06.03 18:47:42.
