data_PCOD9299399
_publ_section_title
;
Structure prediction by ZEFSAII (Michael W. Deem and Ramdas Pophale) SiO2 
 PCOD9299399
Probable space group: C 2/C
;
_chemical_formula_sum "Si O2"
_cell_formula_units_Z 52
_cell_length_a 16.907041
_cell_length_b 22.978857
_cell_length_c 8.319731
_cell_angle_alpha 90.000000
_cell_angle_beta 127.553517
_cell_angle_gamma 90.000000
_cell_volume 2562.479495
_symmetry_space_group_name_H-M "C 2/C"
_symmetry_group_IT_number 15
_symmetry_cell_setting 'monoclinic'
loop_
_space_group_symop_operation_xyz
x,y,z
-x,y,1/2-z
-x,-y,-z
x,-y,1/2+z
1/2+x,1/2+y,z
1/2-x,1/2+y,1/2-z
1/2-x,1/2-y,-z
1/2+x,1/2-y,1/2+z
loop_
_atom_site_type_symbol
_atom_site_label
_atom_site_fract_x
_atom_site_fract_y
_atom_site_fract_z
Si Si1 0.835021 0.506078 0.364176
Si Si2 0.000000 0.892960 0.750000
Si Si3 0.743268 0.307541 0.884006
Si Si4 0.974425 0.816008 0.034954
Si Si5 0.959145 0.300090 0.028578
Si Si6 0.282872 0.428981 0.502813
Si Si7 0.988089 0.586497 0.403780
O O1 0.785343 0.539466 0.448993
O O2 0.882188 0.555756 0.307042
O O3 0.930464 0.464581 0.508907
O O4 0.751734 0.462356 0.197120
O O5 0.983972 0.854382 0.566221
O O6 0.098104 0.930789 0.835771
O O7 0.643805 0.312773 0.652958
O O8 0.742002 0.361272 0.006649
O O9 0.750000 0.250000 0.000000
O O10 0.841334 0.309541 0.896777
O O11 0.000000 0.836007 0.250000
O O12 0.015853 0.750609 0.064574
O O13 0.000000 0.278370 0.250000
O O14 0.006659 0.363589 0.056634
O O15 0.000000 0.618625 0.250000
#
# Coordination Sequence:
#
# PCOD9299399 Si02
#       7
#     8   4   8   8   8   8   8
#     4  11  23  40  64  94 135 177 224 281 349 412
#     4  10  24  50  72  92 140 182 240 298 348 406
#     4  11  22  42  71 100 138 187 234 283 359 419
#     4  11  24  45  68 101 140 182 235 296 347 420
#     4  12  21  39  68  97 138 186 225 278 356 421
#     4  11  23  45  68  96 135 180 229 290 344 411
#     4  11  23  38  59  97 138 173 222 281 338 428
#
# _framework density 20.292843999999999
#
# number of rings (size 3 to 8) (size 9 to 14) (size 15 to 20)
#    0.000    0.923    5.385    2.308    0.000    1.231 
#    8.308    0.000    0.000    0.000    0.000    0.000 
#    0.000    0.000    0.000    0.000    0.000    0.000 
#
# Total GULP energy -144953.196612 kJ/mol
# GULP energy per Si atom -5575.122947 kJ/mol
# Density = 2.024666 g / cm^3
# Si number density = 20.292844 Si / 1000 Ang^3
#
#
#
# Elastic Constant Matrix: (Units=GPa)
#
#
# Indices 1 2 3 4 5 6 
#
# 1 78.2769 -3.3521 2.2364 0.0000 11.7932 0.0000
# 2 -3.3521 56.1215 1.8700 0.0000 -1.5841 0.0000
# 3 2.2364 1.8700 61.1696 0.0000 -7.7702 0.0000
# 4 0.0000 0.0000 0.0000 19.1808 0.0000 -0.0033
# 5 11.7932 -1.5841 -7.7702 0.0000 39.9416 0.0000
# 6 0.0000 0.0000 0.0000 -0.0033 0.0000 29.1325
#
#
#
# Elastic Compliance Matrix: (Units=1/GPa)
#
#
# Indices 1 2 3 4 5 6 
#
# 1 0.013461 0.000722 -0.001041 0.000000 -0.004148 0.000000
# 2 0.000722 0.017890 -0.000523 0.000000 0.000395 0.000000
# 3 -0.001041 -0.000523 0.016855 0.000000 0.003566 0.000000
# 4 0.000000 0.000000 0.000000 0.052135 0.000000 0.000006
# 5 -0.004148 0.000395 0.003566 0.000000 0.026971 0.000000
# 6 0.000000 0.000000 0.000000 0.000006 0.000000 0.034326
#
#
# Mechanical properties :
#
#
# Convention : Reuss Voigt Hill
#
# Bulk Modulus (GPa) = 21.49588 21.89739 21.69664
# Shear Modulus (GPa) = 27.95948 30.63857 29.29902
#
# Velocity S-wave (km/s) = 3.71590 3.88986 3.80387
# Velocity P-wave (km/s) = 5.38761 5.56676 5.47792
#
# Compressibility (1/GPa) = 0.04652053
#
# Stress axis : x y z
#
# Youngs Moduli (GPa) = 74.28971 55.89667 59.32969
#
# Poissons Ratio (x) = -0.04034 0.06177
# Poissons Ratio (y) = -0.05361 0.03104
# Poissons Ratio (z) = 0.07735 0.02924
#
# Static dielectric constant tensor:
#      x y z
#    x 1.754710 0.000000 -0.006870 
#    y 0.000000 1.712060 0.000000 
#    z -0.006870 0.000000 1.857410 
# 
# From -- ./inp_files/42337.got.cif
#   From: 2010.05.17/outbox.cif.g08.bks.cpg/sg15_22_cif.got.tgz:42337.got - 2010.06.03 18:47:42.
