data_PCOD9299444
_publ_section_title
;
Structure prediction by ZEFSAII (Michael W. Deem and Ramdas Pophale) SiO2 
 PCOD9299444
Probable space group: C 2/C
;
_chemical_formula_sum "Si O2"
_cell_formula_units_Z 32
_cell_length_a 9.068397
_cell_length_b 5.450886
_cell_length_c 31.033323
_cell_angle_alpha 90.000000
_cell_angle_beta 62.667744
_cell_angle_gamma 90.000000
_cell_volume 1362.744242
_symmetry_space_group_name_H-M "C 2/C"
_symmetry_group_IT_number 15
_symmetry_cell_setting 'monoclinic'
loop_
_space_group_symop_operation_xyz
x,y,z
-x,y,1/2-z
-x,-y,-z
x,-y,1/2+z
1/2+x,1/2+y,z
1/2-x,1/2+y,1/2-z
1/2-x,1/2-y,-z
1/2+x,1/2-y,1/2+z
loop_
_atom_site_type_symbol
_atom_site_label
_atom_site_fract_x
_atom_site_fract_y
_atom_site_fract_z
Si Si1 0.320965 0.265745 0.888669
Si Si2 0.575327 0.378306 0.361086
Si Si3 0.433823 0.052014 0.306835
Si Si4 0.196754 0.001644 0.483015
O O1 0.412990 0.484403 0.899779
O O2 0.285387 0.038923 0.924632
O O3 0.149947 0.312974 0.886165
O O4 0.448045 0.195414 0.833159
O O5 0.526999 0.253020 0.322742
O O6 0.732930 0.562306 0.334732
O O7 0.500000 0.038968 0.250000
O O8 0.250000 0.750000 0.500000
O O9 0.250000 0.250000 0.500000
O O10 0.000000 0.000000 0.500000
#
# Coordination Sequence:
#
# PCOD9299444 Si02
#       4
#     8   8   8   8
#     4  10  26  44  71  94 142 172 232 277 354 402
#     4  10  25  39  68  93 134 174 222 274 345 401
#     4  10  26  40  68  95 134 174 228 275 341 407
#     4  12  28  47  76 108 142 187 240 296 358 426
#
# _framework density 23.482029000000001
#
# number of rings (size 3 to 8) (size 9 to 14) (size 15 to 20)
#    1.500    0.000    0.000    2.250   14.000    1.000 
#    0.000    0.000    0.000    0.000    0.000    0.000 
#    0.000    0.000    0.000    0.000    0.000    0.000 
#
# Total GULP energy -89179.653400 kJ/mol
# GULP energy per Si atom -5573.728338 kJ/mol
# Density = 2.342858 g / cm^3
# Si number density = 23.482029 Si / 1000 Ang^3
#
#
#
# Elastic Constant Matrix: (Units=GPa)
#
#
# Indices 1 2 3 4 5 6 
#
# 1 196.7665 72.3647 37.9163 0.0000 33.2974 0.0000
# 2 72.3647 104.6156 36.0375 0.0000 19.3839 0.0000
# 3 37.9163 36.0375 107.6436 0.0000 10.9889 0.0000
# 4 0.0000 0.0000 0.0000 34.8373 0.0000 3.0872
# 5 33.2974 19.3839 10.9889 0.0000 23.9915 0.0000
# 6 0.0000 0.0000 0.0000 3.0872 0.0000 38.2737
#
#
#
# Elastic Compliance Matrix: (Units=1/GPa)
#
#
# Indices 1 2 3 4 5 6 
#
# 1 0.007905 -0.003815 -0.000736 0.000000 -0.007552 0.000000
# 2 -0.003815 0.014071 -0.002882 0.000000 -0.004754 0.000000
# 3 -0.000736 -0.002882 0.010671 0.000000 -0.001538 0.000000
# 4 0.000000 0.000000 0.000000 0.028912 0.000000 -0.002332
# 5 -0.007552 -0.004754 -0.001538 0.000000 0.056707 0.000000
# 6 0.000000 0.000000 0.000000 -0.002332 0.000000 0.026316
#
#
# Mechanical properties :
#
#
# Convention : Reuss Voigt Hill
#
# Bulk Modulus (GPa) = 56.23991 77.96252 67.10121
# Shear Modulus (GPa) = 30.23426 36.93432 33.58429
#
# Velocity S-wave (km/s) = 3.59214 3.97025 3.78592
# Velocity P-wave (km/s) = 6.41925 7.36819 6.91003
#
# Compressibility (1/GPa) = 0.01778097
#
# Stress axis : x y z
#
# Youngs Moduli (GPa) = 126.50102 71.06604 93.71217
#
# Poissons Ratio (x) = 0.27114 0.06900
# Poissons Ratio (y) = 0.48264 0.27005
# Poissons Ratio (z) = 0.09314 0.20479
#
# Static dielectric constant tensor:
#      x y z
#    x 1.920970 0.000000 0.015000 
#    y 0.000000 1.949900 0.000000 
#    z 0.015000 0.000000 1.938100 
# 
# From -- ./inp_files/306251.got.cif
#   From: 2010.05.17/outbox.cif.g08.bks.cpg/sg15_154_cif.got.tgz:306251.got - 2010.06.03 18:47:42.
