data_PCOD9299689
_publ_section_title
;
Structure prediction by ZEFSAII (Michael W. Deem and Ramdas Pophale) SiO2 
 PCOD9299689
Probable space group: C 2/C
;
_chemical_formula_sum "Si O2"
_cell_formula_units_Z 56
_cell_length_a 14.805565
_cell_length_b 18.410397
_cell_length_c 10.380190
_cell_angle_alpha 90.000000
_cell_angle_beta 59.214743
_cell_angle_gamma 90.000000
_cell_volume 2430.708764
_symmetry_space_group_name_H-M "C 2/C"
_symmetry_group_IT_number 15
_symmetry_cell_setting 'monoclinic'
loop_
_space_group_symop_operation_xyz
x,y,z
-x,y,1/2-z
-x,-y,-z
x,-y,1/2+z
1/2+x,1/2+y,z
1/2-x,1/2+y,1/2-z
1/2-x,1/2-y,-z
1/2+x,1/2-y,1/2+z
loop_
_atom_site_type_symbol
_atom_site_label
_atom_site_fract_x
_atom_site_fract_y
_atom_site_fract_z
Si Si1 0.760083 0.170248 0.556940
Si Si2 0.214306 0.470547 0.913438
Si Si3 0.905142 0.946591 0.602009
Si Si4 0.871694 0.682408 0.591528
Si Si5 0.758628 0.383608 0.953607
Si Si6 0.447606 0.918185 0.655963
Si Si7 0.500699 0.307731 0.609524
O O1 0.750000 0.250000 0.500000
O O2 0.734982 0.104845 0.475284
O O3 0.682200 0.162780 0.734175
O O4 0.881115 0.172236 0.516281
O O5 0.308380 0.484933 0.743365
O O6 0.213372 0.537174 0.010178
O O7 0.108256 0.468608 0.907659
O O8 0.855881 0.900823 0.519369
O O9 0.943636 0.884139 0.668812
O O10 0.000000 0.000000 0.500000
O O11 0.781598 0.674111 0.548486
O O12 0.964773 0.629683 0.477395
O O13 0.930995 0.758510 0.567150
O O14 0.845837 0.370506 0.778626
O O15 0.500000 0.947487 0.750000
O O16 0.500000 0.269764 0.750000
#
# Coordination Sequence:
#
# PCOD9299689 Si02
#       7
#     8   8   8   8   8   8   8
#     4  12  24  42  71 108 140 179 243 300 358 433
#     4  11  23  42  71 102 144 186 237 299 362 436
#     4  11  25  45  74 102 146 185 238 303 368 438
#     4  11  25  45  71 105 143 186 243 298 365 432
#     4  10  25  45  68 102 141 191 236 293 363 433
#     4   9  22  44  65  96 140 183 233 289 353 425
#     4  12  24  45  71 104 135 189 238 302 361 425
#
# _framework density 23.038547999999999
#
# number of rings (size 3 to 8) (size 9 to 14) (size 15 to 20)
#    0.000    1.143    2.857    1.714    6.000    4.000 
#    2.571    5.000    0.000    0.000    0.000    0.000 
#    0.000    0.000    0.000    0.000    0.000    0.000 
#
# Total GULP energy -156408.219050 kJ/mol
# GULP energy per Si atom -5586.007823 kJ/mol
# Density = 2.298611 g / cm^3
# Si number density = 23.038548 Si / 1000 Ang^3
#
#
#
# Elastic Constant Matrix: (Units=GPa)
#
#
# Indices 1 2 3 4 5 6 
#
# 1 165.4436 55.1151 53.7469 0.0000 -1.6651 0.0000
# 2 55.1151 98.0613 37.1711 0.0000 6.3303 0.0000
# 3 53.7469 37.1711 131.4997 0.0000 -11.3854 0.0000
# 4 0.0000 0.0000 0.0000 23.1273 0.0000 3.3466
# 5 -1.6651 6.3303 -11.3854 0.0000 42.5190 0.0000
# 6 0.0000 0.0000 0.0000 3.3466 0.0000 46.7182
#
#
#
# Elastic Compliance Matrix: (Units=1/GPa)
#
#
# Indices 1 2 3 4 5 6 
#
# 1 0.007986 -0.003671 -0.002203 0.000000 0.000269 0.000000
# 2 -0.003671 0.013402 -0.002532 0.000000 -0.002817 0.000000
# 3 -0.002203 -0.002532 0.009465 0.000000 0.002825 0.000000
# 4 0.000000 0.000000 0.000000 0.043692 0.000000 -0.003130
# 5 0.000269 -0.002817 0.002825 0.000000 0.024705 0.000000
# 6 0.000000 0.000000 0.000000 -0.003130 0.000000 0.021629
#
#
# Mechanical properties :
#
#
# Convention : Reuss Voigt Hill
#
# Bulk Modulus (GPa) = 71.21527 76.34120 73.77823
# Shear Modulus (GPa) = 35.11933 39.07101 37.09517
#
# Velocity S-wave (km/s) = 3.90856 4.12259 4.01700
# Velocity P-wave (km/s) = 7.16572 7.47458 7.32178
#
# Compressibility (1/GPa) = 0.01404193
#
# Stress axis : x y z
#
# Youngs Moduli (GPa) = 125.22636 74.61334 105.64827
#
# Poissons Ratio (x) = 0.27387 0.23274
# Poissons Ratio (y) = 0.45965 0.26752
# Poissons Ratio (z) = 0.27587 0.18893
#
# Static dielectric constant tensor:
#      x y z
#    x 1.958800 0.000000 -0.006810 
#    y 0.000000 1.839060 0.000000 
#    z -0.006810 0.000000 1.876610 
# 
# From -- ./inp_files/98657.got.cif
#   From: 2010.05.17/outbox.cif.g08.bks.cpg/sg15_50_cif.got.tgz:98657.got - 2010.06.03 18:47:42.
