data_PCOD9299778
_publ_section_title
;
Structure prediction by ZEFSAII (Michael W. Deem and Ramdas Pophale) SiO2 
 PCOD9299778
Probable space group: C 2/C
;
_chemical_formula_sum "Si O2"
_cell_formula_units_Z 40
_cell_length_a 14.948353
_cell_length_b 12.316544
_cell_length_c 17.711641
_cell_angle_alpha 90.000000
_cell_angle_beta 34.401703
_cell_angle_gamma 90.000000
_cell_volume 1842.395839
_symmetry_space_group_name_H-M "C 2/C"
_symmetry_group_IT_number 15
_symmetry_cell_setting 'monoclinic'
loop_
_space_group_symop_operation_xyz
x,y,z
-x,y,1/2-z
-x,-y,-z
x,-y,1/2+z
1/2+x,1/2+y,z
1/2-x,1/2+y,1/2-z
1/2-x,1/2-y,-z
1/2+x,1/2-y,1/2+z
loop_
_atom_site_type_symbol
_atom_site_label
_atom_site_fract_x
_atom_site_fract_y
_atom_site_fract_z
Si Si1 0.387155 0.306230 0.980427
Si Si2 0.189643 0.139313 0.195688
Si Si3 0.189077 0.188668 0.361332
Si Si4 0.815448 0.477789 0.896049
Si Si5 0.320657 0.397040 0.352456
O O1 0.293249 0.196237 0.059963
O O2 0.502403 0.321103 0.972898
O O3 0.273019 0.407573 0.049799
O O4 0.516828 0.306112 0.823969
O O5 0.263135 0.162701 0.227374
O O6 0.167964 0.012113 0.198242
O O7 0.241785 0.101401 0.385016
O O8 0.239600 0.305573 0.357804
O O9 0.000000 0.489510 0.750000
O O10 0.778160 0.423042 0.002937
O O11 0.500000 0.363249 0.250000
#
# Coordination Sequence:
#
# PCOD9299778 Si02
#       5
#     8   8   8   8   8
#     4  10  25  46  70 101 144 185 236 281 344 424
#     4  10  26  43  74 101 139 188 233 282 346 419
#     4  10  26  44  75 101 144 184 237 283 351 418
#     4  12  27  43  71 106 144 181 232 293 357 402
#     4  12  25  46  72 107 142 178 233 297 350 409
#
# _framework density 21.710858999999999
#
# number of rings (size 3 to 8) (size 9 to 14) (size 15 to 20)
#    1.200    0.000    2.000    1.800   11.200    2.400 
#    0.000    0.000    0.000    0.000    0.000    0.000 
#    0.000    0.000    0.000    0.000    0.000    0.000 
#
# Total GULP energy -111812.608841 kJ/mol
# GULP energy per Si atom -5590.630442 kJ/mol
# Density = 2.166144 g / cm^3
# Si number density = 21.710859 Si / 1000 Ang^3
#
#
#
# Elastic Constant Matrix: (Units=GPa)
#
#
# Indices 1 2 3 4 5 6 
#
# 1 136.7711 58.6939 53.9934 0.0001 0.8640 -0.0001
# 2 58.6939 58.0171 -3.7473 0.0004 8.6524 -0.0003
# 3 53.9934 -3.7473 91.3412 0.0004 3.8461 -0.0003
# 4 0.0001 0.0004 0.0004 3.3575 -0.0001 -3.4234
# 5 0.8640 8.6524 3.8461 -0.0001 36.5946 0.0000
# 6 -0.0001 -0.0003 -0.0003 -3.4234 0.0000 73.4974
#
#
#
# Elastic Compliance Matrix: (Units=1/GPa)
#
#
# Indices 1 2 3 4 5 6 
#
# 1 0.026676 -0.029316 -0.017313 0.000005 0.008121 0.000000
# 2 -0.029316 0.050161 0.019946 -0.000008 -0.013264 0.000000
# 3 -0.017313 0.019946 0.022280 -0.000005 -0.006649 0.000000
# 4 0.000005 -0.000008 -0.000005 0.312695 0.000003 0.014565
# 5 0.008121 -0.013264 -0.006649 0.000003 0.030970 0.000000
# 6 0.000000 0.000000 0.000000 0.014565 0.000000 0.014284
#
#
# Mechanical properties :
#
#
# Convention : Reuss Voigt Hill
#
# Bulk Modulus (GPa) = 21.85805 56.00102 38.92954
# Shear Modulus (GPa) = 9.51143 34.50252 22.00697
#
# Velocity S-wave (km/s) = 2.09534 3.99078 3.18722
# Velocity P-wave (km/s) = 3.99294 6.86186 5.61377
#
# Compressibility (1/GPa) = 0.04574974
#
# Stress axis : x y z
#
# Youngs Moduli (GPa) = 37.48728 19.93579 44.88258
#
# Poissons Ratio (x) = 0.58444 0.77706
# Poissons Ratio (y) = 1.09899 -0.89522
# Poissons Ratio (z) = 0.64902 -0.39764
#
# Static dielectric constant tensor:
#      x y z
#    x 1.832730 0.000000 0.006500 
#    y 0.000000 1.723880 0.000000 
#    z 0.006500 0.000000 1.813680 
# 
# From -- ./inp_files/248522.got.cif
#   From: 2010.05.17/outbox.cif.g08.bks.cpg/sg15_125_cif.got.tgz:248522.got - 2010.06.03 18:47:42.
