data_PCOD9299134
_publ_section_title
;
Structure prediction by ZEFSAII (Michael W. Deem and Ramdas Pophale) SiO2 
 PCOD9299134
Probable space group: C 2/C
;
_chemical_formula_sum "Si O2"
_cell_formula_units_Z 36
_cell_length_a 17.662808
_cell_length_b 16.550861
_cell_length_c 9.799875
_cell_angle_alpha 90.000000
_cell_angle_beta 151.506487
_cell_angle_gamma 90.000000
_cell_volume 1366.700030
_symmetry_space_group_name_H-M "C 2/C"
_symmetry_group_IT_number 15
_symmetry_cell_setting 'monoclinic'
loop_
_space_group_symop_operation_xyz
x,y,z
-x,y,1/2-z
-x,-y,-z
x,-y,1/2+z
1/2+x,1/2+y,z
1/2-x,1/2+y,1/2-z
1/2-x,1/2-y,-z
1/2+x,1/2-y,1/2+z
loop_
_atom_site_type_symbol
_atom_site_label
_atom_site_fract_x
_atom_site_fract_y
_atom_site_fract_z
Si Si1 0.268050 0.090874 0.919395
Si Si2 0.500000 0.952449 0.250000
Si Si3 0.811294 0.310379 0.246704
Si Si4 0.199086 0.338404 0.736017
Si Si5 0.428497 0.649785 0.372844
O O1 0.360159 0.124296 0.933021
O O2 0.081778 0.096742 0.584799
O O3 0.276052 0.147747 0.065173
O O4 0.353333 0.005727 0.073432
O O5 0.555638 0.893884 0.458847
O O6 0.704123 0.248030 0.167370
O O7 0.950370 0.247954 0.426877
O O8 0.704851 0.345838 0.957141
O O9 0.351746 0.376355 0.895090
#
# Coordination Sequence:
#
# PCOD9299134 Si02
#       5
#     8   4   8   8   8
#     4  12  24  44  71 108 139 185 243 294 343 430
#     4  12  30  44  64 104 154 192 228 294 368 412
#     4   9  22  43  76 109 135 181 234 296 362 416
#     4  10  24  47  70 101 142 189 234 290 356 421
#     4   9  22  44  75 106 140 182 235 297 357 415
#
# _framework density 26.340821999999999
#
# number of rings (size 3 to 8) (size 9 to 14) (size 15 to 20)
#    1.333    0.444    0.000    2.667    3.111    8.000 
#    0.000    2.222    0.000    0.000    0.000    0.000 
#    0.000    0.000    0.000    0.000    0.000    0.000 
#
# Total GULP energy -100576.579785 kJ/mol
# GULP energy per Si atom -5587.587766 kJ/mol
# Density = 2.628087 g / cm^3
# Si number density = 26.340822 Si / 1000 Ang^3
#
#
#
# Elastic Constant Matrix: (Units=GPa)
#
#
# Indices 1 2 3 4 5 6 
#
# 1 88.2215 -19.1179 1.8805 0.0000 -6.3321 0.0000
# 2 -19.1179 87.2529 22.1962 0.0000 1.8929 0.0000
# 3 1.8805 22.1962 99.3016 0.0000 0.2211 0.0000
# 4 0.0000 0.0000 0.0000 15.7045 0.0000 -5.3681
# 5 -6.3321 1.8929 0.2211 0.0000 62.9947 0.0000
# 6 0.0000 0.0000 0.0000 -5.3681 0.0000 23.4609
#
#
#
# Elastic Compliance Matrix: (Units=1/GPa)
#
#
# Indices 1 2 3 4 5 6 
#
# 1 0.012049 0.002835 -0.000864 0.000000 0.001129 0.000000
# 2 0.002835 0.012827 -0.002921 0.000000 -0.000090 0.000000
# 3 -0.000864 -0.002921 0.010740 0.000000 -0.000037 0.000000
# 4 0.000000 0.000000 0.000000 0.069079 0.000000 0.015806
# 5 0.001129 -0.000090 -0.000037 0.000000 0.015991 0.000000
# 6 0.000000 0.000000 0.000000 0.015806 0.000000 0.046241
#
#
# Mechanical properties :
#
#
# Convention : Reuss Voigt Hill
#
# Bulk Modulus (GPa) = 29.65910 31.63261 30.64585
# Shear Modulus (GPa) = 27.76791 38.41982 33.09387
#
# Velocity S-wave (km/s) = 3.25033 3.82326 3.54838
# Velocity P-wave (km/s) = 5.03690 5.61470 5.33363
#
# Compressibility (1/GPa) = 0.03371646
#
# Stress axis : x y z
#
# Youngs Moduli (GPa) = 82.99427 77.95960 93.11320
#
# Poissons Ratio (x) = -0.22105 0.08049
# Poissons Ratio (y) = -0.23533 0.27195
# Poissons Ratio (z) = 0.07175 0.22769
#
# Static dielectric constant tensor:
#      x y z
#    x 2.169680 0.000000 0.171290 
#    y 0.000000 2.073290 0.000000 
#    z 0.171290 0.000000 2.133910 
# 
# From -- ./inp_files/113560.got.cif
#   From: 2010.05.17/outbox.cif.g08.bks.cpg/sg15_57_cif.got.tgz:113560.got - 2010.06.03 18:47:42.
