data_PCOD9299585
_publ_section_title
;
Structure prediction by ZEFSAII (Michael W. Deem and Ramdas Pophale) SiO2 
 PCOD9299585
Probable space group: C 2/C
;
_chemical_formula_sum "Si O2"
_cell_formula_units_Z 40
_cell_length_a 25.222418
_cell_length_b 5.095774
_cell_length_c 16.527146
_cell_angle_alpha 90.000000
_cell_angle_beta 135.582562
_cell_angle_gamma 90.000000
_cell_volume 1486.684435
_symmetry_space_group_name_H-M "C 2/C"
_symmetry_group_IT_number 15
_symmetry_cell_setting 'monoclinic'
loop_
_space_group_symop_operation_xyz
x,y,z
-x,y,1/2-z
-x,-y,-z
x,-y,1/2+z
1/2+x,1/2+y,z
1/2-x,1/2+y,1/2-z
1/2-x,1/2-y,-z
1/2+x,1/2-y,1/2+z
loop_
_atom_site_type_symbol
_atom_site_label
_atom_site_fract_x
_atom_site_fract_y
_atom_site_fract_z
Si Si1 0.000000 0.881288 0.250000
Si Si2 0.619647 0.998296 0.460552
Si Si3 0.102517 0.574829 0.115608
Si Si4 0.768611 0.728800 0.144316
Si Si5 0.091472 0.943111 0.706554
Si Si6 0.750000 0.750000 0.500000
O O1 0.935549 0.682194 0.149571
O O2 0.961948 0.067067 0.275041
O O3 0.581593 0.891393 0.500467
O O4 0.683948 0.191886 0.566470
O O5 0.670170 0.790152 0.467646
O O6 0.190850 0.640705 0.229521
O O7 0.090420 0.297831 0.145067
O O8 0.934973 0.202822 0.869754
O O9 0.819652 0.985450 0.170832
O O10 0.774689 0.512572 0.081964
#
# Coordination Sequence:
#
# PCOD9299585 Si02
#       6
#     4   8   8   8   8   4
#     4  12  28  52  74 116 164 218 264 328 414 482
#     4  12  27  47  80 116 160 212 263 334 404 482
#     4  10  26  47  80 113 157 201 271 325 396 473
#     4  10  25  43  77 114 150 204 263 336 383 476
#     4  10  25  50  75 115 156 207 264 329 399 473
#     4  12  24  46  78 114 158 206 268 334 390 472
#
# _framework density 26.905505999999999
#
# number of rings (size 3 to 8) (size 9 to 14) (size 15 to 20)
#    1.200    0.000    2.000    1.800   11.200    2.400 
#    3.600    0.000    0.000    0.000    0.000    0.000 
#    0.000    0.000    0.000    0.000    0.000    0.000 
#
# Total GULP energy -111773.654458 kJ/mol
# GULP energy per Si atom -5588.682723 kJ/mol
# Density = 2.684427 g / cm^3
# Si number density = 26.905506 Si / 1000 Ang^3
#
#
#
# Elastic Constant Matrix: (Units=GPa)
#
#
# Indices 1 2 3 4 5 6 
#
# 1 116.3719 11.8071 42.7312 0.0003 3.5013 0.0002
# 2 11.8071 110.0219 27.4618 -0.0003 1.6671 -0.0001
# 3 42.7312 27.4618 133.0003 -0.0002 19.5897 0.0000
# 4 0.0003 -0.0003 -0.0002 25.1554 -0.0002 -3.0162
# 5 3.5013 1.6671 19.5897 -0.0002 44.7957 -0.0001
# 6 0.0002 -0.0001 0.0000 -3.0162 -0.0001 50.8271
#
#
#
# Elastic Compliance Matrix: (Units=1/GPa)
#
#
# Indices 1 2 3 4 5 6 
#
# 1 0.009768 -0.000265 -0.003177 0.000000 0.000636 0.000000
# 2 -0.000265 0.009603 -0.001975 0.000000 0.000527 0.000000
# 3 -0.003177 -0.001975 0.009513 0.000000 -0.003838 0.000000
# 4 0.000000 0.000000 0.000000 0.040038 0.000000 0.002376
# 5 0.000636 0.000527 -0.003838 0.000000 0.023933 0.000000
# 6 0.000000 0.000000 0.000000 0.002376 0.000000 0.019816
#
#
# Mechanical properties :
#
#
# Convention : Reuss Voigt Hill
#
# Bulk Modulus (GPa) = 55.40685 58.15493 56.78089
# Shear Modulus (GPa) = 38.60419 42.64855 40.62637
#
# Velocity S-wave (km/s) = 3.79199 3.98568 3.89004
# Velocity P-wave (km/s) = 6.30953 6.54540 6.42855
#
# Compressibility (1/GPa) = 0.01804831
#
# Stress axis : x y z
#
# Youngs Moduli (GPa) = 102.38025 104.13881 105.12219
#
# Poissons Ratio (x) = 0.02758 0.33399
# Poissons Ratio (y) = 0.02711 0.20765
# Poissons Ratio (z) = 0.32528 0.20570
#
# Static dielectric constant tensor:
#      x y z
#    x 2.139800 0.000000 0.083130 
#    y 0.000000 1.941100 0.000000 
#    z 0.083130 0.000000 1.917100 
# 
# From -- ./inp_files/223752.got.cif
#   From: 2010.05.17/outbox.cif.g08.bks.cpg/sg15_112_cif.got.tgz:223752.got - 2010.06.03 18:47:42.
