data_PCOD9299127
_publ_section_title
;
Structure prediction by ZEFSAII (Michael W. Deem and Ramdas Pophale) SiO2 
 PCOD9299127
Probable space group: C 2/C
;
_chemical_formula_sum "Si O2"
_cell_formula_units_Z 48
_cell_length_a 9.319612
_cell_length_b 10.953636
_cell_length_c 22.807932
_cell_angle_alpha 90.000000
_cell_angle_beta 113.124908
_cell_angle_gamma 90.000000
_cell_volume 2141.238400
_symmetry_space_group_name_H-M "C 2/C"
_symmetry_group_IT_number 15
_symmetry_cell_setting 'monoclinic'
loop_
_space_group_symop_operation_xyz
x,y,z
-x,y,1/2-z
-x,-y,-z
x,-y,1/2+z
1/2+x,1/2+y,z
1/2-x,1/2+y,1/2-z
1/2-x,1/2-y,-z
1/2+x,1/2-y,1/2+z
loop_
_atom_site_type_symbol
_atom_site_label
_atom_site_fract_x
_atom_site_fract_y
_atom_site_fract_z
Si Si1 0.834449 0.458047 0.404580
Si Si2 0.162394 0.721708 0.409179
Si Si3 0.662035 0.059017 0.296934
Si Si4 0.835570 0.845307 0.387062
Si Si5 0.819012 0.131584 0.207476
Si Si6 0.797752 0.477586 0.026182
O O1 0.787156 0.320726 0.409985
O O2 0.745436 0.510618 0.334738
O O3 0.785799 0.536345 0.454568
O O4 0.019844 0.464593 0.428276
O O5 0.118915 0.644464 0.344509
O O6 0.233168 0.619890 0.463771
O O7 0.008289 0.790829 0.407319
O O8 0.500000 0.997407 0.250000
O O9 0.729932 0.138631 0.254929
O O10 0.791836 0.963367 0.340369
O O11 0.723227 0.740881 0.343307
O O12 0.800187 0.889085 0.447708
O O13 0.000000 0.125046 0.250000
#
# Coordination Sequence:
#
# PCOD9299127 Si02
#       6
#     8   8   8   8   8   8
#     4  11  24  45  70  99 138 180 226 281 339 401
#     4  11  23  44  68  99 131 177 225 277 341 398
#     4  11  23  42  64  94 138 177 220 276 334 403
#     4  11  23  43  68  96 138 175 224 283 336 400
#     4  12  25  40  65 104 133 177 227 272 341 406
#     4  10  24  47  69 100 137 176 229 283 337 397
#
# _framework density 22.416934000000001
#
# number of rings (size 3 to 8) (size 9 to 14) (size 15 to 20)
#    0.000    1.000    3.333    3.000    4.667    2.000 
#    0.000    0.000    0.000    0.000    0.000    0.000 
#    0.000    0.000    0.000    0.000    0.000    0.000 
#
# Total GULP energy -134294.673538 kJ/mol
# GULP energy per Si atom -5595.611397 kJ/mol
# Density = 2.236591 g / cm^3
# Si number density = 22.416934 Si / 1000 Ang^3
#
#
#
# Elastic Constant Matrix: (Units=GPa)
#
#
# Indices 1 2 3 4 5 6 
#
# 1 81.1582 40.8326 38.9052 0.0000 -12.0091 0.0000
# 2 40.8326 71.8622 10.3099 0.0000 -9.6516 0.0000
# 3 38.9052 10.3099 84.0224 0.0000 -7.4826 0.0000
# 4 0.0000 0.0000 0.0000 11.8469 0.0000 1.1974
# 5 -12.0091 -9.6516 -7.4826 0.0000 38.7382 0.0000
# 6 0.0000 0.0000 0.0000 1.1974 0.0000 35.2396
#
#
#
# Elastic Compliance Matrix: (Units=1/GPa)
#
#
# Indices 1 2 3 4 5 6 
#
# 1 0.022586 -0.011228 -0.008858 0.000000 0.002493 0.000000
# 2 -0.011228 0.020160 0.002913 0.000000 0.002105 0.000000
# 3 -0.008858 0.002913 0.015737 0.000000 0.001019 0.000000
# 4 0.000000 0.000000 0.000000 0.084701 0.000000 -0.002878
# 5 0.002493 0.002105 0.001019 0.000000 0.027309 0.000000
# 6 0.000000 0.000000 0.000000 -0.002878 0.000000 0.028475
#
#
# Mechanical properties :
#
#
# Convention : Reuss Voigt Hill
#
# Bulk Modulus (GPa) = 41.43253 46.34869 43.89061
# Shear Modulus (GPa) = 20.71599 26.96461 23.84030
#
# Velocity S-wave (km/s) = 3.04324 3.47200 3.26467
# Velocity P-wave (km/s) = 5.55619 6.06578 5.81657
#
# Compressibility (1/GPa) = 0.02413562
#
# Stress axis : x y z
#
# Youngs Moduli (GPa) = 44.27529 49.60309 63.54581
#
# Poissons Ratio (x) = 0.55693 0.56291
# Poissons Ratio (y) = 0.49711 -0.18508
# Poissons Ratio (z) = 0.39220 -0.14447
#
# Static dielectric constant tensor:
#      x y z
#    x 1.796820 0.000000 -0.013570 
#    y 0.000000 1.825590 0.000000 
#    z -0.013570 0.000000 1.851690 
# 
# From -- ./inp_files/263572.got.cif
#   From: 2010.05.17/outbox.cif.g08.bks.cpg/sg15_132_cif.got.tgz:263572.got - 2010.06.03 18:47:42.
