data_PCOD9299048
_publ_section_title
;
Structure prediction by ZEFSAII (Michael W. Deem and Ramdas Pophale) SiO2 
 PCOD9299048
Probable space group: C 2/C
;
_chemical_formula_sum "Si O2"
_cell_formula_units_Z 60
_cell_length_a 28.686030
_cell_length_b 17.211487
_cell_length_c 16.212692
_cell_angle_alpha 90.000000
_cell_angle_beta 17.754208
_cell_angle_gamma 90.000000
_cell_volume 2440.901049
_symmetry_space_group_name_H-M "C 2/C"
_symmetry_group_IT_number 15
_symmetry_cell_setting 'monoclinic'
loop_
_space_group_symop_operation_xyz
x,y,z
-x,y,1/2-z
-x,-y,-z
x,-y,1/2+z
1/2+x,1/2+y,z
1/2-x,1/2+y,1/2-z
1/2-x,1/2-y,-z
1/2+x,1/2-y,1/2+z
loop_
_atom_site_type_symbol
_atom_site_label
_atom_site_fract_x
_atom_site_fract_y
_atom_site_fract_z
Si Si1 0.500000 0.658065 0.250000
Si Si2 0.251175 0.160964 0.967220
Si Si3 0.766873 0.636602 0.523242
Si Si4 0.099636 0.377456 0.878217
Si Si5 0.632938 0.659954 0.459961
Si Si6 0.299984 0.178992 0.647854
Si Si7 0.980296 0.518445 0.374775
Si Si8 0.934911 0.917971 0.583132
O O1 0.363900 0.636797 0.412621
O O2 0.376269 0.683803 0.527931
O O3 0.426376 0.144670 0.653472
O O4 0.250000 0.250000 0.000000
O O5 0.196949 0.111090 0.136014
O O6 0.812276 0.650168 0.352533
O O7 0.819510 0.683702 0.515455
O O8 0.851276 0.553015 0.391415
O O9 0.584922 0.635887 0.835823
O O10 0.200388 0.339756 0.780289
O O11 0.082952 0.465082 0.944809
O O12 0.619196 0.746804 0.446468
O O13 0.621767 0.590449 0.414249
O O14 0.500000 0.647670 0.750000
O O15 0.373432 0.095382 0.546014
O O16 0.000000 0.480968 0.250000
O O17 0.000000 0.000000 0.500000
#
# Coordination Sequence:
#
# PCOD9299048 Si02
#       8
#     4   8   8   8   8   8   8   8
#     4  12  24  48  76 120 154 210 266 326 404 484
#     4  12  28  50  79 120 162 214 269 336 405 486
#     4  11  23  48  73 109 152 209 269 330 411 475
#     4  12  27  46  78 117 162 210 278 341 407 500
#     4  12  27  50  77 119 161 213 275 340 410 488
#     4  11  25  48  79 112 157 214 268 337 408 496
#     4  10  24  46  75 112 156 216 271 333 411 487
#     4  12  28  50  76 113 166 214 271 339 412 481
#
# _framework density 24.581085999999999
#
# number of rings (size 3 to 8) (size 9 to 14) (size 15 to 20)
#    0.000    0.533    2.667    4.800    5.600    2.667 
#    2.400    0.000    0.000    0.000    0.000    0.000 
#    0.000    0.000    0.000    0.000    0.000    0.000 
#
# Total GULP energy -167381.538328 kJ/mol
# GULP energy per Si atom -5579.384611 kJ/mol
# Density = 2.452514 g / cm^3
# Si number density = 24.581086 Si / 1000 Ang^3
#
#
#
# Elastic Constant Matrix: (Units=GPa)
#
#
# Indices 1 2 3 4 5 6 
#
# 1 122.1254 36.8526 29.4284 -0.0005 3.4042 0.0000
# 2 36.8526 98.1177 8.7250 0.0009 17.8604 -0.0005
# 3 29.4284 8.7250 101.3966 0.0004 8.8688 -0.0002
# 4 -0.0005 0.0009 0.0004 15.5418 0.0000 -3.4992
# 5 3.4042 17.8604 8.8688 0.0000 42.0047 0.0003
# 6 0.0000 -0.0005 -0.0002 -3.4992 0.0003 24.6926
#
#
#
# Elastic Compliance Matrix: (Units=1/GPa)
#
#
# Indices 1 2 3 4 5 6 
#
# 1 0.009923 -0.003734 -0.002676 0.000001 0.001349 0.000000
# 2 -0.003734 0.012482 0.000456 -0.000001 -0.005101 0.000000
# 3 -0.002676 0.000456 0.010797 0.000000 -0.002257 0.000000
# 4 0.000001 -0.000001 0.000000 0.066463 0.000000 0.009418
# 5 0.001349 -0.005101 -0.002257 0.000000 0.026343 0.000000
# 6 0.000000 0.000000 0.000000 0.009418 0.000000 0.041833
#
#
# Mechanical properties :
#
#
# Convention : Reuss Voigt Hill
#
# Bulk Modulus (GPa) = 46.96517 52.40573 49.68545
# Shear Modulus (GPa) = 26.75969 32.89008 29.82489
#
# Velocity S-wave (km/s) = 3.30302 3.66187 3.48706
# Velocity P-wave (km/s) = 5.80468 6.26457 6.03900
#
# Compressibility (1/GPa) = 0.02129237
#
# Stress axis : x y z
#
# Youngs Moduli (GPa) = 100.78062 80.11231 92.61659
#
# Poissons Ratio (x) = 0.29917 0.24788
# Poissons Ratio (y) = 0.37635 -0.04223
# Poissons Ratio (z) = 0.26974 -0.03653
#
# Static dielectric constant tensor:
#      x y z
#    x 2.045090 0.000000 -0.024490 
#    y 0.000000 1.620470 0.000000 
#    z -0.024490 0.000000 1.929420 
# 
# From -- ./inp_files/179081.got.cif
#   From: 2010.05.17/outbox.cif.g08.bks.cpg/sg15_90_cif.got.tgz:179081.got - 2010.06.03 18:47:42.
