data_PCOD9299783
_publ_section_title
;
Structure prediction by ZEFSAII (Michael W. Deem and Ramdas Pophale) SiO2 
 PCOD9299783
Probable space group: C 2/C
;
_chemical_formula_sum "Si O2"
_cell_formula_units_Z 56
_cell_length_a 32.025982
_cell_length_b 11.947166
_cell_length_c 8.741578
_cell_angle_alpha 90.000000
_cell_angle_beta 124.697482
_cell_angle_gamma 90.000000
_cell_volume 2749.908978
_symmetry_space_group_name_H-M "C 2/C"
_symmetry_group_IT_number 15
_symmetry_cell_setting 'monoclinic'
loop_
_space_group_symop_operation_xyz
x,y,z
-x,y,1/2-z
-x,-y,-z
x,-y,1/2+z
1/2+x,1/2+y,z
1/2-x,1/2+y,1/2-z
1/2-x,1/2-y,-z
1/2+x,1/2-y,1/2+z
loop_
_atom_site_type_symbol
_atom_site_label
_atom_site_fract_x
_atom_site_fract_y
_atom_site_fract_z
Si Si1 0.005922 0.877429 0.939706
Si Si2 0.673280 0.858964 0.607651
Si Si3 0.866241 0.921075 0.992749
Si Si4 0.648347 0.096426 0.696628
Si Si5 0.120388 0.146650 0.646115
Si Si6 0.222574 0.218026 0.284954
Si Si7 0.447580 0.242423 0.049055
O O1 0.000000 0.892467 0.750000
O O2 0.062782 0.833353 0.078406
O O3 0.965977 0.790276 0.924700
O O4 0.000000 0.000000 0.000000
O O5 0.658245 0.880610 0.397889
O O6 0.643675 0.756103 0.620751
O O7 0.732495 0.822381 0.731157
O O8 0.660242 0.970223 0.674875
O O9 0.853453 0.897096 0.143087
O O10 0.914271 0.844449 0.047877
O O11 0.818656 0.880471 0.792093
O O12 0.878248 0.048052 0.976454
O O13 0.687228 0.174185 0.678848
O O14 0.591286 0.139016 0.541613
O O15 0.250000 0.250000 0.500000
O O16 0.500000 0.222616 0.250000
#
# Coordination Sequence:
#
# PCOD9299783 Si02
#       7
#     8   8   8   8   8   8   8
#     4  12  22  37  62  95 136 176 222 277 344 404
#     4  11  26  46  71  98 140 182 231 287 342 414
#     4  11  25  40  69 102 140 174 232 283 345 421
#     4  10  25  46  70  98 139 180 235 282 342 418
#     4  12  26  40  67 105 138 175 230 281 353 411
#     4   9  23  45  70  96 133 181 223 278 351 400
#     4  11  22  44  67  95 136 187 226 289 342 404
#
# _framework density 20.36431
#
# number of rings (size 3 to 8) (size 9 to 14) (size 15 to 20)
#    0.000    1.143    2.857    2.143   12.000    1.714 
#    0.000    3.571    0.000    0.000    0.000    0.000 
#    0.000    0.000    0.000    0.000    0.000    0.000 
#
# Total GULP energy -156376.928006 kJ/mol
# GULP energy per Si atom -5584.890286 kJ/mol
# Density = 2.031796 g / cm^3
# Si number density = 20.364310 Si / 1000 Ang^3
#
#
#
# Elastic Constant Matrix: (Units=GPa)
#
#
# Indices 1 2 3 4 5 6 
#
# 1 152.9929 92.9369 59.1069 0.0000 13.0622 0.0000
# 2 92.9369 140.7475 30.4012 0.0000 -3.7880 0.0000
# 3 59.1069 30.4012 87.3711 0.0000 0.9949 0.0000
# 4 0.0000 0.0000 0.0000 19.4354 0.0000 -10.4169
# 5 13.0622 -3.7880 0.9949 0.0000 44.7495 0.0000
# 6 0.0000 0.0000 0.0000 -10.4169 0.0000 36.7107
#
#
#
# Elastic Compliance Matrix: (Units=1/GPa)
#
#
# Indices 1 2 3 4 5 6 
#
# 1 0.014720 -0.008338 -0.007002 0.000000 -0.004847 0.000000
# 2 -0.008338 0.012428 0.001277 0.000000 0.003457 0.000000
# 3 -0.007002 0.001277 0.015717 0.000000 0.001802 0.000000
# 4 0.000000 0.000000 0.000000 0.060681 0.000000 0.017219
# 5 -0.004847 0.003457 0.001802 0.000000 0.024014 0.000000
# 6 0.000000 0.000000 0.000000 0.017219 0.000000 0.032126
#
#
# Mechanical properties :
#
#
# Convention : Reuss Voigt Hill
#
# Bulk Modulus (GPa) = 67.84406 82.88905 75.36655
# Shear Modulus (GPa) = 25.94375 33.42356 29.68365
#
# Velocity S-wave (km/s) = 3.57316 4.05567 3.82204
# Velocity P-wave (km/s) = 7.10006 7.91977 7.52109
#
# Compressibility (1/GPa) = 0.01473968
#
# Stress axis : x y z
#
# Youngs Moduli (GPa) = 67.93497 80.46548 63.62419
#
# Poissons Ratio (x) = 0.67091 0.44548
# Poissons Ratio (y) = 0.56643 -0.08124
# Poissons Ratio (z) = 0.47566 -0.10275
#
# Static dielectric constant tensor:
#      x y z
#    x 1.710450 0.000000 0.027640 
#    y 0.000000 1.683720 0.000000 
#    z 0.027640 0.000000 1.745540 
# 
# From -- ./inp_files/69465.got.cif
#   From: 2010.05.17/outbox.cif.g08.bks.cpg/sg15_35_cif.got.tgz:69465.got - 2010.06.03 18:47:42.
