data_PCOD9299104
_publ_section_title
;
Structure prediction by ZEFSAII (Michael W. Deem and Ramdas Pophale) SiO2 
 PCOD9299104
Probable space group: C 2/C
;
_chemical_formula_sum "Si O2"
_cell_formula_units_Z 48
_cell_length_a 5.668313
_cell_length_b 14.020778
_cell_length_c 27.828889
_cell_angle_alpha 90.000000
_cell_angle_beta 62.083064
_cell_angle_gamma 90.000000
_cell_volume 1954.298590
_symmetry_space_group_name_H-M "C 2/C"
_symmetry_group_IT_number 15
_symmetry_cell_setting 'monoclinic'
loop_
_space_group_symop_operation_xyz
x,y,z
-x,y,1/2-z
-x,-y,-z
x,-y,1/2+z
1/2+x,1/2+y,z
1/2-x,1/2+y,1/2-z
1/2-x,1/2-y,-z
1/2+x,1/2-y,1/2+z
loop_
_atom_site_type_symbol
_atom_site_label
_atom_site_fract_x
_atom_site_fract_y
_atom_site_fract_z
Si Si1 0.245512 0.976980 0.942513
Si Si2 0.000000 0.419751 0.750000
Si Si3 0.625256 0.136944 0.903897
Si Si4 0.502717 0.183314 0.476494
Si Si5 0.069437 0.978441 0.860812
Si Si6 0.000000 0.800334 0.750000
Si Si7 0.579235 0.723313 0.141285
O O1 0.440014 0.916546 0.957087
O O2 0.124352 0.928416 0.907258
O O3 0.406573 0.063806 0.903912
O O4 0.000000 0.000000 0.000000
O O5 0.163224 0.482716 0.695980
O O6 0.229895 0.357532 0.756623
O O7 0.663532 0.224198 0.863597
O O8 0.479670 0.163769 0.968418
O O9 0.891579 0.072751 0.884815
O O10 0.250000 0.250000 0.500000
O O11 0.699262 0.235281 0.420843
O O12 0.914948 0.890915 0.850165
O O13 0.090598 0.740271 0.694448
#
# Coordination Sequence:
#
# PCOD9299104 Si02
#       7
#     8   4   8   8   8   4   8
#     4  12  22  40  67 103 148 191 241 313 377 462
#     4  10  24  46  83 105 144 204 262 324 394 467
#     4  12  25  43  69 112 146 193 250 314 389 470
#     4  12  23  41  70 105 153 195 249 311 395 464
#     4  11  24  46  74 102 148 195 255 316 392 465
#     4  10  24  50  79 109 144 204 266 320 392 473
#     4  11  24  46  76 103 149 197 256 315 393 464
#
# _framework density 24.561240999999999
#
# number of rings (size 3 to 8) (size 9 to 14) (size 15 to 20)
#    0.000    0.667    3.333    5.000    2.333    1.333 
#    0.000    0.833   11.000    0.000    0.000    0.000 
#    0.000    0.000    0.000    0.000    0.000    0.000 
#
# Total GULP energy -133736.951929 kJ/mol
# GULP energy per Si atom -5572.372997 kJ/mol
# Density = 2.450534 g / cm^3
# Si number density = 24.561241 Si / 1000 Ang^3
#
#
#
# Elastic Constant Matrix: (Units=GPa)
#
#
# Indices 1 2 3 4 5 6 
#
# 1 86.4494 18.1829 60.7774 0.0001 10.4193 0.0000
# 2 18.1829 71.9274 33.7156 0.0001 7.2934 0.0000
# 3 60.7774 33.7156 220.0451 0.0001 6.4638 -0.0001
# 4 0.0001 0.0001 0.0001 11.0933 -0.0001 14.0512
# 5 10.4193 7.2934 6.4638 -0.0001 50.2567 0.0001
# 6 0.0000 0.0000 -0.0001 14.0512 0.0001 32.1470
#
#
#
# Elastic Compliance Matrix: (Units=1/GPa)
#
#
# Indices 1 2 3 4 5 6 
#
# 1 0.014869 -0.001754 -0.003769 0.000000 -0.002343 0.000000
# 2 -0.001754 0.015366 -0.001822 0.000000 -0.001632 0.000000
# 3 -0.003769 -0.001822 0.005856 0.000000 0.000293 0.000000
# 4 0.000000 0.000000 0.000000 0.201955 0.000001 -0.088273
# 5 -0.002343 -0.001632 0.000293 0.000001 0.020583 0.000000
# 6 0.000000 0.000000 0.000000 -0.088273 0.000000 0.069690
#
#
# Mechanical properties :
#
#
# Convention : Reuss Voigt Hill
#
# Bulk Modulus (GPa) = 46.72911 67.08597 56.90754
# Shear Modulus (GPa) = 14.27988 36.41580 25.34784
#
# Velocity S-wave (km/s) = 2.41384 3.85470 3.21600
# Velocity P-wave (km/s) = 5.18032 6.86911 6.08360
#
# Compressibility (1/GPa) = 0.02139994
#
# Stress axis : x y z
#
# Youngs Moduli (GPa) = 67.25514 65.07923 170.76086
#
# Poissons Ratio (x) = 0.11417 0.64363
# Poissons Ratio (y) = 0.11799 0.31111
# Poissons Ratio (z) = 0.25350 0.11857
#
# Static dielectric constant tensor:
#      x y z
#    x 2.013350 0.000000 -0.028220 
#    y 0.000000 2.295440 0.000000 
#    z -0.028220 0.000000 1.966240 
# 
# From -- ./inp_files/305317.got.cif
#   From: 2010.05.17/outbox.cif.g08.bks.cpg/sg15_153_cif.got.tgz:305317.got - 2010.06.03 18:47:42.
