data_PCOD9299234
_publ_section_title
;
Structure prediction by ZEFSAII (Michael W. Deem and Ramdas Pophale) SiO2 
 PCOD9299234
Probable space group: C 2/C
;
_chemical_formula_sum "Si O2"
_cell_formula_units_Z 36
_cell_length_a 20.821457
_cell_length_b 13.879945
_cell_length_c 9.081721
_cell_angle_alpha 90.000000
_cell_angle_beta 37.505520
_cell_angle_gamma 90.000000
_cell_volume 1597.970170
_symmetry_space_group_name_H-M "C 2/C"
_symmetry_group_IT_number 15
_symmetry_cell_setting 'monoclinic'
loop_
_space_group_symop_operation_xyz
x,y,z
-x,y,1/2-z
-x,-y,-z
x,-y,1/2+z
1/2+x,1/2+y,z
1/2-x,1/2+y,1/2-z
1/2-x,1/2-y,-z
1/2+x,1/2-y,1/2+z
loop_
_atom_site_type_symbol
_atom_site_label
_atom_site_fract_x
_atom_site_fract_y
_atom_site_fract_z
Si Si1 0.156582 0.997438 0.511619
Si Si2 0.062460 0.705731 0.402372
Si Si3 0.000000 0.453341 0.250000
Si Si4 0.298737 0.064176 0.497486
Si Si5 0.000000 0.149961 0.250000
Si Si6 0.500000 0.327133 0.250000
O O1 0.068761 0.921869 0.725730
O O2 0.257035 0.007395 0.431797
O O3 0.200317 0.950430 0.283609
O O4 0.099169 0.100174 0.592572
O O5 0.164230 0.667794 0.128998
O O6 0.991485 0.757924 0.407751
O O7 0.018877 0.613040 0.570904
O O8 0.071154 0.781802 0.518860
O O9 0.100353 0.517780 0.107334
#
# Coordination Sequence:
#
# PCOD9299234 Si02
#       6
#     8   8   4   8   4   4
#     4  11  25  44  73  99 142 181 220 275 354 403
#     4  11  24  44  70  98 138 175 231 280 332 397
#     4  11  25  47  65 102 140 186 215 289 341 399
#     4  12  24  45  70 103 134 186 227 274 344 406
#     4  10  24  48  66 102 142 178 222 286 336 402
#     4  11  25  45  69 108 138 174 221 291 337 399
#
# _framework density 22.528579000000001
#
# number of rings (size 3 to 8) (size 9 to 14) (size 15 to 20)
#    0.000    0.889    2.222    4.000    3.111    7.111 
#    0.000    3.333    0.000    0.000    0.000    0.000 
#    0.000    0.000    0.000    0.000    0.000    0.000 
#
# Total GULP energy -100474.145994 kJ/mol
# GULP energy per Si atom -5581.897000 kJ/mol
# Density = 2.247730 g / cm^3
# Si number density = 22.528579 Si / 1000 Ang^3
#
#
#
# Elastic Constant Matrix: (Units=GPa)
#
#
# Indices 1 2 3 4 5 6 
#
# 1 89.6341 47.9437 26.8619 0.0000 -3.7318 0.0000
# 2 47.9437 119.5073 45.6645 0.0000 -6.9995 0.0000
# 3 26.8619 45.6645 82.8767 0.0000 6.6122 0.0000
# 4 0.0000 0.0000 0.0000 26.0928 0.0000 6.1448
# 5 -3.7318 -6.9995 6.6122 0.0000 38.3055 0.0000
# 6 0.0000 0.0000 0.0000 6.1448 0.0000 10.8940
#
#
#
# Elastic Compliance Matrix: (Units=1/GPa)
#
#
# Indices 1 2 3 4 5 6 
#
# 1 0.014459 -0.004984 -0.002008 0.000000 0.000844 0.000000
# 2 -0.004984 0.012665 -0.005586 0.000000 0.002793 0.000000
# 3 -0.002008 -0.005586 0.016114 0.000000 -0.003998 0.000000
# 4 0.000000 0.000000 0.000000 0.044195 0.000000 -0.024929
# 5 0.000844 0.002793 -0.003998 0.000000 0.027389 0.000000
# 6 0.000000 0.000000 0.000000 -0.024929 0.000000 0.105855
#
#
# Mechanical properties :
#
#
# Convention : Reuss Voigt Hill
#
# Bulk Modulus (GPa) = 55.30136 59.21760 57.25948
# Shear Modulus (GPa) = 19.85235 26.49500 23.17368
#
# Velocity S-wave (km/s) = 2.97173 3.43310 3.21071
# Velocity P-wave (km/s) = 6.03120 6.48517 6.26230
#
# Compressibility (1/GPa) = 0.01808274
#
# Stress axis : x y z
#
# Youngs Moduli (GPa) = 69.16011 78.95673 62.05966
#
# Poissons Ratio (x) = 0.39353 0.12459
# Poissons Ratio (y) = 0.34470 0.34665
# Poissons Ratio (z) = 0.13885 0.44104
#
# Static dielectric constant tensor:
#      x y z
#    x 1.778950 0.000000 0.027620 
#    y 0.000000 1.814100 0.000000 
#    z 0.027620 0.000000 1.898410 
# 
# From -- ./inp_files/37480.got.cif
#   From: 2010.05.17/outbox.cif.g08.bks.cpg/sg15_19_cif.got.tgz:37480.got - 2010.06.03 18:47:42.
