data_PCOD9299722
_publ_section_title
;
Structure prediction by ZEFSAII (Michael W. Deem and Ramdas Pophale) SiO2 
 PCOD9299722
Probable space group: C 2/C
;
_chemical_formula_sum "Si O2"
_cell_formula_units_Z 44
_cell_length_a 13.868447
_cell_length_b 4.902594
_cell_length_c 23.306517
_cell_angle_alpha 90.000000
_cell_angle_beta 104.505553
_cell_angle_gamma 90.000000
_cell_volume 1534.128861
_symmetry_space_group_name_H-M "C 2/C"
_symmetry_group_IT_number 15
_symmetry_cell_setting 'monoclinic'
loop_
_space_group_symop_operation_xyz
x,y,z
-x,y,1/2-z
-x,-y,-z
x,-y,1/2+z
1/2+x,1/2+y,z
1/2-x,1/2+y,1/2-z
1/2-x,1/2-y,-z
1/2+x,1/2-y,1/2+z
loop_
_atom_site_type_symbol
_atom_site_label
_atom_site_fract_x
_atom_site_fract_y
_atom_site_fract_z
Si Si1 0.835235 0.170222 0.079123
Si Si2 0.599338 0.200624 0.480891
Si Si3 0.500000 0.232118 0.750000
Si Si4 0.378123 0.969529 0.301961
Si Si5 0.880562 0.296879 0.918347
Si Si6 0.657993 0.659423 0.803460
O O1 0.889662 0.429863 0.057713
O O2 0.730561 0.297850 0.084466
O O3 0.831251 0.949442 0.027231
O O4 0.856369 0.949411 0.134379
O O5 0.486899 0.311003 0.453991
O O6 0.616854 0.092804 0.548315
O O7 0.597129 0.432248 0.760495
O O8 0.511589 0.152031 0.683109
O O9 0.383164 0.201869 0.350133
O O10 0.384739 0.072230 0.235722
O O11 0.273921 0.834902 0.303026
#
# Coordination Sequence:
#
# PCOD9299722 Si02
#       6
#     8   8   4   8   8   8
#     4  11  26  45  73 101 142 181 229 286 347 410
#     4  11  25  48  72 106 135 186 233 282 347 414
#     4  12  24  42  68  92 138 178 226 278 346 404
#     4  11  24  46  65 101 137 180 226 285 341 409
#     4  10  25  45  71 103 142 179 234 290 341 409
#     4  11  25  42  68 101 135 180 229 281 340 416
#
# _framework density 28.680772000000001
#
# number of rings (size 3 to 8) (size 9 to 14) (size 15 to 20)
#    0.000    1.091    1.818    2.727    7.636    4.364 
#    3.273    0.000    0.000    0.000    0.000    0.000 
#    0.000    0.000    0.000    0.000    0.000    0.000 
#
# Total GULP energy -122520.074748 kJ/mol
# GULP energy per Si atom -5569.094307 kJ/mol
# Density = 2.861549 g / cm^3
# Si number density = 28.680772 Si / 1000 Ang^3
#
#
#
# Elastic Constant Matrix: (Units=GPa)
#
#
# Indices 1 2 3 4 5 6 
#
# 1 176.7666 63.0397 20.6115 0.0000 -11.2411 0.0000
# 2 63.0397 175.0140 29.1425 0.0000 8.5491 0.0000
# 3 20.6115 29.1425 100.5169 0.0000 -10.9420 0.0000
# 4 0.0000 0.0000 0.0000 57.6266 0.0000 16.6385
# 5 -11.2411 8.5491 -10.9420 0.0000 59.5302 0.0000
# 6 0.0000 0.0000 0.0000 16.6385 0.0000 35.8397
#
#
#
# Elastic Compliance Matrix: (Units=1/GPa)
#
#
# Indices 1 2 3 4 5 6 
#
# 1 0.006665 -0.002389 -0.000510 0.000000 0.001508 0.000000
# 2 -0.002389 0.006946 -0.001716 0.000000 -0.001764 0.000000
# 3 -0.000510 -0.001716 0.010783 0.000000 0.002132 0.000000
# 4 0.000000 0.000000 0.000000 0.020039 0.000000 -0.009303
# 5 0.001508 -0.001764 0.002132 0.000000 0.017728 0.000000
# 6 0.000000 0.000000 0.000000 -0.009303 0.000000 0.032221
#
#
# Mechanical properties :
#
#
# Convention : Reuss Voigt Hill
#
# Bulk Modulus (GPa) = 65.94791 75.32056 70.63423
# Shear Modulus (GPa) = 46.01220 53.23289 49.62254
#
# Velocity S-wave (km/s) = 4.00970 4.31286 4.16404
# Velocity P-wave (km/s) = 6.66938 7.14981 6.91377
#
# Compressibility (1/GPa) = 0.01516348
#
# Stress axis : x y z
#
# Youngs Moduli (GPa) = 150.04615 143.95956 92.74096
#
# Poissons Ratio (x) = 0.34397 0.04727
# Poissons Ratio (y) = 0.35852 0.15915
# Poissons Ratio (z) = 0.07648 0.24704
#
# Static dielectric constant tensor:
#      x y z
#    x 1.082150 0.000000 0.192420 
#    y 0.000000 2.213760 0.000000 
#    z 0.192420 0.000000 2.157490 
# 
# From -- ./inp_files/271926.got.cif
#   From: 2010.05.17/outbox.cif.g08.bks.cpg/sg15_136_cif.got.tgz:271926.got - 2010.06.03 18:47:42.
