data_PCOD9299744
_publ_section_title
;
Structure prediction by ZEFSAII (Michael W. Deem and Ramdas Pophale) SiO2 
 PCOD9299744
Probable space group: C 2/C
;
_chemical_formula_sum "Si O2"
_cell_formula_units_Z 48
_cell_length_a 13.393306
_cell_length_b 18.229109
_cell_length_c 14.980731
_cell_angle_alpha 90.000000
_cell_angle_beta 152.119069
_cell_angle_gamma 90.000000
_cell_volume 1710.384912
_symmetry_space_group_name_H-M "C 2/C"
_symmetry_group_IT_number 15
_symmetry_cell_setting 'monoclinic'
loop_
_space_group_symop_operation_xyz
x,y,z
-x,y,1/2-z
-x,-y,-z
x,-y,1/2+z
1/2+x,1/2+y,z
1/2-x,1/2+y,1/2-z
1/2-x,1/2-y,-z
1/2+x,1/2-y,1/2+z
loop_
_atom_site_type_symbol
_atom_site_label
_atom_site_fract_x
_atom_site_fract_y
_atom_site_fract_z
Si Si1 0.026628 0.081156 0.627744
Si Si2 0.551919 0.747708 0.879849
Si Si3 0.345195 0.802820 0.205002
Si Si4 0.712952 0.956890 0.343098
Si Si5 0.768064 0.032811 0.106790
Si Si6 0.600235 0.838879 0.579067
O O1 0.143727 0.056705 0.630879
O O2 0.986003 0.166639 0.607666
O O3 0.187886 0.050602 0.829717
O O4 0.814795 0.030343 0.465585
O O5 0.328908 0.748559 0.628648
O O6 0.477173 0.815494 0.884514
O O7 0.500000 0.775094 0.250000
O O8 0.250697 0.875883 0.083785
O O9 0.428498 0.836180 0.363990
O O10 0.232214 0.731124 0.150111
O O11 0.459189 0.965905 0.124217
O O12 0.722691 0.085036 0.157890
O O13 0.000000 0.056061 0.250000
#
# Coordination Sequence:
#
# PCOD9299744 Si02
#       6
#     8   8   8   8   8   8
#     4  11  25  51  79 113 166 217 277 345 412 496
#     4  12  28  53  80 117 158 226 289 341 410 497
#     4  11  23  41  73 114 160 209 264 330 425 508
#     4  10  25  45  77 115 161 214 267 336 423 500
#     4  11  26  47  79 124 161 213 272 345 432 509
#     4  11  25  46  77 111 167 210 272 346 414 496
#
# _framework density 28.063859000000001
#
# number of rings (size 3 to 8) (size 9 to 14) (size 15 to 20)
#    0.000    1.000    1.667    3.000    9.333    2.667 
#    9.000    0.000    0.000    0.000    0.000    0.000 
#    0.000    0.000    0.000    0.000    0.000    0.000 
#
# Total GULP energy -134075.216540 kJ/mol
# GULP energy per Si atom -5586.467356 kJ/mol
# Density = 2.799998 g / cm^3
# Si number density = 28.063859 Si / 1000 Ang^3
#
#
#
# Elastic Constant Matrix: (Units=GPa)
#
#
# Indices 1 2 3 4 5 6 
#
# 1 150.1394 33.5963 55.2332 0.0011 16.4648 0.0066
# 2 33.5963 147.7028 45.3007 -0.0039 8.5342 -0.0142
# 3 55.2332 45.3007 138.8915 -0.0216 -0.0911 -0.0147
# 4 0.0011 -0.0039 -0.0216 64.8068 -0.0054 -1.7482
# 5 16.4648 8.5342 -0.0911 -0.0054 47.3215 -0.0012
# 6 0.0066 -0.0142 -0.0147 -1.7482 -0.0012 -22.0241
#
#
#
# Elastic Compliance Matrix: (Units=1/GPa)
#
#
# Indices 1 2 3 4 5 6 
#
# 1 0.008250 -0.000791 -0.003025 -0.000001 -0.002734 0.000005
# 2 -0.000791 0.007687 -0.002194 0.000000 -0.001115 -0.000004
# 3 -0.003025 -0.002194 0.009119 0.000003 0.001466 -0.000006
# 4 -0.000001 0.000000 0.000003 0.015398 0.000002 -0.001222
# 5 -0.002734 -0.001115 0.001466 0.000002 0.022287 -0.000002
# 6 0.000005 -0.000004 -0.000006 -0.001222 -0.000002 -0.045308
#
#
# Mechanical properties :
#
#
# Convention : Reuss Voigt Hill
#
# Bulk Modulus (GPa) = 76.69682 78.33268 77.51475
# Shear Modulus (GPa) = 147.93960 38.19441 93.06700
#
# Velocity S-wave (km/s) = 7.26841 3.69315 5.76494
# Velocity P-wave (km/s) = 9.89083 6.79402 8.48490
#
# Compressibility (1/GPa) = 0.01303835
#
# Stress axis : x y z
#
# Youngs Moduli (GPa) = 121.21323 130.08185 109.66038
#
# Poissons Ratio (x) = 0.10289 0.33168
# Poissons Ratio (y) = 0.09587 0.24054
# Poissons Ratio (z) = 0.36662 0.28534
#
# Static dielectric constant tensor:
#      x y z
#    x 2.839870 -0.000210 0.670090 
#    y -0.000210 2.452050 -0.000370 
#    z 0.670090 -0.000370 3.674090 
# 
# From -- ./inp_files/249740.got.cif
#   From: 2010.05.17/outbox.cif.g08.bks.cpg/sg15_125_cif.got.tgz:249740.got - 2010.06.03 18:47:42.
