data_PCOD9299419
_publ_section_title
;
Structure prediction by ZEFSAII (Michael W. Deem and Ramdas Pophale) SiO2 
 PCOD9299419
Probable space group: C 2/C
;
_chemical_formula_sum "Si O2"
_cell_formula_units_Z 52
_cell_length_a 26.837157
_cell_length_b 4.849050
_cell_length_c 17.186951
_cell_angle_alpha 90.000000
_cell_angle_beta 66.749941
_cell_angle_gamma 90.000000
_cell_volume 2054.984959
_symmetry_space_group_name_H-M "C 2/C"
_symmetry_group_IT_number 15
_symmetry_cell_setting 'monoclinic'
loop_
_space_group_symop_operation_xyz
x,y,z
-x,y,1/2-z
-x,-y,-z
x,-y,1/2+z
1/2+x,1/2+y,z
1/2-x,1/2+y,1/2-z
1/2-x,1/2-y,-z
1/2+x,1/2-y,1/2+z
loop_
_atom_site_type_symbol
_atom_site_label
_atom_site_fract_x
_atom_site_fract_y
_atom_site_fract_z
Si Si1 0.738575 0.211854 0.308664
Si Si2 0.590669 0.948568 0.578043
Si Si3 0.895227 0.949513 0.226793
Si Si4 0.039478 0.755082 0.488555
Si Si5 0.500000 0.297999 0.250000
Si Si6 0.336962 0.070919 0.838579
Si Si7 0.374532 0.912909 0.109516
O O1 0.728811 0.473237 0.258088
O O2 0.776350 0.344714 0.351794
O O3 0.684285 0.049074 0.364544
O O4 0.567317 0.232577 0.555378
O O5 0.647798 0.964733 0.586159
O O6 0.603864 0.802668 0.487255
O O7 0.544213 0.854884 0.666821
O O8 0.958892 0.934868 0.212608
O O9 0.861543 0.664269 0.265614
O O10 0.870973 0.149091 0.310648
O O11 0.913861 0.677831 0.102382
O O12 0.000000 0.500000 0.500000
O O13 0.000000 0.000000 0.500000
O O14 0.382979 0.330425 0.664695
#
# Coordination Sequence:
#
# PCOD9299419 Si02
#       7
#     8   8   8   8   4   8   8
#     4  12  26  49  81 119 153 212 274 348 411 483
#     4   9  25  52  75 121 164 214 272 333 407 492
#     4  11  25  48  77 120 160 213 274 335 408 490
#     4  10  25  47  72 113 164 208 264 327 400 483
#     4  10  24  50  84 116 170 220 272 338 426 488
#     4  11  25  49  79 117 160 211 268 345 414 481
#     4  10  26  51  81 121 162 211 283 333 404 496
#
# _framework density 25.304321999999999
#
# number of rings (size 3 to 8) (size 9 to 14) (size 15 to 20)
#    0.923    0.615    1.538    0.923    0.000   13.538 
#    5.538    0.000    0.000    6.462    0.000    0.000 
#    0.000    0.000    0.000    0.000    0.000    0.000 
#
# Total GULP energy -145054.526960 kJ/mol
# GULP energy per Si atom -5579.020268 kJ/mol
# Density = 2.524673 g / cm^3
# Si number density = 25.304322 Si / 1000 Ang^3
#
#
#
# Elastic Constant Matrix: (Units=GPa)
#
#
# Indices 1 2 3 4 5 6 
#
# 1 232.7939 65.2914 76.7044 0.0012 19.8176 -0.0004
# 2 65.2914 177.6031 36.9445 0.0013 -2.9945 0.0005
# 3 76.7044 36.9445 102.0480 -0.0015 11.6116 0.0005
# 4 0.0012 0.0013 -0.0015 7.7490 -0.0006 0.0373
# 5 19.8176 -2.9945 11.6116 -0.0006 43.7023 0.0002
# 6 -0.0004 0.0005 0.0005 0.0373 0.0002 49.4481
#
#
#
# Elastic Compliance Matrix: (Units=1/GPa)
#
#
# Indices 1 2 3 4 5 6 
#
# 1 0.006146 -0.001486 -0.003870 -0.000002 -0.001861 0.000000
# 2 -0.001486 0.006494 -0.001404 -0.000001 0.001492 0.000000
# 3 -0.003870 -0.001404 0.013434 0.000003 -0.001911 0.000000
# 4 -0.000002 -0.000001 0.000003 0.129049 0.000001 -0.000097
# 5 -0.001861 0.001492 -0.001911 0.000001 0.024336 0.000000
# 6 0.000000 0.000000 0.000000 -0.000097 0.000000 0.020223
#
#
# Mechanical properties :
#
#
# Convention : Reuss Voigt Hill
#
# Bulk Modulus (GPa) = 79.65403 96.70284 88.17843
# Shear Modulus (GPa) = 23.00055 42.41354 32.70704
#
# Velocity S-wave (km/s) = 3.01816 4.09851 3.59910
# Velocity P-wave (km/s) = 6.61003 7.79076 7.22456
#
# Compressibility (1/GPa) = 0.01255429
#
# Stress axis : x y z
#
# Youngs Moduli (GPa) = 162.71113 153.98996 74.43877
#
# Poissons Ratio (x) = 0.22879 0.28807
# Poissons Ratio (y) = 0.24174 0.10451
# Poissons Ratio (z) = 0.62969 0.21620
#
# Static dielectric constant tensor:
#      x y z
#    x 2.047770 0.000000 -0.032970 
#    y 0.000000 2.170970 0.000000 
#    z -0.032970 0.000000 1.225610 
# 
# From -- ./inp_files/180073.got.cif
#   From: 2010.05.17/outbox.cif.g08.bks.cpg/sg15_91_cif.got.tgz:180073.got - 2010.06.03 18:47:42.
