data_PCOD9299114
_publ_section_title
;
Structure prediction by ZEFSAII (Michael W. Deem and Ramdas Pophale) SiO2 
 PCOD9299114
Probable space group: C 2/C
;
_chemical_formula_sum "Si O2"
_cell_formula_units_Z 40
_cell_length_a 11.274056
_cell_length_b 15.988242
_cell_length_c 18.291900
_cell_angle_alpha 90.000000
_cell_angle_beta 30.181572
_cell_angle_gamma 90.000000
_cell_volume 1657.619473
_symmetry_space_group_name_H-M "C 2/C"
_symmetry_group_IT_number 15
_symmetry_cell_setting 'monoclinic'
loop_
_space_group_symop_operation_xyz
x,y,z
-x,y,1/2-z
-x,-y,-z
x,-y,1/2+z
1/2+x,1/2+y,z
1/2-x,1/2+y,1/2-z
1/2-x,1/2-y,-z
1/2+x,1/2-y,1/2+z
loop_
_atom_site_type_symbol
_atom_site_label
_atom_site_fract_x
_atom_site_fract_y
_atom_site_fract_z
Si Si1 0.362499 0.933503 0.022906
Si Si2 0.144586 0.785643 0.482243
Si Si3 0.915500 0.890539 0.194612
Si Si4 0.757895 0.459954 0.356821
Si Si5 0.350929 0.784961 0.678830
O O1 0.132657 0.953834 0.095671
O O2 0.233779 0.877454 0.152940
O O3 0.526558 0.874581 0.887724
O O4 0.500000 0.000000 0.000000
O O5 0.250000 0.750000 0.500000
O O6 0.244680 0.877387 0.413639
O O7 0.206657 0.732882 0.376377
O O8 0.867848 0.789628 0.649284
O O9 0.740887 0.929047 0.227648
O O10 0.994155 0.799399 0.124207
O O11 0.500000 0.500000 0.500000
O O12 0.000000 0.505625 0.250000
#
# Coordination Sequence:
#
# PCOD9299114 Si02
#       5
#     8   8   8   8   8
#     4  11  25  43  73 105 151 193 252 321 387 453
#     4  11  23  43  71 104 143 195 251 309 371 457
#     4  10  24  47  66 106 146 195 255 312 372 469
#     4  11  27  45  73 105 153 198 252 316 383 460
#     4  11  22  44  72 102 141 195 257 309 375 461
#
# _framework density 24.130990000000001
#
# number of rings (size 3 to 8) (size 9 to 14) (size 15 to 20)
#    0.000    1.200    2.000    3.600    5.600    0.000 
#    3.600    0.000    0.000    0.000    0.000    0.000 
#    0.000    0.000    0.000    0.000    0.000    0.000 
#
# Total GULP energy -111682.781254 kJ/mol
# GULP energy per Si atom -5584.139063 kJ/mol
# Density = 2.407607 g / cm^3
# Si number density = 24.130990 Si / 1000 Ang^3
#
#
#
# Elastic Constant Matrix: (Units=GPa)
#
#
# Indices 1 2 3 4 5 6 
#
# 1 136.6526 36.4689 30.0565 -0.0093 -13.0324 0.0036
# 2 36.4689 57.4676 11.7899 -0.0071 -15.9685 0.0101
# 3 30.0565 11.7899 104.8193 0.0107 -7.5004 0.0118
# 4 -0.0093 -0.0071 0.0107 36.7042 0.0095 0.4985
# 5 -13.0324 -15.9685 -7.5004 0.0095 51.9227 -0.0073
# 6 0.0036 0.0101 0.0118 0.4985 -0.0073 34.9191
#
#
#
# Elastic Compliance Matrix: (Units=1/GPa)
#
#
# Indices 1 2 3 4 5 6 
#
# 1 0.009221 -0.005331 -0.002017 0.000002 0.000383 0.000001
# 2 -0.005331 0.022429 -0.000602 0.000002 0.005473 -0.000005
# 3 -0.002017 -0.000602 0.010243 -0.000004 0.000788 -0.000003
# 4 0.000002 0.000002 -0.000004 0.027250 -0.000005 -0.000389
# 5 0.000383 0.005473 0.000788 -0.000005 0.021153 0.000003
# 6 0.000001 -0.000005 -0.000003 -0.000389 0.000003 0.028643
#
#
# Mechanical properties :
#
#
# Convention : Reuss Voigt Hill
#
# Bulk Modulus (GPa) = 38.47488 50.61888 44.54688
# Shear Modulus (GPa) = 34.84258 39.41747 37.13003
#
# Velocity S-wave (km/s) = 3.80398 4.04602 3.92686
# Velocity P-wave (km/s) = 5.93907 6.54593 6.24987
#
# Compressibility (1/GPa) = 0.02599099
#
# Stress axis : x y z
#
# Youngs Moduli (GPa) = 108.45096 44.58606 97.63020
#
# Poissons Ratio (x) = 0.23769 0.19691
# Poissons Ratio (y) = 0.57817 0.05882
# Poissons Ratio (z) = 0.21874 0.02686
#
# Static dielectric constant tensor:
#      x y z
#    x 2.033430 0.000000 -0.053500 
#    y 0.000000 1.943600 0.000000 
#    z -0.053500 0.000000 1.992310 
# 
# From -- ./inp_files/199677.got.cif
#   From: 2010.05.17/outbox.cif.g08.bks.cpg/sg15_100_cif.got.tgz:199677.got - 2010.06.03 18:47:42.
