data_PCOD9299019
_publ_section_title
;
Structure prediction by ZEFSAII (Michael W. Deem and Ramdas Pophale) SiO2 
 PCOD9299019
Probable space group: C 2/C
;
_chemical_formula_sum "Si O2"
_cell_formula_units_Z 40
_cell_length_a 30.386493
_cell_length_b 5.209255
_cell_length_c 9.658875
_cell_angle_alpha 90.000000
_cell_angle_beta 80.302731
_cell_angle_gamma 90.000000
_cell_volume 1507.067018
_symmetry_space_group_name_H-M "C 2/C"
_symmetry_group_IT_number 15
_symmetry_cell_setting 'monoclinic'
loop_
_space_group_symop_operation_xyz
x,y,z
-x,y,1/2-z
-x,-y,-z
x,-y,1/2+z
1/2+x,1/2+y,z
1/2-x,1/2+y,1/2-z
1/2-x,1/2-y,-z
1/2+x,1/2-y,1/2+z
loop_
_atom_site_type_symbol
_atom_site_label
_atom_site_fract_x
_atom_site_fract_y
_atom_site_fract_z
Si Si1 0.801098 0.093561 0.320101
Si Si2 0.881716 0.992861 0.976071
Si Si3 0.402655 0.989814 0.116396
Si Si4 0.547326 0.830552 0.652422
Si Si5 0.244895 0.539039 0.080663
O O1 0.846722 0.027918 0.371983
O O2 0.770875 0.853144 0.414729
O O3 0.784314 0.032909 0.174811
O O4 0.798989 0.409231 0.322022
O O5 0.875840 0.241745 0.078106
O O6 0.930567 0.050318 0.884421
O O7 0.879781 0.744326 0.071723
O O8 0.448000 0.959745 0.999844
O O9 0.417558 0.023974 0.265253
O O10 0.500000 0.820753 0.750000
O O11 0.250000 0.250000 0.000000
#
# Coordination Sequence:
#
# PCOD9299019 Si02
#       5
#     8   8   8   8   8
#     4  11  25  44  69 103 138 185 234 291 351 423
#     4  10  27  43  72 102 147 185 236 294 357 421
#     4  10  25  43  69 108 139 191 235 300 355 422
#     4  10  24  46  74 105 144 189 242 298 358 426
#     4  11  24  44  71 101 136 183 236 288 352 422
#
# _framework density 26.541620000000002
#
# number of rings (size 3 to 8) (size 9 to 14) (size 15 to 20)
#    1.200    0.400    2.000    0.600    8.400    1.600 
#    0.000    0.000    0.000    0.000    0.000    0.000 
#    0.000    0.000    0.000    0.000    0.000    0.000 
#
# Total GULP energy -111597.947088 kJ/mol
# GULP energy per Si atom -5579.897354 kJ/mol
# Density = 2.648121 g / cm^3
# Si number density = 26.541620 Si / 1000 Ang^3
#
#
#
# Elastic Constant Matrix: (Units=GPa)
#
#
# Indices 1 2 3 4 5 6 
#
# 1 76.7679 34.0126 4.7989 0.0000 12.9814 0.0000
# 2 34.0126 233.7270 47.0511 0.0000 12.1515 0.0000
# 3 4.7989 47.0511 137.3351 0.0000 13.4878 0.0000
# 4 0.0000 0.0000 0.0000 47.9655 0.0000 -2.2105
# 5 12.9814 12.1515 13.4878 0.0000 37.3704 0.0000
# 6 0.0000 0.0000 0.0000 -2.2105 0.0000 31.3284
#
#
#
# Elastic Compliance Matrix: (Units=1/GPa)
#
#
# Indices 1 2 3 4 5 6 
#
# 1 0.014671 -0.002021 0.000638 0.000000 -0.004670 0.000000
# 2 -0.002021 0.004907 -0.001579 0.000000 -0.000324 0.000000
# 3 0.000638 -0.001579 0.008057 0.000000 -0.002616 0.000000
# 4 0.000000 0.000000 0.000000 0.020916 0.000000 0.001476
# 5 -0.004670 -0.000324 -0.002616 0.000000 0.029431 0.000000
# 6 0.000000 0.000000 0.000000 0.001476 0.000000 0.032024
#
#
# Mechanical properties :
#
#
# Convention : Reuss Voigt Hill
#
# Bulk Modulus (GPa) = 46.05532 68.83947 57.44739
# Shear Modulus (GPa) = 40.59531 47.46402 44.02966
#
# Velocity S-wave (km/s) = 3.91512 4.23340 4.07737
# Velocity P-wave (km/s) = 6.15039 7.06317 6.62252
#
# Compressibility (1/GPa) = 0.02171302
#
# Stress axis : x y z
#
# Youngs Moduli (GPa) = 68.16019 203.78131 124.11560
#
# Poissons Ratio (x) = 0.41179 -0.07922
# Poissons Ratio (y) = 0.13773 0.19595
# Poissons Ratio (z) = -0.04350 0.32173
#
# Static dielectric constant tensor:
#      x y z
#    x 1.885700 0.000000 0.032850 
#    y 0.000000 2.047090 0.000000 
#    z 0.032850 0.000000 1.830250 
# 
# From -- ./inp_files/120869.got.cif
#   From: 2010.05.17/outbox.cif.g08.bks.cpg/sg15_61_cif.got.tgz:120869.got - 2010.06.03 18:47:42.
