data_PCOD9299904
_publ_section_title
;
Structure prediction by ZEFSAII (Michael W. Deem and Ramdas Pophale) SiO2 
 PCOD9299904
Probable space group: C 2/C
;
_chemical_formula_sum "Si O2"
_cell_formula_units_Z 52
_cell_length_a 30.836733
_cell_length_b 9.069833
_cell_length_c 13.564828
_cell_angle_alpha 90.000000
_cell_angle_beta 141.921857
_cell_angle_gamma 90.000000
_cell_volume 2339.812106
_symmetry_space_group_name_H-M "C 2/C"
_symmetry_group_IT_number 15
_symmetry_cell_setting 'monoclinic'
loop_
_space_group_symop_operation_xyz
x,y,z
-x,y,1/2-z
-x,-y,-z
x,-y,1/2+z
1/2+x,1/2+y,z
1/2-x,1/2+y,1/2-z
1/2-x,1/2-y,-z
1/2+x,1/2-y,1/2+z
loop_
_atom_site_type_symbol
_atom_site_label
_atom_site_fract_x
_atom_site_fract_y
_atom_site_fract_z
Si Si1 0.086023 0.842340 0.158004
Si Si2 0.623082 0.131541 0.832730
Si Si3 0.547470 0.817841 0.990764
Si Si4 0.500000 0.057373 0.750000
Si Si5 0.301466 0.880663 0.625776
Si Si6 0.824430 0.944421 0.536022
Si Si7 0.070712 0.026610 0.940873
O O1 0.135639 0.708586 0.211497
O O2 0.025005 0.765406 0.111142
O O3 0.130256 0.957596 0.304090
O O4 0.056972 0.929687 0.012962
O O5 0.584089 0.137210 0.657425
O O6 0.563643 0.141663 0.810794
O O7 0.671943 0.274051 0.928338
O O8 0.665962 0.978230 0.905040
O O9 0.589467 0.692309 0.007451
O O10 0.531397 0.953335 0.891485
O O11 0.250000 0.750000 0.500000
O O12 0.254013 0.991245 0.604094
O O13 0.864776 0.964750 0.505982
O O14 0.000000 0.028362 0.750000
#
# Coordination Sequence:
#
# PCOD9299904 Si02
#       7
#     8   8   8   4   8   8   8
#     4  11  22  45  70 103 138 183 228 289 348 416
#     4  12  26  44  71 108 141 175 237 291 349 411
#     4  12  23  43  71 103 144 177 222 298 359 399
#     4  12  26  40  70 106 144 174 222 290 358 414
#     4  10  25  48  70  93 141 193 230 284 348 411
#     4  11  24  45  71 101 139 187 233 282 344 422
#     4  12  23  40  74 106 139 181 236 286 353 413
#
# _framework density 22.224007
#
# number of rings (size 3 to 8) (size 9 to 14) (size 15 to 20)
#    0.000    0.615    5.385    2.308    5.385    0.000 
#    2.769    0.000    0.000    0.000    0.000    0.000 
#    0.000    0.000    0.000    0.000    0.000    0.000 
#
# Total GULP energy -145527.066878 kJ/mol
# GULP energy per Si atom -5597.194880 kJ/mol
# Density = 2.217342 g / cm^3
# Si number density = 22.224007 Si / 1000 Ang^3
#
#
#
# Elastic Constant Matrix: (Units=GPa)
#
#
# Indices 1 2 3 4 5 6 
#
# 1 60.7576 14.4338 9.9030 0.0000 5.2193 0.0000
# 2 14.4338 121.0723 26.6942 0.0000 9.2524 0.0000
# 3 9.9030 26.6942 31.2527 0.0000 -4.5435 0.0000
# 4 0.0000 0.0000 0.0000 38.5575 0.0000 2.5676
# 5 5.2193 9.2524 -4.5435 0.0000 29.0310 0.0000
# 6 0.0000 0.0000 0.0000 2.5676 0.0000 40.7567
#
#
#
# Elastic Compliance Matrix: (Units=1/GPa)
#
#
# Indices 1 2 3 4 5 6 
#
# 1 0.017868 -0.000561 -0.005755 0.000000 -0.003934 0.000000
# 2 -0.000561 0.010865 -0.009814 0.000000 -0.004898 0.000000
# 3 -0.005755 -0.009814 0.043805 0.000000 0.011018 0.000000
# 4 0.000000 0.000000 0.000000 0.026045 0.000000 -0.001641
# 5 -0.003934 -0.004898 0.011018 0.000000 0.038439 0.000000
# 6 0.000000 0.000000 0.000000 -0.001641 0.000000 0.024639
#
#
# Mechanical properties :
#
#
# Convention : Reuss Voigt Hill
#
# Bulk Modulus (GPa) = 24.82725 35.01608 29.92166
# Shear Modulus (GPa) = 24.11429 32.47247 28.29338
#
# Velocity S-wave (km/s) = 3.29759 3.82664 3.57192
# Velocity P-wave (km/s) = 5.06897 5.94259 5.52308
#
# Compressibility (1/GPa) = 0.04027832
#
# Stress axis : x y z
#
# Youngs Moduli (GPa) = 55.96596 92.04285 22.82825
#
# Poissons Ratio (x) = 0.05160 0.13138
# Poissons Ratio (y) = 0.03138 0.22404
# Poissons Ratio (z) = 0.32208 0.90333
#
# Static dielectric constant tensor:
#      x y z
#    x 1.815480 0.000000 0.020450 
#    y 0.000000 1.830800 0.000000 
#    z 0.020450 0.000000 1.800880 
# 
# From -- ./inp_files/181239.got.cif
#   From: 2010.05.17/outbox.cif.g08.bks.cpg/sg15_91_cif.got.tgz:181239.got - 2010.06.03 18:47:42.
