data_PCOD9299715
_publ_section_title
;
Structure prediction by ZEFSAII (Michael W. Deem and Ramdas Pophale) SiO2 
 PCOD9299715
Probable space group: C 2/C
;
_chemical_formula_sum "Si O2"
_cell_formula_units_Z 32
_cell_length_a 12.238950
_cell_length_b 10.769683
_cell_length_c 23.726000
_cell_angle_alpha 90.000000
_cell_angle_beta 24.451723
_cell_angle_gamma 90.000000
_cell_volume 1294.478080
_symmetry_space_group_name_H-M "C 2/C"
_symmetry_group_IT_number 15
_symmetry_cell_setting 'monoclinic'
loop_
_space_group_symop_operation_xyz
x,y,z
-x,y,1/2-z
-x,-y,-z
x,-y,1/2+z
1/2+x,1/2+y,z
1/2-x,1/2+y,1/2-z
1/2-x,1/2-y,-z
1/2+x,1/2-y,1/2+z
loop_
_atom_site_type_symbol
_atom_site_label
_atom_site_fract_x
_atom_site_fract_y
_atom_site_fract_z
Si Si1 0.157044 0.231927 0.846502
Si Si2 0.650942 0.634629 0.619242
Si Si3 0.403201 0.370468 0.903906
Si Si4 0.238562 0.028766 0.346737
O O1 0.385292 0.332366 0.742023
O O2 0.028627 0.198756 0.845507
O O3 0.309189 0.106520 0.790597
O O4 0.913834 0.279966 0.998696
O O5 0.500000 0.623147 0.750000
O O6 0.729955 0.498533 0.555226
O O7 0.601029 0.401137 0.861560
O O8 0.250000 0.250000 0.000000
O O9 0.500000 0.086833 0.250000
O O10 0.000000 0.000000 0.500000
#
# Coordination Sequence:
#
# PCOD9299715 Si02
#       4
#     8   8   8   8
#     4  10  25  45  70 104 144 183 244 308 361 443
#     4  10  25  46  73 104 140 195 242 303 378 440
#     4  11  26  45  73 104 150 187 249 310 367 450
#     4  11  26  44  73 104 141 196 247 297 371 440
#
# _framework density 24.720386999999999
#
# number of rings (size 3 to 8) (size 9 to 14) (size 15 to 20)
#    0.000    1.500    0.000    1.500   21.000    4.000 
#    0.000    0.000    0.000    0.000    0.000    0.000 
#    0.000    0.000    0.000    0.000    0.000    0.000 
#
# Total GULP energy -89370.904413 kJ/mol
# GULP energy per Si atom -5585.681526 kJ/mol
# Density = 2.466412 g / cm^3
# Si number density = 24.720387 Si / 1000 Ang^3
#
#
#
# Elastic Constant Matrix: (Units=GPa)
#
#
# Indices 1 2 3 4 5 6 
#
# 1 104.6916 32.9110 33.1978 -0.0013 -0.0952 -0.0006
# 2 32.9110 134.0879 30.6217 0.0011 -7.4089 -0.0004
# 3 33.1978 30.6217 106.0308 -0.0019 9.2024 -0.0042
# 4 -0.0013 0.0011 -0.0019 52.6282 -0.0005 0.2365
# 5 -0.0952 -7.4089 9.2024 -0.0005 31.8390 -0.0009
# 6 -0.0006 -0.0004 -0.0042 0.2365 -0.0009 -19.8531
#
#
#
# Elastic Compliance Matrix: (Units=1/GPa)
#
#
# Indices 1 2 3 4 5 6 
#
# 1 0.011122 -0.002039 -0.002929 0.000000 0.000405 0.000000
# 2 -0.002039 0.008572 -0.002062 0.000000 0.002584 0.000000
# 3 -0.002929 -0.002062 0.011269 0.000000 -0.003745 -0.000002
# 4 0.000000 0.000000 0.000000 0.019000 0.000000 0.000226
# 5 0.000405 0.002584 -0.003745 0.000000 0.033093 -0.000001
# 6 0.000000 0.000000 -0.000002 0.000226 -0.000001 -0.050367
#
#
# Mechanical properties :
#
#
# Convention : Reuss Voigt Hill
#
# Bulk Modulus (GPa) = 59.15537 59.80792 59.48164
# Shear Modulus (GPa) = 95.45531 29.46147 62.45839
#
# Velocity S-wave (km/s) = 6.22076 3.45597 5.03198
# Velocity P-wave (km/s) = 8.69361 6.33808 7.60757
#
# Compressibility (1/GPa) = 0.01690464
#
# Stress axis : x y z
#
# Youngs Moduli (GPa) = 89.91397 116.66249 88.74224
#
# Poissons Ratio (x) = 0.23782 0.25989
# Poissons Ratio (y) = 0.18329 0.18295
# Poissons Ratio (z) = 0.26332 0.24051
#
# Static dielectric constant tensor:
#      x y z
#    x 2.014040 0.000000 0.154170 
#    y 0.000000 1.713330 -0.000140 
#    z 0.154170 -0.000140 1.960990 
# 
# From -- ./inp_files/237339.got.cif
#   From: 2010.05.17/outbox.cif.g08.bks.cpg/sg15_119_cif.got.tgz:237339.got - 2010.06.03 18:47:42.
