data_PCOD9299603
_publ_section_title
;
Structure prediction by ZEFSAII (Michael W. Deem and Ramdas Pophale) SiO2 
 PCOD9299603
Probable space group: C 2/C
;
_chemical_formula_sum "Si O2"
_cell_formula_units_Z 60
_cell_length_a 12.403934
_cell_length_b 17.127260
_cell_length_c 20.871487
_cell_angle_alpha 90.000000
_cell_angle_beta 39.950727
_cell_angle_gamma 90.000000
_cell_volume 2847.231221
_symmetry_space_group_name_H-M "C 2/C"
_symmetry_group_IT_number 15
_symmetry_cell_setting 'monoclinic'
loop_
_space_group_symop_operation_xyz
x,y,z
-x,y,1/2-z
-x,-y,-z
x,-y,1/2+z
1/2+x,1/2+y,z
1/2-x,1/2+y,1/2-z
1/2-x,1/2-y,-z
1/2+x,1/2-y,1/2+z
loop_
_atom_site_type_symbol
_atom_site_label
_atom_site_fract_x
_atom_site_fract_y
_atom_site_fract_z
Si Si1 0.474507 0.908388 0.395451
Si Si2 0.559876 0.223587 0.096663
Si Si3 0.500000 0.349145 0.750000
Si Si4 0.829803 0.136499 0.547509
Si Si5 0.134639 0.696536 0.444887
Si Si6 0.956940 0.564563 0.198437
Si Si7 0.853115 0.124977 0.690478
Si Si8 0.565459 0.548562 0.345796
O O1 0.357336 0.872452 0.393690
O O2 0.398622 0.878349 0.496427
O O3 0.664838 0.878929 0.302887
O O4 0.476305 0.001071 0.382760
O O5 0.480408 0.197197 0.065098
O O6 0.539243 0.148884 0.151262
O O7 0.452326 0.298649 0.167442
O O8 0.750000 0.250000 0.000000
O O9 0.671146 0.301106 0.664535
O O10 0.478673 0.401962 0.696742
O O11 0.897041 0.223603 0.501751
O O12 0.841288 0.127111 0.618368
O O13 0.941748 0.073904 0.458934
O O14 0.756636 0.567332 0.279736
O O15 0.000000 0.535402 0.250000
O O16 0.942743 0.043319 0.665419
#
# Coordination Sequence:
#
# PCOD9299603 Si02
#       8
#     8   8   4   8   8   8   8   8
#     4  11  23  43  69 105 130 179 223 285 350 403
#     4  11  27  45  66  98 137 189 227 281 338 417
#     4  12  24  46  68 102 142 174 226 296 344 404
#     4  11  23  38  75  99 133 171 222 289 345 408
#     4  11  26  42  71 102 137 177 225 287 348 411
#     4  11  26  45  69  97 141 183 230 281 340 411
#     4  10  25  44  66  98 137 174 232 280 335 415
#     4  11  24  45  68 101 131 180 226 283 351 400
#
# _framework density 21.073103
#
# number of rings (size 3 to 8) (size 9 to 14) (size 15 to 20)
#    0.000    1.067    2.667    2.800   11.200    0.533 
#    6.000    0.000    0.000    0.000    0.000    0.000 
#    0.000    0.000    0.000    0.000    0.000    0.000 
#
# Total GULP energy -167845.402795 kJ/mol
# GULP energy per Si atom -5594.846760 kJ/mol
# Density = 2.102514 g / cm^3
# Si number density = 21.073103 Si / 1000 Ang^3
#
#
#
# Elastic Constant Matrix: (Units=GPa)
#
#
# Indices 1 2 3 4 5 6 
#
# 1 66.0696 -2.4540 5.4225 0.0000 -14.6416 -0.0001
# 2 -2.4540 87.2527 26.9578 0.0005 -6.8656 -0.0002
# 3 5.4225 26.9578 82.1000 0.0008 -12.9472 0.0002
# 4 0.0000 0.0005 0.0008 29.5158 0.0003 1.4209
# 5 -14.6416 -6.8656 -12.9472 0.0003 19.0179 -0.0003
# 6 -0.0001 -0.0002 0.0002 1.4209 -0.0003 27.2060
#
#
#
# Elastic Compliance Matrix: (Units=1/GPa)
#
#
# Indices 1 2 3 4 5 6 
#
# 1 0.018519 0.001510 0.000690 0.000000 0.015272 0.000000
# 2 0.001510 0.012944 -0.003842 0.000000 0.003219 0.000000
# 3 0.000690 -0.003842 0.014856 0.000000 0.009258 0.000000
# 4 0.000000 0.000000 0.000000 0.033966 -0.000001 -0.001774
# 5 0.015272 0.003219 0.009258 -0.000001 0.071805 0.000001
# 6 0.000000 0.000000 0.000000 -0.001774 0.000001 0.036849
#
#
# Mechanical properties :
#
#
# Convention : Reuss Voigt Hill
#
# Bulk Modulus (GPa) = 23.23767 32.80830 28.02299
# Shear Modulus (GPa) = 24.20490 28.84768 26.52629
#
# Velocity S-wave (km/s) = 3.39280 3.70392 3.55177
# Velocity P-wave (km/s) = 5.13802 5.82191 5.49062
#
# Compressibility (1/GPa) = 0.04303357
#
# Stress axis : x y z
#
# Youngs Moduli (GPa) = 53.99718 77.25695 67.31161
#
# Poissons Ratio (x) = -0.11662 -0.04642
# Poissons Ratio (y) = -0.08151 0.25862
# Poissons Ratio (z) = -0.03724 0.29683
#
# Static dielectric constant tensor:
#      x y z
#    x 1.762110 0.000000 -0.000990 
#    y 0.000000 1.778520 0.000000 
#    z -0.000990 0.000000 1.736860 
# 
# From -- ./inp_files/239965.got.cif
#   From: 2010.05.17/outbox.cif.g08.bks.cpg/sg15_120_cif.got.tgz:239965.got - 2010.06.03 18:47:42.
