data_PCOD9299772
_publ_section_title
;
Structure prediction by ZEFSAII (Michael W. Deem and Ramdas Pophale) SiO2 
 PCOD9299772
Probable space group: C 2/C
;
_chemical_formula_sum "Si O2"
_cell_formula_units_Z 52
_cell_length_a 10.263796
_cell_length_b 30.921734
_cell_length_c 9.133174
_cell_angle_alpha 90.000000
_cell_angle_beta 122.557740
_cell_angle_gamma 90.000000
_cell_volume 2443.113500
_symmetry_space_group_name_H-M "C 2/C"
_symmetry_group_IT_number 15
_symmetry_cell_setting 'monoclinic'
loop_
_space_group_symop_operation_xyz
x,y,z
-x,y,1/2-z
-x,-y,-z
x,-y,1/2+z
1/2+x,1/2+y,z
1/2-x,1/2+y,1/2-z
1/2-x,1/2-y,-z
1/2+x,1/2-y,1/2+z
loop_
_atom_site_type_symbol
_atom_site_label
_atom_site_fract_x
_atom_site_fract_y
_atom_site_fract_z
Si Si1 0.301381 0.056602 0.221196
Si Si2 0.156079 0.290669 0.014212
Si Si3 0.546450 0.582250 0.444089
Si Si4 0.922372 0.755828 0.551101
Si Si5 0.652275 0.024799 0.928602
Si Si6 0.500000 0.135022 0.250000
Si Si7 0.408914 0.332861 0.349603
O O1 0.348795 0.032172 0.398600
O O2 0.394387 0.101663 0.278192
O O3 0.117407 0.063653 0.102075
O O4 0.339222 0.025590 0.108280
O O5 0.251857 0.308323 0.210070
O O6 0.987158 0.275260 0.963885
O O7 0.250000 0.250000 0.000000
O O8 0.123828 0.332655 0.897551
O O9 0.500000 0.596851 0.250000
O O10 0.688282 0.548481 0.523416
O O11 0.599062 0.620411 0.583625
O O12 0.750000 0.750000 0.500000
O O13 0.973267 0.802165 0.516805
O O14 0.000000 0.746357 0.750000
O O15 0.500000 0.041973 0.750000
O O16 0.500000 0.333446 0.250000
#
# Coordination Sequence:
#
# PCOD9299772 Si02
#       7
#     8   8   8   8   8   4   8
#     4  11  25  46  72 108 142 195 232 301 356 431
#     4  12  26  47  73 104 141 194 246 299 370 439
#     4  10  25  46  69 107 145 188 237 297 359 430
#     4  12  26  45  69 102 140 185 238 302 370 431
#     4  11  24  45  75 103 149 186 240 288 364 430
#     4  12  28  44  74 104 152 184 246 300 364 422
#     4  12  24  43  73 100 139 186 247 296 357 434
#
# _framework density 21.284316
#
# number of rings (size 3 to 8) (size 9 to 14) (size 15 to 20)
#    0.000    0.615    3.846    3.231    2.154    3.692 
#    0.000    0.000    0.000    0.000    0.000    0.000 
#    0.000    0.000    0.000    0.000    0.000    0.000 
#
# Total GULP energy -145045.679929 kJ/mol
# GULP energy per Si atom -5578.679997 kJ/mol
# Density = 2.123587 g / cm^3
# Si number density = 21.284316 Si / 1000 Ang^3
#
#
#
# Elastic Constant Matrix: (Units=GPa)
#
#
# Indices 1 2 3 4 5 6 
#
# 1 131.9622 47.1866 33.6804 0.0000 7.5382 0.0000
# 2 47.1866 125.3120 41.8309 0.0000 -15.7188 0.0000
# 3 33.6804 41.8309 59.4427 0.0000 8.9070 0.0000
# 4 0.0000 0.0000 0.0000 42.0421 0.0000 -6.4739
# 5 7.5382 -15.7188 8.9070 0.0000 40.2243 0.0000
# 6 0.0000 0.0000 0.0000 -6.4739 0.0000 32.4838
#
#
#
# Elastic Compliance Matrix: (Units=1/GPa)
#
#
# Indices 1 2 3 4 5 6 
#
# 1 0.009497 -0.002833 -0.003056 0.000000 -0.002210 0.000000
# 2 -0.002833 0.012829 -0.008537 0.000000 0.007435 0.000000
# 3 -0.003056 -0.008537 0.025833 0.000000 -0.008484 0.000000
# 4 0.000000 0.000000 0.000000 0.024539 0.000000 0.004890
# 5 -0.002210 0.007435 -0.008484 0.000000 0.030059 0.000000
# 6 0.000000 0.000000 0.000000 0.004890 0.000000 0.031759
#
#
# Mechanical properties :
#
#
# Convention : Reuss Voigt Hill
#
# Bulk Modulus (GPa) = 51.79406 62.45697 57.12552
# Shear Modulus (GPa) = 29.44554 35.88464 32.66509
#
# Velocity S-wave (km/s) = 3.72350 4.11051 3.92178
# Velocity P-wave (km/s) = 6.54776 7.20668 6.88510
#
# Compressibility (1/GPa) = 0.01930723
#
# Stress axis : x y z
#
# Youngs Moduli (GPa) = 105.29270 77.94661 38.70971
#
# Poissons Ratio (x) = 0.22085 0.11830
# Poissons Ratio (y) = 0.29833 0.33046
# Poissons Ratio (z) = 0.32179 0.66542
#
# Static dielectric constant tensor:
#      x y z
#    x 1.790600 0.000000 0.014350 
#    y 0.000000 1.752770 0.000000 
#    z 0.014350 0.000000 1.788830 
# 
# From -- ./inp_files/34440.got.cif
#   From: 2010.05.17/outbox.cif.g08.bks.cpg/sg15_18_cif.got.tgz:34440.got - 2010.06.03 18:47:42.
