data_PCOD9299075
_publ_section_title
;
Structure prediction by ZEFSAII (Michael W. Deem and Ramdas Pophale) SiO2 
 PCOD9299075
Probable space group: C 2/C
;
_chemical_formula_sum "Si O2"
_cell_formula_units_Z 36
_cell_length_a 22.415019
_cell_length_b 7.261374
_cell_length_c 9.620740
_cell_angle_alpha 90.000000
_cell_angle_beta 67.499324
_cell_angle_gamma 90.000000
_cell_volume 1446.703788
_symmetry_space_group_name_H-M "C 2/C"
_symmetry_group_IT_number 15
_symmetry_cell_setting 'monoclinic'
loop_
_space_group_symop_operation_xyz
x,y,z
-x,y,1/2-z
-x,-y,-z
x,-y,1/2+z
1/2+x,1/2+y,z
1/2-x,1/2+y,1/2-z
1/2-x,1/2-y,-z
1/2+x,1/2-y,1/2+z
loop_
_atom_site_type_symbol
_atom_site_label
_atom_site_fract_x
_atom_site_fract_y
_atom_site_fract_z
Si Si1 0.023840 0.651418 0.873646
Si Si2 0.000000 0.995562 0.250000
Si Si3 0.861060 0.186405 0.868139
Si Si4 0.194962 0.105080 0.883388
Si Si5 0.160679 0.387118 0.151227
O O1 0.148248 0.596403 0.118659
O O2 0.000000 0.568341 0.750000
O O3 0.899377 0.670746 0.700199
O O4 0.000000 0.500000 0.000000
O O5 0.996323 0.140966 0.383501
O O6 0.064400 0.876237 0.196916
O O7 0.829681 0.120005 0.750641
O O8 0.824870 0.083766 0.024803
O O9 0.163871 0.261704 0.010623
O O10 0.271729 0.128038 0.829543
#
# Coordination Sequence:
#
# PCOD9299075 Si02
#       5
#     8   4   8   8   8
#     4  10  24  46  77 113 160 207 262 334 396 481
#     4  10  26  50  76 120 162 202 280 330 404 496
#     4  12  28  50  82 116 162 214 265 346 408 478
#     4  11  28  52  80 121 159 212 278 334 404 498
#     4  11  27  48  81 114 161 212 266 329 412 480
#
# _framework density 24.884153999999999
#
# number of rings (size 3 to 8) (size 9 to 14) (size 15 to 20)
#    0.667    0.444    2.222    0.667   14.000    4.444 
#    0.000    1.111    0.000    0.000    0.000    0.000 
#    0.000    0.000    0.000    0.000    0.000    0.000 
#
# Total GULP energy -100985.831700 kJ/mol
# GULP energy per Si atom -5610.323983 kJ/mol
# Density = 2.482752 g / cm^3
# Si number density = 24.884154 Si / 1000 Ang^3
#
#
#
# Elastic Constant Matrix: (Units=GPa)
#
#
# Indices 1 2 3 4 5 6 
#
# 1 167.0836 30.5275 43.4621 0.0000 9.6693 0.0000
# 2 30.5275 159.3350 53.3888 0.0000 3.6219 0.0000
# 3 43.4621 53.3888 102.5421 0.0000 4.7153 0.0000
# 4 0.0000 0.0000 0.0000 164.6482 0.0000 -12.7272
# 5 9.6693 3.6219 4.7153 0.0000 18.3668 0.0000
# 6 0.0000 0.0000 0.0000 -12.7272 0.0000 38.3002
#
#
#
# Elastic Compliance Matrix: (Units=1/GPa)
#
#
# Indices 1 2 3 4 5 6 
#
# 1 0.006896 -0.000388 -0.002588 0.000000 -0.002890 0.000000
# 2 -0.000388 0.007629 -0.003792 0.000000 -0.000326 0.000000
# 3 -0.002588 -0.003792 0.012878 0.000000 -0.001196 0.000000
# 4 0.000000 0.000000 0.000000 0.006234 0.000000 0.002071
# 5 -0.002890 -0.000326 -0.001196 0.000000 0.056339 0.000000
# 6 0.000000 0.000000 0.000000 0.002071 0.000000 0.026798
#
#
# Mechanical properties :
#
#
# Convention : Reuss Voigt Hill
#
# Bulk Modulus (GPa) = 72.11750 75.96862 74.04306
# Shear Modulus (GPa) = 37.05550 64.36854 50.71202
#
# Velocity S-wave (km/s) = 3.86310 5.09151 4.51923
# Velocity P-wave (km/s) = 6.99587 8.07216 7.55321
#
# Compressibility (1/GPa) = 0.01386626
#
# Stress axis : x y z
#
# Youngs Moduli (GPa) = 145.00326 131.08585 77.64966
#
# Poissons Ratio (x) = 0.05093 0.20095
# Poissons Ratio (y) = 0.05633 0.29446
# Poissons Ratio (z) = 0.37525 0.49710
#
# Static dielectric constant tensor:
#      x y z
#    x 1.945090 0.000000 0.001300 
#    y 0.000000 1.947220 0.000000 
#    z 0.001300 0.000000 1.968430 
# 
# From -- ./inp_files/46791.got.cif
#   From: 2010.05.17/outbox.cif.g08.bks.cpg/sg15_24_cif.got.tgz:46791.got - 2010.06.03 18:47:42.
