data_PCOD9299430
_publ_section_title
;
Structure prediction by ZEFSAII (Michael W. Deem and Ramdas Pophale) SiO2 
 PCOD9299430
Probable space group: C 2/C
;
_chemical_formula_sum "Si O2"
_cell_formula_units_Z 40
_cell_length_a 10.991257
_cell_length_b 29.346493
_cell_length_c 8.750315
_cell_angle_alpha 90.000000
_cell_angle_beta 143.986333
_cell_angle_gamma 90.000000
_cell_volume 1659.542939
_symmetry_space_group_name_H-M "C 2/C"
_symmetry_group_IT_number 15
_symmetry_cell_setting 'monoclinic'
loop_
_space_group_symop_operation_xyz
x,y,z
-x,y,1/2-z
-x,-y,-z
x,-y,1/2+z
1/2+x,1/2+y,z
1/2-x,1/2+y,1/2-z
1/2-x,1/2-y,-z
1/2+x,1/2-y,1/2+z
loop_
_atom_site_type_symbol
_atom_site_label
_atom_site_fract_x
_atom_site_fract_y
_atom_site_fract_z
Si Si1 0.500000 0.395918 0.250000
Si Si2 0.223084 0.281075 0.124969
Si Si3 0.299308 0.942499 0.329454
Si Si4 0.099506 0.196999 0.188032
Si Si5 0.888361 0.359063 0.822257
Si Si6 0.500000 0.017368 0.750000
O O1 0.586030 0.425017 0.190876
O O2 0.705163 0.369535 0.516148
O O3 0.197366 0.244802 0.236175
O O4 0.425376 0.308847 0.379687
O O5 0.250000 0.250000 0.000000
O O6 0.032664 0.315553 0.934161
O O7 0.469142 0.902655 0.522347
O O8 0.333742 0.955751 0.186783
O O9 0.371656 0.985269 0.504658
O O10 0.265557 0.156809 0.347460
O O11 0.000000 0.198458 0.250000
#
# Coordination Sequence:
#
# PCOD9299430 Si02
#       6
#     4   8   8   8   8   4
#     4  12  26  46  76 115 144 200 247 314 372 458
#     4  12  28  45  74 106 143 201 266 313 363 437
#     4  11  25  49  78 112 151 190 242 312 381 458
#     4  12  28  45  71 107 148 201 257 316 369 435
#     4  12  28  46  74 104 156 195 254 304 380 434
#     4  10  24  52  80 113 148 186 241 312 384 460
#
# _framework density 24.103024000000001
#
# number of rings (size 3 to 8) (size 9 to 14) (size 15 to 20)
#    0.000    0.400    4.000    2.400    8.400    4.000 
#    0.000    0.000    0.000    0.000    0.000    0.000 
#    0.000    0.000    0.000    0.000    0.000    0.000 
#
# Total GULP energy -111845.113340 kJ/mol
# GULP energy per Si atom -5592.255667 kJ/mol
# Density = 2.404816 g / cm^3
# Si number density = 24.103024 Si / 1000 Ang^3
#
#
#
# Elastic Constant Matrix: (Units=GPa)
#
#
# Indices 1 2 3 4 5 6 
#
# 1 235.4934 83.0377 38.8228 0.0000 -14.5241 0.0000
# 2 83.0377 100.9788 42.3623 0.0000 4.2312 0.0000
# 3 38.8228 42.3623 62.4976 0.0000 11.5104 0.0000
# 4 0.0000 0.0000 0.0000 22.0945 0.0000 11.7187
# 5 -14.5241 4.2312 11.5104 0.0000 41.9201 0.0000
# 6 0.0000 0.0000 0.0000 11.7187 0.0000 43.3362
#
#
#
# Elastic Compliance Matrix: (Units=1/GPa)
#
#
# Indices 1 2 3 4 5 6 
#
# 1 0.006334 -0.004823 -0.001221 0.000000 0.003017 0.000000
# 2 -0.004823 0.017572 -0.008721 0.000000 -0.001050 0.000000
# 3 -0.001221 -0.008721 0.023790 0.000000 -0.006075 0.000000
# 4 0.000000 0.000000 0.000000 0.052838 0.000000 -0.014288
# 5 0.003017 -0.001050 -0.006075 0.000000 0.026674 0.000000
# 6 0.000000 0.000000 0.000000 -0.014288 0.000000 0.026939
#
#
# Mechanical properties :
#
#
# Convention : Reuss Voigt Hill
#
# Bulk Modulus (GPa) = 55.05182 80.82392 67.93787
# Shear Modulus (GPa) = 26.35270 37.11998 31.73634
#
# Velocity S-wave (km/s) = 3.31015 3.92861 3.63257
# Velocity P-wave (km/s) = 6.12366 7.36099 6.77065
#
# Compressibility (1/GPa) = 0.01816470
#
# Stress axis : x y z
#
# Youngs Moduli (GPa) = 157.86607 56.90908 42.03520
#
# Poissons Ratio (x) = 0.27448 0.05134
# Poissons Ratio (y) = 0.76140 0.36660
# Poissons Ratio (z) = 0.19281 0.49632
#
# Static dielectric constant tensor:
#      x y z
#    x 1.976450 0.000000 0.009610 
#    y 0.000000 1.968370 0.000000 
#    z 0.009610 0.000000 1.970820 
# 
# From -- ./inp_files/35481.got.cif
#   From: 2010.05.17/outbox.cif.g08.bks.cpg/sg15_18_cif.got.tgz:35481.got - 2010.06.03 18:47:42.
