data_PCOD9299237
_publ_section_title
;
Structure prediction by ZEFSAII (Michael W. Deem and Ramdas Pophale) SiO2 
 PCOD9299237
Probable space group: C 2/C
;
_chemical_formula_sum "Si O2"
_cell_formula_units_Z 40
_cell_length_a 13.006984
_cell_length_b 19.711798
_cell_length_c 12.041625
_cell_angle_alpha 90.000000
_cell_angle_beta 34.236417
_cell_angle_gamma 90.000000
_cell_volume 1736.979064
_symmetry_space_group_name_H-M "C 2/C"
_symmetry_group_IT_number 15
_symmetry_cell_setting 'monoclinic'
loop_
_space_group_symop_operation_xyz
x,y,z
-x,y,1/2-z
-x,-y,-z
x,-y,1/2+z
1/2+x,1/2+y,z
1/2-x,1/2+y,1/2-z
1/2-x,1/2-y,-z
1/2+x,1/2-y,1/2+z
loop_
_atom_site_type_symbol
_atom_site_label
_atom_site_fract_x
_atom_site_fract_y
_atom_site_fract_z
Si Si1 0.000000 0.408268 0.250000
Si Si2 0.500000 0.000000 0.500000
Si Si3 0.345874 0.192565 0.705543
Si Si4 0.070047 0.837721 0.890724
Si Si5 0.335705 0.473848 0.825294
Si Si6 0.925916 0.638671 0.193218
O O1 0.058870 0.361797 0.299144
O O2 0.832296 0.452705 0.443499
O O3 0.724041 0.986182 0.331190
O O4 0.555887 0.063681 0.373617
O O5 0.370285 0.269167 0.727570
O O6 0.450980 0.186232 0.495747
O O7 0.135632 0.172915 0.887777
O O8 0.089837 0.904062 0.796096
O O9 0.215179 0.842429 0.860980
O O10 0.500000 0.505334 0.750000
O O11 0.000000 0.641440 0.250000
#
# Coordination Sequence:
#
# PCOD9299237 Si02
#       6
#     4   4   8   8   8   8
#     4  12  22  38  70 102 138 172 224 282 348 402
#     4  10  24  48  66  98 134 174 242 282 334 408
#     4  12  23  41  69 103 139 181 219 283 342 413
#     4  11  23  43  66 104 140 174 231 272 349 412
#     4  11  23  42  68 101 134 181 223 292 347 405
#     4  11  26  47  68  97 139 181 228 285 335 411
#
# _framework density 23.028487999999999
#
# number of rings (size 3 to 8) (size 9 to 14) (size 15 to 20)
#    0.000    0.800    8.000    0.000    2.800    3.200 
#    3.600    3.000    0.000    0.000    0.000    0.000 
#    0.000    0.000    0.000    0.000    0.000    0.000 
#
# Total GULP energy -111386.009740 kJ/mol
# GULP energy per Si atom -5569.300487 kJ/mol
# Density = 2.297607 g / cm^3
# Si number density = 23.028488 Si / 1000 Ang^3
#
#
#
# Elastic Constant Matrix: (Units=GPa)
#
#
# Indices 1 2 3 4 5 6 
#
# 1 121.7806 18.9978 60.4815 -0.0026 -40.1132 0.0000
# 2 18.9978 26.8190 17.2359 0.0061 -1.6048 -0.0011
# 3 60.4815 17.2359 86.1863 0.0007 -36.1078 0.0057
# 4 -0.0026 0.0061 0.0007 38.0789 0.0015 -19.6817
# 5 -40.1132 -1.6048 -36.1078 0.0015 55.0786 -0.0022
# 6 0.0000 -0.0011 0.0057 -19.6817 -0.0022 22.8095
#
#
#
# Elastic Compliance Matrix: (Units=1/GPa)
#
#
# Indices 1 2 3 4 5 6 
#
# 1 0.014224 -0.005656 -0.006314 0.000005 0.006055 0.000006
# 2 -0.005656 0.046531 -0.008953 -0.000010 -0.008633 -0.000005
# 3 -0.006314 -0.008953 0.021766 -0.000004 0.009410 -0.000009
# 4 0.000005 -0.000010 -0.000004 0.047402 0.000001 0.040902
# 5 0.006055 -0.008633 0.009410 0.000001 0.028483 0.000001
# 6 0.000006 -0.000005 -0.000009 0.040902 0.000001 0.079135
#
#
# Mechanical properties :
#
#
# Convention : Reuss Voigt Hill
#
# Bulk Modulus (GPa) = 24.58473 47.57961 36.08217
# Shear Modulus (GPa) = 17.06798 32.39810 24.73304
#
# Velocity S-wave (km/s) = 2.72539 3.75490 3.28078
# Velocity P-wave (km/s) = 4.53902 6.28530 5.48214
#
# Compressibility (1/GPa) = 0.04067566
#
# Stress axis : x y z
#
# Youngs Moduli (GPa) = 70.30323 21.49114 45.94228
#
# Poissons Ratio (x) = 0.12155 0.29007
# Poissons Ratio (y) = 0.39763 0.41133
# Poissons Ratio (z) = 0.44388 0.19241
#
# Static dielectric constant tensor:
#      x y z
#    x 1.971960 0.000000 0.030460 
#    y 0.000000 1.971200 0.000010 
#    z 0.030460 0.000010 1.858130 
# 
# From -- ./inp_files/90595.got.cif
#   From: 2010.05.17/outbox.cif.g08.bks.cpg/sg15_46_cif.got.tgz:90595.got - 2010.06.03 18:47:42.
