data_PCOD9299227
_publ_section_title
;
Structure prediction by ZEFSAII (Michael W. Deem and Ramdas Pophale) SiO2 
 PCOD9299227
Probable space group: C 2/C
;
_chemical_formula_sum "Si O2"
_cell_formula_units_Z 40
_cell_length_a 23.110417
_cell_length_b 8.817479
_cell_length_c 18.463247
_cell_angle_alpha 90.000000
_cell_angle_beta 24.931063
_cell_angle_gamma 90.000000
_cell_volume 1585.938037
_symmetry_space_group_name_H-M "C 2/C"
_symmetry_group_IT_number 15
_symmetry_cell_setting 'monoclinic'
loop_
_space_group_symop_operation_xyz
x,y,z
-x,y,1/2-z
-x,-y,-z
x,-y,1/2+z
1/2+x,1/2+y,z
1/2-x,1/2+y,1/2-z
1/2-x,1/2-y,-z
1/2+x,1/2-y,1/2+z
loop_
_atom_site_type_symbol
_atom_site_label
_atom_site_fract_x
_atom_site_fract_y
_atom_site_fract_z
Si Si1 0.869675 0.929176 0.990547
Si Si2 0.208046 0.385371 0.317282
Si Si3 0.823393 0.572551 0.394667
Si Si4 0.595069 0.086298 0.555708
Si Si5 0.052104 0.178077 0.844081
O O1 0.753812 0.912282 0.183881
O O2 0.816710 0.033177 0.985742
O O3 0.892070 0.759600 0.938021
O O4 0.998064 0.013152 0.881695
O O5 0.162956 0.546668 0.402586
O O6 0.080869 0.272919 0.477423
O O7 0.338631 0.330874 0.215627
O O8 0.836568 0.529745 0.463870
O O9 0.936106 0.455805 0.234302
O O10 0.879766 0.732635 0.301351
#
# Coordination Sequence:
#
# PCOD9299227 Si02
#       5
#     8   8   8   8   8
#     4  12  24  43  75 102 139 185 234 284 352 408
#     4  11  25  44  71 106 143 181 234 288 345 415
#     4  10  24  48  65 101 141 186 232 287 345 412
#     4  10  25  44  68 101 146 175 234 289 348 414
#     4  11  24  46  70 105 139 188 233 286 344 417
#
# _framework density 25.221665000000002
#
# number of rings (size 3 to 8) (size 9 to 14) (size 15 to 20)
#    0.000    1.200    2.000    2.400    5.600    2.400 
#    7.200    0.000    0.000    0.000    0.000    0.000 
#    0.000    0.000    0.000    0.000    0.000    0.000 
#
# Total GULP energy -112142.154163 kJ/mol
# GULP energy per Si atom -5607.107708 kJ/mol
# Density = 2.516426 g / cm^3
# Si number density = 25.221665 Si / 1000 Ang^3
#
#
#
# Elastic Constant Matrix: (Units=GPa)
#
#
# Indices 1 2 3 4 5 6 
#
# 1 103.1921 13.6254 31.4624 0.0000 -4.9290 0.0000
# 2 13.6254 119.3474 33.3276 -0.0005 6.3190 0.0003
# 3 31.4624 33.3276 65.7688 -0.0002 7.9387 0.0001
# 4 0.0000 -0.0005 -0.0002 10.6560 0.0001 19.7905
# 5 -4.9290 6.3190 7.9387 0.0001 50.6537 -0.0001
# 6 0.0000 0.0003 0.0001 19.7905 -0.0001 21.8880
#
#
#
# Elastic Compliance Matrix: (Units=1/GPa)
#
#
# Indices 1 2 3 4 5 6 
#
# 1 0.011551 0.000216 -0.005879 0.000000 0.002018 0.000000
# 2 0.000216 0.009774 -0.005006 -0.000001 -0.000414 0.000001
# 3 -0.005879 -0.005006 0.020944 0.000000 -0.003230 0.000000
# 4 0.000000 -0.000001 0.000000 -0.138157 0.000001 0.124918
# 5 0.002018 -0.000414 -0.003230 0.000001 0.020496 0.000000
# 6 0.000000 0.000001 0.000000 0.124918 0.000000 -0.067261
#
#
# Mechanical properties :
#
#
# Convention : Reuss Voigt Hill
#
# Bulk Modulus (GPa) = 47.77675 49.45990 48.61832
# Shear Modulus (GPa) = -43.73005 30.63241 -6.54882
#
# Velocity S-wave (km/s) = -4.16844 3.48879 -1.61312
# Velocity P-wave (km/s) = 2.04549 5.99012 3.98105
#
# Compressibility (1/GPa) = 0.02093068
#
# Stress axis : x y z
#
# Youngs Moduli (GPa) = 86.57297 102.31065 47.74668
#
# Poissons Ratio (x) = -0.02211 0.28070
# Poissons Ratio (y) = -0.01871 0.23904
# Poissons Ratio (z) = 0.50895 0.51220
#
# Static dielectric constant tensor:
#      x y z
#    x 1.919750 0.000000 0.017390 
#    y 0.000000 1.972940 0.000000 
#    z 0.017390 0.000000 2.021430 
# 
# From -- ./inp_files/218770.got.cif
#   From: 2010.05.17/outbox.cif.g08.bks.cpg/sg15_110_cif.got.tgz:218770.got - 2010.06.03 18:47:42.
