data_PCOD9299610
_publ_section_title
;
Structure prediction by ZEFSAII (Michael W. Deem and Ramdas Pophale) SiO2 
 PCOD9299610
Probable space group: C 2/C
;
_chemical_formula_sum "Si O2"
_cell_formula_units_Z 52
_cell_length_a 6.119517
_cell_length_b 27.088920
_cell_length_c 17.693291
_cell_angle_alpha 90.000000
_cell_angle_beta 128.315213
_cell_angle_gamma 90.000000
_cell_volume 2301.294934
_symmetry_space_group_name_H-M "C 2/C"
_symmetry_group_IT_number 15
_symmetry_cell_setting 'monoclinic'
loop_
_space_group_symop_operation_xyz
x,y,z
-x,y,1/2-z
-x,-y,-z
x,-y,1/2+z
1/2+x,1/2+y,z
1/2-x,1/2+y,1/2-z
1/2-x,1/2-y,-z
1/2+x,1/2-y,1/2+z
loop_
_atom_site_type_symbol
_atom_site_label
_atom_site_fract_x
_atom_site_fract_y
_atom_site_fract_z
Si Si1 0.316713 0.765614 0.352313
Si Si2 0.328041 0.489178 0.791670
Si Si3 0.664414 0.163254 0.362522
Si Si4 0.000000 0.682124 0.750000
Si Si5 0.919671 0.079912 0.036578
Si Si6 0.904174 0.093419 0.863858
Si Si7 0.463489 0.849382 0.502940
O O1 0.363261 0.710496 0.392909
O O2 0.505570 0.783255 0.323724
O O3 0.375157 0.804658 0.430156
O O4 0.000000 0.767464 0.250000
O O5 0.500000 0.473113 0.750000
O O6 0.522799 0.467930 0.901123
O O7 0.343004 0.548432 0.795771
O O8 0.000000 0.477519 0.750000
O O9 0.500000 0.159800 0.250000
O O10 0.502459 0.172068 0.405545
O O11 0.794213 0.110126 0.404939
O O12 0.746946 0.643531 0.693503
O O13 0.811827 0.075199 0.927944
O O14 0.730654 0.119913 0.037587
O O15 0.221575 0.109728 0.939615
#
# Coordination Sequence:
#
# PCOD9299610 Si02
#       7
#     8   8   8   4   8   8   8
#     4  11  23  41  68 102 140 183 236 294 362 435
#     4  12  30  48  78 108 145 194 246 302 370 448
#     4  10  25  44  67  97 141 188 242 293 359 435
#     4  12  22  42  70 104 138 186 240 296 376 430
#     4  11  26  46  70 100 144 186 239 297 366 440
#     4  11  25  45  72 101 141 182 238 303 367 439
#     4  11  24  42  71 102 143 184 234 300 365 441
#
# _framework density 22.595973000000001
#
# number of rings (size 3 to 8) (size 9 to 14) (size 15 to 20)
#    0.000    0.923    3.846    1.385   10.769    3.692 
#    0.000    0.000    0.000    0.000    0.000    0.000 
#    0.000    0.000    0.000    0.000    0.000    0.000 
#
# Total GULP energy -144963.240782 kJ/mol
# GULP energy per Si atom -5575.509261 kJ/mol
# Density = 2.254454 g / cm^3
# Si number density = 22.595973 Si / 1000 Ang^3
#
#
#
# Elastic Constant Matrix: (Units=GPa)
#
#
# Indices 1 2 3 4 5 6 
#
# 1 49.8136 9.0417 23.5524 0.0000 -23.0221 0.0000
# 2 9.0417 59.2088 -8.8721 0.0000 -4.5024 0.0000
# 3 23.5524 -8.8721 69.4530 0.0000 -21.9580 0.0000
# 4 0.0000 0.0000 0.0000 41.4852 0.0000 -13.7880
# 5 -23.0221 -4.5024 -21.9580 0.0000 33.5335 0.0000
# 6 0.0000 0.0000 0.0000 -13.7880 0.0000 176.4401
#
#
#
# Elastic Compliance Matrix: (Units=1/GPa)
#
#
# Indices 1 2 3 4 5 6 
#
# 1 0.031619 -0.004382 -0.005807 0.000000 0.017317 0.000000
# 2 -0.004382 0.018443 0.004633 0.000000 0.002501 0.000000
# 3 -0.005807 0.004633 0.020045 0.000000 0.009761 0.000000
# 4 0.000000 0.000000 0.000000 0.024748 0.000000 0.001934
# 5 0.017317 0.002501 0.009761 0.000000 0.048437 0.000000
# 6 0.000000 0.000000 0.000000 0.001934 0.000000 0.005819
#
#
# Mechanical properties :
#
#
# Convention : Reuss Voigt Hill
#
# Bulk Modulus (GPa) = 16.95078 25.10215 21.02647
# Shear Modulus (GPa) = 27.79493 60.60867 44.20180
#
# Velocity S-wave (km/s) = 3.51106 5.18469 4.42767
# Velocity P-wave (km/s) = 4.89435 6.85380 5.95522
#
# Compressibility (1/GPa) = 0.05899433
#
# Stress axis : x y z
#
# Youngs Moduli (GPa) = 31.62631 54.22126 49.88694
#
# Poissons Ratio (x) = 0.23760 0.28971
# Poissons Ratio (y) = 0.13859 -0.23111
# Poissons Ratio (z) = 0.18367 -0.25119
#
# Static dielectric constant tensor:
#      x y z
#    x 1.989490 0.000000 0.008210 
#    y 0.000000 1.790440 0.000000 
#    z 0.008210 0.000000 1.867950 
# 
# From -- ./inp_files/186035.got.cif
#   From: 2010.05.17/outbox.cif.g08.bks.cpg/sg15_94_cif.got.tgz:186035.got - 2010.06.03 18:47:42.
