data_PCOD9299292
_publ_section_title
;
Structure prediction by ZEFSAII (Michael W. Deem and Ramdas Pophale) SiO2 
 PCOD9299292
Probable space group: C 2/C
;
_chemical_formula_sum "Si O2"
_cell_formula_units_Z 40
_cell_length_a 9.206263
_cell_length_b 27.452077
_cell_length_c 15.472025
_cell_angle_alpha 90.000000
_cell_angle_beta 147.641201
_cell_angle_gamma 90.000000
_cell_volume 2092.847951
_symmetry_space_group_name_H-M "C 2/C"
_symmetry_group_IT_number 15
_symmetry_cell_setting 'monoclinic'
loop_
_space_group_symop_operation_xyz
x,y,z
-x,y,1/2-z
-x,-y,-z
x,-y,1/2+z
1/2+x,1/2+y,z
1/2-x,1/2+y,1/2-z
1/2-x,1/2-y,-z
1/2+x,1/2-y,1/2+z
loop_
_atom_site_type_symbol
_atom_site_label
_atom_site_fract_x
_atom_site_fract_y
_atom_site_fract_z
Si Si1 0.004916 0.778810 0.920994
Si Si2 0.317497 0.452345 0.906799
Si Si3 0.490617 0.284598 0.377234
Si Si4 0.822162 0.109660 0.582683
Si Si5 0.676989 0.618446 0.254142
O O1 0.753214 0.741834 0.793551
O O2 0.909650 0.827649 0.823134
O O3 0.250000 0.750000 0.000000
O O4 0.079406 0.790562 0.056847
O O5 0.369209 0.419090 0.848157
O O6 0.000000 0.466054 0.750000
O O7 0.500000 0.500000 0.000000
O O8 0.362083 0.420707 0.015337
O O9 0.561643 0.336826 0.376052
O O10 0.750000 0.250000 0.500000
O O11 0.499132 0.115313 0.437128
O O12 0.000000 0.087919 0.750000
O O13 0.500000 0.607257 0.250000
#
# Coordination Sequence:
#
# PCOD9299292 Si02
#       5
#     8   8   8   8   8
#     4  12  25  41  58  95 135 174 220 266 320 388
#     4  10  24  48  73  97 130 172 221 276 333 387
#     4  12  23  39  64  91 131 176 220 260 317 392
#     4  11  24  43  67  98 131 173 220 268 327 394
#     4  11  24  44  66  95 137 172 215 274 327 387
#
# _framework density 19.112711000000001
#
# number of rings (size 3 to 8) (size 9 to 14) (size 15 to 20)
#    0.000    0.800    4.000    3.600    2.800    2.400 
#    0.000    4.000    0.000    0.000    0.000    0.000 
#    0.000    0.000    0.000    0.000    0.000    0.000 
#
# Total GULP energy -111849.870868 kJ/mol
# GULP energy per Si atom -5592.493543 kJ/mol
# Density = 1.906921 g / cm^3
# Si number density = 19.112711 Si / 1000 Ang^3
#
#
#
# Elastic Constant Matrix: (Units=GPa)
#
#
# Indices 1 2 3 4 5 6 
#
# 1 159.2563 61.8651 60.6990 0.0000 -8.4269 0.0000
# 2 61.8651 126.6412 67.3831 0.0000 17.0896 0.0000
# 3 60.6990 67.3831 111.0383 0.0000 -11.7764 0.0000
# 4 0.0000 0.0000 0.0000 33.4399 0.0000 10.2219
# 5 -8.4269 17.0896 -11.7764 0.0000 34.0647 0.0000
# 6 0.0000 0.0000 0.0000 10.2219 0.0000 21.9568
#
#
#
# Elastic Compliance Matrix: (Units=1/GPa)
#
#
# Indices 1 2 3 4 5 6 
#
# 1 0.008650 -0.003378 -0.002358 0.000000 0.003019 0.000000
# 2 -0.003378 0.016058 -0.009177 0.000000 -0.012064 0.000000
# 3 -0.002358 -0.009177 0.016911 0.000000 0.009867 0.000000
# 4 0.000000 0.000000 0.000000 0.034866 0.000000 -0.016232
# 5 0.003019 -0.012064 0.009867 0.000000 0.039566 0.000000
# 6 0.000000 0.000000 0.000000 -0.016232 0.000000 0.053101
#
#
# Mechanical properties :
#
#
# Convention : Reuss Voigt Hill
#
# Bulk Modulus (GPa) = 84.81179 86.31448 85.56313
# Shear Modulus (GPa) = 24.64156 31.69153 28.16655
#
# Velocity S-wave (km/s) = 3.59454 4.07644 3.84305
# Velocity P-wave (km/s) = 7.85484 8.21068 8.03473
#
# Compressibility (1/GPa) = 0.01179081
#
# Stress axis : x y z
#
# Youngs Moduli (GPa) = 115.60517 62.27547 59.13444
#
# Poissons Ratio (x) = 0.21039 0.13945
# Poissons Ratio (y) = 0.39056 0.54269
# Poissons Ratio (z) = 0.27262 0.57152
#
# Static dielectric constant tensor:
#      x y z
#    x 1.702520 0.000000 -0.028730 
#    y 0.000000 1.628890 0.000000 
#    z -0.028730 0.000000 1.663420 
# 
# From -- ./inp_files/25353.got.cif
#   From: 2010.05.17/outbox.cif.g08.bks.cpg/sg15_13_cif.got.tgz:25353.got - 2010.06.03 18:47:42.
