data_PCOD9299429
_publ_section_title
;
Structure prediction by ZEFSAII (Michael W. Deem and Ramdas Pophale) SiO2 
 PCOD9299429
Probable space group: C 2/C
;
_chemical_formula_sum "Si O2"
_cell_formula_units_Z 40
_cell_length_a 17.851049
_cell_length_b 8.676838
_cell_length_c 9.871729
_cell_angle_alpha 90.000000
_cell_angle_beta 81.128913
_cell_angle_gamma 90.000000
_cell_volume 1510.747974
_symmetry_space_group_name_H-M "C 2/C"
_symmetry_group_IT_number 15
_symmetry_cell_setting 'monoclinic'
loop_
_space_group_symop_operation_xyz
x,y,z
-x,y,1/2-z
-x,-y,-z
x,-y,1/2+z
1/2+x,1/2+y,z
1/2-x,1/2+y,1/2-z
1/2-x,1/2-y,-z
1/2+x,1/2-y,1/2+z
loop_
_atom_site_type_symbol
_atom_site_label
_atom_site_fract_x
_atom_site_fract_y
_atom_site_fract_z
Si Si1 0.324109 0.743848 0.069364
Si Si2 0.396303 0.987622 0.898116
Si Si3 0.000000 0.767467 0.250000
Si Si4 0.000000 0.257553 0.250000
Si Si5 0.245868 0.670368 0.647656
Si Si6 0.902117 0.995047 0.135244
O O1 0.290083 0.721761 0.228397
O O2 0.373296 0.593995 0.014151
O O3 0.250000 0.750000 0.000000
O O4 0.371811 0.902869 0.044447
O O5 0.433119 0.846467 0.808917
O O6 0.455880 0.129148 0.868476
O O7 0.317808 0.041101 0.856094
O O8 0.969040 0.872679 0.135678
O O9 0.062993 0.140729 0.291016
O O10 0.250000 0.750000 0.500000
O O11 0.325858 0.605510 0.677979
#
# Coordination Sequence:
#
# PCOD9299429 Si02
#       6
#     8   8   4   4   8   8
#     4  12  26  47  83 122 157 210 282 339 397 483
#     4  11  25  49  80 118 164 216 270 327 417 479
#     4  10  26  50  80 122 170 220 258 350 408 492
#     4  10  24  52  78 124 172 214 258 348 410 492
#     4  12  29  52  84 114 163 215 277 340 401 483
#     4  11  25  50  81 117 169 212 278 327 419 482
#
# _framework density 26.476949999999999
#
# number of rings (size 3 to 8) (size 9 to 14) (size 15 to 20)
#    0.000    0.800    4.000    1.200    2.800    3.200 
#    3.600    0.000    0.000    0.000    0.000    0.000 
#    0.000    0.000    0.000    0.000    0.000    0.000 
#
# Total GULP energy -111667.897476 kJ/mol
# GULP energy per Si atom -5583.394874 kJ/mol
# Density = 2.641669 g / cm^3
# Si number density = 26.476950 Si / 1000 Ang^3
#
#
#
# Elastic Constant Matrix: (Units=GPa)
#
#
# Indices 1 2 3 4 5 6 
#
# 1 237.8971 90.1968 37.4392 0.0000 -4.3365 0.0000
# 2 90.1968 169.0335 47.9788 0.0000 -5.5270 0.0000
# 3 37.4392 47.9788 112.2837 0.0000 -15.1367 0.0000
# 4 0.0000 0.0000 0.0000 36.5012 0.0000 11.5991
# 5 -4.3365 -5.5270 -15.1367 0.0000 35.8765 0.0000
# 6 0.0000 0.0000 0.0000 11.5991 0.0000 70.1300
#
#
#
# Elastic Compliance Matrix: (Units=1/GPa)
#
#
# Indices 1 2 3 4 5 6 
#
# 1 0.005309 -0.002652 -0.000642 0.000000 -0.000038 0.000000
# 2 -0.002652 0.008058 -0.002582 0.000000 -0.000168 0.000000
# 3 -0.000642 -0.002582 0.010772 0.000000 0.004069 0.000000
# 4 0.000000 0.000000 0.000000 0.028916 0.000000 -0.004783
# 5 -0.000038 -0.000168 0.004069 0.000000 0.029560 0.000000
# 6 0.000000 0.000000 0.000000 -0.004783 0.000000 0.015050
#
#
# Mechanical properties :
#
#
# Convention : Reuss Voigt Hill
#
# Bulk Modulus (GPa) = 80.72534 96.71600 88.72067
# Shear Modulus (GPa) = 44.03452 51.40817 47.72134
#
# Velocity S-wave (km/s) = 4.08257 4.41116 4.25004
# Velocity P-wave (km/s) = 7.26486 7.90899 7.59376
#
# Compressibility (1/GPa) = 0.01238768
#
# Stress axis : x y z
#
# Youngs Moduli (GPa) = 188.34581 124.09346 92.83388
#
# Poissons Ratio (x) = 0.32910 0.05962
# Poissons Ratio (y) = 0.49950 0.23968
# Poissons Ratio (z) = 0.12096 0.32038
#
# Static dielectric constant tensor:
#      x y z
#    x 2.124260 0.000000 -0.000410 
#    y 0.000000 2.161620 0.000000 
#    z -0.000410 0.000000 2.192060 
# 
# From -- ./inp_files/102751.got.cif
#   From: 2010.05.17/outbox.cif.g08.bks.cpg/sg15_52_cif.got.tgz:102751.got - 2010.06.03 18:47:42.
