data_PCOD9299777
_publ_section_title
;
Structure prediction by ZEFSAII (Michael W. Deem and Ramdas Pophale) SiO2 
 PCOD9299777
Probable space group: C 2/C
;
_chemical_formula_sum "Si O2"
_cell_formula_units_Z 40
_cell_length_a 7.625605
_cell_length_b 10.447184
_cell_length_c 23.042679
_cell_angle_alpha 90.000000
_cell_angle_beta 109.206492
_cell_angle_gamma 90.000000
_cell_volume 1733.542492
_symmetry_space_group_name_H-M "C 2/C"
_symmetry_group_IT_number 15
_symmetry_cell_setting 'monoclinic'
loop_
_space_group_symop_operation_xyz
x,y,z
-x,y,1/2-z
-x,-y,-z
x,-y,1/2+z
1/2+x,1/2+y,z
1/2-x,1/2+y,1/2-z
1/2-x,1/2-y,-z
1/2+x,1/2-y,1/2+z
loop_
_atom_site_type_symbol
_atom_site_label
_atom_site_fract_x
_atom_site_fract_y
_atom_site_fract_z
Si Si1 0.695317 0.039054 0.992353
Si Si2 0.195687 0.682070 0.190052
Si Si3 0.723919 0.115948 0.387685
Si Si4 0.278139 0.049595 0.723383
Si Si5 0.587673 0.719855 0.403190
O O1 0.761057 0.924856 0.957920
O O2 0.664428 0.157057 0.944848
O O3 0.500000 0.000000 0.000000
O O4 0.836633 0.093156 0.055394
O O5 0.261814 0.563607 0.235888
O O6 0.336418 0.709492 0.153122
O O7 0.991690 0.650229 0.143084
O O8 0.185270 0.814372 0.224252
O O9 0.766060 0.003975 0.345596
O O10 0.866404 0.225509 0.384719
O O11 0.500000 0.067974 0.750000
#
# Coordination Sequence:
#
# PCOD9299777 Si02
#       5
#     8   8   8   8   8
#     4  11  23  45  69 103 141 179 235 289 342 419
#     4  11  24  49  69 103 142 182 235 290 349 417
#     4  11  24  45  69 104 135 183 236 282 346 420
#     4  10  25  46  70 101 141 180 237 291 340 420
#     4  11  25  43  72  98 140 187 224 290 352 410
#
# _framework density 23.074138999999999
#
# number of rings (size 3 to 8) (size 9 to 14) (size 15 to 20)
#    0.000    1.200    4.000    0.600    2.800    2.400 
#   10.800    0.000    0.000    0.000    0.000    0.000 
#    0.000    0.000    0.000    0.000    0.000    0.000 
#
# Total GULP energy -111946.356764 kJ/mol
# GULP energy per Si atom -5597.317838 kJ/mol
# Density = 2.302162 g / cm^3
# Si number density = 23.074139 Si / 1000 Ang^3
#
#
#
# Elastic Constant Matrix: (Units=GPa)
#
#
# Indices 1 2 3 4 5 6 
#
# 1 76.6272 -0.8487 14.4079 0.0000 -31.7942 0.0000
# 2 -0.8487 87.1801 24.3362 0.0000 -15.7737 0.0000
# 3 14.4079 24.3362 85.6377 0.0000 -25.7461 0.0000
# 4 0.0000 0.0000 0.0000 14.9727 0.0000 2.2384
# 5 -31.7942 -15.7737 -25.7461 0.0000 32.1922 0.0000
# 6 0.0000 0.0000 0.0000 2.2384 0.0000 28.7949
#
#
#
# Elastic Compliance Matrix: (Units=1/GPa)
#
#
# Indices 1 2 3 4 5 6 
#
# 1 0.024593 0.004592 0.003339 0.000000 0.029209 0.000000
# 2 0.004592 0.013788 -0.001706 0.000000 0.009926 0.000000
# 3 0.003339 -0.001706 0.016247 0.000000 0.015455 0.000000
# 4 0.000000 0.000000 0.000000 0.067574 0.000000 -0.005253
# 5 0.029209 0.009926 0.015455 0.000000 0.077136 0.000000
# 6 0.000000 0.000000 0.000000 -0.005253 0.000000 0.035137
#
#
# Mechanical properties :
#
#
# Convention : Reuss Voigt Hill
#
# Bulk Modulus (GPa) = 14.90833 36.13731 25.52282
# Shear Modulus (GPa) = 20.45972 29.29526 24.87749
#
# Velocity S-wave (km/s) = 2.98097 3.56703 3.28709
# Velocity P-wave (km/s) = 4.28058 5.71492 5.04894
#
# Compressibility (1/GPa) = 0.06707658
#
# Stress axis : x y z
#
# Youngs Moduli (GPa) = 40.66226 72.52907 61.55104
#
# Poissons Ratio (x) = -0.33307 -0.20551
# Poissons Ratio (y) = -0.18673 0.10503
# Poissons Ratio (z) = -0.13577 0.12377
#
# Static dielectric constant tensor:
#      x y z
#    x 1.849950 0.000000 0.013190 
#    y 0.000000 1.895510 0.000000 
#    z 0.013190 0.000000 1.864730 
# 
# From -- ./inp_files/262556.got.cif
#   From: 2010.05.17/outbox.cif.g08.bks.cpg/sg15_132_cif.got.tgz:262556.got - 2010.06.03 18:47:42.
