data_PCOD9299930
_publ_section_title
;
Structure prediction by ZEFSAII (Michael W. Deem and Ramdas Pophale) SiO2 
 PCOD9299930
Probable space group: C 2/C
;
_chemical_formula_sum "Si O2"
_cell_formula_units_Z 52
_cell_length_a 7.721231
_cell_length_b 29.340188
_cell_length_c 14.672651
_cell_angle_alpha 90.000000
_cell_angle_beta 38.115241
_cell_angle_gamma 90.000000
_cell_volume 2051.708863
_symmetry_space_group_name_H-M "C 2/C"
_symmetry_group_IT_number 15
_symmetry_cell_setting 'monoclinic'
loop_
_space_group_symop_operation_xyz
x,y,z
-x,y,1/2-z
-x,-y,-z
x,-y,1/2+z
1/2+x,1/2+y,z
1/2-x,1/2+y,1/2-z
1/2-x,1/2-y,-z
1/2+x,1/2-y,1/2+z
loop_
_atom_site_type_symbol
_atom_site_label
_atom_site_fract_x
_atom_site_fract_y
_atom_site_fract_z
Si Si1 0.254303 0.402080 0.473603
Si Si2 0.000000 0.663551 0.750000
Si Si3 0.352694 0.095982 0.965866
Si Si4 0.282365 0.189259 0.413676
Si Si5 0.799044 0.752840 0.146737
Si Si6 0.000000 0.948459 0.750000
Si Si7 0.500000 0.951911 0.750000
Si Si8 0.243065 0.977273 0.251924
O O1 0.334305 0.352161 0.477416
O O2 0.504805 0.438333 0.353603
O O3 0.074269 0.394483 0.456213
O O4 0.077548 0.423381 0.629410
O O5 0.155700 0.632424 0.611362
O O6 0.167939 0.700539 0.742632
O O7 0.471455 0.050532 0.871115
O O8 0.072173 0.083830 0.135910
O O9 0.500000 0.170377 0.250000
O O10 0.494709 0.221086 0.383272
O O11 0.024844 0.221574 0.485176
O O12 0.500000 0.728139 0.250000
O O13 0.763460 0.986722 0.829513
O O14 0.753365 0.986414 0.668752
#
# Coordination Sequence:
#
# PCOD9299930 Si02
#       8
#     8   4   8   8   8   4   4   8
#     4  12  25  45  72 112 153 197 259 326 377 467
#     4  10  25  48  77 110 150 204 268 309 401 480
#     4  12  25  46  71 110 150 203 257 321 374 459
#     4  11  24  46  79 112 156 203 257 329 407 468
#     4   9  24  50  74 110 150 201 256 322 401 492
#     4  12  24  44  71 102 157 203 254 319 378 440
#     4  12  25  44  70 110 149 209 248 318 385 454
#     4  12  24  44  71 101 156 202 259 304 385 458
#
# _framework density 25.344728
#
# number of rings (size 3 to 8) (size 9 to 14) (size 15 to 20)
#    0.462    0.308    3.846    3.231    0.000    6.769 
#    4.154    0.000    0.000    0.000    0.000    0.000 
#    0.000    0.000    0.000    0.000    0.000    0.000 
#
# Total GULP energy -144833.789622 kJ/mol
# GULP energy per Si atom -5570.530370 kJ/mol
# Density = 2.528704 g / cm^3
# Si number density = 25.344728 Si / 1000 Ang^3
#
#
#
# Elastic Constant Matrix: (Units=GPa)
#
#
# Indices 1 2 3 4 5 6 
#
# 1 94.7372 44.2758 23.9051 0.0000 -4.5494 0.0000
# 2 44.2758 132.4849 40.4721 0.0000 13.8298 0.0000
# 3 23.9051 40.4721 113.2139 0.0000 3.6388 0.0000
# 4 0.0000 0.0000 0.0000 23.6150 0.0000 -10.4039
# 5 -4.5494 13.8298 3.6388 0.0000 39.6599 0.0000
# 6 0.0000 0.0000 0.0000 -10.4039 0.0000 28.1367
#
#
#
# Elastic Compliance Matrix: (Units=1/GPa)
#
#
# Indices 1 2 3 4 5 6 
#
# 1 0.013038 -0.004277 -0.001324 0.000000 0.003109 0.000000
# 2 -0.004277 0.010172 -0.002611 0.000000 -0.003798 0.000000
# 3 -0.001324 -0.002611 0.010051 0.000000 -0.000164 0.000000
# 4 0.000000 0.000000 0.000000 0.050587 0.000000 0.018705
# 5 0.003109 -0.003798 -0.000164 0.000000 0.026910 0.000000
# 6 0.000000 0.000000 0.000000 0.018705 0.000000 0.042457
#
#
# Mechanical properties :
#
#
# Convention : Reuss Voigt Hill
#
# Bulk Modulus (GPa) = 59.39536 61.97134 60.68335
# Shear Modulus (GPa) = 28.53056 33.73452 31.13254
#
# Velocity S-wave (km/s) = 3.35879 3.65228 3.50860
# Velocity P-wave (km/s) = 6.20708 6.50308 6.35680
#
# Compressibility (1/GPa) = 0.01683633
#
# Stress axis : x y z
#
# Youngs Moduli (GPa) = 76.69993 98.31351 99.49276
#
# Poissons Ratio (x) = 0.42051 0.13171
# Poissons Ratio (y) = 0.32807 0.25977
# Poissons Ratio (z) = 0.10153 0.25669
#
# Static dielectric constant tensor:
#      x y z
#    x 2.229580 0.000000 -0.091450 
#    y 0.000000 1.939760 0.000000 
#    z -0.091450 0.000000 2.101180 
# 
# From -- ./inp_files/139749.got.cif
#   From: 2010.05.17/outbox.cif.g08.bks.cpg/sg15_70_cif.got.tgz:139749.got - 2010.06.03 18:47:42.
