data_PCOD9299232
_publ_section_title
;
Structure prediction by ZEFSAII (Michael W. Deem and Ramdas Pophale) SiO2 
 PCOD9299232
Probable space group: C 2/C
;
_chemical_formula_sum "Si O2"
_cell_formula_units_Z 52
_cell_length_a 17.928497
_cell_length_b 14.775404
_cell_length_c 13.964611
_cell_angle_alpha 90.000000
_cell_angle_beta 42.895936
_cell_angle_gamma 90.000000
_cell_volume 2517.955223
_symmetry_space_group_name_H-M "C 2/C"
_symmetry_group_IT_number 15
_symmetry_cell_setting 'monoclinic'
loop_
_space_group_symop_operation_xyz
x,y,z
-x,y,1/2-z
-x,-y,-z
x,-y,1/2+z
1/2+x,1/2+y,z
1/2-x,1/2+y,1/2-z
1/2-x,1/2-y,-z
1/2+x,1/2-y,1/2+z
loop_
_atom_site_type_symbol
_atom_site_label
_atom_site_fract_x
_atom_site_fract_y
_atom_site_fract_z
Si Si1 0.093118 0.233078 0.799722
Si Si2 0.154182 0.477663 0.001568
Si Si3 0.167298 0.930829 0.519882
Si Si4 0.010788 0.667486 0.925121
Si Si5 0.255592 0.896195 0.229961
Si Si6 0.000000 0.081038 0.750000
Si Si7 0.500000 0.717287 0.250000
Si Si8 0.500000 0.879742 0.750000
O O1 0.210488 0.196153 0.724458
O O2 0.041243 0.146797 0.795376
O O3 0.080699 0.315499 0.736150
O O4 0.028322 0.265985 0.954120
O O5 0.217311 0.437987 0.033624
O O6 0.242910 0.523611 0.848515
O O7 0.071749 0.555748 0.115019
O O8 0.085533 0.402446 0.010136
O O9 0.186170 0.920764 0.389054
O O10 0.099613 0.845259 0.621703
O O11 0.095129 0.017715 0.617431
O O12 0.119325 0.616489 0.856094
O O13 0.035604 0.722263 0.805643
#
# Coordination Sequence:
#
# PCOD9299232 Si02
#       8
#     8   8   8   8   8   4   4   4
#     4  11  25  45  71 102 137 176 239 280 348 399
#     4  12  26  45  69 105 140 182 226 283 350 407
#     4  11  25  43  72  99 141 183 230 278 351 403
#     4  12  26  45  68 103 142 176 232 288 334 412
#     4  12  25  45  70 102 133 185 227 280 346 412
#     4  10  24  48  66 102 138 184 226 296 332 414
#     4  11  25  45  67 100 142 182 231 283 333 407
#     4  11  25  47  71 100 142 178 227 297 339 409
#
# _framework density 20.651678
#
# number of rings (size 3 to 8) (size 9 to 14) (size 15 to 20)
#    0.000    0.615    4.615    2.769    4.308    4.923 
#    0.000    0.000    0.000    0.000    0.000    0.000 
#    0.000    0.000    0.000    0.000    0.000    0.000 
#
# Total GULP energy -145453.666764 kJ/mol
# GULP energy per Si atom -5594.371799 kJ/mol
# Density = 2.060467 g / cm^3
# Si number density = 20.651678 Si / 1000 Ang^3
#
#
#
# Elastic Constant Matrix: (Units=GPa)
#
#
# Indices 1 2 3 4 5 6 
#
# 1 89.0669 33.3032 22.8903 0.0000 10.5915 0.0000
# 2 33.3032 73.2263 39.9310 0.0000 12.6755 0.0000
# 3 22.8903 39.9310 94.1598 0.0000 24.1043 0.0000
# 4 0.0000 0.0000 0.0000 16.1499 0.0000 9.7987
# 5 10.5915 12.6755 24.1043 0.0000 41.0800 0.0000
# 6 0.0000 0.0000 0.0000 9.7987 0.0000 24.6115
#
#
#
# Elastic Compliance Matrix: (Units=1/GPa)
#
#
# Indices 1 2 3 4 5 6 
#
# 1 0.013658 -0.005662 -0.000547 0.000000 -0.001453 0.000000
# 2 -0.005662 0.020166 -0.007009 0.000000 -0.000650 0.000000
# 3 -0.000547 -0.007009 0.015458 0.000000 -0.006766 0.000000
# 4 0.000000 0.000000 0.000000 0.081642 0.000000 -0.032504
# 5 -0.001453 -0.000650 -0.006766 0.000000 0.028888 0.000000
# 6 0.000000 0.000000 0.000000 -0.032504 0.000000 0.053572
#
#
# Mechanical properties :
#
#
# Convention : Reuss Voigt Hill
#
# Bulk Modulus (GPa) = 43.77219 49.85577 46.81398
# Shear Modulus (GPa) = 20.20732 27.05685 23.63208
#
# Velocity S-wave (km/s) = 3.13146 3.62353 3.38645
# Velocity P-wave (km/s) = 5.85801 6.45758 6.16508
#
# Compressibility (1/GPa) = 0.02284556
#
# Stress axis : x y z
#
# Youngs Moduli (GPa) = 73.21753 49.58880 64.69211
#
# Poissons Ratio (x) = 0.28075 0.03540
# Poissons Ratio (y) = 0.41453 0.45344
# Poissons Ratio (z) = 0.04007 0.34758
#
# Static dielectric constant tensor:
#      x y z
#    x 1.772120 0.000000 -0.014460 
#    y 0.000000 1.706690 0.000000 
#    z -0.014460 0.000000 1.714960 
# 
# From -- ./inp_files/112683.got.cif
#   From: 2010.05.17/outbox.cif.g08.bks.cpg/sg15_57_cif.got.tgz:112683.got - 2010.06.03 18:47:42.
