data_PCOD9299684
_publ_section_title
;
Structure prediction by ZEFSAII (Michael W. Deem and Ramdas Pophale) SiO2 
 PCOD9299684
Probable space group: C 2/C
;
_chemical_formula_sum "Si O2"
_cell_formula_units_Z 40
_cell_length_a 10.274138
_cell_length_b 9.590409
_cell_length_c 19.788853
_cell_angle_alpha 90.000000
_cell_angle_beta 111.113373
_cell_angle_gamma 90.000000
_cell_volume 1818.963704
_symmetry_space_group_name_H-M "C 2/C"
_symmetry_group_IT_number 15
_symmetry_cell_setting 'monoclinic'
loop_
_space_group_symop_operation_xyz
x,y,z
-x,y,1/2-z
-x,-y,-z
x,-y,1/2+z
1/2+x,1/2+y,z
1/2-x,1/2+y,1/2-z
1/2-x,1/2-y,-z
1/2+x,1/2-y,1/2+z
loop_
_atom_site_type_symbol
_atom_site_label
_atom_site_fract_x
_atom_site_fract_y
_atom_site_fract_z
Si Si1 0.015891 0.024360 0.376460
Si Si2 0.779263 0.847914 0.745467
Si Si3 0.435594 0.811260 0.043677
Si Si4 0.703875 0.685709 0.600436
Si Si5 0.229525 0.392064 0.155511
O O1 0.909620 0.922941 0.394846
O O2 0.144653 0.943537 0.367818
O O3 0.926046 0.097851 0.301013
O O4 0.063065 0.148031 0.434254
O O5 0.779839 0.753340 0.678812
O O6 0.726141 0.748214 0.795839
O O7 0.701135 0.987996 0.706531
O O8 0.321564 0.876843 0.072871
O O9 0.589653 0.865471 0.086690
O O10 0.378039 0.805483 0.957136
#
# Coordination Sequence:
#
# PCOD9299684 Si02
#       5
#     8   8   8   8   8
#     4  11  23  46  68  97 137 177 223 285 334 397
#     4  11  23  42  69  99 132 178 220 280 336 398
#     4  10  25  45  67  98 137 184 218 280 337 406
#     4  11  23  44  68  98 140 177 224 275 343 398
#     4  11  24  44  72  96 137 177 227 279 343 393
#
# _framework density 21.990542999999999
#
# number of rings (size 3 to 8) (size 9 to 14) (size 15 to 20)
#    0.000    1.200    4.000    1.200    2.800    1.600 
#   10.800    0.000    0.000    0.000    0.000    0.000 
#    0.000    0.000    0.000    0.000    0.000    0.000 
#
# Total GULP energy -111786.852828 kJ/mol
# GULP energy per Si atom -5589.342641 kJ/mol
# Density = 2.194049 g / cm^3
# Si number density = 21.990543 Si / 1000 Ang^3
#
#
#
# Elastic Constant Matrix: (Units=GPa)
#
#
# Indices 1 2 3 4 5 6 
#
# 1 147.5929 72.7711 46.9473 0.0000 8.5835 0.0000
# 2 72.7711 85.6534 6.5967 0.0000 0.7858 0.0000
# 3 46.9473 6.5967 112.4971 0.0000 10.2196 0.0000
# 4 0.0000 0.0000 0.0000 21.7307 0.0000 5.9469
# 5 8.5835 0.7858 10.2196 0.0000 28.4632 0.0000
# 6 0.0000 0.0000 0.0000 5.9469 0.0000 37.8915
#
#
#
# Elastic Compliance Matrix: (Units=1/GPa)
#
#
# Indices 1 2 3 4 5 6 
#
# 1 0.014311 -0.011747 -0.005087 0.000000 -0.002165 0.000000
# 2 -0.011747 0.021371 0.003495 0.000000 0.001698 0.000000
# 3 -0.005087 0.003495 0.011036 0.000000 -0.002525 0.000000
# 4 0.000000 0.000000 0.000000 0.048083 0.000000 -0.007546
# 5 -0.002165 0.001698 -0.002525 0.000000 0.036646 0.000000
# 6 0.000000 0.000000 0.000000 -0.007546 0.000000 0.027576
#
#
# Mechanical properties :
#
#
# Convention : Reuss Voigt Hill
#
# Bulk Modulus (GPa) = 49.89983 66.48595 58.19289
# Shear Modulus (GPa) = 25.98999 32.24561 29.11780
#
# Velocity S-wave (km/s) = 3.44156 3.83344 3.64277
# Velocity P-wave (km/s) = 6.20752 7.06351 6.64930
#
# Compressibility (1/GPa) = 0.02004015
#
# Stress axis : x y z
#
# Youngs Moduli (GPa) = 69.87392 46.79281 90.60888
#
# Poissons Ratio (x) = 0.54969 0.46092
# Poissons Ratio (y) = 0.82084 -0.31668
# Poissons Ratio (z) = 0.35544 -0.16354
#
# Static dielectric constant tensor:
#      x y z
#    x 1.789590 0.000000 -0.022200 
#    y 0.000000 1.838930 0.000000 
#    z -0.022200 0.000000 1.842510 
# 
# From -- ./inp_files/268290.got.cif
#   From: 2010.05.17/outbox.cif.g08.bks.cpg/sg15_135_cif.got.tgz:268290.got - 2010.06.03 18:47:42.
