data_PCOD9299652
_publ_section_title
;
Structure prediction by ZEFSAII (Michael W. Deem and Ramdas Pophale) SiO2 
 PCOD9299652
Probable space group: C 2/C
;
_chemical_formula_sum "Si O2"
_cell_formula_units_Z 28
_cell_length_a 8.195174
_cell_length_b 16.421006
_cell_length_c 8.931819
_cell_angle_alpha 90.000000
_cell_angle_beta 68.037072
_cell_angle_gamma 90.000000
_cell_volume 1114.749122
_symmetry_space_group_name_H-M "C 2/C"
_symmetry_group_IT_number 15
_symmetry_cell_setting 'monoclinic'
loop_
_space_group_symop_operation_xyz
x,y,z
-x,y,1/2-z
-x,-y,-z
x,-y,1/2+z
1/2+x,1/2+y,z
1/2-x,1/2+y,1/2-z
1/2-x,1/2-y,-z
1/2+x,1/2-y,1/2+z
loop_
_atom_site_type_symbol
_atom_site_label
_atom_site_fract_x
_atom_site_fract_y
_atom_site_fract_z
Si Si1 0.208499 0.809819 0.151232
Si Si2 0.500000 0.729653 0.250000
Si Si3 0.183393 0.472658 0.270270
Si Si4 0.352633 0.574110 0.412006
O O1 0.339224 0.779138 0.237643
O O2 0.267112 0.904358 0.122861
O O3 0.000000 0.806158 0.250000
O O4 0.250000 0.750000 0.000000
O O5 0.416680 0.666940 0.399473
O O6 0.187060 0.557819 0.359105
O O7 0.000000 0.459669 0.250000
O O8 0.316962 0.461240 0.085412
O O9 0.500000 0.536676 0.250000
#
# Coordination Sequence:
#
# PCOD9299652 Si02
#       4
#     8   4   8   8
#     4  12  28  46  76 108 148 195 247 301 375 431
#     4  10  26  48  74 102 150 186 252 302 358 430
#     4  12  25  45  73 108 148 188 245 303 363 435
#     4  10  25  44  72  99 145 189 240 294 365 423
#
# _framework density 25.117757999999998
#
# number of rings (size 3 to 8) (size 9 to 14) (size 15 to 20)
#    0.857    0.000    1.429    4.286    8.000    3.429 
#    0.000    0.000    0.000    0.000    0.000    0.000 
#    0.000    0.000    0.000    0.000    0.000    0.000 
#
# Total GULP energy -78180.991942 kJ/mol
# GULP energy per Si atom -5584.356567 kJ/mol
# Density = 2.506059 g / cm^3
# Si number density = 25.117758 Si / 1000 Ang^3
#
#
#
# Elastic Constant Matrix: (Units=GPa)
#
#
# Indices 1 2 3 4 5 6 
#
# 1 171.3402 40.4170 11.9355 0.0000 2.2139 0.0000
# 2 40.4170 55.4309 0.7059 0.0000 -3.1709 0.0000
# 3 11.9355 0.7059 57.7660 0.0000 -4.4454 0.0000
# 4 0.0000 0.0000 0.0000 40.2850 0.0000 14.4181
# 5 2.2139 -3.1709 -4.4454 0.0000 34.0464 0.0000
# 6 0.0000 0.0000 0.0000 14.4181 0.0000 49.5628
#
#
#
# Elastic Compliance Matrix: (Units=1/GPa)
#
#
# Indices 1 2 3 4 5 6 
#
# 1 0.007208 -0.005302 -0.001514 0.000000 -0.001160 0.000000
# 2 -0.005302 0.022038 0.001021 0.000000 0.002531 0.000000
# 3 -0.001514 0.001021 0.017805 0.000000 0.002518 0.000000
# 4 0.000000 0.000000 0.000000 0.027708 0.000000 -0.008060
# 5 -0.001160 0.002531 0.002518 0.000000 0.030012 0.000000
# 6 0.000000 0.000000 0.000000 -0.008060 0.000000 0.022521
#
#
# Mechanical properties :
#
#
# Convention : Reuss Voigt Hill
#
# Bulk Modulus (GPa) = 28.19992 43.40601 35.80297
# Shear Modulus (GPa) = 33.17788 40.21074 36.69431
#
# Velocity S-wave (km/s) = 3.63835 4.00545 3.82631
# Velocity P-wave (km/s) = 5.37602 6.22174 5.81428
#
# Compressibility (1/GPa) = 0.03546109
#
# Stress axis : x y z
#
# Youngs Moduli (GPa) = 138.74339 45.37525 56.16301
#
# Poissons Ratio (x) = 0.24060 0.08501
# Poissons Ratio (y) = 0.73568 -0.05734
# Poissons Ratio (z) = 0.21002 -0.04633
#
# Static dielectric constant tensor:
#      x y z
#    x 2.211430 0.000000 -0.045500 
#    y 0.000000 1.986080 0.000000 
#    z -0.045500 0.000000 1.972820 
# 
# From -- ./inp_files/21525.got.cif
#   From: 2010.05.17/outbox.cif.g08.bks.cpg/sg15_11_cif.got.tgz:21525.got - 2010.06.03 18:47:42.
