data_PCOD9299063
_publ_section_title
;
Structure prediction by ZEFSAII (Michael W. Deem and Ramdas Pophale) SiO2 
 PCOD9299063
Probable space group: C 2/C
;
_chemical_formula_sum "Si O2"
_cell_formula_units_Z 44
_cell_length_a 20.897526
_cell_length_b 13.777726
_cell_length_c 9.625546
_cell_angle_alpha 90.000000
_cell_angle_beta 140.040408
_cell_angle_gamma 90.000000
_cell_volume 1779.918053
_symmetry_space_group_name_H-M "C 2/C"
_symmetry_group_IT_number 15
_symmetry_cell_setting 'monoclinic'
loop_
_space_group_symop_operation_xyz
x,y,z
-x,y,1/2-z
-x,-y,-z
x,-y,1/2+z
1/2+x,1/2+y,z
1/2-x,1/2+y,1/2-z
1/2-x,1/2-y,-z
1/2+x,1/2-y,1/2+z
loop_
_atom_site_type_symbol
_atom_site_label
_atom_site_fract_x
_atom_site_fract_y
_atom_site_fract_z
Si Si1 0.000000 0.494873 0.250000
Si Si2 0.127367 0.346586 0.839237
Si Si3 0.651039 0.445513 0.794610
Si Si4 0.446296 0.355195 0.390491
Si Si5 0.300706 0.886458 0.837103
Si Si6 0.718141 0.668822 0.656841
O O1 0.046376 0.568544 0.214058
O O2 0.090724 0.428994 0.451309
O O3 0.077109 0.242155 0.732336
O O4 0.199883 0.365963 0.828760
O O5 0.191314 0.345811 0.085726
O O6 0.597185 0.545635 0.747118
O O7 0.718332 0.455139 0.769143
O O8 0.719216 0.401891 0.028490
O O9 0.385450 0.345981 0.432722
O O10 0.561896 0.371504 0.611624
O O11 0.283537 0.782718 0.881616
#
# Coordination Sequence:
#
# PCOD9299063 Si02
#       6
#     4   8   8   8   8   8
#     4  12  28  46  78 108 146 202 256 304 378 440
#     4  11  27  49  74 107 153 200 248 312 374 448
#     4  11  25  47  78 111 146 197 253 310 377 444
#     4  10  24  46  76 107 150 198 252 310 370 455
#     4  11  26  47  75 108 152 194 250 310 369 454
#     4  11  25  47  73 109 153 199 246 314 372 446
#
# _framework density 24.720241000000001
#
# number of rings (size 3 to 8) (size 9 to 14) (size 15 to 20)
#    0.000    1.091    0.000    4.909    7.636   10.182 
#    3.273    0.000    0.000    0.000    0.000    0.000 
#    0.000    0.000    0.000    0.000    0.000    0.000 
#
# Total GULP energy -123395.442990 kJ/mol
# GULP energy per Si atom -5608.883772 kJ/mol
# Density = 2.466398 g / cm^3
# Si number density = 24.720241 Si / 1000 Ang^3
#
#
#
# Elastic Constant Matrix: (Units=GPa)
#
#
# Indices 1 2 3 4 5 6 
#
# 1 67.2045 4.1236 30.5442 0.0000 -11.8116 0.0000
# 2 4.1236 130.9426 50.2779 0.0000 -23.1454 0.0000
# 3 30.5442 50.2779 132.4799 0.0000 -2.2860 0.0000
# 4 0.0000 0.0000 0.0000 38.2286 0.0000 5.8787
# 5 -11.8116 -23.1454 -2.2860 0.0000 40.7379 0.0000
# 6 0.0000 0.0000 0.0000 5.8787 0.0000 43.7293
#
#
#
# Elastic Compliance Matrix: (Units=1/GPa)
#
#
# Indices 1 2 3 4 5 6 
#
# 1 0.018127 0.002482 -0.005011 0.000000 0.006385 0.000000
# 2 0.002482 0.010373 -0.004399 0.000000 0.006366 0.000000
# 3 -0.005011 -0.004399 0.010315 0.000000 -0.003373 0.000000
# 4 0.000000 0.000000 0.000000 0.026711 0.000000 -0.003591
# 5 0.006385 0.006366 -0.003373 0.000000 0.029826 0.000000
# 6 0.000000 0.000000 0.000000 -0.003591 0.000000 0.023351
#
#
# Mechanical properties :
#
#
# Convention : Reuss Voigt Hill
#
# Bulk Modulus (GPa) = 40.06617 55.61315 47.83966
# Shear Modulus (GPa) = 35.49139 40.91793 38.20466
#
# Velocity S-wave (km/s) = 3.79320 4.07288 3.93553
# Velocity P-wave (km/s) = 5.95210 6.68309 6.32816
#
# Compressibility (1/GPa) = 0.02495871
#
# Stress axis : x y z
#
# Youngs Moduli (GPa) = 55.16526 96.40229 96.94645
#
# Poissons Ratio (x) = -0.23925 0.48581
# Poissons Ratio (y) = -0.13691 0.42648
# Poissons Ratio (z) = 0.27644 0.42408
#
# Static dielectric constant tensor:
#      x y z
#    x 1.934120 0.000000 -0.021790 
#    y 0.000000 2.005250 0.000000 
#    z -0.021790 0.000000 1.918490 
# 
# From -- ./inp_files/181608.got.cif
#   From: 2010.05.17/outbox.cif.g08.bks.cpg/sg15_91_cif.got.tgz:181608.got - 2010.06.03 18:47:42.
