data_PCOD9299863
_publ_section_title
;
Structure prediction by ZEFSAII (Michael W. Deem and Ramdas Pophale) SiO2 
 PCOD9299863
Probable space group: C 2/C
;
_chemical_formula_sum "Si O2"
_cell_formula_units_Z 48
_cell_length_a 5.813782
_cell_length_b 14.030471
_cell_length_c 28.733802
_cell_angle_alpha 90.000000
_cell_angle_beta 66.129854
_cell_angle_gamma 90.000000
_cell_volume 2143.340366
_symmetry_space_group_name_H-M "C 2/C"
_symmetry_group_IT_number 15
_symmetry_cell_setting 'monoclinic'
loop_
_space_group_symop_operation_xyz
x,y,z
-x,y,1/2-z
-x,-y,-z
x,-y,1/2+z
1/2+x,1/2+y,z
1/2-x,1/2+y,1/2-z
1/2-x,1/2-y,-z
1/2+x,1/2-y,1/2+z
loop_
_atom_site_type_symbol
_atom_site_label
_atom_site_fract_x
_atom_site_fract_y
_atom_site_fract_z
Si Si1 0.194014 1.000000 0.652993
Si Si2 0.943645 0.646806 0.202827
Si Si3 0.321949 0.896698 0.393461
Si Si4 0.104206 0.896698 0.893461
Si Si5 0.501103 0.697783 1.000000
Si Si6 0.745048 0.146806 0.702827
O O1 0.290212 0.934416 0.687596
O O2 0.140795 0.921814 0.616764
O O3 0.392148 0.078186 0.616764
O O4 0.959406 0.065584 0.687596
O O5 0.816554 0.750000 0.216723
O O6 0.000000 0.612977 0.250000
O O7 0.202594 0.663527 0.153098
O O8 0.314986 0.836473 0.346902
O O9 0.130088 0.859401 0.447375
O O10 0.225889 1.000000 0.387056
O O11 0.080413 0.859401 0.947375
O O12 0.250000 0.750000 0.000000
O O13 0.750000 0.750000 0.000000
O O14 0.500000 0.112977 0.750000
#
# Coordination Sequence:
#
# PCOD9299863 Si02
#       6
#     8   8   8   8   8   8
#     4  10  26  48  74 102 150 193 256 317 388 470
#     4  11  27  46  73 108 148 198 251 317 387 464
#     4  10  25  47  73 103 147 194 252 313 383 466
#     4  10  25  47  73 103 147 194 252 313 383 466
#     4  12  29  45  78 112 150 199 254 320 384 465
#     4  11  27  46  73 108 148 198 251 317 387 464
#
# _framework density 22.394947999999999
#
# number of rings (size 3 to 8) (size 9 to 14) (size 15 to 20)
#    0.000    1.333    0.000    1.500   18.667    8.000 
#    0.000    0.000    0.000    0.000    0.000    0.000 
#    0.000    0.000    0.000    0.000    0.000    0.000 
#
# Total GULP energy -133988.963842 kJ/mol
# GULP energy per Si atom -5582.873493 kJ/mol
# Density = 2.234398 g / cm^3
# Si number density = 22.394948 Si / 1000 Ang^3
#
#
#
# Elastic Constant Matrix: (Units=GPa)
#
#
# Indices 1 2 3 4 5 6 
#
# 1 131.4052 50.2639 62.4400 0.0000 0.2220 0.0000
# 2 50.2639 83.7790 29.2154 0.0000 -1.1931 0.0000
# 3 62.4400 29.2154 160.3027 0.0000 1.4159 0.0000
# 4 0.0000 0.0000 0.0000 32.8171 0.0000 0.9720
# 5 0.2220 -1.1931 1.4159 0.0000 36.5090 0.0000
# 6 0.0000 0.0000 0.0000 0.9720 0.0000 15.6680
#
#
#
# Elastic Compliance Matrix: (Units=1/GPa)
#
#
# Indices 1 2 3 4 5 6 
#
# 1 0.011388 -0.005647 -0.003406 0.000000 -0.000122 0.000000
# 2 -0.005647 0.015555 -0.000641 0.000000 0.000568 0.000000
# 3 -0.003406 -0.000641 0.007684 0.000000 -0.000298 0.000000
# 4 0.000000 0.000000 0.000000 0.030528 0.000000 -0.001894
# 5 -0.000122 0.000568 -0.000298 0.000000 0.027421 0.000000
# 6 0.000000 0.000000 0.000000 -0.001894 0.000000 0.063942
#
#
# Mechanical properties :
#
#
# Convention : Reuss Voigt Hill
#
# Bulk Modulus (GPa) = 65.60806 73.25840 69.43323
# Shear Modulus (GPa) = 27.62646 32.56999 30.09822
#
# Velocity S-wave (km/s) = 3.51608 3.81773 3.67000
# Velocity P-wave (km/s) = 6.77076 7.22609 7.00213
#
# Compressibility (1/GPa) = 0.01524203
#
# Stress axis : x y z
#
# Youngs Moduli (GPa) = 87.80790 64.28641 130.13769
#
# Poissons Ratio (x) = 0.36301 0.44322
# Poissons Ratio (y) = 0.49582 0.08336
# Poissons Ratio (z) = 0.29905 0.04118
#
# Static dielectric constant tensor:
#      x y z
#    x 2.132040 0.000000 -0.029540 
#    y 0.000000 1.829600 0.000000 
#    z -0.029540 0.000000 1.610840 
# 
# From -- ./inp_files/305285.got.cif
#   From: 2010.05.17/outbox.cif.g08.bks.cpg/sg15_153_cif.got.tgz:305285.got - 2010.06.03 18:47:42.
