data_PCOD9299418
_publ_section_title
;
Structure prediction by ZEFSAII (Michael W. Deem and Ramdas Pophale) SiO2 
 PCOD9299418
Probable space group: C 2/C
;
_chemical_formula_sum "Si O2"
_cell_formula_units_Z 56
_cell_length_a 9.306691
_cell_length_b 20.975697
_cell_length_c 11.947363
_cell_angle_alpha 90.000000
_cell_angle_beta 65.434932
_cell_angle_gamma 90.000000
_cell_volume 2121.199703
_symmetry_space_group_name_H-M "C 2/C"
_symmetry_group_IT_number 15
_symmetry_cell_setting 'monoclinic'
loop_
_space_group_symop_operation_xyz
x,y,z
-x,y,1/2-z
-x,-y,-z
x,-y,1/2+z
1/2+x,1/2+y,z
1/2-x,1/2+y,1/2-z
1/2-x,1/2-y,-z
1/2+x,1/2-y,1/2+z
loop_
_atom_site_type_symbol
_atom_site_label
_atom_site_fract_x
_atom_site_fract_y
_atom_site_fract_z
Si Si1 0.641990 0.466138 0.136368
Si Si2 0.500000 0.000000 0.500000
Si Si3 0.028999 0.298534 0.042053
Si Si4 0.844022 0.092860 0.104081
Si Si5 0.645245 0.339210 0.536454
Si Si6 0.500000 0.970997 0.750000
Si Si7 0.640248 0.211629 0.138317
Si Si8 0.230009 0.839631 0.245157
O O1 0.500000 0.497311 0.250000
O O2 0.806710 0.501356 0.075583
O O3 0.671746 0.400652 0.196375
O O4 0.603685 0.446102 0.022320
O O5 0.516196 0.008235 0.630224
O O6 0.182640 0.340506 0.961630
O O7 0.916293 0.336001 0.161833
O O8 0.084438 0.232687 0.079043
O O9 0.928989 0.281778 0.963492
O O10 0.677413 0.062940 0.200441
O O11 0.784840 0.163456 0.085636
O O12 0.008565 0.111390 0.111247
O O13 0.680473 0.341615 0.390638
O O14 0.500000 0.177239 0.250000
O O15 0.670634 0.274823 0.202054
#
# Coordination Sequence:
#
# PCOD9299418 Si02
#       8
#     8   4   8   8   8   4   8   8
#     4  11  22  42  74 102 135 183 249 308 375 447
#     4  10  26  52  76 110 142 186 248 334 378 446
#     4  11  23  36  54  92 148 196 233 290 349 410
#     4  11  21  40  72 102 139 189 238 291 360 459
#     4  11  23  38  56  97 146 189 240 296 348 425
#     4  10  24  50  84 108 142 188 252 308 390 440
#     4  12  21  35  63  95 140 193 241 274 338 446
#     4  12  21  37  65  97 136 193 244 285 354 442
#
# _framework density 26.400155000000002
#
# number of rings (size 3 to 8) (size 9 to 14) (size 15 to 20)
#    0.000    0.857    6.429    2.143    0.000    0.000 
#    2.571    5.000    0.000    0.000    0.000    0.000 
#    0.000    0.000    0.000    0.000    0.000    0.000 
#
# Total GULP energy -156113.866409 kJ/mol
# GULP energy per Si atom -5575.495229 kJ/mol
# Density = 2.634007 g / cm^3
# Si number density = 26.400155 Si / 1000 Ang^3
#
#
#
# Elastic Constant Matrix: (Units=GPa)
#
#
# Indices 1 2 3 4 5 6 
#
# 1 123.6495 31.0794 30.3487 0.0000 -38.1411 0.0000
# 2 31.0794 80.1623 49.8826 0.0000 -5.1699 0.0000
# 3 30.3487 49.8826 154.2609 0.0000 -17.7835 0.0000
# 4 0.0000 0.0000 0.0000 -25.3937 0.0000 78.5398
# 5 -38.1411 -5.1699 -17.7835 0.0000 70.0901 0.0000
# 6 0.0000 0.0000 0.0000 78.5398 0.0000 -108.9108
#
#
#
# Elastic Compliance Matrix: (Units=1/GPa)
#
#
# Indices 1 2 3 4 5 6 
#
# 1 0.010778 -0.003630 -0.000311 0.000000 0.005519 0.000000
# 2 -0.003630 0.016841 -0.004961 0.000000 -0.001992 0.000000
# 3 -0.000311 -0.004961 0.008330 0.000000 0.001579 0.000000
# 4 0.000000 0.000000 0.000000 0.032006 0.000000 0.023081
# 5 0.005519 -0.001992 0.001579 0.000000 0.017524 0.000000
# 6 0.000000 0.000000 0.000000 0.023081 0.000000 0.007463
#
#
# Mechanical properties :
#
#
# Convention : Reuss Voigt Hill
#
# Bulk Modulus (GPa) = 55.10864 64.52157 59.81510
# Shear Modulus (GPa) = 42.81094 3.60792 23.20943
#
# Velocity S-wave (km/s) = 4.03130 1.17030 2.96825
# Velocity P-wave (km/s) = 6.52596 5.13021 5.86972
#
# Compressibility (1/GPa) = 0.01814598
#
# Stress axis : x y z
#
# Youngs Moduli (GPa) = 92.77986 59.38005 120.04965
#
# Poissons Ratio (x) = 0.21553 0.03728
# Poissons Ratio (y) = 0.33675 0.59559
# Poissons Ratio (z) = 0.02881 0.29460
#
# Static dielectric constant tensor:
#      x y z
#    x 2.067700 0.000000 0.008600 
#    y 0.000000 2.089720 0.000000 
#    z 0.008600 0.000000 2.012870 
# 
# From -- ./inp_files/82174.got.cif
#   From: 2010.05.17/outbox.cif.g08.bks.cpg/sg15_42_cif.got.tgz:82174.got - 2010.06.03 18:47:42.
