data_PCOD9299551
_publ_section_title
;
Structure prediction by ZEFSAII (Michael W. Deem and Ramdas Pophale) SiO2 
 PCOD9299551
Probable space group: C 2/C
;
_chemical_formula_sum "Si O2"
_cell_formula_units_Z 40
_cell_length_a 21.888687
_cell_length_b 10.308875
_cell_length_c 9.676566
_cell_angle_alpha 90.000000
_cell_angle_beta 121.157543
_cell_angle_gamma 90.000000
_cell_volume 1868.521439
_symmetry_space_group_name_H-M "C 2/C"
_symmetry_group_IT_number 15
_symmetry_cell_setting 'monoclinic'
loop_
_space_group_symop_operation_xyz
x,y,z
-x,y,1/2-z
-x,-y,-z
x,-y,1/2+z
1/2+x,1/2+y,z
1/2-x,1/2+y,1/2-z
1/2-x,1/2-y,-z
1/2+x,1/2-y,1/2+z
loop_
_atom_site_type_symbol
_atom_site_label
_atom_site_fract_x
_atom_site_fract_y
_atom_site_fract_z
Si Si1 0.288067 0.892064 0.341987
Si Si2 0.449397 0.489646 0.574178
Si Si3 0.353843 0.739293 0.876893
Si Si4 0.293224 0.116166 0.533806
Si Si5 0.920361 0.276505 0.659519
O O1 0.228523 0.779933 0.264613
O O2 0.305610 0.931010 0.204258
O O3 0.359901 0.847935 0.501390
O O4 0.255444 0.006117 0.398571
O O5 0.500000 0.427929 0.750000
O O6 0.500000 0.500000 0.500000
O O7 0.382541 0.398699 0.464958
O O8 0.426509 0.630483 0.603955
O O9 0.397240 0.772701 0.791670
O O10 0.357552 0.840432 0.007685
O O11 0.250000 0.250000 0.500000
O O12 0.000000 0.333203 0.750000
#
# Coordination Sequence:
#
# PCOD9299551 Si02
#       5
#     8   8   8   8   8
#     4  11  25  43  68  95 139 173 232 279 335 407
#     4  11  23  40  66 102 138 177 226 284 344 397
#     4  11  24  40  70  97 137 177 234 276 345 392
#     4  10  25  43  67 103 131 177 224 280 345 395
#     4  11  24  43  66  99 139 183 224 280 342 403
#
# _framework density 21.407298999999998
#
# number of rings (size 3 to 8) (size 9 to 14) (size 15 to 20)
#    0.000    1.200    4.000    1.800   14.000    0.000 
#    0.000    5.000    0.000    0.000    0.000    0.000 
#    0.000    0.000    0.000    0.000    0.000    0.000 
#
# Total GULP energy -111670.027678 kJ/mol
# GULP energy per Si atom -5583.501384 kJ/mol
# Density = 2.135858 g / cm^3
# Si number density = 21.407299 Si / 1000 Ang^3
#
#
#
# Elastic Constant Matrix: (Units=GPa)
#
#
# Indices 1 2 3 4 5 6 
#
# 1 109.2188 5.8928 54.1205 0.0000 -22.4231 0.0000
# 2 5.8928 42.6893 22.7249 0.0000 -0.6800 0.0000
# 3 54.1205 22.7249 136.5284 0.0000 -20.1852 0.0000
# 4 0.0000 0.0000 0.0000 43.2475 0.0000 -3.0036
# 5 -22.4231 -0.6800 -20.1852 0.0000 61.0342 0.0000
# 6 0.0000 0.0000 0.0000 -3.0036 0.0000 32.2472
#
#
#
# Elastic Compliance Matrix: (Units=1/GPa)
#
#
# Indices 1 2 3 4 5 6 
#
# 1 0.011901 0.000752 -0.004411 0.000000 0.002922 0.000000
# 2 0.000752 0.025832 -0.004746 0.000000 -0.001006 0.000000
# 3 -0.004411 -0.004746 0.010110 0.000000 0.001670 0.000000
# 4 0.000000 0.000000 0.000000 0.023273 0.000000 0.002168
# 5 0.002922 -0.001006 0.001670 0.000000 0.017999 0.000000
# 6 0.000000 0.000000 0.000000 0.002168 0.000000 0.031212
#
#
# Mechanical properties :
#
#
# Convention : Reuss Voigt Hill
#
# Bulk Modulus (GPa) = 32.22483 50.43477 41.32980
# Shear Modulus (GPa) = 33.90249 41.01900 37.46074
#
# Velocity S-wave (km/s) = 3.98388 4.38210 4.18773
# Velocity P-wave (km/s) = 6.02059 7.01531 6.53690
#
# Compressibility (1/GPa) = 0.03103197
#
# Stress axis : x y z
#
# Youngs Moduli (GPa) = 84.02763 38.71181 98.91335
#
# Poissons Ratio (x) = -0.02910 0.43628
# Poissons Ratio (y) = -0.06316 0.46948
# Poissons Ratio (z) = 0.37062 0.18374
#
# Static dielectric constant tensor:
#      x y z
#    x 1.781380 0.000000 0.000620 
#    y 0.000000 1.829820 0.000000 
#    z 0.000620 0.000000 1.770270 
# 
# From -- ./inp_files/46081.got.cif
#   From: 2010.05.17/outbox.cif.g08.bks.cpg/sg15_24_cif.got.tgz:46081.got - 2010.06.03 18:47:42.
