data_PCOD9299646
_publ_section_title
;
Structure prediction by ZEFSAII (Michael W. Deem and Ramdas Pophale) SiO2 
 PCOD9299646
Probable space group: C 2/C
;
_chemical_formula_sum "Si O2"
_cell_formula_units_Z 64
_cell_length_a 8.316768
_cell_length_b 15.145637
_cell_length_c 29.231696
_cell_angle_alpha 90.000000
_cell_angle_beta 52.815854
_cell_angle_gamma 90.000000
_cell_volume 2933.522513
_symmetry_space_group_name_H-M "C 2/C"
_symmetry_group_IT_number 15
_symmetry_cell_setting 'monoclinic'
loop_
_space_group_symop_operation_xyz
x,y,z
-x,y,1/2-z
-x,-y,-z
x,-y,1/2+z
1/2+x,1/2+y,z
1/2-x,1/2+y,1/2-z
1/2-x,1/2-y,-z
1/2+x,1/2-y,1/2+z
loop_
_atom_site_type_symbol
_atom_site_label
_atom_site_fract_x
_atom_site_fract_y
_atom_site_fract_z
Si Si1 0.699669 0.498536 0.246295
Si Si2 0.861335 0.830285 0.687918
Si Si3 0.825723 0.304398 0.629091
Si Si4 0.544034 0.255022 0.007276
Si Si5 0.950477 0.485963 0.885551
Si Si6 0.232165 0.314857 0.227543
Si Si7 0.433577 0.393158 0.576875
Si Si8 0.603676 0.923570 0.010760
O O1 0.500000 0.511875 0.250000
O O2 0.736576 0.584159 0.271324
O O3 0.677119 0.410853 0.280266
O O4 0.889100 0.485482 0.180033
O O5 0.771078 0.741769 0.725159
O O6 0.861576 0.838033 0.633398
O O7 0.094646 0.833738 0.664107
O O8 0.845294 0.244174 0.670446
O O9 0.876117 0.247258 0.575675
O O10 0.964859 0.391431 0.609647
O O11 0.554502 0.336199 0.971342
O O12 0.495406 0.169103 0.985486
O O13 0.750000 0.250000 0.000000
O O14 0.730998 0.468759 0.902138
O O15 0.926850 0.553548 0.931054
O O16 0.000000 0.323895 0.250000
O O17 0.662176 0.424094 0.544172
O O18 0.500000 0.000000 0.000000
#
# Coordination Sequence:
#
# PCOD9299646 Si02
#       8
#     8   8   8   8   8   8   8   8
#     4  12  26  46  73 104 140 190 245 292 364 434
#     4  11  23  47  73  98 146 191 235 295 367 425
#     4  11  21  49  70  95 149 189 229 291 363 426
#     4  12  25  45  72 105 138 189 237 289 359 431
#     4  12  25  45  70 106 144 188 235 300 360 430
#     4  10  25  44  71 105 134 187 238 297 356 424
#     4  12  27  45  72 106 144 191 236 301 363 431
#     4  12  25  46  71 104 142 185 240 291 360 424
#
# _framework density 21.816776000000001
#
# number of rings (size 3 to 8) (size 9 to 14) (size 15 to 20)
#    0.000    0.500    6.250    1.125    3.500    3.000 
#    2.250    0.000    0.000    0.000    0.000    0.000 
#    0.000    0.000    0.000    0.000    0.000    0.000 
#
# Total GULP energy -179153.928090 kJ/mol
# GULP energy per Si atom -5598.560253 kJ/mol
# Density = 2.176712 g / cm^3
# Si number density = 21.816776 Si / 1000 Ang^3
#
#
#
# Elastic Constant Matrix: (Units=GPa)
#
#
# Indices 1 2 3 4 5 6 
#
# 1 72.9975 18.5981 4.0789 0.0001 1.3726 -0.0001
# 2 18.5981 30.3015 20.8094 0.0001 -7.5266 -0.0001
# 3 4.0789 20.8094 94.3371 0.0000 22.0474 -0.0001
# 4 0.0001 0.0001 0.0000 30.0147 -0.0001 17.5936
# 5 1.3726 -7.5266 22.0474 -0.0001 28.8328 0.0001
# 6 -0.0001 -0.0001 -0.0001 17.5936 0.0001 38.0266
#
#
#
# Elastic Compliance Matrix: (Units=1/GPa)
#
#
# Indices 1 2 3 4 5 6 
#
# 1 0.017820 -0.016605 0.004997 0.000000 -0.009004 0.000000
# 2 -0.016605 0.067479 -0.022487 0.000000 0.035600 0.000000
# 3 0.004997 -0.022487 0.020421 0.000000 -0.021723 0.000000
# 4 0.000000 0.000000 0.000000 0.045715 0.000000 -0.021151
# 5 -0.009004 0.035600 -0.021723 0.000000 0.061016 0.000000
# 6 0.000000 0.000000 0.000000 -0.021151 0.000000 0.036083
#
#
# Mechanical properties :
#
#
# Convention : Reuss Voigt Hill
#
# Bulk Modulus (GPa) = 26.64587 31.62323 29.13455
# Shear Modulus (GPa) = 15.18677 29.65146 22.41911
#
# Velocity S-wave (km/s) = 2.64124 3.69061 3.20911
# Velocity P-wave (km/s) = 4.64129 5.71727 5.20715
#
# Compressibility (1/GPa) = 0.03752926
#
# Stress axis : x y z
#
# Youngs Moduli (GPa) = 56.11743 14.81951 48.96801
#
# Poissons Ratio (x) = 0.24608 -0.24467
# Poissons Ratio (y) = 0.93183 1.10114
# Poissons Ratio (z) = -0.28039 0.33324
#
# Static dielectric constant tensor:
#      x y z
#    x 1.759150 0.000000 0.021590 
#    y 0.000000 1.750140 0.000000 
#    z 0.021590 0.000000 1.784850 
# 
# From -- ./inp_files/308256.got.cif
#   From: 2010.05.17/outbox.cif.g08.bks.cpg/sg15_155_cif.got.tgz:308256.got - 2010.06.03 18:47:42.
