data_PCOD9299224
_publ_section_title
;
Structure prediction by ZEFSAII (Michael W. Deem and Ramdas Pophale) SiO2 
 PCOD9299224
Probable space group: C 2/C
;
_chemical_formula_sum "Si O2"
_cell_formula_units_Z 44
_cell_length_a 17.584254
_cell_length_b 17.730787
_cell_length_c 14.728849
_cell_angle_alpha 90.000000
_cell_angle_beta 154.908338
_cell_angle_gamma 90.000000
_cell_volume 1947.403288
_symmetry_space_group_name_H-M "C 2/C"
_symmetry_group_IT_number 15
_symmetry_cell_setting 'monoclinic'
loop_
_space_group_symop_operation_xyz
x,y,z
-x,y,1/2-z
-x,-y,-z
x,-y,1/2+z
1/2+x,1/2+y,z
1/2-x,1/2+y,1/2-z
1/2-x,1/2-y,-z
1/2+x,1/2-y,1/2+z
loop_
_atom_site_type_symbol
_atom_site_label
_atom_site_fract_x
_atom_site_fract_y
_atom_site_fract_z
Si Si1 0.711882 0.334967 0.991892
Si Si2 0.176703 0.674315 0.678262
Si Si3 0.301268 0.002507 0.556933
Si Si4 0.634674 0.061049 0.183073
Si Si5 0.438160 0.341922 0.990821
Si Si6 0.500000 0.396612 0.250000
O O1 0.785698 0.340449 0.174501
O O2 0.790363 0.408678 0.026036
O O3 0.500000 0.344997 0.750000
O O4 0.750000 0.250000 0.000000
O O5 0.001110 0.631381 0.450546
O O6 0.138728 0.762661 0.625950
O O7 0.358648 0.651957 0.823184
O O8 0.500000 0.974909 0.750000
O O9 0.281389 0.982606 0.641308
O O10 0.140108 0.950905 0.347827
O O11 0.803312 0.093005 0.309902
O O12 0.500000 0.000000 0.000000
O O13 0.423229 0.346236 0.084839
#
# Coordination Sequence:
#
# PCOD9299224 Si02
#       6
#     8   8   8   8   8   4
#     4  12  26  43  68  98 137 180 229 285 337 406
#     4  12  24  47  68 105 139 179 233 278 347 408
#     4  11  23  44  68  98 137 175 225 280 342 403
#     4  11  24  44  69 100 136 180 226 283 337 410
#     4  11  25  43  73  98 141 180 224 286 339 412
#     4  10  24  48  64 108 134 172 232 274 348 402
#
# _framework density 22.594190000000001
#
# number of rings (size 3 to 8) (size 9 to 14) (size 15 to 20)
#    0.000    0.727    4.545    2.727    0.000    4.364 
#    1.636    0.000    0.000    0.000    0.000    0.000 
#    0.000    0.000    0.000    0.000    0.000    0.000 
#
# Total GULP energy -122765.087748 kJ/mol
# GULP energy per Si atom -5580.231261 kJ/mol
# Density = 2.254276 g / cm^3
# Si number density = 22.594190 Si / 1000 Ang^3
#
#
#
# Elastic Constant Matrix: (Units=GPa)
#
#
# Indices 1 2 3 4 5 6 
#
# 1 36.9782 4.1115 3.8286 0.0000 0.7202 0.0000
# 2 4.1115 76.7984 6.8941 0.0000 -5.5314 0.0000
# 3 3.8286 6.8941 100.7393 0.0000 20.0127 0.0000
# 4 0.0000 0.0000 0.0000 -47.3326 0.0000 -65.1730
# 5 0.7202 -5.5314 20.0127 0.0000 49.8361 0.0000
# 6 0.0000 0.0000 0.0000 -65.1730 0.0000 -23.1537
#
#
#
# Elastic Compliance Matrix: (Units=1/GPa)
#
#
# Indices 1 2 3 4 5 6 
#
# 1 0.027295 -0.001393 -0.000905 0.000000 -0.000186 0.000000
# 2 -0.001393 0.013353 -0.001260 0.000000 0.002008 0.000000
# 3 -0.000905 -0.001260 0.010946 0.000000 -0.004522 0.000000
# 4 0.000000 0.000000 0.000000 0.007347 0.000000 -0.020679
# 5 -0.000186 0.002008 -0.004522 0.000000 0.022107 0.000000
# 6 0.000000 0.000000 0.000000 -0.020679 0.000000 0.015019
#
#
# Mechanical properties :
#
#
# Convention : Reuss Voigt Hill
#
# Bulk Modulus (GPa) = 22.48326 27.13160 24.80743
# Shear Modulus (GPa) = 42.36951 9.18208 25.77580
#
# Velocity S-wave (km/s) = 4.33510 2.01810 3.38126
# Velocity P-wave (km/s) = 5.91861 4.17907 5.12321
#
# Compressibility (1/GPa) = 0.04447753
#
# Stress axis : x y z
#
# Youngs Moduli (GPa) = 36.63647 74.88704 91.36096
#
# Poissons Ratio (x) = 0.10435 0.08269
# Poissons Ratio (y) = 0.05105 0.11510
# Poissons Ratio (z) = 0.03316 0.09435
#
# Static dielectric constant tensor:
#      x y z
#    x 1.892080 0.000000 -0.061230 
#    y 0.000000 1.969850 0.000000 
#    z -0.061230 0.000000 2.107310 
# 
# From -- ./inp_files/216115.got.cif
#   From: 2010.05.17/outbox.cif.g08.bks.cpg/sg15_109_cif.got.tgz:216115.got - 2010.06.03 18:47:42.
