data_PCOD9299319
_publ_section_title
;
Structure prediction by ZEFSAII (Michael W. Deem and Ramdas Pophale) SiO2 
 PCOD9299319
Probable space group: C 2/C
;
_chemical_formula_sum "Si O2"
_cell_formula_units_Z 40
_cell_length_a 26.914582
_cell_length_b 5.095567
_cell_length_c 13.124747
_cell_angle_alpha 90.000000
_cell_angle_beta 57.619198
_cell_angle_gamma 90.000000
_cell_volume 1520.108418
_symmetry_space_group_name_H-M "C 2/C"
_symmetry_group_IT_number 15
_symmetry_cell_setting 'monoclinic'
loop_
_space_group_symop_operation_xyz
x,y,z
-x,y,1/2-z
-x,-y,-z
x,-y,1/2+z
1/2+x,1/2+y,z
1/2-x,1/2+y,1/2-z
1/2-x,1/2-y,-z
1/2+x,1/2-y,1/2+z
loop_
_atom_site_type_symbol
_atom_site_label
_atom_site_fract_x
_atom_site_fract_y
_atom_site_fract_z
Si Si1 0.100917 0.322358 0.851011
Si Si2 0.937548 0.192867 0.000273
Si Si3 0.750000 0.250000 0.500000
Si Si4 0.000000 0.024622 0.750000
Si Si5 0.373601 0.449918 0.384769
Si Si6 0.220519 0.482074 0.828278
O O1 0.066392 0.588729 0.910503
O O2 0.120958 0.246834 0.716095
O O3 0.160536 0.363573 0.850467
O O4 0.066252 0.086036 0.941925
O O5 0.881672 0.198345 0.983494
O O6 0.990191 0.202308 0.860903
O O7 0.684142 0.380412 0.559027
O O8 0.768351 0.479092 0.564048
O O9 0.063551 0.887605 0.687459
O O10 0.232669 0.760483 0.762356
#
# Coordination Sequence:
#
# PCOD9299319 Si02
#       6
#     8   8   4   4   8   8
#     4  12  24  45  75 110 155 204 264 321 398 470
#     4  10  25  46  72 112 156 198 266 327 379 476
#     4  12  24  48  76 110 156 206 250 340 388 460
#     4   8  22  52  72 120 154 212 268 328 390 484
#     4  10  24  48  76 117 155 212 263 329 400 475
#     4  12  26  43  69 107 146 197 256 315 389 466
#
# _framework density 26.313914
#
# number of rings (size 3 to 8) (size 9 to 14) (size 15 to 20)
#    1.200    0.000    4.000    1.200    0.000    6.400 
#    0.000    0.000    0.000    0.000    0.000    0.000 
#    0.000    0.000    0.000    0.200    0.000    0.000 
#
# Total GULP energy -111413.383112 kJ/mol
# GULP energy per Si atom -5570.669156 kJ/mol
# Density = 2.625402 g / cm^3
# Si number density = 26.313914 Si / 1000 Ang^3
#
#
#
# Elastic Constant Matrix: (Units=GPa)
#
#
# Indices 1 2 3 4 5 6 
#
# 1 171.3958 12.8628 23.8117 0.0000 -17.3579 0.0000
# 2 12.8628 82.3189 93.4505 -0.0003 -8.2224 0.0010
# 3 23.8117 93.4505 85.0576 0.0001 6.6938 0.0005
# 4 0.0000 -0.0003 0.0001 15.6036 -0.0001 -7.1686
# 5 -17.3579 -8.2224 6.6938 -0.0001 53.5745 0.0000
# 6 0.0000 0.0010 0.0005 -7.1686 0.0000 24.6197
#
#
#
# Elastic Compliance Matrix: (Units=1/GPa)
#
#
# Indices 1 2 3 4 5 6 
#
# 1 0.005809 -0.004415 0.003161 0.000000 0.000809 0.000000
# 2 -0.004415 -0.036762 0.042601 -0.000001 -0.012395 0.000000
# 3 0.003161 0.042601 -0.036891 0.000001 0.012172 -0.000001
# 4 0.000000 -0.000001 0.000001 0.073985 0.000000 0.021542
# 5 0.000809 -0.012395 0.012172 0.000000 0.015505 0.000000
# 6 0.000000 0.000000 -0.000001 0.021542 0.000000 0.046890
#
#
# Mechanical properties :
#
#
# Convention : Reuss Voigt Hill
#
# Bulk Modulus (GPa) = 67.34198 66.55803 66.95001
# Shear Modulus (GPa) = -542.96949 32.66939 -255.15005
#
# Velocity S-wave (km/s) = -14.38023 3.52735 -9.85771
# Velocity P-wave (km/s) = 15.81373 6.47598 10.20137
#
# Compressibility (1/GPa) = 0.01484958
#
# Stress axis : x y z
#
# Youngs Moduli (GPa) = 172.15721 -27.20180 -27.10709
#
# Poissons Ratio (x) = -0.12009 0.08568
# Poissons Ratio (y) = 0.76006 1.15479
# Poissons Ratio (z) = -0.54414 1.15883
#
# Static dielectric constant tensor:
#      x y z
#    x 2.159200 0.000000 -0.043580 
#    y 0.000000 2.021460 0.000000 
#    z -0.043580 0.000000 2.109800 
# 
# From -- ./inp_files/175350.got.cif
#   From: 2010.05.17/outbox.cif.g08.bks.cpg/sg15_88_cif.got.tgz:175350.got - 2010.06.03 18:47:42.
