data_PCOD9299124
_publ_section_title
;
Structure prediction by ZEFSAII (Michael W. Deem and Ramdas Pophale) SiO2 
 PCOD9299124
Probable space group: C 2/C
;
_chemical_formula_sum "Si O2"
_cell_formula_units_Z 40
_cell_length_a 5.194091
_cell_length_b 27.685724
_cell_length_c 11.277239
_cell_angle_alpha 90.000000
_cell_angle_beta 102.108845
_cell_angle_gamma 90.000000
_cell_volume 1585.610207
_symmetry_space_group_name_H-M "C 2/C"
_symmetry_group_IT_number 15
_symmetry_cell_setting 'monoclinic'
loop_
_space_group_symop_operation_xyz
x,y,z
-x,y,1/2-z
-x,-y,-z
x,-y,1/2+z
1/2+x,1/2+y,z
1/2-x,1/2+y,1/2-z
1/2-x,1/2-y,-z
1/2+x,1/2-y,1/2+z
loop_
_atom_site_type_symbol
_atom_site_label
_atom_site_fract_x
_atom_site_fract_y
_atom_site_fract_z
Si Si1 0.173060 0.174371 0.402181
Si Si2 0.672131 0.595825 0.582090
Si Si3 0.925606 0.724136 0.878089
Si Si4 0.000000 0.388012 0.750000
Si Si5 0.500000 0.333109 0.250000
Si Si6 0.857585 0.551462 0.001890
O O1 0.062355 0.130730 0.468479
O O2 0.407665 0.198573 0.503597
O O3 0.295788 0.148259 0.297843
O O4 0.970466 0.218805 0.378801
O O5 0.676138 0.628887 0.696761
O O6 0.449742 0.554096 0.565077
O O7 0.963256 0.582481 0.570508
O O8 0.633324 0.703161 0.856342
O O9 0.000000 0.710157 0.750000
O O10 0.099041 0.424421 0.864149
O O11 0.000000 0.500000 0.000000
#
# Coordination Sequence:
#
# PCOD9299124 Si02
#       6
#     8   8   8   4   4   8
#     4  10  24  47  68 107 151 201 248 302 371 439
#     4  11  25  46  73 104 147 186 246 303 374 452
#     4  11  24  45  66 103 149 197 253 301 352 438
#     4  10  24  47  78 100 148 190 238 304 379 448
#     4  12  24  43  72 104 146 200 252 306 373 420
#     4  11  26  48  74 109 141 184 243 310 386 461
#
# _framework density 25.226877999999999
#
# number of rings (size 3 to 8) (size 9 to 14) (size 15 to 20)
#    0.000    1.200    2.000    3.000    2.800    5.600 
#    3.600    0.000    0.000    0.000    0.000    0.000 
#    0.000    0.000    0.000    0.000    0.000    0.000 
#
# Total GULP energy -111767.416770 kJ/mol
# GULP energy per Si atom -5588.370838 kJ/mol
# Density = 2.516946 g / cm^3
# Si number density = 25.226878 Si / 1000 Ang^3
#
#
#
# Elastic Constant Matrix: (Units=GPa)
#
#
# Indices 1 2 3 4 5 6 
#
# 1 56.9227 6.4322 37.4394 0.0000 -1.5197 0.0000
# 2 6.4322 123.4385 48.8640 0.0000 -2.6870 0.0000
# 3 37.4394 48.8640 98.7998 0.0000 -13.7202 0.0000
# 4 0.0000 0.0000 0.0000 29.5182 0.0000 -7.6620
# 5 -1.5197 -2.6870 -13.7202 0.0000 50.1131 0.0000
# 6 0.0000 0.0000 0.0000 -7.6620 0.0000 45.8351
#
#
#
# Elastic Compliance Matrix: (Units=1/GPa)
#
#
# Indices 1 2 3 4 5 6 
#
# 1 0.024449 0.003064 -0.011076 0.000000 -0.002127 0.000000
# 2 0.003064 0.010493 -0.006507 0.000000 -0.001126 0.000000
# 3 -0.011076 -0.006507 0.018131 0.000000 0.004279 0.000000
# 4 0.000000 0.000000 0.000000 0.035414 0.000000 0.005920
# 5 -0.002127 -0.001126 0.004279 0.000000 0.021002 0.000000
# 6 0.000000 0.000000 0.000000 0.005920 0.000000 0.022807
#
#
# Mechanical properties :
#
#
# Convention : Reuss Voigt Hill
#
# Bulk Modulus (GPa) = 41.60413 51.62580 46.61496
# Shear Modulus (GPa) = 29.52555 37.52164 33.52360
#
# Velocity S-wave (km/s) = 3.42482 3.86082 3.64934
# Velocity P-wave (km/s) = 5.67160 6.35481 6.02290
#
# Compressibility (1/GPa) = 0.02403608
#
# Stress axis : x y z
#
# Youngs Moduli (GPa) = 40.90086 95.30286 55.15435
#
# Poissons Ratio (x) = -0.29201 0.61087
# Poissons Ratio (y) = -0.12532 0.35889
# Poissons Ratio (z) = 0.45300 0.62013
#
# Static dielectric constant tensor:
#      x y z
#    x 2.251800 0.000000 -0.020870 
#    y 0.000000 1.978960 0.000000 
#    z -0.020870 0.000000 2.089830 
# 
# From -- ./inp_files/73363.got.cif
#   From: 2010.05.17/outbox.cif.g08.bks.cpg/sg15_37_cif.got.tgz:73363.got - 2010.06.03 18:47:42.
