data_PCOD9299977
_publ_section_title
;
Structure prediction by ZEFSAII (Michael W. Deem and Ramdas Pophale) SiO2 
 PCOD9299977
Probable space group: C 2/C
;
_chemical_formula_sum "Si O2"
_cell_formula_units_Z 28
_cell_length_a 24.316171
_cell_length_b 6.640897
_cell_length_c 9.478471
_cell_angle_alpha 90.000000
_cell_angle_beta 40.762620
_cell_angle_gamma 90.000000
_cell_volume 999.366022
_symmetry_space_group_name_H-M "C 2/C"
_symmetry_group_IT_number 15
_symmetry_cell_setting 'monoclinic'
loop_
_space_group_symop_operation_xyz
x,y,z
-x,y,1/2-z
-x,-y,-z
x,-y,1/2+z
1/2+x,1/2+y,z
1/2-x,1/2+y,1/2-z
1/2-x,1/2-y,-z
1/2+x,1/2-y,1/2+z
loop_
_atom_site_type_symbol
_atom_site_label
_atom_site_fract_x
_atom_site_fract_y
_atom_site_fract_z
Si Si1 0.144161 0.521114 0.394684
Si Si2 0.500000 0.308744 0.750000
Si Si3 0.740003 0.515442 0.072366
Si Si4 0.048867 0.883699 0.992611
O O1 0.213255 0.459597 0.374698
O O2 0.081278 0.344413 0.467887
O O3 0.086027 0.684595 0.581611
O O4 0.202358 0.596320 0.154652
O O5 0.498309 0.360037 0.570175
O O6 0.640580 0.512370 0.289133
O O7 0.750000 0.750000 0.000000
O O8 0.000000 0.930204 0.250000
#
# Coordination Sequence:
#
# PCOD9299977 Si02
#       4
#     8   4   8   8
#     4  11  26  51  82 118 169 215 277 343 412 494
#     4  12  26  44  76 116 164 204 278 328 418 468
#     4  10  25  50  82 119 163 214 276 337 416 484
#     4  11  27  47  79 117 165 216 276 337 413 490
#
# _framework density 28.017762000000001
#
# number of rings (size 3 to 8) (size 9 to 14) (size 15 to 20)
#    0.000    1.143    0.000    4.286   12.000    8.000 
#    0.000    0.000    0.000    0.000    0.000    0.000 
#    0.000    0.000    0.000    0.000    0.000    0.000 
#
# Total GULP energy -78279.007676 kJ/mol
# GULP energy per Si atom -5591.357691 kJ/mol
# Density = 2.795399 g / cm^3
# Si number density = 28.017762 Si / 1000 Ang^3
#
#
#
# Elastic Constant Matrix: (Units=GPa)
#
#
# Indices 1 2 3 4 5 6 
#
# 1 225.0994 37.5675 87.6500 0.0000 -5.1082 0.0000
# 2 37.5675 124.3368 105.1732 0.0000 -15.6925 0.0000
# 3 87.6500 105.1732 321.0315 0.0000 -12.3906 0.0000
# 4 0.0000 0.0000 0.0000 96.6256 0.0000 -4.7254
# 5 -5.1082 -15.6925 -12.3906 0.0000 50.9963 0.0000
# 6 0.0000 0.0000 0.0000 -4.7254 0.0000 46.7351
#
#
#
# Elastic Compliance Matrix: (Units=1/GPa)
#
#
# Indices 1 2 3 4 5 6 
#
# 1 0.004993 -0.000484 -0.001202 0.000000 0.000059 0.000000
# 2 -0.000484 0.011515 -0.003538 0.000000 0.002635 0.000000
# 3 -0.001202 -0.003538 0.004599 0.000000 -0.000092 0.000000
# 4 0.000000 0.000000 0.000000 0.010401 0.000000 0.001052
# 5 0.000059 0.002635 -0.000092 0.000000 0.020404 0.000000
# 6 0.000000 0.000000 0.000000 0.001052 0.000000 0.021504
#
#
# Mechanical properties :
#
#
# Convention : Reuss Voigt Hill
#
# Bulk Modulus (GPa) = 93.83838 125.69433 109.76636
# Shear Modulus (GPa) = 57.19783 68.20986 62.70384
#
# Velocity S-wave (km/s) = 4.52318 4.93944 4.73589
# Velocity P-wave (km/s) = 7.80026 8.80287 8.31669
#
# Compressibility (1/GPa) = 0.01065662
#
# Stress axis : x y z
#
# Youngs Moduli (GPa) = 200.28992 86.84659 217.44387
#
# Poissons Ratio (x) = 0.04204 0.26143
# Poissons Ratio (y) = 0.09696 0.76941
# Poissons Ratio (z) = 0.24080 0.30730
#
# Static dielectric constant tensor:
#      x y z
#    x 2.040290 0.000000 0.146120 
#    y 0.000000 2.338170 0.000000 
#    z 0.146120 0.000000 2.108050 
# 
# From -- ./inp_files/36316.got.cif
#   From: 2010.05.17/outbox.cif.g08.bks.cpg/sg15_19_cif.got.tgz:36316.got - 2010.06.03 18:47:42.
