data_PCOD9299869
_publ_section_title
;
Structure prediction by ZEFSAII (Michael W. Deem and Ramdas Pophale) SiO2 
 PCOD9299869
Probable space group: C 2/C
;
_chemical_formula_sum "Si O2"
_cell_formula_units_Z 24
_cell_length_a 11.378494
_cell_length_b 9.411605
_cell_length_c 8.463218
_cell_angle_alpha 90.000000
_cell_angle_beta 77.790917
_cell_angle_gamma 90.000000
_cell_volume 885.826178
_symmetry_space_group_name_H-M "C 2/C"
_symmetry_group_IT_number 15
_symmetry_cell_setting 'monoclinic'
loop_
_space_group_symop_operation_xyz
x,y,z
-x,y,1/2-z
-x,-y,-z
x,-y,1/2+z
1/2+x,1/2+y,z
1/2-x,1/2+y,1/2-z
1/2-x,1/2-y,-z
1/2+x,1/2-y,1/2+z
loop_
_atom_site_type_symbol
_atom_site_label
_atom_site_fract_x
_atom_site_fract_y
_atom_site_fract_z
Si Si1 0.595949 0.104782 0.612678
Si Si2 0.923210 0.862698 0.560253
Si Si3 0.232488 0.055057 0.672702
O O1 0.500000 0.021316 0.750000
O O2 0.515279 0.235316 0.572026
O O3 0.662411 0.013267 0.463134
O O4 0.704980 0.139790 0.702496
O O5 0.842700 0.927761 0.725563
O O6 0.845882 0.846839 0.421512
O O7 0.000000 0.000000 0.500000
#
# Coordination Sequence:
#
# PCOD9299869 Si02
#       3
#     8   8   8
#     4  11  24  47  74 105 148 191 240 302 363 431
#     4  11  24  47  76 108 146 192 243 299 364 433
#     4  10  25  47  73 109 146 188 244 300 361 431
#
# _framework density 27.093351999999999
#
# number of rings (size 3 to 8) (size 9 to 14) (size 15 to 20)
#    0.000    1.333    0.000    4.000    0.000   13.333 
#    0.000   30.000    0.000    0.000    0.000    0.000 
#    0.000    0.000    0.000    0.000    0.000    0.000 
#
# Total GULP energy -67186.894654 kJ/mol
# GULP energy per Si atom -5598.907888 kJ/mol
# Density = 2.703169 g / cm^3
# Si number density = 27.093352 Si / 1000 Ang^3
#
#
#
# Elastic Constant Matrix: (Units=GPa)
#
#
# Indices 1 2 3 4 5 6 
#
# 1 207.0625 96.6479 72.6422 0.0000 70.2740 0.0000
# 2 96.6479 142.4656 57.6173 0.0000 7.5976 0.0000
# 3 72.6422 57.6173 135.0116 0.0000 11.8170 0.0000
# 4 0.0000 0.0000 0.0000 7.3721 0.0000 -2.9106
# 5 70.2740 7.5976 11.8170 0.0000 95.9052 0.0000
# 6 0.0000 0.0000 0.0000 -2.9106 0.0000 83.0876
#
#
#
# Elastic Compliance Matrix: (Units=1/GPa)
#
#
# Indices 1 2 3 4 5 6 
#
# 1 0.011083 -0.006014 -0.002757 0.000000 -0.007305 0.000000
# 2 -0.006014 0.011752 -0.002106 0.000000 0.003735 0.000000
# 3 -0.002757 -0.002106 0.009702 0.000000 0.000992 0.000000
# 4 0.000000 0.000000 0.000000 0.137548 0.000000 0.004818
# 5 -0.007305 0.003735 0.000992 0.000000 0.015361 0.000000
# 6 0.000000 0.000000 0.000000 0.004818 0.000000 0.012204
#
#
# Mechanical properties :
#
#
# Convention : Reuss Voigt Hill
#
# Bulk Modulus (GPa) = 92.74686 104.26163 98.50424
# Shear Modulus (GPa) = 22.42150 54.44846 38.43498
#
# Velocity S-wave (km/s) = 2.87986 4.48779 3.77053
# Velocity P-wave (km/s) = 6.73534 8.08824 7.44259
#
# Compressibility (1/GPa) = 0.01078204
#
# Stress axis : x y z
#
# Youngs Moduli (GPa) = 90.22848 85.09388 103.06746
#
# Poissons Ratio (x) = 0.51175 0.28418
# Poissons Ratio (y) = 0.54263 0.21709
# Poissons Ratio (z) = 0.24878 0.17923
#
# Static dielectric constant tensor:
#      x y z
#    x 2.307480 0.000000 0.152410 
#    y 0.000000 2.151770 0.000000 
#    z 0.152410 0.000000 2.295620 
# 
# From -- ./inp_files/83142.got.cif
#   From: 2010.05.17/outbox.cif.g08.bks.cpg/sg15_42_cif.got.tgz:83142.got - 2010.06.03 18:47:42.
