data_PCOD9299866
_publ_section_title
;
Structure prediction by ZEFSAII (Michael W. Deem and Ramdas Pophale) SiO2 
 PCOD9299866
Probable space group: C 2/C
;
_chemical_formula_sum "Si O2"
_cell_formula_units_Z 36
_cell_length_a 12.045603
_cell_length_b 13.537716
_cell_length_c 10.415512
_cell_angle_alpha 90.000000
_cell_angle_beta 116.172532
_cell_angle_gamma 90.000000
_cell_volume 1524.314123
_symmetry_space_group_name_H-M "C 2/C"
_symmetry_group_IT_number 15
_symmetry_cell_setting 'monoclinic'
loop_
_space_group_symop_operation_xyz
x,y,z
-x,y,1/2-z
-x,-y,-z
x,-y,1/2+z
1/2+x,1/2+y,z
1/2-x,1/2+y,1/2-z
1/2-x,1/2-y,-z
1/2+x,1/2-y,1/2+z
loop_
_atom_site_type_symbol
_atom_site_label
_atom_site_fract_x
_atom_site_fract_y
_atom_site_fract_z
Si Si1 0.969942 0.215124 0.950254
Si Si2 0.500000 0.780090 0.250000
Si Si3 0.933120 0.559651 0.353259
Si Si4 0.922424 0.964327 0.085346
Si Si5 0.262199 0.919590 0.145232
O O1 0.942912 0.325866 0.892941
O O2 0.845041 0.153186 0.861904
O O3 0.077753 0.154611 0.932174
O O4 0.999969 0.219187 0.117725
O O5 0.379549 0.850016 0.181385
O O6 0.802255 0.506165 0.262424
O O7 0.000000 0.548177 0.250000
O O8 0.000000 0.500000 0.500000
O O9 0.000000 0.989064 0.250000
O O10 0.794201 0.022153 0.005267
O O11 0.000000 0.000000 0.000000
#
# Coordination Sequence:
#
# PCOD9299866 Si02
#       5
#     8   4   8   8   8
#     4  11  26  45  72 105 148 186 247 289 360 429
#     4  12  24  46  70 110 142 192 238 298 364 422
#     4  12  25  46  71 107 148 182 237 298 363 423
#     4  10  25  47  73 107 142 188 243 294 356 426
#     4  11  25  46  76 103 146 193 238 298 361 429
#
# _framework density 23.617179
#
# number of rings (size 3 to 8) (size 9 to 14) (size 15 to 20)
#    0.000    0.889    3.333    1.333    9.333    7.111 
#    0.000    3.333    0.000    0.000    0.000    0.000 
#    0.000    0.000    0.000    0.000    0.000    0.000 
#
# Total GULP energy -100681.634239 kJ/mol
# GULP energy per Si atom -5593.424124 kJ/mol
# Density = 2.356343 g / cm^3
# Si number density = 23.617179 Si / 1000 Ang^3
#
#
#
# Elastic Constant Matrix: (Units=GPa)
#
#
# Indices 1 2 3 4 5 6 
#
# 1 65.1650 24.4469 44.8658 0.0000 -5.1229 0.0000
# 2 24.4469 178.3447 62.5929 0.0000 8.1128 0.0000
# 3 44.8658 62.5929 200.6505 0.0000 -12.0378 0.0000
# 4 0.0000 0.0000 0.0000 46.1282 0.0000 13.3164
# 5 -5.1229 8.1128 -12.0378 0.0000 47.0774 0.0000
# 6 0.0000 0.0000 0.0000 13.3164 0.0000 40.7206
#
#
#
# Elastic Compliance Matrix: (Units=1/GPa)
#
#
# Indices 1 2 3 4 5 6 
#
# 1 0.018444 -0.001311 -0.003637 0.000000 0.001303 0.000000
# 2 -0.001311 0.006512 -0.001843 0.000000 -0.001736 0.000000
# 3 -0.003637 -0.001843 0.006466 0.000000 0.001575 0.000000
# 4 0.000000 0.000000 0.000000 0.023939 0.000000 -0.007828
# 5 0.001303 -0.001736 0.001575 0.000000 0.022085 0.000000
# 6 0.000000 0.000000 0.000000 -0.007828 0.000000 0.027118
#
#
# Mechanical properties :
#
#
# Convention : Reuss Voigt Hill
#
# Bulk Modulus (GPa) = 56.04875 78.66348 67.35611
# Shear Modulus (GPa) = 40.29244 47.60221 43.94733
#
# Velocity S-wave (km/s) = 4.13494 4.49439 4.31840
# Velocity P-wave (km/s) = 6.82500 7.76613 7.31072
#
# Compressibility (1/GPa) = 0.01784161
#
# Stress axis : x y z
#
# Youngs Moduli (GPa) = 54.21826 153.55105 154.64774
#
# Poissons Ratio (x) = 0.20132 0.56244
# Poissons Ratio (y) = 0.07108 0.28495
# Poissons Ratio (z) = 0.19719 0.28293
#
# Static dielectric constant tensor:
#      x y z
#    x 2.015700 0.000000 0.012730 
#    y 0.000000 1.945400 0.000000 
#    z 0.012730 0.000000 1.883210 
# 
# From -- ./inp_files/97263.got.cif
#   From: 2010.05.17/outbox.cif.g08.bks.cpg/sg15_49_cif.got.tgz:97263.got - 2010.06.03 18:47:42.
