data_PCOD9299840
_publ_section_title
;
Structure prediction by ZEFSAII (Michael W. Deem and Ramdas Pophale) SiO2 
 PCOD9299840
Probable space group: C 2/C
;
_chemical_formula_sum "Si O2"
_cell_formula_units_Z 40
_cell_length_a 14.412057
_cell_length_b 13.949621
_cell_length_c 19.294915
_cell_angle_alpha 90.000000
_cell_angle_beta 151.794598
_cell_angle_gamma 90.000000
_cell_volume 1833.395140
_symmetry_space_group_name_H-M "C 2/C"
_symmetry_group_IT_number 15
_symmetry_cell_setting 'monoclinic'
loop_
_space_group_symop_operation_xyz
x,y,z
-x,y,1/2-z
-x,-y,-z
x,-y,1/2+z
1/2+x,1/2+y,z
1/2-x,1/2+y,1/2-z
1/2-x,1/2-y,-z
1/2+x,1/2-y,1/2+z
loop_
_atom_site_type_symbol
_atom_site_label
_atom_site_fract_x
_atom_site_fract_y
_atom_site_fract_z
Si Si1 0.107543 0.552807 0.511555
Si Si2 0.183176 0.482525 0.916953
Si Si3 0.030598 0.149348 0.696306
Si Si4 0.817713 0.272887 0.828897
Si Si5 0.136123 0.811380 0.985984
O O1 0.096585 0.492694 0.434963
O O2 0.329108 0.566477 0.681921
O O3 0.000000 0.500000 0.500000
O O4 0.992175 0.652206 0.427810
O O5 0.284402 0.579613 0.957862
O O6 0.000000 0.453011 0.750000
O O7 0.335034 0.396324 0.034028
O O8 0.150604 0.199170 0.713755
O O9 0.000000 0.206112 0.750000
O O10 0.597228 0.313514 0.681226
O O11 0.839261 0.233187 0.921040
O O12 0.250000 0.750000 0.000000
#
# Coordination Sequence:
#
# PCOD9299840 Si02
#       5
#     8   8   8   8   8
#     4  11  24  44  69 101 142 188 235 285 369 424
#     4  11  26  43  72 104 143 182 234 305 347 422
#     4  10  25  47  68 103 143 184 238 291 361 428
#     4  12  25  45  75 101 142 190 237 294 355 434
#     4  12  26  46  70 106 144 184 241 296 360 425
#
# _framework density 21.817446
#
# number of rings (size 3 to 8) (size 9 to 14) (size 15 to 20)
#    0.000    0.800    2.000    4.200    5.600    8.000 
#    0.000    0.000    0.000    0.000    0.000    0.000 
#    0.000    0.000    0.000    0.000    0.000    0.000 
#
# Total GULP energy -111667.211825 kJ/mol
# GULP energy per Si atom -5583.360591 kJ/mol
# Density = 2.176779 g / cm^3
# Si number density = 21.817446 Si / 1000 Ang^3
#
#
#
# Elastic Constant Matrix: (Units=GPa)
#
#
# Indices 1 2 3 4 5 6 
#
# 1 103.1038 4.8890 37.0113 0.0019 8.1092 0.0024
# 2 4.8890 45.2533 31.4316 0.0044 7.1079 0.0073
# 3 37.0113 31.4316 180.8608 0.0069 12.9484 0.0079
# 4 0.0019 0.0044 0.0069 3.5444 0.0027 -41.8473
# 5 8.1092 7.1079 12.9484 0.0027 38.8164 -0.0008
# 6 0.0024 0.0073 0.0079 -41.8473 -0.0008 -142.4659
#
#
#
# Elastic Compliance Matrix: (Units=1/GPa)
#
#
# Indices 1 2 3 4 5 6 
#
# 1 0.010569 0.000605 -0.002153 0.000000 -0.001600 0.000000
# 2 0.000605 0.025566 -0.004326 -0.000002 -0.003365 0.000002
# 3 -0.002153 -0.004326 0.006795 -0.000001 -0.001025 0.000000
# 4 0.000000 -0.000002 -0.000001 0.063146 -0.000004 -0.018548
# 5 -0.001600 -0.003365 -0.001025 -0.000004 0.027055 0.000001
# 6 0.000000 0.000002 0.000000 -0.018548 0.000001 -0.001571
#
#
# Mechanical properties :
#
#
# Convention : Reuss Voigt Hill
#
# Bulk Modulus (GPa) = 32.07041 52.87574 42.47307
# Shear Modulus (GPa) = 32.53064 -2.96195 14.78434
#
# Velocity S-wave (km/s) = 3.86558 -1.16643 2.60597
# Velocity P-wave (km/s) = 5.88685 4.74068 5.34458
#
# Compressibility (1/GPa) = 0.03118139
#
# Stress axis : x y z
#
# Youngs Moduli (GPa) = 94.61469 39.11503 147.16786
#
# Poissons Ratio (x) = -0.02368 0.31692
# Poissons Ratio (y) = -0.05727 0.63665
# Poissons Ratio (z) = 0.20375 0.16921
#
# Static dielectric constant tensor:
#      x y z
#    x 1.850960 0.000000 -0.032130 
#    y 0.000000 1.780290 0.000000 
#    z -0.032130 0.000000 1.737460 
# 
# From -- ./inp_files/205829.got.cif
#   From: 2010.05.17/outbox.cif.g08.bks.cpg/sg15_103_cif.got.tgz:205829.got - 2010.06.03 18:47:42.
