data_PCOD9299119
_publ_section_title
;
Structure prediction by ZEFSAII (Michael W. Deem and Ramdas Pophale) SiO2 
 PCOD9299119
Probable space group: C 2/C
;
_chemical_formula_sum "Si O2"
_cell_formula_units_Z 44
_cell_length_a 13.143229
_cell_length_b 24.552978
_cell_length_c 7.480584
_cell_angle_alpha 90.000000
_cell_angle_beta 57.439337
_cell_angle_gamma 90.000000
_cell_volume 2034.593567
_symmetry_space_group_name_H-M "C 2/C"
_symmetry_group_IT_number 15
_symmetry_cell_setting 'monoclinic'
loop_
_space_group_symop_operation_xyz
x,y,z
-x,y,1/2-z
-x,-y,-z
x,-y,1/2+z
1/2+x,1/2+y,z
1/2-x,1/2+y,1/2-z
1/2-x,1/2-y,-z
1/2+x,1/2-y,1/2+z
loop_
_atom_site_type_symbol
_atom_site_label
_atom_site_fract_x
_atom_site_fract_y
_atom_site_fract_z
Si Si1 0.687531 0.339119 0.805702
Si Si2 0.540727 0.805961 0.919184
Si Si3 0.248486 0.550736 0.400577
Si Si4 0.500000 0.102983 0.750000
Si Si5 0.500000 0.364495 0.250000
Si Si6 0.000000 0.785709 0.750000
Si Si7 0.389055 0.542516 0.615016
O O1 0.814501 0.310478 0.708013
O O2 0.718050 0.403598 0.776158
O O3 0.616914 0.321462 0.692404
O O4 0.598038 0.329796 0.053655
O O5 0.500000 0.806190 0.750000
O O6 0.488326 0.857056 0.087265
O O7 0.512307 0.753398 0.066680
O O8 0.347005 0.558506 0.460456
O O9 0.275335 0.490317 0.305665
O O10 0.117261 0.566067 0.600191
O O11 0.568593 0.404936 0.319499
O O12 0.500000 0.500000 0.500000
#
# Coordination Sequence:
#
# PCOD9299119 Si02
#       7
#     8   8   8   4   4   4   8
#     4  11  24  42  67  96 128 168 215 264 319 392
#     4  10  24  47  67  95 130 167 212 267 326 386
#     4  11  22  41  62  90 130 170 213 264 314 376
#     4   9  24  44  66  91 128 177 214 260 320 379
#     4  12  24  37  62  99 122 171 212 259 324 368
#     4  11  24  45  68  98 128 164 210 271 330 383
#     4  12  21  37  61  91 131 165 208 268 315 363
#
# _framework density 21.625941000000001
#
# number of rings (size 3 to 8) (size 9 to 14) (size 15 to 20)
#    0.000    1.091    3.636    1.636    3.818    1.455 
#    3.273    0.000    0.000    0.000    0.000    0.000 
#    0.000    0.000    0.000    0.000    0.000    0.000 
#
# Total GULP energy -122904.764051 kJ/mol
# GULP energy per Si atom -5586.580184 kJ/mol
# Density = 2.157672 g / cm^3
# Si number density = 21.625941 Si / 1000 Ang^3
#
#
#
# Elastic Constant Matrix: (Units=GPa)
#
#
# Indices 1 2 3 4 5 6 
#
# 1 96.7127 12.6011 29.1722 0.0000 -0.2512 0.0000
# 2 12.6011 42.7927 19.8477 0.0000 -13.1682 0.0000
# 3 29.1722 19.8477 119.3133 0.0000 -13.4278 0.0000
# 4 0.0000 0.0000 0.0000 18.5136 0.0000 8.4489
# 5 -0.2512 -13.1682 -13.4278 0.0000 47.6684 0.0000
# 6 0.0000 0.0000 0.0000 8.4489 0.0000 56.1326
#
#
#
# Elastic Compliance Matrix: (Units=1/GPa)
#
#
# Indices 1 2 3 4 5 6 
#
# 1 0.011437 -0.002624 -0.002514 0.000000 -0.001373 0.000000
# 2 -0.002624 0.027702 -0.003209 0.000000 0.006735 0.000000
# 3 -0.002514 -0.003209 0.009737 0.000000 0.001843 0.000000
# 4 0.000000 0.000000 0.000000 0.057998 0.000000 -0.008730
# 5 -0.001373 0.006735 0.001843 0.000000 0.023351 0.000000
# 6 0.000000 0.000000 0.000000 -0.008730 0.000000 0.019129
#
#
# Mechanical properties :
#
#
# Convention : Reuss Voigt Hill
#
# Bulk Modulus (GPa) = 31.07347 42.45119 36.76233
# Shear Modulus (GPa) = 28.28455 37.60942 32.94699
#
# Velocity S-wave (km/s) = 3.62041 4.17476 3.90743
# Velocity P-wave (km/s) = 5.64591 6.55061 6.11502
#
# Compressibility (1/GPa) = 0.03218179
#
# Stress axis : x y z
#
# Youngs Moduli (GPa) = 87.43828 36.09867 102.69852
#
# Poissons Ratio (x) = 0.09472 0.25821
# Poissons Ratio (y) = 0.22944 0.32952
# Poissons Ratio (z) = 0.21984 0.11583
#
# Static dielectric constant tensor:
#      x y z
#    x 1.760950 0.000000 0.013270 
#    y 0.000000 1.834000 0.000000 
#    z 0.013270 0.000000 1.879310 
# 
# From -- ./inp_files/32476.got.cif
#   From: 2010.05.17/outbox.cif.g08.bks.cpg/sg15_17_cif.got.tgz:32476.got - 2010.06.03 18:47:42.
