data_PCOD9299925
_publ_section_title
;
Structure prediction by ZEFSAII (Michael W. Deem and Ramdas Pophale) SiO2 
 PCOD9299925
Probable space group: C 2/C
;
_chemical_formula_sum "Si O2"
_cell_formula_units_Z 40
_cell_length_a 9.347306
_cell_length_b 18.099573
_cell_length_c 10.236826
_cell_angle_alpha 90.000000
_cell_angle_beta 102.263608
_cell_angle_gamma 90.000000
_cell_volume 1692.368703
_symmetry_space_group_name_H-M "C 2/C"
_symmetry_group_IT_number 15
_symmetry_cell_setting 'monoclinic'
loop_
_space_group_symop_operation_xyz
x,y,z
-x,y,1/2-z
-x,-y,-z
x,-y,1/2+z
1/2+x,1/2+y,z
1/2-x,1/2+y,1/2-z
1/2-x,1/2-y,-z
1/2+x,1/2-y,1/2+z
loop_
_atom_site_type_symbol
_atom_site_label
_atom_site_fract_x
_atom_site_fract_y
_atom_site_fract_z
Si Si1 0.365373 0.552952 0.445155
Si Si2 0.711647 0.784606 0.299183
Si Si3 0.634029 0.858505 0.016327
Si Si4 0.392278 0.934788 0.109380
Si Si5 0.500000 0.656871 0.250000
Si Si6 0.000000 0.725960 0.250000
O O1 0.500000 0.500000 0.500000
O O2 0.296317 0.606498 0.541366
O O3 0.228931 0.497360 0.403741
O O4 0.417046 0.604544 0.336653
O O5 0.685246 0.855827 0.382089
O O6 0.625480 0.711918 0.329630
O O7 0.881888 0.770328 0.310865
O O8 0.640300 0.805153 0.143175
O O9 0.596147 0.820169 0.872500
O O10 0.504099 0.918212 0.012787
O O11 0.500000 0.948400 0.250000
#
# Coordination Sequence:
#
# PCOD9299925 Si02
#       6
#     8   8   8   8   4   4
#     4  12  30  43  74 110 153 189 246 312 367 447
#     4  11  25  48  74 107 146 194 250 309 359 445
#     4  11  25  48  72 106 144 197 250 293 380 435
#     4  10  25  48  76 101 150 199 243 299 377 451
#     4  12  26  49  71 110 146 184 248 304 366 427
#     4  12  26  39  79 102 146 190 246 314 356 437
#
# _framework density 23.635511000000001
#
# number of rings (size 3 to 8) (size 9 to 14) (size 15 to 20)
#    0.000    0.800    5.000    1.200   12.600    0.800 
#    0.000    0.000    0.000    0.000    0.000    0.000 
#    0.000    0.000    0.000    0.000    0.000    0.000 
#
# Total GULP energy -111849.227888 kJ/mol
# GULP energy per Si atom -5592.461394 kJ/mol
# Density = 2.358172 g / cm^3
# Si number density = 23.635511 Si / 1000 Ang^3
#
#
#
# Elastic Constant Matrix: (Units=GPa)
#
#
# Indices 1 2 3 4 5 6 
#
# 1 201.3707 68.9089 9.8188 0.0000 -26.2371 0.0000
# 2 68.9089 112.4487 24.0352 0.0000 -16.8714 0.0000
# 3 9.8188 24.0352 40.7679 0.0000 -12.2010 0.0000
# 4 0.0000 0.0000 0.0000 361.3771 0.0000 -158.5506
# 5 -26.2371 -16.8714 -12.2010 0.0000 40.2417 0.0000
# 6 0.0000 0.0000 0.0000 -158.5506 0.0000 136.6000
#
#
#
# Elastic Compliance Matrix: (Units=1/GPa)
#
#
# Indices 1 2 3 4 5 6 
#
# 1 0.006654 -0.003960 0.001686 0.000000 0.003190 0.000000
# 2 -0.003960 0.012804 -0.006336 0.000000 0.000865 0.000000
# 3 0.001686 -0.006336 0.030126 0.000000 0.007577 0.000000
# 4 0.000000 0.000000 0.000000 0.005639 0.000000 0.006545
# 5 0.003190 0.000865 0.007577 0.000000 0.029590 0.000000
# 6 0.000000 0.000000 0.000000 0.006545 0.000000 0.014917
#
#
# Mechanical properties :
#
#
# Convention : Reuss Voigt Hill
#
# Bulk Modulus (GPa) = 30.89690 62.23479 46.56584
# Shear Modulus (GPa) = 39.14327 124.43207 81.78767
#
# Velocity S-wave (km/s) = 4.07396 7.26364 5.88887
# Velocity P-wave (km/s) = 5.93550 9.83542 8.12298
#
# Compressibility (1/GPa) = 0.03236571
#
# Stress axis : x y z
#
# Youngs Moduli (GPa) = 150.27791 78.10359 33.19389
#
# Poissons Ratio (x) = 0.30927 -0.05598
# Poissons Ratio (y) = 0.59505 0.21031
# Poissons Ratio (z) = -0.25343 0.49485
#
# Static dielectric constant tensor:
#      x y z
#    x 1.496030 0.000000 -0.026050 
#    y 0.000000 1.948460 0.000000 
#    z -0.026050 0.000000 1.878530 
# 
# From -- ./inp_files/76945.got.cif
#   From: 2010.05.17/outbox.cif.g08.bks.cpg/sg15_39_cif.got.tgz:76945.got - 2010.06.03 18:47:42.
