data_PCOD9299959
_publ_section_title
;
Structure prediction by ZEFSAII (Michael W. Deem and Ramdas Pophale) SiO2 
 PCOD9299959
Probable space group: C 2/C
;
_chemical_formula_sum "Si O2"
_cell_formula_units_Z 20
_cell_length_a 5.765809
_cell_length_b 25.811918
_cell_length_c 5.343392
_cell_angle_alpha 90.000000
_cell_angle_beta 92.177446
_cell_angle_gamma 90.000000
_cell_volume 794.664603
_symmetry_space_group_name_H-M "C 2/C"
_symmetry_group_IT_number 15
_symmetry_cell_setting 'monoclinic'
loop_
_space_group_symop_operation_xyz
x,y,z
-x,y,1/2-z
-x,-y,-z
x,-y,1/2+z
1/2+x,1/2+y,z
1/2-x,1/2+y,1/2-z
1/2-x,1/2-y,-z
1/2+x,1/2-y,1/2+z
loop_
_atom_site_type_symbol
_atom_site_label
_atom_site_fract_x
_atom_site_fract_y
_atom_site_fract_z
Si Si1 0.846683 0.808198 0.992975
Si Si2 0.000000 0.390508 0.750000
Si Si3 0.107131 0.058191 0.502165
O O1 0.646489 0.850905 0.931620
O O2 0.000000 0.809346 0.750000
O O3 0.750000 0.750000 0.000000
O O4 0.000000 0.815094 0.250000
O O5 0.127720 0.429554 0.555405
O O6 0.000000 0.079843 0.750000
O O7 0.000000 0.000000 0.500000
O O8 0.000000 0.082611 0.250000
#
# Coordination Sequence:
#
# PCOD9299959 Si02
#       3
#     8   4   8
#     4  12  28  51  78 116 162 213 269 331 403 482
#     4  12  28  48  84 118 166 216 266 340 404 478
#     4  10  25  49  76 115 157 207 275 330 400 479
#
# _framework density 25.167850000000001
#
# number of rings (size 3 to 8) (size 9 to 14) (size 15 to 20)
#    0.000    0.800    2.000    2.400    0.000   17.600 
#    0.000    0.000    0.000    2.400    0.000    0.000 
#    0.000    0.000    0.000    0.000    0.000    0.000 
#
# Total GULP energy -55769.970570 kJ/mol
# GULP energy per Si atom -5576.997057 kJ/mol
# Density = 2.511057 g / cm^3
# Si number density = 25.167850 Si / 1000 Ang^3
#
#
#
# Elastic Constant Matrix: (Units=GPa)
#
#
# Indices 1 2 3 4 5 6 
#
# 1 128.9263 103.4879 90.7912 0.0000 -19.8718 0.0000
# 2 103.4879 259.5993 55.1986 0.0000 -15.6528 0.0000
# 3 90.7912 55.1986 286.0323 0.0000 -12.9030 0.0000
# 4 0.0000 0.0000 0.0000 28.2565 0.0000 -26.2530
# 5 -19.8718 -15.6528 -12.9030 0.0000 74.5469 0.0000
# 6 0.0000 0.0000 0.0000 -26.2530 0.0000 75.3793
#
#
#
# Elastic Compliance Matrix: (Units=1/GPa)
#
#
# Indices 1 2 3 4 5 6 
#
# 1 0.014556 -0.004909 -0.003572 0.000000 0.002231 0.000000
# 2 -0.004909 0.005710 0.000455 0.000000 -0.000031 0.000000
# 3 -0.003572 0.000455 0.004539 0.000000 -0.000071 0.000000
# 4 0.000000 0.000000 0.000000 0.052320 0.000000 0.018222
# 5 0.002231 -0.000031 -0.000071 0.000000 0.013990 0.000000
# 6 0.000000 0.000000 0.000000 0.018222 0.000000 0.019613
#
#
# Mechanical properties :
#
#
# Convention : Reuss Voigt Hill
#
# Bulk Modulus (GPa) = 114.24797 130.39039 122.31918
# Shear Modulus (GPa) = 38.55090 63.97521 51.26306
#
# Velocity S-wave (km/s) = 3.91801 5.04724 4.51804
# Velocity P-wave (km/s) = 8.12162 9.26752 8.71343
#
# Compressibility (1/GPa) = 0.00875289
#
# Stress axis : x y z
#
# Youngs Moduli (GPa) = 68.69994 175.12131 220.30815
#
# Poissons Ratio (x) = 0.85959 0.78703
# Poissons Ratio (y) = 0.33722 -0.10017
# Poissons Ratio (z) = 0.24543 -0.07963
#
# Static dielectric constant tensor:
#      x y z
#    x 2.868480 0.000000 -0.182500 
#    y 0.000000 3.324620 0.000000 
#    z -0.182500 0.000000 2.073380 
# 
# From -- ./inp_files/506.got.cif
#   From: 2010.05.17/outbox.cif.g08.bks.cpg/sg15_1_cif.got.tgz:506.got - 2010.06.03 18:47:42.
