data_PCOD9299368
_publ_section_title
;
Structure prediction by ZEFSAII (Michael W. Deem and Ramdas Pophale) SiO2 
 PCOD9299368
Probable space group: C 2/C
;
_chemical_formula_sum "Si O2"
_cell_formula_units_Z 64
_cell_length_a 30.934799
_cell_length_b 16.253392
_cell_length_c 12.974497
_cell_angle_alpha 90.000000
_cell_angle_beta 22.124736
_cell_angle_gamma 90.000000
_cell_volume 2456.914814
_symmetry_space_group_name_H-M "C 2/C"
_symmetry_group_IT_number 15
_symmetry_cell_setting 'monoclinic'
loop_
_space_group_symop_operation_xyz
x,y,z
-x,y,1/2-z
-x,-y,-z
x,-y,1/2+z
1/2+x,1/2+y,z
1/2-x,1/2+y,1/2-z
1/2-x,1/2-y,-z
1/2+x,1/2-y,1/2+z
loop_
_atom_site_type_symbol
_atom_site_label
_atom_site_fract_x
_atom_site_fract_y
_atom_site_fract_z
Si Si1 0.365846 0.706999 0.277215
Si Si2 0.279085 0.901834 0.259724
Si Si3 0.732015 0.978616 0.902043
Si Si4 0.226737 0.777409 0.209419
Si Si5 0.463848 0.578480 0.946518
Si Si6 0.604438 0.030591 0.372353
Si Si7 0.085948 0.666948 0.667946
Si Si8 0.165400 0.870761 0.142139
O O1 0.250000 0.750000 0.500000
O O2 0.324233 0.629760 0.439460
O O3 0.438549 0.769169 0.185950
O O4 0.424929 0.672921 0.045956
O O5 0.294458 0.823859 0.150903
O O6 0.249122 0.971709 0.243255
O O7 0.380957 0.942465 0.102669
O O8 0.848323 0.975870 0.711177
O O9 0.699143 0.885691 0.946417
O O10 0.624588 0.014373 0.205674
O O11 0.173512 0.842626 0.244649
O O12 0.278370 0.921258 0.863684
O O13 0.313486 0.716626 0.961052
O O14 0.500000 0.561909 0.750000
O O15 0.560139 0.580264 0.822696
O O16 0.508012 0.093966 0.623052
O O17 0.124275 0.723574 0.487212
#
# Coordination Sequence:
#
# PCOD9299368 Si02
#       8
#     8   8   8   8   8   8   8   8
#     4  11  24  49  77 113 157 210 263 326 391 484
#     4  11  24  47  78 112 161 202 262 322 399 475
#     4  12  25  50  74 114 159 203 259 328 405 475
#     4  10  24  49  76 112 162 211 267 331 394 488
#     4  12  26  48  76 108 151 205 260 322 395 469
#     4  12  25  49  78 114 159 206 262 334 396 477
#     4  11  25  47  81 113 158 210 265 326 405 471
#     4  11  26  48  76 111 158 203 271 324 398 475
#
# _framework density 26.048929999999999
#
# number of rings (size 3 to 8) (size 9 to 14) (size 15 to 20)
#    0.000    0.750    3.750    2.625    5.250    2.500 
#    4.500    1.250    0.000    0.000    0.000    0.000 
#    0.000    0.000    0.000    0.000    0.000    0.000 
#
# Total GULP energy -178865.843351 kJ/mol
# GULP energy per Si atom -5589.557605 kJ/mol
# Density = 2.598964 g / cm^3
# Si number density = 26.048930 Si / 1000 Ang^3
#
#
#
# Elastic Constant Matrix: (Units=GPa)
#
#
# Indices 1 2 3 4 5 6 
#
# 1 113.6195 44.4468 54.3303 0.0000 8.5354 0.0000
# 2 44.4468 115.9173 43.0665 0.0000 15.0112 0.0000
# 3 54.3303 43.0665 98.4510 0.0000 -3.4018 0.0000
# 4 0.0000 0.0000 0.0000 49.9305 0.0000 4.4429
# 5 8.5354 15.0112 -3.4018 0.0000 41.0991 0.0000
# 6 0.0000 0.0000 0.0000 4.4429 0.0000 73.7290
#
#
#
# Elastic Compliance Matrix: (Units=1/GPa)
#
#
# Indices 1 2 3 4 5 6 
#
# 1 0.012823 -0.002338 -0.006134 0.000000 -0.002317 0.000000
# 2 -0.002338 0.011484 -0.003873 0.000000 -0.004029 0.000000
# 3 -0.006134 -0.003873 0.015373 0.000000 0.003961 0.000000
# 4 0.000000 0.000000 0.000000 0.020136 0.000000 -0.001213
# 5 -0.002317 -0.004029 0.003961 0.000000 0.026612 0.000000
# 6 0.000000 0.000000 0.000000 -0.001213 0.000000 0.013636
#
#
# Mechanical properties :
#
#
# Convention : Reuss Voigt Hill
#
# Bulk Modulus (GPa) = 66.70430 67.96390 67.33410
# Shear Modulus (GPa) = 38.53577 45.36134 41.94856
#
# Velocity S-wave (km/s) = 3.85042 4.17752 4.01730
# Velocity P-wave (km/s) = 6.74022 7.02968 6.88647
#
# Compressibility (1/GPa) = 0.01499154
#
# Stress axis : x y z
#
# Youngs Moduli (GPa) = 77.98546 87.07885 65.04869
#
# Poissons Ratio (x) = 0.20358 0.39899
# Poissons Ratio (y) = 0.18232 0.25191
# Poissons Ratio (z) = 0.47834 0.33722
#
# Static dielectric constant tensor:
#      x y z
#    x 2.158920 0.000000 -0.054110 
#    y 0.000000 2.081860 0.000000 
#    z -0.054110 0.000000 2.052150 
# 
# From -- ./inp_files/127295.got.cif
#   From: 2010.05.17/outbox.cif.g08.bks.cpg/sg15_64_cif.got.tgz:127295.got - 2010.06.03 18:47:42.
