data_PCOD9299010
_publ_section_title
;
Structure prediction by ZEFSAII (Michael W. Deem and Ramdas Pophale) SiO2 
 PCOD9299010
Probable space group: C 2/C
;
_chemical_formula_sum "Si O2"
_cell_formula_units_Z 24
_cell_length_a 11.428745
_cell_length_b 7.794230
_cell_length_c 10.101514
_cell_angle_alpha 90.000000
_cell_angle_beta 64.796561
_cell_angle_gamma 90.000000
_cell_volume 814.163333
_symmetry_space_group_name_H-M "C 2/C"
_symmetry_group_IT_number 15
_symmetry_cell_setting 'monoclinic'
loop_
_space_group_symop_operation_xyz
x,y,z
-x,y,1/2-z
-x,-y,-z
x,-y,1/2+z
1/2+x,1/2+y,z
1/2-x,1/2+y,1/2-z
1/2-x,1/2-y,-z
1/2+x,1/2-y,1/2+z
loop_
_atom_site_type_symbol
_atom_site_label
_atom_site_fract_x
_atom_site_fract_y
_atom_site_fract_z
Si Si1 0.028726 0.307943 0.433799
Si Si2 0.764825 0.703805 0.159567
Si Si3 0.134509 0.865996 0.141218
O O1 0.126920 0.294872 0.261588
O O2 0.108886 0.205811 0.508996
O O3 0.000000 0.500000 0.500000
O O4 0.881463 0.226477 0.508705
O O5 0.838964 0.715100 0.265677
O O6 0.735270 0.513655 0.124411
O O7 0.000000 0.947333 0.250000
#
# Coordination Sequence:
#
# PCOD9299010 Si02
#       3
#     8   8   8
#     4  11  24  48  81 111 154 206 255 311 384 460
#     4  11  23  46  78 111 153 200 255 315 380 451
#     4  10  24  46  73 114 152 193 258 314 376 461
#
# _framework density 29.478114000000001
#
# number of rings (size 3 to 8) (size 9 to 14) (size 15 to 20)
#    0.000    1.333    3.333    1.000    0.000    5.333 
#    6.000    3.333    0.000    0.000    0.000    0.000 
#    0.000    0.000    0.000    0.000    0.000    0.000 
#
# Total GULP energy -67086.894694 kJ/mol
# GULP energy per Si atom -5590.574558 kJ/mol
# Density = 2.941102 g / cm^3
# Si number density = 29.478114 Si / 1000 Ang^3
#
#
#
# Elastic Constant Matrix: (Units=GPa)
#
#
# Indices 1 2 3 4 5 6 
#
# 1 186.3483 80.9999 101.8381 0.0000 -53.2926 0.0000
# 2 80.9999 150.5210 39.8328 0.0000 8.3454 0.0000
# 3 101.8381 39.8328 239.1246 0.0000 -49.8000 0.0000
# 4 0.0000 0.0000 0.0000 31.0629 0.0000 -6.1583
# 5 -53.2926 8.3454 -49.8000 0.0000 74.2653 0.0000
# 6 0.0000 0.0000 0.0000 -6.1583 0.0000 74.2882
#
#
#
# Elastic Compliance Matrix: (Units=1/GPa)
#
#
# Indices 1 2 3 4 5 6 
#
# 1 0.011196 -0.005808 -0.002315 0.000000 0.007135 0.000000
# 2 -0.005808 0.010179 -0.000381 0.000000 -0.005568 0.000000
# 3 -0.002315 -0.000381 0.005689 0.000000 0.002196 0.000000
# 4 0.000000 0.000000 0.000000 0.032731 0.000000 0.002713
# 5 0.007135 -0.005568 0.002196 0.000000 0.020684 0.000000
# 6 0.000000 0.000000 0.000000 0.002713 0.000000 0.013686
#
#
# Mechanical properties :
#
#
# Convention : Reuss Voigt Hill
#
# Bulk Modulus (GPa) = 99.45383 113.48171 106.46777
# Shear Modulus (GPa) = 43.65855 59.47816 51.56836
#
# Velocity S-wave (km/s) = 3.85262 4.49676 4.18709
# Velocity P-wave (km/s) = 7.32131 8.09578 7.71827
#
# Compressibility (1/GPa) = 0.01005492
#
# Stress axis : x y z
#
# Youngs Moduli (GPa) = 89.31382 98.24376 175.78519
#
# Poissons Ratio (x) = 0.57061 0.40693
# Poissons Ratio (y) = 0.51875 0.06706
# Poissons Ratio (z) = 0.20675 0.03748
#
# Static dielectric constant tensor:
#      x y z
#    x 2.386400 0.000000 -0.070070 
#    y 0.000000 2.276670 0.000000 
#    z -0.070070 0.000000 2.312830 
# 
# From -- ./inp_files/83125.got.cif
#   From: 2010.05.17/outbox.cif.g08.bks.cpg/sg15_42_cif.got.tgz:83125.got - 2010.06.03 18:47:42.
