data_PCOD9299857
_publ_section_title
;
Structure prediction by ZEFSAII (Michael W. Deem and Ramdas Pophale) SiO2 
 PCOD9299857
Probable space group: C 2/C
;
_chemical_formula_sum "Si O2"
_cell_formula_units_Z 40
_cell_length_a 11.662605
_cell_length_b 26.881072
_cell_length_c 16.880304
_cell_angle_alpha 90.000000
_cell_angle_beta 159.693021
_cell_angle_gamma 90.000000
_cell_volume 1836.598924
_symmetry_space_group_name_H-M "C 2/C"
_symmetry_group_IT_number 15
_symmetry_cell_setting 'monoclinic'
loop_
_space_group_symop_operation_xyz
x,y,z
-x,y,1/2-z
-x,-y,-z
x,-y,1/2+z
1/2+x,1/2+y,z
1/2-x,1/2+y,1/2-z
1/2-x,1/2-y,-z
1/2+x,1/2-y,1/2+z
loop_
_atom_site_type_symbol
_atom_site_label
_atom_site_fract_x
_atom_site_fract_y
_atom_site_fract_z
Si Si1 0.392986 0.082507 0.503045
Si Si2 0.968085 0.615696 0.373919
Si Si3 0.184219 0.804130 0.492757
Si Si4 0.114368 0.493248 0.739676
Si Si5 0.235458 0.841791 0.142883
O O1 0.501383 0.101175 0.487255
O O2 0.578859 0.113284 0.692013
O O3 0.000000 0.089373 0.250000
O O4 0.477580 0.025670 0.578771
O O5 0.982013 0.564095 0.334684
O O6 0.254465 0.653212 0.532057
O O7 0.602117 0.639627 0.119214
O O8 0.500000 0.815330 0.750000
O O9 0.250000 0.750000 0.500000
O O10 0.879915 0.807430 0.357102
O O11 0.000000 0.513085 0.750000
O O12 0.500000 0.500000 0.000000
O O13 0.500000 0.821366 0.250000
#
# Coordination Sequence:
#
# PCOD9299857 Si02
#       5
#     8   8   8   8   8
#     4  12  24  41  70 100 139 185 241 285 346 425
#     4  11  24  44  68 101 137 184 236 293 352 418
#     4  10  25  47  72 102 140 179 232 297 359 421
#     4  12  24  43  67  97 146 189 233 288 355 416
#     4  11  22  45  70  97 140 182 224 292 355 413
#
# _framework density 21.779387
#
# number of rings (size 3 to 8) (size 9 to 14) (size 15 to 20)
#    0.000    0.800    4.000    4.200    2.800    0.000 
#    0.000    5.000    0.000    0.000    0.000    0.000 
#    0.000    0.000    0.000    0.000    0.000    0.000 
#
# Total GULP energy -111681.028067 kJ/mol
# GULP energy per Si atom -5584.051403 kJ/mol
# Density = 2.172982 g / cm^3
# Si number density = 21.779387 Si / 1000 Ang^3
#
#
#
# Elastic Constant Matrix: (Units=GPa)
#
#
# Indices 1 2 3 4 5 6 
#
# 1 200.9041 77.1290 54.5793 -0.0086 16.2755 -0.0017
# 2 77.1290 124.9883 19.8304 -0.0025 12.9963 0.0029
# 3 54.5793 19.8304 95.9147 -0.0406 -0.1334 0.0113
# 4 -0.0086 -0.0025 -0.0406 18.7371 -0.0050 -2.2523
# 5 16.2755 12.9963 -0.1334 -0.0050 32.4633 -0.0067
# 6 -0.0017 0.0029 0.0113 -2.2523 -0.0067 36.3560
#
#
#
# Elastic Compliance Matrix: (Units=1/GPa)
#
#
# Indices 1 2 3 4 5 6 
#
# 1 0.007621 -0.003906 -0.003532 -0.000005 -0.002271 0.000001
# 2 -0.003906 0.010648 0.000018 -0.000001 -0.002304 -0.000002
# 3 -0.003532 0.000018 0.012435 0.000026 0.001815 -0.000002
# 4 -0.000005 -0.000001 0.000026 0.053771 0.000012 0.003331
# 5 -0.002271 -0.002304 0.001815 0.000012 0.032873 0.000006
# 6 0.000001 -0.000002 -0.000002 0.003331 0.000006 0.027712
#
#
# Mechanical properties :
#
#
# Convention : Reuss Voigt Hill
#
# Bulk Modulus (GPa) = 63.03966 80.54274 71.79120
# Shear Modulus (GPa) = 30.26886 35.52917 32.89901
#
# Velocity S-wave (km/s) = 3.73204 4.04334 3.89081
# Velocity P-wave (km/s) = 6.89770 7.67200 7.29513
#
# Compressibility (1/GPa) = 0.01586303
#
# Stress axis : x y z
#
# Youngs Moduli (GPa) = 131.22300 93.91544 80.42080
#
# Poissons Ratio (x) = 0.36684 0.28405
# Poissons Ratio (y) = 0.51256 -0.00145
# Poissons Ratio (z) = 0.46348 -0.00169
#
# Static dielectric constant tensor:
#      x y z
#    x 1.861980 0.000000 -0.013070 
#    y 0.000000 1.751780 -0.000010 
#    z -0.013070 -0.000010 1.763040 
# 
# From -- ./inp_files/201430.got.cif
#   From: 2010.05.17/outbox.cif.g08.bks.cpg/sg15_101_cif.got.tgz:201430.got - 2010.06.03 18:47:42.
