data_PCOD9299094
_publ_section_title
;
Structure prediction by ZEFSAII (Michael W. Deem and Ramdas Pophale) SiO2 
 PCOD9299094
Probable space group: C 2/C
;
_chemical_formula_sum "Si O2"
_cell_formula_units_Z 20
_cell_length_a 11.849958
_cell_length_b 15.390659
_cell_length_c 9.247119
_cell_angle_alpha 90.000000
_cell_angle_beta 27.483849
_cell_angle_gamma 90.000000
_cell_volume 778.306793
_symmetry_space_group_name_H-M "C 2/C"
_symmetry_group_IT_number 15
_symmetry_cell_setting 'monoclinic'
loop_
_space_group_symop_operation_xyz
x,y,z
-x,y,1/2-z
-x,-y,-z
x,-y,1/2+z
1/2+x,1/2+y,z
1/2-x,1/2+y,1/2-z
1/2-x,1/2-y,-z
1/2+x,1/2-y,1/2+z
loop_
_atom_site_type_symbol
_atom_site_label
_atom_site_fract_x
_atom_site_fract_y
_atom_site_fract_z
Si Si1 0.226605 0.333300 0.920468
Si Si2 0.000000 0.029828 0.250000
Si Si3 0.225859 0.639177 0.101804
O O1 0.445912 0.401749 0.683116
O O2 0.168692 0.316866 0.820447
O O3 0.250000 0.250000 0.000000
O O4 0.000000 0.382276 0.250000
O O5 0.786449 0.964094 0.540744
O O6 0.000000 0.648187 0.250000
O O7 0.500000 0.672395 0.750000
#
# Coordination Sequence:
#
# PCOD9299094 Si02
#       3
#     8   4   8
#     4  12  26  46  77 113 154 198 251 315 381 445
#     4  10  24  46  80 106 154 198 258 300 378 446
#     4  10  26  49  79 110 151 199 256 308 374 450
#
# _framework density 25.696808000000001
#
# number of rings (size 3 to 8) (size 9 to 14) (size 15 to 20)
#    1.200    0.000    2.000    2.400    5.600    3.200 
#    0.000    6.000    0.000    0.000    0.000    0.000 
#    0.000    0.000    0.000    0.000    0.000    0.000 
#
# Total GULP energy -55782.996861 kJ/mol
# GULP energy per Si atom -5578.299686 kJ/mol
# Density = 2.563832 g / cm^3
# Si number density = 25.696808 Si / 1000 Ang^3
#
#
#
# Elastic Constant Matrix: (Units=GPa)
#
#
# Indices 1 2 3 4 5 6 
#
# 1 273.9415 83.3126 87.7368 -0.0292 4.5637 0.0126
# 2 83.3126 194.7699 16.6573 -0.1074 -8.4121 0.0872
# 3 87.7368 16.6573 124.9128 -0.1047 5.2840 0.0899
# 4 -0.0292 -0.1074 -0.1047 123.6265 0.0309 -100.2777
# 5 4.5637 -8.4121 5.2840 0.0309 48.7472 -0.0234
# 6 0.0126 0.0872 0.0899 -100.2777 -0.0234 125.8697
#
#
#
# Elastic Compliance Matrix: (Units=1/GPa)
#
#
# Indices 1 2 3 4 5 6 
#
# 1 0.005396 -0.002030 -0.003500 -0.000002 -0.000476 0.000002
# 2 -0.002030 0.006003 0.000576 0.000004 0.001164 -0.000001
# 3 -0.003500 0.000576 0.010417 0.000007 -0.000702 -0.000002
# 4 -0.000002 0.000004 0.000007 0.022864 -0.000006 0.018215
# 5 -0.000476 0.001164 -0.000702 -0.000006 0.020835 -0.000001
# 6 0.000002 -0.000001 -0.000002 0.018215 -0.000001 0.022456
#
#
# Mechanical properties :
#
#
# Convention : Reuss Voigt Hill
#
# Bulk Modulus (GPa) = 83.96570 107.67084 95.81827
# Shear Modulus (GPa) = 49.09245 86.70985 67.90115
#
# Velocity S-wave (km/s) = 4.37561 5.81521 5.14600
# Velocity P-wave (km/s) = 7.63377 9.33169 8.52510
#
# Compressibility (1/GPa) = 0.01190962
#
# Stress axis : x y z
#
# Youngs Moduli (GPa) = 185.30786 166.57135 96.00097
#
# Poissons Ratio (x) = 0.33807 0.33596
# Poissons Ratio (y) = 0.37610 -0.05527
# Poissons Ratio (z) = 0.64850 -0.09591
#
# Static dielectric constant tensor:
#      x y z
#    x 2.210590 -0.000040 -0.185890 
#    y -0.000040 2.010760 0.000040 
#    z -0.185890 0.000040 2.180440 
# 
# From -- ./inp_files/28590.got.cif
#   From: 2010.05.17/outbox.cif.g08.bks.cpg/sg15_15_cif.got.tgz:28590.got - 2010.06.03 18:47:42.
