data_PCOD9299670
_publ_section_title
;
Structure prediction by ZEFSAII (Michael W. Deem and Ramdas Pophale) SiO2 
 PCOD9299670
Probable space group: C 2/C
;
_chemical_formula_sum "Si O2"
_cell_formula_units_Z 16
_cell_length_a 7.025993
_cell_length_b 17.262153
_cell_length_c 5.140545
_cell_angle_alpha 90.000000
_cell_angle_beta 81.773640
_cell_angle_gamma 90.000000
_cell_volume 617.049522
_symmetry_space_group_name_H-M "C 2/C"
_symmetry_group_IT_number 15
_symmetry_cell_setting 'monoclinic'
loop_
_space_group_symop_operation_xyz
x,y,z
-x,y,1/2-z
-x,-y,-z
x,-y,1/2+z
1/2+x,1/2+y,z
1/2-x,1/2+y,1/2-z
1/2-x,1/2-y,-z
1/2+x,1/2-y,1/2+z
loop_
_atom_site_type_symbol
_atom_site_label
_atom_site_fract_x
_atom_site_fract_y
_atom_site_fract_z
Si Si1 0.327729 0.857200 0.410340
Si Si2 0.500000 0.269300 0.250000
Si Si3 0.000000 0.945340 0.750000
O O1 0.500000 0.906963 0.250000
O O2 0.189176 0.894201 0.654021
O O3 0.182161 0.826383 0.216962
O O4 0.558540 0.786578 0.974245
O O5 0.000000 0.000000 0.500000
#
# Coordination Sequence:
#
# PCOD9299670 Si02
#       3
#     8   4   4
#     4  11  26  46  80 110 155 189 247 317 390 444
#     4  10  25  44  78 126 139 186 246 322 396 456
#     4  12  31  52  72 108 155 210 266 300 354 460
#
# _framework density 25.929846999999999
#
# number of rings (size 3 to 8) (size 9 to 14) (size 15 to 20)
#    0.000    1.000    0.000    3.000   28.000    2.000 
#    0.000    0.000    0.000    0.000    0.000    0.000 
#    0.000    0.000    0.000    0.000    0.000    0.000 
#
# Total GULP energy -44709.632580 kJ/mol
# GULP energy per Si atom -5588.704073 kJ/mol
# Density = 2.587083 g / cm^3
# Si number density = 25.929847 Si / 1000 Ang^3
#
#
#
# Elastic Constant Matrix: (Units=GPa)
#
#
# Indices 1 2 3 4 5 6 
#
# 1 229.7102 52.8002 113.7534 0.0000 -33.9250 0.0000
# 2 52.8002 75.9495 77.2312 0.0000 -10.4514 0.0000
# 3 113.7534 77.2312 215.2806 0.0000 -35.0520 0.0000
# 4 0.0000 0.0000 0.0000 19.2670 0.0000 21.8774
# 5 -33.9250 -10.4514 -35.0520 0.0000 81.9553 0.0000
# 6 0.0000 0.0000 0.0000 21.8774 0.0000 3.3357
#
#
#
# Elastic Compliance Matrix: (Units=1/GPa)
#
#
# Indices 1 2 3 4 5 6 
#
# 1 0.006124 -0.001579 -0.002461 0.000000 0.001281 0.000000
# 2 -0.001579 0.021161 -0.006905 0.000000 -0.000908 0.000000
# 3 -0.002461 -0.006905 0.008721 0.000000 0.001831 0.000000
# 4 0.000000 0.000000 0.000000 -0.008051 0.000000 0.052799
# 5 0.001281 -0.000908 0.001831 0.000000 0.013399 0.000000
# 6 0.000000 0.000000 0.000000 0.052799 0.000000 -0.046499
#
#
# Mechanical properties :
#
#
# Convention : Reuss Voigt Hill
#
# Bulk Modulus (GPa) = 70.84115 112.05665 91.44890
# Shear Modulus (GPa) = 233.10505 39.38864 136.24684
#
# Velocity S-wave (km/s) = 9.49176 3.90172 7.25662
# Velocity P-wave (km/s) = 12.14514 7.97540 10.27403
#
# Compressibility (1/GPa) = 0.01411609
#
# Stress axis : x y z
#
# Youngs Moduli (GPa) = 163.28984 47.25732 114.66955
#
# Poissons Ratio (x) = 0.07460 0.28220
# Poissons Ratio (y) = 0.25777 0.79180
# Poissons Ratio (z) = 0.40186 0.32632
#
# Static dielectric constant tensor:
#      x y z
#    x 1.984450 0.000000 -0.148930 
#    y 0.000000 2.136580 0.000000 
#    z -0.148930 0.000000 2.060160 
# 
# From -- ./inp_files/772.got.cif
#   From: 2010.05.17/outbox.cif.g08.bks.cpg/sg15_1_cif.got.tgz:772.got - 2010.06.03 18:47:42.
