data_PCOD9299906
_publ_section_title
;
Structure prediction by ZEFSAII (Michael W. Deem and Ramdas Pophale) SiO2 
 PCOD9299906
Probable space group: C 2/C
;
_chemical_formula_sum "Si O2"
_cell_formula_units_Z 44
_cell_length_a 12.381429
_cell_length_b 23.350877
_cell_length_c 11.457698
_cell_angle_alpha 90.000000
_cell_angle_beta 35.387081
_cell_angle_gamma 90.000000
_cell_volume 1918.328267
_symmetry_space_group_name_H-M "C 2/C"
_symmetry_group_IT_number 15
_symmetry_cell_setting 'monoclinic'
loop_
_space_group_symop_operation_xyz
x,y,z
-x,y,1/2-z
-x,-y,-z
x,-y,1/2+z
1/2+x,1/2+y,z
1/2-x,1/2+y,1/2-z
1/2-x,1/2-y,-z
1/2+x,1/2-y,1/2+z
loop_
_atom_site_type_symbol
_atom_site_label
_atom_site_fract_x
_atom_site_fract_y
_atom_site_fract_z
Si Si1 0.950736 0.691602 0.158023
Si Si2 0.717303 0.486535 0.304415
Si Si3 0.038196 0.572659 0.079026
Si Si4 0.000000 0.297799 0.250000
Si Si5 0.676444 0.615470 0.010769
Si Si6 0.055530 0.207354 0.412136
O O1 0.062088 0.637192 0.012110
O O2 0.744163 0.680020 0.293354
O O3 0.000000 0.693463 0.250000
O O4 0.989889 0.753472 0.074711
O O5 0.500000 0.500000 0.500000
O O6 0.854122 0.540753 0.194223
O O7 0.755913 0.440338 0.374720
O O8 0.780737 0.460150 0.125050
O O9 0.000000 0.573880 0.250000
O O10 0.832343 0.342047 0.430336
O O11 0.937487 0.253593 0.202139
O O12 0.500000 0.600972 0.250000
O O13 0.583712 0.657437 0.998061
#
# Coordination Sequence:
#
# PCOD9299906 Si02
#       6
#     8   8   8   4   8   8
#     4  11  24  43  69 101 143 195 243 304 364 438
#     4  11  26  46  72 105 139 190 244 305 362 434
#     4  10  25  48  71  98 140 190 243 302 361 427
#     4  12  24  44  68 106 154 194 230 310 372 434
#     4  12  26  41  72 112 147 191 240 305 376 444
#     4  12  22  44  68 104 148 188 249 296 370 448
#
# _framework density 22.936637999999999
#
# number of rings (size 3 to 8) (size 9 to 14) (size 15 to 20)
#    0.000    0.727    2.727    4.364    3.818    1.455 
#    0.000    0.000    0.000    0.000    0.000    0.000 
#    0.000    0.000    0.000    0.000    0.000    0.000 
#
# Total GULP energy -122877.210637 kJ/mol
# GULP energy per Si atom -5585.327756 kJ/mol
# Density = 2.288443 g / cm^3
# Si number density = 22.936638 Si / 1000 Ang^3
#
#
#
# Elastic Constant Matrix: (Units=GPa)
#
#
# Indices 1 2 3 4 5 6 
#
# 1 88.8836 7.5017 13.2036 0.0000 -2.2843 0.0001
# 2 7.5017 69.8681 6.4625 0.0000 17.7648 0.0000
# 3 13.2036 6.4625 90.5960 -0.0001 -9.7786 0.0000
# 4 0.0000 0.0000 -0.0001 6.9676 0.0001 -28.7620
# 5 -2.2843 17.7648 -9.7786 0.0001 21.1885 -0.0001
# 6 0.0001 0.0000 0.0000 -28.7620 -0.0001 -4.1070
#
#
#
# Elastic Compliance Matrix: (Units=1/GPa)
#
#
# Indices 1 2 3 4 5 6 
#
# 1 0.011642 -0.001630 -0.001366 0.000000 0.001992 0.000000
# 2 -0.001630 0.019284 -0.003054 0.000000 -0.017754 0.000000
# 3 -0.001366 -0.003054 0.012330 0.000000 0.008104 0.000000
# 4 0.000000 0.000000 0.000000 0.004799 0.000000 -0.033606
# 5 0.001992 -0.017754 0.008104 0.000000 0.066035 0.000000
# 6 0.000000 0.000000 0.000000 -0.033606 0.000000 -0.008141
#
#
# Mechanical properties :
#
#
# Convention : Reuss Voigt Hill
#
# Bulk Modulus (GPa) = 32.09623 33.74259 32.91941
# Shear Modulus (GPa) = 38.93049 19.62183 29.27616
#
# Velocity S-wave (km/s) = 4.12431 2.92803 3.57654
# Velocity P-wave (km/s) = 6.05836 5.11608 5.60705
#
# Compressibility (1/GPa) = 0.03115631
#
# Stress axis : x y z
#
# Youngs Moduli (GPa) = 85.89382 51.85563 81.10576
#
# Poissons Ratio (x) = 0.08453 0.11075
# Poissons Ratio (y) = 0.14002 0.24772
# Poissons Ratio (z) = 0.11729 0.15838
#
# Static dielectric constant tensor:
#      x y z
#    x 1.775400 0.000000 0.048520 
#    y 0.000000 1.892300 0.000000 
#    z 0.048520 0.000000 1.933510 
# 
# From -- ./inp_files/91122.got.cif
#   From: 2010.05.17/outbox.cif.g08.bks.cpg/sg15_46_cif.got.tgz:91122.got - 2010.06.03 18:47:42.
