data_PCOD9299083
_publ_section_title
;
Structure prediction by ZEFSAII (Michael W. Deem and Ramdas Pophale) SiO2 
 PCOD9299083
Probable space group: C 2/C
;
_chemical_formula_sum "Si O2"
_cell_formula_units_Z 28
_cell_length_a 7.055640
_cell_length_b 18.409508
_cell_length_c 8.904567
_cell_angle_alpha 90.000000
_cell_angle_beta 72.632527
_cell_angle_gamma 90.000000
_cell_volume 1103.891415
_symmetry_space_group_name_H-M "C 2/C"
_symmetry_group_IT_number 15
_symmetry_cell_setting 'monoclinic'
loop_
_space_group_symop_operation_xyz
x,y,z
-x,y,1/2-z
-x,-y,-z
x,-y,1/2+z
1/2+x,1/2+y,z
1/2-x,1/2+y,1/2-z
1/2-x,1/2-y,-z
1/2+x,1/2-y,1/2+z
loop_
_atom_site_type_symbol
_atom_site_label
_atom_site_fract_x
_atom_site_fract_y
_atom_site_fract_z
Si Si1 0.500000 0.543677 0.250000
Si Si2 0.076425 0.158022 0.005392
Si Si3 0.688288 0.077241 0.808225
Si Si4 0.986813 0.687701 0.075317
O O1 0.461255 0.594146 0.115855
O O2 0.687937 0.492742 0.174010
O O3 0.259140 0.176148 0.074356
O O4 0.172628 0.127063 0.830848
O O5 0.962058 0.232065 0.999814
O O6 0.500000 0.056568 0.750000
O O7 0.611349 0.125869 0.962613
O O8 0.000000 0.685452 0.250000
#
# Coordination Sequence:
#
# PCOD9299083 Si02
#       4
#     4   8   8   8
#     4  12  26  46  78 108 152 198 240 304 376 440
#     4  10  25  45  73 111 149 191 249 307 362 445
#     4  10  25  49  75 109 152 190 250 305 372 438
#     4  10  24  46  78 109 144 195 248 310 368 431
#
# _framework density 25.364813999999999
#
# number of rings (size 3 to 8) (size 9 to 14) (size 15 to 20)
#    0.000    1.714    0.000    0.857   12.000   11.429 
#    0.000    0.000    3.143    0.000    0.000    0.000 
#    0.000    0.000    0.000    0.000    0.000    0.000 
#
# Total GULP energy -78656.410546 kJ/mol
# GULP energy per Si atom -5618.315039 kJ/mol
# Density = 2.530708 g / cm^3
# Si number density = 25.364814 Si / 1000 Ang^3
#
#
#
# Elastic Constant Matrix: (Units=GPa)
#
#
# Indices 1 2 3 4 5 6 
#
# 1 102.8902 76.1322 61.4034 0.0000 10.6661 0.0000
# 2 76.1322 177.6754 95.8905 0.0000 -7.3287 0.0000
# 3 61.4034 95.8905 198.9556 0.0000 10.4662 0.0000
# 4 0.0000 0.0000 0.0000 28.7413 0.0000 5.0616
# 5 10.6661 -7.3287 10.4662 0.0000 38.8151 0.0000
# 6 0.0000 0.0000 0.0000 5.0616 0.0000 9.0753
#
#
#
# Elastic Compliance Matrix: (Units=1/GPa)
#
#
# Indices 1 2 3 4 5 6 
#
# 1 0.015698 -0.006028 -0.001677 0.000000 -0.005000 0.000000
# 2 -0.006028 0.010160 -0.003271 0.000000 0.004457 0.000000
# 3 -0.001677 -0.003271 0.007231 0.000000 -0.002107 0.000000
# 4 0.000000 0.000000 0.000000 0.038583 0.000000 -0.021519
# 5 -0.005000 0.004457 -0.002107 0.000000 0.028547 0.000000
# 6 0.000000 0.000000 0.000000 -0.021519 0.000000 0.122191
#
#
# Mechanical properties :
#
#
# Convention : Reuss Voigt Hill
#
# Bulk Modulus (GPa) = 89.77883 105.15260 97.46572
# Shear Modulus (GPa) = 20.15528 31.73268 25.94398
#
# Velocity S-wave (km/s) = 2.82195 3.54086 3.20165
# Velocity P-wave (km/s) = 6.78894 7.63302 7.22332
#
# Compressibility (1/GPa) = 0.01113848
#
# Stress axis : x y z
#
# Youngs Moduli (GPa) = 63.70131 98.42192 138.29196
#
# Poissons Ratio (x) = 0.59328 0.23187
# Poissons Ratio (y) = 0.38399 0.45236
# Poissons Ratio (z) = 0.10681 0.32194
#
# Static dielectric constant tensor:
#      x y z
#    x 2.057460 0.000000 0.000740 
#    y 0.000000 1.974950 0.000000 
#    z 0.000740 0.000000 1.918360 
# 
# From -- ./inp_files/21593.got.cif
#   From: 2010.05.17/outbox.cif.g08.bks.cpg/sg15_11_cif.got.tgz:21593.got - 2010.06.03 18:47:42.
