data_PCOD9299213
_publ_section_title
;
Structure prediction by ZEFSAII (Michael W. Deem and Ramdas Pophale) SiO2 
 PCOD9299213
Probable space group: C 2/C
;
_chemical_formula_sum "Si O2"
_cell_formula_units_Z 48
_cell_length_a 12.425927
_cell_length_b 14.378410
_cell_length_c 10.684566
_cell_angle_alpha 90.000000
_cell_angle_beta 110.118746
_cell_angle_gamma 90.000000
_cell_volume 1792.477467
_symmetry_space_group_name_H-M "C 2/C"
_symmetry_group_IT_number 15
_symmetry_cell_setting 'monoclinic'
loop_
_space_group_symop_operation_xyz
x,y,z
-x,y,1/2-z
-x,-y,-z
x,-y,1/2+z
1/2+x,1/2+y,z
1/2-x,1/2+y,1/2-z
1/2-x,1/2-y,-z
1/2+x,1/2-y,1/2+z
loop_
_atom_site_type_symbol
_atom_site_label
_atom_site_fract_x
_atom_site_fract_y
_atom_site_fract_z
Si Si1 0.459680 0.540982 0.612638
Si Si2 0.930497 0.386217 0.606001
Si Si3 0.869668 0.695254 0.649256
Si Si4 0.715949 0.032485 0.061955
Si Si5 0.521487 0.291803 0.020801
Si Si6 0.772342 0.826223 0.804526
O O1 0.500000 0.485153 0.750000
O O2 0.500000 0.500000 0.500000
O O3 0.324509 0.529516 0.565662
O O4 0.533387 0.636339 0.638481
O O5 0.885443 0.457358 0.484536
O O6 0.009736 0.310743 0.571312
O O7 0.825392 0.330140 0.629296
O O8 0.000000 0.430094 0.750000
O O9 0.818468 0.606787 0.558528
O O10 0.785339 0.734747 0.722207
O O11 0.000000 0.677026 0.750000
O O12 0.891248 0.780032 0.558605
O O13 0.744924 0.087022 0.201125
O O14 0.398238 0.324961 0.916951
#
# Coordination Sequence:
#
# PCOD9299213 Si02
#       6
#     8   8   8   8   8   8
#     4  12  27  47  74 109 151 201 262 321 390 466
#     4  12  27  46  74 112 156 197 258 318 401 467
#     4  10  24  47  79 107 152 201 263 317 394 473
#     4  12  26  45  72 113 150 201 255 328 388 467
#     4  11  24  50  73 108 149 204 255 319 391 471
#     4  11  24  45  72 106 152 201 254 320 383 475
#
# _framework density 26.778578
#
# number of rings (size 3 to 8) (size 9 to 14) (size 15 to 20)
#    0.000    0.667    1.667    5.000    0.000    9.333 
#    0.000    0.000    0.000    0.000    0.000    0.000 
#    0.000    0.000    0.000    0.000    0.000    0.000 
#
# Total GULP energy -134416.630522 kJ/mol
# GULP energy per Si atom -5600.692938 kJ/mol
# Density = 2.671763 g / cm^3
# Si number density = 26.778578 Si / 1000 Ang^3
#
#
#
# Elastic Constant Matrix: (Units=GPa)
#
#
# Indices 1 2 3 4 5 6 
#
# 1 119.4919 12.7691 4.2020 0.0000 -6.0884 0.0000
# 2 12.7691 76.8932 3.4479 0.0000 -1.8134 0.0000
# 3 4.2020 3.4479 86.6979 0.0000 3.6316 0.0000
# 4 0.0000 0.0000 0.0000 35.9277 0.0000 3.8536
# 5 -6.0884 -1.8134 3.6316 0.0000 47.1150 0.0000
# 6 0.0000 0.0000 0.0000 3.8536 0.0000 33.4077
#
#
#
# Elastic Compliance Matrix: (Units=1/GPa)
#
#
# Indices 1 2 3 4 5 6 
#
# 1 0.008586 -0.001382 -0.000407 0.000000 0.001088 0.000000
# 2 -0.001382 0.013265 -0.000476 0.000000 0.000369 0.000000
# 3 -0.000407 -0.000476 0.011613 0.000000 -0.000966 0.000000
# 4 0.000000 0.000000 0.000000 0.028182 0.000000 -0.003251
# 5 0.001088 0.000369 -0.000966 0.000000 0.021454 0.000000
# 6 0.000000 0.000000 0.000000 -0.003251 0.000000 0.030308
#
#
# Mechanical properties :
#
#
# Convention : Reuss Voigt Hill
#
# Bulk Modulus (GPa) = 34.56047 35.99122 35.27585
# Shear Modulus (GPa) = 39.19020 40.80101 39.99560
#
# Velocity S-wave (km/s) = 3.82971 3.90762 3.86886
# Velocity P-wave (km/s) = 5.69997 5.81626 5.75840
#
# Compressibility (1/GPa) = 0.02893479
#
# Stress axis : x y z
#
# Youngs Moduli (GPa) = 116.46636 75.38874 86.10731
#
# Poissons Ratio (x) = 0.10418 0.03502
# Poissons Ratio (y) = 0.16095 0.04099
# Poissons Ratio (z) = 0.04737 0.03588
#
# Static dielectric constant tensor:
#      x y z
#    x 2.641950 0.000000 0.314830 
#    y 0.000000 2.206740 0.000000 
#    z 0.314830 0.000000 2.343940 
# 
# From -- ./inp_files/96554.got.cif
#   From: 2010.05.17/outbox.cif.g08.bks.cpg/sg15_49_cif.got.tgz:96554.got - 2010.06.03 18:47:42.
