data_PCOD9299326
_publ_section_title
;
Structure prediction by ZEFSAII (Michael W. Deem and Ramdas Pophale) SiO2 
 PCOD9299326
Probable space group: C 2/C
;
_chemical_formula_sum "Si O2"
_cell_formula_units_Z 36
_cell_length_a 8.020614
_cell_length_b 31.534835
_cell_length_c 9.203736
_cell_angle_alpha 90.000000
_cell_angle_beta 130.194692
_cell_angle_gamma 90.000000
_cell_volume 1778.171826
_symmetry_space_group_name_H-M "C 2/C"
_symmetry_group_IT_number 15
_symmetry_cell_setting 'monoclinic'
loop_
_space_group_symop_operation_xyz
x,y,z
-x,y,1/2-z
-x,-y,-z
x,-y,1/2+z
1/2+x,1/2+y,z
1/2-x,1/2+y,1/2-z
1/2-x,1/2-y,-z
1/2+x,1/2-y,1/2+z
loop_
_atom_site_type_symbol
_atom_site_label
_atom_site_fract_x
_atom_site_fract_y
_atom_site_fract_z
Si Si1 0.000000 0.501629 0.750000
Si Si2 0.734109 0.699696 0.302834
Si Si3 0.089301 0.359798 0.144037
Si Si4 0.754970 0.449309 0.362876
Si Si5 0.051062 0.212491 0.613417
O O1 0.164856 0.529573 0.743892
O O2 0.877074 0.472586 0.563531
O O3 0.500000 0.696219 0.250000
O O4 0.847394 0.744919 0.397523
O O5 0.897546 0.663608 0.447800
O O6 0.664451 0.698982 0.094945
O O7 0.183413 0.399822 0.112085
O O8 0.273718 0.325057 0.284615
O O9 0.000000 0.374418 0.250000
O O10 0.500000 0.454140 0.250000
O O11 0.000000 0.222721 0.750000
#
# Coordination Sequence:
#
# PCOD9299326 Si02
#       5
#     4   8   8   8   8
#     4  10  24  48  78 108 138 176 220 282 348 426
#     4  12  24  42  65  90 130 189 233 275 343 399
#     4  12  25  43  66  99 141 179 232 286 332 407
#     4  11  24  47  75 107 141 178 224 279 348 410
#     4  12  25  41  64  95 131 178 237 292 335 395
#
# _framework density 20.245512999999999
#
# number of rings (size 3 to 8) (size 9 to 14) (size 15 to 20)
#    0.000    0.444    5.556    3.333    0.000    3.556 
#    0.000    1.111    0.000    0.000    0.000    0.000 
#    0.000    0.000    0.000    0.000    0.000    0.000 
#
# Total GULP energy -100715.931963 kJ/mol
# GULP energy per Si atom -5595.329554 kJ/mol
# Density = 2.019943 g / cm^3
# Si number density = 20.245513 Si / 1000 Ang^3
#
#
#
# Elastic Constant Matrix: (Units=GPa)
#
#
# Indices 1 2 3 4 5 6 
#
# 1 121.8124 53.9744 44.7384 0.0000 -1.6175 0.0000
# 2 53.9744 109.6649 43.5641 0.0000 12.6743 0.0000
# 3 44.7384 43.5641 144.6737 0.0000 1.5629 0.0000
# 4 0.0000 0.0000 0.0000 3.8396 0.0000 -2.0892
# 5 -1.6175 12.6743 1.5629 0.0000 36.5611 0.0000
# 6 0.0000 0.0000 0.0000 -2.0892 0.0000 34.8985
#
#
#
# Elastic Compliance Matrix: (Units=1/GPa)
#
#
# Indices 1 2 3 4 5 6 
#
# 1 0.011174 -0.004979 -0.001981 0.000000 0.002305 0.000000
# 2 -0.004979 0.013033 -0.002335 0.000000 -0.004638 0.000000
# 3 -0.001981 -0.002335 0.008224 0.000000 0.000370 0.000000
# 4 0.000000 0.000000 0.000000 0.269215 0.000000 0.016116
# 5 0.002305 -0.004638 0.000370 0.000000 0.029046 0.000000
# 6 0.000000 0.000000 0.000000 0.016116 0.000000 0.029619
#
#
# Mechanical properties :
#
#
# Convention : Reuss Voigt Hill
#
# Bulk Modulus (GPa) = 72.24876 73.41167 72.83022
# Shear Modulus (GPa) = 13.03738 30.65143 21.84440
#
# Velocity S-wave (km/s) = 2.54040 3.89522 3.28834
# Velocity P-wave (km/s) = 6.66098 7.52129 7.10417
#
# Compressibility (1/GPa) = 0.01384107
#
# Stress axis : x y z
#
# Youngs Moduli (GPa) = 89.49668 76.73037 121.59978
#
# Poissons Ratio (x) = 0.38203 0.24088
# Poissons Ratio (y) = 0.44559 0.28389
# Poissons Ratio (z) = 0.17729 0.17914
#
# Static dielectric constant tensor:
#      x y z
#    x 1.762440 0.000000 -0.040080 
#    y 0.000000 1.685170 0.000000 
#    z -0.040080 0.000000 1.717090 
# 
# From -- ./inp_files/25269.got.cif
#   From: 2010.05.17/outbox.cif.g08.bks.cpg/sg15_13_cif.got.tgz:25269.got - 2010.06.03 18:47:42.
