data_PCOD9299208
_publ_section_title
;
Structure prediction by ZEFSAII (Michael W. Deem and Ramdas Pophale) SiO2 
 PCOD9299208
Probable space group: C 2/C
;
_chemical_formula_sum "Si O2"
_cell_formula_units_Z 56
_cell_length_a 9.118983
_cell_length_b 20.316442
_cell_length_c 14.337013
_cell_angle_alpha 90.000000
_cell_angle_beta 120.398187
_cell_angle_gamma 90.000000
_cell_volume 2291.008954
_symmetry_space_group_name_H-M "C 2/C"
_symmetry_group_IT_number 15
_symmetry_cell_setting 'monoclinic'
loop_
_space_group_symop_operation_xyz
x,y,z
-x,y,1/2-z
-x,-y,-z
x,-y,1/2+z
1/2+x,1/2+y,z
1/2-x,1/2+y,1/2-z
1/2-x,1/2-y,-z
1/2+x,1/2-y,1/2+z
loop_
_atom_site_type_symbol
_atom_site_label
_atom_site_fract_x
_atom_site_fract_y
_atom_site_fract_z
Si Si1 0.622403 0.151841 0.499699
Si Si2 0.275743 0.902232 0.095549
Si Si3 0.480906 0.972669 0.850499
Si Si4 0.799944 0.696178 0.170532
Si Si5 0.308777 0.569511 0.717865
Si Si6 0.493094 0.223584 0.611744
Si Si7 0.005854 0.129585 0.356606
O O1 0.528116 0.088745 0.427970
O O2 0.722449 0.185755 0.447626
O O3 0.732011 0.120982 0.618748
O O4 0.490227 0.203273 0.501967
O O5 0.211763 0.907744 0.181235
O O6 0.395193 0.836930 0.127067
O O7 0.391814 0.964605 0.105822
O O8 0.120472 0.902979 0.972560
O O9 0.500000 0.951065 0.750000
O O10 0.302503 0.003484 0.821727
O O11 0.695371 0.756790 0.182799
O O12 0.690982 0.635851 0.176585
O O13 0.000000 0.700729 0.250000
O O14 0.500000 0.558221 0.750000
O O15 0.421868 0.294405 0.618436
O O16 0.000000 0.104802 0.250000
#
# Coordination Sequence:
#
# PCOD9299208 Si02
#       7
#     8   8   8   8   8   8   8
#     4  12  23  46  73 106 145 198 244 298 371 436
#     4  11  23  49  73 110 148 190 251 300 365 452
#     4  10  24  47  78 103 145 200 240 305 373 438
#     4  10  25  45  69 111 148 189 248 306 362 429
#     4  11  25  44  76 111 146 190 247 311 365 435
#     4  10  25  41  76 100 151 194 249 292 370 431
#     4  10  25  45  72 107 143 199 241 301 368 435
#
# _framework density 24.443379
#
# number of rings (size 3 to 8) (size 9 to 14) (size 15 to 20)
#    0.857    0.571    1.429    2.571    4.000    0.571 
#    2.571    8.571    0.000    0.000    0.000    0.000 
#    0.000    0.000    0.000    0.000    0.000    0.000 
#
# Total GULP energy -156441.334707 kJ/mol
# GULP energy per Si atom -5587.190525 kJ/mol
# Density = 2.438774 g / cm^3
# Si number density = 24.443379 Si / 1000 Ang^3
#
#
#
# Elastic Constant Matrix: (Units=GPa)
#
#
# Indices 1 2 3 4 5 6 
#
# 1 173.1987 24.6475 64.0952 0.0000 19.4537 0.0000
# 2 24.6475 72.9691 35.6777 0.0000 16.3691 0.0000
# 3 64.0952 35.6777 151.9769 0.0000 6.3317 0.0000
# 4 0.0000 0.0000 0.0000 37.7380 0.0000 -12.2408
# 5 19.4537 16.3691 6.3317 0.0000 40.4216 0.0000
# 6 0.0000 0.0000 0.0000 -12.2408 0.0000 12.0720
#
#
#
# Elastic Compliance Matrix: (Units=1/GPa)
#
#
# Indices 1 2 3 4 5 6 
#
# 1 0.007196 -0.000412 -0.002819 0.000000 -0.002855 0.000000
# 2 -0.000412 0.016950 -0.003551 0.000000 -0.006110 0.000000
# 3 -0.002819 -0.003551 0.008542 0.000000 0.001457 0.000000
# 4 0.000000 0.000000 0.000000 0.039485 0.000000 0.040037
# 5 -0.002855 -0.006110 0.001457 0.000000 0.028359 0.000000
# 6 0.000000 0.000000 0.000000 0.040037 0.000000 0.123433
#
#
# Mechanical properties :
#
#
# Convention : Reuss Voigt Hill
#
# Bulk Modulus (GPa) = 52.28963 71.88728 62.08846
# Shear Modulus (GPa) = 20.49974 36.29461 28.39718
#
# Velocity S-wave (km/s) = 2.89911 3.85755 3.41215
# Velocity P-wave (km/s) = 5.71358 7.02243 6.40154
#
# Compressibility (1/GPa) = 0.01912425
#
# Stress axis : x y z
#
# Youngs Moduli (GPa) = 138.95917 58.99580 117.06951
#
# Poissons Ratio (x) = 0.02430 0.33006
# Poissons Ratio (y) = 0.05722 0.41571
# Poissons Ratio (z) = 0.39178 0.20949
#
# Static dielectric constant tensor:
#      x y z
#    x 1.928720 0.000000 0.005860 
#    y 0.000000 1.998000 0.000000 
#    z 0.005860 0.000000 1.993130 
# 
# From -- ./inp_files/137924.got.cif
#   From: 2010.05.17/outbox.cif.g08.bks.cpg/sg15_69_cif.got.tgz:137924.got - 2010.06.03 18:47:42.
