data_PCOD9299928
_publ_section_title
;
Structure prediction by ZEFSAII (Michael W. Deem and Ramdas Pophale) SiO2 
 PCOD9299928
Probable space group: C 2/C
;
_chemical_formula_sum "Si O2"
_cell_formula_units_Z 28
_cell_length_a 16.353664
_cell_length_b 8.970209
_cell_length_c 12.561155
_cell_angle_alpha 90.000000
_cell_angle_beta 35.985546
_cell_angle_gamma 90.000000
_cell_volume 1082.717252
_symmetry_space_group_name_H-M "C 2/C"
_symmetry_group_IT_number 15
_symmetry_cell_setting 'monoclinic'
loop_
_space_group_symop_operation_xyz
x,y,z
-x,y,1/2-z
-x,-y,-z
x,-y,1/2+z
1/2+x,1/2+y,z
1/2-x,1/2+y,1/2-z
1/2-x,1/2-y,-z
1/2+x,1/2-y,1/2+z
loop_
_atom_site_type_symbol
_atom_site_label
_atom_site_fract_x
_atom_site_fract_y
_atom_site_fract_z
Si Si1 0.500000 0.516967 0.750000
Si Si2 0.709245 0.273100 0.896741
Si Si3 0.352487 0.741034 0.292554
Si Si4 0.483836 0.053472 0.135614
O O1 0.616615 0.608520 0.561085
O O2 0.560783 0.407231 0.775957
O O3 0.697617 0.270652 0.778775
O O4 0.868394 0.314176 0.756080
O O5 0.632955 0.119391 0.012594
O O6 0.250000 0.750000 0.500000
O O7 0.429525 0.896850 0.232567
O O8 0.500000 0.000000 0.000000
#
# Coordination Sequence:
#
# PCOD9299928 Si02
#       4
#     4   8   8   8
#     4  12  26  46  74 108 152 202 248 314 368 452
#     4  11  26  49  73 110 149 196 255 309 380 445
#     4  11  25  47  76 108 148 197 253 305 382 442
#     4  10  25  48  76 107 148 197 248 317 368 451
#
# _framework density 25.860862000000001
#
# number of rings (size 3 to 8) (size 9 to 14) (size 15 to 20)
#    0.000    1.143    2.857    0.857    8.000    6.857 
#    5.143    0.000    0.000    0.000    0.000    0.000 
#    0.000    0.000    0.000    0.000    0.000    0.000 
#
# Total GULP energy -78143.272596 kJ/mol
# GULP energy per Si atom -5581.662328 kJ/mol
# Density = 2.580200 g / cm^3
# Si number density = 25.860862 Si / 1000 Ang^3
#
#
#
# Elastic Constant Matrix: (Units=GPa)
#
#
# Indices 1 2 3 4 5 6 
#
# 1 162.9157 16.6157 53.4028 0.0000 52.1326 0.0000
# 2 16.6157 117.5625 58.2142 0.0000 13.6203 0.0000
# 3 53.4028 58.2142 156.1029 0.0000 16.1446 0.0000
# 4 0.0000 0.0000 0.0000 57.9527 0.0000 6.8229
# 5 52.1326 13.6203 16.1446 0.0000 40.0643 0.0000
# 6 0.0000 0.0000 0.0000 6.8229 0.0000 38.8769
#
#
#
# Elastic Compliance Matrix: (Units=1/GPa)
#
#
# Indices 1 2 3 4 5 6 
#
# 1 0.011574 0.001536 -0.003048 0.000000 -0.014354 0.000000
# 2 0.001536 0.010803 -0.004140 0.000000 -0.004003 0.000000
# 3 -0.003048 -0.004140 0.008804 0.000000 0.001826 0.000000
# 4 0.000000 0.000000 0.000000 0.017619 0.000000 -0.003092
# 5 -0.014354 -0.004003 0.001826 0.000000 0.044263 0.000000
# 6 0.000000 0.000000 0.000000 -0.003092 0.000000 0.026265
#
#
# Mechanical properties :
#
#
# Convention : Reuss Voigt Hill
#
# Bulk Modulus (GPa) = 50.30834 77.00517 63.65676
# Shear Modulus (GPa) = 36.42792 47.93533 42.18163
#
# Velocity S-wave (km/s) = 3.75722 4.31000 4.04307
# Velocity P-wave (km/s) = 6.19015 7.38982 6.81643
#
# Compressibility (1/GPa) = 0.01987742
#
# Stress axis : x y z
#
# Youngs Moduli (GPa) = 86.40172 92.56761 113.58672
#
# Poissons Ratio (x) = -0.14222 0.34619
# Poissons Ratio (y) = -0.13275 0.47027
# Poissons Ratio (z) = 0.26334 0.38325
#
# Static dielectric constant tensor:
#      x y z
#    x 2.133080 0.000000 -0.078380 
#    y 0.000000 2.036720 0.000000 
#    z -0.078380 0.000000 2.544830 
# 
# From -- ./inp_files/93126.got.cif
#   From: 2010.05.17/outbox.cif.g08.bks.cpg/sg15_47_cif.got.tgz:93126.got - 2010.06.03 18:47:42.
