data_PCOD9299117
_publ_section_title
;
Structure prediction by ZEFSAII (Michael W. Deem and Ramdas Pophale) SiO2 
 PCOD9299117
Probable space group: C 2/C
;
_chemical_formula_sum "Si O2"
_cell_formula_units_Z 48
_cell_length_a 8.578371
_cell_length_b 24.963780
_cell_length_c 15.382808
_cell_angle_alpha 90.000000
_cell_angle_beta 141.748626
_cell_angle_gamma 90.000000
_cell_volume 2039.485214
_symmetry_space_group_name_H-M "C 2/C"
_symmetry_group_IT_number 15
_symmetry_cell_setting 'monoclinic'
loop_
_space_group_symop_operation_xyz
x,y,z
-x,y,1/2-z
-x,-y,-z
x,-y,1/2+z
1/2+x,1/2+y,z
1/2-x,1/2+y,1/2-z
1/2-x,1/2-y,-z
1/2+x,1/2-y,1/2+z
loop_
_atom_site_type_symbol
_atom_site_label
_atom_site_fract_x
_atom_site_fract_y
_atom_site_fract_z
Si Si1 0.765681 0.552977 0.380280
Si Si2 0.972962 0.351749 0.142723
Si Si3 0.571001 0.136483 0.419481
Si Si4 0.402105 0.650064 0.414665
Si Si5 0.798231 0.727538 0.896980
Si Si6 0.455622 0.028520 0.831323
O O1 0.500000 0.581249 0.250000
O O2 0.814018 0.528573 0.496993
O O3 0.994924 0.593405 0.458816
O O4 0.768732 0.508828 0.304236
O O5 0.115421 0.408778 0.205576
O O6 0.000000 0.327764 0.250000
O O7 0.077525 0.309442 0.121985
O O8 0.677252 0.364663 0.002153
O O9 0.801265 0.120591 0.457393
O O10 0.320864 0.141792 0.251764
O O11 0.637191 0.194012 0.488632
O O12 0.407920 0.713181 0.439479
O O13 0.500000 0.730193 0.750000
O O14 0.500000 0.010990 0.750000
#
# Coordination Sequence:
#
# PCOD9299117 Si02
#       6
#     8   8   8   8   8   8
#     4  11  24  47  72 104 140 183 238 293 355 429
#     4  11  24  44  66 100 136 181 232 282 346 414
#     4  11  24  43  70  98 137 181 233 287 352 411
#     4  11  25  43  67 100 137 184 231 283 352 416
#     4  12  24  43  67  98 138 181 229 290 341 416
#     4  10  24  47  67 103 138 179 236 286 359 418
#
# _framework density 23.535350000000001
#
# number of rings (size 3 to 8) (size 9 to 14) (size 15 to 20)
#    0.000    1.000    3.333    3.000    4.667    1.333 
#   12.000    0.000    0.000    0.000    0.000    0.000 
#    0.000    0.000    0.000    0.000    0.000    0.000 
#
# Total GULP energy -134129.441088 kJ/mol
# GULP energy per Si atom -5588.726712 kJ/mol
# Density = 2.348178 g / cm^3
# Si number density = 23.535350 Si / 1000 Ang^3
#
#
#
# Elastic Constant Matrix: (Units=GPa)
#
#
# Indices 1 2 3 4 5 6 
#
# 1 96.7275 42.3473 31.7017 0.0000 -16.4790 0.0000
# 2 42.3473 70.8553 1.9046 0.0000 4.1855 0.0000
# 3 31.7017 1.9046 90.6465 0.0000 -12.5411 0.0000
# 4 0.0000 0.0000 0.0000 27.8934 0.0000 -3.5578
# 5 -16.4790 4.1855 -12.5411 0.0000 55.0057 0.0000
# 6 0.0000 0.0000 0.0000 -3.5578 0.0000 42.8377
#
#
#
# Elastic Compliance Matrix: (Units=1/GPa)
#
#
# Indices 1 2 3 4 5 6 
#
# 1 0.017537 -0.010628 -0.005236 0.000000 0.004869 0.000000
# 2 -0.010628 0.020637 0.002711 0.000000 -0.004136 0.000000
# 3 -0.005236 0.002711 0.012970 0.000000 0.001182 0.000000
# 4 0.000000 0.000000 0.000000 0.036235 0.000000 0.003009
# 5 0.004869 -0.004136 0.001182 0.000000 0.020223 0.000000
# 6 0.000000 0.000000 0.000000 0.003009 0.000000 0.023594
#
#
# Mechanical properties :
#
#
# Convention : Reuss Voigt Hill
#
# Bulk Modulus (GPa) = 40.26265 45.57073 42.91669
# Shear Modulus (GPa) = 30.16058 37.29908 33.72983
#
# Velocity S-wave (km/s) = 3.58369 3.98529 3.78981
# Velocity P-wave (km/s) = 5.85391 6.37035 6.11758
#
# Compressibility (1/GPa) = 0.02483691
#
# Stress axis : x y z
#
# Youngs Moduli (GPa) = 57.02306 48.45774 77.10276
#
# Poissons Ratio (x) = 0.51500 0.40373
# Poissons Ratio (y) = 0.60603 -0.20903
# Poissons Ratio (z) = 0.29859 -0.13137
#
# Static dielectric constant tensor:
#      x y z
#    x 1.954140 0.000000 -0.058680 
#    y 0.000000 1.872320 0.000000 
#    z -0.058680 0.000000 1.895290 
# 
# From -- ./inp_files/139002.got.cif
#   From: 2010.05.17/outbox.cif.g08.bks.cpg/sg15_70_cif.got.tgz:139002.got - 2010.06.03 18:47:42.
