data_PCOD9299401
_publ_section_title
;
Structure prediction by ZEFSAII (Michael W. Deem and Ramdas Pophale) SiO2 
 PCOD9299401
Probable space group: C 2/C
;
_chemical_formula_sum "Si O2"
_cell_formula_units_Z 48
_cell_length_a 18.377755
_cell_length_b 16.256309
_cell_length_c 14.900804
_cell_angle_alpha 90.000000
_cell_angle_beta 153.625135
_cell_angle_gamma 90.000000
_cell_volume 1977.624868
_symmetry_space_group_name_H-M "C 2/C"
_symmetry_group_IT_number 15
_symmetry_cell_setting 'monoclinic'
loop_
_space_group_symop_operation_xyz
x,y,z
-x,y,1/2-z
-x,-y,-z
x,-y,1/2+z
1/2+x,1/2+y,z
1/2-x,1/2+y,1/2-z
1/2-x,1/2-y,-z
1/2+x,1/2-y,1/2+z
loop_
_atom_site_type_symbol
_atom_site_label
_atom_site_fract_x
_atom_site_fract_y
_atom_site_fract_z
Si Si1 0.085245 0.875063 0.101580
Si Si2 0.485427 0.870929 0.131843
Si Si3 0.166349 0.665192 0.380651
Si Si4 0.267977 0.493839 0.096340
Si Si5 0.136043 0.121659 0.453725
Si Si6 0.761828 0.294714 0.734768
O O1 0.133487 0.955047 0.211510
O O2 0.222675 0.803146 0.263000
O O3 0.066318 0.895018 0.975772
O O4 0.919326 0.831118 0.952932
O O5 0.500000 0.844850 0.250000
O O6 0.673629 0.861896 0.309854
O O7 0.368251 0.817514 0.939596
O O8 0.394543 0.960973 0.041346
O O9 0.250000 0.750000 0.500000
O O10 0.250739 0.585667 0.514163
O O11 0.160450 0.662514 0.266939
O O12 0.000000 0.666849 0.250000
O O13 0.337067 0.556828 0.098280
O O14 0.000000 0.176354 0.250000
#
# Coordination Sequence:
#
# PCOD9299401 Si02
#       6
#     8   8   8   8   8   8
#     4  12  27  48  76 114 151 200 254 312 377 450
#     4  10  24  50  74 110 151 200 252 314 375 451
#     4  12  26  45  71 109 152 199 247 305 376 446
#     4  11  27  47  72 111 152 199 251 306 378 445
#     4  11  26  47  76 110 149 200 250 314 378 451
#     4  12  27  48  79 112 151 202 254 314 378 447
#
# _framework density 24.271540000000002
#
# number of rings (size 3 to 8) (size 9 to 14) (size 15 to 20)
#    0.000    0.667    1.667    5.500    7.000    2.667 
#    0.000    5.833    0.000    0.000    0.000    0.000 
#    0.000    0.000    0.000    0.000    0.000    0.000 
#
# Total GULP energy -133996.682319 kJ/mol
# GULP energy per Si atom -5583.195097 kJ/mol
# Density = 2.421630 g / cm^3
# Si number density = 24.271540 Si / 1000 Ang^3
#
#
#
# Elastic Constant Matrix: (Units=GPa)
#
#
# Indices 1 2 3 4 5 6 
#
# 1 150.8278 3.8727 39.3492 0.0000 -5.4173 0.0001
# 2 3.8727 94.4879 32.4460 0.0000 4.2634 0.0001
# 3 39.3492 32.4460 119.4400 0.0000 -2.6442 0.0002
# 4 0.0000 0.0000 0.0000 15.2855 0.0000 -2.6017
# 5 -5.4173 4.2634 -2.6442 0.0000 49.1361 0.0001
# 6 0.0001 0.0001 0.0002 -2.6017 0.0001 23.5170
#
#
#
# Elastic Compliance Matrix: (Units=1/GPa)
#
#
# Indices 1 2 3 4 5 6 
#
# 1 0.007301 0.000545 -0.002540 0.000000 0.000621 0.000000
# 2 0.000545 0.011782 -0.003405 0.000000 -0.001145 0.000000
# 3 -0.002540 -0.003405 0.010147 0.000000 0.000562 0.000000
# 4 0.000000 0.000000 0.000000 0.066677 0.000000 0.007376
# 5 0.000621 -0.001145 0.000562 0.000000 0.020550 0.000000
# 6 0.000000 0.000000 0.000000 0.007376 0.000000 0.043338
#
#
# Mechanical properties :
#
#
# Convention : Reuss Voigt Hill
#
# Bulk Modulus (GPa) = 54.26165 57.34351 55.80258
# Shear Modulus (GPa) = 28.29045 36.86025 32.57535
#
# Velocity S-wave (km/s) = 3.41776 3.90123 3.66747
# Velocity P-wave (km/s) = 6.16275 6.63098 6.40115
#
# Compressibility (1/GPa) = 0.01842922
#
# Stress axis : x y z
#
# Youngs Moduli (GPa) = 136.96895 84.87440 98.55552
#
# Poissons Ratio (x) = -0.04624 0.25028
# Poissons Ratio (y) = -0.07462 0.33563
# Poissons Ratio (z) = 0.34783 0.28904
#
# Static dielectric constant tensor:
#      x y z
#    x 1.946540 0.000000 0.110400 
#    y 0.000000 1.938150 0.000000 
#    z 0.110400 0.000000 2.104440 
# 
# From -- ./inp_files/163330.got.cif
#   From: 2010.05.17/outbox.cif.g08.bks.cpg/sg15_82_cif.got.tgz:163330.got - 2010.06.03 18:47:42.
