data_PCOD9299465
_publ_section_title
;
Structure prediction by ZEFSAII (Michael W. Deem and Ramdas Pophale) SiO2 
 PCOD9299465
Probable space group: C 2/C
;
_chemical_formula_sum "Si O2"
_cell_formula_units_Z 60
_cell_length_a 12.170979
_cell_length_b 11.245853
_cell_length_c 28.326444
_cell_angle_alpha 90.000000
_cell_angle_beta 134.932846
_cell_angle_gamma 90.000000
_cell_volume 2744.753820
_symmetry_space_group_name_H-M "C 2/C"
_symmetry_group_IT_number 15
_symmetry_cell_setting 'monoclinic'
loop_
_space_group_symop_operation_xyz
x,y,z
-x,y,1/2-z
-x,-y,-z
x,-y,1/2+z
1/2+x,1/2+y,z
1/2-x,1/2+y,1/2-z
1/2-x,1/2-y,-z
1/2+x,1/2-y,1/2+z
loop_
_atom_site_type_symbol
_atom_site_label
_atom_site_fract_x
_atom_site_fract_y
_atom_site_fract_z
Si Si1 0.000000 0.077501 0.750000
Si Si2 0.701364 0.731008 0.752098
Si Si3 0.306597 0.259163 0.942014
Si Si4 0.859903 0.894203 0.860110
Si Si5 0.981570 0.406727 0.629511
Si Si6 0.107039 0.436939 0.246348
Si Si7 0.077693 0.606086 0.053572
Si Si8 0.877375 0.003340 0.615518
O O1 0.859084 0.164771 0.719905
O O2 0.969834 0.007741 0.693068
O O3 0.850012 0.805561 0.812522
O O4 0.568638 0.808016 0.687606
O O5 0.750799 0.635881 0.729455
O O6 0.352601 0.319737 0.905947
O O7 0.192234 0.357146 0.930882
O O8 0.208579 0.133594 0.912609
O O9 0.470594 0.222214 0.014897
O O10 0.692198 0.959657 0.802705
O O11 0.008872 0.975823 0.893926
O O12 0.008166 0.519563 0.671355
O O13 0.068373 0.424109 0.606271
O O14 0.000000 0.367746 0.250000
O O15 0.250038 0.600338 0.084795
O O16 0.000000 0.500000 0.000000
#
# Coordination Sequence:
#
# PCOD9299465 Si02
#       8
#     4   8   8   8   8   8   8   8
#     4  12  18  38  64  90 130 166 200 266 336 396
#     4  11  22  35  62  96 129 166 206 265 336 395
#     4  11  21  42  67  86 127 173 219 266 320 390
#     4  11  22  38  65  96 122 172 211 261 336 394
#     4  11  21  39  66  89 127 171 217 263 329 394
#     4  11  22  37  58  97 131 156 209 270 325 399
#     4  10  25  41  64  92 125 173 226 269 319 387
#     4  11  23  39  63  96 132 160 216 272 325 395
#
# _framework density 21.859883
#
# number of rings (size 3 to 8) (size 9 to 14) (size 15 to 20)
#    0.000    1.067    5.333    1.200    5.600    1.600 
#    0.000    0.000    5.867    4.800    0.000    0.000 
#    0.000    0.000    0.000    0.000    0.000    0.000 
#
# Total GULP energy -167219.767340 kJ/mol
# GULP energy per Si atom -5573.992245 kJ/mol
# Density = 2.181013 g / cm^3
# Si number density = 21.859883 Si / 1000 Ang^3
#
#
#
# Elastic Constant Matrix: (Units=GPa)
#
#
# Indices 1 2 3 4 5 6 
#
# 1 120.1639 11.4553 6.2413 0.0000 -0.9042 0.0000
# 2 11.4553 22.6957 -7.7090 0.0000 5.3054 0.0000
# 3 6.2413 -7.7090 18.1989 0.0000 -0.1418 0.0000
# 4 0.0000 0.0000 0.0000 -0.8705 0.0000 6.4058
# 5 -0.9042 5.3054 -0.1418 0.0000 29.7417 0.0000
# 6 0.0000 0.0000 0.0000 6.4058 0.0000 28.2422
#
#
#
# Elastic Compliance Matrix: (Units=1/GPa)
#
#
# Indices 1 2 3 4 5 6 
#
# 1 0.009344 -0.007195 -0.006240 0.000000 0.001538 0.000000
# 2 -0.007195 0.059580 0.027622 0.000000 -0.010715 0.000000
# 3 -0.006240 0.027622 0.068751 0.000000 -0.004789 0.000000
# 4 0.000000 0.000000 0.000000 -0.430392 0.000000 0.097620
# 5 0.001538 -0.010715 -0.004789 0.000000 0.035558 0.000000
# 6 0.000000 0.000000 0.000000 0.097620 0.000000 0.013266
#
#
# Mechanical properties :
#
#
# Convention : Reuss Voigt Hill
#
# Bulk Modulus (GPa) = 6.02237 20.11486 13.06861
# Shear Modulus (GPa) = -23.05033 21.49408 -0.77813
#
# Velocity S-wave (km/s) = -3.25076 3.13911 -0.59727
# Velocity P-wave (km/s) = 3.36586 4.72868 2.34855
#
# Compressibility (1/GPa) = 0.16604765
#
# Stress axis : x y z
#
# Youngs Moduli (GPa) = 107.02561 16.78424 14.54514
#
# Poissons Ratio (x) = 0.12076 0.09076
# Poissons Ratio (y) = 0.77005 -0.40176
# Poissons Ratio (z) = 0.66786 -0.46361
#
# Static dielectric constant tensor:
#      x y z
#    x 1.444150 0.000000 -0.168080 
#    y 0.000000 1.867760 0.000000 
#    z -0.168080 0.000000 1.681470 
# 
# From -- ./inp_files/310825.got.cif
#   From: 2010.05.17/outbox.cif.g08.bks.cpg/sg15_156_cif.got.tgz:310825.got - 2010.06.03 18:47:42.
