data_PCOD9299844
_publ_section_title
;
Structure prediction by ZEFSAII (Michael W. Deem and Ramdas Pophale) SiO2 
 PCOD9299844
Probable space group: C 2/C
;
_chemical_formula_sum "Si O2"
_cell_formula_units_Z 36
_cell_length_a 12.684546
_cell_length_b 21.233638
_cell_length_c 9.666336
_cell_angle_alpha 90.000000
_cell_angle_beta 146.655797
_cell_angle_gamma 90.000000
_cell_volume 1431.071258
_symmetry_space_group_name_H-M "C 2/C"
_symmetry_group_IT_number 15
_symmetry_cell_setting 'monoclinic'
loop_
_space_group_symop_operation_xyz
x,y,z
-x,y,1/2-z
-x,-y,-z
x,-y,1/2+z
1/2+x,1/2+y,z
1/2-x,1/2+y,1/2-z
1/2-x,1/2-y,-z
1/2+x,1/2-y,1/2+z
loop_
_atom_site_type_symbol
_atom_site_label
_atom_site_fract_x
_atom_site_fract_y
_atom_site_fract_z
Si Si1 0.178786 0.881025 0.259230
Si Si2 0.047841 0.727169 0.455277
Si Si3 0.212721 0.932923 0.998336
Si Si4 0.211930 0.848327 0.726785
Si Si5 0.000000 0.532002 0.250000
O O1 0.260015 0.811732 0.368895
O O2 0.332778 0.927458 0.496281
O O3 0.192262 0.890322 0.109389
O O4 0.950943 0.886216 0.038574
O O5 0.898093 0.675034 0.347860
O O6 0.000000 0.752033 0.250000
O O7 0.104885 0.780753 0.628597
O O8 0.255298 0.890062 0.909376
O O9 0.000000 0.962540 0.750000
O O10 0.375426 0.984127 0.205963
#
# Coordination Sequence:
#
# PCOD9299844 Si02
#       5
#     8   8   8   8   4
#     4  11  25  45  70 109 141 190 239 286 360 424
#     4  12  24  43  69 107 146 185 232 290 359 430
#     4  10  25  47  69 107 143 186 242 289 357 423
#     4  11  25  44  71 103 147 183 233 295 354 425
#     4  12  24  46  74 102 146 190 240 300 342 418
#
# _framework density 25.15598
#
# number of rings (size 3 to 8) (size 9 to 14) (size 15 to 20)
#    0.000    0.889    3.333    2.667    0.000    6.222 
#    4.000    0.000    0.000    0.000    0.000    0.000 
#    0.000    0.000    0.000    0.000    0.000    0.000 
#
# Total GULP energy -100541.711448 kJ/mol
# GULP energy per Si atom -5585.650636 kJ/mol
# Density = 2.509872 g / cm^3
# Si number density = 25.155980 Si / 1000 Ang^3
#
#
#
# Elastic Constant Matrix: (Units=GPa)
#
#
# Indices 1 2 3 4 5 6 
#
# 1 84.3461 22.1911 40.2533 0.0000 25.8468 0.0000
# 2 22.1911 86.4119 32.0631 0.0000 1.8450 0.0000
# 3 40.2533 32.0631 124.2332 0.0000 21.2282 0.0000
# 4 0.0000 0.0000 0.0000 13.5531 0.0000 20.5872
# 5 25.8468 1.8450 21.2282 0.0000 48.0716 0.0000
# 6 0.0000 0.0000 0.0000 20.5872 0.0000 -12.6272
#
#
#
# Elastic Compliance Matrix: (Units=1/GPa)
#
#
# Indices 1 2 3 4 5 6 
#
# 1 0.016416 -0.002816 -0.003356 0.000000 -0.007236 0.000000
# 2 -0.002816 0.013330 -0.002919 0.000000 0.002292 0.000000
# 3 -0.003356 -0.002919 0.010343 0.000000 -0.002651 0.000000
# 4 0.000000 0.000000 0.000000 0.021223 0.000000 0.034602
# 5 -0.007236 0.002292 -0.002651 0.000000 0.025776 0.000000
# 6 0.000000 0.000000 0.000000 0.034602 0.000000 -0.022780
#
#
# Mechanical properties :
#
#
# Convention : Reuss Voigt Hill
#
# Bulk Modulus (GPa) = 45.64838 53.77848 49.71343
# Shear Modulus (GPa) = 55.68360 23.16508 39.42434
#
# Velocity S-wave (km/s) = 4.70992 3.03786 3.96308
# Velocity P-wave (km/s) = 6.91111 5.80768 6.38328
#
# Compressibility (1/GPa) = 0.02190658
#
# Stress axis : x y z
#
# Youngs Moduli (GPa) = 60.91712 75.01877 96.68231
#
# Poissons Ratio (x) = 0.21126 0.32443
# Poissons Ratio (y) = 0.17155 0.28226
# Poissons Ratio (z) = 0.20442 0.21901
#
# Static dielectric constant tensor:
#      x y z
#    x 1.935080 0.000000 0.088100 
#    y 0.000000 2.006140 0.000000 
#    z 0.088100 0.000000 2.157400 
# 
# From -- ./inp_files/99937.got.cif
#   From: 2010.05.17/outbox.cif.g08.bks.cpg/sg15_50_cif.got.tgz:99937.got - 2010.06.03 18:47:42.
