data_PCOD9299818
_publ_section_title
;
Structure prediction by ZEFSAII (Michael W. Deem and Ramdas Pophale) SiO2 
 PCOD9299818
Probable space group: C 2/C
;
_chemical_formula_sum "Si O2"
_cell_formula_units_Z 40
_cell_length_a 7.853874
_cell_length_b 18.250969
_cell_length_c 11.709703
_cell_angle_alpha 90.000000
_cell_angle_beta 103.093858
_cell_angle_gamma 90.000000
_cell_volume 1634.838321
_symmetry_space_group_name_H-M "C 2/C"
_symmetry_group_IT_number 15
_symmetry_cell_setting 'monoclinic'
loop_
_space_group_symop_operation_xyz
x,y,z
-x,y,1/2-z
-x,-y,-z
x,-y,1/2+z
1/2+x,1/2+y,z
1/2-x,1/2+y,1/2-z
1/2-x,1/2-y,-z
1/2+x,1/2-y,1/2+z
loop_
_atom_site_type_symbol
_atom_site_label
_atom_site_fract_x
_atom_site_fract_y
_atom_site_fract_z
Si Si1 0.202789 0.269748 0.785903
Si Si2 0.859817 0.107560 0.141516
Si Si3 0.676812 0.619406 0.029178
Si Si4 0.292469 0.889928 0.303674
Si Si5 0.164066 0.536300 0.914995
O O1 0.265818 0.328434 0.699287
O O2 0.219702 0.310766 0.909523
O O3 0.318625 0.197139 0.792440
O O4 0.000000 0.249244 0.750000
O O5 0.000000 0.071019 0.250000
O O6 0.990430 0.131218 0.060246
O O7 0.723077 0.059567 0.050913
O O8 0.784282 0.548461 0.090623
O O9 0.666821 0.607926 0.893330
O O10 0.238098 0.923806 0.175192
O O11 0.467705 0.933927 0.367379
#
# Coordination Sequence:
#
# PCOD9299818 Si02
#       5
#     8   8   8   8   8
#     4  11  26  48  75 112 156 212 255 322 385 470
#     4  10  25  46  75 107 153 195 260 314 390 447
#     4  11  25  45  77 109 153 205 260 317 392 459
#     4  11  27  46  76 112 155 199 268 302 403 453
#     4  11  26  46  78 110 155 204 254 328 379 470
#
# _framework density 24.467251000000001
#
# number of rings (size 3 to 8) (size 9 to 14) (size 15 to 20)
#    0.000    1.200    0.000    3.000   19.600    0.800 
#    0.000    0.000    0.000    0.000    0.000    0.000 
#    0.000    0.000    0.000    0.000    0.000    0.000 
#
# Total GULP energy -111733.255270 kJ/mol
# GULP energy per Si atom -5586.662763 kJ/mol
# Density = 2.441156 g / cm^3
# Si number density = 24.467251 Si / 1000 Ang^3
#
#
#
# Elastic Constant Matrix: (Units=GPa)
#
#
# Indices 1 2 3 4 5 6 
#
# 1 118.3412 27.7560 38.1197 0.0000 -9.2055 0.0000
# 2 27.7560 178.4292 57.8870 0.0000 6.2188 0.0000
# 3 38.1197 57.8870 163.6181 0.0000 -17.2231 0.0000
# 4 0.0000 0.0000 0.0000 2.5168 0.0000 -26.2053
# 5 -9.2055 6.2188 -17.2231 0.0000 57.2581 0.0000
# 6 0.0000 0.0000 0.0000 -26.2053 0.0000 1.6950
#
#
#
# Elastic Compliance Matrix: (Units=1/GPa)
#
#
# Indices 1 2 3 4 5 6 
#
# 1 0.009307 -0.000925 -0.001728 0.000000 0.001077 0.000000
# 2 -0.000925 0.006535 -0.002258 0.000000 -0.001538 0.000000
# 3 -0.001728 -0.002258 0.007549 0.000000 0.002238 0.000000
# 4 0.000000 0.000000 0.000000 -0.002484 0.000000 -0.038399
# 5 0.001077 -0.001538 0.002238 0.000000 0.018478 0.000000
# 6 0.000000 0.000000 0.000000 -0.038399 0.000000 -0.003688
#
#
# Mechanical properties :
#
#
# Convention : Reuss Voigt Hill
#
# Bulk Modulus (GPa) = 73.69764 78.65711 76.17738
# Shear Modulus (GPa) = 99.91528 34.73570 67.32549
#
# Velocity S-wave (km/s) = 6.39726 3.77195 5.25131
# Velocity P-wave (km/s) = 9.20614 7.15457 8.24442
#
# Compressibility (1/GPa) = 0.01356896
#
# Stress axis : x y z
#
# Youngs Moduli (GPa) = 107.44130 153.03235 132.46927
#
# Poissons Ratio (x) = 0.14153 0.22889
# Poissons Ratio (y) = 0.09936 0.29915
# Poissons Ratio (z) = 0.18564 0.34559
#
# Static dielectric constant tensor:
#      x y z
#    x 2.052390 0.000000 0.020380 
#    y 0.000000 1.929310 0.000000 
#    z 0.020380 0.000000 1.985220 
# 
# From -- ./inp_files/76910.got.cif
#   From: 2010.05.17/outbox.cif.g08.bks.cpg/sg15_39_cif.got.tgz:76910.got - 2010.06.03 18:47:42.
