data_PCOD9299210
_publ_section_title
;
Structure prediction by ZEFSAII (Michael W. Deem and Ramdas Pophale) SiO2 
 PCOD9299210
Probable space group: C 2/C
;
_chemical_formula_sum "Si O2"
_cell_formula_units_Z 28
_cell_length_a 4.713393
_cell_length_b 14.361809
_cell_length_c 16.419009
_cell_angle_alpha 90.000000
_cell_angle_beta 75.167783
_cell_angle_gamma 90.000000
_cell_volume 1074.415572
_symmetry_space_group_name_H-M "C 2/C"
_symmetry_group_IT_number 15
_symmetry_cell_setting 'monoclinic'
loop_
_space_group_symop_operation_xyz
x,y,z
-x,y,1/2-z
-x,-y,-z
x,-y,1/2+z
1/2+x,1/2+y,z
1/2-x,1/2+y,1/2-z
1/2-x,1/2-y,-z
1/2+x,1/2-y,1/2+z
loop_
_atom_site_type_symbol
_atom_site_label
_atom_site_fract_x
_atom_site_fract_y
_atom_site_fract_z
Si Si1 0.621269 0.671352 0.833020
Si Si2 0.865929 0.627902 0.127431
Si Si3 0.516497 0.661707 0.017132
Si Si4 0.000000 0.488452 0.250000
O O1 0.500000 0.671849 0.750000
O O2 0.767923 0.772323 0.835679
O O3 0.828523 0.582342 0.819994
O O4 0.430912 0.654600 0.928596
O O5 0.717577 0.592230 0.055234
O O6 0.207953 0.654228 0.087497
O O7 0.828409 0.555438 0.202035
O O8 0.750000 0.750000 0.000000
#
# Coordination Sequence:
#
# PCOD9299210 Si02
#       4
#     8   8   8   4
#     4  11  26  46  75 106 147 192 247 304 365 436
#     4  11  26  50  74 107 151 194 245 307 366 441
#     4  10  24  47  78 104 145 200 245 299 373 434
#     4  12  30  44  78 112 152 196 246 306 376 436
#
# _framework density 26.060682
#
# number of rings (size 3 to 8) (size 9 to 14) (size 15 to 20)
#    0.000    1.143    1.429    3.429   16.000    2.286 
#    0.000    0.000    0.000    0.000    0.000    0.000 
#    0.000    0.000    0.000    0.000    0.000    0.000 
#
# Total GULP energy -78039.560164 kJ/mol
# GULP energy per Si atom -5574.254297 kJ/mol
# Density = 2.600137 g / cm^3
# Si number density = 26.060682 Si / 1000 Ang^3
#
#
#
# Elastic Constant Matrix: (Units=GPa)
#
#
# Indices 1 2 3 4 5 6 
#
# 1 105.4493 3.4651 38.6354 0.0000 -0.7721 0.0000
# 2 3.4651 125.4204 17.9580 0.0000 -7.9948 0.0000
# 3 38.6354 17.9580 106.3509 0.0000 7.8172 0.0000
# 4 0.0000 0.0000 0.0000 -33.5157 0.0000 -63.1313
# 5 -0.7721 -7.9948 7.8172 0.0000 62.4655 0.0000
# 6 0.0000 0.0000 0.0000 -63.1313 0.0000 -78.7557
#
#
#
# Elastic Compliance Matrix: (Units=1/GPa)
#
#
# Indices 1 2 3 4 5 6 
#
# 1 0.010977 0.000327 -0.004094 0.000000 0.000690 0.000000
# 2 0.000327 0.008275 -0.001609 0.000000 0.001265 0.000000
# 3 -0.004094 -0.001609 0.011284 0.000000 -0.001669 0.000000
# 4 0.000000 0.000000 0.000000 0.058511 0.000000 -0.046903
# 5 0.000690 0.001265 -0.001669 0.000000 0.016388 0.000000
# 6 0.000000 0.000000 0.000000 -0.046903 0.000000 0.024900
#
#
# Mechanical properties :
#
#
# Convention : Reuss Voigt Hill
#
# Bulk Modulus (GPa) = 50.54313 50.81529 50.67921
# Shear Modulus (GPa) = 33.85639 8.51628 21.18633
#
# Velocity S-wave (km/s) = 3.60826 1.80968 2.85434
# Velocity P-wave (km/s) = 6.06596 4.88956 5.50925
#
# Compressibility (1/GPa) = 0.01978508
#
# Stress axis : x y z
#
# Youngs Moduli (GPa) = 91.09563 120.84387 88.61789
#
# Poissons Ratio (x) = -0.03950 0.36279
# Poissons Ratio (y) = -0.02978 0.14259
# Poissons Ratio (z) = 0.37293 0.19444
#
# Static dielectric constant tensor:
#      x y z
#    x 2.154920 0.000000 0.009880 
#    y 0.000000 2.067070 0.000000 
#    z 0.009880 0.000000 2.172420 
# 
# From -- ./inp_files/183683.got.cif
#   From: 2010.05.17/outbox.cif.g08.bks.cpg/sg15_92_cif.got.tgz:183683.got - 2010.06.03 18:47:42.
