data_PCOD9299631
_publ_section_title
;
Structure prediction by ZEFSAII (Michael W. Deem and Ramdas Pophale) SiO2 
 PCOD9299631
Probable space group: C 2/C
;
_chemical_formula_sum "Si O2"
_cell_formula_units_Z 48
_cell_length_a 13.767932
_cell_length_b 4.665457
_cell_length_c 30.460165
_cell_angle_alpha 90.000000
_cell_angle_beta 115.233520
_cell_angle_gamma 90.000000
_cell_volume 1769.868831
_symmetry_space_group_name_H-M "C 2/C"
_symmetry_group_IT_number 15
_symmetry_cell_setting 'monoclinic'
loop_
_space_group_symop_operation_xyz
x,y,z
-x,y,1/2-z
-x,-y,-z
x,-y,1/2+z
1/2+x,1/2+y,z
1/2-x,1/2+y,1/2-z
1/2-x,1/2-y,-z
1/2+x,1/2-y,1/2+z
loop_
_atom_site_type_symbol
_atom_site_label
_atom_site_fract_x
_atom_site_fract_y
_atom_site_fract_z
Si Si1 0.094758 0.189434 0.995304
Si Si2 0.917925 0.486447 0.313535
Si Si3 0.394872 0.452121 0.249771
Si Si4 0.269698 0.937257 0.357997
Si Si5 0.389991 0.692477 0.602948
Si Si6 0.216520 0.721619 0.059841
O O1 0.081289 0.259428 0.941800
O O2 0.133218 0.478399 0.026216
O O3 0.197199 0.983093 0.023901
O O4 0.000000 0.000000 0.000000
O O5 0.935944 0.228783 0.283573
O O6 0.865132 0.335820 0.345764
O O7 0.844268 0.718334 0.273090
O O8 0.013621 0.684575 0.349831
O O9 0.500000 0.301521 0.250000
O O10 0.212276 0.740060 0.383893
O O11 0.179382 0.021263 0.305644
O O12 0.312065 0.207156 0.394138
O O13 0.343421 0.365633 0.586040
#
# Coordination Sequence:
#
# PCOD9299631 Si02
#       6
#     8   8   8   8   8   8
#     4  12  24  45  73 106 145 191 242 300 368 440
#     4  12  26  47  71 104 144 192 243 303 365 443
#     4  12  25  47  72 105 144 190 241 304 368 439
#     4  10  25  47  71 108 142 193 245 303 368 441
#     4  10  25  47  72 106 146 190 243 299 368 431
#     4  10  25  44  70 101 148 184 244 296 367 432
#
# _framework density 27.120652
#
# number of rings (size 3 to 8) (size 9 to 14) (size 15 to 20)
#    1.000    0.000    1.667    4.000    0.000    8.000 
#    0.000    0.000    0.000    0.000    0.000    0.000 
#    0.000    0.000    0.000    0.000    0.000    0.000 
#
# Total GULP energy -133796.497430 kJ/mol
# GULP energy per Si atom -5574.854060 kJ/mol
# Density = 2.705892 g / cm^3
# Si number density = 27.120652 Si / 1000 Ang^3
#
#
#
# Elastic Constant Matrix: (Units=GPa)
#
#
# Indices 1 2 3 4 5 6 
#
# 1 99.0910 17.6057 40.2629 0.0000 -15.1165 0.0000
# 2 17.6057 108.8126 41.8404 0.0000 -7.1325 0.0001
# 3 40.2629 41.8404 187.6514 0.0000 -29.8896 0.0000
# 4 0.0000 0.0000 0.0000 30.3225 0.0000 -3.3501
# 5 -15.1165 -7.1325 -29.8896 0.0000 39.5331 0.0000
# 6 0.0000 0.0001 0.0000 -3.3501 0.0000 34.2134
#
#
#
# Elastic Compliance Matrix: (Units=1/GPa)
#
#
# Indices 1 2 3 4 5 6 
#
# 1 0.011423 -0.000977 -0.001780 0.000000 0.002846 0.000000
# 2 -0.000977 0.010136 -0.002068 0.000000 -0.000108 0.000000
# 3 -0.001780 -0.002068 0.006826 0.000000 0.004107 0.000000
# 4 0.000000 0.000000 0.000000 0.033339 0.000000 0.003265
# 5 0.002846 -0.000108 0.004107 0.000000 0.029469 0.000000
# 6 0.000000 0.000000 0.000000 0.003265 0.000000 0.029548
#
#
# Mechanical properties :
#
#
# Convention : Reuss Voigt Hill
#
# Bulk Modulus (GPa) = 53.37365 66.10810 59.74088
# Shear Modulus (GPa) = 36.59352 40.53687 38.56519
#
# Velocity S-wave (km/s) = 3.67725 3.87031 3.77501
# Velocity P-wave (km/s) = 6.14429 6.66340 6.40910
#
# Compressibility (1/GPa) = 0.01873584
#
# Stress axis : x y z
#
# Youngs Moduli (GPa) = 87.54551 98.65656 146.49590
#
# Poissons Ratio (x) = 0.09642 0.26071
# Poissons Ratio (y) = 0.08556 0.30289
# Poissons Ratio (z) = 0.15580 0.20398
#
# Static dielectric constant tensor:
#      x y z
#    x 2.262770 0.000000 0.022580 
#    y 0.000000 2.303450 0.000000 
#    z 0.022580 0.000000 2.067870 
# 
# From -- ./inp_files/312149.got.cif
#   From: 2010.05.17/outbox.cif.g08.bks.cpg/sg15_157_cif.got.tgz:312149.got - 2010.06.03 18:47:42.
