data_PCOD9299836
_publ_section_title
;
Structure prediction by ZEFSAII (Michael W. Deem and Ramdas Pophale) SiO2 
 PCOD9299836
Probable space group: C 2/C
;
_chemical_formula_sum "Si O2"
_cell_formula_units_Z 48
_cell_length_a 10.965595
_cell_length_b 9.553382
_cell_length_c 24.451075
_cell_angle_alpha 90.000000
_cell_angle_beta 109.454702
_cell_angle_gamma 90.000000
_cell_volume 2415.212178
_symmetry_space_group_name_H-M "C 2/C"
_symmetry_group_IT_number 15
_symmetry_cell_setting 'monoclinic'
loop_
_space_group_symop_operation_xyz
x,y,z
-x,y,1/2-z
-x,-y,-z
x,-y,1/2+z
1/2+x,1/2+y,z
1/2-x,1/2+y,1/2-z
1/2-x,1/2-y,-z
1/2+x,1/2-y,1/2+z
loop_
_atom_site_type_symbol
_atom_site_label
_atom_site_fract_x
_atom_site_fract_y
_atom_site_fract_z
Si Si1 0.551166 0.303176 0.865314
Si Si2 0.270778 0.825928 0.815826
Si Si3 0.510315 0.813473 0.561156
Si Si4 0.137812 0.598767 0.968067
Si Si5 0.623193 0.101023 0.728044
Si Si6 0.083747 0.981650 0.458400
O O1 0.637263 0.358204 0.828055
O O2 0.637536 0.199744 0.916028
O O3 0.434238 0.208248 0.825979
O O4 0.518187 0.432604 0.899350
O O5 0.377159 0.796000 0.877895
O O6 0.234140 0.688621 0.775686
O O7 0.321409 0.957663 0.788441
O O8 0.567361 0.824033 0.508146
O O9 0.413984 0.683412 0.552599
O O10 0.442500 0.961722 0.559993
O O11 0.275478 0.545107 0.009464
O O12 0.500000 0.073921 0.750000
O O13 0.000000 0.000000 0.500000
#
# Coordination Sequence:
#
# PCOD9299836 Si02
#       6
#     8   8   8   8   8   8
#     4  11  22  44  68  92 135 169 211 271 326 387
#     4  11  23  47  69  91 128 173 217 274 329 378
#     4  11  23  40  68  96 135 172 216 268 327 393
#     4  11  22  43  64  98 137 171 213 266 329 398
#     4  10  25  47  67  92 123 170 223 274 322 380
#     4  12  23  37  63 101 133 172 214 255 323 401
#
# _framework density 19.874030000000001
#
# number of rings (size 3 to 8) (size 9 to 14) (size 15 to 20)
#    0.000    1.000    5.000    2.000    2.333    0.000 
#    6.000    0.000    0.000    0.000    0.000    0.000 
#    0.000    0.000    0.000    0.000    0.000    0.000 
#
# Total GULP energy -134099.793738 kJ/mol
# GULP energy per Si atom -5587.491406 kJ/mol
# Density = 1.982880 g / cm^3
# Si number density = 19.874030 Si / 1000 Ang^3
#
#
#
# Elastic Constant Matrix: (Units=GPa)
#
#
# Indices 1 2 3 4 5 6 
#
# 1 48.9082 34.1832 6.7174 0.0000 -8.0142 0.0000
# 2 34.1832 116.0593 37.6793 0.0000 -9.9656 0.0000
# 3 6.7174 37.6793 69.9391 0.0000 -1.1483 0.0000
# 4 0.0000 0.0000 0.0000 41.0395 0.0000 -4.9810
# 5 -8.0142 -9.9656 -1.1483 0.0000 33.6670 0.0000
# 6 0.0000 0.0000 0.0000 -4.9810 0.0000 38.4428
#
#
#
# Elastic Compliance Matrix: (Units=1/GPa)
#
#
# Indices 1 2 3 4 5 6 
#
# 1 0.026477 -0.008063 0.001866 0.000000 0.003980 0.000000
# 2 -0.008063 0.013189 -0.006302 0.000000 0.001770 0.000000
# 3 0.001866 -0.006302 0.017501 0.000000 -0.000824 0.000000
# 4 0.000000 0.000000 0.000000 0.024756 0.000000 0.003208
# 5 0.003980 0.001770 -0.000824 0.000000 0.031146 0.000000
# 6 0.000000 0.000000 0.000000 0.003208 0.000000 0.026428
#
#
# Mechanical properties :
#
#
# Convention : Reuss Voigt Hill
#
# Bulk Modulus (GPa) = 31.08514 43.56294 37.32404
# Shear Modulus (GPa) = 28.53595 33.05163 30.79379
#
# Velocity S-wave (km/s) = 3.79336 4.08248 3.94057
# Velocity P-wave (km/s) = 5.90433 6.64751 6.28691
#
# Compressibility (1/GPa) = 0.03216971
#
# Stress axis : x y z
#
# Youngs Moduli (GPa) = 37.76800 75.82127 57.14097
#
# Poissons Ratio (x) = 0.61131 -0.10662
# Poissons Ratio (y) = 0.30451 0.36010
# Poissons Ratio (z) = -0.07047 0.47783
#
# Static dielectric constant tensor:
#      x y z
#    x 1.699930 0.000000 0.002800 
#    y 0.000000 1.693920 0.000000 
#    z 0.002800 0.000000 1.708880 
# 
# From -- ./inp_files/267635.got.cif
#   From: 2010.05.17/outbox.cif.g08.bks.cpg/sg15_134_cif.got.tgz:267635.got - 2010.06.03 18:47:42.
