data_PCOD9299415
_publ_section_title
;
Structure prediction by ZEFSAII (Michael W. Deem and Ramdas Pophale) SiO2 
 PCOD9299415
Probable space group: C 2/C
;
_chemical_formula_sum "Si O2"
_cell_formula_units_Z 36
_cell_length_a 7.715678
_cell_length_b 22.374671
_cell_length_c 16.056512
_cell_angle_alpha 90.000000
_cell_angle_beta 31.953337
_cell_angle_gamma 90.000000
_cell_volume 1466.983125
_symmetry_space_group_name_H-M "C 2/C"
_symmetry_group_IT_number 15
_symmetry_cell_setting 'monoclinic'
loop_
_space_group_symop_operation_xyz
x,y,z
-x,y,1/2-z
-x,-y,-z
x,-y,1/2+z
1/2+x,1/2+y,z
1/2-x,1/2+y,1/2-z
1/2-x,1/2-y,-z
1/2+x,1/2-y,1/2+z
loop_
_atom_site_type_symbol
_atom_site_label
_atom_site_fract_x
_atom_site_fract_y
_atom_site_fract_z
Si Si1 0.126090 0.564916 0.424319
Si Si2 0.217077 0.375552 0.295996
Si Si3 0.082437 0.757094 0.810117
Si Si4 0.000000 0.656074 0.250000
Si Si5 0.079827 0.064305 0.508174
O O1 0.500000 0.563196 0.250000
O O2 0.000000 0.500000 0.500000
O O3 0.081993 0.607260 0.522589
O O4 0.901554 0.574301 0.435202
O O5 0.500000 0.379861 0.250000
O O6 0.217460 0.310534 0.256091
O O7 0.290454 0.420693 0.191147
O O8 0.358124 0.799737 0.736863
O O9 0.000000 0.775955 0.750000
O O10 0.750000 0.750000 0.000000
O O11 0.682682 0.614871 0.400205
O O12 0.000000 0.000000 0.500000
#
# Coordination Sequence:
#
# PCOD9299415 Si02
#       5
#     8   8   8   4   8
#     4  11  26  47  78 113 160 210 270 336 412 486
#     4  10  24  50  79 111 163 206 268 342 404 490
#     4  12  29  49  83 121 162 218 274 337 418 494
#     4  12  30  52  82 120 172 212 280 344 408 504
#     4  11  28  51  76 115 158 218 273 337 410 490
#
# _framework density 24.540158999999999
#
# number of rings (size 3 to 8) (size 9 to 14) (size 15 to 20)
#    0.000    0.889    1.111    3.333   15.556    3.556 
#    0.000    1.111    0.000    0.000    0.000    0.000 
#    0.000    0.000    0.000    0.000    0.000    0.000 
#
# Total GULP energy -100727.440122 kJ/mol
# GULP energy per Si atom -5595.968896 kJ/mol
# Density = 2.448430 g / cm^3
# Si number density = 24.540159 Si / 1000 Ang^3
#
#
#
# Elastic Constant Matrix: (Units=GPa)
#
#
# Indices 1 2 3 4 5 6 
#
# 1 186.9711 67.6120 56.7062 -0.0001 2.5202 -0.0005
# 2 67.6120 153.1320 40.6062 0.0001 15.5480 0.0002
# 3 56.7062 40.6062 156.0311 -0.0013 5.1300 -0.0007
# 4 -0.0001 0.0001 -0.0013 42.7111 0.0003 1.4014
# 5 2.5202 15.5480 5.1300 0.0003 33.4502 0.0008
# 6 -0.0005 0.0002 -0.0007 1.4014 0.0008 38.0281
#
#
#
# Elastic Compliance Matrix: (Units=1/GPa)
#
#
# Indices 1 2 3 4 5 6 
#
# 1 0.006845 -0.002636 -0.001834 0.000000 0.000991 0.000000
# 2 -0.002636 0.008342 -0.001097 0.000000 -0.003510 0.000000
# 3 -0.001834 -0.001097 0.007377 0.000000 -0.000483 0.000000
# 4 0.000000 0.000000 0.000000 0.023441 0.000000 -0.000864
# 5 0.000991 -0.003510 -0.000483 0.000000 0.031526 -0.000001
# 6 0.000000 0.000000 0.000000 -0.000864 -0.000001 0.026328
#
#
# Mechanical properties :
#
#
# Convention : Reuss Voigt Hill
#
# Bulk Modulus (GPa) = 87.50525 91.77590 89.64058
# Shear Modulus (GPa) = 42.08607 44.91853 43.50230
#
# Velocity S-wave (km/s) = 4.14573 4.28297 4.21491
# Velocity P-wave (km/s) = 7.65843 7.87006 7.76497
#
# Compressibility (1/GPa) = 0.01142789
#
# Stress axis : x y z
#
# Youngs Moduli (GPa) = 146.09911 119.87874 135.55692
#
# Poissons Ratio (x) = 0.31605 0.24861
# Poissons Ratio (y) = 0.38518 0.14875
# Poissons Ratio (z) = 0.26795 0.13155
#
# Static dielectric constant tensor:
#      x y z
#    x 1.097060 -0.000010 -0.338760 
#    y -0.000010 1.893060 0.000000 
#    z -0.338760 0.000000 1.860810 
# 
# From -- ./inp_files/192435.got.cif
#   From: 2010.05.17/outbox.cif.g08.bks.cpg/sg15_97_cif.got.tgz:192435.got - 2010.06.03 18:47:42.
