data_PCOD9299711
_publ_section_title
;
Structure prediction by ZEFSAII (Michael W. Deem and Ramdas Pophale) SiO2 
 PCOD9299711
Probable space group: C 2/C
;
_chemical_formula_sum "Si O2"
_cell_formula_units_Z 44
_cell_length_a 13.963569
_cell_length_b 5.760704
_cell_length_c 22.327008
_cell_angle_alpha 90.000000
_cell_angle_beta 75.905643
_cell_angle_gamma 90.000000
_cell_volume 1741.917948
_symmetry_space_group_name_H-M "C 2/C"
_symmetry_group_IT_number 15
_symmetry_cell_setting 'monoclinic'
loop_
_space_group_symop_operation_xyz
x,y,z
-x,y,1/2-z
-x,-y,-z
x,-y,1/2+z
1/2+x,1/2+y,z
1/2-x,1/2+y,1/2-z
1/2-x,1/2-y,-z
1/2+x,1/2-y,1/2+z
loop_
_atom_site_type_symbol
_atom_site_label
_atom_site_fract_x
_atom_site_fract_y
_atom_site_fract_z
Si Si1 0.500000 0.848337 0.250000
Si Si2 0.883752 0.491595 0.001181
Si Si3 0.114460 0.598773 0.139047
Si Si4 0.168755 0.008205 0.703220
Si Si5 0.108686 0.991404 0.455935
Si Si6 0.694387 0.648806 0.831315
O O1 0.403692 0.691177 0.261833
O O2 0.519189 0.997624 0.187749
O O3 0.879430 0.464547 0.930428
O O4 0.844332 0.747936 0.026716
O O5 0.000000 0.500000 0.000000
O O6 0.845418 0.244699 0.034830
O O7 0.213105 0.501745 0.157313
O O8 0.115547 0.866606 0.156750
O O9 0.271239 0.911260 0.662578
O O10 0.184615 0.147463 0.761667
O O11 0.106241 0.945556 0.384969
O O12 0.000000 0.000000 0.500000
#
# Coordination Sequence:
#
# PCOD9299711 Si02
#       6
#     4   8   8   8   8   8
#     4  10  26  40  74 104 140 192 248 310 380 442
#     4  10  25  45  70 102 141 194 247 299 370 428
#     4  11  25  45  69 106 146 190 246 310 370 453
#     4  11  24  46  71 110 141 196 241 320 377 448
#     4  10  25  45  71 104 139 201 244 304 361 447
#     4  11  25  44  74 103 150 186 251 300 385 442
#
# _framework density 25.259512999999998
#
# number of rings (size 3 to 8) (size 9 to 14) (size 15 to 20)
#    0.000    1.455    1.818    0.545   12.727    5.818 
#    0.000    0.000    0.000    0.000    0.000    0.000 
#    0.000    0.000    0.000    0.000    0.000    0.000 
#
# Total GULP energy -122881.070229 kJ/mol
# GULP energy per Si atom -5585.503192 kJ/mol
# Density = 2.520202 g / cm^3
# Si number density = 25.259513 Si / 1000 Ang^3
#
#
#
# Elastic Constant Matrix: (Units=GPa)
#
#
# Indices 1 2 3 4 5 6 
#
# 1 60.2392 -0.0819 10.8151 0.0000 0.6300 0.0000
# 2 -0.0819 161.4339 55.0258 0.0000 1.0646 0.0000
# 3 10.8151 55.0258 154.1013 -0.0001 8.3512 0.0000
# 4 0.0000 0.0000 -0.0001 29.6422 0.0000 -8.1987
# 5 0.6300 1.0646 8.3512 0.0000 31.5793 0.0000
# 6 0.0000 0.0000 0.0000 -8.1987 0.0000 23.8326
#
#
#
# Elastic Compliance Matrix: (Units=1/GPa)
#
#
# Indices 1 2 3 4 5 6 
#
# 1 0.016843 0.000469 -0.001350 0.000000 0.000005 0.000000
# 2 0.000469 0.007072 -0.002582 0.000000 0.000435 0.000000
# 3 -0.001350 -0.002582 0.007609 0.000000 -0.001898 0.000000
# 4 0.000000 0.000000 0.000000 0.037283 0.000000 0.012826
# 5 0.000005 0.000435 -0.001898 0.000000 0.032154 0.000000
# 6 0.000000 0.000000 0.000000 0.012826 0.000000 0.046372
#
#
# Mechanical properties :
#
#
# Convention : Reuss Voigt Hill
#
# Bulk Modulus (GPa) = 40.65310 56.36583 48.50947
# Shear Modulus (GPa) = 30.77734 37.67851 34.22793
#
# Velocity S-wave (km/s) = 3.49441 3.86639 3.68510
# Velocity P-wave (km/s) = 5.69301 6.50347 6.11169
#
# Compressibility (1/GPa) = 0.02459837
#
# Stress axis : x y z
#
# Youngs Moduli (GPa) = 59.37044 141.40632 131.42908
#
# Poissons Ratio (x) = -0.06626 0.17739
# Poissons Ratio (y) = -0.02782 0.33930
# Poissons Ratio (z) = 0.08013 0.36506
#
# Static dielectric constant tensor:
#      x y z
#    x 2.031780 0.000000 -0.026460 
#    y 0.000000 2.174690 0.000000 
#    z -0.026460 0.000000 1.904070 
# 
# From -- ./inp_files/246453.got.cif
#   From: 2010.05.17/outbox.cif.g08.bks.cpg/sg15_124_cif.got.tgz:246453.got - 2010.06.03 18:47:42.
