data_PCOD9299393
_publ_section_title
;
Structure prediction by ZEFSAII (Michael W. Deem and Ramdas Pophale) SiO2 
 PCOD9299393
Probable space group: C 2/C
;
_chemical_formula_sum "Si O2"
_cell_formula_units_Z 44
_cell_length_a 7.954239
_cell_length_b 33.615276
_cell_length_c 8.591530
_cell_angle_alpha 90.000000
_cell_angle_beta 62.317549
_cell_angle_gamma 90.000000
_cell_volume 2034.286092
_symmetry_space_group_name_H-M "C 2/C"
_symmetry_group_IT_number 15
_symmetry_cell_setting 'monoclinic'
loop_
_space_group_symop_operation_xyz
x,y,z
-x,y,1/2-z
-x,-y,-z
x,-y,1/2+z
1/2+x,1/2+y,z
1/2-x,1/2+y,1/2-z
1/2-x,1/2-y,-z
1/2+x,1/2-y,1/2+z
loop_
_atom_site_type_symbol
_atom_site_label
_atom_site_fract_x
_atom_site_fract_y
_atom_site_fract_z
Si Si1 0.699041 0.480686 0.892826
Si Si2 0.500000 0.154988 0.250000
Si Si3 0.500000 0.814473 0.250000
Si Si4 0.725924 0.291844 0.098417
Si Si5 0.339809 0.116120 0.022204
Si Si6 0.500000 0.574419 0.250000
Si Si7 0.400054 0.960111 0.105405
O O1 0.661931 0.451854 0.763274
O O2 0.811777 0.520699 0.797703
O O3 0.500000 0.500000 0.000000
O O4 0.758158 0.455925 0.018370
O O5 0.344248 0.178427 0.427691
O O6 0.376141 0.128556 0.185080
O O7 0.355267 0.791491 0.199452
O O8 0.378748 0.844635 0.407578
O O9 0.500000 0.298848 0.250000
O O10 0.750000 0.250000 0.000000
O O11 0.126834 0.101107 0.083079
O O12 0.489073 0.080724 0.925113
O O13 0.500000 0.000000 0.000000
#
# Coordination Sequence:
#
# PCOD9299393 Si02
#       7
#     8   4   4   8   8   4   8
#     4  12  23  40  57  91 118 165 253 307 354 422
#     4  10  24  50  69 110 151 190 242 287 373 444
#     4  10  28  48  72 116 148 192 244 284 381 447
#     4  11  24  50  83 117 153 190 236 295 354 449
#     4  11  25  44  65  95 143 191 234 307 366 433
#     4  12  24  38  63  90 125 184 240 299 372 411
#     4  12  24  40  64  83 128 181 242 300 360 402
#
# _framework density 21.62921
#
# number of rings (size 3 to 8) (size 9 to 14) (size 15 to 20)
#    0.000    0.727    4.545    1.636    7.636    0.727 
#    0.000    0.000    0.000    0.000    0.000    0.000 
#    0.000    0.000    0.000    0.000    0.000    0.000 
#
# Total GULP energy -122480.943334 kJ/mol
# GULP energy per Si atom -5567.315606 kJ/mol
# Density = 2.157998 g / cm^3
# Si number density = 21.629210 Si / 1000 Ang^3
#
#
#
# Elastic Constant Matrix: (Units=GPa)
#
#
# Indices 1 2 3 4 5 6 
#
# 1 127.3015 51.4281 53.7262 0.0000 4.7208 0.0000
# 2 51.4281 95.9796 35.7189 0.0000 2.9513 0.0000
# 3 53.7262 35.7189 102.1259 0.0000 -0.8422 0.0000
# 4 0.0000 0.0000 0.0000 37.4644 0.0000 -0.2466
# 5 4.7208 2.9513 -0.8422 0.0000 55.4153 0.0000
# 6 0.0000 0.0000 0.0000 -0.2466 0.0000 20.4715
#
#
#
# Elastic Compliance Matrix: (Units=1/GPa)
#
#
# Indices 1 2 3 4 5 6 
#
# 1 0.011627 -0.004514 -0.004545 0.000000 -0.000819 0.000000
# 2 -0.004514 0.013757 -0.002440 0.000000 -0.000385 0.000000
# 3 -0.004545 -0.002440 0.013042 0.000000 0.000715 0.000000
# 4 0.000000 0.000000 0.000000 0.026694 0.000000 0.000322
# 5 -0.000819 -0.000385 0.000715 0.000000 0.018147 0.000000
# 6 0.000000 0.000000 0.000000 0.000322 0.000000 0.048852
#
#
# Mechanical properties :
#
#
# Convention : Reuss Voigt Hill
#
# Bulk Modulus (GPa) = 64.81259 67.46149 66.13704
# Shear Modulus (GPa) = 31.19908 34.97248 33.08578
#
# Velocity S-wave (km/s) = 3.80208 4.02544 3.91536
# Velocity P-wave (km/s) = 7.02174 7.27072 7.14731
#
# Compressibility (1/GPa) = 0.01542910
#
# Stress axis : x y z
#
# Youngs Moduli (GPa) = 86.00416 72.68818 76.67354
#
# Poissons Ratio (x) = 0.32808 0.34848
# Poissons Ratio (y) = 0.38819 0.18711
# Poissons Ratio (z) = 0.39089 0.17739
#
# Static dielectric constant tensor:
#      x y z
#    x 1.941980 0.000000 0.073150 
#    y 0.000000 1.867210 0.000000 
#    z 0.073150 0.000000 1.867020 
# 
# From -- ./inp_files/25505.got.cif
#   From: 2010.05.17/outbox.cif.g08.bks.cpg/sg15_13_cif.got.tgz:25505.got - 2010.06.03 18:47:42.
