data_PCOD9299745
_publ_section_title
;
Structure prediction by ZEFSAII (Michael W. Deem and Ramdas Pophale) SiO2 
 PCOD9299745
Probable space group: C 2/C
;
_chemical_formula_sum "Si O2"
_cell_formula_units_Z 32
_cell_length_a 12.509730
_cell_length_b 11.665032
_cell_length_c 9.303440
_cell_angle_alpha 90.000000
_cell_angle_beta 65.958525
_cell_angle_gamma 90.000000
_cell_volume 1239.845269
_symmetry_space_group_name_H-M "C 2/C"
_symmetry_group_IT_number 15
_symmetry_cell_setting 'monoclinic'
loop_
_space_group_symop_operation_xyz
x,y,z
-x,y,1/2-z
-x,-y,-z
x,-y,1/2+z
1/2+x,1/2+y,z
1/2-x,1/2+y,1/2-z
1/2-x,1/2-y,-z
1/2+x,1/2-y,1/2+z
loop_
_atom_site_type_symbol
_atom_site_label
_atom_site_fract_x
_atom_site_fract_y
_atom_site_fract_z
Si Si1 0.354754 0.606850 0.705404
Si Si2 0.361822 0.011031 0.562830
Si Si3 0.544103 0.362957 0.861577
Si Si4 0.295215 0.158980 0.319637
O O1 0.214882 0.586166 0.781086
O O2 0.404113 0.484186 0.729265
O O3 0.430292 0.621667 0.521577
O O4 0.363919 0.721687 0.792913
O O5 0.323229 0.886099 0.642635
O O6 0.500000 0.000000 0.500000
O O7 0.329111 0.070368 0.428309
O O8 0.500000 0.291003 0.750000
O O9 0.655185 0.323016 0.892483
#
# Coordination Sequence:
#
# PCOD9299745 Si02
#       4
#     8   8   8   8
#     4  10  25  45  78 106 151 203 250 302 385 444
#     4  11  26  47  70 111 151 191 253 310 366 456
#     4  10  25  47  73 114 152 192 258 311 368 464
#     4  11  26  48  75 108 150 201 249 310 378 440
#
# _framework density 25.809671000000002
#
# number of rings (size 3 to 8) (size 9 to 14) (size 15 to 20)
#    0.000    1.500    0.000    1.500   24.500    3.000 
#    0.000    0.000    0.000    3.000    0.000    0.000 
#    0.000    0.000    0.000    0.000    0.000    0.000 
#
# Total GULP energy -89089.204315 kJ/mol
# GULP energy per Si atom -5568.075270 kJ/mol
# Density = 2.575093 g / cm^3
# Si number density = 25.809671 Si / 1000 Ang^3
#
#
#
# Elastic Constant Matrix: (Units=GPa)
#
#
# Indices 1 2 3 4 5 6 
#
# 1 163.5761 30.8231 106.1855 0.0000 -15.9482 0.0000
# 2 30.8231 117.7509 45.5895 0.0000 13.6851 0.0000
# 3 106.1855 45.5895 169.0042 0.0000 -33.5670 0.0000
# 4 0.0000 0.0000 0.0000 43.0248 0.0000 10.6632
# 5 -15.9482 13.6851 -33.5670 0.0000 47.8695 0.0000
# 6 0.0000 0.0000 0.0000 10.6632 0.0000 0.8510
#
#
#
# Elastic Compliance Matrix: (Units=1/GPa)
#
#
# Indices 1 2 3 4 5 6 
#
# 1 0.010394 0.000074 -0.006816 0.000000 -0.001338 0.000000
# 2 0.000074 0.010764 -0.004132 0.000000 -0.005950 0.000000
# 3 -0.006816 -0.004132 0.012893 0.000000 0.007952 0.000000
# 4 0.000000 0.000000 0.000000 -0.011040 0.000000 0.138325
# 5 -0.001338 -0.005950 0.007952 0.000000 0.027721 0.000000
# 6 0.000000 0.000000 0.000000 0.138325 0.000000 -0.558124
#
#
# Mechanical properties :
#
#
# Convention : Reuss Voigt Hill
#
# Bulk Modulus (GPa) = 81.27914 90.61417 85.94665
# Shear Modulus (GPa) = -10.38331 36.19794 12.90732
#
# Velocity S-wave (km/s) = -2.00793 3.74905 2.23871
# Velocity P-wave (km/s) = 5.11707 7.34339 6.32889
#
# Compressibility (1/GPa) = 0.01230328
#
# Stress axis : x y z
#
# Youngs Moduli (GPa) = 96.21330 92.89818 77.55957
#
# Poissons Ratio (x) = -0.00685 0.52864
# Poissons Ratio (y) = -0.00709 0.32047
# Poissons Ratio (z) = 0.65578 0.38384
#
# Static dielectric constant tensor:
#      x y z
#    x 2.088580 0.000000 -0.029050 
#    y 0.000000 2.183280 0.000000 
#    z -0.029050 0.000000 2.016210 
# 
# From -- ./inp_files/159888.got.cif
#   From: 2010.05.17/outbox.cif.g08.bks.cpg/sg15_80_cif.got.tgz:159888.got - 2010.06.03 18:47:42.
