data_PCOD9299183
_publ_section_title
;
Structure prediction by ZEFSAII (Michael W. Deem and Ramdas Pophale) SiO2 
 PCOD9299183
Probable space group: C 2/C
;
_chemical_formula_sum "Si O2"
_cell_formula_units_Z 64
_cell_length_a 11.873980
_cell_length_b 28.129120
_cell_length_c 13.840112
_cell_angle_alpha 90.000000
_cell_angle_beta 137.991826
_cell_angle_gamma 90.000000
_cell_volume 3093.654144
_symmetry_space_group_name_H-M "C 2/C"
_symmetry_group_IT_number 15
_symmetry_cell_setting 'monoclinic'
loop_
_space_group_symop_operation_xyz
x,y,z
-x,y,1/2-z
-x,-y,-z
x,-y,1/2+z
1/2+x,1/2+y,z
1/2-x,1/2+y,1/2-z
1/2-x,1/2-y,-z
1/2+x,1/2-y,1/2+z
loop_
_atom_site_type_symbol
_atom_site_label
_atom_site_fract_x
_atom_site_fract_y
_atom_site_fract_z
Si Si1 0.260991 0.284753 0.852027
Si Si2 0.298116 0.496448 0.885659
Si Si3 0.183541 0.030583 0.894927
Si Si4 0.745703 0.437409 0.829710
Si Si5 0.888423 0.695827 0.039668
Si Si6 0.808387 0.393508 0.160395
Si Si7 0.008852 0.847932 0.644208
Si Si8 0.401612 0.103733 0.925787
O O1 0.230614 0.305127 0.941454
O O2 0.391186 0.313231 0.866285
O O3 0.075184 0.286615 0.687271
O O4 0.319039 0.231431 0.913819
O O5 0.221723 0.469062 0.745385
O O6 0.230114 0.549676 0.859330
O O7 0.500000 0.500000 0.000000
O O8 0.272864 0.465611 0.965588
O O9 0.314081 0.057289 0.911900
O O10 0.000000 0.049595 0.750000
O O11 0.183993 0.975018 0.868847
O O12 0.613687 0.397012 0.718298
O O13 0.908651 0.411526 0.975129
O O14 0.903405 0.643556 0.007686
O O15 0.804000 0.378458 0.269765
O O16 0.000000 0.386268 0.250000
O O17 0.672889 0.364019 0.012446
O O18 0.000000 0.829445 0.750000
#
# Coordination Sequence:
#
# PCOD9299183 Si02
#       8
#     8   8   8   8   8   8   8   8
#     4  10  24  48  77 104 139 177 226 287 367 420
#     4  12  23  39  61  91 135 189 238 283 341 404
#     4  12  24  40  62  96 138 184 229 286 338 407
#     4  12  24  44  64  94 143 185 236 286 344 410
#     4  10  24  47  74 108 139 174 222 294 358 430
#     4  12  26  43  65  99 141 189 237 290 345 411
#     4  12  25  46  75 100 139 190 232 287 352 423
#     4  12  26  42  67 102 135 176 235 286 346 416
#
# _framework density 20.68751
#
# number of rings (size 3 to 8) (size 9 to 14) (size 15 to 20)
#    0.000    0.500    5.000    3.000    5.250    0.000 
#    2.250    1.250    0.000    0.000    0.000    0.000 
#    0.000    0.000    0.000    0.000    0.000    0.000 
#
# Total GULP energy -178896.870885 kJ/mol
# GULP energy per Si atom -5590.527215 kJ/mol
# Density = 2.064042 g / cm^3
# Si number density = 20.687510 Si / 1000 Ang^3
#
#
#
# Elastic Constant Matrix: (Units=GPa)
#
#
# Indices 1 2 3 4 5 6 
#
# 1 106.7741 29.1835 37.8939 0.0000 -2.2188 0.0000
# 2 29.1835 63.4164 16.4486 0.0000 2.7331 0.0000
# 3 37.8939 16.4486 101.5777 0.0000 -6.2881 0.0000
# 4 0.0000 0.0000 0.0000 29.6128 0.0000 -3.1547
# 5 -2.2188 2.7331 -6.2881 0.0000 42.3461 0.0000
# 6 0.0000 0.0000 0.0000 -3.1547 0.0000 34.7659
#
#
#
# Elastic Compliance Matrix: (Units=1/GPa)
#
#
# Indices 1 2 3 4 5 6 
#
# 1 0.011925 -0.004547 -0.003690 0.000000 0.000370 0.000000
# 2 -0.004547 0.018285 -0.001365 0.000000 -0.001621 0.000000
# 3 -0.003690 -0.001365 0.011542 0.000000 0.001609 0.000000
# 4 0.000000 0.000000 0.000000 0.034099 0.000000 0.003094
# 5 0.000370 -0.001621 0.001609 0.000000 0.023978 0.000000
# 6 0.000000 0.000000 0.000000 0.003094 0.000000 0.029045
#
#
# Mechanical properties :
#
#
# Convention : Reuss Voigt Hill
#
# Bulk Modulus (GPa) = 44.34752 48.75779 46.55265
# Shear Modulus (GPa) = 32.13511 33.89446 33.01478
#
# Velocity S-wave (km/s) = 3.94554 4.05211 3.99918
# Velocity P-wave (km/s) = 6.49921 6.74631 6.62391
#
# Compressibility (1/GPa) = 0.02254918
#
# Stress axis : x y z
#
# Youngs Moduli (GPa) = 83.85418 54.68919 86.64212
#
# Poissons Ratio (x) = 0.24867 0.31968
# Poissons Ratio (y) = 0.38128 0.11827
# Poissons Ratio (z) = 0.30939 0.07465
#
# Static dielectric constant tensor:
#      x y z
#    x 1.800650 0.000000 0.038270 
#    y 0.000000 1.687340 0.000000 
#    z 0.038270 0.000000 1.913020 
# 
# From -- ./inp_files/149190.got.cif
#   From: 2010.05.17/outbox.cif.g08.bks.cpg/sg15_75_cif.got.tgz:149190.got - 2010.06.03 18:47:42.
