data_PCOD9299635
_publ_section_title
;
Structure prediction by ZEFSAII (Michael W. Deem and Ramdas Pophale) SiO2 
 PCOD9299635
Probable space group: C 2/C
;
_chemical_formula_sum "Si O2"
_cell_formula_units_Z 48
_cell_length_a 22.287670
_cell_length_b 7.675871
_cell_length_c 11.752010
_cell_angle_alpha 90.000000
_cell_angle_beta 106.114680
_cell_angle_gamma 90.000000
_cell_volume 1931.505404
_symmetry_space_group_name_H-M "C 2/C"
_symmetry_group_IT_number 15
_symmetry_cell_setting 'monoclinic'
loop_
_space_group_symop_operation_xyz
x,y,z
-x,y,1/2-z
-x,-y,-z
x,-y,1/2+z
1/2+x,1/2+y,z
1/2-x,1/2+y,1/2-z
1/2-x,1/2-y,-z
1/2+x,1/2-y,1/2+z
loop_
_atom_site_type_symbol
_atom_site_label
_atom_site_fract_x
_atom_site_fract_y
_atom_site_fract_z
Si Si1 0.067396 0.060320 0.586900
Si Si2 0.172947 0.633034 0.642388
Si Si3 0.433250 0.775364 0.279142
Si Si4 0.758647 0.843756 0.624137
Si Si5 0.927621 0.645276 0.239585
Si Si6 0.844956 0.105101 0.548675
O O1 0.072023 0.254879 0.638180
O O2 0.078497 0.927531 0.699311
O O3 0.118272 0.027418 0.515496
O O4 0.000000 0.000000 0.500000
O O5 0.097279 0.657006 0.615271
O O6 0.208040 0.716228 0.769756
O O7 0.196687 0.437819 0.638000
O O8 0.192376 0.763801 0.552422
O O9 0.500000 0.767715 0.250000
O O10 0.403686 0.947367 0.203010
O O11 0.750000 0.750000 0.500000
O O12 0.803978 0.003306 0.617431
O O13 0.892588 0.771472 0.137498
O O14 0.000000 0.637047 0.250000
#
# Coordination Sequence:
#
# PCOD9299635 Si02
#       6
#     8   8   8   8   8   8
#     4  11  23  41  67 103 147 188 237 293 359 440
#     4  11  27  48  72 107 143 188 249 302 367 443
#     4  10  25  44  70 104 145 187 237 296 367 437
#     4  12  28  47  76 105 141 193 246 312 373 432
#     4  11  23  43  68 103 146 193 235 297 364 439
#     4  11  24  45  73 102 142 190 241 301 369 439
#
# _framework density 24.851082000000002
#
# number of rings (size 3 to 8) (size 9 to 14) (size 15 to 20)
#    0.000    1.000    1.667    4.000    9.333    0.667 
#    3.000    0.000    0.000    0.000    0.000    0.000 
#    0.000    0.000    0.000    0.000    0.000    0.000 
#
# Total GULP energy -133660.005460 kJ/mol
# GULP energy per Si atom -5569.166894 kJ/mol
# Density = 2.479452 g / cm^3
# Si number density = 24.851082 Si / 1000 Ang^3
#
#
#
# Elastic Constant Matrix: (Units=GPa)
#
#
# Indices 1 2 3 4 5 6 
#
# 1 122.9029 31.0024 7.5100 0.0000 -18.2270 0.0000
# 2 31.0024 115.0191 26.5831 0.0000 4.2618 0.0000
# 3 7.5100 26.5831 99.7540 0.0000 16.9120 0.0000
# 4 0.0000 0.0000 0.0000 186.2393 0.0000 -112.1624
# 5 -18.2270 4.2618 16.9120 0.0000 31.3685 0.0000
# 6 0.0000 0.0000 0.0000 -112.1624 0.0000 107.9375
#
#
#
# Elastic Compliance Matrix: (Units=1/GPa)
#
#
# Indices 1 2 3 4 5 6 
#
# 1 0.009872 -0.002637 -0.001182 0.000000 0.006732 0.000000
# 2 -0.002637 0.009970 -0.002167 0.000000 -0.001719 0.000000
# 3 -0.001182 -0.002167 0.011840 0.000000 -0.006776 0.000000
# 4 0.000000 0.000000 0.000000 0.014350 0.000000 0.014912
# 5 0.006732 -0.001719 -0.006776 0.000000 0.039677 0.000000
# 6 0.000000 0.000000 0.000000 0.014912 0.000000 0.024760
#
#
# Mechanical properties :
#
#
# Convention : Reuss Voigt Hill
#
# Bulk Modulus (GPa) = 50.73584 51.98520 51.36052
# Shear Modulus (GPa) = 38.75655 83.28110 61.01882
#
# Velocity S-wave (km/s) = 3.95340 5.79524 4.96055
# Velocity P-wave (km/s) = 6.42646 8.10826 7.31585
#
# Compressibility (1/GPa) = 0.01970993
#
# Stress axis : x y z
#
# Youngs Moduli (GPa) = 101.29300 100.30544 84.46116
#
# Poissons Ratio (x) = 0.26454 0.09981
# Poissons Ratio (y) = 0.26714 0.18301
# Poissons Ratio (z) = 0.11970 0.21734
#
# Static dielectric constant tensor:
#      x y z
#    x 2.133950 0.000000 0.001670 
#    y 0.000000 2.057440 0.000000 
#    z 0.001670 0.000000 2.003210 
# 
# From -- ./inp_files/116800.got.cif
#   From: 2010.05.17/outbox.cif.g08.bks.cpg/sg15_59_cif.got.tgz:116800.got - 2010.06.03 18:47:42.
