data_PCOD9299451
_publ_section_title
;
Structure prediction by ZEFSAII (Michael W. Deem and Ramdas Pophale) SiO2 
 PCOD9299451
Probable space group: C 2/C
;
_chemical_formula_sum "Si O2"
_cell_formula_units_Z 56
_cell_length_a 29.983854
_cell_length_b 12.371817
_cell_length_c 15.076725
_cell_angle_alpha 90.000000
_cell_angle_beta 28.958432
_cell_angle_gamma 90.000000
_cell_volume 2707.885385
_symmetry_space_group_name_H-M "C 2/C"
_symmetry_group_IT_number 15
_symmetry_cell_setting 'monoclinic'
loop_
_space_group_symop_operation_xyz
x,y,z
-x,y,1/2-z
-x,-y,-z
x,-y,1/2+z
1/2+x,1/2+y,z
1/2-x,1/2+y,1/2-z
1/2-x,1/2-y,-z
1/2+x,1/2-y,1/2+z
loop_
_atom_site_type_symbol
_atom_site_label
_atom_site_fract_x
_atom_site_fract_y
_atom_site_fract_z
Si Si1 0.353222 0.646019 0.988907
Si Si2 0.979232 0.912918 0.413576
Si Si3 0.402105 0.041613 0.707382
Si Si4 0.477475 0.173266 0.885448
Si Si5 0.200721 0.378313 0.481793
Si Si6 0.322272 0.998576 0.164766
Si Si7 0.409503 0.368786 0.110941
O O1 0.426555 0.575472 0.805840
O O2 0.409919 0.664914 0.981488
O O3 0.335335 0.756547 0.967578
O O4 0.260879 0.581564 0.171303
O O5 0.012479 0.869102 0.449798
O O6 0.930164 0.027233 0.514241
O O7 0.430743 0.141059 0.720258
O O8 0.500000 0.000000 0.500000
O O9 0.341675 0.061973 0.724484
O O10 0.356607 0.949718 0.848711
O O11 0.500000 0.217930 0.750000
O O12 0.414375 0.067245 0.983149
O O13 0.418350 0.258837 0.042276
O O14 0.197887 0.428581 0.387331
O O15 0.306881 0.378293 0.326993
#
# Coordination Sequence:
#
# PCOD9299451 Si02
#       7
#     8   8   8   8   8   8   8
#     4  11  24  42  69  98 132 173 221 272 327 393
#     4  10  25  42  64  98 134 167 225 266 323 394
#     4  10  25  40  64 101 135 166 217 277 326 390
#     4  11  23  41  66  96 135 173 215 267 339 389
#     4  12  24  43  72  97 134 174 220 276 331 387
#     4  11  23  43  66  99 134 169 222 275 328 388
#     4  11  24  43  69  93 133 178 215 271 330 397
#
# _framework density 20.680343000000001
#
# number of rings (size 3 to 8) (size 9 to 14) (size 15 to 20)
#    0.000    1.143    4.286    0.857    8.000    4.571 
#    0.000    0.000    0.000    5.143    0.000    0.000 
#    0.000    0.000    0.000    0.000    0.000    0.000 
#
# Total GULP energy -156413.399463 kJ/mol
# GULP energy per Si atom -5586.192838 kJ/mol
# Density = 2.063327 g / cm^3
# Si number density = 20.680343 Si / 1000 Ang^3
#
#
#
# Elastic Constant Matrix: (Units=GPa)
#
#
# Indices 1 2 3 4 5 6 
#
# 1 97.9139 17.0751 21.1308 0.0000 0.1696 0.0000
# 2 17.0751 41.7026 27.2653 0.0000 -0.4660 0.0000
# 3 21.1308 27.2653 99.0635 0.0000 -1.7408 0.0000
# 4 0.0000 0.0000 0.0000 31.4603 0.0000 -0.4085
# 5 0.1696 -0.4660 -1.7408 0.0000 32.9345 0.0000
# 6 0.0000 0.0000 0.0000 -0.4085 0.0000 10.2899
#
#
#
# Elastic Compliance Matrix: (Units=1/GPa)
#
#
# Indices 1 2 3 4 5 6 
#
# 1 0.011149 -0.003671 -0.001371 0.000000 -0.000182 0.000000
# 2 -0.003671 0.030450 -0.007597 0.000000 0.000048 0.000000
# 3 -0.001371 -0.007597 0.012488 0.000000 0.000560 0.000000
# 4 0.000000 0.000000 0.000000 0.031803 0.000000 0.001263
# 5 -0.000182 0.000048 0.000560 0.000000 0.030395 0.000000
# 6 0.000000 0.000000 0.000000 0.001263 0.000000 0.097233
#
#
# Mechanical properties :
#
#
# Convention : Reuss Voigt Hill
#
# Bulk Modulus (GPa) = 34.71085 41.06915 37.89000
# Shear Modulus (GPa) = 20.12907 26.48419 23.30663
#
# Velocity S-wave (km/s) = 3.12323 3.58249 3.36072
# Velocity P-wave (km/s) = 5.46141 6.08395 5.78107
#
# Compressibility (1/GPa) = 0.02880944
#
# Stress axis : x y z
#
# Youngs Moduli (GPa) = 89.69090 32.84109 80.07872
#
# Poissons Ratio (x) = 0.12055 0.10980
# Poissons Ratio (y) = 0.32923 0.60834
# Poissons Ratio (z) = 0.12298 0.24949
#
# Static dielectric constant tensor:
#      x y z
#    x 1.815860 0.000000 0.025150 
#    y 0.000000 1.708660 0.000000 
#    z 0.025150 0.000000 1.702280 
# 
# From -- ./inp_files/181902.got.cif
#   From: 2010.05.17/outbox.cif.g08.bks.cpg/sg15_91_cif.got.tgz:181902.got - 2010.06.03 18:47:42.
