data_PCOD9299300
_publ_section_title
;
Structure prediction by ZEFSAII (Michael W. Deem and Ramdas Pophale) SiO2 
 PCOD9299300
Probable space group: C 2/C
;
_chemical_formula_sum "Si O2"
_cell_formula_units_Z 40
_cell_length_a 5.117228
_cell_length_b 25.718296
_cell_length_c 12.038707
_cell_angle_alpha 90.000000
_cell_angle_beta 77.039367
_cell_angle_gamma 90.000000
_cell_volume 1544.007899
_symmetry_space_group_name_H-M "C 2/C"
_symmetry_group_IT_number 15
_symmetry_cell_setting 'monoclinic'
loop_
_space_group_symop_operation_xyz
x,y,z
-x,y,1/2-z
-x,-y,-z
x,-y,1/2+z
1/2+x,1/2+y,z
1/2-x,1/2+y,1/2-z
1/2-x,1/2-y,-z
1/2+x,1/2-y,1/2+z
loop_
_atom_site_type_symbol
_atom_site_label
_atom_site_fract_x
_atom_site_fract_y
_atom_site_fract_z
Si Si1 0.000000 0.617849 0.750000
Si Si2 0.500000 0.500737 0.250000
Si Si3 0.060808 0.192135 0.058781
Si Si4 0.852432 0.701552 0.597223
Si Si5 0.758740 0.596556 0.351553
Si Si6 0.430878 0.945850 0.063931
O O1 0.827103 0.658073 0.693996
O O2 0.117416 0.581928 0.638576
O O3 0.660654 0.540741 0.314459
O O4 0.683909 0.463280 0.161868
O O5 0.920167 0.240619 0.135205
O O6 0.978183 0.138028 0.121693
O O7 0.908062 0.197787 0.954667
O O8 0.376818 0.193894 0.004004
O O9 0.861634 0.590155 0.467218
O O10 0.000000 0.614042 0.250000
O O11 0.500000 0.000000 0.000000
#
# Coordination Sequence:
#
# PCOD9299300 Si02
#       6
#     4   4   8   8   8   8
#     4  12  26  45  80 106 152 205 258 322 396 470
#     4  12  28  45  76 102 150 211 258 340 394 462
#     4  10  24  48  76 107 155 190 256 317 386 474
#     4  10  24  48  74 112 148 199 249 321 385 464
#     4  12  26  47  76 109 150 205 255 326 401 473
#     4  12  26  48  69 110 153 200 271 328 390 472
#
# _framework density 25.906601999999999
#
# number of rings (size 3 to 8) (size 9 to 14) (size 15 to 20)
#    0.000    0.800    4.000    1.800    8.400    1.600 
#    7.200    0.000    0.000    0.000    0.000    0.000 
#    0.000    0.000    0.000    0.000    0.000    0.000 
#
# Total GULP energy -111960.982071 kJ/mol
# GULP energy per Si atom -5598.049104 kJ/mol
# Density = 2.584764 g / cm^3
# Si number density = 25.906602 Si / 1000 Ang^3
#
#
#
# Elastic Constant Matrix: (Units=GPa)
#
#
# Indices 1 2 3 4 5 6 
#
# 1 91.0958 19.8263 40.4827 0.0000 2.3566 0.0000
# 2 19.8263 132.3784 44.7663 0.0000 2.7459 0.0000
# 3 40.4827 44.7663 170.0699 0.0000 23.1673 0.0000
# 4 0.0000 0.0000 0.0000 51.6715 0.0000 7.3332
# 5 2.3566 2.7459 23.1673 0.0000 49.4284 0.0000
# 6 0.0000 0.0000 0.0000 7.3332 0.0000 34.9041
#
#
#
# Elastic Compliance Matrix: (Units=1/GPa)
#
#
# Indices 1 2 3 4 5 6 
#
# 1 0.012410 -0.000922 -0.002818 0.000000 0.000780 0.000000
# 2 -0.000922 0.008377 -0.002060 0.000000 0.000544 0.000000
# 3 -0.002818 -0.002060 0.007540 0.000000 -0.003285 0.000000
# 4 0.000000 0.000000 0.000000 0.019948 0.000000 -0.004191
# 5 0.000780 0.000544 -0.003285 0.000000 0.021704 0.000000
# 6 0.000000 0.000000 0.000000 -0.004191 0.000000 0.029530
#
#
# Mechanical properties :
#
#
# Convention : Reuss Voigt Hill
#
# Bulk Modulus (GPa) = 59.77611 67.07718 63.42664
# Shear Modulus (GPa) = 42.85039 46.43206 44.64123
#
# Velocity S-wave (km/s) = 4.07139 4.23813 4.15560
# Velocity P-wave (km/s) = 6.72499 7.06379 6.89647
#
# Compressibility (1/GPa) = 0.01672909
#
# Stress axis : x y z
#
# Youngs Moduli (GPa) = 80.57968 119.36800 132.61977
#
# Poissons Ratio (x) = 0.11006 0.37367
# Poissons Ratio (y) = 0.07430 0.27317
# Poissons Ratio (z) = 0.22704 0.24587
#
# Static dielectric constant tensor:
#      x y z
#    x 2.015320 0.000000 0.030240 
#    y 0.000000 2.151480 0.000000 
#    z 0.030240 0.000000 1.945690 
# 
# From -- ./inp_files/73103.got.cif
#   From: 2010.05.17/outbox.cif.g08.bks.cpg/sg15_37_cif.got.tgz:73103.got - 2010.06.03 18:47:42.
