data_PCOD9299927
_publ_section_title
;
Structure prediction by ZEFSAII (Michael W. Deem and Ramdas Pophale) SiO2 
 PCOD9299927
Probable space group: C 2/C
;
_chemical_formula_sum "Si O2"
_cell_formula_units_Z 32
_cell_length_a 20.357407
_cell_length_b 9.409984
_cell_length_c 18.693238
_cell_angle_alpha 90.000000
_cell_angle_beta 19.791413
_cell_angle_gamma 90.000000
_cell_volume 1212.491951
_symmetry_space_group_name_H-M "C 2/C"
_symmetry_group_IT_number 15
_symmetry_cell_setting 'monoclinic'
loop_
_space_group_symop_operation_xyz
x,y,z
-x,y,1/2-z
-x,-y,-z
x,-y,1/2+z
1/2+x,1/2+y,z
1/2-x,1/2+y,1/2-z
1/2-x,1/2-y,-z
1/2+x,1/2-y,1/2+z
loop_
_atom_site_type_symbol
_atom_site_label
_atom_site_fract_x
_atom_site_fract_y
_atom_site_fract_z
Si Si1 0.662264 0.028779 0.228965
Si Si2 0.722479 0.580335 0.539776
Si Si3 0.378311 0.497899 0.202163
Si Si4 0.903264 0.299973 0.096008
O O1 0.554705 0.162398 0.376273
O O2 0.894856 0.033154 0.008989
O O3 0.557692 0.898860 0.375073
O O4 0.653396 0.019055 0.152783
O O5 0.500000 0.548183 0.750000
O O6 0.750000 0.750000 0.500000
O O7 0.738030 0.523819 0.604437
O O8 0.283537 0.384162 0.244998
O O9 0.364821 0.649698 0.175171
#
# Coordination Sequence:
#
# PCOD9299927 Si02
#       4
#     8   8   8   8
#     4  10  26  48  76 111 156 207 266 322 390 470
#     4  10  25  48  76 106 155 209 260 320 390 474
#     4  11  27  49  78 119 160 204 266 327 396 477
#     4  11  27  46  82 118 156 209 258 335 398 466
#
# _framework density 26.391926999999999
#
# number of rings (size 3 to 8) (size 9 to 14) (size 15 to 20)
#    0.000    1.500    0.000    0.750   14.000    5.000 
#    4.500    0.000    0.000    0.000    0.000    1.750 
#    0.000    0.000    0.000    0.000    0.000    0.000 
#
# Total GULP energy -89298.333772 kJ/mol
# GULP energy per Si atom -5581.145861 kJ/mol
# Density = 2.633186 g / cm^3
# Si number density = 26.391927 Si / 1000 Ang^3
#
#
#
# Elastic Constant Matrix: (Units=GPa)
#
#
# Indices 1 2 3 4 5 6 
#
# 1 168.5966 56.9960 94.0859 -0.0014 45.2784 0.0002
# 2 56.9960 157.8414 49.0673 -0.0007 21.2706 0.0002
# 3 94.0859 49.0673 274.0682 -0.0014 41.9155 0.0010
# 4 -0.0014 -0.0007 -0.0014 25.9867 0.0026 8.8783
# 5 45.2784 21.2706 41.9155 0.0026 92.6321 -0.0008
# 6 0.0002 0.0002 0.0010 8.8783 -0.0008 27.6739
#
#
#
# Elastic Compliance Matrix: (Units=1/GPa)
#
#
# Indices 1 2 3 4 5 6 
#
# 1 0.008563 -0.002054 -0.002153 0.000001 -0.002740 0.000000
# 2 -0.002054 0.007302 -0.000537 0.000000 -0.000430 0.000000
# 3 -0.002153 -0.000537 0.004624 0.000000 -0.000917 0.000000
# 4 0.000001 0.000000 0.000000 0.043218 -0.000002 -0.013865
# 5 -0.002740 -0.000430 -0.000917 -0.000002 0.012648 0.000001
# 6 0.000000 0.000000 0.000000 -0.013865 0.000001 0.040583
#
#
# Mechanical properties :
#
#
# Convention : Reuss Voigt Hill
#
# Bulk Modulus (GPa) = 90.88644 111.20053 101.04348
# Shear Modulus (GPa) = 38.43442 55.94901 47.19171
#
# Velocity S-wave (km/s) = 3.82028 4.60926 4.23319
# Velocity P-wave (km/s) = 7.34652 8.39957 7.89063
#
# Compressibility (1/GPa) = 0.01100274
#
# Stress axis : x y z
#
# Youngs Moduli (GPa) = 116.78508 136.95373 216.25980
#
# Poissons Ratio (x) = 0.28124 0.46558
# Poissons Ratio (y) = 0.23982 0.11603
# Poissons Ratio (z) = 0.25142 0.07348
#
# Static dielectric constant tensor:
#      x y z
#    x 2.235230 0.000000 -0.175580 
#    y 0.000000 2.187740 0.000000 
#    z -0.175580 0.000000 2.209330 
# 
# From -- ./inp_files/109179.got.cif
#   From: 2010.05.17/outbox.cif.g08.bks.cpg/sg15_55_cif.got.tgz:109179.got - 2010.06.03 18:47:42.
