data_PCOD9299161
_publ_section_title
;
Structure prediction by ZEFSAII (Michael W. Deem and Ramdas Pophale) SiO2 
 PCOD9299161
Probable space group: C 2/C
;
_chemical_formula_sum "Si O2"
_cell_formula_units_Z 48
_cell_length_a 5.403637
_cell_length_b 22.069818
_cell_length_c 18.295307
_cell_angle_alpha 90.000000
_cell_angle_beta 114.037808
_cell_angle_gamma 90.000000
_cell_volume 1992.631886
_symmetry_space_group_name_H-M "C 2/C"
_symmetry_group_IT_number 15
_symmetry_cell_setting 'monoclinic'
loop_
_space_group_symop_operation_xyz
x,y,z
-x,y,1/2-z
-x,-y,-z
x,-y,1/2+z
1/2+x,1/2+y,z
1/2-x,1/2+y,1/2-z
1/2-x,1/2-y,-z
1/2+x,1/2-y,1/2+z
loop_
_atom_site_type_symbol
_atom_site_label
_atom_site_fract_x
_atom_site_fract_y
_atom_site_fract_z
Si Si1 0.218244 0.089920 0.443865
Si Si2 0.825977 0.975333 0.161229
Si Si3 0.188705 0.156437 0.204363
Si Si4 0.038905 0.278122 0.362865
Si Si5 0.276534 0.095138 0.625259
Si Si6 0.531638 0.199463 0.487868
O O1 0.197653 0.091069 0.529268
O O2 0.476316 0.132174 0.452913
O O3 0.950948 0.123405 0.380594
O O4 0.247866 0.026548 0.406865
O O5 0.558068 0.942635 0.160587
O O6 0.000000 0.000975 0.250000
O O7 0.034311 0.931578 0.143994
O O8 0.500000 0.139406 0.250000
O O9 0.000000 0.140332 0.250000
O O10 0.164505 0.230092 0.196455
O O11 0.172503 0.335828 0.341167
O O12 0.266929 0.234094 0.425053
O O13 0.921479 0.309724 0.420559
O O14 0.750000 0.250000 0.500000
#
# Coordination Sequence:
#
# PCOD9299161 Si02
#       6
#     8   8   8   8   8   8
#     4  10  24  47  72 107 140 189 246 305 356 431
#     4  12  27  48  69 104 144 191 242 301 364 431
#     4  11  26  42  67 104 144 189 232 293 372 435
#     4   9  22  40  61 102 132 180 225 292 348 432
#     4  11  26  46  76 102 140 192 248 299 357 426
#     4   9  19  39  70 100 134 171 224 293 358 419
#
# _framework density 24.088743999999998
#
# number of rings (size 3 to 8) (size 9 to 14) (size 15 to 20)
#    0.000    1.667    0.000    3.000    9.333    6.000 
#    6.000    0.000    0.000    0.000    0.000    0.000 
#    0.000    0.000    0.000    0.000    0.000    0.000 
#
# Total GULP energy -133989.846927 kJ/mol
# GULP energy per Si atom -5582.910289 kJ/mol
# Density = 2.403392 g / cm^3
# Si number density = 24.088744 Si / 1000 Ang^3
#
#
#
# Elastic Constant Matrix: (Units=GPa)
#
#
# Indices 1 2 3 4 5 6 
#
# 1 120.0379 15.7142 18.7709 0.0000 15.0401 0.0000
# 2 15.7142 97.1165 -3.2403 0.0000 -1.4462 0.0000
# 3 18.7709 -3.2403 100.4775 0.0000 13.3444 0.0000
# 4 0.0000 0.0000 0.0000 30.7082 0.0000 -1.9836
# 5 15.0401 -1.4462 13.3444 0.0000 30.2753 0.0000
# 6 0.0000 0.0000 0.0000 -1.9836 0.0000 8.9047
#
#
#
# Elastic Compliance Matrix: (Units=1/GPa)
#
#
# Indices 1 2 3 4 5 6 
#
# 1 0.009250 -0.001599 -0.001231 0.000000 -0.004129 0.000000
# 2 -0.001599 0.010588 0.000497 0.000000 0.001081 0.000000
# 3 -0.001231 0.000497 0.010743 0.000000 -0.004100 0.000000
# 4 0.000000 0.000000 0.000000 0.033040 0.000000 0.007360
# 5 -0.004129 0.001081 -0.004100 0.000000 0.036940 0.000000
# 6 0.000000 0.000000 0.000000 0.007360 0.000000 0.113939
#
#
# Mechanical properties :
#
#
# Convention : Reuss Voigt Hill
#
# Bulk Modulus (GPa) = 38.58999 42.23570 40.41285
# Shear Modulus (GPa) = 21.94847 33.07011 27.50929
#
# Velocity S-wave (km/s) = 3.02180 3.70921 3.38301
# Velocity P-wave (km/s) = 5.31317 5.99298 5.66328
#
# Compressibility (1/GPa) = 0.02591345
#
# Stress axis : x y z
#
# Youngs Moduli (GPa) = 108.10897 94.44338 93.08381
#
# Poissons Ratio (x) = 0.15104 0.11461
# Poissons Ratio (y) = 0.17290 -0.04623
# Poissons Ratio (z) = 0.13311 -0.04690
#
# Static dielectric constant tensor:
#      x y z
#    x 2.226980 0.000000 -0.046870 
#    y 0.000000 2.373400 0.000000 
#    z -0.046870 0.000000 1.991370 
# 
# From -- ./inp_files/185543.got.cif
#   From: 2010.05.17/outbox.cif.g08.bks.cpg/sg15_93_cif.got.tgz:185543.got - 2010.06.03 18:47:42.
