data_PCOD9299420
_publ_section_title
;
Structure prediction by ZEFSAII (Michael W. Deem and Ramdas Pophale) SiO2 
 PCOD9299420
Probable space group: C 2/C
;
_chemical_formula_sum "Si O2"
_cell_formula_units_Z 24
_cell_length_a 19.049697
_cell_length_b 8.504038
_cell_length_c 11.773680
_cell_angle_alpha 90.000000
_cell_angle_beta 153.632752
_cell_angle_gamma 90.000000
_cell_volume 847.088617
_symmetry_space_group_name_H-M "C 2/C"
_symmetry_group_IT_number 15
_symmetry_cell_setting 'monoclinic'
loop_
_space_group_symop_operation_xyz
x,y,z
-x,y,1/2-z
-x,-y,-z
x,-y,1/2+z
1/2+x,1/2+y,z
1/2-x,1/2+y,1/2-z
1/2-x,1/2-y,-z
1/2+x,1/2-y,1/2+z
loop_
_atom_site_type_symbol
_atom_site_label
_atom_site_fract_x
_atom_site_fract_y
_atom_site_fract_z
Si Si1 0.433616 0.365182 0.986042
Si Si2 0.077115 0.447806 0.736135
Si Si3 0.323184 0.632741 0.986904
O O1 0.356191 0.469521 0.970747
O O2 0.292089 0.249487 0.744635
O O3 0.500000 0.500000 0.000000
O O4 0.573510 0.241690 0.216331
O O5 0.000000 0.464439 0.750000
O O6 0.000000 0.500000 0.500000
O O7 0.227578 0.565559 0.956122
O O8 0.500000 0.699697 0.250000
#
# Coordination Sequence:
#
# PCOD9299420 Si02
#       3
#     8   8   8
#     4  11  25  49  79 120 171 222 280 352 431 513
#     4  10  24  50  84 123 171 223 278 346 431 518
#     4  11  26  49  83 122 165 220 286 353 423 507
#
# _framework density 28.332336000000002
#
# number of rings (size 3 to 8) (size 9 to 14) (size 15 to 20)
#    0.000    1.333    0.000    3.000    0.000   12.000 
#    0.000   33.333    0.000    0.000    0.000    0.000 
#    0.000    0.000    0.000    0.000    0.000    0.000 
#
# Total GULP energy -67074.569378 kJ/mol
# GULP energy per Si atom -5589.547448 kJ/mol
# Density = 2.826785 g / cm^3
# Si number density = 28.332336 Si / 1000 Ang^3
#
#
#
# Elastic Constant Matrix: (Units=GPa)
#
#
# Indices 1 2 3 4 5 6 
#
# 1 181.1317 31.1366 42.0941 0.0000 -6.3104 0.0000
# 2 31.1366 200.6712 68.8567 0.0000 -2.3720 0.0000
# 3 42.0941 68.8567 170.6821 0.0000 29.0385 0.0000
# 4 0.0000 0.0000 0.0000 51.8498 0.0000 3.9944
# 5 -6.3104 -2.3720 29.0385 0.0000 58.2924 0.0000
# 6 0.0000 0.0000 0.0000 3.9944 0.0000 62.3453
#
#
#
# Elastic Compliance Matrix: (Units=1/GPa)
#
#
# Indices 1 2 3 4 5 6 
#
# 1 0.005999 -0.000376 -0.001569 0.000000 0.001416 0.000000
# 2 -0.000376 0.005935 -0.002552 0.000000 0.001472 0.000000
# 3 -0.001569 -0.002552 0.008000 0.000000 -0.004259 0.000000
# 4 0.000000 0.000000 0.000000 0.019382 0.000000 -0.001242
# 5 0.001416 0.001472 -0.004259 0.000000 0.019490 0.000000
# 6 0.000000 0.000000 0.000000 -0.001242 0.000000 0.016119
#
#
# Mechanical properties :
#
#
# Convention : Reuss Voigt Hill
#
# Bulk Modulus (GPa) = 91.40193 92.96220 92.18206
# Shear Modulus (GPa) = 57.10061 61.85734 59.47897
#
# Velocity S-wave (km/s) = 4.49418 4.67762 4.58682
# Velocity P-wave (km/s) = 7.69811 7.87757 7.78836
#
# Compressibility (1/GPa) = 0.01094069
#
# Stress axis : x y z
#
# Youngs Moduli (GPa) = 166.68456 168.50241 125.00313
#
# Poissons Ratio (x) = 0.06333 0.19611
# Poissons Ratio (y) = 0.06265 0.31900
# Poissons Ratio (z) = 0.26150 0.43000
#
# Static dielectric constant tensor:
#      x y z
#    x 2.400480 0.000000 -0.001980 
#    y 0.000000 2.154210 0.000000 
#    z -0.001980 0.000000 2.236420 
# 
# From -- ./inp_files/116640.got.cif
#   From: 2010.05.17/outbox.cif.g08.bks.cpg/sg15_59_cif.got.tgz:116640.got - 2010.06.03 18:47:42.
