data_PCOD9299089
_publ_section_title
;
Structure prediction by ZEFSAII (Michael W. Deem and Ramdas Pophale) SiO2 
 PCOD9299089
Probable space group: C 2/C
;
_chemical_formula_sum "Si O2"
_cell_formula_units_Z 40
_cell_length_a 5.715631
_cell_length_b 13.814519
_cell_length_c 21.898644
_cell_angle_alpha 90.000000
_cell_angle_beta 71.343289
_cell_angle_gamma 90.000000
_cell_volume 1638.228595
_symmetry_space_group_name_H-M "C 2/C"
_symmetry_group_IT_number 15
_symmetry_cell_setting 'monoclinic'
loop_
_space_group_symop_operation_xyz
x,y,z
-x,y,1/2-z
-x,-y,-z
x,-y,1/2+z
1/2+x,1/2+y,z
1/2-x,1/2+y,1/2-z
1/2-x,1/2-y,-z
1/2+x,1/2-y,1/2+z
loop_
_atom_site_type_symbol
_atom_site_label
_atom_site_fract_x
_atom_site_fract_y
_atom_site_fract_z
Si Si1 0.000000 0.000540 0.250000
Si Si2 0.535609 0.871714 0.116841
Si Si3 0.855436 0.422140 0.623359
Si Si4 0.500000 0.884400 0.250000
Si Si5 0.721890 0.761855 0.575264
Si Si6 0.871081 0.093140 0.482239
O O1 0.116518 0.062368 0.185006
O O2 0.239529 0.941046 0.256194
O O3 0.552376 0.828678 0.182631
O O4 0.282950 0.835797 0.106073
O O5 0.531688 0.987621 0.126543
O O6 0.744026 0.851708 0.049400
O O7 0.816799 0.437320 0.554403
O O8 0.983065 0.318565 0.617295
O O9 0.750000 0.750000 0.500000
O O10 0.943490 0.837097 0.568784
O O11 0.000000 0.000000 0.500000
#
# Coordination Sequence:
#
# PCOD9299089 Si02
#       6
#     4   8   8   4   8   8
#     4  10  24  46  79 101 150 200 260 306 390 471
#     4  11  23  45  74 104 150 191 257 310 385 462
#     4  11  24  45  72 104 143 196 249 313 385 459
#     4  10  24  48  75 107 144 210 250 314 384 469
#     4  12  25  42  70 111 146 189 252 317 387 452
#     4  12  22  40  71 105 143 192 244 315 377 452
#
# _framework density 24.416616000000001
#
# number of rings (size 3 to 8) (size 9 to 14) (size 15 to 20)
#    0.000    0.800    4.000    3.600    2.800    1.600 
#    0.000    1.000   13.200    0.000    0.000    0.000 
#    0.000    0.000    0.000    0.000    0.000    0.000 
#
# Total GULP energy -111770.340818 kJ/mol
# GULP energy per Si atom -5588.517041 kJ/mol
# Density = 2.436104 g / cm^3
# Si number density = 24.416616 Si / 1000 Ang^3
#
#
#
# Elastic Constant Matrix: (Units=GPa)
#
#
# Indices 1 2 3 4 5 6 
#
# 1 96.1667 26.8204 50.6390 0.0000 -9.2471 0.0000
# 2 26.8204 76.1129 14.4638 0.0000 -11.0395 0.0000
# 3 50.6390 14.4638 182.6330 0.0000 -8.1474 0.0000
# 4 0.0000 0.0000 0.0000 19.3638 0.0000 -10.1385
# 5 -9.2471 -11.0395 -8.1474 0.0000 55.9472 0.0000
# 6 0.0000 0.0000 0.0000 -10.1385 0.0000 55.2866
#
#
#
# Elastic Compliance Matrix: (Units=1/GPa)
#
#
# Indices 1 2 3 4 5 6 
#
# 1 0.013348 -0.003931 -0.003348 0.000000 0.000943 0.000000
# 2 -0.003931 0.014852 0.000016 0.000000 0.002283 0.000000
# 3 -0.003348 0.000016 0.006420 0.000000 0.000385 0.000000
# 4 0.000000 0.000000 0.000000 0.057128 0.000000 0.010476
# 5 0.000943 0.002283 0.000385 0.000000 0.018536 0.000000
# 6 0.000000 0.000000 0.000000 0.010476 0.000000 0.020009
#
#
# Mechanical properties :
#
#
# Convention : Reuss Voigt Hill
#
# Bulk Modulus (GPa) = 49.76651 59.86211 54.81431
# Shear Modulus (GPa) = 32.99970 43.65214 38.32592
#
# Velocity S-wave (km/s) = 3.68030 4.23283 3.96620
# Velocity P-wave (km/s) = 6.20370 6.96127 6.59338
#
# Compressibility (1/GPa) = 0.02009383
#
# Stress axis : x y z
#
# Youngs Moduli (GPa) = 74.91537 67.33252 155.77215
#
# Poissons Ratio (x) = 0.26466 0.52149
# Poissons Ratio (y) = 0.29447 -0.00242
# Poissons Ratio (z) = 0.25080 -0.00105
#
# Static dielectric constant tensor:
#      x y z
#    x 2.154110 0.000000 0.002980 
#    y 0.000000 1.950730 0.000000 
#    z 0.002980 0.000000 1.922640 
# 
# From -- ./inp_files/260200.got.cif
#   From: 2010.05.17/outbox.cif.g08.bks.cpg/sg15_131_cif.got.tgz:260200.got - 2010.06.03 18:47:42.
