data_PCOD9299027
_publ_section_title
;
Structure prediction by ZEFSAII (Michael W. Deem and Ramdas Pophale) SiO2 
 PCOD9299027
Probable space group: C 2/C
;
_chemical_formula_sum "Si O2"
_cell_formula_units_Z 44
_cell_length_a 10.919722
_cell_length_b 19.996771
_cell_length_c 9.396693
_cell_angle_alpha 90.000000
_cell_angle_beta 72.667996
_cell_angle_gamma 90.000000
_cell_volume 1958.688806
_symmetry_space_group_name_H-M "C 2/C"
_symmetry_group_IT_number 15
_symmetry_cell_setting 'monoclinic'
loop_
_space_group_symop_operation_xyz
x,y,z
-x,y,1/2-z
-x,-y,-z
x,-y,1/2+z
1/2+x,1/2+y,z
1/2-x,1/2+y,1/2-z
1/2-x,1/2-y,-z
1/2+x,1/2-y,1/2+z
loop_
_atom_site_type_symbol
_atom_site_label
_atom_site_fract_x
_atom_site_fract_y
_atom_site_fract_z
Si Si1 0.000000 0.768004 0.250000
Si Si2 0.587383 0.187121 0.969192
Si Si3 0.058909 0.440354 0.886582
Si Si4 0.500000 0.713781 0.250000
Si Si5 0.682382 0.403186 0.591461
Si Si6 0.500000 0.492129 0.250000
Si Si7 0.685911 0.624038 0.780873
O O1 0.081936 0.816258 0.323226
O O2 0.906078 0.724450 0.381094
O O3 0.542480 0.239226 0.865327
O O4 0.712371 0.148558 0.870125
O O5 0.483831 0.129788 0.031509
O O6 0.000000 0.445567 0.750000
O O7 0.212641 0.435768 0.841084
O O8 0.000000 0.500000 0.000000
O O9 0.381658 0.664643 0.328989
O O10 0.566615 0.456745 0.616544
O O11 0.742903 0.388731 0.416559
O O12 0.389579 0.442227 0.236841
#
# Coordination Sequence:
#
# PCOD9299027 Si02
#       7
#     4   8   8   4   8   4   8
#     4  11  24  45  69 112 147 194 240 296 373 438
#     4  12  25  46  73 108 153 192 244 303 372 445
#     4  12  30  49  73 107 146 199 251 306 370 437
#     4  11  26  45  81 116 145 196 240 306 381 436
#     4  11  25  47  75 108 153 187 253 304 370 445
#     4  10  24  46  74 108 146 196 250 304 368 428
#     4  11  24  44  74 110 149 193 243 304 366 444
#
# _framework density 22.464006999999999
#
# number of rings (size 3 to 8) (size 9 to 14) (size 15 to 20)
#    0.000    0.727    2.727    3.273    8.909    2.909 
#    3.273    0.000    0.000    0.000    0.000    0.000 
#    0.000    0.000    0.000    0.000    0.000    0.000 
#
# Total GULP energy -123045.655969 kJ/mol
# GULP energy per Si atom -5592.984362 kJ/mol
# Density = 2.241288 g / cm^3
# Si number density = 22.464007 Si / 1000 Ang^3
#
#
#
# Elastic Constant Matrix: (Units=GPa)
#
#
# Indices 1 2 3 4 5 6 
#
# 1 91.0177 38.8225 34.6677 0.0000 7.6783 0.0000
# 2 38.8225 152.2739 57.9511 0.0000 4.8715 0.0000
# 3 34.6677 57.9511 122.3257 0.0000 8.3653 0.0000
# 4 0.0000 0.0000 0.0000 21.7911 0.0000 -11.0200
# 5 7.6783 4.8715 8.3653 0.0000 36.6766 0.0000
# 6 0.0000 0.0000 0.0000 -11.0200 0.0000 28.0272
#
#
#
# Elastic Compliance Matrix: (Units=1/GPa)
#
#
# Indices 1 2 3 4 5 6 
#
# 1 0.013082 -0.002334 -0.002474 0.000000 -0.001864 0.000000
# 2 -0.002334 0.008429 -0.003341 0.000000 0.000131 0.000000
# 3 -0.002474 -0.003341 0.010558 0.000000 -0.001446 0.000000
# 4 0.000000 0.000000 0.000000 0.057280 0.000000 0.022522
# 5 -0.001864 0.000131 -0.001446 0.000000 0.027968 0.000000
# 6 0.000000 0.000000 0.000000 0.022522 0.000000 0.044535
#
#
# Mechanical properties :
#
#
# Convention : Reuss Voigt Hill
#
# Bulk Modulus (GPa) = 63.40792 69.83332 66.62062
# Shear Modulus (GPa) = 27.26168 32.91072 30.08620
#
# Velocity S-wave (km/s) = 3.48741 3.83174 3.66362
# Velocity P-wave (km/s) = 6.67112 7.12254 6.90052
#
# Compressibility (1/GPa) = 0.01577090
#
# Stress axis : x y z
#
# Youngs Moduli (GPa) = 76.44006 118.63204 94.71704
#
# Poissons Ratio (x) = 0.27689 0.23436
# Poissons Ratio (y) = 0.17841 0.31644
# Poissons Ratio (z) = 0.18914 0.39634
#
# Static dielectric constant tensor:
#      x y z
#    x 1.876620 0.000000 -0.006160 
#    y 0.000000 1.800870 0.000000 
#    z -0.006160 0.000000 1.830280 
# 
# From -- ./inp_files/30796.got.cif
#   From: 2010.05.17/outbox.cif.g08.bks.cpg/sg15_16_cif.got.tgz:30796.got - 2010.06.03 18:47:42.
