data_PCOD9299374
_publ_section_title
;
Structure prediction by ZEFSAII (Michael W. Deem and Ramdas Pophale) SiO2 
 PCOD9299374
Probable space group: C 2/C
;
_chemical_formula_sum "Si O2"
_cell_formula_units_Z 48
_cell_length_a 9.010179
_cell_length_b 28.693557
_cell_length_c 13.706823
_cell_angle_alpha 90.000000
_cell_angle_beta 146.113160
_cell_angle_gamma 90.000000
_cell_volume 1975.795086
_symmetry_space_group_name_H-M "C 2/C"
_symmetry_group_IT_number 15
_symmetry_cell_setting 'monoclinic'
loop_
_space_group_symop_operation_xyz
x,y,z
-x,y,1/2-z
-x,-y,-z
x,-y,1/2+z
1/2+x,1/2+y,z
1/2-x,1/2+y,1/2-z
1/2-x,1/2-y,-z
1/2+x,1/2-y,1/2+z
loop_
_atom_site_type_symbol
_atom_site_label
_atom_site_fract_x
_atom_site_fract_y
_atom_site_fract_z
Si Si1 0.920910 0.288102 0.528631
Si Si2 0.828928 0.112223 0.827226
Si Si3 0.783601 0.028591 0.939792
Si Si4 0.709356 0.082587 0.077011
Si Si5 0.301683 0.789548 0.233307
Si Si6 0.399853 0.894320 0.586776
O O1 0.750000 0.250000 0.500000
O O2 0.842217 0.293756 0.372495
O O3 0.930295 0.339352 0.578059
O O4 0.201915 0.262917 0.673200
O O5 0.812684 0.081081 0.914105
O O6 0.542543 0.107172 0.616798
O O7 0.886737 0.165676 0.885818
O O8 0.085577 0.094832 0.907902
O O9 0.500000 0.010598 0.750000
O O10 0.775868 0.036380 0.050907
O O11 0.000000 0.000000 0.000000
O O12 0.582395 0.076314 0.113573
O O13 0.000000 0.106767 0.250000
O O14 0.500000 0.795265 0.250000
O O15 0.500000 0.901365 0.750000
#
# Coordination Sequence:
#
# PCOD9299374 Si02
#       6
#     8   8   8   8   8   8
#     4  12  25  43  68 100 151 200 263 312 383 444
#     4  11  24  47  76 107 150 201 247 314 383 461
#     4  10  24  49  80 112 151 191 243 312 388 467
#     4  11  24  45  75 110 146 192 251 311 378 463
#     4  12  25  44  68 104 153 200 261 324 387 445
#     4  12  25  43  71 107 150 201 259 311 378 455
#
# _framework density 24.294017
#
# number of rings (size 3 to 8) (size 9 to 14) (size 15 to 20)
#    0.000    0.667    3.333    5.000    0.000    2.667 
#    0.000    7.500    0.000    0.000    0.000    0.000 
#    0.000    0.000    0.000    0.000    0.000    0.000 
#
# Total GULP energy -133943.505131 kJ/mol
# GULP energy per Si atom -5580.979380 kJ/mol
# Density = 2.423872 g / cm^3
# Si number density = 24.294017 Si / 1000 Ang^3
#
#
#
# Elastic Constant Matrix: (Units=GPa)
#
#
# Indices 1 2 3 4 5 6 
#
# 1 233.8494 53.8928 63.0528 0.0000 4.4861 0.0000
# 2 53.8928 80.8680 32.6176 0.0000 -19.2567 0.0000
# 3 63.0528 32.6176 95.7820 0.0000 21.5584 0.0000
# 4 0.0000 0.0000 0.0000 -1.2935 0.0000 9.4001
# 5 4.4861 -19.2567 21.5584 0.0000 46.2612 0.0000
# 6 0.0000 0.0000 0.0000 9.4001 0.0000 54.1914
#
#
#
# Elastic Compliance Matrix: (Units=1/GPa)
#
#
# Indices 1 2 3 4 5 6 
#
# 1 0.005648 -0.002808 -0.002654 0.000000 -0.000480 0.000000
# 2 -0.002808 0.020380 -0.007890 0.000000 0.012433 0.000000
# 3 -0.002654 -0.007890 0.017378 0.000000 -0.011126 0.000000
# 4 0.000000 0.000000 0.000000 -0.341986 0.000000 0.059321
# 5 -0.000480 0.012433 -0.011126 0.000000 0.032023 0.000000
# 6 0.000000 0.000000 0.000000 0.059321 0.000000 0.008163
#
#
# Mechanical properties :
#
#
# Convention : Reuss Voigt Hill
#
# Bulk Modulus (GPa) = 59.87033 78.84731 69.35882
# Shear Modulus (GPa) = -22.11196 37.22755 7.55779
#
# Velocity S-wave (km/s) = -3.02019 3.91880 1.76571
# Velocity P-wave (km/s) = 3.54055 7.28024 5.72439
#
# Compressibility (1/GPa) = 0.01670276
#
# Stress axis : x y z
#
# Youngs Moduli (GPa) = 177.04910 49.06774 57.54239
#
# Poissons Ratio (x) = 0.13778 0.15272
# Poissons Ratio (y) = 0.49713 0.45401
# Poissons Ratio (z) = 0.46989 0.38715
#
# Static dielectric constant tensor:
#      x y z
#    x 1.823120 0.000000 0.151000 
#    y 0.000000 2.039120 0.000000 
#    z 0.151000 0.000000 1.863230 
# 
# From -- ./inp_files/139634.got.cif
#   From: 2010.05.17/outbox.cif.g08.bks.cpg/sg15_70_cif.got.tgz:139634.got - 2010.06.03 18:47:42.
