data_PCOD9299052
_publ_section_title
;
Structure prediction by ZEFSAII (Michael W. Deem and Ramdas Pophale) SiO2 
 PCOD9299052
Probable space group: C 2/C
;
_chemical_formula_sum "Si O2"
_cell_formula_units_Z 32
_cell_length_a 12.139123
_cell_length_b 18.381877
_cell_length_c 7.395000
_cell_angle_alpha 90.000000
_cell_angle_beta 126.382362
_cell_angle_gamma 90.000000
_cell_volume 1328.472175
_symmetry_space_group_name_H-M "C 2/C"
_symmetry_group_IT_number 15
_symmetry_cell_setting 'monoclinic'
loop_
_space_group_symop_operation_xyz
x,y,z
-x,y,1/2-z
-x,-y,-z
x,-y,1/2+z
1/2+x,1/2+y,z
1/2-x,1/2+y,1/2-z
1/2-x,1/2-y,-z
1/2+x,1/2-y,1/2+z
loop_
_atom_site_type_symbol
_atom_site_label
_atom_site_fract_x
_atom_site_fract_y
_atom_site_fract_z
Si Si1 0.747089 0.918785 0.551270
Si Si2 0.755363 0.817685 0.209790
Si Si3 0.146024 0.065035 0.969172
Si Si4 0.046039 0.307751 0.492241
O O1 0.775592 0.864443 0.413853
O O2 0.610468 0.887073 0.513670
O O3 0.748540 0.999616 0.471007
O O4 0.855462 0.918609 0.820184
O O5 0.813466 0.864185 0.102827
O O6 0.836747 0.743377 0.315390
O O7 0.592833 0.808736 0.030808
O O8 0.000000 0.041321 0.750000
O O9 0.000000 0.278335 0.250000
#
# Coordination Sequence:
#
# PCOD9299052 Si02
#       4
#     8   8   8   8
#     4  11  24  46  70 103 139 183 235 285 347 413
#     4  11  26  48  73 104 143 183 233 289 351 410
#     4  12  27  42  72 107 141 187 232 288 348 419
#     4  10  24  46  76 102 138 191 226 290 350 415
#
# _framework density 24.087821999999999
#
# number of rings (size 3 to 8) (size 9 to 14) (size 15 to 20)
#    0.000    1.000    2.500    3.750    7.000    3.000 
#    4.500    0.000    0.000    0.000    0.000    0.000 
#    0.000    0.000    0.000    0.000    0.000    0.000 
#
# Total GULP energy -89647.910992 kJ/mol
# GULP energy per Si atom -5602.994437 kJ/mol
# Density = 2.403300 g / cm^3
# Si number density = 24.087822 Si / 1000 Ang^3
#
#
#
# Elastic Constant Matrix: (Units=GPa)
#
#
# Indices 1 2 3 4 5 6 
#
# 1 65.9200 30.8258 35.5417 0.0000 0.8729 0.0000
# 2 30.8258 110.7788 43.3570 0.0000 14.2499 0.0000
# 3 35.5417 43.3570 123.1394 0.0000 -10.0027 0.0000
# 4 0.0000 0.0000 0.0000 18.2737 0.0000 -13.1456
# 5 0.8729 14.2499 -10.0027 0.0000 45.5646 0.0000
# 6 0.0000 0.0000 0.0000 -13.1456 0.0000 23.8693
#
#
#
# Elastic Compliance Matrix: (Units=1/GPa)
#
#
# Indices 1 2 3 4 5 6 
#
# 1 0.019176 -0.003646 -0.004264 0.000000 -0.000163 0.000000
# 2 -0.003646 0.011998 -0.003534 0.000000 -0.004458 0.000000
# 3 -0.004264 -0.003534 0.010887 0.000000 0.003577 0.000000
# 4 0.000000 0.000000 0.000000 0.090630 0.000000 0.049913
# 5 -0.000163 -0.004458 0.003577 0.000000 0.024130 0.000000
# 6 0.000000 0.000000 0.000000 0.049913 0.000000 0.069384
#
#
# Mechanical properties :
#
#
# Convention : Reuss Voigt Hill
#
# Bulk Modulus (GPa) = 52.16012 57.69856 54.92934
# Shear Modulus (GPa) = 19.57068 30.21576 24.89322
#
# Velocity S-wave (km/s) = 2.85348 3.54559 3.21820
# Velocity P-wave (km/s) = 5.70593 6.38491 6.05494
#
# Compressibility (1/GPa) = 0.01917174
#
# Stress axis : x y z
#
# Youngs Moduli (GPa) = 52.14798 83.34460 91.85528
#
# Poissons Ratio (x) = 0.30388 0.39170
# Poissons Ratio (y) = 0.19014 0.32465
# Poissons Ratio (z) = 0.22237 0.29457
#
# Static dielectric constant tensor:
#      x y z
#    x 1.891710 0.000000 0.015390 
#    y 0.000000 1.881260 0.000000 
#    z 0.015390 0.000000 1.962300 
# 
# From -- ./inp_files/30622.got.cif
#   From: 2010.05.17/outbox.cif.g08.bks.cpg/sg15_16_cif.got.tgz:30622.got - 2010.06.03 18:47:42.
