data_PCOD9299030
_publ_section_title
;
Structure prediction by ZEFSAII (Michael W. Deem and Ramdas Pophale) SiO2 
 PCOD9299030
Probable space group: C 2/C
;
_chemical_formula_sum "Si O2"
_cell_formula_units_Z 28
_cell_length_a 7.337937
_cell_length_b 16.894139
_cell_length_c 12.454505
_cell_angle_alpha 90.000000
_cell_angle_beta 43.026160
_cell_angle_gamma 90.000000
_cell_volume 1053.494774
_symmetry_space_group_name_H-M "C 2/C"
_symmetry_group_IT_number 15
_symmetry_cell_setting 'monoclinic'
loop_
_space_group_symop_operation_xyz
x,y,z
-x,y,1/2-z
-x,-y,-z
x,-y,1/2+z
1/2+x,1/2+y,z
1/2-x,1/2+y,1/2-z
1/2-x,1/2-y,-z
1/2+x,1/2-y,1/2+z
loop_
_atom_site_type_symbol
_atom_site_label
_atom_site_fract_x
_atom_site_fract_y
_atom_site_fract_z
Si Si1 0.000000 0.950731 0.250000
Si Si2 0.119904 0.317788 0.316157
Si Si3 0.215248 0.517592 0.069541
Si Si4 0.504766 0.189028 0.095526
O O1 0.829083 0.888815 0.251475
O O2 0.797906 0.002412 0.409402
O O3 0.265287 0.232803 0.257075
O O4 0.931606 0.320004 0.501098
O O5 0.000000 0.324435 0.250000
O O6 0.108736 0.606536 0.095664
O O7 0.000000 0.486958 0.250000
O O8 0.500000 0.500000 0.000000
O O9 0.750000 0.250000 0.000000
#
# Coordination Sequence:
#
# PCOD9299030 Si02
#       4
#     4   8   8   8
#     4  10  24  46  74 110 156 188 256 328 378 448
#     4  11  21  37  70 111 150 188 245 318 393 441
#     4  11  25  46  77 105 150 206 255 305 388 460
#     4  11  20  42  71 107 149 189 249 326 375 441
#
# _framework density 26.578205000000001
#
# number of rings (size 3 to 8) (size 9 to 14) (size 15 to 20)
#    0.000    1.143    5.714    2.571    0.000    2.286 
#    0.000    2.857    3.143    0.000    0.000    0.000 
#    0.000    0.000    0.000    0.000    0.000    0.000 
#
# Total GULP energy -78195.756449 kJ/mol
# GULP energy per Si atom -5585.411175 kJ/mol
# Density = 2.651771 g / cm^3
# Si number density = 26.578205 Si / 1000 Ang^3
#
#
#
# Elastic Constant Matrix: (Units=GPa)
#
#
# Indices 1 2 3 4 5 6 
#
# 1 179.8296 44.5606 54.1947 0.0001 22.1151 0.0001
# 2 44.5606 126.6484 36.4153 0.0000 3.2710 0.0000
# 3 54.1947 36.4153 228.9007 -0.0001 29.6956 0.0003
# 4 0.0001 0.0000 -0.0001 -46.9625 0.0000 -18.9787
# 5 22.1151 3.2710 29.6956 0.0000 49.0262 -0.0001
# 6 0.0001 0.0000 0.0003 -18.9787 -0.0001 38.6737
#
#
#
# Elastic Compliance Matrix: (Units=1/GPa)
#
#
# Indices 1 2 3 4 5 6 
#
# 1 0.006623 -0.001997 -0.000955 0.000000 -0.002276 0.000000
# 2 -0.001997 0.008880 -0.001063 0.000000 0.000952 0.000000
# 3 -0.000955 -0.001063 0.005100 0.000000 -0.002587 0.000000
# 4 0.000000 0.000000 0.000000 -0.017770 0.000000 -0.008720
# 5 -0.002276 0.000952 -0.002587 0.000000 0.022927 0.000000
# 6 0.000000 0.000000 0.000000 -0.008720 0.000000 0.021578
#
#
# Mechanical properties :
#
#
# Convention : Reuss Voigt Hill
#
# Bulk Modulus (GPa) = 79.54471 89.52442 84.53457
# Shear Modulus (GPa) = 83.94852 34.82802 59.38827
#
# Velocity S-wave (km/s) = 5.62619 3.62387 4.73215
# Velocity P-wave (km/s) = 8.49699 7.16006 7.85701
#
# Compressibility (1/GPa) = 0.01257155
#
# Stress axis : x y z
#
# Youngs Moduli (GPa) = 150.97950 112.61691 196.09140
#
# Poissons Ratio (x) = 0.22489 0.18731
# Poissons Ratio (y) = 0.30150 0.20852
# Poissons Ratio (z) = 0.14422 0.11976
#
# Static dielectric constant tensor:
#      x y z
#    x 2.223150 0.000000 0.000370 
#    y 0.000000 2.047070 0.000000 
#    z 0.000370 0.000000 2.202020 
# 
# From -- ./inp_files/135051.got.cif
#   From: 2010.05.17/outbox.cif.g08.bks.cpg/sg15_68_cif.got.tgz:135051.got - 2010.06.03 18:47:42.
