data_PCOD9299737
_publ_section_title
;
Structure prediction by ZEFSAII (Michael W. Deem and Ramdas Pophale) SiO2 
 PCOD9299737
Probable space group: C 2/C
;
_chemical_formula_sum "Si O2"
_cell_formula_units_Z 32
_cell_length_a 11.670806
_cell_length_b 7.672876
_cell_length_c 29.925060
_cell_angle_alpha 90.000000
_cell_angle_beta 153.134037
_cell_angle_gamma 90.000000
_cell_volume 1210.991409
_symmetry_space_group_name_H-M "C 2/C"
_symmetry_group_IT_number 15
_symmetry_cell_setting 'monoclinic'
loop_
_space_group_symop_operation_xyz
x,y,z
-x,y,1/2-z
-x,-y,-z
x,-y,1/2+z
1/2+x,1/2+y,z
1/2-x,1/2+y,1/2-z
1/2-x,1/2-y,-z
1/2+x,1/2-y,1/2+z
loop_
_atom_site_type_symbol
_atom_site_label
_atom_site_fract_x
_atom_site_fract_y
_atom_site_fract_z
Si Si1 0.643761 0.585736 0.508837
Si Si2 0.986619 0.814960 0.812477
Si Si3 0.216204 0.148225 0.861944
Si Si4 0.522648 0.624392 0.630837
O O1 0.500000 0.500000 0.500000
O O2 0.898063 0.661089 0.618081
O O3 0.473848 0.757867 0.437766
O O4 0.638375 0.450723 0.466044
O O5 0.765760 0.740511 0.704681
O O6 0.202414 0.938549 0.865175
O O7 0.870113 0.951842 0.807038
O O8 0.000000 0.186028 0.750000
O O9 0.134684 0.210463 0.883364
#
# Coordination Sequence:
#
# PCOD9299737 Si02
#       4
#     8   8   8   8
#     4  12  27  42  73 106 145 187 244 294 362 433
#     4  10  25  47  68 104 140 190 239 295 361 422
#     4  10  25  46  73 100 145 187 241 291 363 424
#     4  10  25  45  73  99 147 188 237 297 363 416
#
# _framework density 26.424628999999999
#
# number of rings (size 3 to 8) (size 9 to 14) (size 15 to 20)
#    1.500    0.000    0.000    3.000   10.500    1.000 
#    0.000    0.000    0.000    0.000    0.000    0.000 
#    0.000    0.000    0.000    0.000    0.000    0.000 
#
# Total GULP energy -89413.062411 kJ/mol
# GULP energy per Si atom -5588.316401 kJ/mol
# Density = 2.636449 g / cm^3
# Si number density = 26.424629 Si / 1000 Ang^3
#
#
#
# Elastic Constant Matrix: (Units=GPa)
#
#
# Indices 1 2 3 4 5 6 
#
# 1 98.7088 30.3431 31.3662 0.0001 -31.2893 0.0000
# 2 30.3431 72.8705 25.7935 0.0004 -14.8466 0.0000
# 3 31.3662 25.7935 112.1116 -0.0003 -27.3198 0.0000
# 4 0.0001 0.0004 -0.0003 60.1253 0.0000 0.0879
# 5 -31.2893 -14.8466 -27.3198 0.0000 29.7913 0.0000
# 6 0.0000 0.0000 0.0000 0.0879 0.0000 46.6731
#
#
#
# Elastic Compliance Matrix: (Units=1/GPa)
#
#
# Indices 1 2 3 4 5 6 
#
# 1 0.015994 -0.003606 0.000013 0.000000 0.015014 0.000000
# 2 -0.003606 0.016495 -0.002197 0.000000 0.002419 0.000000
# 3 0.000013 -0.002197 0.011793 0.000000 0.009734 0.000000
# 4 0.000000 0.000000 0.000000 0.016632 0.000000 -0.000031
# 5 0.015014 0.002419 0.009734 0.000000 0.059468 0.000000
# 6 0.000000 0.000000 0.000000 -0.000031 0.000000 0.021426
#
#
# Mechanical properties :
#
#
# Convention : Reuss Voigt Hill
#
# Bulk Modulus (GPa) = 30.57722 50.96625 40.77174
# Shear Modulus (GPa) = 30.43453 40.39716 35.41585
#
# Velocity S-wave (km/s) = 3.39742 3.91419 3.66493
# Velocity P-wave (km/s) = 5.19486 6.30532 5.77684
#
# Compressibility (1/GPa) = 0.03270409
#
# Stress axis : x y z
#
# Youngs Moduli (GPa) = 62.52309 60.62538 84.79281
#
# Poissons Ratio (x) = 0.21860 -0.00114
# Poissons Ratio (y) = 0.22544 0.18627
# Poissons Ratio (z) = -0.00084 0.13318
#
# Static dielectric constant tensor:
#      x y z
#    x 2.099560 0.000000 -0.000900 
#    y 0.000000 2.119130 0.000000 
#    z -0.000900 0.000000 2.011740 
# 
# From -- ./inp_files/121235.got.cif
#   From: 2010.05.17/outbox.cif.g08.bks.cpg/sg15_61_cif.got.tgz:121235.got - 2010.06.03 18:47:42.
