data_PCOD9299141
_publ_section_title
;
Structure prediction by ZEFSAII (Michael W. Deem and Ramdas Pophale) SiO2 
 PCOD9299141
Probable space group: C 2/C
;
_chemical_formula_sum "Si O2"
_cell_formula_units_Z 40
_cell_length_a 14.462334
_cell_length_b 11.475660
_cell_length_c 16.527705
_cell_angle_alpha 90.000000
_cell_angle_beta 39.283258
_cell_angle_gamma 90.000000
_cell_volume 1736.754632
_symmetry_space_group_name_H-M "C 2/C"
_symmetry_group_IT_number 15
_symmetry_cell_setting 'monoclinic'
loop_
_space_group_symop_operation_xyz
x,y,z
-x,y,1/2-z
-x,-y,-z
x,-y,1/2+z
1/2+x,1/2+y,z
1/2-x,1/2+y,1/2-z
1/2-x,1/2-y,-z
1/2+x,1/2-y,1/2+z
loop_
_atom_site_type_symbol
_atom_site_label
_atom_site_fract_x
_atom_site_fract_y
_atom_site_fract_z
Si Si1 0.851930 0.188720 0.304580
Si Si2 0.196218 0.882407 0.027282
Si Si3 0.604723 0.977311 0.004911
Si Si4 0.420648 0.507588 0.640135
Si Si5 0.664034 0.042804 0.707166
O O1 0.692381 0.143355 0.439649
O O2 0.884676 0.121700 0.198197
O O3 0.841698 0.326385 0.320892
O O4 0.000000 0.152435 0.250000
O O5 0.250000 0.750000 0.000000
O O6 0.025708 0.913535 0.125750
O O7 0.258925 0.939577 0.066949
O O8 0.270634 0.949846 0.900077
O O9 0.495855 0.988920 0.153875
O O10 0.500000 0.000000 0.000000
O O11 0.500000 0.500000 0.500000
O O12 0.264126 0.556078 0.719925
#
# Coordination Sequence:
#
# PCOD9299141 Si02
#       5
#     8   8   8   8   8
#     4  12  25  47  76 104 150 192 252 307 363 449
#     4  11  26  49  75 104 149 194 247 302 369 446
#     4  12  26  46  70 111 145 192 246 308 373 431
#     4  10  24  47  70 108 145 198 243 299 374 436
#     4  11  27  47  75 112 145 195 248 308 377 431
#
# _framework density 23.031462999999999
#
# number of rings (size 3 to 8) (size 9 to 14) (size 15 to 20)
#    0.000    0.800    4.000    1.800    8.400    3.200 
#    7.200    0.000    0.000    0.000    0.000    0.000 
#    0.000    0.000    0.000    0.000    0.000    0.000 
#
# Total GULP energy -111519.714085 kJ/mol
# GULP energy per Si atom -5575.985704 kJ/mol
# Density = 2.297904 g / cm^3
# Si number density = 23.031463 Si / 1000 Ang^3
#
#
#
# Elastic Constant Matrix: (Units=GPa)
#
#
# Indices 1 2 3 4 5 6 
#
# 1 188.4471 43.1059 27.7605 0.0000 -39.2322 0.0000
# 2 43.1059 115.0103 11.0281 0.0000 -3.7464 0.0000
# 3 27.7605 11.0281 112.5043 0.0000 -17.7780 0.0000
# 4 0.0000 0.0000 0.0000 13.9559 0.0000 1.3446
# 5 -39.2322 -3.7464 -17.7780 0.0000 48.5628 0.0000
# 6 0.0000 0.0000 0.0000 1.3446 0.0000 23.9254
#
#
#
# Elastic Compliance Matrix: (Units=1/GPa)
#
#
# Indices 1 2 3 4 5 6 
#
# 1 0.007052 -0.002407 -0.000672 0.000000 0.005266 0.000000
# 2 -0.002407 0.009606 -0.000571 0.000000 -0.001413 0.000000
# 3 -0.000672 -0.000571 0.009571 0.000000 0.002917 0.000000
# 4 0.000000 0.000000 0.000000 0.072044 0.000000 -0.004049
# 5 0.005266 -0.001413 0.002917 0.000000 0.025805 0.000000
# 6 0.000000 0.000000 0.000000 -0.004049 0.000000 0.042024
#
#
# Mechanical properties :
#
#
# Convention : Reuss Voigt Hill
#
# Bulk Modulus (GPa) = 52.82891 64.41676 58.62284
# Shear Modulus (GPa) = 27.82215 39.55996 33.69106
#
# Velocity S-wave (km/s) = 3.47941 4.14895 3.82884
# Velocity P-wave (km/s) = 6.25534 7.14013 6.71233
#
# Compressibility (1/GPa) = 0.01892903
#
# Stress axis : x y z
#
# Youngs Moduli (GPa) = 141.79507 104.10335 104.47924
#
# Poissons Ratio (x) = 0.25061 0.07022
# Poissons Ratio (y) = 0.34134 0.05964
# Poissons Ratio (z) = 0.09531 0.05943
#
# Static dielectric constant tensor:
#      x y z
#    x 2.057770 0.000000 0.134730 
#    y 0.000000 1.889450 0.000000 
#    z 0.134730 0.000000 1.855470 
# 
# From -- ./inp_files/203793.got.cif
#   From: 2010.05.17/outbox.cif.g08.bks.cpg/sg15_102_cif.got.tgz:203793.got - 2010.06.03 18:47:42.
