data_PCOD9299205
_publ_section_title
;
Structure prediction by ZEFSAII (Michael W. Deem and Ramdas Pophale) SiO2 
 PCOD9299205
Probable space group: C 2/C
;
_chemical_formula_sum "Si O2"
_cell_formula_units_Z 32
_cell_length_a 9.821473
_cell_length_b 32.779892
_cell_length_c 7.425682
_cell_angle_alpha 90.000000
_cell_angle_beta 146.243280
_cell_angle_gamma 90.000000
_cell_volume 1328.420850
_symmetry_space_group_name_H-M "C 2/C"
_symmetry_group_IT_number 15
_symmetry_cell_setting 'monoclinic'
loop_
_space_group_symop_operation_xyz
x,y,z
-x,y,1/2-z
-x,-y,-z
x,-y,1/2+z
1/2+x,1/2+y,z
1/2-x,1/2+y,1/2-z
1/2-x,1/2-y,-z
1/2+x,1/2-y,1/2+z
loop_
_atom_site_type_symbol
_atom_site_label
_atom_site_fract_x
_atom_site_fract_y
_atom_site_fract_z
Si Si1 0.000000 0.586018 0.250000
Si Si2 0.000000 0.086512 0.250000
Si Si3 0.278945 0.766445 0.737580
Si Si4 0.749894 0.525197 0.752772
Si Si5 0.324764 0.859137 0.882323
O O1 0.947296 0.614291 0.361539
O O2 0.216286 0.554907 0.539482
O O3 0.213629 0.056023 0.546053
O O4 0.089520 0.115736 0.190228
O O5 0.250000 0.750000 0.500000
O O6 0.260317 0.814913 0.733917
O O7 0.051975 0.746724 0.593228
O O8 0.500000 0.500000 0.500000
O O9 0.000000 0.500000 0.000000
O O10 0.500000 0.854751 0.250000
#
# Coordination Sequence:
#
# PCOD9299205 Si02
#       5
#     4   4   8   8   8
#     4  12  26  52  82 110 156 218 262 326 412 480
#     4  12  28  50  76 118 168 202 274 334 406 470
#     4  10  24  47  77 112 153 203 264 314 394 477
#     4  12  27  49  78 116 156 211 271 332 399 483
#     4  12  28  51  79 117 163 205 269 336 398 481
#
# _framework density 24.088750000000001
#
# number of rings (size 3 to 8) (size 9 to 14) (size 15 to 20)
#    0.000    0.500    2.500    4.500    3.500    8.000 
#    0.000    0.000    0.000    0.000    0.000    0.000 
#    0.000    0.000    0.000    0.000    0.000    0.000 
#
# Total GULP energy -89628.324897 kJ/mol
# GULP energy per Si atom -5601.770306 kJ/mol
# Density = 2.403392 g / cm^3
# Si number density = 24.088750 Si / 1000 Ang^3
#
#
#
# Elastic Constant Matrix: (Units=GPa)
#
#
# Indices 1 2 3 4 5 6 
#
# 1 145.0432 88.5628 62.0061 0.0000 14.6881 0.0000
# 2 88.5628 225.4461 83.2758 0.0000 15.0048 0.0000
# 3 62.0061 83.2758 106.9807 0.0000 19.5543 0.0000
# 4 0.0000 0.0000 0.0000 1481.9364 0.0000 -813.1805
# 5 14.6881 15.0048 19.5543 0.0000 60.0062 0.0000
# 6 0.0000 0.0000 0.0000 -813.1805 0.0000 499.4235
#
#
#
# Elastic Compliance Matrix: (Units=1/GPa)
#
#
# Indices 1 2 3 4 5 6 
#
# 1 0.010123 -0.002540 -0.003778 0.000000 -0.000611 0.000000
# 2 -0.002540 0.006863 -0.003903 0.000000 0.000177 0.000000
# 3 -0.003778 -0.003903 0.015129 0.000000 -0.003029 0.000000
# 4 0.000000 0.000000 0.000000 0.006334 0.000000 0.010313
# 5 -0.000611 0.000177 -0.003029 0.000000 0.017757 0.000000
# 6 0.000000 0.000000 0.000000 0.010313 0.000000 0.018794
#
#
# Mechanical properties :
#
#
# Convention : Reuss Voigt Hill
#
# Bulk Modulus (GPa) = 85.66718 105.01769 95.34243
# Shear Modulus (GPa) = 50.33610 424.51493 237.42551
#
# Velocity S-wave (km/s) = 4.57618 13.28955 9.93865
# Velocity P-wave (km/s) = 7.97260 16.70849 13.09076
#
# Compressibility (1/GPa) = 0.01167308
#
# Stress axis : x y z
#
# Youngs Moduli (GPa) = 98.78926 145.70233 66.09955
#
# Poissons Ratio (x) = 0.37013 0.24971
# Poissons Ratio (y) = 0.25096 0.25796
# Poissons Ratio (z) = 0.37321 0.56861
#
# Static dielectric constant tensor:
#      x y z
#    x 1.886650 0.000000 -0.005640 
#    y 0.000000 1.869370 0.000000 
#    z -0.005640 0.000000 1.987150 
# 
# From -- ./inp_files/35835.got.cif
#   From: 2010.05.17/outbox.cif.g08.bks.cpg/sg15_18_cif.got.tgz:35835.got - 2010.06.03 18:47:42.
