data_PCOD9299040
_publ_section_title
;
Structure prediction by ZEFSAII (Michael W. Deem and Ramdas Pophale) SiO2 
 PCOD9299040
Probable space group: C 2/C
;
_chemical_formula_sum "Si O2"
_cell_formula_units_Z 40
_cell_length_a 22.835570
_cell_length_b 9.411423
_cell_length_c 18.674917
_cell_angle_alpha 90.000000
_cell_angle_beta 23.329450
_cell_angle_gamma 90.000000
_cell_volume 1589.425741
_symmetry_space_group_name_H-M "C 2/C"
_symmetry_group_IT_number 15
_symmetry_cell_setting 'monoclinic'
loop_
_space_group_symop_operation_xyz
x,y,z
-x,y,1/2-z
-x,-y,-z
x,-y,1/2+z
1/2+x,1/2+y,z
1/2-x,1/2+y,1/2-z
1/2-x,1/2-y,-z
1/2+x,1/2-y,1/2+z
loop_
_atom_site_type_symbol
_atom_site_label
_atom_site_fract_x
_atom_site_fract_y
_atom_site_fract_z
Si Si1 0.058104 0.410157 0.329325
Si Si2 0.000000 0.074428 0.750000
Si Si3 0.679228 0.388686 0.645136
Si Si4 0.469633 0.347038 0.127332
Si Si5 0.000000 0.440438 0.250000
Si Si6 0.297138 0.108179 0.232594
O O1 0.097645 0.255003 0.256292
O O2 0.182154 0.464343 0.244795
O O3 0.046666 0.511441 0.272290
O O4 0.904018 0.407130 0.544810
O O5 0.017235 0.165187 0.658368
O O6 0.129623 0.965511 0.626734
O O7 0.852397 0.362315 0.442689
O O8 0.627829 0.509277 0.759094
O O9 0.626220 0.360899 0.911722
O O10 0.372247 0.228550 0.198391
#
# Coordination Sequence:
#
# PCOD9299040 Si02
#       6
#     8   4   8   8   4   8
#     4  11  27  45  75 107 146 186 244 305 350 438
#     4   8  21  47  72 106 145 177 244 300 335 433
#     4  10  24  46  75 102 144 186 242 299 351 419
#     4  10  25  47  71 106 147 193 235 301 349 441
#     4  12  25  43  78 106 133 195 240 296 361 421
#     4  11  27  47  71 107 152 186 241 295 369 421
#
# _framework density 25.166322000000001
#
# number of rings (size 3 to 8) (size 9 to 14) (size 15 to 20)
#    1.200    0.400    0.000    2.400    8.400    4.000 
#    0.000    0.000    0.000    0.000    0.000    0.000 
#    0.000    0.000    0.000    0.000    0.000    0.000 
#
# Total GULP energy -111717.231356 kJ/mol
# GULP energy per Si atom -5585.861568 kJ/mol
# Density = 2.510904 g / cm^3
# Si number density = 25.166322 Si / 1000 Ang^3
#
#
#
# Elastic Constant Matrix: (Units=GPa)
#
#
# Indices 1 2 3 4 5 6 
#
# 1 121.6608 34.8991 33.7369 0.0000 24.3356 0.0000
# 2 34.8991 103.3422 38.2364 -0.0001 7.0774 0.0000
# 3 33.7369 38.2364 161.9349 -0.0002 -14.2490 0.0000
# 4 0.0000 -0.0001 -0.0002 16.2634 0.0001 -9.0806
# 5 24.3356 7.0774 -14.2490 0.0001 29.5263 0.0000
# 6 0.0000 0.0000 0.0000 -9.0806 0.0000 21.4728
#
#
#
# Elastic Compliance Matrix: (Units=1/GPa)
#
#
# Indices 1 2 3 4 5 6 
#
# 1 0.011747 -0.002188 -0.002858 0.000000 -0.010537 0.000000
# 2 -0.002188 0.011463 -0.002437 0.000000 -0.002120 0.000000
# 3 -0.002858 -0.002437 0.007942 0.000000 0.006772 0.000000
# 4 0.000000 0.000000 0.000000 0.080494 0.000000 0.034040
# 5 -0.010537 -0.002120 0.006772 0.000000 0.046329 0.000000
# 6 0.000000 0.000000 0.000000 0.034040 0.000000 0.060965
#
#
# Mechanical properties :
#
#
# Convention : Reuss Voigt Hill
#
# Bulk Modulus (GPa) = 61.78367 66.74253 64.26310
# Shear Modulus (GPa) = 20.89408 32.12353 26.50881
#
# Velocity S-wave (km/s) = 2.88451 3.57662 3.24905
# Velocity P-wave (km/s) = 5.97472 6.60564 6.29808
#
# Compressibility (1/GPa) = 0.01618551
#
# Stress axis : x y z
#
# Youngs Moduli (GPa) = 85.12489 87.24096 125.91059
#
# Poissons Ratio (x) = 0.19089 0.35984
# Poissons Ratio (y) = 0.18626 0.30688
# Poissons Ratio (z) = 0.24328 0.21263
#
# Static dielectric constant tensor:
#      x y z
#    x 2.147720 0.000000 -0.012350 
#    y 0.000000 1.968490 0.000000 
#    z -0.012350 0.000000 1.916100 
# 
# From -- ./inp_files/255417.got.cif
#   From: 2010.05.17/outbox.cif.g08.bks.cpg/sg15_128_cif.got.tgz:255417.got - 2010.06.03 18:47:42.
