data_PCOD9299695
_publ_section_title
;
Structure prediction by ZEFSAII (Michael W. Deem and Ramdas Pophale) SiO2 
 PCOD9299695
Probable space group: C 2/C
;
_chemical_formula_sum "Si O2"
_cell_formula_units_Z 56
_cell_length_a 9.483926
_cell_length_b 23.339637
_cell_length_c 17.157697
_cell_angle_alpha 90.000000
_cell_angle_beta 140.102619
_cell_angle_gamma 90.000000
_cell_volume 2436.015596
_symmetry_space_group_name_H-M "C 2/C"
_symmetry_group_IT_number 15
_symmetry_cell_setting 'monoclinic'
loop_
_space_group_symop_operation_xyz
x,y,z
-x,y,1/2-z
-x,-y,-z
x,-y,1/2+z
1/2+x,1/2+y,z
1/2-x,1/2+y,1/2-z
1/2-x,1/2-y,-z
1/2+x,1/2-y,1/2+z
loop_
_atom_site_type_symbol
_atom_site_label
_atom_site_fract_x
_atom_site_fract_y
_atom_site_fract_z
Si Si1 0.043684 0.693941 0.686797
Si Si2 0.920770 0.529306 0.318273
Si Si3 0.939648 0.701010 0.981625
Si Si4 0.809507 0.575093 0.583829
Si Si5 0.966317 0.185325 0.588167
Si Si6 0.263254 0.593434 0.123261
Si Si7 0.157739 0.080278 0.060675
O O1 0.025371 0.721650 0.593156
O O2 0.287644 0.667155 0.787614
O O3 0.000000 0.727173 0.750000
O O4 0.874782 0.641183 0.621709
O O5 0.973007 0.463960 0.318368
O O6 0.171189 0.552933 0.427135
O O7 0.805706 0.541494 0.350175
O O8 0.780620 0.564343 0.193986
O O9 0.692352 0.685724 0.904319
O O10 0.996251 0.751167 0.066017
O O11 0.088563 0.644875 0.055216
O O12 0.730446 0.571621 0.461519
O O13 0.594232 0.559485 0.542507
O O14 0.862206 0.145978 0.475861
O O15 0.500000 0.615185 0.250000
#
# Coordination Sequence:
#
# PCOD9299695 Si02
#       7
#     8   8   8   8   8   8   8
#     4  11  24  42  67  99 136 173 220 279 333 402
#     4  11  24  41  68  99 131 182 222 275 339 397
#     4  10  25  45  68  98 134 178 227 275 340 401
#     4  11  24  43  65  97 138 175 224 279 336 400
#     4  11  23  46  69  96 134 179 225 281 336 401
#     4  11  22  45  66  98 137 174 228 280 332 407
#     4  11  23  41  67  96 134 171 227 275 325 408
#
# _framework density 22.988358999999999
#
# number of rings (size 3 to 8) (size 9 to 14) (size 15 to 20)
#    0.000    1.143    4.286    1.286    2.000    3.429 
#    2.571    0.000    0.000    0.000    0.000    0.000 
#    0.000    0.000    0.000    0.000    0.000    0.000 
#
# Total GULP energy -156307.241825 kJ/mol
# GULP energy per Si atom -5582.401494 kJ/mol
# Density = 2.293604 g / cm^3
# Si number density = 22.988359 Si / 1000 Ang^3
#
#
#
# Elastic Constant Matrix: (Units=GPa)
#
#
# Indices 1 2 3 4 5 6 
#
# 1 138.1870 2.3997 39.5697 -0.0002 10.3415 -0.0002
# 2 2.3997 40.8755 -10.1015 -0.0002 4.7494 -0.0001
# 3 39.5697 -10.1015 82.3740 -0.0013 8.8176 -0.0007
# 4 -0.0002 -0.0002 -0.0013 -5.5160 -0.0002 9.0313
# 5 10.3415 4.7494 8.8176 -0.0002 47.2187 -0.0001
# 6 -0.0002 -0.0001 -0.0007 9.0313 -0.0001 19.2155
#
#
#
# Elastic Compliance Matrix: (Units=1/GPa)
#
#
# Indices 1 2 3 4 5 6 
#
# 1 0.008526 -0.001421 -0.004168 0.000000 -0.000946 0.000000
# 2 -0.001421 0.025942 0.004194 -0.000001 -0.003081 0.000001
# 3 -0.004168 0.004194 0.014902 -0.000001 -0.002292 0.000001
# 4 0.000000 -0.000001 -0.000001 -0.102451 0.000000 0.048152
# 5 -0.000946 -0.003081 -0.002292 0.000000 0.022123 0.000000
# 6 0.000000 0.000001 0.000001 0.048152 0.000000 0.029410
#
#
# Mechanical properties :
#
#
# Convention : Reuss Voigt Hill
#
# Bulk Modulus (GPa) = 21.46911 36.13025 28.79968
# Shear Modulus (GPa) = 298.18261 27.48821 162.83541
#
# Velocity S-wave (km/s) = 11.40140 3.46171 8.42542
# Velocity P-wave (km/s) = 13.51599 5.63283 10.35400
#
# Compressibility (1/GPa) = 0.04657856
#
# Stress axis : x y z
#
# Youngs Moduli (GPa) = 117.29315 38.54705 67.10658
#
# Poissons Ratio (x) = 0.05477 0.27973
# Poissons Ratio (y) = 0.16664 -0.28142
# Poissons Ratio (z) = 0.48892 -0.16165
#
# Static dielectric constant tensor:
#      x y z
#    x 1.877560 0.000000 -0.007850 
#    y 0.000000 1.896300 0.000000 
#    z -0.007850 0.000000 1.886500 
# 
# From -- ./inp_files/193901.got.cif
#   From: 2010.05.17/outbox.cif.g08.bks.cpg/sg15_97_cif.got.tgz:193901.got - 2010.06.03 18:47:42.
