data_PCOD9299731
_publ_section_title
;
Structure prediction by ZEFSAII (Michael W. Deem and Ramdas Pophale) SiO2 
 PCOD9299731
Probable space group: C 2/C
;
_chemical_formula_sum "Si O2"
_cell_formula_units_Z 48
_cell_length_a 19.474718
_cell_length_b 19.983868
_cell_length_c 8.493620
_cell_angle_alpha 90.000000
_cell_angle_beta 40.010471
_cell_angle_gamma 90.000000
_cell_volume 2125.228466
_symmetry_space_group_name_H-M "C 2/C"
_symmetry_group_IT_number 15
_symmetry_cell_setting 'monoclinic'
loop_
_space_group_symop_operation_xyz
x,y,z
-x,y,1/2-z
-x,-y,-z
x,-y,1/2+z
1/2+x,1/2+y,z
1/2-x,1/2+y,1/2-z
1/2-x,1/2-y,-z
1/2+x,1/2-y,1/2+z
loop_
_atom_site_type_symbol
_atom_site_label
_atom_site_fract_x
_atom_site_fract_y
_atom_site_fract_z
Si Si1 0.823020 0.080894 0.413101
Si Si2 0.500000 0.672474 0.250000
Si Si3 0.500000 0.254336 0.250000
Si Si4 0.596685 0.794581 0.885269
Si Si5 0.275661 0.974582 0.101657
Si Si6 0.921664 0.557716 0.070107
Si Si7 0.715022 0.702304 0.210423
O O1 0.822088 0.012956 0.313310
O O2 0.762349 0.130941 0.405350
O O3 0.926359 0.122251 0.280698
O O4 0.763172 0.066888 0.681242
O O5 0.445885 0.725670 0.462286
O O6 0.427411 0.212903 0.256272
O O7 0.407980 0.290393 0.516697
O O8 0.541143 0.866216 0.022204
O O9 0.713525 0.794781 0.758119
O O10 0.363042 0.025278 0.023000
O O11 0.333007 0.934206 0.863412
O O12 0.000000 0.500000 0.000000
O O13 0.750000 0.750000 0.000000
#
# Coordination Sequence:
#
# PCOD9299731 Si02
#       7
#     8   4   4   8   8   8   8
#     4  11  24  50  71 107 144 194 257 309 383 450
#     4  12  26  48  78 110 148 202 254 322 390 462
#     4  12  28  44  72 118 146 204 256 304 394 456
#     4  12  26  45  74 114 151 202 250 317 390 452
#     4  10  25  45  72  99 142 206 243 306 380 446
#     4  11  25  42  68 105 148 190 247 308 368 463
#     4  12  25  49  77 108 159 197 247 326 388 454
#
# _framework density 22.585806999999999
#
# number of rings (size 3 to 8) (size 9 to 14) (size 15 to 20)
#    0.000    0.667    5.000    1.000    7.000    3.333 
#    0.000    0.833    0.000    0.000    0.000    0.000 
#    0.000    0.000    0.000    0.000    0.000    0.000 
#
# Total GULP energy -133734.137228 kJ/mol
# GULP energy per Si atom -5572.255718 kJ/mol
# Density = 2.253440 g / cm^3
# Si number density = 22.585807 Si / 1000 Ang^3
#
#
#
# Elastic Constant Matrix: (Units=GPa)
#
#
# Indices 1 2 3 4 5 6 
#
# 1 169.2311 46.1012 35.5829 0.0000 5.9086 0.0000
# 2 46.1012 95.8240 49.7662 0.0000 -8.2401 0.0000
# 3 35.5829 49.7662 106.0629 0.0000 22.6546 0.0000
# 4 0.0000 0.0000 0.0000 4.6144 0.0000 -5.8618
# 5 5.9086 -8.2401 22.6546 0.0000 37.3681 0.0000
# 6 0.0000 0.0000 0.0000 -5.8618 0.0000 47.0212
#
#
#
# Elastic Compliance Matrix: (Units=1/GPa)
#
#
# Indices 1 2 3 4 5 6 
#
# 1 0.006941 -0.003207 -0.000504 0.000000 -0.001499 0.000000
# 2 -0.003207 0.017734 -0.009407 0.000000 0.010121 0.000000
# 3 -0.000504 -0.009407 0.016585 0.000000 -0.012050 0.000000
# 4 0.000000 0.000000 0.000000 0.257492 0.000000 0.032100
# 5 -0.001499 0.010121 -0.012050 0.000000 0.036535 0.000000
# 6 0.000000 0.000000 0.000000 0.032100 0.000000 0.025269
#
#
# Mechanical properties :
#
#
# Convention : Reuss Voigt Hill
#
# Bulk Modulus (GPa) = 66.55474 70.44650 68.50062
# Shear Modulus (GPa) = 12.76163 33.77859 23.27011
#
# Velocity S-wave (km/s) = 2.37961 3.87145 3.21331
# Velocity P-wave (km/s) = 6.08946 7.15839 6.64545
#
# Compressibility (1/GPa) = 0.01502523
#
# Stress axis : x y z
#
# Youngs Moduli (GPa) = 144.07434 56.38746 60.29489
#
# Poissons Ratio (x) = 0.18081 0.03038
# Poissons Ratio (y) = 0.46198 0.56721
# Poissons Ratio (z) = 0.07259 0.53045
#
# Static dielectric constant tensor:
#      x y z
#    x 5.816770 0.000000 2.470980 
#    y 0.000000 1.900580 0.000000 
#    z 2.470980 0.000000 3.673000 
# 
# From -- ./inp_files/57736.got.cif
#   From: 2010.05.17/outbox.cif.g08.bks.cpg/sg15_29_cif.got.tgz:57736.got - 2010.06.03 18:47:42.
