data_PCOD9299782
_publ_section_title
;
Structure prediction by ZEFSAII (Michael W. Deem and Ramdas Pophale) SiO2 
 PCOD9299782
Probable space group: C 2/C
;
_chemical_formula_sum "Si O2"
_cell_formula_units_Z 40
_cell_length_a 12.880454
_cell_length_b 5.162240
_cell_length_c 23.500294
_cell_angle_alpha 90.000000
_cell_angle_beta 106.925176
_cell_angle_gamma 90.000000
_cell_volume 1494.899394
_symmetry_space_group_name_H-M "C 2/C"
_symmetry_group_IT_number 15
_symmetry_cell_setting 'monoclinic'
loop_
_space_group_symop_operation_xyz
x,y,z
-x,y,1/2-z
-x,-y,-z
x,-y,1/2+z
1/2+x,1/2+y,z
1/2-x,1/2+y,1/2-z
1/2-x,1/2-y,-z
1/2+x,1/2-y,1/2+z
loop_
_atom_site_type_symbol
_atom_site_label
_atom_site_fract_x
_atom_site_fract_y
_atom_site_fract_z
Si Si1 0.808859 0.316820 0.779984
Si Si2 0.992919 0.025865 0.190570
Si Si3 0.437749 0.930574 0.391386
Si Si4 0.621749 0.615490 0.021455
Si Si5 0.839476 0.733353 0.093693
O O1 0.731586 0.068200 0.760681
O O2 0.839840 0.414161 0.847455
O O3 0.924748 0.203797 0.780622
O O4 0.878051 0.910683 0.152252
O O5 0.000000 0.190178 0.250000
O O6 0.044388 0.173140 0.144385
O O7 0.406372 0.885322 0.451348
O O8 0.553004 0.067275 0.402431
O O9 0.730289 0.561282 0.077382
O O10 0.500000 0.500000 0.000000
O O11 0.666422 0.596218 0.964789
#
# Coordination Sequence:
#
# PCOD9299782 Si02
#       5
#     8   8   8   8   8
#     4  11  24  46  71 105 148 199 254 305 377 458
#     4  11  25  46  70 108 155 199 252 314 382 454
#     4  11  24  46  73 111 150 199 254 316 384 452
#     4  11  23  47  76 105 150 199 255 316 388 451
#     4  10  25  46  70 109 150 194 256 314 377 457
#
# _framework density 26.757652
#
# number of rings (size 3 to 8) (size 9 to 14) (size 15 to 20)
#    0.000    1.200    4.000    0.600    2.800    4.000 
#    7.200    0.000    0.000    0.000    0.000    0.000 
#    0.000    0.000    0.000    0.000    0.000    0.000 
#
# Total GULP energy -111552.299077 kJ/mol
# GULP energy per Si atom -5577.614954 kJ/mol
# Density = 2.669675 g / cm^3
# Si number density = 26.757652 Si / 1000 Ang^3
#
#
#
# Elastic Constant Matrix: (Units=GPa)
#
#
# Indices 1 2 3 4 5 6 
#
# 1 163.3940 28.8767 36.6629 0.0000 44.9349 0.0000
# 2 28.8767 94.8035 33.0598 0.0000 26.7280 0.0000
# 3 36.6629 33.0598 137.2818 0.0000 26.3640 0.0000
# 4 0.0000 0.0000 0.0000 33.9579 0.0000 5.3027
# 5 44.9349 26.7280 26.3640 0.0000 60.3257 0.0000
# 6 0.0000 0.0000 0.0000 5.3027 0.0000 38.1650
#
#
#
# Elastic Compliance Matrix: (Units=1/GPa)
#
#
# Indices 1 2 3 4 5 6 
#
# 1 0.007865 -0.000602 -0.000962 0.000000 -0.005171 0.000000
# 2 -0.000602 0.012652 -0.002069 0.000000 -0.004253 0.000000
# 3 -0.000962 -0.002069 0.008434 0.000000 -0.002052 0.000000
# 4 0.000000 0.000000 0.000000 0.030101 0.000000 -0.004182
# 5 -0.005171 -0.004253 -0.002052 0.000000 0.023209 0.000000
# 6 0.000000 0.000000 0.000000 -0.004182 0.000000 0.026783
#
#
# Mechanical properties :
#
#
# Convention : Reuss Voigt Hill
#
# Bulk Modulus (GPa) = 46.11943 65.85311 55.98627
# Shear Modulus (GPa) = 40.47296 46.28171 43.37734
#
# Velocity S-wave (km/s) = 3.89340 4.16343 4.03068
# Velocity P-wave (km/s) = 6.12249 6.91206 6.52922
#
# Compressibility (1/GPa) = 0.02168283
#
# Stress axis : x y z
#
# Youngs Moduli (GPa) = 127.15338 79.03794 118.57176
#
# Poissons Ratio (x) = 0.04759 0.11410
# Poissons Ratio (y) = 0.07656 0.24536
# Poissons Ratio (z) = 0.12236 0.16355
#
# Static dielectric constant tensor:
#      x y z
#    x 2.161910 0.000000 -0.167100 
#    y 0.000000 2.174670 0.000000 
#    z -0.167100 0.000000 2.528080 
# 
# From -- ./inp_files/309479.got.cif
#   From: 2010.05.17/outbox.cif.g08.bks.cpg/sg15_155_cif.got.tgz:309479.got - 2010.06.03 18:47:42.
