data_PCOD9299344
_publ_section_title
;
Structure prediction by ZEFSAII (Michael W. Deem and Ramdas Pophale) SiO2 
 PCOD9299344
Probable space group: C 2/C
;
_chemical_formula_sum "Si O2"
_cell_formula_units_Z 48
_cell_length_a 15.168029
_cell_length_b 18.920680
_cell_length_c 11.629063
_cell_angle_alpha 90.000000
_cell_angle_beta 39.604714
_cell_angle_gamma 90.000000
_cell_volume 2127.561912
_symmetry_space_group_name_H-M "C 2/C"
_symmetry_group_IT_number 15
_symmetry_cell_setting 'monoclinic'
loop_
_space_group_symop_operation_xyz
x,y,z
-x,y,1/2-z
-x,-y,-z
x,-y,1/2+z
1/2+x,1/2+y,z
1/2-x,1/2+y,1/2-z
1/2-x,1/2-y,-z
1/2+x,1/2-y,1/2+z
loop_
_atom_site_type_symbol
_atom_site_label
_atom_site_fract_x
_atom_site_fract_y
_atom_site_fract_z
Si Si1 0.500000 0.458694 0.250000
Si Si2 0.803014 0.084140 0.499081
Si Si3 0.344324 0.712973 0.309627
Si Si4 0.558817 0.896811 0.571235
Si Si5 0.580845 0.216789 0.434490
Si Si6 0.000000 0.536265 0.750000
Si Si7 0.368281 0.365524 0.194008
O O1 0.369204 0.508093 0.410193
O O2 0.469213 0.413535 0.167370
O O3 0.864104 0.135443 0.340072
O O4 0.637015 0.079201 0.647212
O O5 0.845582 0.112394 0.582680
O O6 0.250000 0.750000 0.500000
O O7 0.240383 0.708667 0.307407
O O8 0.479477 0.756264 0.138701
O O9 0.500000 0.867438 0.750000
O O10 0.476931 0.856468 0.554322
O O11 0.717521 0.876699 0.399045
O O12 0.537449 0.981128 0.608717
O O13 0.580034 0.285018 0.352859
#
# Coordination Sequence:
#
# PCOD9299344 Si02
#       7
#     4   8   8   8   8   4   8
#     4  12  26  49  69 102 146 196 238 298 358 442
#     4  12  26  46  74 106 150 185 243 299 365 445
#     4  12  26  44  71 109 147 183 240 298 371 426
#     4  10  24  49  67 106 144 183 250 291 366 430
#     4  12  25  45  76 107 145 194 236 309 361 432
#     4  10  26  47  73 102 146 196 230 304 356 442
#     4  12  26  46  73 107 142 192 246 297 368 432
#
# _framework density 22.561035
#
# number of rings (size 3 to 8) (size 9 to 14) (size 15 to 20)
#    0.500    0.000    5.000    2.000    5.833    5.333 
#    0.000    0.000    0.000    0.000    0.000    0.000 
#    0.000    0.000    0.000    0.000    0.000    0.000 
#
# Total GULP energy -134213.563708 kJ/mol
# GULP energy per Si atom -5592.231821 kJ/mol
# Density = 2.250968 g / cm^3
# Si number density = 22.561035 Si / 1000 Ang^3
#
#
#
# Elastic Constant Matrix: (Units=GPa)
#
#
# Indices 1 2 3 4 5 6 
#
# 1 113.7575 43.4253 14.9374 -0.0006 -15.4257 0.0005
# 2 43.4253 87.0601 4.5253 -0.0003 4.1186 0.0005
# 3 14.9374 4.5253 100.1077 -0.0009 -5.6327 0.0009
# 4 -0.0006 -0.0003 -0.0009 37.9105 0.0007 10.7254
# 5 -15.4257 4.1186 -5.6327 0.0007 38.0432 -0.0006
# 6 0.0005 0.0005 0.0009 10.7254 -0.0006 31.7194
#
#
#
# Elastic Compliance Matrix: (Units=1/GPa)
#
#
# Indices 1 2 3 4 5 6 
#
# 1 0.012046 -0.006199 -0.001215 0.000000 0.005376 0.000000
# 2 -0.006199 0.014772 0.000026 0.000000 -0.004109 0.000000
# 3 -0.001215 0.000026 0.010227 0.000000 0.001019 0.000000
# 4 0.000000 0.000000 0.000000 0.029168 -0.000001 -0.009863
# 5 0.005376 -0.004109 0.001019 -0.000001 0.029061 0.000001
# 6 0.000000 0.000000 0.000000 -0.009863 0.000001 0.034861
#
#
# Mechanical properties :
#
#
# Convention : Reuss Voigt Hill
#
# Bulk Modulus (GPa) = 44.90790 47.41127 46.15958
# Shear Modulus (GPa) = 32.82273 37.40378 35.11325
#
# Velocity S-wave (km/s) = 3.81838 4.07614 3.94936
# Velocity P-wave (km/s) = 6.27601 6.57370 6.42658
#
# Compressibility (1/GPa) = 0.02226780
#
# Stress axis : x y z
#
# Youngs Moduli (GPa) = 83.01762 67.69730 97.78389
#
# Poissons Ratio (x) = 0.41969 0.11877
# Poissons Ratio (y) = 0.51467 -0.00255
# Poissons Ratio (z) = 0.10084 -0.00177
#
# Static dielectric constant tensor:
#      x y z
#    x 1.847980 0.000000 0.008100 
#    y 0.000000 1.846080 0.000000 
#    z 0.008100 0.000000 1.829250 
# 
# From -- ./inp_files/100028.got.cif
#   From: 2010.05.17/outbox.cif.g08.bks.cpg/sg15_51_cif.got.tgz:100028.got - 2010.06.03 18:47:42.
