data_PCOD9299076
_publ_section_title
;
Structure prediction by ZEFSAII (Michael W. Deem and Ramdas Pophale) SiO2 
 PCOD9299076
Probable space group: C 2/C
;
_chemical_formula_sum "Si O2"
_cell_formula_units_Z 40
_cell_length_a 14.399784
_cell_length_b 14.003068
_cell_length_c 8.094888
_cell_angle_alpha 90.000000
_cell_angle_beta 102.054302
_cell_angle_gamma 90.000000
_cell_volume 1596.271358
_symmetry_space_group_name_H-M "C 2/C"
_symmetry_group_IT_number 15
_symmetry_cell_setting 'monoclinic'
loop_
_space_group_symop_operation_xyz
x,y,z
-x,y,1/2-z
-x,-y,-z
x,-y,1/2+z
1/2+x,1/2+y,z
1/2-x,1/2+y,1/2-z
1/2-x,1/2-y,-z
1/2+x,1/2-y,1/2+z
loop_
_atom_site_type_symbol
_atom_site_label
_atom_site_fract_x
_atom_site_fract_y
_atom_site_fract_z
Si Si1 0.699332 0.709562 0.316784
Si Si2 0.000000 0.684209 0.750000
Si Si3 0.317902 0.363316 0.232359
Si Si4 0.500000 0.717698 0.750000
Si Si5 0.252416 0.515259 0.014579
Si Si6 0.057870 0.398529 0.933375
O O1 0.750000 0.750000 0.500000
O O2 0.592363 0.747863 0.282186
O O3 0.734010 0.569665 0.652389
O O4 0.754615 0.768807 0.198256
O O5 0.003582 0.618000 0.586535
O O6 0.424691 0.340410 0.327902
O O7 0.323386 0.427010 0.070816
O O8 0.566958 0.787112 0.882042
O O9 0.276807 0.598057 0.158078
O O10 0.000000 0.567082 0.250000
O O11 0.150316 0.463286 0.990046
#
# Coordination Sequence:
#
# PCOD9299076 Si02
#       6
#     8   4   8   4   8   8
#     4  10  24  46  77 114 164 212 269 339 418 485
#     4  12  22  51  87 116 168 220 262 354 420 484
#     4  11  25  48  72 114 161 206 270 339 402 492
#     4  10  26  49  75 112 164 210 272 338 402 494
#     4  11  25  47  78 114 162 213 268 342 413 493
#     4  10  25  48  82 121 158 216 283 332 415 499
#
# _framework density 25.058395999999998
#
# number of rings (size 3 to 8) (size 9 to 14) (size 15 to 20)
#    0.600    0.800    2.000    2.400    2.800    5.600 
#    7.200   11.000    0.000    0.000    0.000    0.000 
#    0.000    0.000    0.000    0.000    0.000    0.000 
#
# Total GULP energy -111645.495695 kJ/mol
# GULP energy per Si atom -5582.274785 kJ/mol
# Density = 2.500136 g / cm^3
# Si number density = 25.058396 Si / 1000 Ang^3
#
#
#
# Elastic Constant Matrix: (Units=GPa)
#
#
# Indices 1 2 3 4 5 6 
#
# 1 204.6868 95.9855 40.3989 0.0000 10.2732 0.0000
# 2 95.9855 126.5805 45.6269 0.0000 11.0643 0.0000
# 3 40.3989 45.6269 123.3600 0.0000 -0.3528 0.0000
# 4 0.0000 0.0000 0.0000 25.7210 0.0000 -9.0002
# 5 10.2732 11.0643 -0.3528 0.0000 31.8032 0.0000
# 6 0.0000 0.0000 0.0000 -9.0002 0.0000 44.9086
#
#
#
# Elastic Compliance Matrix: (Units=1/GPa)
#
#
# Indices 1 2 3 4 5 6 
#
# 1 0.007608 -0.005567 -0.000434 0.000000 -0.000526 0.000000
# 2 -0.005567 0.013528 -0.003189 0.000000 -0.002944 0.000000
# 3 -0.000434 -0.003189 0.009432 0.000000 0.001354 0.000000
# 4 0.000000 0.000000 0.000000 0.041811 0.000000 0.008379
# 5 -0.000526 -0.002944 0.001354 0.000000 0.032652 0.000000
# 6 0.000000 0.000000 0.000000 0.008379 0.000000 0.023947
#
#
# Mechanical properties :
#
#
# Convention : Reuss Voigt Hill
#
# Bulk Modulus (GPa) = 82.04502 90.96110 86.50306
# Shear Modulus (GPa) = 33.02063 38.66094 35.84079
#
# Velocity S-wave (km/s) = 3.63402 3.93215 3.78602
# Velocity P-wave (km/s) = 7.10075 7.54945 7.32854
#
# Compressibility (1/GPa) = 0.01218843
#
# Stress axis : x y z
#
# Youngs Moduli (GPa) = 131.44025 73.92000 106.02311
#
# Poissons Ratio (x) = 0.41149 0.04602
# Poissons Ratio (y) = 0.73169 0.33811
# Poissons Ratio (z) = 0.05706 0.23573
#
# Static dielectric constant tensor:
#      x y z
#    x 1.978030 0.000000 -0.020800 
#    y 0.000000 2.119200 0.000000 
#    z -0.020800 0.000000 1.937280 
# 
# From -- ./inp_files/38010.got.cif
#   From: 2010.05.17/outbox.cif.g08.bks.cpg/sg15_20_cif.got.tgz:38010.got - 2010.06.03 18:47:42.
