data_PCOD9299351
_publ_section_title
;
Structure prediction by ZEFSAII (Michael W. Deem and Ramdas Pophale) SiO2 
 PCOD9299351
Probable space group: C 2/C
;
_chemical_formula_sum "Si O2"
_cell_formula_units_Z 40
_cell_length_a 10.855759
_cell_length_b 22.065529
_cell_length_c 11.523249
_cell_angle_alpha 90.000000
_cell_angle_beta 43.697288
_cell_angle_gamma 90.000000
_cell_volume 1906.918392
_symmetry_space_group_name_H-M "C 2/C"
_symmetry_group_IT_number 15
_symmetry_cell_setting 'monoclinic'
loop_
_space_group_symop_operation_xyz
x,y,z
-x,y,1/2-z
-x,-y,-z
x,-y,1/2+z
1/2+x,1/2+y,z
1/2-x,1/2+y,1/2-z
1/2-x,1/2-y,-z
1/2+x,1/2-y,1/2+z
loop_
_atom_site_type_symbol
_atom_site_label
_atom_site_fract_x
_atom_site_fract_y
_atom_site_fract_z
Si Si1 0.027316 0.695695 0.594445
Si Si2 0.500000 0.485923 0.250000
Si Si3 0.679810 0.603454 0.187443
Si Si4 0.000000 0.674855 0.250000
Si Si5 0.867905 0.221481 0.669514
Si Si6 0.853355 0.884550 0.513524
O O1 0.149754 0.638658 0.476975
O O2 0.114983 0.754381 0.473959
O O3 0.000000 0.699427 0.750000
O O4 0.827846 0.695290 0.677886
O O5 0.660849 0.532382 0.169408
O O6 0.439269 0.443075 0.395948
O O7 0.500000 0.630393 0.250000
O O8 0.667668 0.608421 0.333943
O O9 0.091375 0.719746 0.280324
O O10 0.159922 0.633115 0.095228
O O11 0.014582 0.171541 0.596053
#
# Coordination Sequence:
#
# PCOD9299351 Si02
#       6
#     8   4   8   4   8   8
#     4  12  24  44  72 108 148 184 228 287 358 428
#     4  10  27  46  76  98 140 191 242 296 338 410
#     4  10  24  49  71 101 139 187 243 289 343 417
#     4  12  25  44  66 106 148 179 232 282 360 428
#     4  12  25  41  72 107 146 185 225 289 358 428
#     4  12  24  47  71 103 143 184 236 297 351 413
#
# _framework density 20.976251000000001
#
# number of rings (size 3 to 8) (size 9 to 14) (size 15 to 20)
#    0.600    0.000    4.000    3.600    2.800    1.600 
#    1.800    2.000    0.000    0.000    0.000    0.000 
#    0.000    0.000    0.000    0.000    0.000    0.000 
#
# Total GULP energy -111831.524344 kJ/mol
# GULP energy per Si atom -5591.576217 kJ/mol
# Density = 2.092851 g / cm^3
# Si number density = 20.976251 Si / 1000 Ang^3
#
#
#
# Elastic Constant Matrix: (Units=GPa)
#
#
# Indices 1 2 3 4 5 6 
#
# 1 96.2928 36.5446 63.4287 0.0000 -9.3215 0.0000
# 2 36.5446 132.2616 65.6496 0.0000 -15.4903 0.0000
# 3 63.4287 65.6496 145.1897 0.0000 -11.8122 0.0000
# 4 0.0000 0.0000 0.0000 19.1868 0.0000 6.8419
# 5 -9.3215 -15.4903 -11.8122 0.0000 55.0805 0.0000
# 6 0.0000 0.0000 0.0000 6.8419 0.0000 22.5434
#
#
#
# Elastic Compliance Matrix: (Units=1/GPa)
#
#
# Indices 1 2 3 4 5 6 
#
# 1 0.014757 -0.001038 -0.005901 0.000000 0.000940 0.000000
# 2 -0.001038 0.010006 -0.003925 0.000000 0.001797 0.000000
# 3 -0.005901 -0.003925 0.011266 0.000000 0.000314 0.000000
# 4 0.000000 0.000000 0.000000 0.058444 0.000000 -0.017738
# 5 0.000940 0.001797 0.000314 0.000000 0.018887 0.000000
# 6 0.000000 0.000000 0.000000 -0.017738 0.000000 0.049742
#
#
# Mechanical properties :
#
#
# Convention : Reuss Voigt Hill
#
# Bulk Modulus (GPa) = 69.92556 78.33220 74.12888
# Shear Modulus (GPa) = 26.37178 33.23689 29.80434
#
# Velocity S-wave (km/s) = 3.54958 3.98490 3.77352
# Velocity P-wave (km/s) = 7.08571 7.65486 7.37578
#
# Compressibility (1/GPa) = 0.01430092
#
# Stress axis : x y z
#
# Youngs Moduli (GPa) = 67.76444 99.93878 88.76646
#
# Poissons Ratio (x) = 0.10378 0.52380
# Poissons Ratio (y) = 0.07037 0.34837
# Poissons Ratio (z) = 0.39987 0.39222
#
# Static dielectric constant tensor:
#      x y z
#    x 1.814210 0.000000 0.018960 
#    y 0.000000 1.728500 0.000000 
#    z 0.018960 0.000000 1.764510 
# 
# From -- ./inp_files/89339.got.cif
#   From: 2010.05.17/outbox.cif.g08.bks.cpg/sg15_45_cif.got.tgz:89339.got - 2010.06.03 18:47:42.
