data_PCOD9299270
_publ_section_title
;
Structure prediction by ZEFSAII (Michael W. Deem and Ramdas Pophale) SiO2 
 PCOD9299270
Probable space group: C 2/C
;
_chemical_formula_sum "Si O2"
_cell_formula_units_Z 28
_cell_length_a 12.280759
_cell_length_b 17.141836
_cell_length_c 6.942647
_cell_angle_alpha 90.000000
_cell_angle_beta 41.338786
_cell_angle_gamma 90.000000
_cell_volume 965.355062
_symmetry_space_group_name_H-M "C 2/C"
_symmetry_group_IT_number 15
_symmetry_cell_setting 'monoclinic'
loop_
_space_group_symop_operation_xyz
x,y,z
-x,y,1/2-z
-x,-y,-z
x,-y,1/2+z
1/2+x,1/2+y,z
1/2-x,1/2+y,1/2-z
1/2-x,1/2-y,-z
1/2+x,1/2-y,1/2+z
loop_
_atom_site_type_symbol
_atom_site_label
_atom_site_fract_x
_atom_site_fract_y
_atom_site_fract_z
Si Si1 0.137304 0.695024 0.780665
Si Si2 0.588302 0.670659 0.833202
Si Si3 0.127742 0.516712 0.703939
Si Si4 0.000000 0.963454 0.750000
O O1 0.250000 0.750000 0.500000
O O2 0.217734 0.677547 0.883813
O O3 0.025752 0.744581 0.487024
O O4 0.133297 0.610588 0.694577
O O5 0.500000 0.662531 0.750000
O O6 0.523807 0.598420 0.045208
O O7 0.085434 0.502410 0.012253
O O8 0.323900 0.492949 0.455495
#
# Coordination Sequence:
#
# PCOD9299270 Si02
#       4
#     8   8   8   4
#     4  11  20  41  70 102 148 189 239 314 381 429
#     4  11  21  37  68 110 137 188 243 314 375 435
#     4  11  25  46  72 103 148 203 246 300 386 456
#     4  10  24  48  72 102 152 190 248 320 376 434
#
# _framework density 29.004874000000001
#
# number of rings (size 3 to 8) (size 9 to 14) (size 15 to 20)
#    0.000    1.143    5.714    2.571    0.000    2.286 
#   10.286    0.000    0.000    0.000    0.000    0.000 
#    0.000    0.000    0.000    0.000    0.000    0.000 
#
# Total GULP energy -78273.992356 kJ/mol
# GULP energy per Si atom -5590.999454 kJ/mol
# Density = 2.893886 g / cm^3
# Si number density = 29.004874 Si / 1000 Ang^3
#
#
#
# Elastic Constant Matrix: (Units=GPa)
#
#
# Indices 1 2 3 4 5 6 
#
# 1 299.1545 30.1697 83.5970 0.0000 42.0587 0.0000
# 2 30.1697 140.2525 55.2163 0.0000 -3.7803 0.0000
# 3 83.5970 55.2163 177.1357 0.0000 19.1033 0.0000
# 4 0.0000 0.0000 0.0000 42.1344 0.0000 15.9747
# 5 42.0587 -3.7803 19.1033 0.0000 83.2451 0.0000
# 6 0.0000 0.0000 0.0000 15.9747 0.0000 -79.1392
#
#
#
# Elastic Compliance Matrix: (Units=1/GPa)
#
#
# Indices 1 2 3 4 5 6 
#
# 1 0.004070 -0.000270 -0.001654 0.000000 -0.001689 0.000000
# 2 -0.000270 0.008223 -0.002554 0.000000 0.001096 0.000000
# 3 -0.001654 -0.002554 0.007326 0.000000 -0.000961 0.000000
# 4 0.000000 0.000000 0.000000 0.022046 0.000000 0.004450
# 5 -0.001689 0.001096 -0.000961 0.000000 0.013136 0.000000
# 6 0.000000 0.000000 0.000000 0.004450 0.000000 -0.011738
#
#
# Mechanical properties :
#
#
# Convention : Reuss Voigt Hill
#
# Bulk Modulus (GPa) = 93.78876 106.05655 99.92265
# Shear Modulus (GPa) = 89.96921 39.08537 64.52729
#
# Velocity S-wave (km/s) = 5.57548 3.67487 4.72179
# Velocity P-wave (km/s) = 8.59382 7.39261 8.01575
#
# Compressibility (1/GPa) = 0.01066226
#
# Stress axis : x y z
#
# Youngs Moduli (GPa) = 245.71819 121.60852 136.49875
#
# Poissons Ratio (x) = 0.03278 0.22584
# Poissons Ratio (y) = 0.06624 0.34865
# Poissons Ratio (z) = 0.40654 0.31062
#
# Static dielectric constant tensor:
#      x y z
#    x 2.335010 0.000000 0.198470 
#    y 0.000000 2.052260 0.000000 
#    z 0.198470 0.000000 2.678230 
# 
# From -- ./inp_files/6295.got.cif
#   From: 2010.05.17/outbox.cif.g08.bks.cpg/sg15_4_cif.got.tgz:6295.got - 2010.06.03 18:47:42.
