data_PCOD9299044
_publ_section_title
;
Structure prediction by ZEFSAII (Michael W. Deem and Ramdas Pophale) SiO2 
 PCOD9299044
Probable space group: C 2/C
;
_chemical_formula_sum "Si O2"
_cell_formula_units_Z 60
_cell_length_a 17.176313
_cell_length_b 5.419328
_cell_length_c 24.801051
_cell_angle_alpha 90.000000
_cell_angle_beta 82.853422
_cell_angle_gamma 90.000000
_cell_volume 2290.647785
_symmetry_space_group_name_H-M "C 2/C"
_symmetry_group_IT_number 15
_symmetry_cell_setting 'monoclinic'
loop_
_space_group_symop_operation_xyz
x,y,z
-x,y,1/2-z
-x,-y,-z
x,-y,1/2+z
1/2+x,1/2+y,z
1/2-x,1/2+y,1/2-z
1/2-x,1/2-y,-z
1/2+x,1/2-y,1/2+z
loop_
_atom_site_type_symbol
_atom_site_label
_atom_site_fract_x
_atom_site_fract_y
_atom_site_fract_z
Si Si1 0.212899 0.183298 0.315253
Si Si2 0.204296 0.920172 0.096920
Si Si3 0.907314 0.571031 0.454631
Si Si4 0.350003 0.189402 0.214865
Si Si5 0.557140 0.617262 0.451239
Si Si6 0.000000 0.969324 0.250000
Si Si7 0.675588 0.759163 0.968750
Si Si8 0.948742 0.770405 0.863954
O O1 0.270612 0.228949 0.359813
O O2 0.274499 0.177630 0.260586
O O3 0.152877 0.416045 0.311739
O O4 0.170141 0.921579 0.321339
O O5 0.287423 0.045973 0.075718
O O6 0.138916 0.111559 0.124533
O O7 0.161462 0.762377 0.053648
O O8 0.929994 0.635136 0.515721
O O9 0.882285 0.302539 0.475420
O O10 0.947477 0.506565 0.393007
O O11 0.428197 0.286639 0.238672
O O12 0.500000 0.500000 0.500000
O O13 0.637762 0.469363 0.442274
O O14 0.512270 0.608336 0.399048
O O15 0.024747 0.151297 0.198368
O O16 0.750000 0.750000 0.000000
#
# Coordination Sequence:
#
# PCOD9299044 Si02
#       8
#     8   8   8   8   8   4   8   8
#     4  10  24  46  75 107 145 205 252 326 391 467
#     4  12  25  44  73 110 147 201 247 325 390 474
#     4  12  24  44  77 102 151 197 248 319 393 471
#     4  10  24  48  75 104 149 197 267 320 385 463
#     4  12  24  46  71 110 152 193 248 311 402 465
#     4  12  28  52  74 112 150 210 262 328 394 480
#     4  12  24  42  70 110 148 183 254 312 386 476
#     4  12  27  48  72 107 153 202 255 324 391 480
#
# _framework density 26.193463999999999
#
# number of rings (size 3 to 8) (size 9 to 14) (size 15 to 20)
#    0.000    0.533    6.667    0.800    3.733    2.667 
#    2.400    0.000    0.000    0.000    0.000    0.000 
#    0.000    0.000    0.000    0.000    0.000    0.000 
#
# Total GULP energy -167027.856828 kJ/mol
# GULP energy per Si atom -5567.595228 kJ/mol
# Density = 2.613385 g / cm^3
# Si number density = 26.193464 Si / 1000 Ang^3
#
#
#
# Elastic Constant Matrix: (Units=GPa)
#
#
# Indices 1 2 3 4 5 6 
#
# 1 94.9771 32.2323 25.4251 0.0000 -0.1279 0.0000
# 2 32.2323 67.4876 8.9166 0.0000 -15.1332 0.0000
# 3 25.4251 8.9166 124.6869 0.0000 -7.3717 0.0000
# 4 0.0000 0.0000 0.0000 22.1120 0.0000 1.9219
# 5 -0.1279 -15.1332 -7.3717 0.0000 36.2284 0.0000
# 6 0.0000 0.0000 0.0000 1.9219 0.0000 29.6391
#
#
#
# Elastic Compliance Matrix: (Units=1/GPa)
#
#
# Indices 1 2 3 4 5 6 
#
# 1 0.013517 -0.006876 -0.002461 0.000000 -0.003325 0.000000
# 2 -0.006876 0.019921 0.000474 0.000000 0.008394 0.000000
# 3 -0.002461 0.000474 0.008603 0.000000 0.001940 0.000000
# 4 0.000000 0.000000 0.000000 0.045481 0.000000 -0.002949
# 5 -0.003325 0.008394 0.001940 0.000000 0.031492 0.000000
# 6 0.000000 0.000000 0.000000 -0.002949 0.000000 0.033930
#
#
# Mechanical properties :
#
#
# Convention : Reuss Voigt Hill
#
# Bulk Modulus (GPa) = 41.12911 46.69994 43.91452
# Shear Modulus (GPa) = 27.96814 32.30109 30.13461
#
# Velocity S-wave (km/s) = 3.27119 3.51547 3.39553
# Velocity P-wave (km/s) = 5.47757 5.86051 5.67227
#
# Compressibility (1/GPa) = 0.02431368
#
# Stress axis : x y z
#
# Youngs Moduli (GPa) = 73.98225 50.19787 116.24216
#
# Poissons Ratio (x) = 0.34517 0.28608
# Poissons Ratio (y) = 0.50871 -0.05507
# Poissons Ratio (z) = 0.18208 -0.02378
#
# Static dielectric constant tensor:
#      x y z
#    x 1.801200 0.000000 0.304440 
#    y 0.000000 5.106490 0.000000 
#    z 0.304440 0.000000 0.953830 
# 
# From -- ./inp_files/297766.got.cif
#   From: 2010.05.17/outbox.cif.g08.bks.cpg/sg15_149_cif.got.tgz:297766.got - 2010.06.03 18:47:42.
