data_PCOD9299488
_publ_section_title
;
Structure prediction by ZEFSAII (Michael W. Deem and Ramdas Pophale) SiO2 
 PCOD9299488
Probable space group: C 2/C
;
_chemical_formula_sum "Si O2"
_cell_formula_units_Z 48
_cell_length_a 7.869521
_cell_length_b 22.315720
_cell_length_c 24.331541
_cell_angle_alpha 90.000000
_cell_angle_beta 147.402689
_cell_angle_gamma 90.000000
_cell_volume 2301.977014
_symmetry_space_group_name_H-M "C 2/C"
_symmetry_group_IT_number 15
_symmetry_cell_setting 'monoclinic'
loop_
_space_group_symop_operation_xyz
x,y,z
-x,y,1/2-z
-x,-y,-z
x,-y,1/2+z
1/2+x,1/2+y,z
1/2-x,1/2+y,1/2-z
1/2-x,1/2-y,-z
1/2+x,1/2-y,1/2+z
loop_
_atom_site_type_symbol
_atom_site_label
_atom_site_fract_x
_atom_site_fract_y
_atom_site_fract_z
Si Si1 0.333156 0.279795 0.764521
Si Si2 0.638907 0.083552 0.636441
Si Si3 0.807594 0.552620 0.371595
Si Si4 0.398270 0.842975 0.160224
Si Si5 0.856648 0.124412 0.070172
Si Si6 0.756954 0.853922 0.931916
O O1 0.500000 0.282523 0.750000
O O2 0.379325 0.212119 0.797721
O O3 0.512456 0.322179 0.856624
O O4 0.984955 0.304485 0.657659
O O5 0.458402 0.096649 0.643494
O O6 0.488357 0.129645 0.551774
O O7 0.000000 0.092137 0.750000
O O8 0.585887 0.015994 0.602245
O O9 0.500000 0.558595 0.250000
O O10 0.689636 0.570608 0.399761
O O11 0.064247 0.598371 0.416318
O O12 0.500000 0.852771 0.250000
O O13 0.037438 0.827194 0.046301
O O14 0.087666 0.117134 0.080801
#
# Coordination Sequence:
#
# PCOD9299488 Si02
#       6
#     8   8   8   8   8   8
#     4  11  22  42  68  98 131 173 226 273 330 391
#     4  10  25  42  62  96 135 176 213 274 336 387
#     4  11  22  44  66  98 133 169 225 269 325 396
#     4  10  26  43  63 101 131 176 222 265 344 391
#     4  11  22  40  68  98 123 171 224 263 328 386
#     4  11  23  42  70  97 128 175 220 272 324 395
#
# _framework density 20.851642999999999
#
# number of rings (size 3 to 8) (size 9 to 14) (size 15 to 20)
#    0.000    1.333    3.333    1.000    2.333   10.667 
#    6.000    0.000    0.000    0.000    0.000    0.000 
#    0.000    0.000    0.000    0.000    0.000    0.000 
#
# Total GULP energy -133846.407814 kJ/mol
# GULP energy per Si atom -5576.933659 kJ/mol
# Density = 2.080418 g / cm^3
# Si number density = 20.851643 Si / 1000 Ang^3
#
#
#
# Elastic Constant Matrix: (Units=GPa)
#
#
# Indices 1 2 3 4 5 6 
#
# 1 89.6367 40.8714 44.9643 0.0029 -9.7838 0.0037
# 2 40.8714 40.3581 18.6831 0.0016 -1.0714 0.0083
# 3 44.9643 18.6831 124.0264 0.0116 -21.0068 0.0073
# 4 0.0029 0.0016 0.0116 9.7439 0.0027 6.5074
# 5 -9.7838 -1.0714 -21.0068 0.0027 35.3423 0.0042
# 6 0.0037 0.0083 0.0073 6.5074 0.0042 9.2295
#
#
#
# Elastic Compliance Matrix: (Units=1/GPa)
#
#
# Indices 1 2 3 4 5 6 
#
# 1 0.023898 -0.021876 -0.004849 -0.000013 0.003071 0.000022
# 2 -0.021876 0.046759 0.000113 0.000040 -0.004571 -0.000059
# 3 -0.004849 0.000113 0.010649 -0.000013 0.004991 0.000000
# 4 -0.000013 0.000040 -0.000013 0.193963 -0.000009 -0.136758
# 5 0.003071 -0.004571 0.004991 -0.000009 0.031973 -0.000010
# 6 0.000022 -0.000059 0.000000 -0.136758 -0.000010 0.204773
#
#
# Mechanical properties :
#
#
# Convention : Reuss Voigt Hill
#
# Bulk Modulus (GPa) = 35.60923 51.45096 43.53010
# Shear Modulus (GPa) = 8.70174 20.82996 14.76585
#
# Velocity S-wave (km/s) = 2.04505 3.16406 2.66397
# Velocity P-wave (km/s) = 4.76349 6.17063 5.51215
#
# Compressibility (1/GPa) = 0.02808261
#
# Stress axis : x y z
#
# Youngs Moduli (GPa) = 41.84408 21.38634 93.90686
#
# Poissons Ratio (x) = 0.46785 0.45531
# Poissons Ratio (y) = 0.91539 -0.01061
# Poissons Ratio (z) = 0.20288 -0.00242
#
# Static dielectric constant tensor:
#      x y z
#    x 1.796210 0.000000 0.015440 
#    y 0.000000 1.754090 0.000000 
#    z 0.015440 0.000000 1.799720 
# 
# From -- ./inp_files/290147.got.cif
#   From: 2010.05.17/outbox.cif.g08.bks.cpg/sg15_146_cif.got.tgz:290147.got - 2010.06.03 18:47:42.
