data_PCOD9299371
_publ_section_title
;
Structure prediction by ZEFSAII (Michael W. Deem and Ramdas Pophale) SiO2 
 PCOD9299371
Probable space group: C 2/C
;
_chemical_formula_sum "Si O2"
_cell_formula_units_Z 40
_cell_length_a 13.500313
_cell_length_b 13.668349
_cell_length_c 12.845146
_cell_angle_alpha 90.000000
_cell_angle_beta 144.116448
_cell_angle_gamma 90.000000
_cell_volume 1389.313155
_symmetry_space_group_name_H-M "C 2/C"
_symmetry_group_IT_number 15
_symmetry_cell_setting 'monoclinic'
loop_
_space_group_symop_operation_xyz
x,y,z
-x,y,1/2-z
-x,-y,-z
x,-y,1/2+z
1/2+x,1/2+y,z
1/2-x,1/2+y,1/2-z
1/2-x,1/2-y,-z
1/2+x,1/2-y,1/2+z
loop_
_atom_site_type_symbol
_atom_site_label
_atom_site_fract_x
_atom_site_fract_y
_atom_site_fract_z
Si Si1 0.362093 0.211271 0.711123
Si Si2 0.403529 0.858077 0.911855
Si Si3 0.639405 0.457258 0.933953
Si Si4 0.630014 0.485952 0.181358
Si Si5 0.213271 0.650820 0.530415
O O1 0.500000 0.257386 0.750000
O O2 0.245447 0.281255 0.683084
O O3 0.254342 0.137643 0.549359
O O4 0.472433 0.149225 0.885120
O O5 0.415219 0.528196 0.983935
O O6 0.309279 0.959907 0.820272
O O7 0.584148 0.456930 0.757725
O O8 0.748795 0.558948 0.013088
O O9 0.525214 0.841181 0.917009
O O10 0.661444 0.379235 0.264567
O O11 0.250000 0.750000 0.500000
#
# Coordination Sequence:
#
# PCOD9299371 Si02
#       5
#     8   8   8   8   8
#     4  12  26  48  80 119 158 208 274 348 415 497
#     4  12  28  51  81 119 160 214 275 341 422 509
#     4  10  24  49  77 110 156 211 267 337 415 494
#     4  11  25  52  81 112 157 215 275 339 413 505
#     4  11  27  52  80 120 168 218 274 343 423 511
#
# _framework density 28.791207
#
# number of rings (size 3 to 8) (size 9 to 14) (size 15 to 20)
#    0.000    0.800    0.000    6.000    0.000   12.800 
#    0.000   14.000    0.000    0.000    0.000    0.000 
#    0.000    0.000    0.000    0.000    0.000    0.000 
#
# Total GULP energy -111955.024398 kJ/mol
# GULP energy per Si atom -5597.751220 kJ/mol
# Density = 2.872568 g / cm^3
# Si number density = 28.791207 Si / 1000 Ang^3
#
#
#
# Elastic Constant Matrix: (Units=GPa)
#
#
# Indices 1 2 3 4 5 6 
#
# 1 286.5074 91.6738 53.7375 0.0002 16.9344 0.0001
# 2 91.6738 207.1251 89.4574 0.0001 20.2148 0.0001
# 3 53.7375 89.4574 243.5418 0.0002 -14.1637 0.0002
# 4 0.0002 0.0001 0.0002 8.1306 0.0002 -30.9645
# 5 16.9344 20.2148 -14.1637 0.0002 63.6090 0.0002
# 6 0.0001 0.0001 0.0002 -30.9645 0.0002 43.2735
#
#
#
# Elastic Compliance Matrix: (Units=1/GPa)
#
#
# Indices 1 2 3 4 5 6 
#
# 1 0.004108 -0.001599 -0.000358 0.000000 -0.000665 0.000000
# 2 -0.001599 0.006721 -0.002244 0.000000 -0.002210 0.000000
# 3 -0.000358 -0.002244 0.005123 0.000000 0.001949 0.000000
# 4 0.000000 0.000000 0.000000 -0.071295 0.000000 -0.051015
# 5 -0.000665 -0.002210 0.001949 0.000000 0.017035 0.000000
# 6 0.000000 0.000000 0.000000 -0.051015 0.000000 -0.013395
#
#
# Mechanical properties :
#
#
# Convention : Reuss Voigt Hill
#
# Bulk Modulus (GPa) = 132.45772 134.10131 133.27952
# Shear Modulus (GPa) = -122.59279 56.48966 -33.05156
#
# Velocity S-wave (km/s) = -6.53241 4.43430 -3.39185
# Velocity P-wave (km/s) = 3.28486 8.53790 5.57249
#
# Compressibility (1/GPa) = 0.00754958
#
# Stress axis : x y z
#
# Youngs Moduli (GPa) = 243.40673 148.79463 195.20561
#
# Poissons Ratio (x) = 0.23790 0.06987
# Poissons Ratio (y) = 0.38917 0.43811
# Poissons Ratio (z) = 0.08712 0.33395
#
# Static dielectric constant tensor:
#      x y z
#    x 2.228160 0.000000 -0.011640 
#    y 0.000000 2.155800 0.000000 
#    z -0.011640 0.000000 2.211230 
# 
# From -- ./inp_files/215127.got.cif
#   From: 2010.05.17/outbox.cif.g08.bks.cpg/sg15_108_cif.got.tgz:215127.got - 2010.06.03 18:47:42.
