data_PCOD9299216
_publ_section_title
;
Structure prediction by ZEFSAII (Michael W. Deem and Ramdas Pophale) SiO2 
 PCOD9299216
Probable space group: C 2/C
;
_chemical_formula_sum "Si O2"
_cell_formula_units_Z 32
_cell_length_a 7.244648
_cell_length_b 19.183268
_cell_length_c 13.532170
_cell_angle_alpha 90.000000
_cell_angle_beta 135.511741
_cell_angle_gamma 90.000000
_cell_volume 1317.888134
_symmetry_space_group_name_H-M "C 2/C"
_symmetry_group_IT_number 15
_symmetry_cell_setting 'monoclinic'
loop_
_space_group_symop_operation_xyz
x,y,z
-x,y,1/2-z
-x,-y,-z
x,-y,1/2+z
1/2+x,1/2+y,z
1/2-x,1/2+y,1/2-z
1/2-x,1/2-y,-z
1/2+x,1/2-y,1/2+z
loop_
_atom_site_type_symbol
_atom_site_label
_atom_site_fract_x
_atom_site_fract_y
_atom_site_fract_z
Si Si1 0.765044 0.181271 0.241680
Si Si2 0.737708 0.552342 0.109130
Si Si3 0.707186 0.936365 0.093185
Si Si4 0.500047 0.207062 0.549531
O O1 0.785109 0.111977 0.315949
O O2 0.000000 0.173274 0.250000
O O3 0.779862 0.244601 0.322435
O O4 0.536255 0.203906 0.080395
O O5 0.000000 0.513632 0.250000
O O6 0.500000 0.500000 0.000000
O O7 0.759886 0.585229 0.008973
O O8 0.564009 0.873852 0.098602
O O9 0.000000 0.952445 0.250000
O O10 0.500000 0.000000 0.000000
O O11 0.250000 0.250000 0.500000
#
# Coordination Sequence:
#
# PCOD9299216 Si02
#       4
#     8   8   8   8
#     4  10  24  48  75 111 156 205 269 334 406 488
#     4  12  27  48  77 114 161 213 268 340 412 485
#     4  12  29  50  81 120 165 217 282 342 416 501
#     4  10  24  47  79 110 158 211 266 336 408 487
#
# _framework density 24.281274
#
# number of rings (size 3 to 8) (size 9 to 14) (size 15 to 20)
#    0.000    1.000    2.500    1.500   10.500    2.000 
#    0.000    0.000    0.000    0.000    0.000    0.000 
#    0.000    0.000    0.000    0.000    0.000    0.000 
#
# Total GULP energy -89131.175355 kJ/mol
# GULP energy per Si atom -5570.698460 kJ/mol
# Density = 2.422601 g / cm^3
# Si number density = 24.281274 Si / 1000 Ang^3
#
#
#
# Elastic Constant Matrix: (Units=GPa)
#
#
# Indices 1 2 3 4 5 6 
#
# 1 115.9408 72.0651 66.4125 0.0000 -6.3800 0.0000
# 2 72.0651 204.7365 105.1290 0.0000 9.1877 0.0000
# 3 66.4125 105.1290 257.0012 0.0000 -4.8346 0.0000
# 4 0.0000 0.0000 0.0000 42.4480 0.0000 -12.1039
# 5 -6.3800 9.1877 -4.8346 0.0000 49.7565 0.0000
# 6 0.0000 0.0000 0.0000 -12.1039 0.0000 32.1848
#
#
#
# Elastic Compliance Matrix: (Units=1/GPa)
#
#
# Indices 1 2 3 4 5 6 
#
# 1 0.011774 -0.003406 -0.001612 0.000000 0.001982 0.000000
# 2 -0.003406 0.007266 -0.002129 0.000000 -0.001985 0.000000
# 3 -0.001612 -0.002129 0.005192 0.000000 0.000691 0.000000
# 4 0.000000 0.000000 0.000000 0.026388 0.000000 0.009924
# 5 0.001982 -0.001985 0.000691 0.000000 0.020786 0.000000
# 6 0.000000 0.000000 0.000000 0.009924 0.000000 0.034803
#
#
# Mechanical properties :
#
#
# Convention : Reuss Voigt Hill
#
# Bulk Modulus (GPa) = 100.63099 118.32128 109.47614
# Shear Modulus (GPa) = 40.38287 47.14934 43.76610
#
# Velocity S-wave (km/s) = 4.08257 4.41136 4.25015
# Velocity P-wave (km/s) = 7.98480 8.64766 8.32283
#
# Compressibility (1/GPa) = 0.00993730
#
# Stress axis : x y z
#
# Youngs Moduli (GPa) = 84.92938 137.63665 192.61488
#
# Poissons Ratio (x) = 0.46873 0.31056
# Poissons Ratio (y) = 0.28923 0.41014
# Poissons Ratio (z) = 0.13693 0.29308
#
# Static dielectric constant tensor:
#      x y z
#    x 2.070060 0.000000 0.134210 
#    y 0.000000 1.996060 0.000000 
#    z 0.134210 0.000000 1.993190 
# 
# From -- ./inp_files/136353.got.cif
#   From: 2010.05.17/outbox.cif.g08.bks.cpg/sg15_69_cif.got.tgz:136353.got - 2010.06.03 18:47:42.
