data_PCOD9299667
_publ_section_title
;
Structure prediction by ZEFSAII (Michael W. Deem and Ramdas Pophale) SiO2 
 PCOD9299667
Probable space group: C 2/C
;
_chemical_formula_sum "Si O2"
_cell_formula_units_Z 48
_cell_length_a 23.801498
_cell_length_b 9.294974
_cell_length_c 9.812375
_cell_angle_alpha 90.000000
_cell_angle_beta 64.499574
_cell_angle_gamma 90.000000
_cell_volume 1959.355842
_symmetry_space_group_name_H-M "C 2/C"
_symmetry_group_IT_number 15
_symmetry_cell_setting 'monoclinic'
loop_
_space_group_symop_operation_xyz
x,y,z
-x,y,1/2-z
-x,-y,-z
x,-y,1/2+z
1/2+x,1/2+y,z
1/2-x,1/2+y,1/2-z
1/2-x,1/2-y,-z
1/2+x,1/2-y,1/2+z
loop_
_atom_site_type_symbol
_atom_site_label
_atom_site_fract_x
_atom_site_fract_y
_atom_site_fract_z
Si Si1 0.709973 0.892915 0.548452
Si Si2 0.593829 0.922512 0.807488
Si Si3 0.383904 0.738259 0.210089
Si Si4 0.112106 0.174217 0.976879
Si Si5 0.720737 0.462276 0.762588
Si Si6 0.499039 0.689928 0.905461
O O1 0.750000 0.750000 0.500000
O O2 0.636667 0.865411 0.636992
O O3 0.738911 0.995954 0.408137
O O4 0.730150 0.958884 0.669525
O O5 0.602613 0.908112 0.296876
O O6 0.617954 0.839119 0.917630
O O7 0.524968 0.855797 0.865840
O O8 0.391878 0.673872 0.355260
O O9 0.316700 0.685301 0.227253
O O10 0.433650 0.684349 0.047950
O O11 0.168627 0.079911 0.859126
O O12 0.050220 0.127639 0.958070
O O13 0.500000 0.630960 0.750000
#
# Coordination Sequence:
#
# PCOD9299667 Si02
#       6
#     8   8   8   8   8   8
#     4  12  27  48  75 104 155 191 245 308 363 449
#     4  10  27  42  75 104 148 191 252 293 376 424
#     4  12  26  45  76 107 152 189 250 310 363 448
#     4  10  25  49  67 111 145 192 247 294 378 439
#     4  12  28  47  75 111 145 201 244 302 382 434
#     4  10  25  44  77 107 147 196 244 301 374 432
#
# _framework density 24.497848000000001
#
# number of rings (size 3 to 8) (size 9 to 14) (size 15 to 20)
#    1.000    0.000    3.333    1.000   11.667    1.333 
#    0.000    0.000    0.000    0.000    0.000    0.000 
#    0.000    0.000    0.000    0.000    0.000    0.000 
#
# Total GULP energy -134209.297177 kJ/mol
# GULP energy per Si atom -5592.054049 kJ/mol
# Density = 2.444209 g / cm^3
# Si number density = 24.497848 Si / 1000 Ang^3
#
#
#
# Elastic Constant Matrix: (Units=GPa)
#
#
# Indices 1 2 3 4 5 6 
#
# 1 64.3530 -4.3070 52.0017 0.0000 6.8397 0.0000
# 2 -4.3070 78.8394 11.4052 0.0000 6.4729 0.0000
# 3 52.0017 11.4052 174.0927 0.0000 -8.6380 0.0000
# 4 0.0000 0.0000 0.0000 17.8282 0.0000 -5.3087
# 5 6.8397 6.4729 -8.6380 0.0000 36.7056 0.0000
# 6 0.0000 0.0000 0.0000 -5.3087 0.0000 30.2685
#
#
#
# Elastic Compliance Matrix: (Units=1/GPa)
#
#
# Indices 1 2 3 4 5 6 
#
# 1 0.022130 0.002752 -0.007102 0.000000 -0.006280 0.000000
# 2 0.002752 0.013376 -0.001863 0.000000 -0.003310 0.000000
# 3 -0.007102 -0.001863 0.008165 0.000000 0.003573 0.000000
# 4 0.000000 0.000000 0.000000 0.059182 0.000000 0.010380
# 5 -0.006280 -0.003310 0.003573 0.000000 0.029839 0.000000
# 6 0.000000 0.000000 0.000000 0.010380 0.000000 0.034858
#
#
# Mechanical properties :
#
#
# Convention : Reuss Voigt Hill
#
# Bulk Modulus (GPa) = 32.00505 48.38720 40.19612
# Shear Modulus (GPa) = 26.26201 34.17280 30.21740
#
# Velocity S-wave (km/s) = 3.27771 3.73893 3.51589
# Velocity P-wave (km/s) = 5.23616 6.19951 5.73809
#
# Compressibility (1/GPa) = 0.03124507
#
# Stress axis : x y z
#
# Youngs Moduli (GPa) = 45.18749 74.76325 122.47686
#
# Poissons Ratio (x) = -0.20575 0.86985
# Poissons Ratio (y) = -0.12436 0.22812
# Poissons Ratio (z) = 0.32093 0.13925
#
# Static dielectric constant tensor:
#      x y z
#    x 1.934580 0.000000 -0.006210 
#    y 0.000000 1.989960 0.000000 
#    z -0.006210 0.000000 1.812570 
# 
# From -- ./inp_files/60842.got.cif
#   From: 2010.05.17/outbox.cif.g08.bks.cpg/sg15_31_cif.got.tgz:60842.got - 2010.06.03 18:47:42.
