data_PCOD9299333
_publ_section_title
;
Structure prediction by ZEFSAII (Michael W. Deem and Ramdas Pophale) SiO2 
 PCOD9299333
Probable space group: C 2/C
;
_chemical_formula_sum "Si O2"
_cell_formula_units_Z 40
_cell_length_a 11.595562
_cell_length_b 8.897650
_cell_length_c 21.229109
_cell_angle_alpha 90.000000
_cell_angle_beta 37.357152
_cell_angle_gamma 90.000000
_cell_volume 1329.019255
_symmetry_space_group_name_H-M "C 2/C"
_symmetry_group_IT_number 15
_symmetry_cell_setting 'monoclinic'
loop_
_space_group_symop_operation_xyz
x,y,z
-x,y,1/2-z
-x,-y,-z
x,-y,1/2+z
1/2+x,1/2+y,z
1/2-x,1/2+y,1/2-z
1/2-x,1/2-y,-z
1/2+x,1/2-y,1/2+z
loop_
_atom_site_type_symbol
_atom_site_label
_atom_site_fract_x
_atom_site_fract_y
_atom_site_fract_z
Si Si1 0.941812 0.885485 0.206638
Si Si2 0.414768 0.636481 0.076217
Si Si3 0.611791 0.323252 0.619557
Si Si4 0.588923 0.036212 0.792728
Si Si5 0.340514 0.103296 0.508105
O O1 0.937727 0.067175 0.215935
O O2 0.781786 0.567110 0.308843
O O3 0.000000 0.827953 0.250000
O O4 0.121682 0.856653 0.082949
O O5 0.572444 0.676903 0.061100
O O6 0.257683 0.856336 0.238348
O O7 0.385748 0.777005 0.042367
O O8 0.500000 0.500000 0.000000
O O9 0.571294 0.155613 0.660238
O O10 0.784942 0.436603 0.560995
O O11 0.483923 0.934116 0.890121
#
# Coordination Sequence:
#
# PCOD9299333 Si02
#       5
#     8   8   8   8   8
#     4   9  21  41  74 113 159 219 280 348 440 509
#     4  11  26  45  78 121 175 230 289 360 454 531
#     4   9  23  46  73 116 165 222 295 356 435 533
#     4  11  23  49  80 116 172 228 289 374 437 530
#     4  10  24  48  79 123 168 231 294 359 450 524
#
# _framework density 30.097384000000002
#
# number of rings (size 3 to 8) (size 9 to 14) (size 15 to 20)
#    1.200    0.800    0.000    1.800    5.600    4.000 
#    0.000    3.000    0.000    0.000    0.000    7.000 
#    0.000    0.000    0.000    0.000    0.000    0.000 
#
# Total GULP energy -111880.240471 kJ/mol
# GULP energy per Si atom -5594.012024 kJ/mol
# Density = 3.002888 g / cm^3
# Si number density = 30.097384 Si / 1000 Ang^3
#
#
#
# Elastic Constant Matrix: (Units=GPa)
#
#
# Indices 1 2 3 4 5 6 
#
# 1 125.7802 95.8505 75.6980 0.0000 -19.0877 0.0000
# 2 95.8505 265.6316 99.0645 0.0000 -3.5820 0.0000
# 3 75.6980 99.0645 255.6866 0.0000 -38.0811 0.0000
# 4 0.0000 0.0000 0.0000 42.3146 0.0000 1.8108
# 5 -19.0877 -3.5820 -38.0811 0.0000 72.6076 0.0000
# 6 0.0000 0.0000 0.0000 1.8108 0.0000 72.7079
#
#
#
# Elastic Compliance Matrix: (Units=1/GPa)
#
#
# Indices 1 2 3 4 5 6 
#
# 1 0.012188 -0.003668 -0.001884 0.000000 0.002035 0.000000
# 2 -0.003668 0.005541 -0.001262 0.000000 -0.001353 0.000000
# 3 -0.001884 -0.001262 0.005288 0.000000 0.002216 0.000000
# 4 0.000000 0.000000 0.000000 0.023658 0.000000 -0.000589
# 5 0.002035 -0.001353 0.002216 0.000000 0.015403 0.000000
# 6 0.000000 0.000000 0.000000 -0.000589 0.000000 0.013768
#
#
# Mechanical properties :
#
#
# Convention : Reuss Voigt Hill
#
# Bulk Modulus (GPa) = 106.51839 132.03604 119.27721
# Shear Modulus (GPa) = 53.99326 62.62505 58.30915
#
# Velocity S-wave (km/s) = 4.24010 4.56647 4.40631
# Velocity P-wave (km/s) = 7.70969 8.47162 8.09962
#
# Compressibility (1/GPa) = 0.00938805
#
# Stress axis : x y z
#
# Youngs Moduli (GPa) = 82.04605 180.48454 189.10838
#
# Poissons Ratio (x) = 0.66199 0.35633
# Poissons Ratio (y) = 0.30093 0.23871
# Poissons Ratio (z) = 0.15460 0.22783
#
# Static dielectric constant tensor:
#      x y z
#    x 2.394160 0.000000 0.016520 
#    y 0.000000 2.440760 0.000000 
#    z 0.016520 0.000000 2.532470 
# 
# From -- ./inp_files/208472.got.cif
#   From: 2010.05.17/outbox.cif.g08.bks.cpg/sg15_105_cif.got.tgz:208472.got - 2010.06.03 18:47:42.
