data_PCOD9299348
_publ_section_title
;
Structure prediction by ZEFSAII (Michael W. Deem and Ramdas Pophale) SiO2 
 PCOD9299348
Probable space group: C 2/C
;
_chemical_formula_sum "Si O2"
_cell_formula_units_Z 36
_cell_length_a 14.120376
_cell_length_b 18.908140
_cell_length_c 7.913896
_cell_angle_alpha 90.000000
_cell_angle_beta 37.964351
_cell_angle_gamma 90.000000
_cell_volume 1299.814289
_symmetry_space_group_name_H-M "C 2/C"
_symmetry_group_IT_number 15
_symmetry_cell_setting 'monoclinic'
loop_
_space_group_symop_operation_xyz
x,y,z
-x,y,1/2-z
-x,-y,-z
x,-y,1/2+z
1/2+x,1/2+y,z
1/2-x,1/2+y,1/2-z
1/2-x,1/2-y,-z
1/2+x,1/2-y,1/2+z
loop_
_atom_site_type_symbol
_atom_site_label
_atom_site_fract_x
_atom_site_fract_y
_atom_site_fract_z
Si Si1 0.000000 0.330959 0.750000
Si Si2 0.271129 0.046618 0.803020
Si Si3 0.181690 0.206953 0.313162
Si Si4 0.500000 0.049368 0.750000
Si Si5 0.207337 0.093038 0.555108
Si Si6 0.000000 0.765363 0.750000
O O1 0.886006 0.381188 0.807883
O O2 0.108712 0.278949 0.490608
O O3 0.387098 0.998777 0.523939
O O4 0.179267 0.986038 0.030326
O O5 0.378624 0.085053 0.791253
O O6 0.176340 0.091954 0.800541
O O7 0.149666 0.146793 0.495079
O O8 0.093745 0.193462 0.262311
O O9 0.362762 0.220404 0.030262
#
# Coordination Sequence:
#
# PCOD9299348 Si02
#       6
#     4   8   8   4   8   4
#     4  12  23  42  73 115 142 192 235 316 376 434
#     4   9  18  33  56  93 138 190 232 297 361 408
#     4  11  24  46  74 110 151 188 247 307 378 438
#     4   8  13  29  48  80 124 166 226 286 336 396
#     4  11  22  40  65 105 150 186 246 305 365 446
#     4  10  24  49  69 109 142 196 245 298 384 424
#
# _framework density 27.696262999999998
#
# number of rings (size 3 to 8) (size 9 to 14) (size 15 to 20)
#    0.000    1.778    2.222    4.667    0.000    0.889 
#   16.000    0.000    0.000    4.000    0.000    0.000 
#    0.000    0.000    0.000    0.000    0.000    0.000 
#
# Total GULP energy -100690.656342 kJ/mol
# GULP energy per Si atom -5593.925352 kJ/mol
# Density = 2.763323 g / cm^3
# Si number density = 27.696263 Si / 1000 Ang^3
#
#
#
# Elastic Constant Matrix: (Units=GPa)
#
#
# Indices 1 2 3 4 5 6 
#
# 1 244.9999 65.5539 49.6822 -0.0001 30.7351 0.0000
# 2 65.5539 98.7363 22.3182 0.0000 9.7092 0.0000
# 3 49.6822 22.3182 121.0482 -0.0001 -24.4053 0.0000
# 4 -0.0001 0.0000 -0.0001 19.4006 0.0001 13.8235
# 5 30.7351 9.7092 -24.4053 0.0001 38.6717 0.0000
# 6 0.0000 0.0000 0.0000 13.8235 0.0000 50.3922
#
#
#
# Elastic Compliance Matrix: (Units=1/GPa)
#
#
# Indices 1 2 3 4 5 6 
#
# 1 0.006328 -0.002801 -0.003383 0.000000 -0.006461 0.000000
# 2 -0.002801 0.012522 -0.001540 0.000000 -0.001889 0.000000
# 3 -0.003383 -0.001540 0.012092 0.000000 0.010707 0.000000
# 4 0.000000 0.000000 0.000000 0.064067 0.000000 -0.017575
# 5 -0.006461 -0.001889 0.010707 0.000000 0.038225 0.000000
# 6 0.000000 0.000000 0.000000 -0.017575 0.000000 0.024665
#
#
# Mechanical properties :
#
#
# Convention : Reuss Voigt Hill
#
# Bulk Modulus (GPa) = 64.54489 82.21034 73.37762
# Shear Modulus (GPa) = 28.00924 43.50826 35.75875
#
# Velocity S-wave (km/s) = 3.18354 3.96777 3.59709
# Velocity P-wave (km/s) = 6.07194 7.12307 6.61841
#
# Compressibility (1/GPa) = 0.01549309
#
# Stress axis : x y z
#
# Youngs Moduli (GPa) = 158.03501 79.86218 82.69643
#
# Poissons Ratio (x) = 0.22370 0.27979
# Poissons Ratio (y) = 0.44267 0.12735
# Poissons Ratio (z) = 0.53468 0.12298
#
# Static dielectric constant tensor:
#      x y z
#    x 2.208200 0.000000 0.020210 
#    y 0.000000 2.152960 0.000000 
#    z 0.020210 0.000000 2.199390 
# 
# From -- ./inp_files/41202.got.cif
#   From: 2010.05.17/outbox.cif.g08.bks.cpg/sg15_21_cif.got.tgz:41202.got - 2010.06.03 18:47:42.
