data_PCOD9299905
_publ_section_title
;
Structure prediction by ZEFSAII (Michael W. Deem and Ramdas Pophale) SiO2 
 PCOD9299905
Probable space group: C 2/C
;
_chemical_formula_sum "Si O2"
_cell_formula_units_Z 48
_cell_length_a 12.814801
_cell_length_b 15.385064
_cell_length_c 9.470479
_cell_angle_alpha 90.000000
_cell_angle_beta 94.848097
_cell_angle_gamma 90.000000
_cell_volume 1860.486582
_symmetry_space_group_name_H-M "C 2/C"
_symmetry_group_IT_number 15
_symmetry_cell_setting 'monoclinic'
loop_
_space_group_symop_operation_xyz
x,y,z
-x,y,1/2-z
-x,-y,-z
x,-y,1/2+z
1/2+x,1/2+y,z
1/2-x,1/2+y,1/2-z
1/2-x,1/2-y,-z
1/2+x,1/2-y,1/2+z
loop_
_atom_site_type_symbol
_atom_site_label
_atom_site_fract_x
_atom_site_fract_y
_atom_site_fract_z
Si Si1 0.653048 0.182677 0.501517
Si Si2 0.098170 0.868251 0.850077
Si Si3 0.500000 0.983492 0.250000
Si Si4 0.000000 0.762023 0.250000
Si Si5 0.879850 0.674202 0.663066
Si Si6 0.286078 0.059132 0.219563
Si Si7 0.664429 0.392097 0.138093
O O1 0.750000 0.250000 0.500000
O O2 0.556868 0.209938 0.385240
O O3 0.629190 0.177246 0.665567
O O4 0.693021 0.092319 0.437242
O O5 0.077480 0.766585 0.880566
O O6 0.209085 0.871757 0.782256
O O7 0.000000 0.899927 0.750000
O O8 0.104459 0.922675 0.992889
O O9 0.556397 0.914213 0.361431
O O10 0.401984 0.039877 0.292659
O O11 0.908105 0.826480 0.288150
O O12 0.764271 0.661032 0.593516
O O13 0.216617 0.972451 0.222331
#
# Coordination Sequence:
#
# PCOD9299905 Si02
#       7
#     8   8   4   4   8   8   8
#     4  12  24  46  75 102 148 192 248 291 360 441
#     4  12  25  45  72 105 145 188 240 297 365 437
#     4  10  25  48  71 106 142 186 242 296 361 420
#     4  12  25  46  75 104 142 200 238 296 363 440
#     4  11  23  47  73 104 143 190 244 298 356 437
#     4  11  27  47  70 108 144 190 238 302 365 428
#     4  11  27  43  72 107 145 183 242 300 367 429
#
# _framework density 25.799703000000001
#
# number of rings (size 3 to 8) (size 9 to 14) (size 15 to 20)
#    0.000    0.667    4.167    2.000    5.833    1.333 
#    6.000    0.000    0.000    0.000    0.000    0.000 
#    0.000    0.000    0.000    0.000    0.000    0.000 
#
# Total GULP energy -134201.798614 kJ/mol
# GULP energy per Si atom -5591.741609 kJ/mol
# Density = 2.574098 g / cm^3
# Si number density = 25.799703 Si / 1000 Ang^3
#
#
#
# Elastic Constant Matrix: (Units=GPa)
#
#
# Indices 1 2 3 4 5 6 
#
# 1 128.0818 36.4024 30.6068 0.0000 31.7922 0.0000
# 2 36.4024 75.5542 22.5743 0.0000 12.1550 0.0000
# 3 30.6068 22.5743 130.1568 0.0000 16.1763 0.0000
# 4 0.0000 0.0000 0.0000 4.9626 0.0000 21.3815
# 5 31.7922 12.1550 16.1763 0.0000 40.4755 0.0000
# 6 0.0000 0.0000 0.0000 21.3815 0.0000 17.1162
#
#
#
# Elastic Compliance Matrix: (Units=1/GPa)
#
#
# Indices 1 2 3 4 5 6 
#
# 1 0.010868 -0.003806 -0.001028 0.000000 -0.006983 0.000000
# 2 -0.003806 0.015749 -0.001705 0.000000 -0.001059 0.000000
# 3 -0.001028 -0.001705 0.008478 0.000000 -0.002069 0.000000
# 4 0.000000 0.000000 0.000000 -0.045983 0.000000 0.057442
# 5 -0.006983 -0.001059 -0.002069 0.000000 0.031336 0.000000
# 6 0.000000 0.000000 0.000000 0.057442 0.000000 -0.013332
#
#
# Mechanical properties :
#
#
# Convention : Reuss Voigt Hill
#
# Bulk Modulus (GPa) = 45.41841 56.99555 51.20698
# Shear Modulus (GPa) = 181.60991 28.79146 105.20069
#
# Velocity S-wave (km/s) = 8.39911 3.34422 6.39253
# Velocity P-wave (km/s) = 10.56894 6.08698 8.62421
#
# Compressibility (1/GPa) = 0.02201751
#
# Stress axis : x y z
#
# Youngs Moduli (GPa) = 92.01300 63.49633 117.95870
#
# Poissons Ratio (x) = 0.24166 0.12123
# Poissons Ratio (y) = 0.35019 0.20111
# Poissons Ratio (z) = 0.09456 0.10826
#
# Static dielectric constant tensor:
#      x y z
#    x 2.089440 0.000000 0.022410 
#    y 0.000000 2.019900 0.000000 
#    z 0.022410 0.000000 2.020600 
# 
# From -- ./inp_files/96561.got.cif
#   From: 2010.05.17/outbox.cif.g08.bks.cpg/sg15_49_cif.got.tgz:96561.got - 2010.06.03 18:47:42.
