data_PCOD9299804
_publ_section_title
;
Structure prediction by ZEFSAII (Michael W. Deem and Ramdas Pophale) SiO2 
 PCOD9299804
Probable space group: C 2/C
;
_chemical_formula_sum "Si O2"
_cell_formula_units_Z 44
_cell_length_a 8.795104
_cell_length_b 28.556641
_cell_length_c 9.288732
_cell_angle_alpha 90.000000
_cell_angle_beta 53.967903
_cell_angle_gamma 90.000000
_cell_volume 1886.623818
_symmetry_space_group_name_H-M "C 2/C"
_symmetry_group_IT_number 15
_symmetry_cell_setting 'monoclinic'
loop_
_space_group_symop_operation_xyz
x,y,z
-x,y,1/2-z
-x,-y,-z
x,-y,1/2+z
1/2+x,1/2+y,z
1/2-x,1/2+y,1/2-z
1/2-x,1/2-y,-z
1/2+x,1/2-y,1/2+z
loop_
_atom_site_type_symbol
_atom_site_label
_atom_site_fract_x
_atom_site_fract_y
_atom_site_fract_z
Si Si1 0.287563 0.604068 0.191740
Si Si2 0.034996 0.795337 0.899818
Si Si3 0.209363 0.059078 0.601969
Si Si4 0.500000 0.531479 0.250000
Si Si5 0.294907 0.709129 0.789322
Si Si6 0.464022 0.877781 0.103057
O O1 0.386295 0.653364 0.110346
O O2 0.437371 0.565143 0.157748
O O3 0.145770 0.613795 0.402497
O O4 0.210497 0.582485 0.086798
O O5 0.180723 0.756736 0.877345
O O6 0.000000 0.790652 0.750000
O O7 0.842561 0.790301 0.093139
O O8 0.341587 0.075088 0.656613
O O9 0.000000 0.078974 0.750000
O O10 0.169140 0.003853 0.615062
O O11 0.500000 0.706422 0.750000
O O12 0.160326 0.664929 0.892146
O O13 0.500000 0.867948 0.250000
#
# Coordination Sequence:
#
# PCOD9299804 Si02
#       6
#     8   8   8   4   8   8
#     4  12  24  45  76 106 144 194 242 300 362 431
#     4  12  24  43  72 103 146 189 242 289 360 424
#     4  10  25  46  73 102 144 187 243 295 369 419
#     4  10  26  46  78 104 144 186 252 298 374 416
#     4  12  26  46  71 108 150 190 236 294 356 435
#     4  12  26  44  72 109 149 190 243 296 359 430
#
# _framework density 23.322085999999999
#
# number of rings (size 3 to 8) (size 9 to 14) (size 15 to 20)
#    0.545    0.000    0.909    7.636    2.545    2.182 
#    0.000    0.000    0.000    0.000    0.000    0.000 
#    0.000    0.000    0.000    0.000    0.000    0.000 
#
# Total GULP energy -123100.786672 kJ/mol
# GULP energy per Si atom -5595.490303 kJ/mol
# Density = 2.326900 g / cm^3
# Si number density = 23.322086 Si / 1000 Ang^3
#
#
#
# Elastic Constant Matrix: (Units=GPa)
#
#
# Indices 1 2 3 4 5 6 
#
# 1 76.4333 57.0436 -5.0005 0.0000 14.2287 0.0000
# 2 57.0436 169.5001 31.7091 0.0000 -13.3209 0.0000
# 3 -5.0005 31.7091 97.1983 0.0000 -4.2708 0.0000
# 4 0.0000 0.0000 0.0000 -17.1675 0.0000 17.2348
# 5 14.2287 -13.3209 -4.2708 0.0000 39.3736 0.0000
# 6 0.0000 0.0000 0.0000 17.2348 0.0000 21.2450
#
#
#
# Elastic Compliance Matrix: (Units=1/GPa)
#
#
# Indices 1 2 3 4 5 6 
#
# 1 0.021883 -0.008856 0.003553 0.000000 -0.010519 0.000000
# 2 -0.008856 0.010014 -0.003449 0.000000 0.006214 0.000000
# 3 0.003553 -0.003449 0.011544 0.000000 -0.001199 0.000000
# 4 0.000000 0.000000 0.000000 -0.032104 0.000000 0.026044
# 5 -0.010519 0.006214 -0.001199 0.000000 0.031171 0.000000
# 6 0.000000 0.000000 0.000000 0.026044 0.000000 0.025942
#
#
# Mechanical properties :
#
#
# Convention : Reuss Voigt Hill
#
# Bulk Modulus (GPa) = 38.55722 56.73734 47.64728
# Shear Modulus (GPa) = 52.85397 25.98220 39.41809
#
# Velocity S-wave (km/s) = 4.76569 3.34137 4.11562
# Velocity P-wave (km/s) = 6.84477 6.26633 6.56193
#
# Compressibility (1/GPa) = 0.02593548
#
# Stress axis : x y z
#
# Youngs Moduli (GPa) = 45.69719 99.86333 86.62786
#
# Poissons Ratio (x) = 0.88437 -0.30776
# Poissons Ratio (y) = 0.40469 0.29881
# Poissons Ratio (z) = -0.16235 0.34446
#
# Static dielectric constant tensor:
#      x y z
#    x 1.927430 0.000000 0.033390 
#    y 0.000000 1.838490 0.000000 
#    z 0.033390 0.000000 1.897140 
# 
# From -- ./inp_files/25998.got.cif
#   From: 2010.05.17/outbox.cif.g08.bks.cpg/sg15_13_cif.got.tgz:25998.got - 2010.06.03 18:47:42.
