data_PCOD9299345
_publ_section_title
;
Structure prediction by ZEFSAII (Michael W. Deem and Ramdas Pophale) SiO2 
 PCOD9299345
Probable space group: C 2/C
;
_chemical_formula_sum "Si O2"
_cell_formula_units_Z 52
_cell_length_a 14.988389
_cell_length_b 9.840874
_cell_length_c 14.706199
_cell_angle_alpha 90.000000
_cell_angle_beta 69.766860
_cell_angle_gamma 90.000000
_cell_volume 2035.296140
_symmetry_space_group_name_H-M "C 2/C"
_symmetry_group_IT_number 15
_symmetry_cell_setting 'monoclinic'
loop_
_space_group_symop_operation_xyz
x,y,z
-x,y,1/2-z
-x,-y,-z
x,-y,1/2+z
1/2+x,1/2+y,z
1/2-x,1/2+y,1/2-z
1/2-x,1/2-y,-z
1/2+x,1/2-y,1/2+z
loop_
_atom_site_type_symbol
_atom_site_label
_atom_site_fract_x
_atom_site_fract_y
_atom_site_fract_z
Si Si1 0.485741 0.499691 0.395542
Si Si2 0.500000 0.736547 0.250000
Si Si3 0.089136 0.363036 0.952890
Si Si4 0.566724 0.230473 0.137577
Si Si5 0.587022 0.858562 0.374148
Si Si6 0.681233 0.636081 0.829193
Si Si7 0.754612 0.841394 0.648645
O O1 0.500000 0.500000 0.500000
O O2 0.471331 0.635400 0.343016
O O3 0.410282 0.388121 0.391912
O O4 0.583382 0.430308 0.327497
O O5 0.582226 0.826312 0.268102
O O6 0.131482 0.502344 0.897705
O O7 0.157741 0.233304 0.923619
O O8 0.002334 0.323818 0.915948
O O9 0.025989 0.379161 0.064662
O O10 0.500000 0.209147 0.250000
O O11 0.669642 0.163528 0.106756
O O12 0.642187 0.730770 0.400570
O O13 0.717534 0.742567 0.742411
O O14 0.736433 0.499002 0.830523
#
# Coordination Sequence:
#
# PCOD9299345 Si02
#       7
#     8   4   8   8   8   8   8
#     4  11  22  44  73 106 148 201 253 308 381 463
#     4  12  20  40  70 112 136 198 256 302 388 454
#     4  10  24  49  68 100 147 200 238 310 388 452
#     4  11  22  42  72  98 140 197 239 299 379 453
#     4  11  26  42  75 104 145 192 253 313 375 460
#     4  11  23  42  69 100 146 188 241 311 367 447
#     4  12  24  40  70 109 138 189 251 315 365 451
#
# _framework density 25.549109000000001
#
# number of rings (size 3 to 8) (size 9 to 14) (size 15 to 20)
#    0.000    0.923    5.385    2.769    1.077    0.615 
#    0.000    0.000    0.000    3.692    0.000    0.000 
#    0.000    0.000    0.000    0.000    0.000    0.000 
#
# Total GULP energy -145111.664535 kJ/mol
# GULP energy per Si atom -5581.217867 kJ/mol
# Density = 2.549096 g / cm^3
# Si number density = 25.549109 Si / 1000 Ang^3
#
#
#
# Elastic Constant Matrix: (Units=GPa)
#
#
# Indices 1 2 3 4 5 6 
#
# 1 70.4544 30.7910 11.8175 0.0000 4.6584 0.0000
# 2 30.7910 216.3012 34.7831 0.0000 -6.6151 0.0000
# 3 11.8175 34.7831 88.7350 0.0000 -1.2432 0.0000
# 4 0.0000 0.0000 0.0000 36.1799 0.0000 -6.8278
# 5 4.6584 -6.6151 -1.2432 0.0000 28.8487 0.0000
# 6 0.0000 0.0000 0.0000 -6.8278 0.0000 48.7603
#
#
#
# Elastic Compliance Matrix: (Units=1/GPa)
#
#
# Indices 1 2 3 4 5 6 
#
# 1 0.015527 -0.002096 -0.001289 0.000000 -0.003043 0.000000
# 2 -0.002096 0.005249 -0.001758 0.000000 0.001466 0.000000
# 3 -0.001289 -0.001758 0.012135 0.000000 0.000328 0.000000
# 4 0.000000 0.000000 0.000000 0.028390 0.000000 0.003975
# 5 -0.003043 0.001466 0.000328 0.000000 0.035505 0.000000
# 6 0.000000 0.000000 0.000000 0.003975 0.000000 0.021065
#
#
# Mechanical properties :
#
#
# Convention : Reuss Voigt Hill
#
# Bulk Modulus (GPa) = 44.19838 58.91934 51.55886
# Shear Modulus (GPa) = 36.84627 42.63103 39.73865
#
# Velocity S-wave (km/s) = 3.80172 4.08927 3.94811
# Velocity P-wave (km/s) = 6.05043 6.73851 6.40372
#
# Compressibility (1/GPa) = 0.02262526
#
# Stress axis : x y z
#
# Youngs Moduli (GPa) = 64.40366 190.50882 82.40750
#
# Poissons Ratio (x) = 0.39933 0.10621
# Poissons Ratio (y) = 0.13500 0.14486
# Poissons Ratio (z) = 0.08301 0.33489
#
# Static dielectric constant tensor:
#      x y z
#    x 2.091760 0.000000 -0.100350 
#    y 0.000000 2.092430 0.000000 
#    z -0.100350 0.000000 2.263860 
# 
# From -- ./inp_files/152528.got.cif
#   From: 2010.05.17/outbox.cif.g08.bks.cpg/sg15_77_cif.got.tgz:152528.got - 2010.06.03 18:47:42.
