data_PCOD9299461
_publ_section_title
;
Structure prediction by ZEFSAII (Michael W. Deem and Ramdas Pophale) SiO2 
 PCOD9299461
Probable space group: C 2/C
;
_chemical_formula_sum "Si O2"
_cell_formula_units_Z 44
_cell_length_a 15.982094
_cell_length_b 23.921286
_cell_length_c 5.201105
_cell_angle_alpha 90.000000
_cell_angle_beta 90.299149
_cell_angle_gamma 90.000000
_cell_volume 1988.419008
_symmetry_space_group_name_H-M "C 2/C"
_symmetry_group_IT_number 15
_symmetry_cell_setting 'monoclinic'
loop_
_space_group_symop_operation_xyz
x,y,z
-x,y,1/2-z
-x,-y,-z
x,-y,1/2+z
1/2+x,1/2+y,z
1/2-x,1/2+y,1/2-z
1/2-x,1/2-y,-z
1/2+x,1/2-y,1/2+z
loop_
_atom_site_type_symbol
_atom_site_label
_atom_site_fract_x
_atom_site_fract_y
_atom_site_fract_z
Si Si1 0.052481 0.142948 0.513837
Si Si2 0.211947 0.796372 0.812737
Si Si3 0.904803 0.020573 0.788728
Si Si4 0.412677 0.213998 0.841367
Si Si5 0.120350 0.355946 0.678694
Si Si6 0.000000 0.459762 0.750000
O O1 0.135639 0.176048 0.460315
O O2 0.083285 0.082896 0.617066
O O3 0.000000 0.135670 0.250000
O O4 0.000000 0.167934 0.750000
O O5 0.160629 0.758959 0.606093
O O6 0.281531 0.842981 0.752930
O O7 0.250000 0.750000 0.000000
O O8 0.000000 0.997814 0.750000
O O9 0.863082 0.015013 0.512198
O O10 0.500000 0.241049 0.750000
O O11 0.391346 0.170633 0.607296
O O12 0.424435 0.180101 0.100688
O O13 0.079751 0.417355 0.711101
O O14 0.000000 0.500000 0.500000
#
# Coordination Sequence:
#
# PCOD9299461 Si02
#       6
#     8   8   8   8   8   4
#     4  11  23  39  61  91 130 164 215 263 308 393
#     4  10  25  41  63  93 133 175 213 268 334 390
#     4   9  16  31  55  82 110 150 195 240 294 352
#     4  11  20  39  67  96 130 172 214 261 328 415
#     4  11  23  43  64  97 132 165 220 278 334 394
#     4  12  24  44  74  98 128 176 232 286 340 392
#
# _framework density 22.128132999999998
#
# number of rings (size 3 to 8) (size 9 to 14) (size 15 to 20)
#    0.000    1.455    1.818    4.909    0.000    8.727 
#    0.000    1.818    0.000    0.000    0.000    0.000 
#    0.000    0.000    0.000    0.000    0.000    0.000 
#
# Total GULP energy -122742.587731 kJ/mol
# GULP energy per Si atom -5579.208533 kJ/mol
# Density = 2.207777 g / cm^3
# Si number density = 22.128133 Si / 1000 Ang^3
#
#
#
# Elastic Constant Matrix: (Units=GPa)
#
#
# Indices 1 2 3 4 5 6 
#
# 1 126.4093 63.9788 37.3854 0.0000 -15.1599 0.0000
# 2 63.9788 135.0613 50.0868 0.0000 -4.1379 0.0000
# 3 37.3854 50.0868 160.8298 0.0000 0.9273 0.0000
# 4 0.0000 0.0000 0.0000 30.9665 0.0000 -0.8819
# 5 -15.1599 -4.1379 0.9273 0.0000 24.6456 0.0000
# 6 0.0000 0.0000 0.0000 -0.8819 0.0000 31.1703
#
#
#
# Elastic Compliance Matrix: (Units=1/GPa)
#
#
# Indices 1 2 3 4 5 6 
#
# 1 0.011440 -0.004779 -0.001207 0.000000 0.006280 0.000000
# 2 -0.004779 0.010423 -0.002129 0.000000 -0.001109 0.000000
# 3 -0.001207 -0.002129 0.007169 0.000000 -0.001370 0.000000
# 4 0.000000 0.000000 0.000000 0.032319 0.000000 0.000914
# 5 0.006280 -0.001109 -0.001370 0.000000 0.044303 0.000000
# 6 0.000000 0.000000 0.000000 0.000914 0.000000 0.032108
#
#
# Mechanical properties :
#
#
# Convention : Reuss Voigt Hill
#
# Bulk Modulus (GPa) = 78.11003 80.57805 79.34404
# Shear Modulus (GPa) = 31.59368 35.41309 33.50338
#
# Velocity S-wave (km/s) = 3.78267 4.00480 3.89532
# Velocity P-wave (km/s) = 7.37928 7.60775 7.49438
#
# Compressibility (1/GPa) = 0.01280245
#
# Stress axis : x y z
#
# Youngs Moduli (GPa) = 87.41508 95.93870 139.48526
#
# Poissons Ratio (x) = 0.45849 0.16837
# Poissons Ratio (y) = 0.41775 0.29694
# Poissons Ratio (z) = 0.10552 0.20424
#
# Static dielectric constant tensor:
#      x y z
#    x 1.871410 0.000000 0.004200 
#    y 0.000000 1.840810 0.000000 
#    z 0.004200 0.000000 1.920240 
# 
# From -- ./inp_files/7578.got.cif
#   From: 2010.05.17/outbox.cif.g08.bks.cpg/sg15_4_cif.got.tgz:7578.got - 2010.06.03 18:47:42.
