data_PCOD9299545
_publ_section_title
;
Structure prediction by ZEFSAII (Michael W. Deem and Ramdas Pophale) SiO2 
 PCOD9299545
Probable space group: C 2/C
;
_chemical_formula_sum "Si O2"
_cell_formula_units_Z 44
_cell_length_a 17.678962
_cell_length_b 21.032853
_cell_length_c 8.400404
_cell_angle_alpha 90.000000
_cell_angle_beta 134.124787
_cell_angle_gamma 90.000000
_cell_volume 2242.197187
_symmetry_space_group_name_H-M "C 2/C"
_symmetry_group_IT_number 15
_symmetry_cell_setting 'monoclinic'
loop_
_space_group_symop_operation_xyz
x,y,z
-x,y,1/2-z
-x,-y,-z
x,-y,1/2+z
1/2+x,1/2+y,z
1/2-x,1/2+y,1/2-z
1/2-x,1/2-y,-z
1/2+x,1/2-y,1/2+z
loop_
_atom_site_type_symbol
_atom_site_label
_atom_site_fract_x
_atom_site_fract_y
_atom_site_fract_z
Si Si1 0.447495 0.186430 0.351295
Si Si2 0.453533 0.667475 0.857112
Si Si3 0.712279 0.968876 0.606991
Si Si4 0.939313 0.942237 0.824108
Si Si5 0.739997 0.093186 0.489124
Si Si6 0.500000 0.111557 0.750000
O O1 0.500000 0.182775 0.250000
O O2 0.433960 0.260270 0.378720
O O3 0.337670 0.150834 0.162458
O O4 0.499281 0.151627 0.582221
O O5 0.500000 0.671594 0.750000
O O6 0.350137 0.623423 0.702436
O O7 0.539894 0.627681 0.077647
O O8 0.814906 0.953448 0.650762
O O9 0.744417 0.946725 0.831066
O O10 0.605384 0.931850 0.406792
O O11 0.697024 0.044294 0.558938
O O12 0.000000 0.942445 0.750000
O O13 0.000000 0.000000 0.000000
#
# Coordination Sequence:
#
# PCOD9299545 Si02
#       6
#     8   8   8   8   8   4
#     4  10  25  43  66  90 130 179 221 263 323 392
#     4  11  22  42  64  90 130 167 214 267 326 392
#     4  11  24  40  65  95 130 170 214 274 328 386
#     4  12  23  38  64  98 129 166 214 273 332 386
#     4  11  23  40  65  95 128 167 215 268 332 387
#     4  10  26  46  64  94 138 170 226 274 318 392
#
# _framework density 19.623608999999998
#
# number of rings (size 3 to 8) (size 9 to 14) (size 15 to 20)
#    0.000    1.091    3.636    2.182    5.091    1.455 
#    0.000    0.909    0.000    0.000    0.000    0.000 
#    0.000    0.000    0.000    0.000    0.000    0.000 
#
# Total GULP energy -122696.161062 kJ/mol
# GULP energy per Si atom -5577.098230 kJ/mol
# Density = 1.957895 g / cm^3
# Si number density = 19.623609 Si / 1000 Ang^3
#
#
#
# Elastic Constant Matrix: (Units=GPa)
#
#
# Indices 1 2 3 4 5 6 
#
# 1 75.0289 36.8066 36.1644 0.0000 2.8396 0.0000
# 2 36.8066 158.1558 47.7067 0.0000 14.4568 0.0000
# 3 36.1644 47.7067 78.4763 0.0000 25.2627 0.0000
# 4 0.0000 0.0000 0.0000 79.3884 0.0000 -12.0300
# 5 2.8396 14.4568 25.2627 0.0000 22.7020 0.0000
# 6 0.0000 0.0000 0.0000 -12.0300 0.0000 32.1734
#
#
#
# Elastic Compliance Matrix: (Units=1/GPa)
#
#
# Indices 1 2 3 4 5 6 
#
# 1 0.019430 -0.002149 -0.011384 0.000000 0.011606 0.000000
# 2 -0.002149 0.007984 -0.003604 0.000000 -0.000805 0.000000
# 3 -0.011384 -0.003604 0.029578 0.000000 -0.029195 0.000000
# 4 0.000000 0.000000 0.000000 0.013353 0.000000 0.004993
# 5 0.011606 -0.000805 -0.029195 0.000000 0.075598 0.000000
# 6 0.000000 0.000000 0.000000 0.004993 0.000000 0.032948
#
#
# Mechanical properties :
#
#
# Convention : Reuss Voigt Hill
#
# Bulk Modulus (GPa) = 44.01711 61.44627 52.73169
# Shear Modulus (GPa) = 22.65131 39.58501 31.11816
#
# Velocity S-wave (km/s) = 3.40117 4.49621 3.98647
# Velocity P-wave (km/s) = 6.15657 7.63773 6.93680
#
# Compressibility (1/GPa) = 0.02271844
#
# Stress axis : x y z
#
# Youngs Moduli (GPa) = 51.46633 125.25566 33.80874
#
# Poissons Ratio (x) = 0.26916 0.38487
# Poissons Ratio (y) = 0.11060 0.12185
# Poissons Ratio (z) = 0.58588 0.45143
#
# Static dielectric constant tensor:
#      x y z
#    x 1.684490 0.000000 -0.011970 
#    y 0.000000 1.616310 0.000000 
#    z -0.011970 0.000000 1.694300 
# 
# From -- ./inp_files/30726.got.cif
#   From: 2010.05.17/outbox.cif.g08.bks.cpg/sg15_16_cif.got.tgz:30726.got - 2010.06.03 18:47:42.
