data_PCOD9299664
_publ_section_title
;
Structure prediction by ZEFSAII (Michael W. Deem and Ramdas Pophale) SiO2 
 PCOD9299664
Probable space group: C 2/C
;
_chemical_formula_sum "Si O2"
_cell_formula_units_Z 44
_cell_length_a 11.913095
_cell_length_b 14.349835
_cell_length_c 13.760473
_cell_angle_alpha 90.000000
_cell_angle_beta 51.884371
_cell_angle_gamma 90.000000
_cell_volume 1850.763106
_symmetry_space_group_name_H-M "C 2/C"
_symmetry_group_IT_number 15
_symmetry_cell_setting 'monoclinic'
loop_
_space_group_symop_operation_xyz
x,y,z
-x,y,1/2-z
-x,-y,-z
x,-y,1/2+z
1/2+x,1/2+y,z
1/2-x,1/2+y,1/2-z
1/2-x,1/2-y,-z
1/2+x,1/2-y,1/2+z
loop_
_atom_site_type_symbol
_atom_site_label
_atom_site_fract_x
_atom_site_fract_y
_atom_site_fract_z
Si Si1 0.364395 0.548096 0.931970
Si Si2 0.636138 0.830890 0.122776
Si Si3 0.500000 0.293864 0.250000
Si Si4 0.060681 0.153820 0.051725
Si Si5 0.256832 0.851977 0.828182
Si Si6 0.652362 0.048545 0.418903
O O1 0.039192 0.863113 0.141259
O O2 0.257532 0.573618 0.076555
O O3 0.449646 0.454560 0.913377
O O4 0.273975 0.525002 0.884210
O O5 0.500000 0.871645 0.250000
O O6 0.599537 0.723948 0.118139
O O7 0.791798 0.839329 0.089169
O O8 0.649125 0.881625 0.012267
O O9 0.634397 0.228508 0.200381
O O10 0.905797 0.183679 0.098395
O O11 0.309941 0.899953 0.700823
O O12 0.500000 0.000000 0.500000
#
# Coordination Sequence:
#
# PCOD9299664 Si02
#       6
#     8   8   4   8   8   8
#     4  11  26  50  73 110 156 194 257 318 379 467
#     4  10  25  44  76 109 152 188 259 318 377 454
#     4  12  28  46  76 112 160 200 254 314 384 480
#     4  10  25  45  75 109 145 203 246 314 383 457
#     4  12  27  47  76 108 154 202 256 309 397 454
#     4  11  27  46  76 111 149 200 260 312 386 457
#
# _framework density 23.773976999999999
#
# number of rings (size 3 to 8) (size 9 to 14) (size 15 to 20)
#    0.000    1.091    0.000    3.273   19.091    0.000 
#    0.000    0.000    0.000    0.000    0.000    0.000 
#    0.000    0.000    0.000    0.000    0.000    0.000 
#
# Total GULP energy -123089.459619 kJ/mol
# GULP energy per Si atom -5594.975437 kJ/mol
# Density = 2.371987 g / cm^3
# Si number density = 23.773977 Si / 1000 Ang^3
#
#
#
# Elastic Constant Matrix: (Units=GPa)
#
#
# Indices 1 2 3 4 5 6 
#
# 1 117.4689 61.6165 49.8756 0.0000 -45.9730 0.0000
# 2 61.6165 125.5224 49.2107 0.0000 -13.5658 0.0000
# 3 49.8756 49.2107 161.4659 0.0000 -12.1019 0.0000
# 4 0.0000 0.0000 0.0000 31.7579 0.0000 -11.8081
# 5 -45.9730 -13.5658 -12.1019 0.0000 56.1077 0.0000
# 6 0.0000 0.0000 0.0000 -11.8081 0.0000 16.6162
#
#
#
# Elastic Compliance Matrix: (Units=1/GPa)
#
#
# Indices 1 2 3 4 5 6 
#
# 1 0.017900 -0.006396 -0.002639 0.000000 0.012551 0.000000
# 2 -0.006396 0.011480 -0.001736 0.000000 -0.002839 0.000000
# 3 -0.002639 -0.001736 0.007465 0.000000 -0.000972 0.000000
# 4 0.000000 0.000000 0.000000 0.042796 0.000000 0.030412
# 5 0.012551 -0.002839 -0.000972 0.000000 0.027211 0.000000
# 6 0.000000 0.000000 0.000000 0.030412 0.000000 0.081794
#
#
# Mechanical properties :
#
#
# Convention : Reuss Voigt Hill
#
# Bulk Modulus (GPa) = 65.34650 80.65143 72.99897
# Shear Modulus (GPa) = 23.22452 37.14667 30.18559
#
# Velocity S-wave (km/s) = 3.12891 3.95713 3.56714
# Velocity P-wave (km/s) = 6.37179 7.40786 6.90927
#
# Compressibility (1/GPa) = 0.01530304
#
# Stress axis : x y z
#
# Youngs Moduli (GPa) = 55.86436 87.10796 133.96296
#
# Poissons Ratio (x) = 0.55712 0.35357
# Poissons Ratio (y) = 0.35730 0.23256
# Poissons Ratio (z) = 0.14744 0.15122
#
# Static dielectric constant tensor:
#      x y z
#    x 1.953770 0.000000 -0.008170 
#    y 0.000000 1.908450 0.000000 
#    z -0.008170 0.000000 1.963590 
# 
# From -- ./inp_files/205930.got.cif
#   From: 2010.05.17/outbox.cif.g08.bks.cpg/sg15_103_cif.got.tgz:205930.got - 2010.06.03 18:47:42.
