data_PCOD9299156
_publ_section_title
;
Structure prediction by ZEFSAII (Michael W. Deem and Ramdas Pophale) SiO2 
 PCOD9299156
Probable space group: C 2/C
;
_chemical_formula_sum "Si O2"
_cell_formula_units_Z 48
_cell_length_a 17.731549
_cell_length_b 4.721040
_cell_length_c 23.092107
_cell_angle_alpha 90.000000
_cell_angle_beta 110.823061
_cell_angle_gamma 90.000000
_cell_volume 1806.808437
_symmetry_space_group_name_H-M "C 2/C"
_symmetry_group_IT_number 15
_symmetry_cell_setting 'monoclinic'
loop_
_space_group_symop_operation_xyz
x,y,z
-x,y,1/2-z
-x,-y,-z
x,-y,1/2+z
1/2+x,1/2+y,z
1/2-x,1/2+y,1/2-z
1/2-x,1/2-y,-z
1/2+x,1/2-y,1/2+z
loop_
_atom_site_type_symbol
_atom_site_label
_atom_site_fract_x
_atom_site_fract_y
_atom_site_fract_z
Si Si1 0.812887 0.425822 0.064897
Si Si2 0.299762 0.356540 0.744344
Si Si3 0.016427 0.317147 0.190813
Si Si4 0.632137 0.632093 0.013981
Si Si5 0.991097 0.701039 0.941430
Si Si6 0.132956 0.079506 0.853385
O O1 0.849578 0.582271 0.018360
O O2 0.828595 0.099490 0.083237
O O3 0.855998 0.593671 0.129275
O O4 0.718016 0.479463 0.041717
O O5 0.260337 0.592518 0.774338
O O6 0.389325 0.256974 0.784730
O O7 0.313551 0.503500 0.686622
O O8 0.003071 0.430111 0.121149
O O9 0.000000 0.459115 0.250000
O O10 0.957241 0.041716 0.177206
O O11 0.557508 0.449939 0.966803
O O12 0.598904 0.686765 0.069766
O O13 0.000000 0.500000 0.000000
#
# Coordination Sequence:
#
# PCOD9299156 Si02
#       6
#     8   8   8   8   8   8
#     4  11  24  43  70 106 144 190 241 299 370 437
#     4  11  26  46  71 107 138 190 251 311 367 440
#     4  10  24  47  72 102 147 196 244 307 375 451
#     4  10  25  39  67 104 145 185 242 302 361 448
#     4  11  23  44  70 103 147 195 250 304 384 440
#     4  11  24  44  72 100 147 190 241 297 377 440
#
# _framework density 26.566181
#
# number of rings (size 3 to 8) (size 9 to 14) (size 15 to 20)
#    0.000    1.333    1.667    2.000    7.000    2.667 
#    3.000    5.000    0.000    0.000    0.000    0.000 
#    0.000    0.000    0.000    0.000    0.000    0.000 
#
# Total GULP energy -134323.478691 kJ/mol
# GULP energy per Si atom -5596.811612 kJ/mol
# Density = 2.650572 g / cm^3
# Si number density = 26.566181 Si / 1000 Ang^3
#
#
#
# Elastic Constant Matrix: (Units=GPa)
#
#
# Indices 1 2 3 4 5 6 
#
# 1 223.9874 24.1952 62.6392 0.0000 -21.5436 0.0003
# 2 24.1952 84.3186 21.5716 -0.0002 -9.5748 0.0013
# 3 62.6392 21.5716 149.5476 0.0001 -27.8285 0.0001
# 4 0.0000 -0.0002 0.0001 44.6086 0.0000 -6.4233
# 5 -21.5436 -9.5748 -27.8285 0.0000 45.4894 0.0000
# 6 0.0003 0.0013 0.0001 -6.4233 0.0000 33.6980
#
#
#
# Elastic Compliance Matrix: (Units=1/GPa)
#
#
# Indices 1 2 3 4 5 6 
#
# 1 0.005182 -0.000889 -0.001829 0.000000 0.001149 0.000000
# 2 -0.000889 0.012584 -0.001160 0.000000 0.001518 0.000000
# 3 -0.001829 -0.001160 0.008366 0.000000 0.004008 0.000000
# 4 0.000000 0.000000 0.000000 0.023050 0.000000 0.004394
# 5 0.001149 0.001518 0.004008 0.000000 0.025298 0.000000
# 6 0.000000 0.000000 0.000000 0.004394 0.000000 0.030513
#
#
# Mechanical properties :
#
#
# Convention : Reuss Voigt Hill
#
# Bulk Modulus (GPa) = 54.41761 74.96283 64.69022
# Shear Modulus (GPa) = 42.06097 48.05569 45.05833
#
# Velocity S-wave (km/s) = 3.98333 4.25774 4.12282
# Velocity P-wave (km/s) = 6.45632 7.24222 6.86053
#
# Compressibility (1/GPa) = 0.01837640
#
# Stress axis : x y z
#
# Youngs Moduli (GPa) = 192.95918 79.46551 119.53178
#
# Poissons Ratio (x) = 0.07063 0.21860
# Poissons Ratio (y) = 0.17151 0.13871
# Poissons Ratio (z) = 0.35288 0.09222
#
# Static dielectric constant tensor:
#      x y z
#    x 2.118570 0.000000 -0.019320 
#    y 0.000000 2.115120 0.000000 
#    z -0.019320 0.000000 2.169660 
# 
# From -- ./inp_files/275884.got.cif
#   From: 2010.05.17/outbox.cif.g08.bks.cpg/sg15_138_cif.got.tgz:275884.got - 2010.06.03 18:47:42.
