data_PCOD9299503
_publ_section_title
;
Structure prediction by ZEFSAII (Michael W. Deem and Ramdas Pophale) SiO2 
 PCOD9299503
Probable space group: C 2/C
;
_chemical_formula_sum "Si O2"
_cell_formula_units_Z 40
_cell_length_a 7.474880
_cell_length_b 26.529332
_cell_length_c 9.512518
_cell_angle_alpha 90.000000
_cell_angle_beta 85.113040
_cell_angle_gamma 90.000000
_cell_volume 1879.508822
_symmetry_space_group_name_H-M "C 2/C"
_symmetry_group_IT_number 15
_symmetry_cell_setting 'monoclinic'
loop_
_space_group_symop_operation_xyz
x,y,z
-x,y,1/2-z
-x,-y,-z
x,-y,1/2+z
1/2+x,1/2+y,z
1/2-x,1/2+y,1/2-z
1/2-x,1/2-y,-z
1/2+x,1/2-y,1/2+z
loop_
_atom_site_type_symbol
_atom_site_label
_atom_site_fract_x
_atom_site_fract_y
_atom_site_fract_z
Si Si1 0.316219 0.423909 0.194098
Si Si2 0.000000 0.503663 0.250000
Si Si3 0.165007 0.589643 0.425266
Si Si4 0.210101 0.678468 0.220331
Si Si5 0.846930 0.344284 0.079965
Si Si6 0.000000 0.256113 0.250000
O O1 0.500000 0.442110 0.250000
O O2 0.256150 0.375214 0.291275
O O3 0.164469 0.466693 0.207397
O O4 0.324541 0.413500 0.027368
O O5 0.925463 0.539593 0.131239
O O6 0.225047 0.624308 0.292357
O O7 0.005322 0.619079 0.516249
O O8 0.333330 0.719219 0.287825
O O9 0.000000 0.692994 0.250000
O O10 0.259582 0.671658 0.053098
O O11 0.937105 0.293916 0.132965
#
# Coordination Sequence:
#
# PCOD9299503 Si02
#       6
#     8   4   8   8   8   4
#     4  12  27  43  72 104 134 182 227 280 342 410
#     4  12  23  48  74  96 140 178 229 278 348 398
#     4  11  22  47  71  95 141 180 220 286 340 395
#     4  10  25  42  67 101 131 181 225 278 334 399
#     4  11  22  48  65  99 141 176 223 286 337 394
#     4  12  23  42  72  98 136 180 231 268 342 404
#
# _framework density 21.282156000000001
#
# number of rings (size 3 to 8) (size 9 to 14) (size 15 to 20)
#    0.000    0.800    7.000    1.200    2.800    4.800 
#    1.800    0.000    0.000    0.000    0.000    0.000 
#    0.000    0.000    0.000    0.000    0.000    0.000 
#
# Total GULP energy -111717.774464 kJ/mol
# GULP energy per Si atom -5585.888723 kJ/mol
# Density = 2.123372 g / cm^3
# Si number density = 21.282156 Si / 1000 Ang^3
#
#
#
# Elastic Constant Matrix: (Units=GPa)
#
#
# Indices 1 2 3 4 5 6 
#
# 1 79.4625 42.7632 42.2688 0.0000 31.1970 0.0000
# 2 42.7632 118.2648 39.8375 0.0000 10.1467 0.0000
# 3 42.2688 39.8375 115.8809 0.0000 28.8970 0.0000
# 4 0.0000 0.0000 0.0000 14.2237 0.0000 12.2841
# 5 31.1970 10.1467 28.8970 0.0000 22.6634 0.0000
# 6 0.0000 0.0000 0.0000 12.2841 0.0000 13.3522
#
#
#
# Elastic Compliance Matrix: (Units=1/GPa)
#
#
# Indices 1 2 3 4 5 6 
#
# 1 0.034518 -0.009226 0.002052 0.000000 -0.046002 0.000000
# 2 -0.009226 0.012029 -0.003803 0.000000 0.012164 0.000000
# 3 0.002052 -0.003803 0.013882 0.000000 -0.018823 0.000000
# 4 0.000000 0.000000 0.000000 0.342201 0.000000 -0.314827
# 5 -0.046002 0.012164 -0.018823 0.000000 0.126001 0.000000
# 6 0.000000 0.000000 0.000000 -0.314827 0.000000 0.364537
#
#
# Mechanical properties :
#
#
# Convention : Reuss Voigt Hill
#
# Bulk Modulus (GPa) = 25.99061 62.59414 44.29237
# Shear Modulus (GPa) = 5.38823 22.63042 14.00932
#
# Velocity S-wave (km/s) = 1.59289 3.26445 2.56845
# Velocity P-wave (km/s) = 3.95246 6.60940 5.44547
#
# Compressibility (1/GPa) = 0.03847543
#
# Stress axis : x y z
#
# Youngs Moduli (GPa) = 28.97018 83.13143 72.03416
#
# Poissons Ratio (x) = 0.76696 -0.14782
# Poissons Ratio (y) = 0.26728 0.27397
# Poissons Ratio (z) = -0.05945 0.31618
#
# Static dielectric constant tensor:
#      x y z
#    x 1.765220 0.000000 0.018250 
#    y 0.000000 1.765640 0.000000 
#    z 0.018250 0.000000 1.843340 
# 
# From -- ./inp_files/23680.got.cif
#   From: 2010.05.17/outbox.cif.g08.bks.cpg/sg15_12_cif.got.tgz:23680.got - 2010.06.03 18:47:42.
