data_PCOD9299062
_publ_section_title
;
Structure prediction by ZEFSAII (Michael W. Deem and Ramdas Pophale) SiO2 
 PCOD9299062
Probable space group: C 2/C
;
_chemical_formula_sum "Si O2"
_cell_formula_units_Z 44
_cell_length_a 12.068295
_cell_length_b 8.297213
_cell_length_c 21.210080
_cell_angle_alpha 90.000000
_cell_angle_beta 117.801302
_cell_angle_gamma 90.000000
_cell_volume 1878.680184
_symmetry_space_group_name_H-M "C 2/C"
_symmetry_group_IT_number 15
_symmetry_cell_setting 'monoclinic'
loop_
_space_group_symop_operation_xyz
x,y,z
-x,y,1/2-z
-x,-y,-z
x,-y,1/2+z
1/2+x,1/2+y,z
1/2-x,1/2+y,1/2-z
1/2-x,1/2-y,-z
1/2+x,1/2-y,1/2+z
loop_
_atom_site_type_symbol
_atom_site_label
_atom_site_fract_x
_atom_site_fract_y
_atom_site_fract_z
Si Si1 0.000000 0.953799 0.250000
Si Si2 0.260713 0.771446 0.313133
Si Si3 0.865840 0.196195 0.122612
Si Si4 0.630734 0.043095 0.765873
Si Si5 0.113799 0.207283 0.516776
Si Si6 0.661073 0.675105 0.028606
O O1 0.125997 0.856055 0.267156
O O2 0.049735 0.060654 0.322251
O O3 0.363097 0.856301 0.296612
O O4 0.238115 0.587450 0.287538
O O5 0.296811 0.756737 0.395159
O O6 0.856354 0.334241 0.172906
O O7 0.717571 0.168009 0.069159
O O8 0.911714 0.236521 0.064251
O O9 0.500000 0.960933 0.750000
O O10 0.985146 0.214328 0.520600
O O11 0.164491 0.021181 0.533428
O O12 0.750000 0.750000 0.000000
#
# Coordination Sequence:
#
# PCOD9299062 Si02
#       6
#     4   8   8   8   8   8
#     4  12  26  46  76 108 152 198 260 312 382 442
#     4  12  27  46  74 111 147 199 251 313 380 454
#     4  11  23  45  77 110 147 202 246 318 377 451
#     4  12  25  47  72 109 152 191 248 310 379 449
#     4  10  24  46  76 106 151 198 250 304 391 451
#     4  11  24  46  71 108 149 194 252 309 376 463
#
# _framework density 23.420696
#
# number of rings (size 3 to 8) (size 9 to 14) (size 15 to 20)
#    0.000    0.727    3.636    3.273    2.545    1.455 
#    3.273    4.545    0.000    0.000    0.000    0.000 
#    0.000    0.000    0.000    0.000    0.000    0.000 
#
# Total GULP energy -122951.836368 kJ/mol
# GULP energy per Si atom -5588.719835 kJ/mol
# Density = 2.336739 g / cm^3
# Si number density = 23.420696 Si / 1000 Ang^3
#
#
#
# Elastic Constant Matrix: (Units=GPa)
#
#
# Indices 1 2 3 4 5 6 
#
# 1 164.6588 48.6722 53.7110 0.0000 -3.4195 0.0000
# 2 48.6722 66.1600 35.5611 0.0000 4.9562 0.0000
# 3 53.7110 35.5611 133.8547 0.0000 1.4235 0.0000
# 4 0.0000 0.0000 0.0000 79.5748 0.0000 73.3365
# 5 -3.4195 4.9562 1.4235 0.0000 28.5667 0.0000
# 6 0.0000 0.0000 0.0000 73.3365 0.0000 142.5034
#
#
#
# Elastic Compliance Matrix: (Units=1/GPa)
#
#
# Indices 1 2 3 4 5 6 
#
# 1 0.008291 -0.005190 -0.001969 0.000000 0.001991 0.000000
# 2 -0.005190 0.021113 -0.003483 0.000000 -0.004111 0.000000
# 3 -0.001969 -0.003483 0.009187 0.000000 -0.000089 0.000000
# 4 0.000000 0.000000 0.000000 0.023904 0.000000 -0.012302
# 5 0.001991 -0.004111 -0.000089 0.000000 0.035962 0.000000
# 6 0.000000 0.000000 0.000000 -0.012302 0.000000 0.013348
#
#
# Mechanical properties :
#
#
# Convention : Reuss Voigt Hill
#
# Bulk Modulus (GPa) = 57.78006 71.17357 64.47681
# Shear Modulus (GPa) = 36.00777 65.24426 50.62602
#
# Velocity S-wave (km/s) = 3.92527 5.28375 4.65434
# Velocity P-wave (km/s) = 6.72813 8.22673 7.51488
#
# Compressibility (1/GPa) = 0.01730701
#
# Stress axis : x y z
#
# Youngs Moduli (GPa) = 120.61188 47.36395 108.84766
#
# Poissons Ratio (x) = 0.24583 0.21434
# Poissons Ratio (y) = 0.62600 0.37909
# Poissons Ratio (z) = 0.23751 0.16496
#
# Static dielectric constant tensor:
#      x y z
#    x 1.942800 0.000000 0.073940 
#    y 0.000000 1.930450 0.000000 
#    z 0.073940 0.000000 1.875560 
# 
# From -- ./inp_files/236219.got.cif
#   From: 2010.05.17/outbox.cif.g08.bks.cpg/sg15_119_cif.got.tgz:236219.got - 2010.06.03 18:47:42.
