data_PCOD9299637
_publ_section_title
;
Structure prediction by ZEFSAII (Michael W. Deem and Ramdas Pophale) SiO2 
 PCOD9299637
Probable space group: C 2/C
;
_chemical_formula_sum "Si O2"
_cell_formula_units_Z 36
_cell_length_a 5.041253
_cell_length_b 22.083897
_cell_length_c 17.732895
_cell_angle_alpha 90.000000
_cell_angle_beta 49.470010
_cell_angle_gamma 90.000000
_cell_volume 1500.531482
_symmetry_space_group_name_H-M "C 2/C"
_symmetry_group_IT_number 15
_symmetry_cell_setting 'monoclinic'
loop_
_space_group_symop_operation_xyz
x,y,z
-x,y,1/2-z
-x,-y,-z
x,-y,1/2+z
1/2+x,1/2+y,z
1/2-x,1/2+y,1/2-z
1/2-x,1/2-y,-z
1/2+x,1/2-y,1/2+z
loop_
_atom_site_type_symbol
_atom_site_label
_atom_site_fract_x
_atom_site_fract_y
_atom_site_fract_z
Si Si1 0.087748 0.044532 0.154603
Si Si2 0.104145 0.148449 0.855335
Si Si3 0.000000 0.071682 0.750000
Si Si4 0.911822 0.282708 0.677820
Si Si5 0.208681 0.096145 0.444759
O O1 0.507840 0.047184 0.077558
O O2 0.000000 0.078108 0.250000
O O3 0.946730 0.073450 0.105116
O O4 0.903080 0.980095 0.205508
O O5 0.500000 0.142710 0.750000
O O6 0.011749 0.218981 0.877467
O O7 0.852522 0.119377 0.838084
O O8 0.060247 0.111350 0.939749
O O9 0.500000 0.290138 0.750000
O O10 0.000000 0.277124 0.750000
O O11 0.104298 0.339780 0.606258
#
# Coordination Sequence:
#
# PCOD9299637 Si02
#       5
#     8   8   4   8   8
#     4  10  25  44  71 100 137 176 237 286 335 400
#     4  11  27  46  68 101 147 185 224 283 346 417
#     4  10  26  48  66  94 150 182 234 278 350 394
#     4  11  23  44  73 104 140 177 222 287 350 412
#     4  12  24  44  75 105 132 181 235 283 345 405
#
# _framework density 23.991496999999999
#
# number of rings (size 3 to 8) (size 9 to 14) (size 15 to 20)
#    0.667    0.444    1.111    4.667    6.222    1.778 
#    0.000    5.556    0.000    0.000    0.000    0.000 
#    0.000    0.000    0.000    0.000    0.000    0.000 
#
# Total GULP energy -100347.364860 kJ/mol
# GULP energy per Si atom -5574.853603 kJ/mol
# Density = 2.393689 g / cm^3
# Si number density = 23.991497 Si / 1000 Ang^3
#
#
#
# Elastic Constant Matrix: (Units=GPa)
#
#
# Indices 1 2 3 4 5 6 
#
# 1 149.7585 19.0950 42.3373 0.0000 15.9557 0.0000
# 2 19.0950 117.8351 27.4086 0.0000 15.2675 0.0000
# 3 42.3373 27.4086 102.8015 0.0000 15.5194 0.0000
# 4 0.0000 0.0000 0.0000 6.4915 0.0000 34.2543
# 5 15.9557 15.2675 15.5194 0.0000 31.4314 0.0000
# 6 0.0000 0.0000 0.0000 34.2543 0.0000 5.3407
#
#
#
# Elastic Compliance Matrix: (Units=1/GPa)
#
#
# Indices 1 2 3 4 5 6 
#
# 1 0.007751 -0.000303 -0.002744 0.000000 -0.002433 0.000000
# 2 -0.000303 0.009422 -0.001858 0.000000 -0.003505 0.000000
# 3 -0.002744 -0.001858 0.011893 0.000000 -0.003577 0.000000
# 4 0.000000 0.000000 0.000000 -0.004690 0.000000 0.030082
# 5 -0.002433 -0.003505 -0.003577 0.000000 0.036519 0.000000
# 6 0.000000 0.000000 0.000000 0.030082 0.000000 -0.005701
#
#
# Mechanical properties :
#
#
# Convention : Reuss Voigt Hill
#
# Bulk Modulus (GPa) = 51.93203 60.89744 56.41473
# Shear Modulus (GPa) = 70.00611 27.42301 48.71456
#
# Velocity S-wave (km/s) = 5.40767 3.38454 4.51099
# Velocity P-wave (km/s) = 7.78996 6.38056 7.12022
#
# Compressibility (1/GPa) = 0.01925594
#
# Stress axis : x y z
#
# Youngs Moduli (GPa) = 129.01594 106.13591 84.08290
#
# Poissons Ratio (x) = 0.03211 0.23074
# Poissons Ratio (y) = 0.03903 0.15625
# Poissons Ratio (z) = 0.35405 0.19723
#
# Static dielectric constant tensor:
#      x y z
#    x 2.025460 0.000000 -0.083810 
#    y 0.000000 1.940310 0.000000 
#    z -0.083810 0.000000 1.924910 
# 
# From -- ./inp_files/185147.got.cif
#   From: 2010.05.17/outbox.cif.g08.bks.cpg/sg15_93_cif.got.tgz:185147.got - 2010.06.03 18:47:42.
