data_PCOD9299135
_publ_section_title
;
Structure prediction by ZEFSAII (Michael W. Deem and Ramdas Pophale) SiO2 
 PCOD9299135
Probable space group: C 2/C
;
_chemical_formula_sum "Si O2"
_cell_formula_units_Z 52
_cell_length_a 15.430624
_cell_length_b 26.904999
_cell_length_c 11.257341
_cell_angle_alpha 90.000000
_cell_angle_beta 150.041621
_cell_angle_gamma 90.000000
_cell_volume 2333.863253
_symmetry_space_group_name_H-M "C 2/C"
_symmetry_group_IT_number 15
_symmetry_cell_setting 'monoclinic'
loop_
_space_group_symop_operation_xyz
x,y,z
-x,y,1/2-z
-x,-y,-z
x,-y,1/2+z
1/2+x,1/2+y,z
1/2-x,1/2+y,1/2-z
1/2-x,1/2-y,-z
1/2+x,1/2-y,1/2+z
loop_
_atom_site_type_symbol
_atom_site_label
_atom_site_fract_x
_atom_site_fract_y
_atom_site_fract_z
Si Si1 0.148778 0.686401 0.069069
Si Si2 0.801512 0.201198 0.490611
Si Si3 0.400547 0.492537 0.257020
Si Si4 0.691882 0.890883 0.005401
Si Si5 0.247807 0.658921 0.828331
Si Si6 0.000000 0.766267 0.750000
Si Si7 0.706205 0.907124 0.499349
O O1 0.257732 0.710323 0.302633
O O2 0.146217 0.722643 0.952866
O O3 0.237416 0.634771 0.136699
O O4 0.948156 0.680130 0.875212
O O5 0.750000 0.250000 0.500000
O O6 0.708815 0.151535 0.425198
O O7 0.000000 0.191699 0.750000
O O8 0.500000 0.498433 0.250000
O O9 0.500000 0.500000 0.500000
O O10 0.318487 0.437770 0.153988
O O11 0.268136 0.538370 0.100428
O O12 0.500000 0.911277 0.750000
O O13 0.729691 0.862307 0.174208
O O14 0.272368 0.614261 0.952489
O O15 0.412760 0.695345 0.049962
O O16 0.500000 0.907150 0.250000
#
# Coordination Sequence:
#
# PCOD9299135 Si02
#       7
#     8   8   8   8   8   4   8
#     4  11  24  44  70 105 143 190 249 299 368 441
#     4  12  28  46  72 106 152 195 247 305 372 451
#     4  12  29  48  77 113 146 192 252 317 383 443
#     4  12  26  49  76 108 149 200 246 301 377 460
#     4  11  24  44  71 106 148 188 243 302 369 443
#     4  12  24  40  74 106 146 194 244 304 372 438
#     4  10  24  47  70 101 142 189 242 302 358 442
#
# _framework density 22.280653999999998
#
# number of rings (size 3 to 8) (size 9 to 14) (size 15 to 20)
#    0.000    0.615    3.846    3.692    9.692    0.000 
#    0.000    3.846    0.000    0.000    0.000    0.000 
#    0.000    0.000    0.000    0.000    0.000    0.000 
#
# Total GULP energy -145016.829344 kJ/mol
# GULP energy per Si atom -5577.570359 kJ/mol
# Density = 2.222994 g / cm^3
# Si number density = 22.280654 Si / 1000 Ang^3
#
#
#
# Elastic Constant Matrix: (Units=GPa)
#
#
# Indices 1 2 3 4 5 6 
#
# 1 60.6755 11.1341 12.6346 0.0000 -15.4074 0.0000
# 2 11.1341 104.8445 2.7504 0.0000 -0.2540 0.0000
# 3 12.6346 2.7504 89.3909 0.0000 -29.0098 0.0000
# 4 0.0000 0.0000 0.0000 37.3964 0.0000 -2.0568
# 5 -15.4074 -0.2540 -29.0098 0.0000 30.7042 0.0000
# 6 0.0000 0.0000 0.0000 -2.0568 0.0000 28.6029
#
#
#
# Elastic Compliance Matrix: (Units=1/GPa)
#
#
# Indices 1 2 3 4 5 6 
#
# 1 0.019338 -0.002047 0.000683 0.000000 0.010332 0.000000
# 2 -0.002047 0.009764 -0.000459 0.000000 -0.001380 0.000000
# 3 0.000683 -0.000459 0.016174 0.000000 0.015620 0.000000
# 4 0.000000 0.000000 0.000000 0.026847 0.000000 0.001931
# 5 0.010332 -0.001380 0.015620 0.000000 0.052500 0.000000
# 6 0.000000 0.000000 0.000000 0.001931 0.000000 0.035100
#
#
# Mechanical properties :
#
#
# Convention : Reuss Voigt Hill
#
# Bulk Modulus (GPa) = 24.02107 34.21656 29.11882
# Shear Modulus (GPa) = 28.20959 34.56683 31.38821
#
# Velocity S-wave (km/s) = 3.56209 3.94309 3.75742
# Velocity P-wave (km/s) = 5.26522 6.01008 5.64994
#
# Compressibility (1/GPa) = 0.04163011
#
# Stress axis : x y z
#
# Youngs Moduli (GPa) = 51.71141 102.41744 61.82945
#
# Poissons Ratio (x) = 0.20960 -0.04221
# Poissons Ratio (y) = 0.10583 0.02838
# Poissons Ratio (z) = -0.03530 0.04700
#
# Static dielectric constant tensor:
#      x y z
#    x 2.001840 0.000000 0.012050 
#    y 0.000000 1.808010 0.000000 
#    z 0.012050 0.000000 1.822660 
# 
# From -- ./inp_files/108357.got.cif
#   From: 2010.05.17/outbox.cif.g08.bks.cpg/sg15_55_cif.got.tgz:108357.got - 2010.06.03 18:47:42.
