data_PCOD9299362
_publ_section_title
;
Structure prediction by ZEFSAII (Michael W. Deem and Ramdas Pophale) SiO2 
 PCOD9299362
Probable space group: C 2/C
;
_chemical_formula_sum "Si O2"
_cell_formula_units_Z 48
_cell_length_a 7.371284
_cell_length_b 17.423541
_cell_length_c 17.812116
_cell_angle_alpha 90.000000
_cell_angle_beta 134.642859
_cell_angle_gamma 90.000000
_cell_volume 1627.684996
_symmetry_space_group_name_H-M "C 2/C"
_symmetry_group_IT_number 15
_symmetry_cell_setting 'monoclinic'
loop_
_space_group_symop_operation_xyz
x,y,z
-x,y,1/2-z
-x,-y,-z
x,-y,1/2+z
1/2+x,1/2+y,z
1/2-x,1/2+y,1/2-z
1/2-x,1/2-y,-z
1/2+x,1/2-y,1/2+z
loop_
_atom_site_type_symbol
_atom_site_label
_atom_site_fract_x
_atom_site_fract_y
_atom_site_fract_z
Si Si1 0.652808 0.917702 0.597708
Si Si2 0.555966 0.527970 0.088381
Si Si3 0.882144 0.196591 0.417977
Si Si4 0.199518 0.752851 0.864281
Si Si5 0.743580 0.136896 0.637360
Si Si6 0.017441 0.539221 0.831436
O O1 0.874609 0.949780 0.607632
O O2 0.708721 0.833117 0.645783
O O3 0.393431 0.903140 0.473308
O O4 0.615425 0.976304 0.653079
O O5 0.706373 0.609914 0.117297
O O6 0.792070 0.470226 0.193862
O O7 0.315353 0.523282 0.955525
O O8 0.714068 0.273521 0.370216
O O9 0.065674 0.215420 0.400699
O O10 0.058412 0.202489 0.543094
O O11 0.000000 0.717914 0.750000
O O12 0.000000 0.107863 0.750000
O O13 0.540764 0.120630 0.644778
#
# Coordination Sequence:
#
# PCOD9299362 Si02
#       6
#     8   8   8   8   8   8
#     4  10  24  49  74 111 159 201 256 339 399 456
#     4  11  24  47  83 111 157 199 261 331 394 469
#     4   9  22  45  69 113 154 199 260 317 390 465
#     4   9  19  39  74 103 145 205 247 313 397 463
#     4  11  25  49  77 106 159 215 259 326 400 472
#     4  12  29  44  77 117 149 205 271 318 402 476
#
# _framework density 29.489733999999999
#
# number of rings (size 3 to 8) (size 9 to 14) (size 15 to 20)
#    0.000    1.667    1.667    1.500    7.000    1.333 
#    3.000    1.667    0.000    0.000    0.000    0.000 
#    0.000    0.000    0.000    0.000    0.000    0.000 
#
# Total GULP energy -134329.596163 kJ/mol
# GULP energy per Si atom -5597.066507 kJ/mol
# Density = 2.942261 g / cm^3
# Si number density = 29.489734 Si / 1000 Ang^3
#
#
#
# Elastic Constant Matrix: (Units=GPa)
#
#
# Indices 1 2 3 4 5 6 
#
# 1 121.1019 29.3818 38.4685 0.0000 -15.4806 0.0000
# 2 29.3818 141.1214 25.3874 0.0000 -21.3613 0.0000
# 3 38.4685 25.3874 227.2224 -0.0002 -8.4074 0.0000
# 4 0.0000 0.0000 -0.0002 14.9960 -0.0001 -12.4346
# 5 -15.4806 -21.3613 -8.4074 -0.0001 64.7740 0.0000
# 6 0.0000 0.0000 0.0000 -12.4346 0.0000 45.0447
#
#
#
# Elastic Compliance Matrix: (Units=1/GPa)
#
#
# Indices 1 2 3 4 5 6 
#
# 1 0.009234 -0.001445 -0.001344 0.000000 0.001556 0.000000
# 2 -0.001445 0.007813 -0.000548 0.000000 0.002160 0.000000
# 3 -0.001344 -0.000548 0.004694 0.000000 0.000107 0.000000
# 4 0.000000 0.000000 0.000000 0.086479 0.000000 0.023873
# 5 0.001556 0.002160 0.000107 0.000000 0.016536 0.000000
# 6 0.000000 0.000000 0.000000 0.023873 0.000000 0.028790
#
#
# Mechanical properties :
#
#
# Convention : Reuss Voigt Hill
#
# Bulk Modulus (GPa) = 66.37990 75.10236 70.74113
# Shear Modulus (GPa) = 30.25838 51.37682 40.81760
#
# Velocity S-wave (km/s) = 3.20670 4.17849 3.72442
# Velocity P-wave (km/s) = 6.02237 6.98586 6.52193
#
# Compressibility (1/GPa) = 0.01506480
#
# Stress axis : x y z
#
# Youngs Moduli (GPa) = 108.29490 127.99887 213.04772
#
# Poissons Ratio (x) = 0.18499 0.28640
# Poissons Ratio (y) = 0.15651 0.11681
# Poissons Ratio (z) = 0.14558 0.07018
#
# Static dielectric constant tensor:
#      x y z
#    x 2.268000 0.000000 0.021900 
#    y 0.000000 2.264610 0.000000 
#    z 0.021900 0.000000 2.254610 
# 
# From -- ./inp_files/88551.got.cif
#   From: 2010.05.17/outbox.cif.g08.bks.cpg/sg15_45_cif.got.tgz:88551.got - 2010.06.03 18:47:42.
