data_PCOD9299686
_publ_section_title
;
Structure prediction by ZEFSAII (Michael W. Deem and Ramdas Pophale) SiO2 
 PCOD9299686
Probable space group: C 2/C
;
_chemical_formula_sum "Si O2"
_cell_formula_units_Z 48
_cell_length_a 19.800246
_cell_length_b 5.560888
_cell_length_c 17.109429
_cell_angle_alpha 90.000000
_cell_angle_beta 85.842858
_cell_angle_gamma 90.000000
_cell_volume 1878.910561
_symmetry_space_group_name_H-M "C 2/C"
_symmetry_group_IT_number 15
_symmetry_cell_setting 'monoclinic'
loop_
_space_group_symop_operation_xyz
x,y,z
-x,y,1/2-z
-x,-y,-z
x,-y,1/2+z
1/2+x,1/2+y,z
1/2-x,1/2+y,1/2-z
1/2-x,1/2-y,-z
1/2+x,1/2-y,1/2+z
loop_
_atom_site_type_symbol
_atom_site_label
_atom_site_fract_x
_atom_site_fract_y
_atom_site_fract_z
Si Si1 0.739494 0.068072 0.853718
Si Si2 0.844748 0.045754 0.069934
Si Si3 0.156118 0.270052 0.082039
Si Si4 0.351101 0.755662 0.724405
Si Si5 0.554797 0.164185 0.036976
Si Si6 0.544392 0.456770 0.180980
O O1 0.670951 0.001110 0.814036
O O2 0.716805 0.262530 0.919421
O O3 0.791244 0.188826 0.789436
O O4 0.724774 0.680112 0.119858
O O5 0.854336 0.935658 0.154380
O O6 0.911421 0.177021 0.032863
O O7 0.834781 0.843994 0.004572
O O8 0.120078 0.526251 0.070150
O O9 0.099763 0.129815 0.137595
O O10 0.418731 0.742356 0.767995
O O11 0.517696 0.315831 0.107695
O O12 0.500000 0.000000 0.000000
O O13 0.500000 0.588836 0.250000
#
# Coordination Sequence:
#
# PCOD9299686 Si02
#       6
#     8   8   8   8   8   8
#     4  11  23  42  69 100 135 174 222 278 348 413
#     4  11  24  42  69  97 134 179 227 276 351 404
#     4  10  25  45  67  99 135 180 224 286 340 414
#     4  11  24  40  69 100 138 172 219 284 340 410
#     4  11  27  46  70  99 138 186 237 280 339 413
#     4  10  26  44  69  99 135 176 234 284 345 403
#
# _framework density 25.546720000000001
#
# number of rings (size 3 to 8) (size 9 to 14) (size 15 to 20)
#    0.000    1.333    1.667    1.500    9.333    6.000 
#    0.000    0.000    0.000    0.000    0.000    0.000 
#    0.000    0.000    0.000    0.000    0.000    0.000 
#
# Total GULP energy -134283.243104 kJ/mol
# GULP energy per Si atom -5595.135129 kJ/mol
# Density = 2.548857 g / cm^3
# Si number density = 25.546720 Si / 1000 Ang^3
#
#
#
# Elastic Constant Matrix: (Units=GPa)
#
#
# Indices 1 2 3 4 5 6 
#
# 1 57.3315 11.0332 53.1529 0.0000 -1.3715 0.0000
# 2 11.0332 52.7453 35.3805 0.0000 -9.9620 0.0000
# 3 53.1529 35.3805 190.3446 0.0000 -31.8026 0.0000
# 4 0.0000 0.0000 0.0000 35.7404 0.0000 -6.4482
# 5 -1.3715 -9.9620 -31.8026 0.0000 36.9085 0.0000
# 6 0.0000 0.0000 0.0000 -6.4482 0.0000 37.3705
#
#
#
# Elastic Compliance Matrix: (Units=1/GPa)
#
#
# Indices 1 2 3 4 5 6 
#
# 1 0.024627 -0.001142 -0.007667 0.000000 -0.005999 0.000000
# 2 -0.001142 0.021959 -0.003247 0.000000 0.003087 0.000000
# 3 -0.007667 -0.003247 0.009117 0.000000 0.006694 0.000000
# 4 0.000000 0.000000 0.000000 0.028879 0.000000 0.004983
# 5 -0.005999 0.003087 0.006694 0.000000 0.033472 0.000000
# 6 0.000000 0.000000 0.000000 0.004983 0.000000 0.027619
#
#
# Mechanical properties :
#
#
# Convention : Reuss Voigt Hill
#
# Bulk Modulus (GPa) = 31.65487 55.50608 43.58048
# Shear Modulus (GPa) = 27.72937 35.39420 31.56179
#
# Velocity S-wave (km/s) = 3.29817 3.72623 3.51872
# Velocity P-wave (km/s) = 5.18862 6.34724 5.79695
#
# Compressibility (1/GPa) = 0.03159071
#
# Stress axis : x y z
#
# Youngs Moduli (GPa) = 40.60593 45.53962 109.68925
#
# Poissons Ratio (x) = 0.05199 0.84101
# Poissons Ratio (y) = 0.04636 0.35618
# Poissons Ratio (z) = 0.31133 0.14787
#
# Static dielectric constant tensor:
#      x y z
#    x 2.060140 0.000000 0.019350 
#    y 0.000000 2.035600 0.000000 
#    z 0.019350 0.000000 1.988730 
# 
# From -- ./inp_files/217757.got.cif
#   From: 2010.05.17/outbox.cif.g08.bks.cpg/sg15_109_cif.got.tgz:217757.got - 2010.06.03 18:47:42.
