data_PCOD9299085
_publ_section_title
;
Structure prediction by ZEFSAII (Michael W. Deem and Ramdas Pophale) SiO2 
 PCOD9299085
Probable space group: C 2/C
;
_chemical_formula_sum "Si O2"
_cell_formula_units_Z 36
_cell_length_a 26.658905
_cell_length_b 7.632962
_cell_length_c 22.365182
_cell_angle_alpha 90.000000
_cell_angle_beta 16.839301
_cell_angle_gamma 90.000000
_cell_volume 1318.374901
_symmetry_space_group_name_H-M "C 2/C"
_symmetry_group_IT_number 15
_symmetry_cell_setting 'monoclinic'
loop_
_space_group_symop_operation_xyz
x,y,z
-x,y,1/2-z
-x,-y,-z
x,-y,1/2+z
1/2+x,1/2+y,z
1/2-x,1/2+y,1/2-z
1/2-x,1/2-y,-z
1/2+x,1/2-y,1/2+z
loop_
_atom_site_type_symbol
_atom_site_label
_atom_site_fract_x
_atom_site_fract_y
_atom_site_fract_z
Si Si1 0.076253 0.226110 0.977676
Si Si2 0.229717 0.080193 0.097945
Si Si3 0.243591 0.395532 0.678327
Si Si4 0.520545 0.911274 0.609548
Si Si5 0.500000 0.622957 0.250000
O O1 0.107453 0.286523 0.874373
O O2 0.080717 0.411129 0.007014
O O3 0.219059 0.083545 0.835064
O O4 0.900812 0.131358 0.199417
O O5 0.100633 0.033530 0.190375
O O6 0.376579 0.939331 0.946336
O O7 0.348177 0.249258 0.948083
O O8 0.409226 0.273388 0.492325
O O9 0.177663 0.412241 0.685361
#
# Coordination Sequence:
#
# PCOD9299085 Si02
#       5
#     8   8   8   8   4
#     4  12  25  47  72 111 153 202 237 302 351 459
#     4  11  24  44  77 110 145 182 263 302 374 427
#     4  12  28  44  73 110 164 197 246 279 375 442
#     4  12  26  45  69 111 150 201 239 304 353 450
#     4  10  24  46  78 114 126 198 254 318 372 440
#
# _framework density 27.306343999999999
#
# number of rings (size 3 to 8) (size 9 to 14) (size 15 to 20)
#    0.000    0.444    4.444    3.333    3.111    1.778 
#    0.000    0.000    0.000   16.000    0.000    0.000 
#    0.000    0.000    0.000    0.000    0.000    0.000 
#
# Total GULP energy -100604.407777 kJ/mol
# GULP energy per Si atom -5589.133765 kJ/mol
# Density = 2.724419 g / cm^3
# Si number density = 27.306344 Si / 1000 Ang^3
#
#
#
# Elastic Constant Matrix: (Units=GPa)
#
#
# Indices 1 2 3 4 5 6 
#
# 1 112.2676 44.1255 45.6484 0.0026 -58.9298 0.0004
# 2 44.1255 152.0172 26.1110 -0.0086 -16.1332 -0.0016
# 3 45.6484 26.1110 108.9365 -0.0023 -13.7823 -0.0001
# 4 0.0026 -0.0086 -0.0023 33.8541 -0.0002 -22.4644
# 5 -58.9298 -16.1332 -13.7823 -0.0002 68.0819 0.0003
# 6 0.0004 -0.0016 -0.0001 -22.4644 0.0003 25.7033
#
#
#
# Elastic Compliance Matrix: (Units=1/GPa)
#
#
# Indices 1 2 3 4 5 6 
#
# 1 0.021328 -0.003409 -0.006041 -0.000008 0.016430 -0.000008
# 2 -0.003409 0.007524 -0.000536 0.000006 -0.001277 0.000006
# 3 -0.006041 -0.000536 0.011455 0.000003 -0.003037 0.000003
# 4 -0.000008 0.000006 0.000003 0.070321 -0.000005 0.061460
# 5 0.016430 -0.001277 -0.003037 -0.000005 0.027992 -0.000005
# 6 -0.000008 0.000006 0.000003 0.061460 -0.000005 0.092621
#
#
# Mechanical properties :
#
#
# Convention : Reuss Voigt Hill
#
# Bulk Modulus (GPa) = 49.17964 67.22123 58.20043
# Shear Modulus (GPa) = 19.38033 42.68364 31.03199
#
# Velocity S-wave (km/s) = 2.66698 3.95795 3.37477
# Velocity P-wave (km/s) = 5.24720 6.74967 6.04529
#
# Compressibility (1/GPa) = 0.02033362
#
# Stress axis : x y z
#
# Youngs Moduli (GPa) = 46.88712 132.89935 87.29452
#
# Poissons Ratio (x) = 0.45311 0.52737
# Poissons Ratio (y) = 0.15986 0.04682
# Poissons Ratio (z) = 0.28326 0.07129
#
# Static dielectric constant tensor:
#      x y z
#    x 2.263060 0.000000 0.020710 
#    y 0.000000 2.039780 0.000000 
#    z 0.020710 0.000000 2.131130 
# 
# From -- ./inp_files/283269.got.cif
#   From: 2010.05.17/outbox.cif.g08.bks.cpg/sg15_142_cif.got.tgz:283269.got - 2010.06.03 18:47:42.
