data_PCOD9299996
_publ_section_title
;
Structure prediction by ZEFSAII (Michael W. Deem and Ramdas Pophale) SiO2 
 PCOD9299996
Probable space group: C 2/C
;
_chemical_formula_sum "Si O2"
_cell_formula_units_Z 60
_cell_length_a 18.444771
_cell_length_b 20.515231
_cell_length_c 9.058709
_cell_angle_alpha 90.000000
_cell_angle_beta 125.946021
_cell_angle_gamma 90.000000
_cell_volume 2775.048678
_symmetry_space_group_name_H-M "C 2/C"
_symmetry_group_IT_number 15
_symmetry_cell_setting 'monoclinic'
loop_
_space_group_symop_operation_xyz
x,y,z
-x,y,1/2-z
-x,-y,-z
x,-y,1/2+z
1/2+x,1/2+y,z
1/2-x,1/2+y,1/2-z
1/2-x,1/2-y,-z
1/2+x,1/2-y,1/2+z
loop_
_atom_site_type_symbol
_atom_site_label
_atom_site_fract_x
_atom_site_fract_y
_atom_site_fract_z
Si Si1 0.623777 0.056024 0.661507
Si Si2 0.000000 0.514694 0.250000
Si Si3 0.736614 0.172165 0.249460
Si Si4 0.594972 0.482677 0.373592
Si Si5 0.282852 0.815400 0.281240
Si Si6 0.218585 0.034307 0.286077
Si Si7 0.131859 0.847354 0.308491
Si Si8 0.089631 0.294959 0.786719
O O1 0.553201 0.053667 0.440851
O O2 0.660827 0.129095 0.733353
O O3 0.573502 0.026901 0.744487
O O4 0.704061 0.010267 0.693778
O O5 0.759396 0.241815 0.201683
O O6 0.748734 0.108409 0.168064
O O7 0.803433 0.160752 0.470132
O O8 0.637350 0.174125 0.202053
O O9 0.500000 0.518736 0.250000
O O10 0.682170 0.512467 0.399535
O O11 0.629300 0.469894 0.578671
O O12 0.581815 0.414438 0.271034
O O13 0.192434 0.848474 0.234528
O O14 0.338473 0.800737 0.497011
O O15 0.075959 0.781239 0.232756
O O16 0.000000 0.321056 0.750000
#
# Coordination Sequence:
#
# PCOD9299996 Si02
#       8
#     8   4   8   8   8   8   8   8
#     4  11  22  40  62  87 123 161 198 245 306 355
#     4  10  26  38  58  96 122 150 208 256 284 356
#     4   8  18  32  51  78 113 148 197 232 287 362
#     4  11  21  35  58  87 113 148 198 247 288 353
#     4   9  17  32  54  78 108 154 193 230 290 361
#     4  11  22  38  60  83 119 160 192 242 307 355
#     4   8  15  31  48  80 109 141 179 236 293 343
#     4   9  16  25  48  81 112 137 177 243 296 332
#
# _framework density 21.621241000000001
#
# number of rings (size 3 to 8) (size 9 to 14) (size 15 to 20)
#    0.000    2.400    1.333    3.200    4.667    1.067 
#    0.000    0.000    1.467    3.200    0.000    0.000 
#    0.000    0.000    0.000    0.000    0.000    0.000 
#
# Total GULP energy -167265.977702 kJ/mol
# GULP energy per Si atom -5575.532590 kJ/mol
# Density = 2.157203 g / cm^3
# Si number density = 21.621241 Si / 1000 Ang^3
#
#
#
# Elastic Constant Matrix: (Units=GPa)
#
#
# Indices 1 2 3 4 5 6 
#
# 1 127.7316 50.2879 8.2009 0.0000 1.4015 0.0000
# 2 50.2879 123.2144 1.9355 0.0000 -6.6071 0.0000
# 3 8.2009 1.9355 49.6491 0.0000 -4.2280 0.0000
# 4 0.0000 0.0000 0.0000 13.3482 0.0000 -1.7734
# 5 1.4015 -6.6071 -4.2280 0.0000 23.6748 0.0000
# 6 0.0000 0.0000 0.0000 -1.7734 0.0000 -16.0227
#
#
#
# Elastic Compliance Matrix: (Units=1/GPa)
#
#
# Indices 1 2 3 4 5 6 
#
# 1 0.009512 -0.003962 -0.001583 0.000000 -0.001951 0.000000
# 2 -0.003962 0.009890 0.000532 0.000000 0.003090 0.000000
# 3 -0.001583 0.000532 0.020718 0.000000 0.003942 0.000000
# 4 0.000000 0.000000 0.000000 0.073831 0.000000 -0.008172
# 5 -0.001951 0.003090 0.003942 0.000000 0.043921 0.000000
# 6 0.000000 0.000000 0.000000 -0.008172 0.000000 -0.061507
#
#
# Mechanical properties :
#
#
# Convention : Reuss Voigt Hill
#
# Bulk Modulus (GPa) = 33.22892 46.82706 40.02799
# Shear Modulus (GPa) = 42.94757 20.21146 31.57951
#
# Velocity S-wave (km/s) = 4.46169 3.06076 3.82590
# Velocity P-wave (km/s) = 6.47644 5.84773 6.17010
#
# Compressibility (1/GPa) = 0.03009426
#
# Stress axis : x y z
#
# Youngs Moduli (GPa) = 105.13342 101.11017 48.26774
#
# Poissons Ratio (x) = 0.40058 0.07640
# Poissons Ratio (y) = 0.41652 -0.02568
# Poissons Ratio (z) = 0.16641 -0.05379
#
# Static dielectric constant tensor:
#      x y z
#    x 1.844110 0.000000 0.029260 
#    y 0.000000 1.831510 0.000000 
#    z 0.029260 0.000000 1.775760 
# 
# From -- ./inp_files/42691.got.cif
#   From: 2010.05.17/outbox.cif.g08.bks.cpg/sg15_22_cif.got.tgz:42691.got - 2010.06.03 18:47:42.
