data_PCOD9299596
_publ_section_title
;
Structure prediction by ZEFSAII (Michael W. Deem and Ramdas Pophale) SiO2 
 PCOD9299596
Probable space group: C 2/C
;
_chemical_formula_sum "Si O2"
_cell_formula_units_Z 24
_cell_length_a 22.664580
_cell_length_b 7.068995
_cell_length_c 11.299544
_cell_angle_alpha 90.000000
_cell_angle_beta 34.038126
_cell_angle_gamma 90.000000
_cell_volume 1013.342032
_symmetry_space_group_name_H-M "C 2/C"
_symmetry_group_IT_number 15
_symmetry_cell_setting 'monoclinic'
loop_
_space_group_symop_operation_xyz
x,y,z
-x,y,1/2-z
-x,-y,-z
x,-y,1/2+z
1/2+x,1/2+y,z
1/2-x,1/2+y,1/2-z
1/2-x,1/2-y,-z
1/2+x,1/2-y,1/2+z
loop_
_atom_site_type_symbol
_atom_site_label
_atom_site_fract_x
_atom_site_fract_y
_atom_site_fract_z
Si Si1 0.472791 0.703859 0.492620
Si Si2 0.684804 0.058445 0.113167
Si Si3 0.672045 0.736189 0.990359
O O1 0.500000 0.500000 0.500000
O O2 0.429536 0.855839 0.659876
O O3 0.579488 0.748405 0.244129
O O4 0.383155 0.696080 0.540880
O O5 0.706082 0.952802 0.952588
O O6 0.750000 0.250000 0.000000
O O7 0.741195 0.916229 0.113863
#
# Coordination Sequence:
#
# PCOD9299596 Si02
#       3
#     8   8   8
#     4  11  23  45  68 100 139 176 225 286 342 413
#     4  11  23  43  68  96 134 179 225 279 338 406
#     4  10  25  44  65 103 133 178 230 274 349 411
#
# _framework density 23.684007999999999
#
# number of rings (size 3 to 8) (size 9 to 14) (size 15 to 20)
#    0.000    1.333    3.333    1.000    4.667    0.000 
#   12.000    0.000    0.000    0.000    0.000    0.000 
#    0.000    0.000    0.000    0.000    0.000    0.000 
#
# Total GULP energy -66931.550988 kJ/mol
# GULP energy per Si atom -5577.629249 kJ/mol
# Density = 2.363010 g / cm^3
# Si number density = 23.684008 Si / 1000 Ang^3
#
#
#
# Elastic Constant Matrix: (Units=GPa)
#
#
# Indices 1 2 3 4 5 6 
#
# 1 134.2261 54.8977 -15.4326 0.0000 -16.6294 0.0000
# 2 54.8977 188.4856 35.3095 -0.0001 -7.1598 0.0000
# 3 -15.4326 35.3095 89.3091 0.0000 3.9150 0.0000
# 4 0.0000 -0.0001 0.0000 55.1404 0.0000 -9.7467
# 5 -16.6294 -7.1598 3.9150 0.0000 28.8450 0.0000
# 6 0.0000 0.0000 0.0000 -9.7467 0.0000 31.5032
#
#
#
# Elastic Compliance Matrix: (Units=1/GPa)
#
#
# Indices 1 2 3 4 5 6 
#
# 1 0.009584 -0.003131 0.002702 0.000000 0.004381 0.000000
# 2 -0.003131 0.006841 -0.003260 0.000000 0.000335 0.000000
# 3 0.002702 -0.003260 0.012998 0.000000 -0.001016 0.000000
# 4 0.000000 0.000000 0.000000 0.019185 0.000000 0.005936
# 5 0.004381 0.000335 -0.001016 0.000000 0.037415 0.000000
# 6 0.000000 0.000000 0.000000 0.005936 0.000000 0.033579
#
#
# Mechanical properties :
#
#
# Convention : Reuss Voigt Hill
#
# Bulk Modulus (GPa) = 45.36469 62.39668 53.88069
# Shear Modulus (GPa) = 37.22204 45.58078 41.40141
#
# Velocity S-wave (km/s) = 3.96866 4.39172 4.18553
# Velocity P-wave (km/s) = 6.34003 7.21934 6.79393
#
# Compressibility (1/GPa) = 0.02204357
#
# Stress axis : x y z
#
# Youngs Moduli (GPa) = 104.33761 146.17813 76.93747
#
# Poissons Ratio (x) = 0.45772 -0.20789
# Poissons Ratio (y) = 0.32671 0.25085
# Poissons Ratio (z) = -0.28193 0.47661
#
# Static dielectric constant tensor:
#      x y z
#    x 2.298800 0.000000 -0.208810 
#    y 0.000000 2.804720 0.000000 
#    z -0.208810 0.000000 2.212260 
# 
# From -- ./inp_files/175233.got.cif
#   From: 2010.05.17/outbox.cif.g08.bks.cpg/sg15_88_cif.got.tgz:175233.got - 2010.06.03 18:47:42.
