data_PCOD9299500
_publ_section_title
;
Structure prediction by ZEFSAII (Michael W. Deem and Ramdas Pophale) SiO2 
 PCOD9299500
Probable space group: C 2/C
;
_chemical_formula_sum "Si O2"
_cell_formula_units_Z 28
_cell_length_a 17.231218
_cell_length_b 18.253997
_cell_length_c 5.037022
_cell_angle_alpha 90.000000
_cell_angle_beta 46.879581
_cell_angle_gamma 90.000000
_cell_volume 1156.437870
_symmetry_space_group_name_H-M "C 2/C"
_symmetry_group_IT_number 15
_symmetry_cell_setting 'monoclinic'
loop_
_space_group_symop_operation_xyz
x,y,z
-x,y,1/2-z
-x,-y,-z
x,-y,1/2+z
1/2+x,1/2+y,z
1/2-x,1/2+y,1/2-z
1/2-x,1/2-y,-z
1/2+x,1/2-y,1/2+z
loop_
_atom_site_type_symbol
_atom_site_label
_atom_site_fract_x
_atom_site_fract_y
_atom_site_fract_z
Si Si1 0.000000 0.555905 0.750000
Si Si2 0.000000 0.794393 0.250000
Si Si3 0.000000 0.889671 0.750000
Si Si4 0.609682 0.155831 0.844323
Si Si5 0.275768 0.451639 0.168318
O O1 0.906524 0.615188 0.898920
O O2 0.000000 0.500000 0.500000
O O3 0.905937 0.743019 0.592919
O O4 0.038885 0.841768 0.407694
O O5 0.099262 0.935368 0.623445
O O6 0.710245 0.121042 0.751655
O O7 0.500000 0.134176 0.250000
O O8 0.248794 0.489259 0.507388
#
# Coordination Sequence:
#
# PCOD9299500 Si02
#       5
#     4   4   4   8   8
#     4  12  20  34  60  90 140 172 198 262 328 410
#     4  10  25  45  72  95 137 178 226 280 326 402
#     4  12  25  49  68  95 135 186 234 268 318 404
#     4  10  25  42  66 106 134 171 219 275 352 391
#     4  12  27  43  71 100 136 178 222 283 336 397
#
# _framework density 24.212284
#
# number of rings (size 3 to 8) (size 9 to 14) (size 15 to 20)
#    0.857    0.000    1.429    5.143    4.000    2.286 
#    0.000    0.000    0.000    0.000    0.000    0.000 
#    0.000    0.000    0.000    0.000    0.000    0.000 
#
# Total GULP energy -78168.366654 kJ/mol
# GULP energy per Si atom -5583.454761 kJ/mol
# Density = 2.415718 g / cm^3
# Si number density = 24.212284 Si / 1000 Ang^3
#
#
#
# Elastic Constant Matrix: (Units=GPa)
#
#
# Indices 1 2 3 4 5 6 
#
# 1 149.3095 21.9769 40.6975 0.0000 11.8060 0.0000
# 2 21.9769 53.5986 14.6910 0.0000 19.6129 0.0000
# 3 40.6975 14.6910 61.0633 0.0000 18.3882 0.0000
# 4 0.0000 0.0000 0.0000 16.8647 0.0000 -4.2139
# 5 11.8060 19.6129 18.3882 0.0000 61.3912 0.0000
# 6 0.0000 0.0000 0.0000 -4.2139 0.0000 20.1895
#
#
#
# Elastic Compliance Matrix: (Units=1/GPa)
#
#
# Indices 1 2 3 4 5 6 
#
# 1 0.008412 -0.002254 -0.005269 0.000000 0.000681 0.000000
# 2 -0.002254 0.022374 -0.002043 0.000000 -0.006103 0.000000
# 3 -0.005269 -0.002043 0.021849 0.000000 -0.004878 0.000000
# 4 0.000000 0.000000 0.000000 0.062558 0.000000 0.013057
# 5 0.000681 -0.006103 -0.004878 0.000000 0.019569 0.000000
# 6 0.000000 0.000000 0.000000 0.013057 0.000000 0.052256
#
#
# Mechanical properties :
#
#
# Convention : Reuss Voigt Hill
#
# Bulk Modulus (GPa) = 29.84814 46.52247 38.18530
# Shear Modulus (GPa) = 23.00792 32.12950 27.56871
#
# Velocity S-wave (km/s) = 3.08597 3.64674 3.37801
# Velocity P-wave (km/s) = 5.00520 6.08176 5.56955
#
# Compressibility (1/GPa) = 0.03350293
#
# Stress axis : x y z
#
# Youngs Moduli (GPa) = 118.88400 44.69379 45.76957
#
# Poissons Ratio (x) = 0.10073 0.24115
# Poissons Ratio (y) = 0.26795 0.09351
# Poissons Ratio (z) = 0.62638 0.09132
#
# Static dielectric constant tensor:
#      x y z
#    x 1.940360 0.000000 0.033600 
#    y 0.000000 1.977470 0.000000 
#    z 0.033600 0.000000 2.105270 
# 
# From -- ./inp_files/6483.got.cif
#   From: 2010.05.17/outbox.cif.g08.bks.cpg/sg15_4_cif.got.tgz:6483.got - 2010.06.03 18:47:42.
