data_PCOD9299747
_publ_section_title
;
Structure prediction by ZEFSAII (Michael W. Deem and Ramdas Pophale) SiO2 
 PCOD9299747
Probable space group: C 2/C
;
_chemical_formula_sum "Si O2"
_cell_formula_units_Z 44
_cell_length_a 9.970888
_cell_length_b 21.754623
_cell_length_c 14.541022
_cell_angle_alpha 90.000000
_cell_angle_beta 144.317080
_cell_angle_gamma 90.000000
_cell_volume 1839.804338
_symmetry_space_group_name_H-M "C 2/C"
_symmetry_group_IT_number 15
_symmetry_cell_setting 'monoclinic'
loop_
_space_group_symop_operation_xyz
x,y,z
-x,y,1/2-z
-x,-y,-z
x,-y,1/2+z
1/2+x,1/2+y,z
1/2-x,1/2+y,1/2-z
1/2-x,1/2-y,-z
1/2+x,1/2-y,1/2+z
loop_
_atom_site_type_symbol
_atom_site_label
_atom_site_fract_x
_atom_site_fract_y
_atom_site_fract_z
Si Si1 0.590422 0.491647 0.946481
Si Si2 0.791927 0.322889 0.518645
Si Si3 0.000000 0.095769 0.750000
Si Si4 0.000000 0.110806 0.250000
Si Si5 0.279686 0.301099 0.739433
Si Si6 0.000000 0.432446 0.250000
Si Si7 0.875123 0.169744 0.915774
O O1 0.514395 0.548568 0.842360
O O2 0.502915 0.432646 0.840732
O O3 0.500000 0.500000 0.000000
O O4 0.863985 0.477794 0.105378
O O5 0.750000 0.250000 0.500000
O O6 0.713650 0.357323 0.381400
O O7 0.603737 0.346998 0.485459
O O8 0.064601 0.326881 0.678393
O O9 0.207663 0.157437 0.344920
O O10 0.237847 0.230271 0.691845
O O11 0.515383 0.309705 0.926181
O O12 0.804319 0.385872 0.177911
#
# Coordination Sequence:
#
# PCOD9299747 Si02
#       7
#     8   8   4   4   8   4   8
#     4  11  27  51  75 108 151 202 263 323 388 460
#     4  10  25  45  78 110 157 199 259 316 393 471
#     4  11  26  50  78 112 144 205 268 312 396 459
#     4  11  25  46  74 114 149 201 260 316 400 453
#     4  11  25  43  75 114 159 204 262 321 393 474
#     4  12  25  48  80 108 159 196 264 332 382 470
#     4  11  25  44  75 114 159 209 258 321 404 455
#
# _framework density 23.915586000000001
#
# number of rings (size 3 to 8) (size 9 to 14) (size 15 to 20)
#    0.000    1.091    1.818    2.182   12.727    4.364 
#    0.000    6.364    0.000    0.000    0.000    0.000 
#    0.000    0.000    0.000    0.000    0.000    0.000 
#
# Total GULP energy -122780.472194 kJ/mol
# GULP energy per Si atom -5580.930554 kJ/mol
# Density = 2.386115 g / cm^3
# Si number density = 23.915586 Si / 1000 Ang^3
#
#
#
# Elastic Constant Matrix: (Units=GPa)
#
#
# Indices 1 2 3 4 5 6 
#
# 1 143.2277 55.5175 45.5465 0.0000 -0.3469 -0.0003
# 2 55.5175 119.1878 50.4486 0.0000 -21.0029 -0.0001
# 3 45.5465 50.4486 119.6511 -0.0006 -4.6946 -0.0013
# 4 0.0000 0.0000 -0.0006 50.9655 -0.0002 3.0977
# 5 -0.3469 -21.0029 -4.6946 -0.0002 37.7562 -0.0007
# 6 -0.0003 -0.0001 -0.0013 3.0977 -0.0007 29.1650
#
#
#
# Elastic Compliance Matrix: (Units=1/GPa)
#
#
# Indices 1 2 3 4 5 6 
#
# 1 0.009067 -0.003804 -0.001937 0.000000 -0.002274 0.000000
# 2 -0.003804 0.012923 -0.003738 0.000000 0.006689 0.000000
# 3 -0.001937 -0.003738 0.010641 0.000000 -0.000774 0.000000
# 4 0.000000 0.000000 0.000000 0.019749 0.000000 -0.002098
# 5 -0.002274 0.006689 -0.000774 0.000000 0.030090 0.000001
# 6 0.000000 0.000000 0.000000 -0.002098 0.000001 0.034511
#
#
# Mechanical properties :
#
#
# Convention : Reuss Voigt Hill
#
# Bulk Modulus (GPa) = 73.14006 76.12131 74.63069
# Shear Modulus (GPa) = 35.58850 38.94761 37.26806
#
# Velocity S-wave (km/s) = 3.86176 4.03990 3.95183
# Velocity P-wave (km/s) = 7.10867 7.32525 7.21778
#
# Compressibility (1/GPa) = 0.01367240
#
# Stress axis : x y z
#
# Youngs Moduli (GPa) = 110.29224 77.38050 93.97984
#
# Poissons Ratio (x) = 0.29438 0.18200
# Poissons Ratio (y) = 0.41958 0.35132
# Poissons Ratio (z) = 0.21359 0.28926
#
# Static dielectric constant tensor:
#      x y z
#    x 2.105920 0.000000 -0.171740 
#    y 0.000000 1.918560 0.000000 
#    z -0.171740 0.000000 2.112630 
# 
# From -- ./inp_files/200855.got.cif
#   From: 2010.05.17/outbox.cif.g08.bks.cpg/sg15_101_cif.got.tgz:200855.got - 2010.06.03 18:47:42.
