data_PCOD9299142
_publ_section_title
;
Structure prediction by ZEFSAII (Michael W. Deem and Ramdas Pophale) SiO2 
 PCOD9299142
Probable space group: C 2/C
;
_chemical_formula_sum "Si O2"
_cell_formula_units_Z 32
_cell_length_a 7.883537
_cell_length_b 21.920432
_cell_length_c 7.987482
_cell_angle_alpha 90.000000
_cell_angle_beta 95.517526
_cell_angle_gamma 90.000000
_cell_volume 1373.925795
_symmetry_space_group_name_H-M "C 2/C"
_symmetry_group_IT_number 15
_symmetry_cell_setting 'monoclinic'
loop_
_space_group_symop_operation_xyz
x,y,z
-x,y,1/2-z
-x,-y,-z
x,-y,1/2+z
1/2+x,1/2+y,z
1/2-x,1/2+y,1/2-z
1/2-x,1/2-y,-z
1/2+x,1/2-y,1/2+z
loop_
_atom_site_type_symbol
_atom_site_label
_atom_site_fract_x
_atom_site_fract_y
_atom_site_fract_z
Si Si1 0.771046 0.094958 0.876424
Si Si2 0.000000 0.304237 0.250000
Si Si3 0.398084 0.626356 0.408963
Si Si4 0.250000 0.750000 0.500000
Si Si5 0.305491 0.023583 0.289493
O O1 0.646923 0.151785 0.837692
O O2 0.755176 0.046277 0.725728
O O3 0.713561 0.055902 0.033534
O O4 0.959280 0.118185 0.935573
O O5 0.910831 0.265016 0.387019
O O6 0.500000 0.643912 0.250000
O O7 0.264951 0.677202 0.452308
O O8 0.308303 0.563583 0.347296
O O9 0.500000 0.025453 0.250000
#
# Coordination Sequence:
#
# PCOD9299142 Si02
#       5
#     8   4   8   4   8
#     4  11  25  45  74 114 152 196 251 318 387 458
#     4  12  28  50  78 110 154 202 262 314 382 452
#     4  10  24  47  70 110 149 203 251 310 378 456
#     4  12  26  52  72 106 152 202 264 312 370 452
#     4  11  22  43  74 107 156 193 246 313 391 455
#
# _framework density 23.290921000000001
#
# number of rings (size 3 to 8) (size 9 to 14) (size 15 to 20)
#    0.000    1.000    2.500    3.000    3.500    2.000 
#   13.500    0.000    0.000    0.000    0.000    0.000 
#    0.000    0.000    0.000    0.000    0.000    0.000 
#
# Total GULP energy -89120.069911 kJ/mol
# GULP energy per Si atom -5570.004369 kJ/mol
# Density = 2.323791 g / cm^3
# Si number density = 23.290921 Si / 1000 Ang^3
#
#
#
# Elastic Constant Matrix: (Units=GPa)
#
#
# Indices 1 2 3 4 5 6 
#
# 1 98.2872 29.5171 37.4898 0.0000 -4.2036 0.0000
# 2 29.5171 95.4551 2.6406 0.0000 -10.1554 0.0000
# 3 37.4898 2.6406 85.5352 0.0000 -13.1355 0.0000
# 4 0.0000 0.0000 0.0000 -5.7358 0.0000 -22.2584
# 5 -4.2036 -10.1554 -13.1355 0.0000 46.6852 0.0000
# 6 0.0000 0.0000 0.0000 -22.2584 0.0000 30.7602
#
#
#
# Elastic Compliance Matrix: (Units=1/GPa)
#
#
# Indices 1 2 3 4 5 6 
#
# 1 0.013705 -0.004218 -0.006091 0.000000 -0.001397 0.000000
# 2 -0.004218 0.012023 0.001903 0.000000 0.002771 0.000000
# 3 -0.006091 0.001903 0.014926 0.000000 0.004065 0.000000
# 4 0.000000 0.000000 0.000000 -0.045783 0.000000 -0.033129
# 5 -0.001397 0.002771 0.004065 0.000000 0.023041 0.000000
# 6 0.000000 0.000000 0.000000 -0.033129 0.000000 0.008537
#
#
# Mechanical properties :
#
#
# Convention : Reuss Voigt Hill
#
# Bulk Modulus (GPa) = 41.94341 46.50806 44.22573
# Shear Modulus (GPa) = 97.64232 28.31725 62.97978
#
# Velocity S-wave (km/s) = 6.48181 3.49062 5.20569
# Velocity P-wave (km/s) = 8.60617 6.02143 7.42710
#
# Compressibility (1/GPa) = 0.02384165
#
# Stress axis : x y z
#
# Youngs Moduli (GPa) = 72.96865 83.17681 66.99580
#
# Poissons Ratio (x) = 0.35084 0.40807
# Poissons Ratio (y) = 0.30778 -0.12750
# Poissons Ratio (z) = 0.44445 -0.15829
#
# Static dielectric constant tensor:
#      x y z
#    x 1.820220 0.000000 0.027580 
#    y 0.000000 1.835230 0.000000 
#    z 0.027580 0.000000 1.882140 
# 
# From -- ./inp_files/22370.got.cif
#   From: 2010.05.17/outbox.cif.g08.bks.cpg/sg15_12_cif.got.tgz:22370.got - 2010.06.03 18:47:42.
