data_PCOD9299214
_publ_section_title
;
Structure prediction by ZEFSAII (Michael W. Deem and Ramdas Pophale) SiO2 
 PCOD9299214
Probable space group: C 2/C
;
_chemical_formula_sum "Si O2"
_cell_formula_units_Z 36
_cell_length_a 15.951563
_cell_length_b 8.580658
_cell_length_c 10.513961
_cell_angle_alpha 90.000000
_cell_angle_beta 89.366442
_cell_angle_gamma 90.000000
_cell_volume 1439.009451
_symmetry_space_group_name_H-M "C 2/C"
_symmetry_group_IT_number 15
_symmetry_cell_setting 'monoclinic'
loop_
_space_group_symop_operation_xyz
x,y,z
-x,y,1/2-z
-x,-y,-z
x,-y,1/2+z
1/2+x,1/2+y,z
1/2-x,1/2+y,1/2-z
1/2-x,1/2-y,-z
1/2+x,1/2-y,1/2+z
loop_
_atom_site_type_symbol
_atom_site_label
_atom_site_fract_x
_atom_site_fract_y
_atom_site_fract_z
Si Si1 0.356577 0.517361 0.357604
Si Si2 0.885312 0.353541 0.384638
Si Si3 0.549277 0.299610 0.982164
Si Si4 0.830544 0.443124 0.124308
Si Si5 0.500000 0.656405 0.750000
O O1 0.332665 0.697285 0.357466
O O2 0.416055 0.471247 0.477162
O O3 0.268956 0.430868 0.360497
O O4 0.418544 0.457224 0.245598
O O5 0.870292 0.464795 0.264136
O O6 0.857377 0.431730 0.516709
O O7 0.023029 0.272764 0.105417
O O8 0.516852 0.247530 0.123033
O O9 0.631352 0.215095 0.931319
#
# Coordination Sequence:
#
# PCOD9299214 Si02
#       5
#     8   8   8   8   4
#     4  10  25  50  79 111 152 208 259 313 377 470
#     4  12  28  48  77 114 157 205 252 319 386 461
#     4  10  24  47  79 110 153 197 254 311 387 452
#     4  12  28  47  77 119 157 195 261 323 387 441
#     4   8  24  42  82 108 150 190 264 302 386 438
#
# _framework density 25.017209000000001
#
# number of rings (size 3 to 8) (size 9 to 14) (size 15 to 20)
#    1.333    0.000    0.000    3.333    6.222    7.111 
#    0.000    0.000    0.000    0.000    0.000    0.000 
#    0.000    0.000    0.000    0.000    0.000    0.000 
#
# Total GULP energy -100381.053440 kJ/mol
# GULP energy per Si atom -5576.725191 kJ/mol
# Density = 2.496027 g / cm^3
# Si number density = 25.017209 Si / 1000 Ang^3
#
#
#
# Elastic Constant Matrix: (Units=GPa)
#
#
# Indices 1 2 3 4 5 6 
#
# 1 77.9149 59.5215 79.7878 0.0000 26.2644 0.0000
# 2 59.5215 -3.5597 45.8659 0.0000 -13.5336 0.0000
# 3 79.7878 45.8659 194.2833 0.0000 14.9705 0.0000
# 4 0.0000 0.0000 0.0000 34.9395 0.0000 -7.0137
# 5 26.2644 -13.5336 14.9705 0.0000 29.7194 0.0000
# 6 0.0000 0.0000 0.0000 -7.0137 0.0000 23.0783
#
#
#
# Elastic Compliance Matrix: (Units=1/GPa)
#
#
# Indices 1 2 3 4 5 6 
#
# 1 0.006946 0.014891 -0.006677 0.000000 0.004005 0.000000
# 2 0.014891 -0.008753 -0.002838 0.000000 -0.015716 0.000000
# 3 -0.006677 -0.002838 0.008535 0.000000 0.000309 0.000000
# 4 0.000000 0.000000 0.000000 0.030480 0.000000 0.009263
# 5 0.004005 -0.015716 0.000309 0.000000 0.022796 0.000000
# 6 0.000000 0.000000 0.000000 0.009263 0.000000 0.046146
#
#
# Mechanical properties :
#
#
# Convention : Reuss Voigt Hill
#
# Bulk Modulus (GPa) = 57.20682 70.99878 64.10280
# Shear Modulus (GPa) = 49.39501 23.11166 36.25334
#
# Velocity S-wave (km/s) = 4.44829 3.04276 3.81088
# Velocity P-wave (km/s) = 7.02137 6.38640 6.71140
#
# Compressibility (1/GPa) = 0.01748043
#
# Stress axis : x y z
#
# Youngs Moduli (GPa) = 143.96698 -114.24412 117.16214
#
# Poissons Ratio (x) = 1.70116 0.78224
# Poissons Ratio (y) = -2.14374 0.33248
# Poissons Ratio (z) = 0.96120 -0.32420
#
# Static dielectric constant tensor:
#      x y z
#    x 2.008890 0.000000 0.038820 
#    y 0.000000 2.009500 0.000000 
#    z 0.038820 0.000000 1.987510 
# 
# From -- ./inp_files/60213.got.cif
#   From: 2010.05.17/outbox.cif.g08.bks.cpg/sg15_31_cif.got.tgz:60213.got - 2010.06.03 18:47:42.
