data_PCOD9299403
_publ_section_title
;
Structure prediction by ZEFSAII (Michael W. Deem and Ramdas Pophale) SiO2 
 PCOD9299403
Probable space group: C 2/C
;
_chemical_formula_sum "Si O2"
_cell_formula_units_Z 32
_cell_length_a 16.572287
_cell_length_b 7.832989
_cell_length_c 23.134012
_cell_angle_alpha 90.000000
_cell_angle_beta 154.097903
_cell_angle_gamma 90.000000
_cell_volume 1311.831514
_symmetry_space_group_name_H-M "C 2/C"
_symmetry_group_IT_number 15
_symmetry_cell_setting 'monoclinic'
loop_
_space_group_symop_operation_xyz
x,y,z
-x,y,1/2-z
-x,-y,-z
x,-y,1/2+z
1/2+x,1/2+y,z
1/2-x,1/2+y,1/2-z
1/2-x,1/2-y,-z
1/2+x,1/2-y,1/2+z
loop_
_atom_site_type_symbol
_atom_site_label
_atom_site_fract_x
_atom_site_fract_y
_atom_site_fract_z
Si Si1 0.901920 0.523047 0.748548
Si Si2 0.547209 0.698607 0.653426
Si Si3 0.925454 0.183286 0.079046
Si Si4 0.071661 0.225306 0.052284
O O1 0.013848 0.364196 0.849527
O O2 0.916254 0.700736 0.790735
O O3 0.000000 0.543289 0.750000
O O4 0.694795 0.448161 0.623218
O O5 0.447730 0.518871 0.599032
O O6 0.756249 0.661929 0.811618
O O7 0.512235 0.757080 0.564675
O O8 0.930896 0.226742 0.014786
O O9 0.750000 0.250000 0.000000
#
# Coordination Sequence:
#
# PCOD9299403 Si02
#       4
#     8   8   8   8
#     4  10  25  47  74 107 150 184 254 296 364 434
#     4  10  25  49  77 101 152 195 241 301 371 428
#     4  12  25  44  75 112 148 193 247 304 366 433
#     4  10  24  50  75 105 154 192 246 298 368 440
#
# _framework density 24.393377999999998
#
# number of rings (size 3 to 8) (size 9 to 14) (size 15 to 20)
#    1.500    0.000    0.000    3.750    0.000    8.000 
#    9.000    0.000    0.000    0.000    0.000    0.000 
#    0.000    0.000    0.000    0.000    0.000    0.000 
#
# Total GULP energy -89247.357205 kJ/mol
# GULP energy per Si atom -5577.959825 kJ/mol
# Density = 2.433786 g / cm^3
# Si number density = 24.393378 Si / 1000 Ang^3
#
#
#
# Elastic Constant Matrix: (Units=GPa)
#
#
# Indices 1 2 3 4 5 6 
#
# 1 231.8864 -36.9567 159.0017 0.0022 -17.8433 0.0007
# 2 -36.9567 263.5721 -124.3077 -0.0052 -35.8836 -0.0017
# 3 159.0017 -124.3077 295.4889 0.0011 -8.4076 0.0005
# 4 0.0022 -0.0052 0.0011 42.7072 0.0002 -10.2886
# 5 -17.8433 -35.8836 -8.4076 0.0002 53.4621 0.0001
# 6 0.0007 -0.0017 0.0005 -10.2886 0.0001 27.9874
#
#
#
# Elastic Compliance Matrix: (Units=1/GPa)
#
#
# Indices 1 2 3 4 5 6 
#
# 1 0.007103 -0.000783 -0.004117 0.000000 0.001198 0.000000
# 2 -0.000783 0.005578 0.002880 0.000001 0.003936 0.000001
# 3 -0.004117 0.002880 0.006858 0.000000 0.001637 0.000000
# 4 0.000000 0.000001 0.000000 0.025690 0.000000 0.009444
# 5 0.001198 0.003936 0.001637 0.000000 0.022004 0.000000
# 6 0.000000 0.000001 0.000000 0.009444 0.000000 0.039202
#
#
# Mechanical properties :
#
#
# Convention : Reuss Voigt Hill
#
# Bulk Modulus (GPa) = 64.52106 87.38023 75.95064
# Shear Modulus (GPa) = 43.23658 77.71200 60.47429
#
# Velocity S-wave (km/s) = 4.21464 5.65040 4.98449
# Velocity P-wave (km/s) = 7.08463 8.85824 8.02061
#
# Compressibility (1/GPa) = 0.01549882
#
# Stress axis : x y z
#
# Youngs Moduli (GPa) = 140.78311 179.26381 145.81617
#
# Poissons Ratio (x) = 0.14034 0.60039
# Poissons Ratio (y) = 0.11021 -0.41995
# Poissons Ratio (z) = 0.57966 -0.51628
#
# Static dielectric constant tensor:
#      x y z
#    x 1.896840 0.000000 0.065650 
#    y 0.000000 1.945080 0.000000 
#    z 0.065650 0.000000 2.176620 
# 
# From -- ./inp_files/276441.got.cif
#   From: 2010.05.17/outbox.cif.g08.bks.cpg/sg15_139_cif.got.tgz:276441.got - 2010.06.03 18:47:42.
