data_PCOD9299590
_publ_section_title
;
Structure prediction by ZEFSAII (Michael W. Deem and Ramdas Pophale) SiO2 
 PCOD9299590
Probable space group: C 2/C
;
_chemical_formula_sum "Si O2"
_cell_formula_units_Z 60
_cell_length_a 18.361857
_cell_length_b 21.085365
_cell_length_c 8.584407
_cell_angle_alpha 90.000000
_cell_angle_beta 64.033282
_cell_angle_gamma 90.000000
_cell_volume 2988.072718
_symmetry_space_group_name_H-M "C 2/C"
_symmetry_group_IT_number 15
_symmetry_cell_setting 'monoclinic'
loop_
_space_group_symop_operation_xyz
x,y,z
-x,y,1/2-z
-x,-y,-z
x,-y,1/2+z
1/2+x,1/2+y,z
1/2-x,1/2+y,1/2-z
1/2-x,1/2-y,-z
1/2+x,1/2-y,1/2+z
loop_
_atom_site_type_symbol
_atom_site_label
_atom_site_fract_x
_atom_site_fract_y
_atom_site_fract_z
Si Si1 0.156885 0.237570 0.530866
Si Si2 0.194719 0.452030 0.597339
Si Si3 0.820776 0.405059 0.422194
Si Si4 0.000000 0.156033 0.750000
Si Si5 0.804817 0.874592 0.702896
Si Si6 0.613615 0.867754 0.440564
Si Si7 0.046815 0.565556 0.471423
Si Si8 0.474137 0.569200 0.088562
O O1 0.250000 0.250000 0.500000
O O2 0.083696 0.197586 0.681510
O O3 0.167240 0.195754 0.364910
O O4 0.123777 0.307856 0.539050
O O5 0.216295 0.525847 0.582596
O O6 0.267426 0.407123 0.583034
O O7 0.158442 0.429649 0.468207
O O8 0.120103 0.438046 0.781882
O O9 0.764760 0.374373 0.603791
O O10 0.838246 0.358824 0.264392
O O11 0.909149 0.423330 0.406781
O O12 0.001995 0.115702 0.583449
O O13 0.878018 0.919001 0.686465
O O14 0.519728 0.881991 0.503201
O O15 0.000000 0.500000 0.500000
O O16 0.500000 0.578146 0.250000
O O17 0.500000 0.500000 0.000000
#
# Coordination Sequence:
#
# PCOD9299590 Si02
#       8
#     8   8   8   4   8   8   8   8
#     4  11  25  47  68  95 136 189 240 279 338 422
#     4  11  21  38  63  97 132 176 216 281 341 418
#     4  11  23  38  60 102 134 168 218 281 347 411
#     4  10  26  48  76 108 142 186 242 290 354 438
#     4  10  25  44  63  95 135 169 234 281 341 424
#     4  12  23  36  66  94 129 189 225 268 342 397
#     4  11  21  37  58  93 144 170 215 273 334 421
#     4  11  24  47  75 107 137 176 225 302 375 419
#
# _framework density 20.079833000000001
#
# number of rings (size 3 to 8) (size 9 to 14) (size 15 to 20)
#    0.000    1.067    4.667    1.600    3.733    1.600 
#    0.000    6.667    0.000    0.000    0.000    0.000 
#    0.000    0.000    0.000    0.000    0.000    0.000 
#
# Total GULP energy -167128.276104 kJ/mol
# GULP energy per Si atom -5570.942537 kJ/mol
# Density = 2.003413 g / cm^3
# Si number density = 20.079833 Si / 1000 Ang^3
#
#
#
# Elastic Constant Matrix: (Units=GPa)
#
#
# Indices 1 2 3 4 5 6 
#
# 1 82.8818 13.1531 16.3880 0.0000 -6.1129 0.0000
# 2 13.1531 74.6197 14.1326 0.0000 -7.3454 0.0000
# 3 16.3880 14.1326 83.2296 0.0000 -1.4253 0.0000
# 4 0.0000 0.0000 0.0000 20.4976 0.0000 -4.6223
# 5 -6.1129 -7.3454 -1.4253 0.0000 29.5903 0.0000
# 6 0.0000 0.0000 0.0000 -4.6223 0.0000 28.9258
#
#
#
# Elastic Compliance Matrix: (Units=1/GPa)
#
#
# Indices 1 2 3 4 5 6 
#
# 1 0.012926 -0.001644 -0.002229 0.000000 0.002155 0.000000
# 2 -0.001644 0.014391 -0.002066 0.000000 0.003133 0.000000
# 3 -0.002229 -0.002066 0.012799 0.000000 -0.000357 0.000000
# 4 0.000000 0.000000 0.000000 0.050610 0.000000 0.008087
# 5 0.002155 0.003133 -0.000357 0.000000 0.035001 0.000000
# 6 0.000000 0.000000 0.000000 0.008087 0.000000 0.035864
#
#
# Mechanical properties :
#
#
# Convention : Reuss Voigt Hill
#
# Bulk Modulus (GPa) = 35.41507 36.45317 35.93412
# Shear Modulus (GPa) = 27.34025 28.93990 28.14008
#
# Velocity S-wave (km/s) = 3.69396 3.80049 3.74760
# Velocity P-wave (km/s) = 5.98909 6.11979 6.05479
#
# Compressibility (1/GPa) = 0.02823657
#
# Stress axis : x y z
#
# Youngs Moduli (GPa) = 77.36369 69.48861 78.13357
#
# Poissons Ratio (x) = 0.11425 0.17416
# Poissons Ratio (y) = 0.12720 0.16144
# Poissons Ratio (z) = 0.17245 0.14358
#
# Static dielectric constant tensor:
#      x y z
#    x 1.747600 0.000000 0.042120 
#    y 0.000000 1.721600 0.000000 
#    z 0.042120 0.000000 1.803320 
# 
# From -- ./inp_files/50659.got.cif
#   From: 2010.05.17/outbox.cif.g08.bks.cpg/sg15_26_cif.got.tgz:50659.got - 2010.06.03 18:47:42.
