data_PCOD9299428
_publ_section_title
;
Structure prediction by ZEFSAII (Michael W. Deem and Ramdas Pophale) SiO2 
 PCOD9299428
Probable space group: C 2/C
;
_chemical_formula_sum "Si O2"
_cell_formula_units_Z 52
_cell_length_a 18.841993
_cell_length_b 17.826418
_cell_length_c 9.332743
_cell_angle_alpha 90.000000
_cell_angle_beta 47.488919
_cell_angle_gamma 90.000000
_cell_volume 2310.756242
_symmetry_space_group_name_H-M "C 2/C"
_symmetry_group_IT_number 15
_symmetry_cell_setting 'monoclinic'
loop_
_space_group_symop_operation_xyz
x,y,z
-x,y,1/2-z
-x,-y,-z
x,-y,1/2+z
1/2+x,1/2+y,z
1/2-x,1/2+y,1/2-z
1/2-x,1/2-y,-z
1/2+x,1/2-y,1/2+z
loop_
_atom_site_type_symbol
_atom_site_label
_atom_site_fract_x
_atom_site_fract_y
_atom_site_fract_z
Si Si1 0.500000 0.099545 0.250000
Si Si2 0.500000 0.160512 0.750000
Si Si3 0.723525 0.263827 0.197771
Si Si4 0.327501 0.197728 0.816479
Si Si5 0.122464 0.079724 0.837129
Si Si6 0.824227 0.543617 0.686021
Si Si7 0.121812 0.383371 0.838696
Si Si8 0.000000 0.004339 0.750000
O O1 0.421541 0.058205 0.460347
O O2 0.434206 0.142333 0.225841
O O3 0.427155 0.210557 0.758633
O O4 0.548582 0.107845 0.567903
O O5 0.816611 0.283890 0.164236
O O6 0.645175 0.330771 0.316046
O O7 0.687406 0.183945 0.301525
O O8 0.750000 0.250000 0.000000
O O9 0.312929 0.107578 0.824881
O O10 0.250000 0.250000 0.000000
O O11 0.230631 0.047480 0.711782
O O12 0.069434 0.053666 0.762016
O O13 0.061206 0.047125 0.055186
O O14 0.829115 0.462456 0.751186
#
# Coordination Sequence:
#
# PCOD9299428 Si02
#       8
#     4   4   8   8   8   8   8   4
#     4  12  25  43  69 112 144 185 240 292 369 451
#     4  12  25  45  70 109 142 193 236 296 372 428
#     4  11  26  48  69 107 145 190 243 299 371 429
#     4  11  24  49  69 102 146 187 243 294 358 435
#     4  10  25  49  76 107 144 189 250 310 362 433
#     4  11  26  43  75 107 146 190 240 300 365 441
#     4  12  26  42  72 102 148 189 236 299 367 445
#     4  10  24  52  77 107 138 196 258 306 365 425
#
# _framework density 22.503454999999999
#
# number of rings (size 3 to 8) (size 9 to 14) (size 15 to 20)
#    0.000    0.923    3.077    2.769    6.462    2.462 
#    0.000    0.000    0.000    0.000    0.000    0.000 
#    0.000    0.000    0.000    0.000    0.000    0.000 
#
# Total GULP energy -145112.549330 kJ/mol
# GULP energy per Si atom -5581.251897 kJ/mol
# Density = 2.245224 g / cm^3
# Si number density = 22.503455 Si / 1000 Ang^3
#
#
#
# Elastic Constant Matrix: (Units=GPa)
#
#
# Indices 1 2 3 4 5 6 
#
# 1 189.4479 51.5775 35.8260 0.0000 14.2061 0.0000
# 2 51.5775 135.7577 45.6555 0.0000 -5.5070 0.0000
# 3 35.8260 45.6555 106.9451 0.0000 10.9486 0.0000
# 4 0.0000 0.0000 0.0000 30.3406 0.0000 -4.5250
# 5 14.2061 -5.5070 10.9486 0.0000 40.1207 0.0000
# 6 0.0000 0.0000 0.0000 -4.5250 0.0000 11.8203
#
#
#
# Elastic Compliance Matrix: (Units=1/GPa)
#
#
# Indices 1 2 3 4 5 6 
#
# 1 0.006204 -0.002132 -0.000940 0.000000 -0.002233 0.000000
# 2 -0.002132 0.009534 -0.003670 0.000000 0.003065 0.000000
# 3 -0.000940 -0.003670 0.011573 0.000000 -0.003329 0.000000
# 4 0.000000 0.000000 0.000000 0.034955 0.000000 0.013381
# 5 -0.002233 0.003065 -0.003329 0.000000 0.027045 0.000000
# 6 0.000000 0.000000 0.000000 0.013381 0.000000 0.089722
#
#
# Mechanical properties :
#
#
# Convention : Reuss Voigt Hill
#
# Bulk Modulus (GPa) = 72.31311 77.58542 74.94927
# Shear Modulus (GPa) = 25.36454 36.39578 30.88016
#
# Velocity S-wave (km/s) = 3.36093 4.02598 3.70840
# Velocity P-wave (km/s) = 6.87497 7.49422 7.19126
#
# Compressibility (1/GPa) = 0.01382875
#
# Stress axis : x y z
#
# Youngs Moduli (GPa) = 161.18729 104.88261 86.40810
#
# Poissons Ratio (x) = 0.22357 0.08120
# Poissons Ratio (y) = 0.34358 0.31712
# Poissons Ratio (z) = 0.15147 0.38492
#
# Static dielectric constant tensor:
#      x y z
#    x 1.870530 0.000000 -0.027370 
#    y 0.000000 1.970110 0.000000 
#    z -0.027370 0.000000 1.450970 
# 
# From -- ./inp_files/48977.got.cif
#   From: 2010.05.17/outbox.cif.g08.bks.cpg/sg15_25_cif.got.tgz:48977.got - 2010.06.03 18:47:42.
