data_PCOD9299708
_publ_section_title
;
Structure prediction by ZEFSAII (Michael W. Deem and Ramdas Pophale) SiO2 
 PCOD9299708
Probable space group: C 2/C
;
_chemical_formula_sum "Si O2"
_cell_formula_units_Z 40
_cell_length_a 23.045781
_cell_length_b 8.705286
_cell_length_c 18.514601
_cell_angle_alpha 90.000000
_cell_angle_beta 153.060215
_cell_angle_gamma 90.000000
_cell_volume 1682.823829
_symmetry_space_group_name_H-M "C 2/C"
_symmetry_group_IT_number 15
_symmetry_cell_setting 'monoclinic'
loop_
_space_group_symop_operation_xyz
x,y,z
-x,y,1/2-z
-x,-y,-z
x,-y,1/2+z
1/2+x,1/2+y,z
1/2-x,1/2+y,1/2-z
1/2-x,1/2-y,-z
1/2+x,1/2-y,1/2+z
loop_
_atom_site_type_symbol
_atom_site_label
_atom_site_fract_x
_atom_site_fract_y
_atom_site_fract_z
Si Si1 0.473227 0.836885 0.906708
Si Si2 0.797261 0.109632 0.333969
Si Si3 0.560572 0.588380 0.395659
Si Si4 0.424699 0.061591 0.592674
Si Si5 0.656882 0.461496 0.264886
O O1 0.355862 0.863894 0.832550
O O2 0.410390 0.698065 0.791619
O O3 0.495741 0.988115 0.884648
O O4 0.610933 0.758553 0.078943
O O5 0.830497 0.993272 0.306243
O O6 0.842240 0.031439 0.459319
O O7 0.500000 0.550775 0.250000
O O8 0.614766 0.760212 0.457603
O O9 0.436001 0.591298 0.308381
O O10 0.500000 0.047351 0.750000
O O11 0.294897 0.966340 0.452035
#
# Coordination Sequence:
#
# PCOD9299708 Si02
#       5
#     8   8   8   8   8
#     4  11  24  47  68 105 134 187 225 288 347 406
#     4  11  26  46  74 104 141 180 236 284 351 409
#     4  10  25  45  70 101 140 186 228 287 347 410
#     4  11  27  43  70 104 139 183 235 285 348 413
#     4  11  26  46  70 103 141 178 237 285 346 416
#
# _framework density 23.769570000000002
#
# number of rings (size 3 to 8) (size 9 to 14) (size 15 to 20)
#    0.000    1.200    2.000    2.400   11.200    6.400 
#    0.000    0.000    0.000    0.000    0.000    0.000 
#    0.000    0.000    0.000    0.000    0.000    0.000 
#
# Total GULP energy -111733.089659 kJ/mol
# GULP energy per Si atom -5586.654483 kJ/mol
# Density = 2.371547 g / cm^3
# Si number density = 23.769570 Si / 1000 Ang^3
#
#
#
# Elastic Constant Matrix: (Units=GPa)
#
#
# Indices 1 2 3 4 5 6 
#
# 1 72.5517 26.0240 45.7548 0.0000 15.5770 0.0000
# 2 26.0240 76.8289 38.4468 0.0000 -12.3583 0.0000
# 3 45.7548 38.4468 94.2279 0.0000 6.0537 0.0000
# 4 0.0000 0.0000 0.0000 21.5999 0.0000 0.5005
# 5 15.5770 -12.3583 6.0537 0.0000 42.9057 0.0000
# 6 0.0000 0.0000 0.0000 0.5005 0.0000 31.8821
#
#
#
# Elastic Compliance Matrix: (Units=1/GPa)
#
#
# Indices 1 2 3 4 5 6 
#
# 1 0.022673 -0.004765 -0.008525 0.000000 -0.008401 0.000000
# 2 -0.004765 0.018868 -0.005899 0.000000 0.007997 0.000000
# 3 -0.008525 -0.005899 0.017225 0.000000 -0.001034 0.000000
# 4 0.000000 0.000000 0.000000 0.046313 0.000000 -0.000727
# 5 -0.008401 0.007997 -0.001034 0.000000 0.028806 0.000000
# 6 0.000000 0.000000 0.000000 -0.000727 0.000000 0.031377
#
#
# Mechanical properties :
#
#
# Convention : Reuss Voigt Hill
#
# Bulk Modulus (GPa) = 49.04736 51.56218 50.30477
# Shear Modulus (GPa) = 23.76013 28.16972 25.96492
#
# Velocity S-wave (km/s) = 3.16508 3.44629 3.30867
# Velocity P-wave (km/s) = 5.83406 6.12988 5.98380
#
# Compressibility (1/GPa) = 0.02038846
#
# Stress axis : x y z
#
# Youngs Moduli (GPa) = 44.10598 52.99979 58.05350
#
# Poissons Ratio (x) = 0.25254 0.49493
# Poissons Ratio (y) = 0.21016 0.34243
# Poissons Ratio (z) = 0.37602 0.31262
#
# Static dielectric constant tensor:
#      x y z
#    x 1.918290 0.000000 0.015600 
#    y 0.000000 1.954770 0.000000 
#    z 0.015600 0.000000 1.896840 
# 
# From -- ./inp_files/218834.got.cif
#   From: 2010.05.17/outbox.cif.g08.bks.cpg/sg15_110_cif.got.tgz:218834.got - 2010.06.03 18:47:42.
