data_PCOD9299739
_publ_section_title
;
Structure prediction by ZEFSAII (Michael W. Deem and Ramdas Pophale) SiO2 
 PCOD9299739
Probable space group: C 2/C
;
_chemical_formula_sum "Si O2"
_cell_formula_units_Z 32
_cell_length_a 11.389727
_cell_length_b 14.966217
_cell_length_c 9.793539
_cell_angle_alpha 90.000000
_cell_angle_beta 127.204780
_cell_angle_gamma 90.000000
_cell_volume 1329.656921
_symmetry_space_group_name_H-M "C 2/C"
_symmetry_group_IT_number 15
_symmetry_cell_setting 'monoclinic'
loop_
_space_group_symop_operation_xyz
x,y,z
-x,y,1/2-z
-x,-y,-z
x,-y,1/2+z
1/2+x,1/2+y,z
1/2-x,1/2+y,1/2-z
1/2-x,1/2-y,-z
1/2+x,1/2-y,1/2+z
loop_
_atom_site_type_symbol
_atom_site_label
_atom_site_fract_x
_atom_site_fract_y
_atom_site_fract_z
Si Si1 0.211681 0.783172 0.323146
Si Si2 0.347049 0.479393 0.314441
Si Si3 0.034350 0.262775 0.459983
Si Si4 0.739093 0.396256 0.992066
O O1 0.250000 0.750000 0.500000
O O2 0.163503 0.886736 0.278199
O O3 0.083496 0.732018 0.152959
O O4 0.359186 0.766576 0.336458
O O5 0.500000 0.500000 0.500000
O O6 0.238970 0.464511 0.367048
O O7 0.312242 0.554981 0.181090
O O8 0.114818 0.342525 0.440371
O O9 0.112889 0.173583 0.455578
#
# Coordination Sequence:
#
# PCOD9299739 Si02
#       4
#     8   8   8   8
#     4  11  26  47  75 112 151 200 259 317 381 460
#     4  11  26  43  73 111 152 194 254 314 383 450
#     4  10  25  46  76 105 153 204 249 310 389 468
#     4  10  25  45  74 108 152 199 253 310 390 456
#
# _framework density 24.06636
#
# number of rings (size 3 to 8) (size 9 to 14) (size 15 to 20)
#    0.000    1.500    0.000    1.500   14.000   13.000 
#    0.000    0.000    0.000    0.000    0.000    0.000 
#    0.000    0.000    0.000    0.000    0.000    0.000 
#
# Total GULP energy -89587.736703 kJ/mol
# GULP energy per Si atom -5599.233544 kJ/mol
# Density = 2.401158 g / cm^3
# Si number density = 24.066360 Si / 1000 Ang^3
#
#
#
# Elastic Constant Matrix: (Units=GPa)
#
#
# Indices 1 2 3 4 5 6 
#
# 1 98.7880 43.9809 25.7353 0.0000 0.3491 0.0000
# 2 43.9809 105.4103 70.7036 0.0000 -12.1813 0.0000
# 3 25.7353 70.7036 187.8069 0.0000 -24.4575 0.0000
# 4 0.0000 0.0000 0.0000 51.7555 0.0000 -12.6525
# 5 0.3491 -12.1813 -24.4575 0.0000 48.4700 0.0000
# 6 0.0000 0.0000 0.0000 -12.6525 0.0000 31.1181
#
#
#
# Elastic Compliance Matrix: (Units=1/GPa)
#
#
# Indices 1 2 3 4 5 6 
#
# 1 0.012534 -0.005507 0.000175 0.000000 -0.001386 0.000000
# 2 -0.005507 0.015143 -0.004758 0.000000 0.001444 0.000000
# 3 0.000175 -0.004758 0.007424 0.000000 0.002549 0.000000
# 4 0.000000 0.000000 0.000000 0.021454 0.000000 0.008723
# 5 -0.001386 0.001444 0.002549 0.000000 0.022290 0.000000
# 6 0.000000 0.000000 0.000000 0.008723 0.000000 0.035682
#
#
# Mechanical properties :
#
#
# Convention : Reuss Voigt Hill
#
# Bulk Modulus (GPa) = 67.02204 74.76053 70.89128
# Shear Modulus (GPa) = 35.79581 43.04110 39.41845
#
# Velocity S-wave (km/s) = 3.86084 4.23358 4.05150
# Velocity P-wave (km/s) = 6.91260 7.41817 7.16985
#
# Compressibility (1/GPa) = 0.01492046
#
# Stress axis : x y z
#
# Youngs Moduli (GPa) = 79.78438 66.03723 134.70169
#
# Poissons Ratio (x) = 0.36369 -0.02362
# Poissons Ratio (y) = 0.43940 0.64092
# Poissons Ratio (z) = -0.01399 0.31421
#
# Static dielectric constant tensor:
#      x y z
#    x 1.922920 0.000000 -0.070550 
#    y 0.000000 1.964250 0.000000 
#    z -0.070550 0.000000 1.989860 
# 
# From -- ./inp_files/28872.got.cif
#   From: 2010.05.17/outbox.cif.g08.bks.cpg/sg15_15_cif.got.tgz:28872.got - 2010.06.03 18:47:42.
