data_PCOD9299881
_publ_section_title
;
Structure prediction by ZEFSAII (Michael W. Deem and Ramdas Pophale) SiO2 
 PCOD9299881
Probable space group: C 2/C
;
_chemical_formula_sum "Si O2"
_cell_formula_units_Z 48
_cell_length_a 20.445925
_cell_length_b 5.394023
_cell_length_c 18.583493
_cell_angle_alpha 90.000000
_cell_angle_beta 82.431669
_cell_angle_gamma 90.000000
_cell_volume 2031.641004
_symmetry_space_group_name_H-M "C 2/C"
_symmetry_group_IT_number 15
_symmetry_cell_setting 'monoclinic'
loop_
_space_group_symop_operation_xyz
x,y,z
-x,y,1/2-z
-x,-y,-z
x,-y,1/2+z
1/2+x,1/2+y,z
1/2-x,1/2+y,1/2-z
1/2-x,1/2-y,-z
1/2+x,1/2-y,1/2+z
loop_
_atom_site_type_symbol
_atom_site_label
_atom_site_fract_x
_atom_site_fract_y
_atom_site_fract_z
Si Si1 0.791113 0.210731 0.748411
Si Si2 0.748736 0.500226 0.955175
Si Si3 0.500466 0.145335 0.424116
Si Si4 0.374244 0.141865 0.353181
Si Si5 0.440626 0.177875 0.716124
Si Si6 0.123905 0.941915 0.376591
O O1 0.749985 0.463960 0.764019
O O2 0.839361 0.271028 0.674493
O O3 0.666955 0.654370 0.685538
O O4 0.816127 0.508697 0.899761
O O5 0.679651 0.479822 0.923344
O O6 0.750000 0.750000 0.000000
O O7 0.750000 0.250000 0.000000
O O8 0.428470 0.222582 0.404208
O O9 0.554951 0.361714 0.421279
O O10 0.500000 0.000000 0.500000
O O11 0.527565 0.977768 0.354053
O O12 0.408465 0.987288 0.283628
O O13 0.500000 0.318442 0.750000
O O14 0.392101 0.360849 0.682813
#
# Coordination Sequence:
#
# PCOD9299881 Si02
#       6
#     8   8   8   8   8   8
#     4  12  26  45  78 117 149 198 255 320 387 452
#     4  12  31  50  77 113 160 208 254 318 395 467
#     4  11  26  49  74 109 155 204 258 318 397 466
#     4  11  25  49  79 110 159 196 265 322 384 466
#     4  10  25  47  76 113 148 203 258 322 385 463
#     4  12  27  45  80 107 158 198 267 317 392 469
#
# _framework density 23.62622
#
# number of rings (size 3 to 8) (size 9 to 14) (size 15 to 20)
#    0.000    0.667    3.333    2.000    9.333    0.667 
#    3.000    0.000    0.000    0.000    0.000    0.000 
#    0.000    0.000    0.000    0.000    0.000    0.000 
#
# Total GULP energy -134141.338644 kJ/mol
# GULP energy per Si atom -5589.222444 kJ/mol
# Density = 2.357245 g / cm^3
# Si number density = 23.626220 Si / 1000 Ang^3
#
#
#
# Elastic Constant Matrix: (Units=GPa)
#
#
# Indices 1 2 3 4 5 6 
#
# 1 207.4424 43.9625 75.6600 0.0000 47.5288 0.0000
# 2 43.9625 74.4460 39.3066 0.0000 13.1173 0.0000
# 3 75.6600 39.3066 131.7313 0.0000 18.1748 0.0000
# 4 0.0000 0.0000 0.0000 25.9724 0.0000 7.5804
# 5 47.5288 13.1173 18.1748 0.0000 54.9832 0.0000
# 6 0.0000 0.0000 0.0000 7.5804 0.0000 32.2893
#
#
#
# Elastic Compliance Matrix: (Units=1/GPa)
#
#
# Indices 1 2 3 4 5 6 
#
# 1 0.007483 -0.001938 -0.003029 0.000000 -0.005005 0.000000
# 2 -0.001938 0.016738 -0.003732 0.000000 -0.001085 0.000000
# 3 -0.003029 -0.003732 0.010436 0.000000 0.000059 0.000000
# 4 0.000000 0.000000 0.000000 0.041335 0.000000 -0.009704
# 5 -0.005005 -0.001085 0.000059 0.000000 0.022753 0.000000
# 6 0.000000 0.000000 0.000000 -0.009704 0.000000 0.033248
#
#
# Mechanical properties :
#
#
# Convention : Reuss Voigt Hill
#
# Bulk Modulus (GPa) = 57.93678 81.27533 69.60605
# Shear Modulus (GPa) = 32.22823 39.62837 35.92830
#
# Velocity S-wave (km/s) = 3.69736 4.09993 3.90384
# Velocity P-wave (km/s) = 6.54238 7.54240 7.06012
#
# Compressibility (1/GPa) = 0.01726019
#
# Stress axis : x y z
#
# Youngs Moduli (GPa) = 133.64187 59.74317 95.81887
#
# Poissons Ratio (x) = 0.11576 0.29024
# Poissons Ratio (y) = 0.25895 0.35759
# Poissons Ratio (z) = 0.40481 0.22296
#
# Static dielectric constant tensor:
#      x y z
#    x 2.061490 0.000000 -0.020480 
#    y 0.000000 2.113440 0.000000 
#    z -0.020480 0.000000 1.917860 
# 
# From -- ./inp_files/250783.got.cif
#   From: 2010.05.17/outbox.cif.g08.bks.cpg/sg15_126_cif.got.tgz:250783.got - 2010.06.03 18:47:42.
