data_PCOD9299858
_publ_section_title
;
Structure prediction by ZEFSAII (Michael W. Deem and Ramdas Pophale) SiO2 
 PCOD9299858
Probable space group: C 2/C
;
_chemical_formula_sum "Si O2"
_cell_formula_units_Z 64
_cell_length_a 25.501425
_cell_length_b 9.739889
_cell_length_c 10.536392
_cell_angle_alpha 90.000000
_cell_angle_beta 84.755599
_cell_angle_gamma 90.000000
_cell_volume 2606.084811
_symmetry_space_group_name_H-M "C 2/C"
_symmetry_group_IT_number 15
_symmetry_cell_setting 'monoclinic'
loop_
_space_group_symop_operation_xyz
x,y,z
-x,y,1/2-z
-x,-y,-z
x,-y,1/2+z
1/2+x,1/2+y,z
1/2-x,1/2+y,1/2-z
1/2-x,1/2-y,-z
1/2+x,1/2-y,1/2+z
loop_
_atom_site_type_symbol
_atom_site_label
_atom_site_fract_x
_atom_site_fract_y
_atom_site_fract_z
Si Si1 0.290197 0.589459 0.485938
Si Si2 0.464032 0.301531 0.043937
Si Si3 0.634670 0.718792 0.246293
Si Si4 0.051544 0.427498 0.149890
Si Si5 0.219192 0.182080 0.395747
Si Si6 0.903527 0.712323 0.294404
Si Si7 0.200481 0.348568 0.839837
Si Si8 0.417707 0.415933 0.507354
O O1 0.425605 0.580748 0.492457
O O2 0.328844 0.643834 0.366731
O O3 0.230777 0.565519 0.443983
O O4 0.290460 0.699626 0.598267
O O5 0.445739 0.279528 0.190994
O O6 0.522669 0.356803 0.016592
O O7 0.460245 0.154235 0.976286
O O8 0.597839 0.835527 0.200240
O O9 0.678292 0.779467 0.333400
O O10 0.600451 0.620270 0.344837
O O11 0.072638 0.581780 0.137280
O O12 0.000000 0.424877 0.250000
O O13 0.250000 0.250000 0.500000
O O14 0.261873 0.129726 0.287072
O O15 0.190182 0.048948 0.455893
O O16 0.857536 0.657342 0.208593
O O17 0.889415 0.828091 0.401219
#
# Coordination Sequence:
#
# PCOD9299858 Si02
#       8
#     8   8   8   8   8   8   8   8
#     4  10  25  49  73 105 150 195 246 314 391 454
#     4  11  27  48  73 106 158 201 260 324 383 465
#     4  11  26  45  74 107 147 200 255 311 383 465
#     4  12  27  47  76 109 157 208 257 325 397 459
#     4  11  26  42  75 108 145 187 248 312 382 459
#     4  12  28  46  78 112 154 201 266 321 396 469
#     4  10  25  47  72 103 143 195 241 312 380 464
#     4  11  26  47  75 109 149 203 259 322 388 454
#
# _framework density 24.557911000000001
#
# number of rings (size 3 to 8) (size 9 to 14) (size 15 to 20)
#    0.000    1.000    1.250    2.625   12.250    4.000 
#    0.000    0.000    0.000    0.000    0.000    0.000 
#    0.000    0.000    0.000    0.000    0.000    0.000 
#
# Total GULP energy -178951.386149 kJ/mol
# GULP energy per Si atom -5592.230817 kJ/mol
# Density = 2.450202 g / cm^3
# Si number density = 24.557911 Si / 1000 Ang^3
#
#
#
# Elastic Constant Matrix: (Units=GPa)
#
#
# Indices 1 2 3 4 5 6 
#
# 1 92.2400 12.6941 8.4116 0.0000 5.8191 0.0000
# 2 12.6941 108.3480 57.2792 0.0000 -13.8102 0.0000
# 3 8.4116 57.2792 105.3798 0.0000 -8.2789 0.0000
# 4 0.0000 0.0000 0.0000 23.7053 0.0000 -1.6782
# 5 5.8191 -13.8102 -8.2789 0.0000 39.9018 0.0000
# 6 0.0000 0.0000 0.0000 -1.6782 0.0000 28.2951
#
#
#
# Elastic Compliance Matrix: (Units=1/GPa)
#
#
# Indices 1 2 3 4 5 6 
#
# 1 0.011204 -0.001443 -0.000282 0.000000 -0.002192 0.000000
# 2 -0.001443 0.013518 -0.006962 0.000000 0.003445 0.000000
# 3 -0.000282 -0.006962 0.013327 0.000000 0.000397 0.000000
# 4 0.000000 0.000000 0.000000 0.042363 0.000000 0.002513
# 5 -0.002192 0.003445 0.000397 0.000000 0.026656 0.000000
# 6 0.000000 0.000000 0.000000 0.002513 0.000000 0.035491
#
#
# Mechanical properties :
#
#
# Convention : Reuss Voigt Hill
#
# Bulk Modulus (GPa) = 48.36707 51.41531 49.89119
# Shear Modulus (GPa) = 29.97165 33.55264 31.76215
#
# Velocity S-wave (km/s) = 3.49728 3.70031 3.60023
# Velocity P-wave (km/s) = 6.00382 6.26404 6.13531
#
# Compressibility (1/GPa) = 0.02067523
#
# Stress axis : x y z
#
# Youngs Moduli (GPa) = 89.25495 73.97477 75.03357
#
# Poissons Ratio (x) = 0.10673 0.02118
# Poissons Ratio (y) = 0.12878 0.52238
# Poissons Ratio (z) = 0.02520 0.51501
#
# Static dielectric constant tensor:
#      x y z
#    x 1.943930 0.000000 -0.022660 
#    y 0.000000 1.909220 0.000000 
#    z -0.022660 0.000000 1.870450 
# 
# From -- ./inp_files/107126.got.cif
#   From: 2010.05.17/outbox.cif.g08.bks.cpg/sg15_54_cif.got.tgz:107126.got - 2010.06.03 18:47:42.
