data_PCOD9299948
_publ_section_title
;
Structure prediction by ZEFSAII (Michael W. Deem and Ramdas Pophale) SiO2 
 PCOD9299948
Probable space group: C 2/C
;
_chemical_formula_sum "Si O2"
_cell_formula_units_Z 56
_cell_length_a 12.063927
_cell_length_b 8.064878
_cell_length_c 29.439318
_cell_angle_alpha 90.000000
_cell_angle_beta 118.344627
_cell_angle_gamma 90.000000
_cell_volume 2520.868141
_symmetry_space_group_name_H-M "C 2/C"
_symmetry_group_IT_number 15
_symmetry_cell_setting 'monoclinic'
loop_
_space_group_symop_operation_xyz
x,y,z
-x,y,1/2-z
-x,-y,-z
x,-y,1/2+z
1/2+x,1/2+y,z
1/2-x,1/2+y,1/2-z
1/2-x,1/2-y,-z
1/2+x,1/2-y,1/2+z
loop_
_atom_site_type_symbol
_atom_site_label
_atom_site_fract_x
_atom_site_fract_y
_atom_site_fract_z
Si Si1 0.992489 0.786643 0.415836
Si Si2 0.142654 0.320775 0.364313
Si Si3 0.242565 0.410330 0.952375
Si Si4 0.625272 0.389397 0.941036
Si Si5 0.416244 0.626412 0.279629
Si Si6 0.690171 0.694015 0.690936
Si Si7 0.989911 0.306047 0.486293
O O1 0.127069 0.701181 0.446067
O O2 0.942595 0.782415 0.457499
O O3 0.912378 0.708617 0.359843
O O4 0.017438 0.977285 0.409571
O O5 0.180163 0.478772 0.401254
O O6 0.185110 0.166997 0.405438
O O7 0.213973 0.353936 0.331065
O O8 0.000974 0.259536 0.324337
O O9 0.355097 0.288755 0.957310
O O10 0.291101 0.522680 0.003911
O O11 0.560999 0.234733 0.953705
O O12 0.500000 0.596488 0.250000
O O13 0.381755 0.453674 0.297407
O O14 0.279951 0.703447 0.241404
O O15 0.000000 0.500000 0.500000
#
# Coordination Sequence:
#
# PCOD9299948 Si02
#       7
#     8   8   8   8   8   8   8
#     4  11  23  41  65 100 139 183 234 278 342 417
#     4  11  23  44  72 100 136 184 228 286 350 413
#     4  11  24  38  65 106 141 187 233 273 340 417
#     4  11  21  41  67  96 143 186 223 279 339 408
#     4  10  25  49  73 100 133 177 234 298 358 417
#     4  11  24  48  72  97 134 177 230 288 359 414
#     4  11  23  41  64 100 148 188 230 278 336 410
#
# _framework density 22.214569999999998
#
# number of rings (size 3 to 8) (size 9 to 14) (size 15 to 20)
#    0.000    1.143    1.429    6.429    2.000    3.429 
#    2.571    0.000    0.000    0.000    0.000    0.000 
#    0.000    0.000    0.000    0.000    0.000    0.000 
#
# Total GULP energy -156195.085468 kJ/mol
# GULP energy per Si atom -5578.395910 kJ/mol
# Density = 2.216401 g / cm^3
# Si number density = 22.214570 Si / 1000 Ang^3
#
#
#
# Elastic Constant Matrix: (Units=GPa)
#
#
# Indices 1 2 3 4 5 6 
#
# 1 79.8711 10.3415 34.2583 0.0000 20.3730 0.0000
# 2 10.3415 54.9112 12.6041 0.0000 -9.0090 0.0000
# 3 34.2583 12.6041 107.9169 0.0000 14.2054 0.0000
# 4 0.0000 0.0000 0.0000 30.4530 0.0000 -0.3402
# 5 20.3730 -9.0090 14.2054 0.0000 36.9936 0.0000
# 6 0.0000 0.0000 0.0000 -0.3402 0.0000 42.5373
#
#
#
# Elastic Compliance Matrix: (Units=1/GPa)
#
#
# Indices 1 2 3 4 5 6 
#
# 1 0.016849 -0.003745 -0.003760 0.000000 -0.008747 0.000000
# 2 -0.003745 0.020753 -0.002287 0.000000 0.007995 0.000000
# 3 -0.003760 -0.002287 0.011088 0.000000 -0.002744 0.000000
# 4 0.000000 0.000000 0.000000 0.032840 0.000000 0.000263
# 5 -0.008747 0.007995 -0.002744 0.000000 0.034850 0.000000
# 6 0.000000 0.000000 0.000000 0.000263 0.000000 0.023511
#
#
# Mechanical properties :
#
#
# Convention : Reuss Voigt Hill
#
# Bulk Modulus (GPa) = 34.35756 39.67855 37.01806
# Shear Modulus (GPa) = 29.55453 34.36311 31.95882
#
# Velocity S-wave (km/s) = 3.65144 3.93730 3.79706
# Velocity P-wave (km/s) = 5.76863 6.21048 5.99363
#
# Compressibility (1/GPa) = 0.02910567
#
# Stress axis : x y z
#
# Youngs Moduli (GPa) = 59.35063 48.18514 90.18473
#
# Poissons Ratio (x) = 0.18047 0.33908
# Poissons Ratio (y) = 0.22229 0.20628
# Poissons Ratio (z) = 0.22315 0.11021
#
# Static dielectric constant tensor:
#      x y z
#    x 1.905050 0.000000 0.029510 
#    y 0.000000 1.848220 0.000000 
#    z 0.029510 0.000000 1.864380 
# 
# From -- ./inp_files/291603.got.cif
#   From: 2010.05.17/outbox.cif.g08.bks.cpg/sg15_146_cif.got.tgz:291603.got - 2010.06.03 18:47:42.
