data_PCOD9299673
_publ_section_title
;
Structure prediction by ZEFSAII (Michael W. Deem and Ramdas Pophale) SiO2 
 PCOD9299673
Probable space group: C 2/C
;
_chemical_formula_sum "Si O2"
_cell_formula_units_Z 40
_cell_length_a 7.995213
_cell_length_b 12.618677
_cell_length_c 18.468126
_cell_angle_alpha 90.000000
_cell_angle_beta 90.932820
_cell_angle_gamma 90.000000
_cell_volume 1862.984024
_symmetry_space_group_name_H-M "C 2/C"
_symmetry_group_IT_number 15
_symmetry_cell_setting 'monoclinic'
loop_
_space_group_symop_operation_xyz
x,y,z
-x,y,1/2-z
-x,-y,-z
x,-y,1/2+z
1/2+x,1/2+y,z
1/2-x,1/2+y,1/2-z
1/2-x,1/2-y,-z
1/2+x,1/2-y,1/2+z
loop_
_atom_site_type_symbol
_atom_site_label
_atom_site_fract_x
_atom_site_fract_y
_atom_site_fract_z
Si Si1 0.861946 0.111438 0.385413
Si Si2 0.809384 0.886956 0.323873
Si Si3 0.810410 0.831276 0.159391
Si Si4 0.610475 0.240769 0.938936
Si Si5 0.853757 0.417425 0.478524
O O1 0.760743 0.214282 0.357189
O O2 0.786240 0.075452 0.461686
O O3 0.050385 0.151828 0.400316
O O4 0.838675 0.011940 0.333492
O O5 0.765563 0.861197 0.241118
O O6 0.672187 0.841097 0.378158
O O7 0.988508 0.834169 0.344357
O O8 0.730453 0.913558 0.101207
O O9 0.449002 0.195267 0.979516
O O10 0.750000 0.250000 0.000000
O O11 0.000000 0.500000 0.500000
#
# Coordination Sequence:
#
# PCOD9299673 Si02
#       5
#     8   8   8   8   8
#     4  11  24  45  66  97 137 171 223 281 327 395
#     4  11  24  45  66  98 133 181 215 277 344 392
#     4  10  25  45  63  98 138 166 231 271 329 414
#     4  11  23  40  70 100 131 175 228 269 334 400
#     4  11  22  42  67  96 130 173 220 276 329 392
#
# _framework density 21.470929000000002
#
# number of rings (size 3 to 8) (size 9 to 14) (size 15 to 20)
#    0.000    1.200    2.000    4.800    2.800    8.000 
#    7.200    0.000    0.000    0.000    0.000    0.000 
#    0.000    0.000    0.000    0.000    0.000    0.000 
#
# Total GULP energy -111791.167354 kJ/mol
# GULP energy per Si atom -5589.558368 kJ/mol
# Density = 2.142206 g / cm^3
# Si number density = 21.470929 Si / 1000 Ang^3
#
#
#
# Elastic Constant Matrix: (Units=GPa)
#
#
# Indices 1 2 3 4 5 6 
#
# 1 63.0360 23.3992 31.8621 0.0000 18.5572 0.0000
# 2 23.3992 109.2543 41.4448 0.0000 14.2145 0.0000
# 3 31.8621 41.4448 131.7658 0.0000 28.5906 0.0000
# 4 0.0000 0.0000 0.0000 25.3065 0.0000 0.2462
# 5 18.5572 14.2145 28.5906 0.0000 34.3191 0.0000
# 6 0.0000 0.0000 0.0000 0.2462 0.0000 41.4981
#
#
#
# Elastic Compliance Matrix: (Units=1/GPa)
#
#
# Indices 1 2 3 4 5 6 
#
# 1 0.020330 -0.002394 -0.002433 0.000000 -0.007975 0.000000
# 2 -0.002394 0.010781 -0.002593 0.000000 -0.001011 0.000000
# 3 -0.002433 -0.002593 0.010344 0.000000 -0.006228 0.000000
# 4 0.000000 0.000000 0.000000 0.039518 0.000000 -0.000234
# 5 -0.007975 -0.001011 -0.006228 0.000000 0.039058 0.000000
# 6 0.000000 0.000000 0.000000 -0.000234 0.000000 0.024099
#
#
# Mechanical properties :
#
#
# Convention : Reuss Voigt Hill
#
# Bulk Modulus (GPa) = 37.57026 55.27423 46.42225
# Shear Modulus (GPa) = 29.79029 34.04810 31.91919
#
# Velocity S-wave (km/s) = 3.72892 3.98650 3.85986
# Velocity P-wave (km/s) = 6.00633 6.85487 6.44458
#
# Compressibility (1/GPa) = 0.02661680
#
# Stress axis : x y z
#
# Youngs Moduli (GPa) = 49.18879 92.75857 96.67061
#
# Poissons Ratio (x) = 0.22204 0.23516
# Poissons Ratio (y) = 0.11774 0.25064
# Poissons Ratio (z) = 0.11966 0.24050
#
# Static dielectric constant tensor:
#      x y z
#    x 1.798840 0.000000 0.016650 
#    y 0.000000 1.799880 0.000000 
#    z 0.016650 0.000000 1.759470 
# 
# From -- ./inp_files/187891.got.cif
#   From: 2010.05.17/outbox.cif.g08.bks.cpg/sg15_94_cif.got.tgz:187891.got - 2010.06.03 18:47:42.
