data_PCOD9299047
_publ_section_title
;
Structure prediction by ZEFSAII (Michael W. Deem and Ramdas Pophale) SiO2 
 PCOD9299047
Probable space group: C 2/C
;
_chemical_formula_sum "Si O2"
_cell_formula_units_Z 28
_cell_length_a 19.031291
_cell_length_b 4.634624
_cell_length_c 14.880052
_cell_angle_alpha 90.000000
_cell_angle_beta 47.075961
_cell_angle_gamma 90.000000
_cell_volume 961.060824
_symmetry_space_group_name_H-M "C 2/C"
_symmetry_group_IT_number 15
_symmetry_cell_setting 'monoclinic'
loop_
_space_group_symop_operation_xyz
x,y,z
-x,y,1/2-z
-x,-y,-z
x,-y,1/2+z
1/2+x,1/2+y,z
1/2-x,1/2+y,1/2-z
1/2-x,1/2-y,-z
1/2+x,1/2-y,1/2+z
loop_
_atom_site_type_symbol
_atom_site_label
_atom_site_fract_x
_atom_site_fract_y
_atom_site_fract_z
Si Si1 0.185074 0.472890 0.002555
Si Si2 0.000000 0.598887 0.750000
Si Si3 0.803741 0.049427 0.151923
Si Si4 0.516767 0.709990 0.042743
O O1 0.094247 0.577860 0.141131
O O2 0.132686 0.257507 0.977031
O O3 0.250000 0.250000 0.000000
O O4 0.218883 0.750614 0.918133
O O5 0.978067 0.780207 0.679830
O O6 0.772468 0.303759 0.253291
O O7 0.921607 0.032206 0.078170
O O8 0.500000 0.000000 0.000000
#
# Coordination Sequence:
#
# PCOD9299047 Si02
#       4
#     8   4   8   8
#     4  10  24  46  75 112 153 207 250 329 395 456
#     4   8  22  46  68 110 146 194 256 318 368 486
#     4  12  25  47  74 115 151 200 260 316 388 484
#     4  10  24  46  75 112 153 207 250 329 395 456
#
# _framework density 29.134474000000001
#
# number of rings (size 3 to 8) (size 9 to 14) (size 15 to 20)
#    1.714    0.000    2.857    0.000    4.000    3.429 
#    0.000    0.000    0.000    0.000    0.000    0.000 
#    0.000    0.000    0.000    0.000    0.000    0.000 
#
# Total GULP energy -78244.650070 kJ/mol
# GULP energy per Si atom -5588.903576 kJ/mol
# Density = 2.906816 g / cm^3
# Si number density = 29.134474 Si / 1000 Ang^3
#
#
#
# Elastic Constant Matrix: (Units=GPa)
#
#
# Indices 1 2 3 4 5 6 
#
# 1 264.6288 115.2259 83.2178 0.0000 -1.8897 0.0015
# 2 115.2259 209.6139 63.7979 0.0274 10.5637 0.0726
# 3 83.2178 63.7979 252.8410 -0.0186 -6.6522 0.0310
# 4 0.0000 0.0274 -0.0186 39.3847 0.0135 -6.6615
# 5 -1.8897 10.5637 -6.6522 0.0135 75.8505 -0.0066
# 6 0.0015 0.0726 0.0310 -6.6615 -0.0066 50.0484
#
#
#
# Elastic Compliance Matrix: (Units=1/GPa)
#
#
# Indices 1 2 3 4 5 6 
#
# 1 0.005238 -0.002575 -0.001064 0.000002 0.000396 0.000005
# 2 -0.002575 0.006487 -0.000817 -0.000006 -0.001039 -0.000010
# 3 -0.001064 -0.000817 0.004524 0.000002 0.000484 -0.000001
# 4 0.000002 -0.000006 0.000002 0.025975 -0.000003 0.003457
# 5 0.000396 -0.001039 0.000484 -0.000003 0.013381 0.000003
# 6 0.000005 -0.000010 -0.000001 0.003457 0.000003 0.020441
#
#
# Mechanical properties :
#
#
# Convention : Reuss Voigt Hill
#
# Bulk Modulus (GPa) = 136.28416 139.06299 137.67358
# Shear Modulus (GPa) = 57.20642 64.04619 60.62630
#
# Velocity S-wave (km/s) = 4.43598 4.69369 4.56665
# Velocity P-wave (km/s) = 8.55081 8.78688 8.66965
#
# Compressibility (1/GPa) = 0.00733761
#
# Stress axis : x y z
#
# Youngs Moduli (GPa) = 190.92919 154.14782 221.04798
#
# Poissons Ratio (x) = 0.39698 0.23511
# Poissons Ratio (y) = 0.49171 0.18051
# Poissons Ratio (z) = 0.20307 0.12588
#
# Static dielectric constant tensor:
#      x y z
#    x 2.375820 -0.000290 -0.092820 
#    y -0.000290 0.897560 0.000790 
#    z -0.092820 0.000790 2.759500 
# 
# From -- ./inp_files/157981.got.cif
#   From: 2010.05.17/outbox.cif.g08.bks.cpg/sg15_79_cif.got.tgz:157981.got - 2010.06.03 18:47:42.
