data_PCOD9299511
_publ_section_title
;
Structure prediction by ZEFSAII (Michael W. Deem and Ramdas Pophale) SiO2 
 PCOD9299511
Probable space group: C 2/C
;
_chemical_formula_sum "Si O2"
_cell_formula_units_Z 52
_cell_length_a 12.215618
_cell_length_b 20.718905
_cell_length_c 20.887681
_cell_angle_alpha 90.000000
_cell_angle_beta 151.132937
_cell_angle_gamma 90.000000
_cell_volume 2552.236237
_symmetry_space_group_name_H-M "C 2/C"
_symmetry_group_IT_number 15
_symmetry_cell_setting 'monoclinic'
loop_
_space_group_symop_operation_xyz
x,y,z
-x,y,1/2-z
-x,-y,-z
x,-y,1/2+z
1/2+x,1/2+y,z
1/2-x,1/2+y,1/2-z
1/2-x,1/2-y,-z
1/2+x,1/2-y,1/2+z
loop_
_atom_site_type_symbol
_atom_site_label
_atom_site_fract_x
_atom_site_fract_y
_atom_site_fract_z
Si Si1 0.643325 0.393519 0.594489
Si Si2 0.839377 0.333267 0.822365
Si Si3 0.172434 0.485922 0.530283
Si Si4 0.000000 0.119102 0.250000
Si Si5 0.345444 0.378468 0.115233
Si Si6 0.560973 0.293484 0.442849
Si Si7 0.304550 0.023585 0.604033
O O1 0.797206 0.370610 0.733788
O O2 0.614001 0.326531 0.538356
O O3 0.743607 0.451801 0.601351
O O4 0.413152 0.428423 0.503048
O O5 0.630794 0.345613 0.761357
O O6 0.858105 0.255977 0.832031
O O7 0.080059 0.358058 0.975734
O O8 0.308641 0.423134 0.618085
O O9 0.343935 0.545471 0.617850
O O10 0.097151 0.481818 0.417764
O O11 0.000000 0.500000 0.500000
O O12 0.500000 0.349194 0.250000
O O13 0.466869 0.356439 0.113616
O O14 0.750000 0.250000 0.500000
O O15 0.500000 0.049990 0.750000
#
# Coordination Sequence:
#
# PCOD9299511 Si02
#       7
#     8   8   8   4   8   8   8
#     4  11  24  46  72 104 141 181 241 293 363 421
#     4  11  25  45  69  99 143 193 234 293 354 430
#     4  12  23  40  69 104 144 181 229 296 360 435
#     4  12  24  44  68 104 142 188 234 282 378 424
#     4  11  23  39  65 105 137 178 234 298 350 411
#     4  10  25  42  68  98 135 187 242 286 342 414
#     4  11  25  43  73 107 144 180 231 304 367 427
#
# _framework density 20.374289999999998
#
# number of rings (size 3 to 8) (size 9 to 14) (size 15 to 20)
#    0.000    0.923    5.385    0.923    6.462    1.231 
#    1.385    0.769    0.000    0.000    0.000    0.000 
#    0.000    0.000    0.000    0.000    0.000    0.000 
#
# Total GULP energy -144759.418247 kJ/mol
# GULP energy per Si atom -5567.669933 kJ/mol
# Density = 2.032792 g / cm^3
# Si number density = 20.374290 Si / 1000 Ang^3
#
#
#
# Elastic Constant Matrix: (Units=GPa)
#
#
# Indices 1 2 3 4 5 6 
#
# 1 147.0330 47.4698 58.3888 0.0006 -16.4779 -0.0003
# 2 47.4698 98.9971 24.8638 -0.0002 10.5615 -0.0002
# 3 58.3888 24.8638 120.3588 -0.0003 -18.4909 -0.0031
# 4 0.0006 -0.0002 -0.0003 27.3552 -0.0022 5.4656
# 5 -16.4779 10.5615 -18.4909 -0.0022 26.9358 -0.0019
# 6 -0.0003 -0.0002 -0.0031 5.4656 -0.0019 37.7894
#
#
#
# Elastic Compliance Matrix: (Units=1/GPa)
#
#
# Indices 1 2 3 4 5 6 
#
# 1 0.010234 -0.004787 -0.003047 0.000000 0.006046 0.000000
# 2 -0.004787 0.013966 -0.002072 -0.000001 -0.009827 -0.000001
# 3 -0.003047 -0.002072 0.011239 0.000000 0.006664 0.000001
# 4 0.000000 -0.000001 0.000000 0.037644 0.000003 -0.005445
# 5 0.006046 -0.009827 0.006664 0.000003 0.049252 0.000003
# 6 0.000000 -0.000001 0.000001 -0.005445 0.000003 0.027250
#
#
# Mechanical properties :
#
#
# Convention : Reuss Voigt Hill
#
# Bulk Modulus (GPa) = 63.99918 69.75929 66.87924
# Shear Modulus (GPa) = 28.63590 34.12718 31.38154
#
# Velocity S-wave (km/s) = 3.75306 4.09713 3.92886
# Velocity P-wave (km/s) = 7.08946 7.52962 7.31285
#
# Compressibility (1/GPa) = 0.01562520
#
# Stress axis : x y z
#
# Youngs Moduli (GPa) = 97.70991 71.60394 88.97923
#
# Poissons Ratio (x) = 0.34278 0.27113
# Poissons Ratio (y) = 0.46775 0.18440
# Poissons Ratio (z) = 0.29773 0.14839
#
# Static dielectric constant tensor:
#      x y z
#    x 4.380740 0.000310 1.790220 
#    y 0.000310 1.814650 0.000220 
#    z 1.790220 0.000220 3.074090 
# 
# From -- ./inp_files/240550.got.cif
#   From: 2010.05.17/outbox.cif.g08.bks.cpg/sg15_121_cif.got.tgz:240550.got - 2010.06.03 18:47:42.
