data_PCOD9299604
_publ_section_title
;
Structure prediction by ZEFSAII (Michael W. Deem and Ramdas Pophale) SiO2 
 PCOD9299604
Probable space group: C 2/C
;
_chemical_formula_sum "Si O2"
_cell_formula_units_Z 40
_cell_length_a 22.719069
_cell_length_b 7.039019
_cell_length_c 11.391003
_cell_angle_alpha 90.000000
_cell_angle_beta 72.623634
_cell_angle_gamma 90.000000
_cell_volume 1738.515234
_symmetry_space_group_name_H-M "C 2/C"
_symmetry_group_IT_number 15
_symmetry_cell_setting 'monoclinic'
loop_
_space_group_symop_operation_xyz
x,y,z
-x,y,1/2-z
-x,-y,-z
x,-y,1/2+z
1/2+x,1/2+y,z
1/2-x,1/2+y,1/2-z
1/2-x,1/2-y,-z
1/2+x,1/2-y,1/2+z
loop_
_atom_site_type_symbol
_atom_site_label
_atom_site_fract_x
_atom_site_fract_y
_atom_site_fract_z
Si Si1 0.987320 0.209079 0.956809
Si Si2 0.900533 0.741329 0.286004
Si Si3 0.387388 0.921724 0.136727
Si Si4 0.317288 0.467441 0.720971
Si Si5 0.704051 0.810946 0.922512
O O1 0.936479 0.223950 0.883924
O O2 0.050603 0.250730 0.851299
O O3 0.957930 0.352222 0.070248
O O4 0.000000 0.000000 0.000000
O O5 0.875458 0.533703 0.266688
O O6 0.850844 0.906908 0.300479
O O7 0.352672 0.722706 0.169610
O O8 0.355199 0.047282 0.051668
O O9 0.318388 0.609528 0.611848
O O10 0.249487 0.411235 0.801732
O O11 0.750000 0.750000 0.000000
#
# Coordination Sequence:
#
# PCOD9299604 Si02
#       5
#     8   8   8   8   8
#     4  11  23  46  69 100 131 173 226 276 341 403
#     4  10  25  44  66  99 132 174 220 278 338 398
#     4  11  24  44  67  94 138 175 220 279 331 408
#     4  11  23  44  62  99 135 169 227 271 330 405
#     4  11  26  41  68 100 134 180 221 275 340 397
#
# _framework density 23.008137000000001
#
# number of rings (size 3 to 8) (size 9 to 14) (size 15 to 20)
#    0.000    1.200    4.000    0.600    5.600    0.800 
#    7.200    0.000    0.000    0.000    0.000    0.000 
#    0.000    0.000    0.000    0.000    0.000    0.000 
#
# Total GULP energy -111559.001920 kJ/mol
# GULP energy per Si atom -5577.950096 kJ/mol
# Density = 2.295577 g / cm^3
# Si number density = 23.008137 Si / 1000 Ang^3
#
#
#
# Elastic Constant Matrix: (Units=GPa)
#
#
# Indices 1 2 3 4 5 6 
#
# 1 80.8269 41.2752 7.4538 0.0000 9.3155 0.0000
# 2 41.2752 185.3407 27.8399 0.0000 9.2759 0.0000
# 3 7.4538 27.8399 42.6503 0.0000 5.7325 0.0000
# 4 0.0000 0.0000 0.0000 12.4672 0.0000 -5.6717
# 5 9.3155 9.2759 5.7325 0.0000 41.6418 0.0000
# 6 0.0000 0.0000 0.0000 -5.6717 0.0000 56.4076
#
#
#
# Elastic Compliance Matrix: (Units=1/GPa)
#
#
# Indices 1 2 3 4 5 6 
#
# 1 0.014214 -0.003014 -0.000183 0.000000 -0.002483 0.000000
# 2 -0.003014 0.006648 -0.003774 0.000000 -0.000287 0.000000
# 3 -0.000183 -0.003774 0.026310 0.000000 -0.002740 0.000000
# 4 0.000000 0.000000 0.000000 0.084056 0.000000 0.008452
# 5 -0.002483 -0.000287 -0.002740 0.000000 0.025011 0.000000
# 6 0.000000 0.000000 0.000000 0.008452 0.000000 0.018578
#
#
# Mechanical properties :
#
#
# Convention : Reuss Voigt Hill
#
# Bulk Modulus (GPa) = 30.09290 51.32840 40.71065
# Shear Modulus (GPa) = 25.02054 37.58659 31.30357
#
# Velocity S-wave (km/s) = 3.30125 4.04619 3.69256
# Velocity P-wave (km/s) = 5.25725 6.64727 5.99269
#
# Compressibility (1/GPa) = 0.03323043
#
# Stress axis : x y z
#
# Youngs Moduli (GPa) = 70.35221 150.42367 38.00781
#
# Poissons Ratio (x) = 0.45333 0.00696
# Poissons Ratio (y) = 0.21202 0.14345
# Poissons Ratio (z) = 0.01289 0.56772
#
# Static dielectric constant tensor:
#      x y z
#    x 2.045660 0.000000 0.023640 
#    y 0.000000 1.970810 0.000000 
#    z 0.023640 0.000000 1.907480 
# 
# From -- ./inp_files/120745.got.cif
#   From: 2010.05.17/outbox.cif.g08.bks.cpg/sg15_61_cif.got.tgz:120745.got - 2010.06.03 18:47:42.
