data_PCOD9299242
_publ_section_title
;
Structure prediction by ZEFSAII (Michael W. Deem and Ramdas Pophale) SiO2 
 PCOD9299242
Probable space group: C 2/C
;
_chemical_formula_sum "Si O2"
_cell_formula_units_Z 52
_cell_length_a 13.301500
_cell_length_b 13.737009
_cell_length_c 17.128223
_cell_angle_alpha 90.000000
_cell_angle_beta 133.976428
_cell_angle_gamma 90.000000
_cell_volume 2252.224463
_symmetry_space_group_name_H-M "C 2/C"
_symmetry_group_IT_number 15
_symmetry_cell_setting 'monoclinic'
loop_
_space_group_symop_operation_xyz
x,y,z
-x,y,1/2-z
-x,-y,-z
x,-y,1/2+z
1/2+x,1/2+y,z
1/2-x,1/2+y,1/2-z
1/2-x,1/2-y,-z
1/2+x,1/2-y,1/2+z
loop_
_atom_site_type_symbol
_atom_site_label
_atom_site_fract_x
_atom_site_fract_y
_atom_site_fract_z
Si Si1 0.909241 0.414229 0.589050
Si Si2 0.811528 0.282122 0.208868
Si Si3 0.606794 0.498496 0.447371
Si Si4 0.500000 0.742183 0.750000
Si Si5 0.000000 0.565677 0.750000
Si Si6 0.500000 0.386406 0.750000
Si Si7 0.308084 0.821559 0.383717
Si Si8 0.979752 0.157786 0.970091
O O1 0.759010 0.451512 0.540141
O O2 0.961910 0.314390 0.657186
O O3 0.883894 0.395661 0.483870
O O4 0.008465 0.496914 0.678859
O O5 0.870582 0.359933 0.178561
O O6 0.830298 0.330567 0.303566
O O7 0.648097 0.268147 0.107458
O O8 0.899936 0.184549 0.246042
O O9 0.591297 0.546982 0.355356
O O10 0.563019 0.582557 0.484876
O O11 0.500857 0.409954 0.406171
O O12 0.356422 0.684420 0.686186
O O13 0.379465 0.716671 0.439180
#
# Coordination Sequence:
#
# PCOD9299242 Si02
#       8
#     8   8   8   4   4   4   8   8
#     4  11  24  42  69 100 139 178 226 286 349 399
#     4  11  25  45  72  98 140 186 234 277 343 418
#     4  11  24  44  70 103 138 181 229 289 343 407
#     4  11  24  44  70  97 140 178 229 280 344 414
#     4  10  24  48  67  99 138 186 228 286 342 413
#     4  11  26  46  71 104 138 188 233 274 346 419
#     4  12  25  43  69 106 135 182 230 287 345 414
#     4  11  24  46  69 103 140 178 230 289 345 404
#
# _framework density 23.088284999999999
#
# number of rings (size 3 to 8) (size 9 to 14) (size 15 to 20)
#    0.000    0.923    4.615    1.385    4.308    2.462 
#    2.769    0.000    0.000    0.000    0.000    0.000 
#    0.000    0.000    0.000    0.000    0.000    0.000 
#
# Total GULP energy -145301.112224 kJ/mol
# GULP energy per Si atom -5588.504316 kJ/mol
# Density = 2.303573 g / cm^3
# Si number density = 23.088285 Si / 1000 Ang^3
#
#
#
# Elastic Constant Matrix: (Units=GPa)
#
#
# Indices 1 2 3 4 5 6 
#
# 1 66.6552 20.4408 19.9158 0.0000 4.9409 0.0000
# 2 20.4408 62.4320 17.1477 0.0000 10.2993 0.0000
# 3 19.9158 17.1477 83.9327 0.0000 7.2959 0.0000
# 4 0.0000 0.0000 0.0000 28.7384 0.0000 -3.2048
# 5 4.9409 10.2993 7.2959 0.0000 36.2640 0.0000
# 6 0.0000 0.0000 0.0000 -3.2048 0.0000 25.4354
#
#
#
# Elastic Compliance Matrix: (Units=1/GPa)
#
#
# Indices 1 2 3 4 5 6 
#
# 1 0.017433 -0.004785 -0.003125 0.000000 -0.000387 0.000000
# 2 -0.004785 0.018934 -0.002363 0.000000 -0.004250 0.000000
# 3 -0.003125 -0.002363 0.013276 0.000000 -0.001574 0.000000
# 4 0.000000 0.000000 0.000000 0.035292 0.000000 0.004447
# 5 -0.000387 -0.004250 -0.001574 0.000000 0.029152 0.000000
# 6 0.000000 0.000000 0.000000 0.004447 0.000000 0.039875
#
#
# Mechanical properties :
#
#
# Convention : Reuss Voigt Hill
#
# Bulk Modulus (GPa) = 34.37047 36.44760 35.40904
# Shear Modulus (GPa) = 27.14315 28.45528 27.79922
#
# Velocity S-wave (km/s) = 3.43246 3.51444 3.47369
# Velocity P-wave (km/s) = 5.53425 5.68233 5.60878
#
# Compressibility (1/GPa) = 0.02909474
#
# Stress axis : x y z
#
# Youngs Moduli (GPa) = 57.36402 52.81371 75.32664
#
# Poissons Ratio (x) = 0.25273 0.23540
# Poissons Ratio (y) = 0.27450 0.17803
# Poissons Ratio (z) = 0.17927 0.12482
#
# Static dielectric constant tensor:
#      x y z
#    x 1.862670 0.000000 -0.014270 
#    y 0.000000 1.818940 0.000000 
#    z -0.014270 0.000000 1.883860 
# 
# From -- ./inp_files/205798.got.cif
#   From: 2010.05.17/outbox.cif.g08.bks.cpg/sg15_103_cif.got.tgz:205798.got - 2010.06.03 18:47:42.
