data_PCOD9299037
_publ_section_title
;
Structure prediction by ZEFSAII (Michael W. Deem and Ramdas Pophale) SiO2 
 PCOD9299037
Probable space group: C 2/C
;
_chemical_formula_sum "Si O2"
_cell_formula_units_Z 60
_cell_length_a 9.466259
_cell_length_b 22.778054
_cell_length_c 23.034480
_cell_angle_alpha 90.000000
_cell_angle_beta 144.291938
_cell_angle_gamma 90.000000
_cell_volume 2898.878248
_symmetry_space_group_name_H-M "C 2/C"
_symmetry_group_IT_number 15
_symmetry_cell_setting 'monoclinic'
loop_
_space_group_symop_operation_xyz
x,y,z
-x,y,1/2-z
-x,-y,-z
x,-y,1/2+z
1/2+x,1/2+y,z
1/2-x,1/2+y,1/2-z
1/2-x,1/2-y,-z
1/2+x,1/2-y,1/2+z
loop_
_atom_site_type_symbol
_atom_site_label
_atom_site_fract_x
_atom_site_fract_y
_atom_site_fract_z
Si Si1 0.500000 0.696385 0.250000
Si Si2 0.524529 0.575383 0.442470
Si Si3 0.509711 0.781107 0.439239
Si Si4 0.723988 0.317675 0.584820
Si Si5 0.173764 0.387989 0.558242
Si Si6 0.659534 0.375445 0.439456
Si Si7 0.141122 0.234459 0.713523
Si Si8 0.763410 0.044704 0.863466
O O1 0.657815 0.652710 0.344030
O O2 0.682573 0.740108 0.277333
O O3 0.390038 0.638049 0.406298
O O4 0.657655 0.569495 0.424443
O O5 0.697079 0.567446 0.557018
O O6 0.326916 0.524152 0.383830
O O7 0.750000 0.750000 0.500000
O O8 0.432793 0.741984 0.468469
O O9 0.574553 0.846260 0.474925
O O10 0.305325 0.780785 0.322970
O O11 0.720086 0.348310 0.522036
O O12 0.986940 0.291216 0.680687
O O13 0.915434 0.402614 0.502303
O O14 0.527057 0.321664 0.360146
O O15 0.458837 0.423986 0.386967
O O16 0.500000 0.056556 0.750000
#
# Coordination Sequence:
#
# PCOD9299037 Si02
#       8
#     4   8   8   8   8   8   8   8
#     4  12  24  38  62  98 138 184 220 260 338 406
#     4  10  24  46  74  92 129 171 222 287 321 394
#     4  12  23  36  57  97 134 169 218 264 326 395
#     4  11  21  41  63  94 131 173 213 269 326 395
#     4  12  24  43  63  99 138 171 220 275 339 399
#     4  11  25  40  66  93 138 172 215 277 331 396
#     4  12  24  35  61  97 134 179 217 264 334 406
#     4  10  25  48  70 100 121 173 231 275 336 396
#
# _framework density 20.697661
#
# number of rings (size 3 to 8) (size 9 to 14) (size 15 to 20)
#    0.000    0.800    5.333    1.600    2.800    2.667 
#    2.400    0.000    0.000    0.000    0.000    0.000 
#    0.000    0.000    0.000    0.000    0.000    0.000 
#
# Total GULP energy -167284.573249 kJ/mol
# GULP energy per Si atom -5576.152442 kJ/mol
# Density = 2.065055 g / cm^3
# Si number density = 20.697661 Si / 1000 Ang^3
#
#
#
# Elastic Constant Matrix: (Units=GPa)
#
#
# Indices 1 2 3 4 5 6 
#
# 1 99.9853 -5.2728 15.1697 0.0000 8.6659 -0.0002
# 2 -5.2728 45.0241 11.4445 0.0001 1.6547 0.0000
# 3 15.1697 11.4445 107.3342 0.0004 6.9169 -0.0010
# 4 0.0000 0.0001 0.0004 13.9691 -0.0001 -0.0086
# 5 8.6659 1.6547 6.9169 -0.0001 23.0685 -0.0004
# 6 -0.0002 0.0000 -0.0010 -0.0086 -0.0004 26.3819
#
#
#
# Elastic Compliance Matrix: (Units=1/GPa)
#
#
# Indices 1 2 3 4 5 6 
#
# 1 0.010633 0.001750 -0.001452 0.000000 -0.003685 0.000000
# 2 0.001750 0.023136 -0.002615 0.000000 -0.001533 0.000000
# 3 -0.001452 -0.002615 0.009946 0.000000 -0.002249 0.000000
# 4 0.000000 0.000000 0.000000 0.071586 0.000000 0.000023
# 5 -0.003685 -0.001533 -0.002249 0.000000 0.045518 0.000001
# 6 0.000000 0.000000 0.000000 0.000023 0.000001 0.037905
#
#
# Mechanical properties :
#
#
# Convention : Reuss Voigt Hill
#
# Bulk Modulus (GPa) = 25.58837 32.78071 29.18454
# Shear Modulus (GPa) = 23.10682 28.08405 25.59544
#
# Velocity S-wave (km/s) = 3.34488 3.68757 3.52040
# Velocity P-wave (km/s) = 5.22565 5.83122 5.53672
#
# Compressibility (1/GPa) = 0.03908026
#
# Stress axis : x y z
#
# Youngs Moduli (GPa) = 94.04335 43.22194 100.54591
#
# Poissons Ratio (x) = -0.07563 0.14599
# Poissons Ratio (y) = -0.16455 0.26297
# Poissons Ratio (z) = 0.13655 0.11304
#
# Static dielectric constant tensor:
#      x y z
#    x 1.843020 0.000000 0.011510 
#    y 0.000000 1.754450 0.000000 
#    z 0.011510 0.000000 1.737750 
# 
# From -- ./inp_files/234577.got.cif
#   From: 2010.05.17/outbox.cif.g08.bks.cpg/sg15_118_cif.got.tgz:234577.got - 2010.06.03 18:47:42.
