data_PCOD9299354
_publ_section_title
;
Structure prediction by ZEFSAII (Michael W. Deem and Ramdas Pophale) SiO2 
 PCOD9299354
Probable space group: C 2/C
;
_chemical_formula_sum "Si O2"
_cell_formula_units_Z 48
_cell_length_a 12.889079
_cell_length_b 19.758589
_cell_length_c 10.633287
_cell_angle_alpha 90.000000
_cell_angle_beta 54.865133
_cell_angle_gamma 90.000000
_cell_volume 2214.584569
_symmetry_space_group_name_H-M "C 2/C"
_symmetry_group_IT_number 15
_symmetry_cell_setting 'monoclinic'
loop_
_space_group_symop_operation_xyz
x,y,z
-x,y,1/2-z
-x,-y,-z
x,-y,1/2+z
1/2+x,1/2+y,z
1/2-x,1/2+y,1/2-z
1/2-x,1/2-y,-z
1/2+x,1/2-y,1/2+z
loop_
_atom_site_type_symbol
_atom_site_label
_atom_site_fract_x
_atom_site_fract_y
_atom_site_fract_z
Si Si1 0.813057 0.458744 0.173488
Si Si2 0.702198 0.401496 0.797433
Si Si3 0.373791 0.859648 0.902613
Si Si4 0.252031 0.171367 0.016593
Si Si5 0.000000 0.223947 0.750000
Si Si6 0.427797 0.381876 0.078545
Si Si7 0.000000 0.404491 0.250000
O O1 0.788794 0.538652 0.176857
O O2 0.668918 0.436278 0.299887
O O3 0.915684 0.448200 0.212299
O O4 0.854411 0.404510 0.039359
O O5 0.762547 0.375152 0.884028
O O6 0.706995 0.345194 0.687572
O O7 0.557396 0.414053 0.937372
O O8 0.500000 0.887598 0.750000
O O9 0.401944 0.778384 0.883330
O O10 0.151498 0.144338 0.985467
O O11 0.392382 0.141122 0.892624
O O12 0.250000 0.250000 0.000000
O O13 0.049461 0.175597 0.828858
#
# Coordination Sequence:
#
# PCOD9299354 Si02
#       7
#     8   8   8   8   4   8   4
#     4  11  26  46  71 107 145 191 236 291 364 425
#     4  12  26  45  71 106 147 189 237 292 359 435
#     4  10  25  44  73 106 139 187 240 302 351 427
#     4  11  26  45  71 106 142 190 236 297 359 428
#     4  10  24  49  72 107 136 184 246 294 362 412
#     4  11  25  45  72 103 145 187 235 300 350 439
#     4  10  26  45  72 103 142 192 236 302 348 434
#
# _framework density 21.674492999999998
#
# number of rings (size 3 to 8) (size 9 to 14) (size 15 to 20)
#    0.500    0.667    0.000    4.000   10.500    5.333 
#    6.000    0.000    0.000    0.000    0.000    0.000 
#    0.000    0.000    0.000    0.000    0.000    0.000 
#
# Total GULP energy -133883.876059 kJ/mol
# GULP energy per Si atom -5578.494836 kJ/mol
# Density = 2.162516 g / cm^3
# Si number density = 21.674493 Si / 1000 Ang^3
#
#
#
# Elastic Constant Matrix: (Units=GPa)
#
#
# Indices 1 2 3 4 5 6 
#
# 1 86.8413 39.3273 51.7633 0.0000 -20.5770 0.0000
# 2 39.3273 108.3424 22.4438 0.0000 3.3268 0.0000
# 3 51.7633 22.4438 99.4665 0.0000 -14.3683 0.0000
# 4 0.0000 0.0000 0.0000 35.1908 0.0000 -20.7736
# 5 -20.5770 3.3268 -14.3683 0.0000 42.0985 0.0000
# 6 0.0000 0.0000 0.0000 -20.7736 0.0000 38.6321
#
#
#
# Elastic Compliance Matrix: (Units=1/GPa)
#
#
# Indices 1 2 3 4 5 6 
#
# 1 0.021309 -0.006213 -0.008533 0.000000 0.007994 0.000000
# 2 -0.006213 0.011596 0.000048 0.000000 -0.003937 0.000000
# 3 -0.008533 0.000048 0.014600 0.000000 0.000809 0.000000
# 4 0.000000 0.000000 0.000000 0.041632 0.000000 0.022386
# 5 0.007994 -0.003937 0.000809 0.000000 0.028248 0.000000
# 6 0.000000 0.000000 0.000000 0.022386 0.000000 0.037923
#
#
# Mechanical properties :
#
#
# Convention : Reuss Voigt Hill
#
# Bulk Modulus (GPa) = 55.21784 57.96880 56.59332
# Shear Modulus (GPa) = 26.21360 35.25867 30.73614
#
# Velocity S-wave (km/s) = 3.48145 4.03766 3.76982
# Velocity P-wave (km/s) = 6.45693 6.96707 6.71685
#
# Compressibility (1/GPa) = 0.01811009
#
# Stress axis : x y z
#
# Youngs Moduli (GPa) = 46.92801 86.23547 68.49231
#
# Poissons Ratio (x) = 0.53577 0.58443
# Poissons Ratio (y) = 0.29156 -0.00329
# Poissons Ratio (z) = 0.40043 -0.00414
#
# Static dielectric constant tensor:
#      x y z
#    x 1.570810 0.000000 -0.195620 
#    y 0.000000 1.706560 0.000000 
#    z -0.195620 0.000000 1.679690 
# 
# From -- ./inp_files/89456.got.cif
#   From: 2010.05.17/outbox.cif.g08.bks.cpg/sg15_45_cif.got.tgz:89456.got - 2010.06.03 18:47:42.
