data_PCOD9299542
_publ_section_title
;
Structure prediction by ZEFSAII (Michael W. Deem and Ramdas Pophale) SiO2 
 PCOD9299542
Probable space group: C 2/C
;
_chemical_formula_sum "Si O2"
_cell_formula_units_Z 56
_cell_length_a 5.256603
_cell_length_b 26.971439
_cell_length_c 17.700039
_cell_angle_alpha 90.000000
_cell_angle_beta 105.587026
_cell_angle_gamma 90.000000
_cell_volume 2417.188729
_symmetry_space_group_name_H-M "C 2/C"
_symmetry_group_IT_number 15
_symmetry_cell_setting 'monoclinic'
loop_
_space_group_symop_operation_xyz
x,y,z
-x,y,1/2-z
-x,-y,-z
x,-y,1/2+z
1/2+x,1/2+y,z
1/2-x,1/2+y,1/2-z
1/2-x,1/2-y,-z
1/2+x,1/2-y,1/2+z
loop_
_atom_site_type_symbol
_atom_site_label
_atom_site_fract_x
_atom_site_fract_y
_atom_site_fract_z
Si Si1 0.175008 0.940505 0.838011
Si Si2 0.862712 0.627594 0.585996
Si Si3 0.798361 0.451038 0.304101
Si Si4 0.250571 0.227534 0.083982
Si Si5 0.052955 0.943396 0.515319
Si Si6 0.531168 0.128352 0.436765
Si Si7 0.180310 0.730153 0.838754
O O1 0.013292 0.934708 0.902316
O O2 0.351713 0.891054 0.854815
O O3 0.000000 0.940179 0.750000
O O4 0.307899 0.995455 0.847135
O O5 0.629717 0.588409 0.554628
O O6 0.790741 0.672649 0.634831
O O7 0.105048 0.595812 0.639168
O O8 0.911307 0.648731 0.505208
O O9 0.500000 0.444286 0.250000
O O10 0.000000 0.454482 0.250000
O O11 0.263306 0.168367 0.075798
O O12 0.528811 0.245713 0.142970
O O13 0.996322 0.244258 0.110207
O O14 0.250000 0.250000 0.000000
O O15 0.344791 0.923716 0.526111
O O16 0.000000 0.000000 0.500000
O O17 0.000000 0.733809 0.750000
#
# Coordination Sequence:
#
# PCOD9299542 Si02
#       7
#     8   8   8   8   8   8   8
#     4  10  25  43  65 101 145 187 240 295 356 427
#     4  11  25  44  72 105 143 187 243 299 364 435
#     4  11  26  43  68 103 144 196 232 292 363 427
#     4  12  26  50  79 104 149 192 246 299 371 445
#     4  11  24  43  72 105 143 189 243 292 355 437
#     4  11  25  43  74 103 135 195 240 295 364 435
#     4  12  28  50  75 114 145 191 246 316 371 433
#
# _framework density 23.167407999999998
#
# number of rings (size 3 to 8) (size 9 to 14) (size 15 to 20)
#    0.000    0.857    1.429    3.857   14.000    4.000 
#    2.571    0.000    0.000    0.000    0.000    0.000 
#    0.000    0.000    0.000    0.000    0.000    0.000 
#
# Total GULP energy -156646.690857 kJ/mol
# GULP energy per Si atom -5594.524673 kJ/mol
# Density = 2.311468 g / cm^3
# Si number density = 23.167408 Si / 1000 Ang^3
#
#
#
# Elastic Constant Matrix: (Units=GPa)
#
#
# Indices 1 2 3 4 5 6 
#
# 1 58.1451 -10.9452 4.3919 0.0000 1.5523 0.0000
# 2 -10.9452 80.9790 21.4346 0.0000 -2.0598 0.0000
# 3 4.3919 21.4346 75.8974 0.0000 14.4557 0.0000
# 4 0.0000 0.0000 0.0000 30.4599 0.0000 5.7250
# 5 1.5523 -2.0598 14.4557 0.0000 32.0087 0.0000
# 6 0.0000 0.0000 0.0000 5.7250 0.0000 39.4231
#
#
#
# Elastic Compliance Matrix: (Units=1/GPa)
#
#
# Indices 1 2 3 4 5 6 
#
# 1 0.017887 0.002924 -0.001894 0.000000 0.000176 0.000000
# 2 0.002924 0.014058 -0.004688 0.000000 0.002880 0.000000
# 3 -0.001894 -0.004688 0.016028 0.000000 -0.007448 0.000000
# 4 0.000000 0.000000 0.000000 0.033751 0.000000 -0.004901
# 5 0.000176 0.002880 -0.007448 0.000000 0.034782 0.000000
# 6 0.000000 0.000000 0.000000 -0.004901 0.000000 0.026078
#
#
# Mechanical properties :
#
#
# Convention : Reuss Voigt Hill
#
# Bulk Modulus (GPa) = 24.59682 27.19824 25.89753
# Shear Modulus (GPa) = 30.58977 33.72101 32.15539
#
# Velocity S-wave (km/s) = 3.63764 3.81929 3.72957
# Velocity P-wave (km/s) = 5.31821 5.58701 5.45426
#
# Compressibility (1/GPa) = 0.04065566
#
# Stress axis : x y z
#
# Youngs Moduli (GPa) = 55.90640 71.13312 62.39130
#
# Poissons Ratio (x) = -0.20796 0.11819
# Poissons Ratio (y) = -0.16344 0.29249
# Poissons Ratio (z) = 0.10590 0.33347
#
# Static dielectric constant tensor:
#      x y z
#    x 1.981560 0.000000 0.049430 
#    y 0.000000 1.882600 0.000000 
#    z 0.049430 0.000000 1.892880 
# 
# From -- ./inp_files/186216.got.cif
#   From: 2010.05.17/outbox.cif.g08.bks.cpg/sg15_94_cif.got.tgz:186216.got - 2010.06.03 18:47:42.
