data_PCOD9299974
_publ_section_title
;
Structure prediction by ZEFSAII (Michael W. Deem and Ramdas Pophale) SiO2 
 PCOD9299974
Probable space group: C 2/C
;
_chemical_formula_sum "Si O2"
_cell_formula_units_Z 52
_cell_length_a 31.453994
_cell_length_b 8.943229
_cell_length_c 12.829153
_cell_angle_alpha 90.000000
_cell_angle_beta 32.583100
_cell_angle_gamma 90.000000
_cell_volume 1943.442986
_symmetry_space_group_name_H-M "C 2/C"
_symmetry_group_IT_number 15
_symmetry_cell_setting 'monoclinic'
loop_
_space_group_symop_operation_xyz
x,y,z
-x,y,1/2-z
-x,-y,-z
x,-y,1/2+z
1/2+x,1/2+y,z
1/2-x,1/2+y,1/2-z
1/2-x,1/2-y,-z
1/2+x,1/2-y,1/2+z
loop_
_atom_site_type_symbol
_atom_site_label
_atom_site_fract_x
_atom_site_fract_y
_atom_site_fract_z
Si Si1 0.000000 0.785998 0.750000
Si Si2 0.918176 0.822012 0.481100
Si Si3 0.257233 0.007656 0.843745
Si Si4 0.348210 0.228705 0.421032
Si Si5 0.500256 0.823652 0.013379
Si Si6 0.167120 0.250325 0.920685
Si Si7 0.748025 0.940366 0.918693
O O1 0.988207 0.709693 0.660349
O O2 0.089198 0.842780 0.557696
O O3 0.890034 0.705186 0.448367
O O4 0.834927 0.903024 0.691455
O O5 0.000000 0.884296 0.250000
O O6 0.947070 0.752641 0.531989
O O7 0.281125 0.886470 0.022346
O O8 0.323523 0.885303 0.681191
O O9 0.234750 0.128206 0.803400
O O10 0.183292 0.896500 0.005259
O O11 0.413569 0.230528 0.197741
O O12 0.500000 0.000000 0.000000
O O13 0.262457 0.095925 0.938878
O O14 0.180539 0.351767 0.995530
#
# Coordination Sequence:
#
# PCOD9299974 Si02
#       7
#     4   8   8   8   8   8   8
#     4  12  28  50  72 122 160 206 272 330 404 480
#     4  10  25  50  80 117 167 216 271 336 413 483
#     4  12  27  52  81 120 161 217 274 334 415 490
#     4  11  25  50  81 118 163 214 272 336 410 493
#     4  11  26  47  81 117 164 219 267 337 400 492
#     4  12  28  49  81 116 164 214 269 341 402 492
#     4  12  25  48  85 120 159 213 271 343 412 484
#
# _framework density 26.756639
#
# number of rings (size 3 to 8) (size 9 to 14) (size 15 to 20)
#    0.000    0.615    1.538    4.615    5.385    2.462 
#    4.154    3.846    0.000    0.000    0.000    0.000 
#    0.000    0.000    0.000    0.000    0.000    0.000 
#
# Total GULP energy -144930.441892 kJ/mol
# GULP energy per Si atom -5574.247765 kJ/mol
# Density = 2.669574 g / cm^3
# Si number density = 26.756639 Si / 1000 Ang^3
#
#
#
# Elastic Constant Matrix: (Units=GPa)
#
#
# Indices 1 2 3 4 5 6 
#
# 1 182.9875 23.8230 84.0987 0.0000 18.0145 0.0000
# 2 23.8230 60.0051 21.9223 0.0000 -20.5013 0.0000
# 3 84.0987 21.9223 137.0382 0.0000 -14.9171 0.0000
# 4 0.0000 0.0000 0.0000 -72.5155 0.0000 -52.3342
# 5 18.0145 -20.5013 -14.9171 0.0000 66.8622 0.0000
# 6 0.0000 0.0000 0.0000 -52.3342 0.0000 18.3963
#
#
#
# Elastic Compliance Matrix: (Units=1/GPa)
#
#
# Indices 1 2 3 4 5 6 
#
# 1 0.008785 -0.003058 -0.005393 0.000000 -0.004508 0.000000
# 2 -0.003058 0.020494 -0.000644 0.000000 0.006964 0.000000
# 3 -0.005393 -0.000644 0.011116 0.000000 0.003736 0.000000
# 4 0.000000 0.000000 0.000000 -0.004517 0.000000 -0.012849
# 5 -0.004508 0.006964 0.003736 0.000000 0.019139 0.000000
# 6 0.000000 0.000000 0.000000 -0.012849 0.000000 0.017804
#
#
# Mechanical properties :
#
#
# Convention : Reuss Voigt Hill
#
# Bulk Modulus (GPa) = 45.03215 71.07989 58.05602
# Shear Modulus (GPa) = 50.80599 19.22772 35.01685
#
# Velocity S-wave (km/s) = 4.36227 2.68361 3.62154
# Velocity P-wave (km/s) = 6.49918 6.01875 6.26357
#
# Compressibility (1/GPa) = 0.02220636
#
# Stress axis : x y z
#
# Youngs Moduli (GPa) = 113.82761 48.79535 89.95685
#
# Poissons Ratio (x) = 0.14920 0.48513
# Poissons Ratio (y) = 0.34805 0.05792
# Poissons Ratio (z) = 0.61386 0.03142
#
# Static dielectric constant tensor:
#      x y z
#    x 2.079900 0.000000 -0.130550 
#    y 0.000000 2.142070 0.000000 
#    z -0.130550 0.000000 1.588960 
# 
# From -- ./inp_files/127030.got.cif
#   From: 2010.05.17/outbox.cif.g08.bks.cpg/sg15_64_cif.got.tgz:127030.got - 2010.06.03 18:47:42.
