data_PCOD9299236
_publ_section_title
;
Structure prediction by ZEFSAII (Michael W. Deem and Ramdas Pophale) SiO2 
 PCOD9299236
Probable space group: C 2/C
;
_chemical_formula_sum "Si O2"
_cell_formula_units_Z 60
_cell_length_a 10.210010
_cell_length_b 21.587876
_cell_length_c 18.112617
_cell_angle_alpha 90.000000
_cell_angle_beta 49.479375
_cell_angle_gamma 90.000000
_cell_volume 3034.794095
_symmetry_space_group_name_H-M "C 2/C"
_symmetry_group_IT_number 15
_symmetry_cell_setting 'monoclinic'
loop_
_space_group_symop_operation_xyz
x,y,z
-x,y,1/2-z
-x,-y,-z
x,-y,1/2+z
1/2+x,1/2+y,z
1/2-x,1/2+y,1/2-z
1/2-x,1/2-y,-z
1/2+x,1/2-y,1/2+z
loop_
_atom_site_type_symbol
_atom_site_label
_atom_site_fract_x
_atom_site_fract_y
_atom_site_fract_z
Si Si1 0.323982 0.884244 0.264400
Si Si2 0.874722 0.451958 0.945350
Si Si3 0.490897 0.082007 0.941931
Si Si4 0.142138 0.173135 0.376392
Si Si5 0.816827 0.243292 0.280741
Si Si6 0.500000 0.106113 0.250000
Si Si7 0.105922 0.279579 0.999499
Si Si8 0.003079 0.929718 0.025587
O O1 0.500000 0.888365 0.250000
O O2 0.356909 0.917692 0.174423
O O3 0.275344 0.812149 0.266542
O O4 0.166160 0.913705 0.366499
O O5 0.869180 0.526137 0.959785
O O6 0.985904 0.434961 0.830634
O O7 0.955405 0.427871 0.992619
O O8 0.683365 0.424662 0.004364
O O9 0.417464 0.150972 0.964263
O O10 0.148196 0.188289 0.288330
O O11 0.335155 0.150323 0.319954
O O12 0.065481 0.237423 0.435879
O O13 0.021377 0.118866 0.451567
O O14 0.677671 0.223081 0.391006
O O15 0.000000 0.253969 0.250000
O O16 0.250000 0.250000 0.000000
O O17 0.000000 0.000000 0.000000
#
# Coordination Sequence:
#
# PCOD9299236 Si02
#       8
#     8   8   8   8   8   4   8   8
#     4  11  22  38  67  99 130 173 219 273 342 390
#     4  10  25  46  67  94 134 181 224 269 333 397
#     4  11  24  43  68  98 135 173 216 284 334 387
#     4  11  23  42  63  98 128 171 221 268 331 392
#     4  11  21  37  62  96 131 168 211 272 335 394
#     4  10  24  48  66  92 132 184 226 254 330 416
#     4  12  22  40  67  99 136 165 219 281 334 393
#     4  11  25  42  68  95 128 177 233 272 322 411
#
# _framework density 19.770699
#
# number of rings (size 3 to 8) (size 9 to 14) (size 15 to 20)
#    0.000    1.067    4.000    2.400    6.533    0.533 
#    2.400    2.000    0.000    0.000    0.000    0.000 
#    0.000    0.000    0.000    0.000    0.000    0.000 
#
# Total GULP energy -167321.842357 kJ/mol
# GULP energy per Si atom -5577.394745 kJ/mol
# Density = 1.972570 g / cm^3
# Si number density = 19.770699 Si / 1000 Ang^3
#
#
#
# Elastic Constant Matrix: (Units=GPa)
#
#
# Indices 1 2 3 4 5 6 
#
# 1 59.4047 37.0849 44.7719 0.0000 7.3675 0.0000
# 2 37.0849 140.8389 52.6229 0.0000 -0.9059 0.0000
# 3 44.7719 52.6229 174.9540 0.0000 9.5415 0.0000
# 4 0.0000 0.0000 0.0000 153.1122 0.0000 98.2158
# 5 7.3675 -0.9059 9.5415 0.0000 36.1221 0.0000
# 6 0.0000 0.0000 0.0000 98.2158 0.0000 90.9374
#
#
#
# Elastic Compliance Matrix: (Units=1/GPa)
#
#
# Indices 1 2 3 4 5 6 
#
# 1 0.023480 -0.004549 -0.004437 0.000000 -0.003731 0.000000
# 2 -0.004549 0.008906 -0.001601 0.000000 0.001574 0.000000
# 3 -0.004437 -0.001601 0.007392 0.000000 -0.001088 0.000000
# 4 0.000000 0.000000 0.000000 0.021261 0.000000 -0.022962
# 5 -0.003731 0.001574 -0.001088 0.000000 0.028772 0.000000
# 6 0.000000 0.000000 0.000000 -0.022962 0.000000 0.035797
#
#
# Mechanical properties :
#
#
# Convention : Reuss Voigt Hill
#
# Bulk Modulus (GPa) = 53.74741 71.57299 62.66020
# Shear Modulus (GPa) = 32.68352 72.08220 52.38286
#
# Velocity S-wave (km/s) = 4.07028 6.04469 5.15293
# Velocity P-wave (km/s) = 7.02382 9.21943 8.19548
#
# Compressibility (1/GPa) = 0.01860555
#
# Stress axis : x y z
#
# Youngs Moduli (GPa) = 42.58896 112.28067 135.28121
#
# Poissons Ratio (x) = 0.51075 0.60025
# Poissons Ratio (y) = 0.19373 0.21653
# Poissons Ratio (z) = 0.18897 0.17972
#
# Static dielectric constant tensor:
#      x y z
#    x 1.706160 0.000000 0.017020 
#    y 0.000000 1.849640 0.000000 
#    z 0.017020 0.000000 1.715580 
# 
# From -- ./inp_files/239959.got.cif
#   From: 2010.05.17/outbox.cif.g08.bks.cpg/sg15_120_cif.got.tgz:239959.got - 2010.06.03 18:47:42.
