data_PCOD9299538
_publ_section_title
;
Structure prediction by ZEFSAII (Michael W. Deem and Ramdas Pophale) SiO2 
 PCOD9299538
Probable space group: C 2/C
;
_chemical_formula_sum "Si O2"
_cell_formula_units_Z 32
_cell_length_a 7.424182
_cell_length_b 18.676497
_cell_length_c 12.363495
_cell_angle_alpha 90.000000
_cell_angle_beta 126.186620
_cell_angle_gamma 90.000000
_cell_volume 1383.603572
_symmetry_space_group_name_H-M "C 2/C"
_symmetry_group_IT_number 15
_symmetry_cell_setting 'monoclinic'
loop_
_space_group_symop_operation_xyz
x,y,z
-x,y,1/2-z
-x,-y,-z
x,-y,1/2+z
1/2+x,1/2+y,z
1/2-x,1/2+y,1/2-z
1/2-x,1/2-y,-z
1/2+x,1/2-y,1/2+z
loop_
_atom_site_type_symbol
_atom_site_label
_atom_site_fract_x
_atom_site_fract_y
_atom_site_fract_z
Si Si1 0.500000 0.452260 0.750000
Si Si2 0.645154 0.781547 0.197770
Si Si3 0.000000 0.666446 0.250000
Si Si4 0.459991 0.115778 0.464006
Si Si5 0.208843 0.562384 0.744890
O O1 0.297110 0.405576 0.633384
O O2 0.398343 0.503358 0.807869
O O3 0.500000 0.762027 0.250000
O O4 0.798631 0.718071 0.212783
O O5 0.781009 0.854203 0.281777
O O6 0.497534 0.810833 0.045044
O O7 0.049981 0.621434 0.374584
O O8 0.604206 0.062000 0.587502
O O9 0.000000 0.550889 0.750000
#
# Coordination Sequence:
#
# PCOD9299538 Si02
#       5
#     4   8   4   8   8
#     4  12  23  44  68  94 137 170 208 276 322 370
#     4   9  22  47  67  95 129 169 220 266 319 383
#     4  12  23  44  66  96 137 168 210 272 322 380
#     4  10  25  43  63 104 127 169 223 253 329 392
#     4   9  22  47  66  97 128 168 221 265 320 385
#
# _framework density 23.128011999999998
#
# number of rings (size 3 to 8) (size 9 to 14) (size 15 to 20)
#    1.500    0.500    0.000    2.250    3.500    2.000 
#    9.000    0.000    0.000    0.000    0.000    0.000 
#    0.000    0.000    0.000    0.000    0.000    0.000 
#
# Total GULP energy -89355.602988 kJ/mol
# GULP energy per Si atom -5584.725187 kJ/mol
# Density = 2.307537 g / cm^3
# Si number density = 23.128012 Si / 1000 Ang^3
#
#
#
# Elastic Constant Matrix: (Units=GPa)
#
#
# Indices 1 2 3 4 5 6 
#
# 1 100.1360 24.3444 41.3321 0.0000 -36.1785 0.0000
# 2 24.3444 55.1387 17.7484 0.0000 -8.2640 0.0000
# 3 41.3321 17.7484 80.2134 0.0000 -33.5646 0.0000
# 4 0.0000 0.0000 0.0000 -50.2055 0.0000 53.6274
# 5 -36.1785 -8.2640 -33.5646 0.0000 44.9550 0.0000
# 6 0.0000 0.0000 0.0000 53.6274 0.0000 -48.0279
#
#
#
# Elastic Compliance Matrix: (Units=1/GPa)
#
#
# Indices 1 2 3 4 5 6 
#
# 1 0.015851 -0.004548 -0.003161 0.000000 0.009560 0.000000
# 2 -0.004548 0.020840 -0.003194 0.000000 -0.002214 0.000000
# 3 -0.003161 -0.003194 0.019623 0.000000 0.011520 0.000000
# 4 0.000000 0.000000 0.000000 0.103367 0.000000 0.115419
# 5 0.009560 -0.002214 0.011520 0.000000 0.038132 0.000000
# 6 0.000000 0.000000 0.000000 0.115419 0.000000 0.108054
#
#
# Mechanical properties :
#
#
# Convention : Reuss Voigt Hill
#
# Bulk Modulus (GPa) = 28.97895 44.70421 36.84158
# Shear Modulus (GPa) = 14.74159 -0.51814 7.11173
#
# Velocity S-wave (km/s) = 2.52740 -0.47383 1.75545
# Velocity P-wave (km/s) = 4.59064 4.36711 4.48027
#
# Compressibility (1/GPa) = 0.03450781
#
# Stress axis : x y z
#
# Youngs Moduli (GPa) = 63.08819 47.98361 50.96173
#
# Poissons Ratio (x) = 0.21823 0.16108
# Poissons Ratio (y) = 0.28693 0.16278
# Poissons Ratio (z) = 0.19941 0.15327
#
# Static dielectric constant tensor:
#      x y z
#    x 1.841040 0.000000 0.000870 
#    y 0.000000 1.933840 0.000000 
#    z 0.000870 0.000000 1.863060 
# 
# From -- ./inp_files/72778.got.cif
#   From: 2010.05.17/outbox.cif.g08.bks.cpg/sg15_37_cif.got.tgz:72778.got - 2010.06.03 18:47:42.
