data_PCOD9299773
_publ_section_title
;
Structure prediction by ZEFSAII (Michael W. Deem and Ramdas Pophale) SiO2 
 PCOD9299773
Probable space group: C 2/C
;
_chemical_formula_sum "Si O2"
_cell_formula_units_Z 36
_cell_length_a 4.921198
_cell_length_b 24.282321
_cell_length_c 12.532443
_cell_angle_alpha 90.000000
_cell_angle_beta 103.112188
_cell_angle_gamma 90.000000
_cell_volume 1458.557333
_symmetry_space_group_name_H-M "C 2/C"
_symmetry_group_IT_number 15
_symmetry_cell_setting 'monoclinic'
loop_
_space_group_symop_operation_xyz
x,y,z
-x,y,1/2-z
-x,-y,-z
x,-y,1/2+z
1/2+x,1/2+y,z
1/2-x,1/2+y,1/2-z
1/2-x,1/2-y,-z
1/2+x,1/2-y,1/2+z
loop_
_atom_site_type_symbol
_atom_site_label
_atom_site_fract_x
_atom_site_fract_y
_atom_site_fract_z
Si Si1 0.078859 0.558331 0.954525
Si Si2 0.604577 0.710697 0.574414
Si Si3 0.000000 0.628862 0.750000
Si Si4 0.000000 0.864334 0.750000
Si Si5 0.857745 0.104431 0.457905
Si Si6 0.500000 0.783835 0.750000
O O1 0.920873 0.585055 0.837637
O O2 0.959314 0.596690 0.037813
O O3 0.000000 0.500000 0.000000
O O4 0.408355 0.566116 0.964161
O O5 0.750000 0.750000 0.500000
O O6 0.431392 0.666370 0.493785
O O7 0.424294 0.744786 0.643736
O O8 0.801113 0.671592 0.667574
O O9 0.077904 0.903096 0.659126
O O10 0.742010 0.822051 0.725541
#
# Coordination Sequence:
#
# PCOD9299773 Si02
#       6
#     8   8   4   4   8   4
#     4  11  25  48  75  99 136 186 238 309 367 416
#     4  11  23  42  68 103 148 198 230 297 355 440
#     4  10  25  46  69 108 142 185 246 295 358 438
#     4  12  25  40  64  97 140 181 236 289 332 432
#     4  11  25  44  66 106 138 181 240 292 362 435
#     4  12  24  40  63  97 136 196 234 264 356 410
#
# _framework density 24.681923000000001
#
# number of rings (size 3 to 8) (size 9 to 14) (size 15 to 20)
#    0.000    0.889    2.222    4.000    3.111    7.111 
#    0.000    0.000    0.000    0.000    0.000    0.000 
#    0.000    0.000    0.000    0.000    0.000    0.000 
#
# Total GULP energy -100448.685693 kJ/mol
# GULP energy per Si atom -5580.482539 kJ/mol
# Density = 2.462575 g / cm^3
# Si number density = 24.681923 Si / 1000 Ang^3
#
#
#
# Elastic Constant Matrix: (Units=GPa)
#
#
# Indices 1 2 3 4 5 6 
#
# 1 68.3156 17.0581 5.8604 0.0000 -17.6053 0.0000
# 2 17.0581 121.3371 25.2482 0.0000 4.1856 0.0000
# 3 5.8604 25.2482 135.5818 0.0000 -24.2126 0.0000
# 4 0.0000 0.0000 0.0000 51.4108 0.0000 -15.4650
# 5 -17.6053 4.1856 -24.2126 0.0000 33.6496 0.0000
# 6 0.0000 0.0000 0.0000 -15.4650 0.0000 16.7185
#
#
#
# Elastic Compliance Matrix: (Units=1/GPa)
#
#
# Indices 1 2 3 4 5 6 
#
# 1 0.018218 -0.003334 0.001847 0.000000 0.011275 0.000000
# 2 -0.003334 0.009378 -0.002435 0.000000 -0.004663 0.000000
# 3 0.001847 -0.002435 0.009152 0.000000 0.007855 0.000000
# 4 0.000000 0.000000 0.000000 0.026950 0.000000 0.024930
# 5 0.011275 -0.004663 0.007855 0.000000 0.041849 0.000000
# 6 0.000000 0.000000 0.000000 0.024930 0.000000 0.082875
#
#
# Mechanical properties :
#
#
# Convention : Reuss Voigt Hill
#
# Bulk Modulus (GPa) = 34.59867 46.84088 40.71977
# Shear Modulus (GPa) = 24.28355 38.82695 31.55525
#
# Velocity S-wave (km/s) = 3.14006 3.97053 3.57946
# Velocity P-wave (km/s) = 5.21487 6.32765 5.79802
#
# Compressibility (1/GPa) = 0.02890284
#
# Stress axis : x y z
#
# Youngs Moduli (GPa) = 54.89132 106.63470 109.26683
#
# Poissons Ratio (x) = 0.35557 -0.20182
# Poissons Ratio (y) = 0.18303 0.26606
# Poissons Ratio (z) = -0.10139 0.25965
#
# Static dielectric constant tensor:
#      x y z
#    x 1.922360 0.000000 0.030290 
#    y 0.000000 1.530700 0.000000 
#    z 0.030290 0.000000 2.038430 
# 
# From -- ./inp_files/72553.got.cif
#   From: 2010.05.17/outbox.cif.g08.bks.cpg/sg15_37_cif.got.tgz:72553.got - 2010.06.03 18:47:42.
