data_PCOD9299181
_publ_section_title
;
Structure prediction by ZEFSAII (Michael W. Deem and Ramdas Pophale) SiO2 
 PCOD9299181
Probable space group: C 2/C
;
_chemical_formula_sum "Si O2"
_cell_formula_units_Z 44
_cell_length_a 24.024114
_cell_length_b 5.054382
_cell_length_c 14.403199
_cell_angle_alpha 90.000000
_cell_angle_beta 65.304175
_cell_angle_gamma 90.000000
_cell_volume 1588.977684
_symmetry_space_group_name_H-M "C 2/C"
_symmetry_group_IT_number 15
_symmetry_cell_setting 'monoclinic'
loop_
_space_group_symop_operation_xyz
x,y,z
-x,y,1/2-z
-x,-y,-z
x,-y,1/2+z
1/2+x,1/2+y,z
1/2-x,1/2+y,1/2-z
1/2-x,1/2-y,-z
1/2+x,1/2-y,1/2+z
loop_
_atom_site_type_symbol
_atom_site_label
_atom_site_fract_x
_atom_site_fract_y
_atom_site_fract_z
Si Si1 0.496999 0.708896 0.920590
Si Si2 0.253521 0.162284 0.180288
Si Si3 0.814715 0.858706 0.420093
Si Si4 0.128042 0.635008 0.946819
Si Si5 0.500000 0.353153 0.750000
Si Si6 0.393375 0.977179 0.234662
O O1 0.477769 0.544074 0.845203
O O2 0.563385 0.815908 0.849800
O O3 0.500000 0.500000 0.000000
O O4 0.443038 0.919487 0.977443
O O5 0.244646 0.940826 0.267836
O O6 0.203769 0.108860 0.132377
O O7 0.319796 0.091339 0.088337
O O8 0.750000 0.750000 0.500000
O O9 0.851714 0.853165 0.491362
O O10 0.847811 0.649813 0.328428
O O11 0.128904 0.703994 0.836322
O O12 0.557967 0.182163 0.739043
#
# Coordination Sequence:
#
# PCOD9299181 Si02
#       6
#     8   8   8   8   4   8
#     4  12  27  44  72 114 148 198 257 310 392 472
#     4  11  25  49  77 110 152 204 258 322 388 461
#     4  10  24  47  74 107 142 199 257 315 390 459
#     4  11  24  46  74 109 151 196 253 319 387 468
#     4  12  26  46  76 106 154 204 250 324 386 468
#     4  12  25  48  75 108 157 197 255 321 389 468
#
# _framework density 27.690760000000001
#
# number of rings (size 3 to 8) (size 9 to 14) (size 15 to 20)
#    0.000    0.727    3.636    3.273    5.091    1.455 
#    3.273    4.545    0.000    0.000    0.000    0.000 
#    0.000    0.000    0.000    0.000    0.000    0.000 
#
# Total GULP energy -123278.848841 kJ/mol
# GULP energy per Si atom -5603.584038 kJ/mol
# Density = 2.762773 g / cm^3
# Si number density = 27.690760 Si / 1000 Ang^3
#
#
#
# Elastic Constant Matrix: (Units=GPa)
#
#
# Indices 1 2 3 4 5 6 
#
# 1 146.8893 33.2066 70.3276 0.0000 4.6681 0.0000
# 2 33.2066 119.8519 68.9727 -0.0004 3.6031 -0.0003
# 3 70.3276 68.9727 219.7712 0.0000 -1.9335 0.0000
# 4 0.0000 -0.0004 0.0000 50.6653 0.0000 3.8898
# 5 4.6681 3.6031 -1.9335 0.0000 80.9849 0.0000
# 6 0.0000 -0.0003 0.0000 3.8898 0.0000 25.9037
#
#
#
# Elastic Compliance Matrix: (Units=1/GPa)
#
#
# Indices 1 2 3 4 5 6 
#
# 1 0.008141 -0.000902 -0.002326 0.000000 -0.000485 0.000000
# 2 -0.000902 0.010305 -0.002950 0.000000 -0.000477 0.000000
# 3 -0.002326 -0.002950 0.006224 0.000000 0.000414 0.000000
# 4 0.000000 0.000000 0.000000 0.019968 0.000000 -0.002998
# 5 -0.000485 -0.000477 0.000414 0.000000 0.012407 0.000000
# 6 0.000000 0.000000 0.000000 -0.002998 0.000000 0.039055
#
#
# Mechanical properties :
#
#
# Convention : Reuss Voigt Hill
#
# Bulk Modulus (GPa) = 81.20879 92.39180 86.80030
# Shear Modulus (GPa) = 44.42036 52.44447 48.43241
#
# Velocity S-wave (km/s) = 4.00954 4.35666 4.18670
# Velocity P-wave (km/s) = 7.12923 7.66455 7.40173
#
# Compressibility (1/GPa) = 0.01231394
#
# Stress axis : x y z
#
# Youngs Moduli (GPa) = 122.83529 97.03587 160.66921
#
# Poissons Ratio (x) = 0.08755 0.37375
# Poissons Ratio (y) = 0.11083 0.47393
# Poissons Ratio (z) = 0.28574 0.28623
#
# Static dielectric constant tensor:
#      x y z
#    x 2.266060 0.000000 -0.024450 
#    y 0.000000 2.150400 0.000000 
#    z -0.024450 0.000000 2.085300 
# 
# From -- ./inp_files/175629.got.cif
#   From: 2010.05.17/outbox.cif.g08.bks.cpg/sg15_88_cif.got.tgz:175629.got - 2010.06.03 18:47:42.
