data_PCOD9299389
_publ_section_title
;
Structure prediction by ZEFSAII (Michael W. Deem and Ramdas Pophale) SiO2 
 PCOD9299389
Probable space group: C 2/C
;
_chemical_formula_sum "Si O2"
_cell_formula_units_Z 52
_cell_length_a 7.529699
_cell_length_b 17.827518
_cell_length_c 19.004064
_cell_angle_alpha 90.000000
_cell_angle_beta 95.116565
_cell_angle_gamma 90.000000
_cell_volume 2540.861563
_symmetry_space_group_name_H-M "C 2/C"
_symmetry_group_IT_number 15
_symmetry_cell_setting 'monoclinic'
loop_
_space_group_symop_operation_xyz
x,y,z
-x,y,1/2-z
-x,-y,-z
x,-y,1/2+z
1/2+x,1/2+y,z
1/2-x,1/2+y,1/2-z
1/2-x,1/2-y,-z
1/2+x,1/2-y,1/2+z
loop_
_atom_site_type_symbol
_atom_site_label
_atom_site_fract_x
_atom_site_fract_y
_atom_site_fract_z
Si Si1 0.842213 0.250952 0.333979
Si Si2 0.000000 0.864067 0.750000
Si Si3 0.079459 0.041414 0.391020
Si Si4 0.798203 0.863638 0.959931
Si Si5 0.780862 0.293652 0.110349
Si Si6 0.877250 0.357199 0.960836
Si Si7 0.427672 0.365417 0.122217
O O1 0.833251 0.204086 0.406898
O O2 0.697558 0.315706 0.332624
O O3 0.839696 0.188521 0.273192
O O4 0.040114 0.284493 0.339605
O O5 0.940279 0.913792 0.682530
O O6 0.253515 0.072844 0.436529
O O7 0.908858 0.065866 0.432559
O O8 0.094637 0.954162 0.375696
O O9 0.585937 0.873370 0.957819
O O10 0.877597 0.844775 0.039244
O O11 0.692024 0.213223 0.088371
O O12 0.630876 0.342971 0.141355
O O13 0.838102 0.332183 0.039067
#
# Coordination Sequence:
#
# PCOD9299389 Si02
#       7
#     8   4   8   8   8   8   8
#     4  11  22  42  67  91 128 166 218 262 300 388
#     4  10  24  50  64  76 126 184 216 256 310 374
#     4  11  25  43  61  92 138 167 204 265 318 380
#     4  11  20  37  66  99 131 164 198 252 332 387
#     4  11  20  35  64 101 126 158 209 259 313 376
#     4  11  20  35  65  97 132 164 201 250 325 382
#     4  12  23  38  66 102 129 157 206 267 327 368
#
# _framework density 20.465499000000001
#
# number of rings (size 3 to 8) (size 9 to 14) (size 15 to 20)
#    0.000    0.923    7.692    1.846    0.000    1.846 
#    2.769    6.154    0.000    0.000    0.000    0.000 
#    0.000    0.000    0.000    0.000    0.000    0.000 
#
# Total GULP energy -145422.829886 kJ/mol
# GULP energy per Si atom -5593.185765 kJ/mol
# Density = 2.041892 g / cm^3
# Si number density = 20.465499 Si / 1000 Ang^3
#
#
#
# Elastic Constant Matrix: (Units=GPa)
#
#
# Indices 1 2 3 4 5 6 
#
# 1 147.3825 34.0354 16.6311 0.0000 -17.7332 0.0000
# 2 34.0354 118.9372 15.5818 0.0000 -22.5751 0.0000
# 3 16.6311 15.5818 66.6631 0.0000 -11.7421 0.0000
# 4 0.0000 0.0000 0.0000 14.6491 0.0000 -1.7838
# 5 -17.7332 -22.5751 -11.7421 0.0000 14.8496 0.0000
# 6 0.0000 0.0000 0.0000 -1.7838 0.0000 22.8531
#
#
#
# Elastic Compliance Matrix: (Units=1/GPa)
#
#
# Indices 1 2 3 4 5 6 
#
# 1 0.007970 -0.000677 -0.000389 0.000000 0.008180 0.000000
# 2 -0.000677 0.011888 0.000501 0.000000 0.017660 0.000000
# 3 -0.000389 0.000501 0.017466 0.000000 0.014108 0.000000
# 4 0.000000 0.000000 0.000000 0.068919 0.000000 0.005380
# 5 0.008180 0.017660 0.014108 0.000000 0.115114 0.000000
# 6 0.000000 0.000000 0.000000 0.005380 0.000000 0.044178
#
#
# Mechanical properties :
#
#
# Convention : Reuss Voigt Hill
#
# Bulk Modulus (GPa) = 27.62974 51.71992 39.67483
# Shear Modulus (GPa) = 17.93860 28.25264 23.09562
#
# Velocity S-wave (km/s) = 2.96384 3.71954 3.36298
# Velocity P-wave (km/s) = 5.02418 6.61614 5.87434
#
# Compressibility (1/GPa) = 0.03619289
#
# Stress axis : x y z
#
# Youngs Moduli (GPa) = 125.47733 84.11886 57.25504
#
# Poissons Ratio (x) = 0.05694 0.02228
# Poissons Ratio (y) = 0.08494 -0.02868
# Poissons Ratio (z) = 0.04883 -0.04214
#
# Static dielectric constant tensor:
#      x y z
#    x 1.722280 0.000000 -0.005430 
#    y 0.000000 1.718350 0.000000 
#    z -0.005430 0.000000 1.758040 
# 
# From -- ./inp_files/231171.got.cif
#   From: 2010.05.17/outbox.cif.g08.bks.cpg/sg15_116_cif.got.tgz:231171.got - 2010.06.03 18:47:42.
