data_PCOD9299276
_publ_section_title
;
Structure prediction by ZEFSAII (Michael W. Deem and Ramdas Pophale) SiO2 
 PCOD9299276
Probable space group: C 2/C
;
_chemical_formula_sum "Si O2"
_cell_formula_units_Z 32
_cell_length_a 13.383031
_cell_length_b 9.240722
_cell_length_c 11.310748
_cell_angle_alpha 90.000000
_cell_angle_beta 87.436920
_cell_angle_gamma 90.000000
_cell_volume 1397.388056
_symmetry_space_group_name_H-M "C 2/C"
_symmetry_group_IT_number 15
_symmetry_cell_setting 'monoclinic'
loop_
_space_group_symop_operation_xyz
x,y,z
-x,y,1/2-z
-x,-y,-z
x,-y,1/2+z
1/2+x,1/2+y,z
1/2-x,1/2+y,1/2-z
1/2-x,1/2-y,-z
1/2+x,1/2-y,1/2+z
loop_
_atom_site_type_symbol
_atom_site_label
_atom_site_fract_x
_atom_site_fract_y
_atom_site_fract_z
Si Si1 0.184608 0.267766 0.385405
Si Si2 0.000000 0.829571 0.250000
Si Si3 0.790752 0.967889 0.216679
Si Si4 0.250000 0.750000 0.500000
Si Si5 0.018732 0.671584 0.495509
O O1 0.250000 0.250000 0.500000
O O2 0.211914 0.415726 0.318646
O O3 0.068063 0.257890 0.420089
O O4 0.218133 0.138457 0.298476
O O5 0.900456 0.925805 0.256841
O O6 0.000833 0.729542 0.364752
O O7 0.776697 0.882737 0.094741
O O8 0.369797 0.785014 0.476025
O O9 0.000000 0.500000 0.500000
#
# Coordination Sequence:
#
# PCOD9299276 Si02
#       5
#     8   4   8   4   8
#     4  12  27  48  79 112 153 205 259 321 396 464
#     4  10  24  48  72 106 154 200 258 316 378 482
#     4  11  27  46  76 110 157 198 261 318 388 466
#     4  10  26  44  72 116 150 196 262 318 388 472
#     4  11  25  46  77 108 158 199 259 321 400 466
#
# _framework density 22.899867
#
# number of rings (size 3 to 8) (size 9 to 14) (size 15 to 20)
#    0.000    1.000    2.500    1.500   10.500    7.000 
#    0.000    0.000    0.000    0.000    0.000    0.000 
#    0.000    0.000    0.000    0.000    0.000    0.000 
#
# Total GULP energy -89171.475632 kJ/mol
# GULP energy per Si atom -5573.217227 kJ/mol
# Density = 2.284775 g / cm^3
# Si number density = 22.899867 Si / 1000 Ang^3
#
#
#
# Elastic Constant Matrix: (Units=GPa)
#
#
# Indices 1 2 3 4 5 6 
#
# 1 209.2545 29.5932 36.7872 0.0000 -7.7049 0.0000
# 2 29.5932 72.5235 34.9949 0.0000 -4.4880 0.0000
# 3 36.7872 34.9949 42.5328 0.0000 -11.3048 0.0000
# 4 0.0000 0.0000 0.0000 35.5491 0.0000 -16.1466
# 5 -7.7049 -4.4880 -11.3048 0.0000 40.6628 0.0000
# 6 0.0000 0.0000 0.0000 -16.1466 0.0000 17.6417
#
#
#
# Elastic Compliance Matrix: (Units=1/GPa)
#
#
# Indices 1 2 3 4 5 6 
#
# 1 0.005640 0.000123 -0.005066 0.000000 -0.000326 0.000000
# 2 0.000123 0.023196 -0.019981 0.000000 -0.002972 0.000000
# 3 -0.005066 -0.019981 0.046962 0.000000 0.009891 0.000000
# 4 0.000000 0.000000 0.000000 0.048144 0.000000 0.044064
# 5 -0.000326 -0.002972 0.009891 0.000000 0.026953 0.000000
# 6 0.000000 0.000000 0.000000 0.044064 0.000000 0.097013
#
#
# Mechanical properties :
#
#
# Convention : Reuss Voigt Hill
#
# Bulk Modulus (GPa) = 38.53664 58.56238 48.54951
# Shear Modulus (GPa) = 16.31816 33.63308 24.97562
#
# Velocity S-wave (km/s) = 2.67233 3.83652 3.30607
# Velocity P-wave (km/s) = 5.13679 6.72711 5.98501
#
# Compressibility (1/GPa) = 0.02594933
#
# Stress axis : x y z
#
# Youngs Moduli (GPa) = 177.30214 43.11037 21.29380
#
# Poissons Ratio (x) = -0.00530 0.10787
# Poissons Ratio (y) = -0.02179 0.42548
# Poissons Ratio (z) = 0.89821 0.86141
#
# Static dielectric constant tensor:
#      x y z
#    x 1.813120 0.000000 -0.018920 
#    y 0.000000 1.821820 0.000000 
#    z -0.018920 0.000000 1.910850 
# 
# From -- ./inp_files/84091.got.cif
#   From: 2010.05.17/outbox.cif.g08.bks.cpg/sg15_43_cif.got.tgz:84091.got - 2010.06.03 18:47:42.
