data_PCOD9299266
_publ_section_title
;
Structure prediction by ZEFSAII (Michael W. Deem and Ramdas Pophale) SiO2 
 PCOD9299266
Probable space group: C 2/C
;
_chemical_formula_sum "Si O2"
_cell_formula_units_Z 52
_cell_length_a 6.571746
_cell_length_b 16.399768
_cell_length_c 27.701109
_cell_angle_alpha 90.000000
_cell_angle_beta 135.652323
_cell_angle_gamma 90.000000
_cell_volume 2086.889159
_symmetry_space_group_name_H-M "C 2/C"
_symmetry_group_IT_number 15
_symmetry_cell_setting 'monoclinic'
loop_
_space_group_symop_operation_xyz
x,y,z
-x,y,1/2-z
-x,-y,-z
x,-y,1/2+z
1/2+x,1/2+y,z
1/2-x,1/2+y,1/2-z
1/2-x,1/2-y,-z
1/2+x,1/2-y,1/2+z
loop_
_atom_site_type_symbol
_atom_site_label
_atom_site_fract_x
_atom_site_fract_y
_atom_site_fract_z
Si Si1 0.448304 0.149804 0.371367
Si Si2 0.500000 0.541430 0.250000
Si Si3 0.833457 0.275586 0.953670
Si Si4 0.817070 0.075094 0.797533
Si Si5 0.853225 0.770622 0.173172
Si Si6 0.161068 0.001075 0.594121
Si Si7 0.249043 0.108583 0.524667
O O1 0.449647 0.188856 0.424011
O O2 0.469417 0.220388 0.336006
O O3 0.154187 0.098583 0.314859
O O4 0.679593 0.083403 0.391417
O O5 0.706206 0.484776 0.252399
O O6 0.484385 0.257381 0.886662
O O7 0.944698 0.187201 0.990125
O O8 0.902346 0.341405 0.007236
O O9 0.500000 0.116567 0.750000
O O10 0.870779 0.026446 0.856117
O O11 0.079373 0.136110 0.830259
O O12 0.000000 0.757663 0.250000
O O13 0.317057 0.070874 0.588920
O O14 0.850250 0.975343 0.518674
#
# Coordination Sequence:
#
# PCOD9299266 Si02
#       7
#     8   4   8   8   8   8   8
#     4  12  26  43  75 104 146 185 237 296 365 422
#     4  12  26  42  72 108 138 190 226 304 364 426
#     4  11  25  49  70 104 143 189 240 292 357 435
#     4  12  27  48  72 106 147 184 243 298 366 435
#     4  12  28  45  72 105 143 190 238 294 363 440
#     4  11  24  47  72 106 140 190 237 303 356 422
#     4  10  24  48  71 101 145 186 245 289 353 428
#
# _framework density 24.917470000000002
#
# number of rings (size 3 to 8) (size 9 to 14) (size 15 to 20)
#    0.000    0.615    3.846    2.769    9.692    1.231 
#   11.077    0.000    0.000    0.000    0.000    0.000 
#    0.000    0.000    0.000    0.000    0.000    0.000 
#
# Total GULP energy -145131.445381 kJ/mol
# GULP energy per Si atom -5581.978669 kJ/mol
# Density = 2.486076 g / cm^3
# Si number density = 24.917470 Si / 1000 Ang^3
#
#
#
# Elastic Constant Matrix: (Units=GPa)
#
#
# Indices 1 2 3 4 5 6 
#
# 1 113.1968 37.2803 56.3697 0.0000 -35.9895 0.0001
# 2 37.2803 111.3914 27.9389 0.0000 -36.8630 0.0000
# 3 56.3697 27.9389 107.0085 -0.0001 -52.1191 0.0002
# 4 0.0000 0.0000 -0.0001 40.9874 0.0000 -6.6290
# 5 -35.9895 -36.8630 -52.1191 0.0000 65.9566 0.0001
# 6 0.0001 0.0000 0.0002 -6.6290 0.0001 31.4730
#
#
#
# Elastic Compliance Matrix: (Units=1/GPa)
#
#
# Indices 1 2 3 4 5 6 
#
# 1 0.012777 -0.002487 -0.005466 0.000000 0.001262 0.000000
# 2 -0.002487 0.011501 0.001263 0.000000 0.006069 0.000000
# 3 -0.005466 0.001263 0.017534 0.000000 0.011579 0.000000
# 4 0.000000 0.000000 0.000000 0.025258 0.000000 0.005320
# 5 0.001262 0.006069 0.011579 0.000000 0.028392 0.000000
# 6 0.000000 0.000000 0.000000 0.005320 0.000000 0.032894
#
#
# Mechanical properties :
#
#
# Convention : Reuss Voigt Hill
#
# Bulk Modulus (GPa) = 35.17192 63.86385 49.51789
# Shear Modulus (GPa) = 33.06555 41.68392 37.37473
#
# Velocity S-wave (km/s) = 3.64676 4.09452 3.87711
# Velocity P-wave (km/s) = 5.64604 6.93104 6.32128
#
# Compressibility (1/GPa) = 0.02843177
#
# Stress axis : x y z
#
# Youngs Moduli (GPa) = 78.26699 86.94560 57.03053
#
# Poissons Ratio (x) = 0.21627 0.31176
# Poissons Ratio (y) = 0.19468 -0.07206
# Poissons Ratio (z) = 0.42785 -0.10985
#
# Static dielectric constant tensor:
#      x y z
#    x 2.038930 0.000000 0.240630 
#    y 0.000000 1.955280 0.000000 
#    z 0.240630 0.000000 2.259490 
# 
# From -- ./inp_files/286148.got.cif
#   From: 2010.05.17/outbox.cif.g08.bks.cpg/sg15_144_cif.got.tgz:286148.got - 2010.06.03 18:47:42.
