data_PCOD9299514
_publ_section_title
;
Structure prediction by ZEFSAII (Michael W. Deem and Ramdas Pophale) SiO2 
 PCOD9299514
Probable space group: C 2/C
;
_chemical_formula_sum "Si O2"
_cell_formula_units_Z 56
_cell_length_a 12.201896
_cell_length_b 8.075076
_cell_length_c 30.886683
_cell_angle_alpha 90.000000
_cell_angle_beta 52.010232
_cell_angle_gamma 90.000000
_cell_volume 2398.490130
_symmetry_space_group_name_H-M "C 2/C"
_symmetry_group_IT_number 15
_symmetry_cell_setting 'monoclinic'
loop_
_space_group_symop_operation_xyz
x,y,z
-x,y,1/2-z
-x,-y,-z
x,-y,1/2+z
1/2+x,1/2+y,z
1/2-x,1/2+y,1/2-z
1/2-x,1/2-y,-z
1/2+x,1/2-y,1/2+z
loop_
_atom_site_type_symbol
_atom_site_label
_atom_site_fract_x
_atom_site_fract_y
_atom_site_fract_z
Si Si1 0.021812 0.264973 0.648485
Si Si2 0.301349 0.079320 0.557760
Si Si3 0.365424 0.245377 0.901649
Si Si4 0.389769 0.053910 0.811588
Si Si5 0.536806 0.040149 0.063365
Si Si6 0.314182 0.687305 0.188399
Si Si7 0.873866 0.017772 0.748363
O O1 0.027045 0.417917 0.680242
O O2 0.974192 0.334162 0.613834
O O3 0.178251 0.198662 0.602486
O O4 0.937964 0.121905 0.692630
O O5 0.234544 0.898244 0.564714
O O6 0.417181 0.057686 0.566623
O O7 0.376510 0.131919 0.495161
O O8 0.526224 0.301283 0.863816
O O9 0.338856 0.185997 0.858841
O O10 0.364906 0.087891 0.933889
O O11 0.500000 0.118084 0.750000
O O12 0.269582 0.951294 0.817288
O O13 0.310336 0.640645 0.240392
O O14 0.237848 0.863166 0.202018
O O15 0.000000 0.986944 0.750000
#
# Coordination Sequence:
#
# PCOD9299514 Si02
#       7
#     8   8   8   8   8   8   8
#     4  11  21  43  66  92 127 166 209 260 315 372
#     4  11  23  45  64  96 123 161 224 260 319 376
#     4  11  25  40  65  95 126 165 211 258 313 376
#     4  11  22  43  59  91 133 167 205 252 307 375
#     4  10  25  42  69  90 126 168 204 275 323 366
#     4  12  24  40  63  90 127 169 204 251 311 369
#     4  12  26  41  63  95 130 167 210 256 303 382
#
# _framework density 23.348022
#
# number of rings (size 3 to 8) (size 9 to 14) (size 15 to 20)
#    0.000    0.857    4.286    2.571    4.000    1.714 
#    0.000    0.000    0.000    9.429    0.000    0.000 
#    0.000    0.000    0.000    0.000    0.000    0.000 
#
# Total GULP energy -156869.645046 kJ/mol
# GULP energy per Si atom -5602.487323 kJ/mol
# Density = 2.329488 g / cm^3
# Si number density = 23.348022 Si / 1000 Ang^3
#
#
#
# Elastic Constant Matrix: (Units=GPa)
#
#
# Indices 1 2 3 4 5 6 
#
# 1 97.5415 9.1953 27.4800 0.0000 16.4940 0.0000
# 2 9.1953 50.8899 17.3807 0.0000 6.8409 0.0000
# 3 27.4800 17.3807 108.7630 0.0000 23.8642 0.0000
# 4 0.0000 0.0000 0.0000 22.3376 0.0000 1.2503
# 5 16.4940 6.8409 23.8642 0.0000 30.2113 0.0000
# 6 0.0000 0.0000 0.0000 1.2503 0.0000 31.7254
#
#
#
# Elastic Compliance Matrix: (Units=1/GPa)
#
#
# Indices 1 2 3 4 5 6 
#
# 1 0.011634 -0.000862 -0.001755 0.000000 -0.004770 0.000000
# 2 -0.000862 0.021008 -0.002660 0.000000 -0.002185 0.000000
# 3 -0.001755 -0.002660 0.011758 0.000000 -0.007727 0.000000
# 4 0.000000 0.000000 0.000000 0.044866 0.000000 -0.001768
# 5 -0.004770 -0.002185 -0.007727 0.000000 0.042304 0.000000
# 6 0.000000 0.000000 0.000000 -0.001768 0.000000 0.031590
#
#
# Mechanical properties :
#
#
# Convention : Reuss Voigt Hill
#
# Bulk Modulus (GPa) = 29.54422 40.58962 35.06692
# Shear Modulus (GPa) = 27.02747 30.39741 28.71244
#
# Velocity S-wave (km/s) = 3.40603 3.61214 3.51060
# Velocity P-wave (km/s) = 5.30560 5.90077 5.61108
#
# Compressibility (1/GPa) = 0.03384756
#
# Stress axis : x y z
#
# Youngs Moduli (GPa) = 85.95198 47.60050 85.04587
#
# Poissons Ratio (x) = 0.04101 0.14927
# Poissons Ratio (y) = 0.07405 0.22622
# Poissons Ratio (z) = 0.15086 0.12662
#
# Static dielectric constant tensor:
#      x y z
#    x 1.855520 0.000000 0.013430 
#    y 0.000000 1.895300 0.000000 
#    z 0.013430 0.000000 1.886040 
# 
# From -- ./inp_files/291527.got.cif
#   From: 2010.05.17/outbox.cif.g08.bks.cpg/sg15_146_cif.got.tgz:291527.got - 2010.06.03 18:47:42.
