data_PCOD9299252
_publ_section_title
;
Structure prediction by ZEFSAII (Michael W. Deem and Ramdas Pophale) SiO2 
 PCOD9299252
Probable space group: C 2/C
;
_chemical_formula_sum "Si O2"
_cell_formula_units_Z 32
_cell_length_a 32.395344
_cell_length_b 4.781125
_cell_length_c 16.537860
_cell_angle_alpha 90.000000
_cell_angle_beta 25.011033
_cell_angle_gamma 90.000000
_cell_volume 1082.977820
_symmetry_space_group_name_H-M "C 2/C"
_symmetry_group_IT_number 15
_symmetry_cell_setting 'monoclinic'
loop_
_space_group_symop_operation_xyz
x,y,z
-x,y,1/2-z
-x,-y,-z
x,-y,1/2+z
1/2+x,1/2+y,z
1/2-x,1/2+y,1/2-z
1/2-x,1/2-y,-z
1/2+x,1/2-y,1/2+z
loop_
_atom_site_type_symbol
_atom_site_label
_atom_site_fract_x
_atom_site_fract_y
_atom_site_fract_z
Si Si1 0.665885 0.301887 0.050412
Si Si2 0.903140 0.775819 0.501372
Si Si3 0.628232 0.575029 0.785711
Si Si4 0.971762 0.729124 0.672805
O O1 0.631155 0.519687 0.185650
O O2 0.612918 0.006986 0.164771
O O3 0.660074 0.347944 0.964564
O O4 0.780073 0.274655 0.866884
O O5 0.856224 0.850552 0.671177
O O6 0.940765 0.461372 0.436235
O O7 0.999647 0.974489 0.332659
O O8 0.527962 0.734222 0.985546
#
# Coordination Sequence:
#
# PCOD9299252 Si02
#       4
#     8   8   8   8
#     4  11  22  48  78 110 157 209 260 336 401 479
#     4  10  25  46  72 110 156 204 265 327 397 480
#     4   9  25  46  72 117 149 206 267 326 406 471
#     4  10  24  48  69 109 153 205 261 326 396 477
#
# _framework density 29.548159999999999
#
# number of rings (size 3 to 8) (size 9 to 14) (size 15 to 20)
#    1.500    0.500    0.000    1.500    3.500    5.000 
#    9.000    2.500    0.000    0.000    0.000    0.000 
#    0.000    0.000    0.000    0.000    0.000    0.000 
#
# Total GULP energy -89392.326362 kJ/mol
# GULP energy per Si atom -5587.020398 kJ/mol
# Density = 2.948091 g / cm^3
# Si number density = 29.548160 Si / 1000 Ang^3
#
#
#
# Elastic Constant Matrix: (Units=GPa)
#
#
# Indices 1 2 3 4 5 6 
#
# 1 247.1674 79.8900 30.6519 -0.0021 5.6671 -0.0004
# 2 79.8900 189.7812 39.5808 0.0014 29.5251 0.0128
# 3 30.6519 39.5808 120.1421 -0.0013 9.0966 0.0022
# 4 -0.0021 0.0014 -0.0013 30.7032 -0.0023 11.7882
# 5 5.6671 29.5251 9.0966 -0.0023 37.5629 -0.0030
# 6 -0.0004 0.0128 0.0022 11.7882 -0.0030 33.5277
#
#
#
# Elastic Compliance Matrix: (Units=1/GPa)
#
#
# Indices 1 2 3 4 5 6 
#
# 1 0.004756 -0.002033 -0.000622 0.000000 0.001031 0.000001
# 2 -0.002033 0.007212 -0.001478 0.000000 -0.005004 -0.000003
# 3 -0.000622 -0.001478 0.009040 0.000000 -0.000933 0.000000
# 4 0.000000 0.000000 0.000000 0.037653 0.000001 -0.013239
# 5 0.001031 -0.005004 -0.000933 0.000001 0.030626 0.000004
# 6 0.000001 -0.000003 0.000000 -0.013239 0.000004 0.034481
#
#
# Mechanical properties :
#
#
# Convention : Reuss Voigt Hill
#
# Bulk Modulus (GPa) = 78.48200 95.25955 86.87078
# Shear Modulus (GPa) = 36.68896 47.48996 42.08946
#
# Velocity S-wave (km/s) = 3.52755 4.01335 3.77826
# Velocity P-wave (km/s) = 6.57342 7.33380 6.96400
#
# Compressibility (1/GPa) = 0.01274177
#
# Stress axis : x y z
#
# Youngs Moduli (GPa) = 210.24256 138.66119 110.62138
#
# Poissons Ratio (x) = 0.28189 0.06878
# Poissons Ratio (y) = 0.42741 0.16354
# Poissons Ratio (z) = 0.13073 0.20500
#
# Static dielectric constant tensor:
#      x y z
#    x 2.314550 0.000000 -0.045810 
#    y 0.000000 2.345550 0.000010 
#    z -0.045810 0.000010 2.577830 
# 
# From -- ./inp_files/223503.got.cif
#   From: 2010.05.17/outbox.cif.g08.bks.cpg/sg15_112_cif.got.tgz:223503.got - 2010.06.03 18:47:42.
