data_PCOD9299020
_publ_section_title
;
Structure prediction by ZEFSAII (Michael W. Deem and Ramdas Pophale) SiO2 
 PCOD9299020
Probable space group: C 2/C
;
_chemical_formula_sum "Si O2"
_cell_formula_units_Z 44
_cell_length_a 13.014633
_cell_length_b 20.002591
_cell_length_c 8.607212
_cell_angle_alpha 90.000000
_cell_angle_beta 112.199966
_cell_angle_gamma 90.000000
_cell_volume 2074.584232
_symmetry_space_group_name_H-M "C 2/C"
_symmetry_group_IT_number 15
_symmetry_cell_setting 'monoclinic'
loop_
_space_group_symop_operation_xyz
x,y,z
-x,y,1/2-z
-x,-y,-z
x,-y,1/2+z
1/2+x,1/2+y,z
1/2-x,1/2+y,1/2-z
1/2-x,1/2-y,-z
1/2+x,1/2-y,1/2+z
loop_
_atom_site_type_symbol
_atom_site_label
_atom_site_fract_x
_atom_site_fract_y
_atom_site_fract_z
Si Si1 0.193205 0.811777 0.057100
Si Si2 0.759177 0.080526 0.410438
Si Si3 0.858294 0.674951 0.924027
Si Si4 0.044139 0.817130 0.448064
Si Si5 0.283887 0.947450 0.963659
Si Si6 0.500000 0.904103 0.250000
O O1 0.247688 0.813283 0.259077
O O2 0.061583 0.809754 0.999435
O O3 0.250000 0.750000 0.000000
O O4 0.226812 0.880325 0.993538
O O5 0.671124 0.124313 0.455954
O O6 0.868405 0.126129 0.453278
O O7 0.712051 0.058375 0.218159
O O8 0.780409 0.013714 0.521432
O O9 0.944756 0.642301 0.851629
O O10 0.897995 0.745023 0.013658
O O11 0.000000 0.832059 0.250000
O O12 0.404559 0.947187 0.113304
#
# Coordination Sequence:
#
# PCOD9299020 Si02
#       6
#     8   8   8   8   8   4
#     4  11  24  46  72 104 144 182 236 292 349 425
#     4  12  27  46  69 103 144 185 241 295 352 432
#     4  11  24  43  69 104 139 180 240 298 350 422
#     4  12  26  43  73 105 141 191 232 290 357 419
#     4  11  26  46  72 102 143 187 232 299 353 424
#     4  10  24  46  74 106 138 182 238 296 370 422
#
# _framework density 21.209069
#
# number of rings (size 3 to 8) (size 9 to 14) (size 15 to 20)
#    0.000    0.727    1.818    6.000    5.091    5.818 
#    0.000    0.000    0.000    0.000    0.000    0.000 
#    0.000    0.000    0.000    0.000    0.000    0.000 
#
# Total GULP energy -123181.114409 kJ/mol
# GULP energy per Si atom -5599.141564 kJ/mol
# Density = 2.116080 g / cm^3
# Si number density = 21.209069 Si / 1000 Ang^3
#
#
#
# Elastic Constant Matrix: (Units=GPa)
#
#
# Indices 1 2 3 4 5 6 
#
# 1 134.6910 66.8367 27.3995 0.0000 -14.0752 0.0000
# 2 66.8367 147.0398 34.4066 0.0000 -8.7284 0.0000
# 3 27.3995 34.4066 114.1428 0.0000 -20.0546 0.0000
# 4 0.0000 0.0000 0.0000 32.4454 0.0000 -4.3415
# 5 -14.0752 -8.7284 -20.0546 0.0000 19.4342 0.0000
# 6 0.0000 0.0000 0.0000 -4.3415 0.0000 5.6711
#
#
#
# Elastic Compliance Matrix: (Units=1/GPa)
#
#
# Indices 1 2 3 4 5 6 
#
# 1 0.010115 -0.004234 -0.000243 0.000000 0.005174 0.000000
# 2 -0.004234 0.009114 -0.001894 0.000000 -0.000928 0.000000
# 3 -0.000243 -0.001894 0.011249 0.000000 0.010582 0.000000
# 4 0.000000 0.000000 0.000000 0.034339 0.000000 0.026288
# 5 0.005174 -0.000928 0.010582 0.000000 0.065706 0.000000
# 6 0.000000 0.000000 0.000000 0.026288 0.000000 0.196459
#
#
# Mechanical properties :
#
#
# Convention : Reuss Voigt Hill
#
# Bulk Modulus (GPa) = 56.37900 72.57326 64.47613
# Shear Modulus (GPa) = 14.46610 29.32551 21.89581
#
# Velocity S-wave (km/s) = 2.61448 3.72248 3.21655
# Velocity P-wave (km/s) = 5.97948 7.26417 6.65291
#
# Compressibility (1/GPa) = 0.01773710
#
# Stress axis : x y z
#
# Youngs Moduli (GPa) = 98.85825 109.72714 88.89411
#
# Poissons Ratio (x) = 0.46459 0.02159
# Poissons Ratio (y) = 0.41857 0.16834
# Poissons Ratio (z) = 0.02401 0.20779
#
# Static dielectric constant tensor:
#      x y z
#    x 1.751170 0.000000 -0.016560 
#    y 0.000000 1.730750 0.000000 
#    z -0.016560 0.000000 1.750090 
# 
# From -- ./inp_files/31054.got.cif
#   From: 2010.05.17/outbox.cif.g08.bks.cpg/sg15_16_cif.got.tgz:31054.got - 2010.06.03 18:47:42.
