data_PCOD9299332
_publ_section_title
;
Structure prediction by ZEFSAII (Michael W. Deem and Ramdas Pophale) SiO2 
 PCOD9299332
Probable space group: C 2/C
;
_chemical_formula_sum "Si O2"
_cell_formula_units_Z 32
_cell_length_a 13.110188
_cell_length_b 8.737859
_cell_length_c 14.701885
_cell_angle_alpha 90.000000
_cell_angle_beta 38.255035
_cell_angle_gamma 90.000000
_cell_volume 1042.778192
_symmetry_space_group_name_H-M "C 2/C"
_symmetry_group_IT_number 15
_symmetry_cell_setting 'monoclinic'
loop_
_space_group_symop_operation_xyz
x,y,z
-x,y,1/2-z
-x,-y,-z
x,-y,1/2+z
1/2+x,1/2+y,z
1/2-x,1/2+y,1/2-z
1/2-x,1/2-y,-z
1/2+x,1/2-y,1/2+z
loop_
_atom_site_type_symbol
_atom_site_label
_atom_site_fract_x
_atom_site_fract_y
_atom_site_fract_z
Si Si1 0.500000 0.725964 0.750000
Si Si2 0.723210 0.718297 0.851674
Si Si3 0.839134 0.513507 0.911235
Si Si4 0.000000 0.500000 0.500000
Si Si5 0.081533 0.004499 0.344125
O O1 0.347229 0.843856 0.860354
O O2 0.503756 0.609496 0.664852
O O3 0.565243 0.821069 0.936467
O O4 0.867950 0.838569 0.735640
O O5 0.755415 0.584189 0.752265
O O6 0.790632 0.868330 0.041332
O O7 0.000000 0.583557 0.750000
O O8 0.879423 0.500116 0.988441
O O9 0.000000 0.000000 0.500000
#
# Coordination Sequence:
#
# PCOD9299332 Si02
#       5
#     4   8   8   4   8
#     4  10  24  50  76 118 166 196 278 344 402 504
#     4  12  27  50  82 118 165 219 273 345 411 504
#     4  10  24  48  79 115 163 213 271 343 412 487
#     4  12  24  48  80 114 162 212 276 330 426 484
#     4  12  29  50  81 119 161 216 276 340 420 489
#
# _framework density 30.687255
#
# number of rings (size 3 to 8) (size 9 to 14) (size 15 to 20)
#    0.750    0.000    2.500    3.750    8.750    2.000 
#    0.000    3.750    0.000    0.000    0.000    0.000 
#    0.000    0.000    0.000    0.000    0.000    0.000 
#
# Total GULP energy -89253.308671 kJ/mol
# GULP energy per Si atom -5578.331792 kJ/mol
# Density = 3.061741 g / cm^3
# Si number density = 30.687255 Si / 1000 Ang^3
#
#
#
# Elastic Constant Matrix: (Units=GPa)
#
#
# Indices 1 2 3 4 5 6 
#
# 1 127.3314 92.1268 79.6853 0.0000 42.0498 0.0000
# 2 92.1268 298.8425 98.5787 0.0000 59.7762 0.0000
# 3 79.6853 98.5787 166.6081 0.0000 48.9252 0.0000
# 4 0.0000 0.0000 0.0000 63.3537 0.0000 29.3199
# 5 42.0498 59.7762 48.9252 0.0000 68.2814 0.0000
# 6 0.0000 0.0000 0.0000 29.3199 0.0000 88.0734
#
#
#
# Elastic Compliance Matrix: (Units=1/GPa)
#
#
# Indices 1 2 3 4 5 6 
#
# 1 0.012906 -0.001987 -0.004020 0.000000 -0.003328 0.000000
# 2 -0.001987 0.004792 -0.001282 0.000000 -0.002053 0.000000
# 3 -0.004020 -0.001282 0.009659 0.000000 -0.003323 0.000000
# 4 0.000000 0.000000 0.000000 0.018659 0.000000 -0.006212
# 5 -0.003328 -0.002053 -0.003323 0.000000 0.020873 0.000000
# 6 0.000000 0.000000 0.000000 -0.006212 0.000000 0.013422
#
#
# Mechanical properties :
#
#
# Convention : Reuss Voigt Hill
#
# Bulk Modulus (GPa) = 78.25027 125.95152 102.10089
# Shear Modulus (GPa) = 50.42901 65.43443 57.93172
#
# Velocity S-wave (km/s) = 4.05819 4.62269 4.34961
# Velocity P-wave (km/s) = 6.89298 8.34416 7.65305
#
# Compressibility (1/GPa) = 0.01277951
#
# Stress axis : x y z
#
# Youngs Moduli (GPa) = 77.48540 208.66159 103.52848
#
# Poissons Ratio (x) = 0.41459 0.41614
# Poissons Ratio (y) = 0.15395 0.13277
# Poissons Ratio (z) = 0.31146 0.26759
#
# Static dielectric constant tensor:
#      x y z
#    x 3.243290 0.000000 0.009290 
#    y 0.000000 2.527100 0.000000 
#    z 0.009290 0.000000 1.960990 
# 
# From -- ./inp_files/165579.got.cif
#   From: 2010.05.17/outbox.cif.g08.bks.cpg/sg15_83_cif.got.tgz:165579.got - 2010.06.03 18:47:42.
