data_PCOD9299364
_publ_section_title
;
Structure prediction by ZEFSAII (Michael W. Deem and Ramdas Pophale) SiO2 
 PCOD9299364
Probable space group: C 2/C
;
_chemical_formula_sum "Si O2"
_cell_formula_units_Z 56
_cell_length_a 18.700815
_cell_length_b 22.421993
_cell_length_c 18.284131
_cell_angle_alpha 90.000000
_cell_angle_beta 161.867658
_cell_angle_gamma 90.000000
_cell_volume 2385.979412
_symmetry_space_group_name_H-M "C 2/C"
_symmetry_group_IT_number 15
_symmetry_cell_setting 'monoclinic'
loop_
_space_group_symop_operation_xyz
x,y,z
-x,y,1/2-z
-x,-y,-z
x,-y,1/2+z
1/2+x,1/2+y,z
1/2-x,1/2+y,1/2-z
1/2-x,1/2-y,-z
1/2+x,1/2-y,1/2+z
loop_
_atom_site_type_symbol
_atom_site_label
_atom_site_fract_x
_atom_site_fract_y
_atom_site_fract_z
Si Si1 0.157990 0.403341 0.544704
Si Si2 0.093375 0.006086 0.671199
Si Si3 0.425123 0.102377 0.976738
Si Si4 0.500000 0.689919 0.750000
Si Si5 0.745069 0.817834 0.520583
Si Si6 0.258610 0.413711 0.934019
Si Si7 0.000000 0.519772 0.750000
Si Si8 0.327105 0.722189 0.736809
O O1 0.392306 0.440808 0.781689
O O2 0.211221 0.336384 0.571020
O O3 0.039621 0.441448 0.362699
O O4 0.035241 0.398302 0.503229
O O5 0.962177 0.056065 0.587451
O O6 0.343280 0.034507 0.908239
O O7 0.000000 0.000000 0.500000
O O8 0.586788 0.109760 0.204319
O O9 0.235628 0.154992 0.797864
O O10 0.318695 0.643482 0.539283
O O11 0.375445 0.722958 0.696050
O O12 0.500000 0.838785 0.250000
O O13 0.750000 0.750000 0.500000
O O14 0.000000 0.843288 0.750000
O O15 0.194284 0.470320 0.922364
O O16 0.080902 0.756391 0.513210
#
# Coordination Sequence:
#
# PCOD9299364 Si02
#       8
#     8   8   8   4   8   8   4   8
#     4  12  25  45  76 113 148 207 256 329 391 484
#     4  12  24  43  75 107 152 196 249 313 400 483
#     4  12  26  50  69 108 159 199 252 330 399 467
#     4  12  24  48  81 108 149 202 254 326 384 462
#     4  10  24  49  75 109 150 200 265 327 390 457
#     4  12  24  45  70 109 156 197 249 315 399 472
#     4  12  24  40  71 108 153 194 262 304 390 478
#     4  12  28  51  77 113 150 208 272 322 388 473
#
# _framework density 23.470447
#
# number of rings (size 3 to 8) (size 9 to 14) (size 15 to 20)
#    0.000    0.286    5.000    4.286    2.000    2.286 
#    5.143    0.000    0.000    0.000    0.000    0.000 
#    0.000    0.000    0.000    0.000    0.000    0.000 
#
# Total GULP energy -156008.730885 kJ/mol
# GULP energy per Si atom -5571.740389 kJ/mol
# Density = 2.341703 g / cm^3
# Si number density = 23.470447 Si / 1000 Ang^3
#
#
#
# Elastic Constant Matrix: (Units=GPa)
#
#
# Indices 1 2 3 4 5 6 
#
# 1 76.1865 23.3601 20.8331 -0.0006 5.7297 -0.0001
# 2 23.3601 109.3902 20.7805 -0.0001 3.6357 0.0001
# 3 20.8331 20.7805 104.3676 -0.0025 0.1676 -0.0002
# 4 -0.0006 -0.0001 -0.0025 -12.4541 -0.0010 10.4460
# 5 5.7297 3.6357 0.1676 -0.0010 38.1968 -0.0002
# 6 -0.0001 0.0001 -0.0002 10.4460 -0.0002 45.2623
#
#
#
# Elastic Compliance Matrix: (Units=1/GPa)
#
#
# Indices 1 2 3 4 5 6 
#
# 1 0.014737 -0.002623 -0.002416 0.000000 -0.001950 0.000000
# 2 -0.002623 0.009999 -0.001466 0.000000 -0.000552 0.000000
# 3 -0.002416 -0.001466 0.010355 -0.000002 0.000457 0.000000
# 4 0.000000 0.000000 -0.000002 -0.067273 -0.000002 0.015526
# 5 -0.001950 -0.000552 0.000457 -0.000002 0.026523 0.000001
# 6 0.000000 0.000000 0.000000 0.015526 0.000001 0.018510
#
#
# Mechanical properties :
#
#
# Convention : Reuss Voigt Hill
#
# Bulk Modulus (GPa) = 45.29120 46.65461 45.97290
# Shear Modulus (GPa) = 150.49447 29.19904 89.84675
#
# Velocity S-wave (km/s) = 8.01624 3.53097 6.19386
# Velocity P-wave (km/s) = 10.24788 6.04524 8.41320
#
# Compressibility (1/GPa) = 0.02207935
#
# Stress axis : x y z
#
# Youngs Moduli (GPa) = 67.85429 100.01321 96.57110
#
# Poissons Ratio (x) = 0.26237 0.23335
# Poissons Ratio (y) = 0.17800 0.14160
# Poissons Ratio (z) = 0.16396 0.14665
#
# Static dielectric constant tensor:
#      x y z
#    x 2.136760 -0.000010 0.154080 
#    y -0.000010 1.709570 0.000000 
#    z 0.154080 0.000000 2.059520 
# 
# From -- ./inp_files/212310.got.cif
#   From: 2010.05.17/outbox.cif.g08.bks.cpg/sg15_107_cif.got.tgz:212310.got - 2010.06.03 18:47:42.
