data_PCOD9299932
_publ_section_title
;
Structure prediction by ZEFSAII (Michael W. Deem and Ramdas Pophale) SiO2 
 PCOD9299932
Probable space group: C 2/C
;
_chemical_formula_sum "Si O2"
_cell_formula_units_Z 40
_cell_length_a 12.899052
_cell_length_b 18.474724
_cell_length_c 17.038132
_cell_angle_alpha 90.000000
_cell_angle_beta 155.067841
_cell_angle_gamma 90.000000
_cell_volume 1711.597022
_symmetry_space_group_name_H-M "C 2/C"
_symmetry_group_IT_number 15
_symmetry_cell_setting 'monoclinic'
loop_
_space_group_symop_operation_xyz
x,y,z
-x,y,1/2-z
-x,-y,-z
x,-y,1/2+z
1/2+x,1/2+y,z
1/2-x,1/2+y,1/2-z
1/2-x,1/2-y,-z
1/2+x,1/2-y,1/2+z
loop_
_atom_site_type_symbol
_atom_site_label
_atom_site_fract_x
_atom_site_fract_y
_atom_site_fract_z
Si Si1 0.742221 0.999307 0.778823
Si Si2 0.250000 0.750000 0.000000
Si Si3 0.500000 0.079578 0.250000
Si Si4 0.602831 0.835251 0.155214
Si Si5 0.917431 0.820284 0.106022
Si Si6 0.112389 0.119197 0.246995
O O1 0.546472 0.967493 0.704998
O O2 0.789310 0.943571 0.740771
O O3 0.667289 0.080230 0.705807
O O4 0.000000 0.000000 0.000000
O O5 0.511656 0.795144 0.170081
O O6 0.400229 0.674752 0.075837
O O7 0.744356 0.125724 0.437575
O O8 0.835122 0.801458 0.271258
O O9 0.348358 0.832145 0.931884
O O10 0.000000 0.846359 0.250000
O O11 0.750000 0.750000 0.000000
O O12 0.000000 0.086474 0.250000
#
# Coordination Sequence:
#
# PCOD9299932 Si02
#       6
#     8   4   4   8   8   8
#     4  12  27  47  74 108 156 201 258 318 397 478
#     4  10  26  44  80 112 146 190 262 340 404 464
#     4  12  28  50  74 120 154 212 254 326 394 480
#     4  11  26  48  73 109 146 205 252 326 389 476
#     4  12  27  46  75 111 155 205 260 321 393 468
#     4  10  25  48  77 112 147 200 256 330 396 478
#
# _framework density 23.369986999999998
#
# number of rings (size 3 to 8) (size 9 to 14) (size 15 to 20)
#    0.000    0.800    3.000    1.800   11.200    5.600 
#    0.000    0.000    0.000    0.000    0.000    0.000 
#    0.000    0.000    0.000    0.000    0.000    0.000 
#
# Total GULP energy -111339.867511 kJ/mol
# GULP energy per Si atom -5566.993376 kJ/mol
# Density = 2.331680 g / cm^3
# Si number density = 23.369987 Si / 1000 Ang^3
#
#
#
# Elastic Constant Matrix: (Units=GPa)
#
#
# Indices 1 2 3 4 5 6 
#
# 1 143.8844 49.4969 44.0894 0.0040 41.6764 -0.0031
# 2 49.4969 114.5766 17.6322 0.0583 15.2463 0.0454
# 3 44.0894 17.6322 147.1616 0.0992 30.2222 0.0845
# 4 0.0040 0.0583 0.0992 145.6009 0.0752 58.9855
# 5 41.6764 15.2463 30.2222 0.0752 59.0466 0.0294
# 6 -0.0031 0.0454 0.0845 58.9855 0.0294 -41.4752
#
#
#
# Elastic Compliance Matrix: (Units=1/GPa)
#
#
# Indices 1 2 3 4 5 6 
#
# 1 0.010198 -0.003437 -0.001506 0.000006 -0.005540 -0.000003
# 2 -0.003437 0.010257 -0.000172 -0.000005 -0.000135 0.000004
# 3 -0.001506 -0.000172 0.007866 -0.000006 -0.002919 0.000005
# 4 0.000006 -0.000005 -0.000006 0.004358 -0.000009 0.006197
# 5 -0.005540 -0.000135 -0.002919 -0.000009 0.022375 -0.000002
# 6 -0.000003 0.000004 0.000005 0.006197 -0.000002 -0.015297
#
#
# Mechanical properties :
#
#
# Convention : Reuss Voigt Hill
#
# Bulk Modulus (GPa) = 55.26935 69.78441 62.52688
# Shear Modulus (GPa) = 89.25919 52.26140 70.76029
#
# Velocity S-wave (km/s) = 6.18683 4.73404 5.50854
# Velocity P-wave (km/s) = 8.64505 7.73350 8.20195
#
# Compressibility (1/GPa) = 0.01809321
#
# Stress axis : x y z
#
# Youngs Moduli (GPa) = 98.05416 97.49620 127.12185
#
# Poissons Ratio (x) = 0.33507 0.19143
# Poissons Ratio (y) = 0.33699 0.02181
# Poissons Ratio (z) = 0.14766 0.01673
#
# Static dielectric constant tensor:
#      x y z
#    x 1.864530 0.000150 -0.029730 
#    y 0.000150 1.772400 -0.000380 
#    z -0.029730 -0.000380 1.901100 
# 
# From -- ./inp_files/245252.got.cif
#   From: 2010.05.17/outbox.cif.g08.bks.cpg/sg15_123_cif.got.tgz:245252.got - 2010.06.03 18:47:42.
