data_PCOD9299153
_publ_section_title
;
Structure prediction by ZEFSAII (Michael W. Deem and Ramdas Pophale) SiO2 
 PCOD9299153
Probable space group: C 2/C
;
_chemical_formula_sum "Si O2"
_cell_formula_units_Z 40
_cell_length_a 16.209617
_cell_length_b 9.983924
_cell_length_c 25.144167
_cell_angle_alpha 90.000000
_cell_angle_beta 156.927519
_cell_angle_gamma 90.000000
_cell_volume 1594.708501
_symmetry_space_group_name_H-M "C 2/C"
_symmetry_group_IT_number 15
_symmetry_cell_setting 'monoclinic'
loop_
_space_group_symop_operation_xyz
x,y,z
-x,y,1/2-z
-x,-y,-z
x,-y,1/2+z
1/2+x,1/2+y,z
1/2-x,1/2+y,1/2-z
1/2-x,1/2-y,-z
1/2+x,1/2-y,1/2+z
loop_
_atom_site_type_symbol
_atom_site_label
_atom_site_fract_x
_atom_site_fract_y
_atom_site_fract_z
Si Si1 0.441515 0.533100 0.827161
Si Si2 0.156964 0.754657 0.706072
Si Si3 0.222099 0.175646 0.925904
Si Si4 0.590774 0.026266 0.898481
Si Si5 0.179116 0.885357 0.607935
O O1 0.494534 0.606037 0.802654
O O2 0.673627 0.484752 0.984865
O O3 0.310539 0.396541 0.745576
O O4 0.335501 0.640941 0.803217
O O5 0.977951 0.675963 0.631129
O O6 0.112917 0.796976 0.619562
O O7 0.618698 0.948125 0.971497
O O8 0.250000 0.250000 0.000000
O O9 0.275575 0.282333 0.913137
O O10 0.405258 0.954154 0.755885
O O11 0.000000 0.000000 0.500000
#
# Coordination Sequence:
#
# PCOD9299153 Si02
#       5
#     8   8   8   8   8
#     4  10  25  45  78 116 160 216 254 337 409 455
#     4  12  23  49  80 116 160 211 276 331 395 494
#     4  10  24  47  71 109 160 207 263 327 404 460
#     4  10  26  46  79 112 168 205 270 336 407 473
#     4  12  27  46  84 119 153 223 276 315 413 492
#
# _framework density 25.082954000000001
#
# number of rings (size 3 to 8) (size 9 to 14) (size 15 to 20)
#    1.200    0.000    2.000    3.000    2.800    4.000 
#    0.000    0.000    0.000    1.200    0.000    0.000 
#    0.000    0.000    0.000    0.000    0.000    0.000 
#
# Total GULP energy -111588.735602 kJ/mol
# GULP energy per Si atom -5579.436780 kJ/mol
# Density = 2.502586 g / cm^3
# Si number density = 25.082954 Si / 1000 Ang^3
#
#
#
# Elastic Constant Matrix: (Units=GPa)
#
#
# Indices 1 2 3 4 5 6 
#
# 1 123.5220 64.6895 12.5317 -0.0066 15.4723 0.0008
# 2 64.6895 202.3480 59.7261 -0.0190 16.9584 0.0092
# 3 12.5317 59.7261 136.3245 -0.0270 29.8935 0.0145
# 4 -0.0066 -0.0190 -0.0270 48.3242 0.0352 14.2328
# 5 15.4723 16.9584 29.8935 0.0352 36.3743 -0.0093
# 6 0.0008 0.0092 0.0145 14.2328 -0.0093 54.3570
#
#
#
# Elastic Compliance Matrix: (Units=1/GPa)
#
#
# Indices 1 2 3 4 5 6 
#
# 1 0.010195 -0.003340 0.001385 0.000004 -0.003918 -0.000002
# 2 -0.003340 0.006786 -0.002786 0.000000 0.000546 0.000000
# 3 0.001385 -0.002786 0.010092 0.000012 -0.007584 -0.000007
# 4 0.000004 0.000000 0.000012 0.022423 -0.000035 -0.005871
# 5 -0.003918 0.000546 -0.007584 -0.000035 0.035137 0.000017
# 6 -0.000002 0.000000 -0.000007 -0.005871 0.000017 0.019934
#
#
# Mechanical properties :
#
#
# Convention : Reuss Voigt Hill
#
# Bulk Modulus (GPa) = 56.84460 81.78766 69.31613
# Shear Modulus (GPa) = 41.69733 49.49424 45.59578
#
# Velocity S-wave (km/s) = 4.08165 4.44692 4.26819
# Velocity P-wave (km/s) = 6.70261 7.68404 7.21004
#
# Compressibility (1/GPa) = 0.01759182
#
# Stress axis : x y z
#
# Youngs Moduli (GPa) = 98.08707 147.35740 99.09108
#
# Poissons Ratio (x) = 0.49214 -0.13726
# Poissons Ratio (y) = 0.32759 0.27606
# Poissons Ratio (z) = -0.13587 0.41053
#
# Static dielectric constant tensor:
#      x y z
#    x 2.052040 0.000020 -0.048850 
#    y 0.000020 2.096150 -0.000010 
#    z -0.048850 -0.000010 2.178250 
# 
# From -- ./inp_files/313371.got.cif
#   From: 2010.05.17/outbox.cif.g08.bks.cpg/sg15_157_cif.got.tgz:313371.got - 2010.06.03 18:47:42.
