data_PCOD9299432
_publ_section_title
;
Structure prediction by ZEFSAII (Michael W. Deem and Ramdas Pophale) SiO2 
 PCOD9299432
Probable space group: C 2/C
;
_chemical_formula_sum "Si O2"
_cell_formula_units_Z 44
_cell_length_a 9.051368
_cell_length_b 24.237155
_cell_length_c 9.606022
_cell_angle_alpha 90.000000
_cell_angle_beta 121.665011
_cell_angle_gamma 90.000000
_cell_volume 1793.644119
_symmetry_space_group_name_H-M "C 2/C"
_symmetry_group_IT_number 15
_symmetry_cell_setting 'monoclinic'
loop_
_space_group_symop_operation_xyz
x,y,z
-x,y,1/2-z
-x,-y,-z
x,-y,1/2+z
1/2+x,1/2+y,z
1/2-x,1/2+y,1/2-z
1/2-x,1/2-y,-z
1/2+x,1/2-y,1/2+z
loop_
_atom_site_type_symbol
_atom_site_label
_atom_site_fract_x
_atom_site_fract_y
_atom_site_fract_z
Si Si1 0.615513 0.626013 0.684383
Si Si2 0.000000 0.482411 0.750000
Si Si3 0.431127 0.931133 0.435386
Si Si4 0.736721 0.711681 0.356865
Si Si5 0.838445 0.088020 0.092775
Si Si6 0.929208 0.758860 0.009712
O O1 0.500000 0.601573 0.750000
O O2 0.815843 0.621456 0.833802
O O3 0.607970 0.591950 0.540215
O O4 0.532338 0.685980 0.610430
O O5 0.901709 0.446123 0.583481
O O6 0.887254 0.521578 0.797907
O O7 0.639366 0.929404 0.516647
O O8 0.750000 0.750000 0.500000
O O9 0.676218 0.651267 0.363554
O O10 0.619294 0.735556 0.176259
O O11 0.933560 0.710563 0.397552
O O12 0.000000 0.059852 0.250000
O O13 0.750000 0.750000 0.000000
#
# Coordination Sequence:
#
# PCOD9299432 Si02
#       6
#     8   4   8   8   8   8
#     4  12  26  47  71 109 149 198 254 306 379 447
#     4  10  24  52  82 116 146 190 256 314 400 460
#     4  11  26  50  82 108 153 198 242 321 388 463
#     4  12  24  43  69  97 144 198 251 304 361 435
#     4  12  25  47  71 109 148 198 255 307 381 453
#     4  12  27  45  65 105 149 200 255 310 359 435
#
# _framework density 24.531065000000002
#
# number of rings (size 3 to 8) (size 9 to 14) (size 15 to 20)
#    0.000    0.364    5.455    2.182    7.636    1.455 
#    0.000    5.455    0.000    0.000    0.000    0.000 
#    0.000    0.000    0.000    0.000    0.000    0.000 
#
# Total GULP energy -122933.982132 kJ/mol
# GULP energy per Si atom -5587.908279 kJ/mol
# Density = 2.447523 g / cm^3
# Si number density = 24.531065 Si / 1000 Ang^3
#
#
#
# Elastic Constant Matrix: (Units=GPa)
#
#
# Indices 1 2 3 4 5 6 
#
# 1 161.5770 21.6632 76.7677 0.0000 9.9288 0.0000
# 2 21.6632 44.9129 41.9788 0.0000 5.0154 0.0000
# 3 76.7677 41.9788 203.7007 0.0000 -7.1038 0.0000
# 4 0.0000 0.0000 0.0000 26.8163 0.0000 -3.2193
# 5 9.9288 5.0154 -7.1038 0.0000 52.8376 0.0000
# 6 0.0000 0.0000 0.0000 -3.2193 0.0000 9.1954
#
#
#
# Elastic Compliance Matrix: (Units=1/GPa)
#
#
# Indices 1 2 3 4 5 6 
#
# 1 0.007746 -0.000937 -0.002787 0.000000 -0.001741 0.000000
# 2 -0.000937 0.028311 -0.005595 0.000000 -0.003264 0.000000
# 3 -0.002787 -0.005595 0.007183 0.000000 0.002020 0.000000
# 4 0.000000 0.000000 0.000000 0.038927 0.000000 0.013628
# 5 -0.001741 -0.003264 0.002020 0.000000 0.019835 0.000000
# 6 0.000000 0.000000 0.000000 0.013628 0.000000 0.113521
#
#
# Mechanical properties :
#
#
# Convention : Reuss Voigt Hill
#
# Bulk Modulus (GPa) = 40.64661 76.77888 58.71274
# Shear Modulus (GPa) = 20.63044 35.75525 28.19284
#
# Velocity S-wave (km/s) = 2.90313 3.82193 3.39377
# Velocity P-wave (km/s) = 5.27665 7.13041 6.27239
#
# Compressibility (1/GPa) = 0.02460230
#
# Stress axis : x y z
#
# Youngs Moduli (GPa) = 129.10532 35.32160 139.21989
#
# Poissons Ratio (x) = 0.03309 0.38796
# Poissons Ratio (y) = 0.12096 0.77895
# Poissons Ratio (z) = 0.35978 0.19763
#
# Static dielectric constant tensor:
#      x y z
#    x 2.041900 0.000000 0.025940 
#    y 0.000000 2.019850 0.000000 
#    z 0.025940 0.000000 1.992500 
# 
# From -- ./inp_files/26246.got.cif
#   From: 2010.05.17/outbox.cif.g08.bks.cpg/sg15_14_cif.got.tgz:26246.got - 2010.06.03 18:47:42.
