data_PCOD9299164
_publ_section_title
;
Structure prediction by ZEFSAII (Michael W. Deem and Ramdas Pophale) SiO2 
 PCOD9299164
Probable space group: C 2/C
;
_chemical_formula_sum "Si O2"
_cell_formula_units_Z 32
_cell_length_a 5.250277
_cell_length_b 16.906427
_cell_length_c 13.872563
_cell_angle_alpha 90.000000
_cell_angle_beta 96.400410
_cell_angle_gamma 90.000000
_cell_volume 1223.701185
_symmetry_space_group_name_H-M "C 2/C"
_symmetry_group_IT_number 15
_symmetry_cell_setting 'monoclinic'
loop_
_space_group_symop_operation_xyz
x,y,z
-x,y,1/2-z
-x,-y,-z
x,-y,1/2+z
1/2+x,1/2+y,z
1/2-x,1/2+y,1/2-z
1/2-x,1/2-y,-z
1/2+x,1/2-y,1/2+z
loop_
_atom_site_type_symbol
_atom_site_label
_atom_site_fract_x
_atom_site_fract_y
_atom_site_fract_z
Si Si1 0.174386 0.054257 0.637799
Si Si2 0.000000 0.574876 0.250000
Si Si3 0.277881 0.565111 0.073819
Si Si4 0.000000 0.315771 0.250000
Si Si5 0.022323 0.776984 0.557887
O O1 0.263141 0.130438 0.701564
O O2 0.319407 0.059208 0.540559
O O3 0.278503 0.982306 0.704141
O O4 0.888926 0.022153 0.603888
O O5 0.886858 0.605796 0.347157
O O6 0.505053 0.628915 0.068315
O O7 0.070727 0.261863 0.163078
O O8 0.750000 0.750000 0.500000
O O9 0.250000 0.750000 0.500000
#
# Coordination Sequence:
#
# PCOD9299164 Si02
#       5
#     8   4   8   4   8
#     4  10  24  47  72 111 154 209 265 334 401 491
#     4  11  24  40  76 110 147 202 268 337 402 462
#     4  11  25  46  76 112 158 208 276 336 404 489
#     4  11  26  54  80 112 165 212 270 341 418 484
#     4  12  30  53  81 117 163 217 273 337 415 492
#
# _framework density 26.150172999999999
#
# number of rings (size 3 to 8) (size 9 to 14) (size 15 to 20)
#    0.000    1.000    2.500    1.500    7.000   11.000 
#    0.000    0.000    0.000    0.000    0.000    0.000 
#    0.000    0.000    0.000    0.000    0.000    0.000 
#
# Total GULP energy -89403.959634 kJ/mol
# GULP energy per Si atom -5587.747477 kJ/mol
# Density = 2.609065 g / cm^3
# Si number density = 26.150173 Si / 1000 Ang^3
#
#
#
# Elastic Constant Matrix: (Units=GPa)
#
#
# Indices 1 2 3 4 5 6 
#
# 1 123.3701 13.2003 71.7460 0.0000 -18.0032 0.0000
# 2 13.2003 64.3485 39.3754 0.0000 -5.0533 0.0000
# 3 71.7460 39.3754 249.2410 0.0000 -26.6821 0.0000
# 4 0.0000 0.0000 0.0000 48.1712 0.0000 15.0114
# 5 -18.0032 -5.0533 -26.6821 0.0000 62.2275 0.0000
# 6 0.0000 0.0000 0.0000 15.0114 0.0000 16.6938
#
#
#
# Elastic Compliance Matrix: (Units=1/GPa)
#
#
# Indices 1 2 3 4 5 6 
#
# 1 0.009914 -0.000293 -0.002623 0.000000 0.001719 0.000000
# 2 -0.000293 0.017216 -0.002615 0.000000 0.000192 0.000000
# 3 -0.002623 -0.002615 0.005321 0.000000 0.001310 0.000000
# 4 0.000000 0.000000 0.000000 0.028841 0.000000 -0.025934
# 5 0.001719 0.000192 0.001310 0.000000 0.017145 0.000000
# 6 0.000000 0.000000 0.000000 -0.025934 0.000000 0.083223
#
#
# Mechanical properties :
#
#
# Convention : Reuss Voigt Hill
#
# Bulk Modulus (GPa) = 46.75738 76.17812 61.46775
# Shear Modulus (GPa) = 27.80082 46.26103 37.03092
#
# Velocity S-wave (km/s) = 3.26409 4.21057 3.76718
# Velocity P-wave (km/s) = 5.66788 7.26862 6.51758
#
# Compressibility (1/GPa) = 0.02138700
#
# Stress axis : x y z
#
# Youngs Moduli (GPa) = 100.87181 58.08681 187.94730
#
# Poissons Ratio (x) = 0.01704 0.49304
# Poissons Ratio (y) = 0.02960 0.49143
# Poissons Ratio (z) = 0.26461 0.15188
#
# Static dielectric constant tensor:
#      x y z
#    x 2.503090 0.000000 0.275970 
#    y 0.000000 2.026400 0.000000 
#    z 0.275970 0.000000 2.320420 
# 
# From -- ./inp_files/71966.got.cif
#   From: 2010.05.17/outbox.cif.g08.bks.cpg/sg15_36_cif.got.tgz:71966.got - 2010.06.03 18:47:42.
