data_PCOD9299719
_publ_section_title
;
Structure prediction by ZEFSAII (Michael W. Deem and Ramdas Pophale) SiO2 
 PCOD9299719
Probable space group: C 2/C
;
_chemical_formula_sum "Si O2"
_cell_formula_units_Z 48
_cell_length_a 15.026349
_cell_length_b 5.605377
_cell_length_c 24.374054
_cell_angle_alpha 90.000000
_cell_angle_beta 112.243047
_cell_angle_gamma 90.000000
_cell_volume 1900.216367
_symmetry_space_group_name_H-M "C 2/C"
_symmetry_group_IT_number 15
_symmetry_cell_setting 'monoclinic'
loop_
_space_group_symop_operation_xyz
x,y,z
-x,y,1/2-z
-x,-y,-z
x,-y,1/2+z
1/2+x,1/2+y,z
1/2-x,1/2+y,1/2-z
1/2-x,1/2-y,-z
1/2+x,1/2-y,1/2+z
loop_
_atom_site_type_symbol
_atom_site_label
_atom_site_fract_x
_atom_site_fract_y
_atom_site_fract_z
Si Si1 0.841062 0.313422 0.868199
Si Si2 0.311400 0.909089 0.268032
Si Si3 0.497542 0.513035 0.116526
Si Si4 0.671502 0.130951 0.441015
Si Si5 0.430597 0.203332 0.504653
Si Si6 0.134059 0.318259 0.334876
O O1 0.866257 0.549170 0.838628
O O2 0.872877 0.247427 0.936598
O O3 0.727230 0.349163 0.849600
O O4 0.899790 0.109125 0.848177
O O5 0.252745 0.164692 0.246412
O O6 0.381472 0.895147 0.231662
O O7 0.419929 0.302428 0.087342
O O8 0.450132 0.682336 0.152082
O O9 0.496591 0.627289 0.055818
O O10 0.750000 0.250000 0.500000
O O11 0.643201 0.895429 0.467892
O O12 0.681201 0.034944 0.381285
O O13 0.500000 0.000000 0.500000
#
# Coordination Sequence:
#
# PCOD9299719 Si02
#       6
#     8   8   8   8   8   8
#     4  11  23  45  78 100 144 196 245 308 381 443
#     4  10  25  47  78 108 140 201 259 306 381 455
#     4  11  24  44  68 109 140 188 246 296 380 450
#     4  11  23  38  68 100 142 187 232 301 379 429
#     4  11  23  38  65 105 143 181 241 307 363 462
#     4  10  25  45  71 101 147 184 253 307 367 454
#
# _framework density 25.260279000000001
#
# number of rings (size 3 to 8) (size 9 to 14) (size 15 to 20)
#    0.000    1.333    1.667    2.500    9.333    4.000 
#    0.000    0.833   11.000    0.000    0.000    0.000 
#    0.000    0.000    0.000    0.000    0.000    0.000 
#
# Total GULP energy -133655.837684 kJ/mol
# GULP energy per Si atom -5568.993237 kJ/mol
# Density = 2.520279 g / cm^3
# Si number density = 25.260279 Si / 1000 Ang^3
#
#
#
# Elastic Constant Matrix: (Units=GPa)
#
#
# Indices 1 2 3 4 5 6 
#
# 1 77.4132 22.7087 28.3376 0.0000 -10.1799 0.0000
# 2 22.7087 76.5792 27.5265 0.0000 3.0720 0.0000
# 3 28.3376 27.5265 137.9563 0.0000 -18.0424 0.0000
# 4 0.0000 0.0000 0.0000 45.0432 0.0000 -0.9651
# 5 -10.1799 3.0720 -18.0424 0.0000 43.1647 0.0000
# 6 0.0000 0.0000 0.0000 -0.9651 0.0000 49.6557
#
#
#
# Elastic Compliance Matrix: (Units=1/GPa)
#
#
# Indices 1 2 3 4 5 6 
#
# 1 0.015180 -0.003928 -0.001935 0.000000 0.003051 0.000000
# 2 -0.003928 0.015303 -0.002655 0.000000 -0.003125 0.000000
# 3 -0.001935 -0.002655 0.008612 0.000000 0.003332 0.000000
# 4 0.000000 0.000000 0.000000 0.022210 0.000000 0.000432
# 5 0.003051 -0.003125 0.003332 0.000000 0.025502 0.000000
# 6 0.000000 0.000000 0.000000 0.000432 0.000000 0.020147
#
#
# Mechanical properties :
#
#
# Convention : Reuss Voigt Hill
#
# Bulk Modulus (GPa) = 45.33696 49.89938 47.61817
# Shear Modulus (GPa) = 38.06822 41.79777 39.93299
#
# Velocity S-wave (km/s) = 3.88627 4.07219 3.98032
# Velocity P-wave (km/s) = 6.17449 6.47359 6.32581
#
# Compressibility (1/GPa) = 0.02205706
#
# Stress axis : x y z
#
# Youngs Moduli (GPa) = 65.87806 65.34647 116.11951
#
# Poissons Ratio (x) = 0.25668 0.22473
# Poissons Ratio (y) = 0.25877 0.30833
# Poissons Ratio (z) = 0.12749 0.17352
#
# Static dielectric constant tensor:
#      x y z
#    x 1.989480 0.000000 -0.050120 
#    y 0.000000 2.154740 0.000000 
#    z -0.050120 0.000000 1.841170 
# 
# From -- ./inp_files/275889.got.cif
#   From: 2010.05.17/outbox.cif.g08.bks.cpg/sg15_138_cif.got.tgz:275889.got - 2010.06.03 18:47:42.
