data_PCOD9299200
_publ_section_title
;
Structure prediction by ZEFSAII (Michael W. Deem and Ramdas Pophale) SiO2 
 PCOD9299200
Probable space group: C 2/C
;
_chemical_formula_sum "Si O2"
_cell_formula_units_Z 56
_cell_length_a 19.269495
_cell_length_b 9.131194
_cell_length_c 12.948453
_cell_angle_alpha 90.000000
_cell_angle_beta 108.019745
_cell_angle_gamma 90.000000
_cell_volume 2166.573644
_symmetry_space_group_name_H-M "C 2/C"
_symmetry_group_IT_number 15
_symmetry_cell_setting 'monoclinic'
loop_
_space_group_symop_operation_xyz
x,y,z
-x,y,1/2-z
-x,-y,-z
x,-y,1/2+z
1/2+x,1/2+y,z
1/2-x,1/2+y,1/2-z
1/2-x,1/2-y,-z
1/2+x,1/2-y,1/2+z
loop_
_atom_site_type_symbol
_atom_site_label
_atom_site_fract_x
_atom_site_fract_y
_atom_site_fract_z
Si Si1 0.559471 0.389285 0.364952
Si Si2 0.420219 0.818984 0.457276
Si Si3 0.171217 0.451833 0.448901
Si Si4 0.814606 0.106963 0.289061
Si Si5 0.831840 0.881616 0.549621
Si Si6 0.833205 0.777765 0.254383
Si Si7 0.067940 0.527858 0.211626
O O1 0.500000 0.422503 0.250000
O O2 0.535252 0.271008 0.437539
O O3 0.592749 0.533234 0.432729
O O4 0.629770 0.320329 0.338117
O O5 0.376882 0.693593 0.376661
O O6 0.458585 0.914268 0.386751
O O7 0.364638 0.929119 0.491244
O O8 0.258961 0.468023 0.480462
O O9 0.165647 0.284935 0.487025
O O10 0.127694 0.462854 0.320159
O O11 0.820109 0.931594 0.304704
O O12 0.740835 0.187933 0.287580
O O13 0.822726 0.129385 0.169831
O O14 0.891087 0.661704 0.322884
O O15 0.000000 0.572595 0.250000
#
# Coordination Sequence:
#
# PCOD9299200 Si02
#       7
#     8   8   8   8   8   8   8
#     4  11  26  50  76 111 166 209 265 321 398 478
#     4  12  26  47  80 116 149 213 257 324 396 469
#     4  11  24  47  80 117 156 204 268 331 391 472
#     4  11  24  45  79 115 155 201 268 327 391 468
#     4  10  24  47  76 115 158 208 262 333 390 460
#     4  11  24  46  75 110 158 201 259 329 396 462
#     4  12  27  50  77 113 163 206 266 325 398 486
#
# _framework density 25.847263999999999
#
# number of rings (size 3 to 8) (size 9 to 14) (size 15 to 20)
#    0.000    0.857    2.857    3.857    2.000    4.571 
#    2.571    3.571    0.000    0.000    0.000    0.000 
#    0.000    0.000    0.000    0.000    0.000    0.000 
#
# Total GULP energy -156939.012659 kJ/mol
# GULP energy per Si atom -5604.964738 kJ/mol
# Density = 2.578843 g / cm^3
# Si number density = 25.847264 Si / 1000 Ang^3
#
#
#
# Elastic Constant Matrix: (Units=GPa)
#
#
# Indices 1 2 3 4 5 6 
#
# 1 56.9785 28.8227 39.6385 0.0000 12.8024 0.0000
# 2 28.8227 147.5662 32.0507 0.0000 11.9706 0.0000
# 3 39.6385 32.0507 130.2276 0.0000 13.7596 0.0000
# 4 0.0000 0.0000 0.0000 31.3985 0.0000 5.2740
# 5 12.8024 11.9706 13.7596 0.0000 43.7438 0.0000
# 6 0.0000 0.0000 0.0000 5.2740 0.0000 13.7665
#
#
#
# Elastic Compliance Matrix: (Units=1/GPa)
#
#
# Indices 1 2 3 4 5 6 
#
# 1 0.024400 -0.003064 -0.006213 0.000000 -0.004348 0.000000
# 2 -0.003064 0.007634 -0.000849 0.000000 -0.000926 0.000000
# 3 -0.006213 -0.000849 0.009891 0.000000 -0.001061 0.000000
# 4 0.000000 0.000000 0.000000 0.034039 0.000000 -0.013040
# 5 -0.004348 -0.000926 -0.001061 0.000000 0.024720 0.000000
# 6 0.000000 0.000000 0.000000 -0.013040 0.000000 0.077636
#
#
# Mechanical properties :
#
#
# Convention : Reuss Voigt Hill
#
# Bulk Modulus (GPa) = 46.13819 59.53290 52.83555
# Shear Modulus (GPa) = 24.29598 33.39912 28.84755
#
# Velocity S-wave (km/s) = 3.06924 3.59858 3.34440
# Velocity P-wave (km/s) = 5.51810 6.35208 5.94972
#
# Compressibility (1/GPa) = 0.02167402
#
# Stress axis : x y z
#
# Youngs Moduli (GPa) = 40.98422 130.98606 101.10207
#
# Poissons Ratio (x) = 0.40128 0.62818
# Poissons Ratio (y) = 0.12556 0.08580
# Poissons Ratio (z) = 0.25465 0.11116
#
# Static dielectric constant tensor:
#      x y z
#    x 1.990970 0.000000 -0.023920 
#    y 0.000000 2.076680 0.000000 
#    z -0.023920 0.000000 2.082660 
# 
# From -- ./inp_files/111689.got.cif
#   From: 2010.05.17/outbox.cif.g08.bks.cpg/sg15_56_cif.got.tgz:111689.got - 2010.06.03 18:47:42.
