data_PCOD9299681
_publ_section_title
;
Structure prediction by ZEFSAII (Michael W. Deem and Ramdas Pophale) SiO2 
 PCOD9299681
Probable space group: C 2/C
;
_chemical_formula_sum "Si O2"
_cell_formula_units_Z 60
_cell_length_a 12.621931
_cell_length_b 15.613798
_cell_length_c 14.514965
_cell_angle_alpha 90.000000
_cell_angle_beta 117.497739
_cell_angle_gamma 90.000000
_cell_volume 2537.395680
_symmetry_space_group_name_H-M "C 2/C"
_symmetry_group_IT_number 15
_symmetry_cell_setting 'monoclinic'
loop_
_space_group_symop_operation_xyz
x,y,z
-x,y,1/2-z
-x,-y,-z
x,-y,1/2+z
1/2+x,1/2+y,z
1/2-x,1/2+y,1/2-z
1/2-x,1/2-y,-z
1/2+x,1/2-y,1/2+z
loop_
_atom_site_type_symbol
_atom_site_label
_atom_site_fract_x
_atom_site_fract_y
_atom_site_fract_z
Si Si1 0.110740 0.061592 0.519574
Si Si2 0.219001 0.222742 0.198203
Si Si3 0.601466 0.718643 0.870508
Si Si4 0.498790 0.159630 0.853869
Si Si5 0.133201 0.025669 0.846741
Si Si6 0.586471 0.757044 0.562751
Si Si7 0.246746 0.460767 0.781311
Si Si8 0.000000 0.509523 0.250000
O O1 0.086748 0.158727 0.532709
O O2 0.143487 0.045800 0.428001
O O3 0.215186 0.029113 0.627563
O O4 0.000000 0.000000 0.500000
O O5 0.290002 0.231831 0.131387
O O6 0.126600 0.300494 0.163985
O O7 0.306690 0.228928 0.322042
O O8 0.173174 0.125091 0.183927
O O9 0.500000 0.713868 0.750000
O O10 0.640161 0.619250 0.897182
O O11 0.536847 0.764459 0.929190
O O12 0.500000 0.197719 0.750000
O O13 0.515661 0.059033 0.840206
O O14 0.588590 0.188319 0.970171
O O15 0.000000 0.020850 0.750000
O O16 0.229140 0.007149 0.805766
O O17 0.112236 0.437185 0.758001
#
# Coordination Sequence:
#
# PCOD9299681 Si02
#       8
#     8   8   8   8   8   8   8   4
#     4  12  22  41  70 109 137 170 232 303 364 403
#     4  11  25  43  69  98 133 183 240 285 343 414
#     4   9  19  39  64  94 126 172 218 280 338 405
#     4  10  25  45  67  97 139 186 230 286 344 427
#     4  11  22  39  70 102 138 173 226 289 358 410
#     4  11  23  42  73  98 135 178 227 286 353 410
#     4  12  26  45  68 100 144 188 233 298 351 426
#     4  10  26  50  64  92 156 192 226 284 360 430
#
# _framework density 23.646291999999999
#
# number of rings (size 3 to 8) (size 9 to 14) (size 15 to 20)
#    0.400    0.800    2.667    4.000    4.667    2.133 
#    2.400    1.333    0.000    0.000    0.000    0.000 
#    0.000    0.000    0.000    0.000    0.000    0.000 
#
# Total GULP energy -167653.430844 kJ/mol
# GULP energy per Si atom -5588.447695 kJ/mol
# Density = 2.359247 g / cm^3
# Si number density = 23.646292 Si / 1000 Ang^3
#
#
#
# Elastic Constant Matrix: (Units=GPa)
#
#
# Indices 1 2 3 4 5 6 
#
# 1 80.9259 -7.0986 16.3712 0.0000 -12.3055 0.0000
# 2 -7.0986 71.1881 2.1694 0.0000 -4.8033 0.0000
# 3 16.3712 2.1694 104.2305 0.0000 -19.2017 0.0000
# 4 0.0000 0.0000 0.0000 25.8807 0.0000 -0.6669
# 5 -12.3055 -4.8033 -19.2017 0.0000 26.8333 0.0000
# 6 0.0000 0.0000 0.0000 -0.6669 0.0000 20.9069
#
#
#
# Elastic Compliance Matrix: (Units=1/GPa)
#
#
# Indices 1 2 3 4 5 6 
#
# 1 0.013615 0.001781 -0.001113 0.000000 0.005766 0.000000
# 2 0.001781 0.014455 0.000054 0.000000 0.003443 0.000000
# 3 -0.001113 0.000054 0.011145 0.000000 0.007474 0.000000
# 4 0.000000 0.000000 0.000000 0.038671 0.000000 0.001234
# 5 0.005766 0.003443 0.007474 0.000000 0.045876 0.000000
# 6 0.000000 0.000000 0.000000 0.001234 0.000000 0.047871
#
#
# Mechanical properties :
#
#
# Convention : Reuss Voigt Hill
#
# Bulk Modulus (GPa) = 24.59583 31.02537 27.81060
# Shear Modulus (GPa) = 27.21188 31.05099 29.13144
#
# Velocity S-wave (km/s) = 3.39601 3.62766 3.51375
# Velocity P-wave (km/s) = 5.07950 5.54037 5.31493
#
# Compressibility (1/GPa) = 0.04065730
#
# Stress axis : x y z
#
# Youngs Moduli (GPa) = 73.44757 69.17785 89.72794
#
# Poissons Ratio (x) = -0.12318 0.09990
# Poissons Ratio (y) = -0.13078 -0.00482
# Poissons Ratio (z) = 0.08177 -0.00371
#
# Static dielectric constant tensor:
#      x y z
#    x 1.892920 0.000000 -0.103580 
#    y 0.000000 1.848630 0.000000 
#    z -0.103580 0.000000 1.598200 
# 
# From -- ./inp_files/146127.got.cif
#   From: 2010.05.17/outbox.cif.g08.bks.cpg/sg15_74_cif.got.tgz:146127.got - 2010.06.03 18:47:42.
