data_PCOD9299396
_publ_section_title
;
Structure prediction by ZEFSAII (Michael W. Deem and Ramdas Pophale) SiO2 
 PCOD9299396
Probable space group: C 2/C
;
_chemical_formula_sum "Si O2"
_cell_formula_units_Z 44
_cell_length_a 19.570310
_cell_length_b 4.905845
_cell_length_c 18.129247
_cell_angle_alpha 90.000000
_cell_angle_beta 108.524931
_cell_angle_gamma 90.000000
_cell_volume 1650.382470
_symmetry_space_group_name_H-M "C 2/C"
_symmetry_group_IT_number 15
_symmetry_cell_setting 'monoclinic'
loop_
_space_group_symop_operation_xyz
x,y,z
-x,y,1/2-z
-x,-y,-z
x,-y,1/2+z
1/2+x,1/2+y,z
1/2-x,1/2+y,1/2-z
1/2-x,1/2-y,-z
1/2+x,1/2-y,1/2+z
loop_
_atom_site_type_symbol
_atom_site_label
_atom_site_fract_x
_atom_site_fract_y
_atom_site_fract_z
Si Si1 0.000000 0.773720 0.750000
Si Si2 0.921597 0.980209 0.621998
Si Si3 0.936480 0.222700 0.482901
Si Si4 0.379543 0.185692 0.229123
Si Si5 0.728034 0.422168 0.421334
Si Si6 0.137716 0.275573 0.603829
O O1 0.072031 0.570006 0.771370
O O2 0.006598 0.813397 0.847583
O O3 0.925866 0.231022 0.568014
O O4 0.929701 0.068304 0.712379
O O5 0.840699 0.881410 0.582493
O O6 0.926202 0.522113 0.446997
O O7 0.872999 0.033437 0.426519
O O8 0.000000 0.000000 0.500000
O O9 0.309565 0.229478 0.153760
O O10 0.361450 0.215924 0.307708
O O11 0.750000 0.250000 0.500000
O O12 0.791162 0.594958 0.407329
#
# Coordination Sequence:
#
# PCOD9299396 Si02
#       6
#     4   8   8   8   8   8
#     4  12  24  44  80 104 154 198 268 310 400 444
#     4  10  26  46  74 108 151 202 252 316 385 468
#     4  12  28  46  79 111 157 202 257 319 390 462
#     4  10  27  45  76 107 155 198 258 318 387 456
#     4  10  24  50  71 108 152 202 249 311 390 460
#     4  12  27  49  75 113 155 195 268 318 385 463
#
# _framework density 26.660485999999999
#
# number of rings (size 3 to 8) (size 9 to 14) (size 15 to 20)
#    1.091    0.000    1.818    2.182   12.727    5.091 
#    0.000    0.000    0.000    0.000    0.000    0.000 
#    0.000    0.000    0.000    0.000    0.000    0.000 
#
# Total GULP energy -122701.127940 kJ/mol
# GULP energy per Si atom -5577.323997 kJ/mol
# Density = 2.659981 g / cm^3
# Si number density = 26.660486 Si / 1000 Ang^3
#
#
#
# Elastic Constant Matrix: (Units=GPa)
#
#
# Indices 1 2 3 4 5 6 
#
# 1 77.1055 1.0837 24.9212 0.0002 13.7042 -0.0001
# 2 1.0837 155.0454 52.2666 0.0004 -0.6493 -0.0003
# 3 24.9212 52.2666 190.8722 0.0000 -2.2108 0.0001
# 4 0.0002 0.0004 0.0000 48.1561 0.0000 9.4519
# 5 13.7042 -0.6493 -2.2108 0.0000 53.4693 0.0000
# 6 -0.0001 -0.0003 0.0001 9.4519 0.0000 35.0217
#
#
#
# Elastic Compliance Matrix: (Units=1/GPa)
#
#
# Indices 1 2 3 4 5 6 
#
# 1 0.014295 0.000582 -0.002069 0.000000 -0.003742 0.000000
# 2 0.000582 0.007129 -0.002030 0.000000 -0.000147 0.000000
# 3 -0.002069 -0.002030 0.006074 0.000000 0.000757 0.000000
# 4 0.000000 0.000000 0.000000 0.021927 0.000000 -0.005918
# 5 -0.003742 -0.000147 0.000757 0.000000 0.019691 0.000000
# 6 0.000000 0.000000 0.000000 -0.005918 0.000000 0.030151
#
#
# Mechanical properties :
#
#
# Convention : Reuss Voigt Hill
#
# Bulk Modulus (GPa) = 48.86639 64.39623 56.63131
# Shear Modulus (GPa) = 44.19974 50.31288 47.25631
#
# Velocity S-wave (km/s) = 4.07612 4.34887 4.21470
# Velocity P-wave (km/s) = 6.36568 7.03019 6.70617
#
# Compressibility (1/GPa) = 0.02046396
#
# Stress axis : x y z
#
# Youngs Moduli (GPa) = 69.95486 140.26557 164.63959
#
# Poissons Ratio (x) = -0.08162 0.34066
# Poissons Ratio (y) = -0.04071 0.33420
# Poissons Ratio (z) = 0.14474 0.28473
#
# Static dielectric constant tensor:
#      x y z
#    x 2.390690 0.000000 -0.022720 
#    y 0.000000 2.116710 0.000000 
#    z -0.022720 0.000000 2.372320 
# 
# From -- ./inp_files/217858.got.cif
#   From: 2010.05.17/outbox.cif.g08.bks.cpg/sg15_109_cif.got.tgz:217858.got - 2010.06.03 18:47:42.
