data_PCOD9299148
_publ_section_title
;
Structure prediction by ZEFSAII (Michael W. Deem and Ramdas Pophale) SiO2 
 PCOD9299148
Probable space group: C 2/C
;
_chemical_formula_sum "Si O2"
_cell_formula_units_Z 40
_cell_length_a 8.370289
_cell_length_b 16.792910
_cell_length_c 12.486577
_cell_angle_alpha 90.000000
_cell_angle_beta 83.218662
_cell_angle_gamma 90.000000
_cell_volume 1742.853249
_symmetry_space_group_name_H-M "C 2/C"
_symmetry_group_IT_number 15
_symmetry_cell_setting 'monoclinic'
loop_
_space_group_symop_operation_xyz
x,y,z
-x,y,1/2-z
-x,-y,-z
x,-y,1/2+z
1/2+x,1/2+y,z
1/2-x,1/2+y,1/2-z
1/2-x,1/2-y,-z
1/2+x,1/2-y,1/2+z
loop_
_atom_site_type_symbol
_atom_site_label
_atom_site_fract_x
_atom_site_fract_y
_atom_site_fract_z
Si Si1 0.755584 0.663541 0.058209
Si Si2 0.500000 0.301021 0.750000
Si Si3 0.434047 0.917354 0.961787
Si Si4 0.500000 0.387462 0.250000
Si Si5 0.268786 0.204007 0.611025
Si Si6 0.658676 0.480421 0.417573
O O1 0.609855 0.655461 0.153414
O O2 0.927653 0.639658 0.097324
O O3 0.750000 0.750000 0.000000
O O4 0.734689 0.596012 0.970634
O O5 0.368725 0.251062 0.692280
O O6 0.278957 0.944208 0.905256
O O7 0.372698 0.871969 0.070898
O O8 0.500000 0.000000 0.000000
O O9 0.399577 0.329802 0.334877
O O10 0.614053 0.446513 0.306227
O O11 0.250000 0.250000 0.500000
O O12 0.500000 0.500000 0.500000
#
# Coordination Sequence:
#
# PCOD9299148 Si02
#       6
#     8   4   8   4   8   8
#     4  11  23  46  75 107 147 190 257 320 372 468
#     4  12  26  43  82 107 148 206 250 314 408 443
#     4  10  24  47  71 103 153 190 241 322 369 446
#     4  12  26  45  80 105 158 212 248 314 406 451
#     4  12  27  48  73 114 152 199 264 320 379 469
#     4  11  24  47  72 106 154 197 249 315 380 464
#
# _framework density 22.950869999999998
#
# number of rings (size 3 to 8) (size 9 to 14) (size 15 to 20)
#    0.000    0.800    4.000    2.400    5.600    0.800 
#    0.000    2.000    0.000    0.000    0.000    0.000 
#    0.000    0.000    0.000    0.000    0.000    0.000 
#
# Total GULP energy -111806.039662 kJ/mol
# GULP energy per Si atom -5590.301983 kJ/mol
# Density = 2.289863 g / cm^3
# Si number density = 22.950870 Si / 1000 Ang^3
#
#
#
# Elastic Constant Matrix: (Units=GPa)
#
#
# Indices 1 2 3 4 5 6 
#
# 1 112.9269 38.9779 18.3428 0.0000 -10.8912 0.0000
# 2 38.9779 98.9654 17.9190 0.0000 -0.8766 0.0000
# 3 18.3428 17.9190 70.1485 0.0000 2.6443 0.0000
# 4 0.0000 0.0000 0.0000 30.2376 0.0000 -0.4185
# 5 -10.8912 -0.8766 2.6443 0.0000 57.0588 0.0000
# 6 0.0000 0.0000 0.0000 -0.4185 0.0000 58.6134
#
#
#
# Elastic Compliance Matrix: (Units=1/GPa)
#
#
# Indices 1 2 3 4 5 6 
#
# 1 0.010691 -0.003850 -0.001890 0.000000 0.002069 0.000000
# 2 -0.003850 0.011986 -0.002038 0.000000 -0.000456 0.000000
# 3 -0.001890 -0.002038 0.015312 0.000000 -0.001102 0.000000
# 4 0.000000 0.000000 0.000000 0.033075 0.000000 0.000236
# 5 0.002069 -0.000456 -0.001102 0.000000 0.017965 0.000000
# 6 0.000000 0.000000 0.000000 0.000236 0.000000 0.017063
#
#
# Mechanical properties :
#
#
# Convention : Reuss Voigt Hill
#
# Bulk Modulus (GPa) = 44.57786 48.05779 46.31783
# Shear Modulus (GPa) = 38.72263 42.96871 40.84567
#
# Velocity S-wave (km/s) = 4.11201 4.33159 4.22323
# Velocity P-wave (km/s) = 6.48152 6.78246 6.63370
#
# Compressibility (1/GPa) = 0.02243266
#
# Stress axis : x y z
#
# Youngs Moduli (GPa) = 93.53919 83.43191 65.30939
#
# Poissons Ratio (x) = 0.32122 0.12343
# Poissons Ratio (y) = 0.36013 0.13309
# Poissons Ratio (z) = 0.17679 0.17002
#
# Static dielectric constant tensor:
#      x y z
#    x 2.014960 0.000000 0.020570 
#    y 0.000000 1.807130 0.000000 
#    z 0.020570 0.000000 1.792980 
# 
# From -- ./inp_files/76744.got.cif
#   From: 2010.05.17/outbox.cif.g08.bks.cpg/sg15_39_cif.got.tgz:76744.got - 2010.06.03 18:47:42.
