data_PCOD9299741
_publ_section_title
;
Structure prediction by ZEFSAII (Michael W. Deem and Ramdas Pophale) SiO2 
 PCOD9299741
Probable space group: C 2/C
;
_chemical_formula_sum "Si O2"
_cell_formula_units_Z 32
_cell_length_a 14.660341
_cell_length_b 4.838716
_cell_length_c 18.811507
_cell_angle_alpha 90.000000
_cell_angle_beta 116.206352
_cell_angle_gamma 90.000000
_cell_volume 1197.268666
_symmetry_space_group_name_H-M "C 2/C"
_symmetry_group_IT_number 15
_symmetry_cell_setting 'monoclinic'
loop_
_space_group_symop_operation_xyz
x,y,z
-x,y,1/2-z
-x,-y,-z
x,-y,1/2+z
1/2+x,1/2+y,z
1/2-x,1/2+y,1/2-z
1/2-x,1/2-y,-z
1/2+x,1/2-y,1/2+z
loop_
_atom_site_type_symbol
_atom_site_label
_atom_site_fract_x
_atom_site_fract_y
_atom_site_fract_z
Si Si1 0.194435 0.976330 0.700460
Si Si2 0.532179 0.322390 0.373118
Si Si3 0.072757 0.675092 0.974806
Si Si4 0.252587 0.363035 0.082630
O O1 0.227978 0.730955 0.765010
O O2 0.203264 0.825220 0.626898
O O3 0.084008 0.102317 0.680943
O O4 0.551934 0.511548 0.449757
O O5 0.628857 0.406524 0.358724
O O6 0.552381 0.999201 0.395187
O O7 0.182962 0.631486 0.047257
O O8 0.000000 0.500000 0.000000
O O9 0.250000 0.250000 0.000000
#
# Coordination Sequence:
#
# PCOD9299741 Si02
#       4
#     8   8   8   8
#     4  12  28  48  73 102 153 202 243 298 375 444
#     4  11  24  44  70 104 144 185 238 300 363 432
#     4  11  21  39  74 106 139 178 232 299 371 418
#     4  10  25  45  76 109 139 183 249 304 366 437
#
# _framework density 26.727502000000001
#
# number of rings (size 3 to 8) (size 9 to 14) (size 15 to 20)
#    0.000    1.000    2.500    3.000    3.500    5.000 
#    0.000    2.500    0.000    0.000    0.000    0.000 
#    0.000    0.000    0.000    0.000    0.000    0.000 
#
# Total GULP energy -89467.454196 kJ/mol
# GULP energy per Si atom -5591.715887 kJ/mol
# Density = 2.666667 g / cm^3
# Si number density = 26.727502 Si / 1000 Ang^3
#
#
#
# Elastic Constant Matrix: (Units=GPa)
#
#
# Indices 1 2 3 4 5 6 
#
# 1 115.8830 2.0735 50.5454 0.0000 31.5964 0.0000
# 2 2.0735 140.9972 36.3189 0.0001 9.6600 0.0002
# 3 50.5454 36.3189 127.6321 0.0000 8.4885 0.0000
# 4 0.0000 0.0001 0.0000 39.9848 0.0000 11.3106
# 5 31.5964 9.6600 8.4885 0.0000 41.7783 0.0000
# 6 0.0000 0.0002 0.0000 11.3106 0.0000 34.9683
#
#
#
# Elastic Compliance Matrix: (Units=1/GPa)
#
#
# Indices 1 2 3 4 5 6 
#
# 1 0.013474 0.001799 -0.005213 0.000000 -0.009547 0.000000
# 2 0.001799 0.007969 -0.002805 0.000000 -0.002633 0.000000
# 3 -0.005213 -0.002805 0.010535 0.000000 0.002451 0.000000
# 4 0.000000 0.000000 0.000000 0.027528 0.000000 -0.008904
# 5 -0.009547 -0.002633 0.002451 0.000000 0.031267 0.000000
# 6 0.000000 0.000000 0.000000 -0.008904 0.000000 0.031477
#
#
# Mechanical properties :
#
#
# Convention : Reuss Voigt Hill
#
# Bulk Modulus (GPa) = 51.17876 62.48753 56.83315
# Shear Modulus (GPa) = 35.41047 43.05124 39.23086
#
# Velocity S-wave (km/s) = 3.64383 4.01776 3.83536
# Velocity P-wave (km/s) = 6.07398 6.70474 6.39714
#
# Compressibility (1/GPa) = 0.01953935
#
# Stress axis : x y z
#
# Youngs Moduli (GPa) = 74.21689 125.49007 94.92519
#
# Poissons Ratio (x) = -0.22572 0.49484
# Poissons Ratio (y) = -0.13349 0.26625
# Poissons Ratio (z) = 0.38689 0.35197
#
# Static dielectric constant tensor:
#      x y z
#    x 2.215780 0.000000 -0.011320 
#    y 0.000000 2.021330 0.000000 
#    z -0.011320 0.000000 2.188580 
# 
# From -- ./inp_files/241561.got.cif
#   From: 2010.05.17/outbox.cif.g08.bks.cpg/sg15_121_cif.got.tgz:241561.got - 2010.06.03 18:47:42.
