data_PCOD9299728
_publ_section_title
;
Structure prediction by ZEFSAII (Michael W. Deem and Ramdas Pophale) SiO2 
 PCOD9299728
Probable space group: C 2/C
;
_chemical_formula_sum "Si O2"
_cell_formula_units_Z 40
_cell_length_a 23.421286
_cell_length_b 15.477023
_cell_length_c 12.198753
_cell_angle_alpha 90.000000
_cell_angle_beta 160.179177
_cell_angle_gamma 90.000000
_cell_volume 1499.393333
_symmetry_space_group_name_H-M "C 2/C"
_symmetry_group_IT_number 15
_symmetry_cell_setting 'monoclinic'
loop_
_space_group_symop_operation_xyz
x,y,z
-x,y,1/2-z
-x,-y,-z
x,-y,1/2+z
1/2+x,1/2+y,z
1/2-x,1/2+y,1/2-z
1/2-x,1/2-y,-z
1/2+x,1/2-y,1/2+z
loop_
_atom_site_type_symbol
_atom_site_label
_atom_site_fract_x
_atom_site_fract_y
_atom_site_fract_z
Si Si1 0.000000 0.082952 0.250000
Si Si2 0.062677 0.819578 0.254149
Si Si3 0.500000 0.031535 0.250000
Si Si4 0.312131 0.813020 0.209207
Si Si5 0.677396 0.429990 0.279028
Si Si6 0.381044 0.090148 0.341778
O O1 0.154205 0.142925 0.485030
O O2 0.068321 0.033670 0.482166
O O3 0.059652 0.861031 0.126908
O O4 0.265376 0.822724 0.641168
O O5 0.000000 0.868071 0.250000
O O6 0.931402 0.742138 0.006264
O O7 0.584324 0.965914 0.489240
O O8 0.647102 0.089072 0.464907
O O9 0.444105 0.879544 0.393220
O O10 0.250000 0.750000 0.000000
O O11 0.764491 0.465852 0.547596
#
# Coordination Sequence:
#
# PCOD9299728 Si02
#       6
#     4   8   4   8   8   8
#     4  12  26  43  74 114 153 196 244 310 388 446
#     4  10  25  45  72 106 154 195 244 310 374 449
#     4  12  24  51  82 100 155 200 256 314 364 440
#     4  12  25  43  70 110 154 192 247 309 381 459
#     4  10  25  48  70 109 141 198 251 304 367 433
#     4  10  26  46  71 107 144 201 249 301 378 439
#
# _framework density 26.677455999999999
#
# number of rings (size 3 to 8) (size 9 to 14) (size 15 to 20)
#    1.200    0.000    2.000    2.400    8.400    0.000 
#    1.800    3.000    0.000    0.000    0.000    0.000 
#    0.000    0.000    0.000    0.000    0.000    0.000 
#
# Total GULP energy -111371.025030 kJ/mol
# GULP energy per Si atom -5568.551252 kJ/mol
# Density = 2.661674 g / cm^3
# Si number density = 26.677456 Si / 1000 Ang^3
#
#
#
# Elastic Constant Matrix: (Units=GPa)
#
#
# Indices 1 2 3 4 5 6 
#
# 1 164.6612 53.8467 95.9904 0.0000 11.9170 0.0000
# 2 53.8467 79.7684 76.2441 0.0000 -0.8379 0.0000
# 3 95.9904 76.2441 208.9645 0.0000 -16.4770 0.0000
# 4 0.0000 0.0000 0.0000 43.4718 0.0000 10.8284
# 5 11.9170 -0.8379 -16.4770 0.0000 103.8431 0.0000
# 6 0.0000 0.0000 0.0000 10.8284 0.0000 35.1613
#
#
#
# Elastic Compliance Matrix: (Units=1/GPa)
#
#
# Indices 1 2 3 4 5 6 
#
# 1 0.009033 -0.003118 -0.003135 0.000000 -0.001559 0.000000
# 2 -0.003118 0.020423 -0.006054 0.000000 -0.000438 0.000000
# 3 -0.003135 -0.006054 0.008566 0.000000 0.001670 0.000000
# 4 0.000000 0.000000 0.000000 0.024915 0.000000 -0.007673
# 5 -0.001559 -0.000438 0.001670 0.000000 0.010070 0.000000
# 6 0.000000 0.000000 0.000000 -0.007673 0.000000 0.030803
#
#
# Mechanical properties :
#
#
# Convention : Reuss Voigt Hill
#
# Bulk Modulus (GPa) = 74.57743 100.61738 87.59741
# Shear Modulus (GPa) = 37.62445 51.64943 44.63694
#
# Velocity S-wave (km/s) = 3.75953 4.40485 4.09492
# Velocity P-wave (km/s) = 6.84554 7.97925 7.43404
#
# Compressibility (1/GPa) = 0.01340888
#
# Stress axis : x y z
#
# Youngs Moduli (GPa) = 110.70672 48.96515 116.73950
#
# Poissons Ratio (x) = 0.15266 0.36595
# Poissons Ratio (y) = 0.34514 0.70674
# Poissons Ratio (z) = 0.34704 0.29643
#
# Static dielectric constant tensor:
#      x y z
#    x 2.119350 0.000000 -0.018330 
#    y 0.000000 2.175060 0.000000 
#    z -0.018330 0.000000 2.056220 
# 
# From -- ./inp_files/119913.got.cif
#   From: 2010.05.17/outbox.cif.g08.bks.cpg/sg15_60_cif.got.tgz:119913.got - 2010.06.03 18:47:42.
