data_PCOD9299066
_publ_section_title
;
Structure prediction by ZEFSAII (Michael W. Deem and Ramdas Pophale) SiO2 
 PCOD9299066
Probable space group: C 2/C
;
_chemical_formula_sum "Si O2"
_cell_formula_units_Z 32
_cell_length_a 11.660690
_cell_length_b 13.830968
_cell_length_c 10.626127
_cell_angle_alpha 90.000000
_cell_angle_beta 44.237141
_cell_angle_gamma 90.000000
_cell_volume 1195.574871
_symmetry_space_group_name_H-M "C 2/C"
_symmetry_group_IT_number 15
_symmetry_cell_setting 'monoclinic'
loop_
_space_group_symop_operation_xyz
x,y,z
-x,y,1/2-z
-x,-y,-z
x,-y,1/2+z
1/2+x,1/2+y,z
1/2-x,1/2+y,1/2-z
1/2-x,1/2-y,-z
1/2+x,1/2-y,1/2+z
loop_
_atom_site_type_symbol
_atom_site_label
_atom_site_fract_x
_atom_site_fract_y
_atom_site_fract_z
Si Si1 0.647025 0.802082 0.736189
Si Si2 0.664619 0.538356 0.549609
Si Si3 0.000000 0.474144 0.250000
Si Si4 0.896618 0.683134 0.647546
Si Si5 0.000000 0.150448 0.250000
O O1 0.500000 0.798728 0.750000
O O2 0.784806 0.883995 0.597331
O O3 0.745642 0.702514 0.673321
O O4 0.559342 0.819173 0.936703
O O5 0.500000 0.575287 0.750000
O O6 0.603265 0.425898 0.584488
O O7 0.854937 0.524209 0.445682
O O8 0.098922 0.411058 0.271983
O O9 0.903588 0.775407 0.736148
#
# Coordination Sequence:
#
# PCOD9299066 Si02
#       5
#     8   8   4   8   4
#     4  12  26  47  72 115 158 206 251 317 388 466
#     4  10  24  46  76 111 157 191 256 317 382 458
#     4  11  22  52  80 113 148 206 260 321 382 452
#     4  11  25  46  81 110 151 205 262 316 381 459
#     4   9  22  50  76 111 150 200 262 319 380 452
#
# _framework density 26.765367000000001
#
# number of rings (size 3 to 8) (size 9 to 14) (size 15 to 20)
#    0.750    0.500    1.250    3.750    0.000    9.000 
#    4.500    0.000    0.000    0.000    0.000    0.000 
#    0.000    0.000    0.000    0.000    0.000    0.000 
#
# Total GULP energy -89204.038158 kJ/mol
# GULP energy per Si atom -5575.252385 kJ/mol
# Density = 2.670445 g / cm^3
# Si number density = 26.765367 Si / 1000 Ang^3
#
#
#
# Elastic Constant Matrix: (Units=GPa)
#
#
# Indices 1 2 3 4 5 6 
#
# 1 99.6901 53.7417 49.6738 0.0000 -25.7727 0.0000
# 2 53.7417 120.2550 41.3327 0.0000 -14.4504 0.0000
# 3 49.6738 41.3327 199.8225 0.0000 -31.9267 0.0000
# 4 0.0000 0.0000 0.0000 10.3844 0.0000 6.2457
# 5 -25.7727 -14.4504 -31.9267 0.0000 42.4971 0.0000
# 6 0.0000 0.0000 0.0000 6.2457 0.0000 37.3653
#
#
#
# Elastic Compliance Matrix: (Units=1/GPa)
#
#
# Indices 1 2 3 4 5 6 
#
# 1 0.015505 -0.005596 -0.001703 0.000000 0.006221 0.000000
# 2 -0.005596 0.011106 -0.000960 0.000000 -0.000339 0.000000
# 3 -0.001703 -0.000960 0.006147 0.000000 0.003259 0.000000
# 4 0.000000 0.000000 0.000000 0.107062 0.000000 -0.017896
# 5 0.006221 -0.000339 0.003259 0.000000 0.029637 0.000000
# 6 0.000000 0.000000 0.000000 -0.017896 0.000000 0.029754
#
#
# Mechanical properties :
#
#
# Convention : Reuss Voigt Hill
#
# Bulk Modulus (GPa) = 61.57959 78.80712 70.19336
# Shear Modulus (GPa) = 22.60991 36.38397 29.49694
#
# Velocity S-wave (km/s) = 2.90960 3.69096 3.32332
# Velocity P-wave (km/s) = 5.86045 6.90448 6.40378
#
# Compressibility (1/GPa) = 0.01623915
#
# Stress axis : x y z
#
# Youngs Moduli (GPa) = 64.49679 90.04220 162.67955
#
# Poissons Ratio (x) = 0.50389 0.27701
# Poissons Ratio (y) = 0.36094 0.15621
# Poissons Ratio (z) = 0.10983 0.08646
#
# Static dielectric constant tensor:
#      x y z
#    x 2.124490 0.000000 0.031370 
#    y 0.000000 2.214660 0.000000 
#    z 0.031370 0.000000 2.117820 
# 
# From -- ./inp_files/87025.got.cif
#   From: 2010.05.17/outbox.cif.g08.bks.cpg/sg15_44_cif.got.tgz:87025.got - 2010.06.03 18:47:42.
