data_PCOD9299250
_publ_section_title
;
Structure prediction by ZEFSAII (Michael W. Deem and Ramdas Pophale) SiO2 
 PCOD9299250
Probable space group: C 2/C
;
_chemical_formula_sum "Si O2"
_cell_formula_units_Z 56
_cell_length_a 11.083862
_cell_length_b 8.647787
_cell_length_c 24.984682
_cell_angle_alpha 90.000000
_cell_angle_beta 107.383315
_cell_angle_gamma 90.000000
_cell_volume 2285.426719
_symmetry_space_group_name_H-M "C 2/C"
_symmetry_group_IT_number 15
_symmetry_cell_setting 'monoclinic'
loop_
_space_group_symop_operation_xyz
x,y,z
-x,y,1/2-z
-x,-y,-z
x,-y,1/2+z
1/2+x,1/2+y,z
1/2-x,1/2+y,1/2-z
1/2-x,1/2-y,-z
1/2+x,1/2-y,1/2+z
loop_
_atom_site_type_symbol
_atom_site_label
_atom_site_fract_x
_atom_site_fract_y
_atom_site_fract_z
Si Si1 0.283929 0.813810 0.609911
Si Si2 0.586232 0.943929 0.309629
Si Si3 0.706333 0.051778 0.980559
Si Si4 0.605386 0.408697 0.806763
Si Si5 0.570702 0.546098 0.909952
Si Si6 0.632332 0.047483 0.633038
Si Si7 0.606449 0.237496 0.050059
O O1 0.398618 0.693983 0.623109
O O2 0.164527 0.703356 0.603993
O O3 0.303394 0.940666 0.658032
O O4 0.298798 0.897413 0.554746
O O5 0.500000 0.005190 0.250000
O O6 0.633671 0.773048 0.301521
O O7 0.488401 0.932324 0.345989
O O8 0.763204 0.177264 0.947390
O O9 0.587763 0.135622 0.993223
O O10 0.807449 0.010344 0.040439
O O11 0.500000 0.456119 0.750000
O O12 0.548617 0.424125 0.859760
O O13 0.735609 0.505117 0.819380
O O14 0.477132 0.617545 0.941675
O O15 0.611581 0.894248 0.594942
#
# Coordination Sequence:
#
# PCOD9299250 Si02
#       7
#     8   8   8   8   8   8   8
#     4  11  24  41  68  99 135 177 230 279 332 412
#     4  11  26  47  70 102 134 177 232 280 343 413
#     4  11  24  41  64 100 135 180 228 274 336 407
#     4  10  24  48  69 100 135 174 232 285 337 414
#     4  11  23  43  64  98 134 178 222 280 340 400
#     4  11  24  47  68 102 139 176 225 284 342 399
#     4  11  23  41  65  93 135 180 217 277 338 396
#
# _framework density 24.503083
#
# number of rings (size 3 to 8) (size 9 to 14) (size 15 to 20)
#    0.000    1.143    4.286    1.714    4.000    6.286 
#    5.143    0.000    0.000    0.000    0.000    0.000 
#    0.000    0.000    0.000    0.000    0.000    0.000 
#
# Total GULP energy -156352.417150 kJ/mol
# GULP energy per Si atom -5584.014898 kJ/mol
# Density = 2.444731 g / cm^3
# Si number density = 24.503083 Si / 1000 Ang^3
#
#
#
# Elastic Constant Matrix: (Units=GPa)
#
#
# Indices 1 2 3 4 5 6 
#
# 1 73.5905 9.7863 2.7886 0.0000 0.1013 0.0000
# 2 9.7863 89.1402 25.5122 0.0000 16.4567 0.0000
# 3 2.7886 25.5122 101.7548 0.0000 17.8331 0.0000
# 4 0.0000 0.0000 0.0000 31.5685 0.0000 0.8456
# 5 0.1013 16.4567 17.8331 0.0000 29.4036 0.0000
# 6 0.0000 0.0000 0.0000 0.8456 0.0000 37.5107
#
#
#
# Elastic Compliance Matrix: (Units=1/GPa)
#
#
# Indices 1 2 3 4 5 6 
#
# 1 0.013813 -0.001656 -0.000131 0.000000 0.000959 0.000000
# 2 -0.001656 0.013139 -0.002194 0.000000 -0.006017 0.000000
# 3 -0.000131 -0.002194 0.011375 0.000000 -0.005670 0.000000
# 4 0.000000 0.000000 0.000000 0.031696 0.000000 -0.000715
# 5 0.000959 -0.006017 -0.005670 0.000000 0.040813 0.000000
# 6 0.000000 0.000000 0.000000 -0.000715 0.000000 0.026675
#
#
# Mechanical properties :
#
#
# Convention : Reuss Voigt Hill
#
# Bulk Modulus (GPa) = 32.93436 37.85108 35.39272
# Shear Modulus (GPa) = 32.13468 34.78978 33.46223
#
# Velocity S-wave (km/s) = 3.62533 3.77213 3.69946
# Velocity P-wave (km/s) = 5.56723 5.86966 5.72045
#
# Compressibility (1/GPa) = 0.03036343
#
# Stress axis : x y z
#
# Youngs Moduli (GPa) = 72.39784 76.10965 87.91160
#
# Poissons Ratio (x) = 0.12602 0.01155
# Poissons Ratio (y) = 0.11988 0.19291
# Poissons Ratio (z) = 0.00952 0.16701
#
# Static dielectric constant tensor:
#      x y z
#    x 2.009890 0.000000 0.010220 
#    y 0.000000 2.012170 0.000000 
#    z 0.010220 0.000000 1.994750 
# 
# From -- ./inp_files/291605.got.cif
#   From: 2010.05.17/outbox.cif.g08.bks.cpg/sg15_146_cif.got.tgz:291605.got - 2010.06.03 18:47:42.
