data_PCOD9299907
_publ_section_title
;
Structure prediction by ZEFSAII (Michael W. Deem and Ramdas Pophale) SiO2 
 PCOD9299907
Probable space group: C 2/C
;
_chemical_formula_sum "Si O2"
_cell_formula_units_Z 60
_cell_length_a 27.526026
_cell_length_b 10.354385
_cell_length_c 10.376404
_cell_angle_alpha 90.000000
_cell_angle_beta 59.159225
_cell_angle_gamma 90.000000
_cell_volume 2539.236744
_symmetry_space_group_name_H-M "C 2/C"
_symmetry_group_IT_number 15
_symmetry_cell_setting 'monoclinic'
loop_
_space_group_symop_operation_xyz
x,y,z
-x,y,1/2-z
-x,-y,-z
x,-y,1/2+z
1/2+x,1/2+y,z
1/2-x,1/2+y,1/2-z
1/2-x,1/2-y,-z
1/2+x,1/2-y,1/2+z
loop_
_atom_site_type_symbol
_atom_site_label
_atom_site_fract_x
_atom_site_fract_y
_atom_site_fract_z
Si Si1 0.799363 0.319721 0.206913
Si Si2 0.878159 0.598372 0.831090
Si Si3 0.353040 0.810675 0.851726
Si Si4 0.288582 0.156950 0.179360
Si Si5 0.362756 0.535186 0.799096
Si Si6 0.978607 0.929450 0.651160
Si Si7 0.500000 0.810091 0.250000
Si Si8 0.708282 0.482920 0.354865
O O1 0.848325 0.332226 0.248580
O O2 0.778154 0.489891 0.231445
O O3 0.729296 0.317603 0.344113
O O4 0.822311 0.320593 0.030030
O O5 0.882183 0.447001 0.791749
O O6 0.940912 0.626880 0.796796
O O7 0.834586 0.629688 0.006076
O O8 0.308781 0.802505 0.795115
O O9 0.387035 0.677097 0.800008
O O10 0.217030 0.149808 0.278023
O O11 0.411047 0.428663 0.748326
O O12 0.340456 0.541383 0.684202
O O13 0.313127 0.511985 0.971121
O O14 0.000000 0.999655 0.750000
O O15 0.007494 0.790027 0.621601
O O16 0.000000 0.000000 0.500000
#
# Coordination Sequence:
#
# PCOD9299907 Si02
#       8
#     8   8   8   8   8   8   4   8
#     4  12  24  41  69 107 148 188 231 283 360 438
#     4  12  26  49  71 100 143 199 240 292 351 423
#     4  12  24  45  67 103 151 183 229 291 351 435
#     4  12  24  40  70 105 151 185 228 287 361 432
#     4  12  26  42  73 106 144 184 234 298 363 427
#     4  10  25  48  72 101 135 182 239 299 349 406
#     4  10  30  50  76  98 138 186 256 300 342 412
#     4  12  23  40  70 110 146 183 228 282 371 434
#
# _framework density 23.629147
#
# number of rings (size 3 to 8) (size 9 to 14) (size 15 to 20)
#    0.400    0.000    5.333    3.200    5.600    1.067 
#    1.200    2.667    0.000    0.000    0.000    0.000 
#    0.000    0.000    0.000    0.000    0.000    0.000 
#
# Total GULP energy -167241.110410 kJ/mol
# GULP energy per Si atom -5574.703680 kJ/mol
# Density = 2.357537 g / cm^3
# Si number density = 23.629147 Si / 1000 Ang^3
#
#
#
# Elastic Constant Matrix: (Units=GPa)
#
#
# Indices 1 2 3 4 5 6 
#
# 1 127.7352 56.3991 10.6583 0.0000 13.1777 0.0000
# 2 56.3991 142.4345 -4.7975 0.0000 -1.7857 0.0000
# 3 10.6583 -4.7975 76.2926 0.0000 12.4937 0.0000
# 4 0.0000 0.0000 0.0000 5.9979 0.0000 41.7424
# 5 13.1777 -1.7857 12.4937 0.0000 15.1913 0.0000
# 6 0.0000 0.0000 0.0000 41.7424 0.0000 -11.3758
#
#
#
# Elastic Compliance Matrix: (Units=1/GPa)
#
#
# Indices 1 2 3 4 5 6 
#
# 1 0.010791 -0.004401 -0.000193 0.000000 -0.009719 0.000000
# 2 -0.004401 0.008834 0.000434 0.000000 0.004500 0.000000
# 3 -0.000193 0.000434 0.015169 0.000000 -0.012257 0.000000
# 4 0.000000 0.000000 0.000000 0.006283 0.000000 0.023054
# 5 -0.009719 0.004500 -0.012257 0.000000 0.084868 0.000000
# 6 0.000000 0.000000 0.000000 0.023054 0.000000 -0.003313
#
#
# Mechanical properties :
#
#
# Convention : Reuss Voigt Hill
#
# Bulk Modulus (GPa) = 37.77340 52.33134 45.05237
# Shear Modulus (GPa) = 35.77132 20.90949 28.34040
#
# Velocity S-wave (km/s) = 3.89506 2.97796 3.46697
# Velocity P-wave (km/s) = 6.02074 5.83261 5.92742
#
# Compressibility (1/GPa) = 0.02647366
#
# Stress axis : x y z
#
# Youngs Moduli (GPa) = 92.67274 113.19322 65.92460
#
# Poissons Ratio (x) = 0.49817 0.01270
# Poissons Ratio (y) = 0.40786 -0.02858
# Poissons Ratio (z) = 0.01785 -0.04907
#
# Static dielectric constant tensor:
#      x y z
#    x 1.839780 0.000000 -0.021100 
#    y 0.000000 2.642770 0.000000 
#    z -0.021100 0.000000 1.773650 
# 
# From -- ./inp_files/69348.got.cif
#   From: 2010.05.17/outbox.cif.g08.bks.cpg/sg15_35_cif.got.tgz:69348.got - 2010.06.03 18:47:42.
