data_PCOD9299854
_publ_section_title
;
Structure prediction by ZEFSAII (Michael W. Deem and Ramdas Pophale) SiO2 
 PCOD9299854
Probable space group: C 2/C
;
_chemical_formula_sum "Si O2"
_cell_formula_units_Z 52
_cell_length_a 17.152921
_cell_length_b 17.162470
_cell_length_c 8.383104
_cell_angle_alpha 90.000000
_cell_angle_beta 124.946888
_cell_angle_gamma 90.000000
_cell_volume 2022.874151
_symmetry_space_group_name_H-M "C 2/C"
_symmetry_group_IT_number 15
_symmetry_cell_setting 'monoclinic'
loop_
_space_group_symop_operation_xyz
x,y,z
-x,y,1/2-z
-x,-y,-z
x,-y,1/2+z
1/2+x,1/2+y,z
1/2-x,1/2+y,1/2-z
1/2-x,1/2-y,-z
1/2+x,1/2-y,1/2+z
loop_
_atom_site_type_symbol
_atom_site_label
_atom_site_fract_x
_atom_site_fract_y
_atom_site_fract_z
Si Si1 0.501695 0.656495 0.556707
Si Si2 0.676304 0.567153 0.125815
Si Si3 0.500000 0.755371 0.250000
Si Si4 0.596924 0.114547 0.414931
Si Si5 0.592723 0.957864 0.247950
Si Si6 0.799900 0.323753 0.975470
Si Si7 0.796276 0.901103 0.204723
O O1 0.500000 0.673607 0.750000
O O2 0.432921 0.582102 0.451494
O O3 0.463904 0.714169 0.372250
O O4 0.610364 0.643022 0.627412
O O5 0.737659 0.640268 0.261546
O O6 0.716729 0.483971 0.224661
O O7 0.674503 0.572893 0.936201
O O8 0.591763 0.799202 0.427716
O O9 0.500000 0.157305 0.250000
O O10 0.570118 0.066855 0.542642
O O11 0.699652 0.149941 0.575582
O O12 0.618034 0.047820 0.308134
O O13 0.500000 0.944198 0.250000
O O14 0.679715 0.901233 0.396247
O O15 0.750000 0.250000 0.000000
#
# Coordination Sequence:
#
# PCOD9299854 Si02
#       7
#     8   8   4   8   8   8   8
#     4  10  25  47  71 107 138 178 245 297 343 420
#     4  11  24  44  70 103 143 173 231 291 358 421
#     4  12  26  48  78  88 146 200 236 284 350 410
#     4  11  23  37  65  99 133 170 211 275 351 408
#     4  11  23  41  65  93 134 169 224 280 334 412
#     4  12  26  43  68  97 130 189 234 271 337 421
#     4  11  24  40  72 105 140 174 223 298 357 415
#
# _framework density 25.705998999999998
#
# number of rings (size 3 to 8) (size 9 to 14) (size 15 to 20)
#    0.000    0.923    3.846    3.231    6.462    0.000 
#    0.000    5.385    0.000    0.000    0.000    0.000 
#    0.000    0.000    0.000    0.000    0.000    0.000 
#
# Total GULP energy -145143.136652 kJ/mol
# GULP energy per Si atom -5582.428333 kJ/mol
# Density = 2.564749 g / cm^3
# Si number density = 25.705999 Si / 1000 Ang^3
#
#
#
# Elastic Constant Matrix: (Units=GPa)
#
#
# Indices 1 2 3 4 5 6 
#
# 1 98.9775 21.4787 20.5599 0.0000 30.9011 0.0000
# 2 21.4787 84.4769 22.3514 0.0000 7.0384 0.0000
# 3 20.5599 22.3514 102.4082 0.0000 11.7787 0.0000
# 4 0.0000 0.0000 0.0000 21.7611 0.0000 13.3105
# 5 30.9011 7.0384 11.7787 0.0000 67.6726 0.0000
# 6 0.0000 0.0000 0.0000 13.3105 0.0000 14.0429
#
#
#
# Elastic Compliance Matrix: (Units=1/GPa)
#
#
# Indices 1 2 3 4 5 6 
#
# 1 0.012546 -0.002384 -0.001396 0.000000 -0.005238 0.000000
# 2 -0.002384 0.013064 -0.002389 0.000000 0.000146 0.000000
# 3 -0.001396 -0.002389 0.010678 0.000000 -0.000973 0.000000
# 4 0.000000 0.000000 0.000000 0.109352 0.000000 -0.103649
# 5 -0.005238 0.000146 -0.000973 0.000000 0.017323 0.000000
# 6 0.000000 0.000000 0.000000 -0.103649 0.000000 0.169454
#
#
# Mechanical properties :
#
#
# Convention : Reuss Voigt Hill
#
# Bulk Modulus (GPa) = 41.75502 46.07141 43.91322
# Shear Modulus (GPa) = 14.17481 35.46015 24.81748
#
# Velocity S-wave (km/s) = 2.35078 3.71812 3.11052
# Velocity P-wave (km/s) = 4.86280 6.03274 5.47908
#
# Compressibility (1/GPa) = 0.02394921
#
# Stress axis : x y z
#
# Youngs Moduli (GPa) = 79.70716 76.54754 93.64623
#
# Poissons Ratio (x) = 0.18250 0.13073
# Poissons Ratio (y) = 0.19003 0.22376
# Poissons Ratio (z) = 0.11127 0.18290
#
# Static dielectric constant tensor:
#      x y z
#    x 2.106150 0.000000 0.053180 
#    y 0.000000 2.067540 0.000000 
#    z 0.053180 0.000000 2.096940 
# 
# From -- ./inp_files/50726.got.cif
#   From: 2010.05.17/outbox.cif.g08.bks.cpg/sg15_26_cif.got.tgz:50726.got - 2010.06.03 18:47:42.
