data_PCOD9299564
_publ_section_title
;
Structure prediction by ZEFSAII (Michael W. Deem and Ramdas Pophale) SiO2 
 PCOD9299564
Probable space group: C 2/C
;
_chemical_formula_sum "Si O2"
_cell_formula_units_Z 56
_cell_length_a 10.681360
_cell_length_b 10.539953
_cell_length_c 27.054930
_cell_angle_alpha 90.000000
_cell_angle_beta 54.533606
_cell_angle_gamma 90.000000
_cell_volume 2480.728628
_symmetry_space_group_name_H-M "C 2/C"
_symmetry_group_IT_number 15
_symmetry_cell_setting 'monoclinic'
loop_
_space_group_symop_operation_xyz
x,y,z
-x,y,1/2-z
-x,-y,-z
x,-y,1/2+z
1/2+x,1/2+y,z
1/2-x,1/2+y,1/2-z
1/2-x,1/2-y,-z
1/2+x,1/2-y,1/2+z
loop_
_atom_site_type_symbol
_atom_site_label
_atom_site_fract_x
_atom_site_fract_y
_atom_site_fract_z
Si Si1 0.659429 0.277674 0.469623
Si Si2 0.710256 0.340569 0.708913
Si Si3 0.977148 0.343413 0.812439
Si Si4 0.362022 0.744857 0.086893
Si Si5 0.821781 0.592004 0.843597
Si Si6 0.267912 0.979425 0.599758
Si Si7 0.070554 0.075203 0.343025
O O1 0.750000 0.250000 0.500000
O O2 0.486117 0.319886 0.522460
O O3 0.748531 0.373941 0.413390
O O4 0.654881 0.145053 0.440817
O O5 0.647540 0.222731 0.691629
O O6 0.738914 0.453190 0.664010
O O7 0.614957 0.391994 0.776961
O O8 0.875764 0.298254 0.691761
O O9 0.816262 0.296515 0.872077
O O10 0.964686 0.496932 0.816205
O O11 0.000000 0.304788 0.750000
O O12 0.421827 0.705971 0.127608
O O13 0.362044 0.892569 0.074300
O O14 0.697696 0.513339 0.839554
O O15 0.097565 0.985230 0.615220
#
# Coordination Sequence:
#
# PCOD9299564 Si02
#       7
#     8   8   8   8   8   8   8
#     4  11  24  47  68  98 135 184 239 286 347 413
#     4  11  24  42  67 103 138 175 231 281 351 421
#     4  11  23  44  68 103 136 181 225 277 356 417
#     4  11  24  43  69  95 138 176 226 287 345 405
#     4  10  25  43  69  96 139 178 232 280 347 412
#     4  11  25  42  69 101 134 181 233 287 348 409
#     4  11  23  44  66 103 135 183 224 285 359 413
#
# _framework density 22.574013999999998
#
# number of rings (size 3 to 8) (size 9 to 14) (size 15 to 20)
#    0.000    1.143    4.286    1.714    4.000    5.714 
#    0.000    3.571    0.000    0.000    0.000    0.000 
#    0.000    0.000    0.000    0.000    0.000    0.000 
#
# Total GULP energy -156602.104542 kJ/mol
# GULP energy per Si atom -5592.932305 kJ/mol
# Density = 2.252263 g / cm^3
# Si number density = 22.574014 Si / 1000 Ang^3
#
#
#
# Elastic Constant Matrix: (Units=GPa)
#
#
# Indices 1 2 3 4 5 6 
#
# 1 67.4015 -5.6312 27.1630 0.0000 -2.4812 0.0000
# 2 -5.6312 49.0570 9.8889 0.0000 8.8133 0.0000
# 3 27.1630 9.8889 127.9532 0.0000 -10.0756 0.0000
# 4 0.0000 0.0000 0.0000 21.9874 0.0000 2.4813
# 5 -2.4812 8.8133 -10.0756 0.0000 33.2190 0.0000
# 6 0.0000 0.0000 0.0000 2.4813 0.0000 24.5107
#
#
#
# Elastic Compliance Matrix: (Units=1/GPa)
#
#
# Indices 1 2 3 4 5 6 
#
# 1 0.016570 0.002781 -0.003784 0.000000 -0.000648 0.000000
# 2 0.002781 0.022466 -0.002848 0.000000 -0.006617 0.000000
# 3 -0.003784 -0.002848 0.009093 0.000000 0.003231 0.000000
# 4 0.000000 0.000000 0.000000 0.046006 0.000000 -0.004657
# 5 -0.000648 -0.006617 0.003231 0.000000 0.032790 0.000000
# 6 0.000000 0.000000 0.000000 -0.004657 0.000000 0.041270
#
#
# Mechanical properties :
#
#
# Convention : Reuss Voigt Hill
#
# Bulk Modulus (GPa) = 24.73482 34.13926 29.43704
# Shear Modulus (GPa) = 26.40301 30.14281 28.27291
#
# Velocity S-wave (km/s) = 3.42368 3.65812 3.54284
# Velocity P-wave (km/s) = 5.15847 5.74444 5.45932
#
# Compressibility (1/GPa) = 0.04042884
#
# Stress axis : x y z
#
# Youngs Moduli (GPa) = 60.35095 44.51089 109.97393
#
# Poissons Ratio (x) = -0.12379 0.41609
# Poissons Ratio (y) = -0.16784 0.31318
# Poissons Ratio (z) = 0.22834 0.12676
#
# Static dielectric constant tensor:
#      x y z
#    x 1.865470 0.000000 -0.040330 
#    y 0.000000 1.843800 0.000000 
#    z -0.040330 0.000000 1.847060 
# 
# From -- ./inp_files/292204.got.cif
#   From: 2010.05.17/outbox.cif.g08.bks.cpg/sg15_147_cif.got.tgz:292204.got - 2010.06.03 18:47:42.
