data_PCOD9299835
_publ_section_title
;
Structure prediction by ZEFSAII (Michael W. Deem and Ramdas Pophale) SiO2 
 PCOD9299835
Probable space group: C 2/C
;
_chemical_formula_sum "Si O2"
_cell_formula_units_Z 36
_cell_length_a 12.966361
_cell_length_b 6.612514
_cell_length_c 26.459328
_cell_angle_alpha 90.000000
_cell_angle_beta 41.975174
_cell_angle_gamma 90.000000
_cell_volume 1517.278608
_symmetry_space_group_name_H-M "C 2/C"
_symmetry_group_IT_number 15
_symmetry_cell_setting 'monoclinic'
loop_
_space_group_symop_operation_xyz
x,y,z
-x,y,1/2-z
-x,-y,-z
x,-y,1/2+z
1/2+x,1/2+y,z
1/2-x,1/2+y,1/2-z
1/2-x,1/2-y,-z
1/2+x,1/2-y,1/2+z
loop_
_atom_site_type_symbol
_atom_site_label
_atom_site_fract_x
_atom_site_fract_y
_atom_site_fract_z
Si Si1 0.537486 0.593011 0.809480
Si Si2 0.007291 0.266249 0.512865
Si Si3 0.124762 0.929684 0.534478
Si Si4 0.000000 0.592505 0.250000
Si Si5 0.735386 0.246474 0.692186
O O1 0.443262 0.472726 0.885736
O O2 0.438936 0.756499 0.815105
O O3 0.663027 0.719243 0.795045
O O4 0.629016 0.440768 0.739701
O O5 0.994816 0.161378 0.462730
O O6 0.000000 0.500000 0.500000
O O7 0.850398 0.249582 0.603060
O O8 0.136983 0.152508 0.500946
O O9 0.250000 0.750000 0.500000
O O10 0.129131 0.447671 0.224449
#
# Coordination Sequence:
#
# PCOD9299835 Si02
#       5
#     8   8   8   4   8
#     4  11  25  46  74 106 145 194 244 305 362 437
#     4  10  25  48  73 104 148 193 239 309 374 440
#     4  10  25  47  67 107 146 189 246 300 369 444
#     4  12  26  44  74 106 146 192 248 304 358 430
#     4  11  25  47  74 107 146 188 248 301 365 438
#
# _framework density 23.726690000000001
#
# number of rings (size 3 to 8) (size 9 to 14) (size 15 to 20)
#    0.000    1.333    2.222    0.667    9.333    2.667 
#    0.000    0.000    0.000    0.000    0.000    0.000 
#    0.000    0.000    0.000    0.000    0.000    0.000 
#
# Total GULP energy -100418.139611 kJ/mol
# GULP energy per Si atom -5578.785534 kJ/mol
# Density = 2.367269 g / cm^3
# Si number density = 23.726690 Si / 1000 Ang^3
#
#
#
# Elastic Constant Matrix: (Units=GPa)
#
#
# Indices 1 2 3 4 5 6 
#
# 1 73.1252 25.1141 -5.8894 0.0002 12.8675 0.0032
# 2 25.1141 133.4906 35.1665 -0.0001 1.5978 0.0080
# 3 -5.8894 35.1665 83.4442 0.0011 5.4030 0.0006
# 4 0.0002 -0.0001 0.0011 31.6284 -0.0002 13.4269
# 5 12.8675 1.5978 5.4030 -0.0002 20.3416 0.0014
# 6 0.0032 0.0080 0.0006 13.4269 0.0014 52.9706
#
#
#
# Elastic Compliance Matrix: (Units=1/GPa)
#
#
# Indices 1 2 3 4 5 6 
#
# 1 0.017452 -0.004125 0.003728 0.000000 -0.011706 0.000000
# 2 -0.004125 0.009404 -0.004452 0.000001 0.003053 -0.000001
# 3 0.003728 -0.004452 0.014503 -0.000001 -0.005861 0.000001
# 4 0.000000 0.000001 -0.000001 0.035430 0.000001 -0.008981
# 5 -0.011706 0.003053 -0.005861 0.000001 0.057882 -0.000002
# 6 0.000000 -0.000001 0.000001 -0.008981 -0.000002 0.021155
#
#
# Mechanical properties :
#
#
# Convention : Reuss Voigt Hill
#
# Bulk Modulus (GPa) = 31.58503 44.31583 37.95043
# Shear Modulus (GPa) = 28.39676 36.69938 32.54807
#
# Velocity S-wave (km/s) = 3.46327 3.93715 3.70779
# Velocity P-wave (km/s) = 5.41602 6.27585 5.86172
#
# Compressibility (1/GPa) = 0.03166057
#
# Stress axis : x y z
#
# Youngs Moduli (GPa) = 57.29965 106.34296 68.95189
#
# Poissons Ratio (x) = 0.43871 -0.25707
# Poissons Ratio (y) = 0.23638 0.30697
# Poissons Ratio (z) = -0.21363 0.47343
#
# Static dielectric constant tensor:
#      x y z
#    x 1.874530 0.000000 -0.010810 
#    y 0.000000 2.009150 0.000000 
#    z -0.010810 0.000000 1.859500 
# 
# From -- ./inp_files/294154.got.cif
#   From: 2010.05.17/outbox.cif.g08.bks.cpg/sg15_148_cif.got.tgz:294154.got - 2010.06.03 18:47:42.
