data_PCOD9299536
_publ_section_title
;
Structure prediction by ZEFSAII (Michael W. Deem and Ramdas Pophale) SiO2 
 PCOD9299536
Probable space group: C 2/C
;
_chemical_formula_sum "Si O2"
_cell_formula_units_Z 40
_cell_length_a 10.173640
_cell_length_b 15.559224
_cell_length_c 12.390716
_cell_angle_alpha 90.000000
_cell_angle_beta 128.765557
_cell_angle_gamma 90.000000
_cell_volume 1529.312768
_symmetry_space_group_name_H-M "C 2/C"
_symmetry_group_IT_number 15
_symmetry_cell_setting 'monoclinic'
loop_
_space_group_symop_operation_xyz
x,y,z
-x,y,1/2-z
-x,-y,-z
x,-y,1/2+z
1/2+x,1/2+y,z
1/2-x,1/2+y,1/2-z
1/2-x,1/2-y,-z
1/2+x,1/2-y,1/2+z
loop_
_atom_site_type_symbol
_atom_site_label
_atom_site_fract_x
_atom_site_fract_y
_atom_site_fract_z
Si Si1 0.861373 0.675330 0.343085
Si Si2 0.981779 0.123674 0.396803
Si Si3 0.892763 0.820694 0.082152
Si Si4 0.627745 0.865994 0.408020
Si Si5 0.500000 0.034750 0.250000
Si Si6 0.500000 0.467718 0.250000
O O1 0.641516 0.603652 0.849531
O O2 0.924834 0.657758 0.497260
O O3 0.913152 0.596023 0.292973
O O4 0.940343 0.760293 0.330507
O O5 0.174160 0.156274 0.497943
O O6 0.840792 0.177538 0.260433
O O7 0.916770 0.127397 0.484470
O O8 0.972768 0.031100 0.335081
O O9 0.750000 0.750000 0.000000
O O10 0.500000 0.833188 0.250000
O O11 0.618089 0.968679 0.377559
#
# Coordination Sequence:
#
# PCOD9299536 Si02
#       6
#     8   8   8   8   4   4
#     4  12  25  50  75 116 164 206 274 337 412 483
#     4  12  27  50  84 115 157 219 272 330 407 490
#     4  12  30  50  80 121 168 210 265 342 417 479
#     4  10  26  45  76 117 156 212 275 331 401 492
#     4  10  25  42  79 114 156 214 266 336 397 488
#     4  12  27  50  81 118 156 214 270 326 399 494
#
# _framework density 26.155540999999999
#
# number of rings (size 3 to 8) (size 9 to 14) (size 15 to 20)
#    0.600    0.000    2.000    4.200    8.400    5.600 
#    1.800    0.000    0.000    0.000    0.000    0.000 
#    0.000    0.000    0.000    0.000    0.000    0.000 
#
# Total GULP energy -111874.666743 kJ/mol
# GULP energy per Si atom -5593.733337 kJ/mol
# Density = 2.609601 g / cm^3
# Si number density = 26.155541 Si / 1000 Ang^3
#
#
#
# Elastic Constant Matrix: (Units=GPa)
#
#
# Indices 1 2 3 4 5 6 
#
# 1 150.6693 67.2559 67.6687 0.0000 24.7168 0.0000
# 2 67.2559 203.1992 70.7989 0.0000 -4.0636 0.0000
# 3 67.6687 70.7989 140.6250 0.0000 6.7775 0.0000
# 4 0.0000 0.0000 0.0000 30.4226 0.0000 7.9682
# 5 24.7168 -4.0636 6.7775 0.0000 46.9087 0.0000
# 6 0.0000 0.0000 0.0000 7.9682 0.0000 33.0631
#
#
#
# Elastic Compliance Matrix: (Units=1/GPa)
#
#
# Indices 1 2 3 4 5 6 
#
# 1 0.009984 -0.002198 -0.003459 0.000000 -0.004951 0.000000
# 2 -0.002198 0.006495 -0.002311 0.000000 0.002055 0.000000
# 3 -0.003459 -0.002311 0.009930 0.000000 0.000188 0.000000
# 4 0.000000 0.000000 0.000000 0.035085 0.000000 -0.008455
# 5 -0.004951 0.002055 0.000188 0.000000 0.024078 0.000000
# 6 0.000000 0.000000 0.000000 -0.008455 0.000000 0.032283
#
#
# Mechanical properties :
#
#
# Convention : Reuss Voigt Hill
#
# Bulk Modulus (GPa) = 95.48973 100.66004 98.07488
# Shear Modulus (GPa) = 36.42098 41.33021 38.87559
#
# Velocity S-wave (km/s) = 3.73564 3.97945 3.85947
# Velocity P-wave (km/s) = 7.42929 7.72550 7.57884
#
# Compressibility (1/GPa) = 0.01047233
#
# Stress axis : x y z
#
# Youngs Moduli (GPa) = 100.15882 153.95676 100.70371
#
# Poissons Ratio (x) = 0.33847 0.34832
# Poissons Ratio (y) = 0.22020 0.23275
# Poissons Ratio (z) = 0.34644 0.35584
#
# Static dielectric constant tensor:
#      x y z
#    x 2.105820 0.000000 0.069640 
#    y 0.000000 1.988940 0.000000 
#    z 0.069640 0.000000 2.235630 
# 
# From -- ./inp_files/38011.got.cif
#   From: 2010.05.17/outbox.cif.g08.bks.cpg/sg15_20_cif.got.tgz:38011.got - 2010.06.03 18:47:42.
