data_PCOD9299822
_publ_section_title
;
Structure prediction by ZEFSAII (Michael W. Deem and Ramdas Pophale) SiO2 
 PCOD9299822
Probable space group: C 2/C
;
_chemical_formula_sum "Si O2"
_cell_formula_units_Z 32
_cell_length_a 27.425562
_cell_length_b 9.294826
_cell_length_c 9.409762
_cell_angle_alpha 90.000000
_cell_angle_beta 147.433201
_cell_angle_gamma 90.000000
_cell_volume 1291.176809
_symmetry_space_group_name_H-M "C 2/C"
_symmetry_group_IT_number 15
_symmetry_cell_setting 'monoclinic'
loop_
_space_group_symop_operation_xyz
x,y,z
-x,y,1/2-z
-x,-y,-z
x,-y,1/2+z
1/2+x,1/2+y,z
1/2-x,1/2+y,1/2-z
1/2-x,1/2-y,-z
1/2+x,1/2-y,1/2+z
loop_
_atom_site_type_symbol
_atom_site_label
_atom_site_fract_x
_atom_site_fract_y
_atom_site_fract_z
Si Si1 0.845676 0.211913 0.369875
Si Si2 0.074401 0.405100 0.527389
Si Si3 0.810295 0.509832 0.424506
Si Si4 0.507999 0.332588 0.488484
O O1 0.800225 0.361123 0.310239
O O2 0.778065 0.079026 0.223915
O O3 0.929365 0.193694 0.681264
O O4 0.894125 0.208797 0.335491
O O5 0.153543 0.381419 0.608070
O O6 0.021679 0.266552 0.453716
O O7 0.117610 0.479279 0.771895
O O8 0.000000 0.492625 0.250000
O O9 0.500000 0.500000 0.500000
#
# Coordination Sequence:
#
# PCOD9299822 Si02
#       4
#     8   8   8   8
#     4  10  26  47  72 111 147 197 249 316 366 451
#     4  11  27  47  77 109 148 201 245 309 375 451
#     4  11  27  46  78 110 154 191 257 308 377 442
#     4  10  25  46  76 104 153 195 256 303 380 442
#
# _framework density 24.783593
#
# number of rings (size 3 to 8) (size 9 to 14) (size 15 to 20)
#    0.000    1.500    0.000    0.750   21.000    3.000 
#    0.000    0.000    0.000    0.000    0.000    0.000 
#    0.000    0.000    0.000    0.000    0.000    0.000 
#
# Total GULP energy -89556.058779 kJ/mol
# GULP energy per Si atom -5597.253674 kJ/mol
# Density = 2.472718 g / cm^3
# Si number density = 24.783593 Si / 1000 Ang^3
#
#
#
# Elastic Constant Matrix: (Units=GPa)
#
#
# Indices 1 2 3 4 5 6 
#
# 1 208.1995 86.4556 61.8261 0.0000 13.3686 0.0000
# 2 86.4556 185.5657 50.9558 0.0000 26.1526 0.0000
# 3 61.8261 50.9558 99.2846 0.0000 3.8672 0.0000
# 4 0.0000 0.0000 0.0000 37.1757 0.0000 14.8720
# 5 13.3686 26.1526 3.8672 0.0000 45.8762 0.0000
# 6 0.0000 0.0000 0.0000 14.8720 0.0000 42.5325
#
#
#
# Elastic Compliance Matrix: (Units=1/GPa)
#
#
# Indices 1 2 3 4 5 6 
#
# 1 0.006634 -0.002214 -0.002978 0.000000 -0.000420 0.000000
# 2 -0.002214 0.007558 -0.002366 0.000000 -0.003464 0.000000
# 3 -0.002978 -0.002366 0.013098 0.000000 0.001112 0.000000
# 4 0.000000 0.000000 0.000000 0.031274 0.000000 -0.010935
# 5 -0.000420 -0.003464 0.001112 0.000000 0.023801 0.000000
# 6 0.000000 0.000000 0.000000 -0.010935 0.000000 0.027335
#
#
# Mechanical properties :
#
#
# Convention : Reuss Voigt Hill
#
# Bulk Modulus (GPa) = 82.14269 99.05831 90.60050
# Shear Modulus (GPa) = 38.79785 44.70437 41.75111
#
# Velocity S-wave (km/s) = 3.96089 4.25171 4.10887
# Velocity P-wave (km/s) = 7.35759 8.00992 7.69067
#
# Compressibility (1/GPa) = 0.01217394
#
# Stress axis : x y z
#
# Youngs Moduli (GPa) = 150.74445 132.30901 76.34979
#
# Poissons Ratio (x) = 0.29288 0.22741
# Poissons Ratio (y) = 0.33368 0.18062
# Poissons Ratio (z) = 0.44899 0.31300
#
# Static dielectric constant tensor:
#      x y z
#    x 2.010300 0.000000 -0.010180 
#    y 0.000000 1.968490 0.000000 
#    z -0.010180 0.000000 2.003540 
# 
# From -- ./inp_files/126028.got.cif
#   From: 2010.05.17/outbox.cif.g08.bks.cpg/sg15_64_cif.got.tgz:126028.got - 2010.06.03 18:47:42.
