data_PCOD9299146
_publ_section_title
;
Structure prediction by ZEFSAII (Michael W. Deem and Ramdas Pophale) SiO2 
 PCOD9299146
Probable space group: C 2/C
;
_chemical_formula_sum "Si O2"
_cell_formula_units_Z 56
_cell_length_a 8.304949
_cell_length_b 14.920090
_cell_length_c 23.526973
_cell_angle_alpha 90.000000
_cell_angle_beta 113.199680
_cell_angle_gamma 90.000000
_cell_volume 2679.507461
_symmetry_space_group_name_H-M "C 2/C"
_symmetry_group_IT_number 15
_symmetry_cell_setting 'monoclinic'
loop_
_space_group_symop_operation_xyz
x,y,z
-x,y,1/2-z
-x,-y,-z
x,-y,1/2+z
1/2+x,1/2+y,z
1/2-x,1/2+y,1/2-z
1/2-x,1/2-y,-z
1/2+x,1/2-y,1/2+z
loop_
_atom_site_type_symbol
_atom_site_label
_atom_site_fract_x
_atom_site_fract_y
_atom_site_fract_z
Si Si1 0.136674 0.667972 0.008699
Si Si2 0.057906 0.474245 0.843169
Si Si3 0.963488 0.707673 0.376184
Si Si4 0.695088 0.146590 0.790751
Si Si5 0.326024 0.442799 0.202505
Si Si6 0.299217 0.510811 0.487166
Si Si7 0.250950 0.348988 0.077083
O O1 0.095075 0.671560 0.070068
O O2 0.250000 0.750000 0.000000
O O3 0.237022 0.576134 0.012202
O O4 0.956489 0.664528 0.947556
O O5 0.155183 0.546827 0.813942
O O6 0.176672 0.481412 0.915427
O O7 0.011783 0.367157 0.834875
O O8 0.860356 0.508909 0.822399
O O9 0.813805 0.782002 0.340809
O O10 0.145878 0.757515 0.411674
O O11 0.500000 0.181939 0.750000
O O12 0.797886 0.132963 0.746205
O O13 0.500000 0.492609 0.250000
O O14 0.336807 0.403703 0.141064
O O15 0.500000 0.500000 0.500000
O O16 0.279459 0.595874 0.524133
#
# Coordination Sequence:
#
# PCOD9299146 Si02
#       7
#     8   8   8   8   8   8   8
#     4  12  25  41  68 107 144 182 235 299 357 433
#     4  11  24  46  72 100 140 186 240 295 359 432
#     4  12  25  45  72 107 139 187 241 295 360 435
#     4  10  24  47  70  98 146 190 234 296 362 425
#     4  11  23  46  71  97 138 192 232 291 361 424
#     4  12  25  44  71 101 144 190 229 297 371 427
#     4  12  24  45  70 102 146 182 238 293 364 433
#
# _framework density 20.899363000000001
#
# number of rings (size 3 to 8) (size 9 to 14) (size 15 to 20)
#    0.000    0.571    4.286    4.286    4.000    0.571 
#    7.714    0.000    0.000    0.000    0.000    0.000 
#    0.000    0.000    0.000    0.000    0.000    0.000 
#
# Total GULP energy -156165.491933 kJ/mol
# GULP energy per Si atom -5577.338998 kJ/mol
# Density = 2.085180 g / cm^3
# Si number density = 20.899363 Si / 1000 Ang^3
#
#
#
# Elastic Constant Matrix: (Units=GPa)
#
#
# Indices 1 2 3 4 5 6 
#
# 1 88.0265 29.2784 35.3671 0.0000 32.3616 0.0000
# 2 29.2784 86.9313 18.2984 0.0000 13.3158 0.0000
# 3 35.3671 18.2984 124.4714 0.0000 18.5101 0.0000
# 4 0.0000 0.0000 0.0000 19.5898 0.0000 -3.6067
# 5 32.3616 13.3158 18.5101 0.0000 38.3733 0.0000
# 6 0.0000 0.0000 0.0000 -3.6067 0.0000 38.6390
#
#
#
# Elastic Compliance Matrix: (Units=1/GPa)
#
#
# Indices 1 2 3 4 5 6 
#
# 1 0.018453 -0.003645 -0.002781 0.000000 -0.012956 0.000000
# 2 -0.003645 0.013052 -0.000718 0.000000 -0.001109 0.000000
# 3 -0.002781 -0.000718 0.009204 0.000000 -0.001846 0.000000
# 4 0.000000 0.000000 0.000000 0.051939 0.000000 0.004848
# 5 -0.012956 -0.001109 -0.001846 0.000000 0.038261 0.000000
# 6 0.000000 0.000000 0.000000 0.004848 0.000000 0.026333
#
#
# Mechanical properties :
#
#
# Convention : Reuss Voigt Hill
#
# Bulk Modulus (GPa) = 37.84858 51.70189 44.77524
# Shear Modulus (GPa) = 27.72587 33.75279 30.73933
#
# Velocity S-wave (km/s) = 3.64625 4.02308 3.83930
# Velocity P-wave (km/s) = 5.98967 6.80973 6.41282
#
# Compressibility (1/GPa) = 0.02642107
#
# Stress axis : x y z
#
# Youngs Moduli (GPa) = 54.19235 76.61669 108.64733
#
# Poissons Ratio (x) = 0.27927 0.30211
# Poissons Ratio (y) = 0.19753 0.07803
# Poissons Ratio (z) = 0.15069 0.05502
#
# Static dielectric constant tensor:
#      x y z
#    x 1.725210 0.000000 -0.036940 
#    y 0.000000 1.806490 0.000000 
#    z -0.036940 0.000000 1.738170 
# 
# From -- ./inp_files/264818.got.cif
#   From: 2010.05.17/outbox.cif.g08.bks.cpg/sg15_133_cif.got.tgz:264818.got - 2010.06.03 18:47:42.
