data_PCOD9299055
_publ_section_title
;
Structure prediction by ZEFSAII (Michael W. Deem and Ramdas Pophale) SiO2 
 PCOD9299055
Probable space group: C 2/C
;
_chemical_formula_sum "Si O2"
_cell_formula_units_Z 28
_cell_length_a 15.895099
_cell_length_b 12.198281
_cell_length_c 9.449507
_cell_angle_alpha 90.000000
_cell_angle_beta 134.053369
_cell_angle_gamma 90.000000
_cell_volume 1316.782656
_symmetry_space_group_name_H-M "C 2/C"
_symmetry_group_IT_number 15
_symmetry_cell_setting 'monoclinic'
loop_
_space_group_symop_operation_xyz
x,y,z
-x,y,1/2-z
-x,-y,-z
x,-y,1/2+z
1/2+x,1/2+y,z
1/2-x,1/2+y,1/2-z
1/2-x,1/2-y,-z
1/2+x,1/2-y,1/2+z
loop_
_atom_site_type_symbol
_atom_site_label
_atom_site_fract_x
_atom_site_fract_y
_atom_site_fract_z
Si Si1 0.584098 0.994449 0.233950
Si Si2 0.493976 0.371372 0.470584
Si Si3 0.000000 0.722273 0.750000
Si Si4 0.308407 0.355178 0.003208
O O1 0.500000 0.054249 0.250000
O O2 0.593731 0.868504 0.301303
O O3 0.708760 0.052421 0.364675
O O4 0.500000 0.000000 0.000000
O O5 0.500000 0.500000 0.500000
O O6 0.465058 0.298960 0.575928
O O7 0.619380 0.334289 0.555213
O O8 0.401500 0.373222 0.235853
O O9 0.250000 0.250000 0.000000
#
# Coordination Sequence:
#
# PCOD9299055 Si02
#       4
#     8   8   4   8
#     4  10  25  45  75 105 140 186 258 292 353 427
#     4  11  26  47  66 108 142 187 232 303 379 419
#     4  10  24  46  76 104 142 196 256 286 360 456
#     4  11  26  43  74  98 148 185 235 303 363 429
#
# _framework density 21.263949
#
# number of rings (size 3 to 8) (size 9 to 14) (size 15 to 20)
#    0.857    0.571    0.000    3.429   12.000    0.000 
#    0.000    8.571    0.000    0.000    0.000    0.000 
#    0.000    0.000    0.000    0.000    0.000    0.000 
#
# Total GULP energy -77940.996243 kJ/mol
# GULP energy per Si atom -5567.214017 kJ/mol
# Density = 2.121555 g / cm^3
# Si number density = 21.263949 Si / 1000 Ang^3
#
#
#
# Elastic Constant Matrix: (Units=GPa)
#
#
# Indices 1 2 3 4 5 6 
#
# 1 111.2626 45.5749 81.2180 0.0000 -10.7128 0.0000
# 2 45.5749 132.8533 44.3652 0.0000 0.7401 0.0000
# 3 81.2180 44.3652 119.4867 0.0000 -2.9034 0.0000
# 4 0.0000 0.0000 0.0000 28.9844 0.0000 -9.5824
# 5 -10.7128 0.7401 -2.9034 0.0000 33.5224 0.0000
# 6 0.0000 0.0000 0.0000 -9.5824 0.0000 22.5652
#
#
#
# Elastic Compliance Matrix: (Units=1/GPa)
#
#
# Indices 1 2 3 4 5 6 
#
# 1 0.019379 -0.002649 -0.012063 0.000000 0.005207 0.000000
# 2 -0.002649 0.008962 -0.001556 0.000000 -0.001179 0.000000
# 3 -0.012063 -0.001556 0.017089 0.000000 -0.002340 0.000000
# 4 0.000000 0.000000 0.000000 0.040136 0.000000 0.017044
# 5 0.005207 -0.001179 -0.002340 0.000000 0.031318 0.000000
# 6 0.000000 0.000000 0.000000 0.017044 0.000000 0.051554
#
#
# Mechanical properties :
#
#
# Convention : Reuss Voigt Hill
#
# Bulk Modulus (GPa) = 77.54283 78.43542 77.98912
# Shear Modulus (GPa) = 24.35800 29.84404 27.10102
#
# Velocity S-wave (km/s) = 3.38821 3.75040 3.57389
# Velocity P-wave (km/s) = 7.20087 7.46463 7.33394
#
# Compressibility (1/GPa) = 0.01289610
#
# Stress axis : x y z
#
# Youngs Moduli (GPa) = 51.60113 111.58404 58.51667
#
# Poissons Ratio (x) = 0.29557 0.70587
# Poissons Ratio (y) = 0.13668 0.09103
# Poissons Ratio (z) = 0.62245 0.17359
#
# Static dielectric constant tensor:
#      x y z
#    x 1.753160 0.000000 0.092050 
#    y 0.000000 1.783590 0.000000 
#    z 0.092050 0.000000 1.605370 
# 
# From -- ./inp_files/36660.got.cif
#   From: 2010.05.17/outbox.cif.g08.bks.cpg/sg15_19_cif.got.tgz:36660.got - 2010.06.03 18:47:42.
