data_PCOD9299433
_publ_section_title
;
Structure prediction by ZEFSAII (Michael W. Deem and Ramdas Pophale) SiO2 
 PCOD9299433
Probable space group: C 2/C
;
_chemical_formula_sum "Si O2"
_cell_formula_units_Z 32
_cell_length_a 10.254192
_cell_length_b 9.203192
_cell_length_c 13.304684
_cell_angle_alpha 90.000000
_cell_angle_beta 109.183294
_cell_angle_gamma 90.000000
_cell_volume 1185.860708
_symmetry_space_group_name_H-M "C 2/C"
_symmetry_group_IT_number 15
_symmetry_cell_setting 'monoclinic'
loop_
_space_group_symop_operation_xyz
x,y,z
-x,y,1/2-z
-x,-y,-z
x,-y,1/2+z
1/2+x,1/2+y,z
1/2-x,1/2+y,1/2-z
1/2-x,1/2-y,-z
1/2+x,1/2-y,1/2+z
loop_
_atom_site_type_symbol
_atom_site_label
_atom_site_fract_x
_atom_site_fract_y
_atom_site_fract_z
Si Si1 0.645508 0.926506 0.753332
Si Si2 0.969710 0.358442 0.428341
Si Si3 0.645420 0.421714 0.513530
Si Si4 0.858387 0.857017 0.651370
O O1 0.500000 0.858449 0.750000
O O2 0.605746 0.077417 0.688848
O O3 0.741807 0.954415 0.873003
O O4 0.732166 0.832923 0.695318
O O5 0.886865 0.247653 0.478334
O O6 0.000000 0.500000 0.500000
O O7 0.099993 0.267295 0.417915
O O8 0.500000 0.500000 0.500000
O O9 0.679608 0.494153 0.416377
O O10 0.000000 0.881526 0.750000
#
# Coordination Sequence:
#
# PCOD9299433 Si02
#       4
#     8   8   8   8
#     4  12  28  49  85 131 171 227 295 356 429 524
#     4  11  27  52  84 132 168 224 293 364 436 523
#     4  10  24  52  87 125 170 235 291 355 438 523
#     4  11  24  56  89 120 177 233 289 352 441 521
#
# _framework density 26.984617
#
# number of rings (size 3 to 8) (size 9 to 14) (size 15 to 20)
#    0.000    1.000    5.000    0.750    3.500    6.000 
#    0.000    1.250    0.000    1.500    0.000    0.000 
#    0.000    0.000    0.000    0.000    0.000    0.000 
#
# Total GULP energy -89812.197246 kJ/mol
# GULP energy per Si atom -5613.262328 kJ/mol
# Density = 2.692320 g / cm^3
# Si number density = 26.984617 Si / 1000 Ang^3
#
#
#
# Elastic Constant Matrix: (Units=GPa)
#
#
# Indices 1 2 3 4 5 6 
#
# 1 230.8321 62.7182 87.4626 0.0000 -18.8964 0.0000
# 2 62.7182 209.8280 85.0155 0.0000 1.7520 0.0000
# 3 87.4626 85.0155 170.5612 0.0000 7.8425 0.0000
# 4 0.0000 0.0000 0.0000 57.1580 0.0000 -0.6837
# 5 -18.8964 1.7520 7.8425 0.0000 67.0697 0.0000
# 6 0.0000 0.0000 0.0000 -0.6837 0.0000 45.9954
#
#
#
# Elastic Compliance Matrix: (Units=1/GPa)
#
#
# Indices 1 2 3 4 5 6 
#
# 1 0.005679 -0.000624 -0.002690 0.000000 0.001931 0.000000
# 2 -0.000624 0.006043 -0.002691 0.000000 -0.000019 0.000000
# 3 -0.002690 -0.002691 0.008662 0.000000 -0.001700 0.000000
# 4 0.000000 0.000000 0.000000 0.017498 0.000000 0.000260
# 5 0.001931 -0.000019 -0.001700 0.000000 0.015653 0.000000
# 6 0.000000 0.000000 0.000000 0.000260 0.000000 0.021745
#
#
# Mechanical properties :
#
#
# Convention : Reuss Voigt Hill
#
# Bulk Modulus (GPa) = 119.42033 120.17931 119.79982
# Shear Modulus (GPa) = 55.50498 59.11297 57.30898
#
# Velocity S-wave (km/s) = 4.54024 4.68548 4.61343
# Velocity P-wave (km/s) = 8.47562 8.59678 8.53641
#
# Compressibility (1/GPa) = 0.00837378
#
# Stress axis : x y z
#
# Youngs Moduli (GPa) = 176.08974 165.48557 115.44538
#
# Poissons Ratio (x) = 0.10321 0.31055
# Poissons Ratio (y) = 0.10982 0.31070
# Poissons Ratio (z) = 0.47369 0.44538
#
# Static dielectric constant tensor:
#      x y z
#    x 2.221040 0.000000 -0.029380 
#    y 0.000000 2.118210 0.000000 
#    z -0.029380 0.000000 2.157890 
# 
# From -- ./inp_files/194782.got.cif
#   From: 2010.05.17/outbox.cif.g08.bks.cpg/sg15_98_cif.got.tgz:194782.got - 2010.06.03 18:47:42.
