data_PCOD9299594
_publ_section_title
;
Structure prediction by ZEFSAII (Michael W. Deem and Ramdas Pophale) SiO2 
 PCOD9299594
Probable space group: C 2/C
;
_chemical_formula_sum "Si O2"
_cell_formula_units_Z 60
_cell_length_a 17.731331
_cell_length_b 8.534739
_cell_length_c 18.559314
_cell_angle_alpha 90.000000
_cell_angle_beta 58.890094
_cell_angle_gamma 90.000000
_cell_volume 2404.680863
_symmetry_space_group_name_H-M "C 2/C"
_symmetry_group_IT_number 15
_symmetry_cell_setting 'monoclinic'
loop_
_space_group_symop_operation_xyz
x,y,z
-x,y,1/2-z
-x,-y,-z
x,-y,1/2+z
1/2+x,1/2+y,z
1/2-x,1/2+y,1/2-z
1/2-x,1/2-y,-z
1/2+x,1/2-y,1/2+z
loop_
_atom_site_type_symbol
_atom_site_label
_atom_site_fract_x
_atom_site_fract_y
_atom_site_fract_z
Si Si1 0.893754 0.479651 0.718632
Si Si2 0.500000 0.455799 0.250000
Si Si3 0.560417 0.192182 0.110359
Si Si4 0.122867 0.044385 0.384635
Si Si5 0.158261 0.826289 0.715815
Si Si6 0.029303 0.751382 0.490807
Si Si7 0.825892 0.465093 0.588128
Si Si8 0.772206 0.295016 0.884837
O O1 0.868926 0.647310 0.762287
O O2 0.866922 0.483968 0.647937
O O3 0.840236 0.342189 0.786482
O O4 0.997287 0.443724 0.671388
O O5 0.522859 0.345743 0.170397
O O6 0.417101 0.567270 0.280510
O O7 0.539580 0.196775 0.036171
O O8 0.662855 0.182273 0.079691
O O9 0.171895 0.090244 0.287217
O O10 0.189444 0.090279 0.415802
O O11 0.033081 0.148195 0.426446
O O12 0.091748 0.869972 0.415414
O O13 0.248119 0.838382 0.628227
O O14 0.091784 0.618453 0.492917
O O15 0.771259 0.623931 0.600071
#
# Coordination Sequence:
#
# PCOD9299594 Si02
#       8
#     8   4   8   8   8   8   8   8
#     4  11  21  36  60  96 125 156 207 266 311 369
#     4  12  22  36  64  90 138 160 202 264 332 366
#     4  11  22  40  60  90 130 164 201 257 328 365
#     4  11  23  42  66  89 126 168 219 254 316 373
#     4  12  23  37  64 101 122 164 212 266 313 380
#     4  10  25  44  64  87 128 175 208 261 309 385
#     4  11  21  38  65  93 121 162 213 264 309 369
#     4  12  22  37  63  93 125 161 207 263 312 376
#
# _framework density 24.951336000000001
#
# number of rings (size 3 to 8) (size 9 to 14) (size 15 to 20)
#    0.000    0.800    6.667    0.800    3.733    1.067 
#    0.000    0.000    0.000    2.400    0.000    0.000 
#    0.000    0.000    0.000    0.000    0.000    0.000 
#
# Total GULP energy -167914.053176 kJ/mol
# GULP energy per Si atom -5597.135106 kJ/mol
# Density = 2.489455 g / cm^3
# Si number density = 24.951336 Si / 1000 Ang^3
#
#
#
# Elastic Constant Matrix: (Units=GPa)
#
#
# Indices 1 2 3 4 5 6 
#
# 1 136.1665 44.2482 20.8897 0.0000 -48.9995 0.0001
# 2 44.2482 122.7149 25.4401 0.0000 -35.0570 0.0002
# 3 20.8897 25.4401 72.0313 0.0000 -21.5061 0.0000
# 4 0.0000 0.0000 0.0000 31.0737 0.0000 -7.0775
# 5 -48.9995 -35.0570 -21.5061 0.0000 39.6946 0.0000
# 6 0.0001 0.0002 0.0000 -7.0775 0.0000 27.9420
#
#
#
# Elastic Compliance Matrix: (Units=1/GPa)
#
#
# Indices 1 2 3 4 5 6 
#
# 1 0.013311 -0.000231 0.001272 0.000000 0.016917 0.000000
# 2 -0.000231 0.010985 -0.001194 0.000000 0.008770 0.000000
# 3 0.001272 -0.001194 0.016809 0.000000 0.009622 0.000000
# 4 0.000000 0.000000 0.000000 0.034152 0.000000 0.008650
# 5 0.016917 0.008770 0.009622 0.000000 0.059034 0.000000
# 6 0.000000 0.000000 0.000000 0.008650 0.000000 0.037979
#
#
# Mechanical properties :
#
#
# Convention : Reuss Voigt Hill
#
# Bulk Modulus (GPa) = 24.51042 56.89650 40.70346
# Shear Modulus (GPa) = 26.85631 35.76436 31.31034
#
# Velocity S-wave (km/s) = 3.28433 3.79009 3.54624
# Velocity P-wave (km/s) = 4.92210 6.48117 5.75468
#
# Compressibility (1/GPa) = 0.04079898
#
# Stress axis : x y z
#
# Youngs Moduli (GPa) = 75.12341 91.03230 59.49322
#
# Poissons Ratio (x) = 0.02099 -0.07567
# Poissons Ratio (y) = 0.01732 0.07106
# Poissons Ratio (z) = -0.09555 0.10873
#
# Static dielectric constant tensor:
#      x y z
#    x 1.982300 0.000000 0.033820 
#    y 0.000000 1.968650 0.000000 
#    z 0.033820 0.000000 2.010070 
# 
# From -- ./inp_files/298368.got.cif
#   From: 2010.05.17/outbox.cif.g08.bks.cpg/sg15_150_cif.got.tgz:298368.got - 2010.06.03 18:47:42.
