data_PCOD9299549
_publ_section_title
;
Structure prediction by ZEFSAII (Michael W. Deem and Ramdas Pophale) SiO2 
 PCOD9299549
Probable space group: C 2/C
;
_chemical_formula_sum "Si O2"
_cell_formula_units_Z 56
_cell_length_a 20.928757
_cell_length_b 17.072988
_cell_length_c 14.342489
_cell_angle_alpha 90.000000
_cell_angle_beta 147.675023
_cell_angle_gamma 90.000000
_cell_volume 2740.340651
_symmetry_space_group_name_H-M "C 2/C"
_symmetry_group_IT_number 15
_symmetry_cell_setting 'monoclinic'
loop_
_space_group_symop_operation_xyz
x,y,z
-x,y,1/2-z
-x,-y,-z
x,-y,1/2+z
1/2+x,1/2+y,z
1/2-x,1/2+y,1/2-z
1/2-x,1/2-y,-z
1/2+x,1/2-y,1/2+z
loop_
_atom_site_type_symbol
_atom_site_label
_atom_site_fract_x
_atom_site_fract_y
_atom_site_fract_z
Si Si1 0.077092 0.339305 0.581265
Si Si2 0.618595 0.436029 0.348045
Si Si3 0.205460 0.517498 0.285413
Si Si4 0.872345 0.964253 0.814838
Si Si5 0.340908 0.850699 0.177289
Si Si6 0.896135 0.758440 0.199307
Si Si7 0.749245 0.313123 0.867039
O O1 0.088672 0.430497 0.624023
O O2 0.071615 0.287827 0.667096
O O3 0.191538 0.316922 0.660999
O O4 0.970438 0.330825 0.377047
O O5 0.500000 0.470239 0.250000
O O6 0.716359 0.429110 0.548411
O O7 0.663785 0.492309 0.323914
O O8 0.587005 0.351586 0.268331
O O9 0.278966 0.513702 0.280271
O O10 0.193331 0.433335 0.318316
O O11 0.865158 0.871081 0.785327
O O12 0.000000 0.000000 0.000000
O O13 0.265753 0.776740 0.122390
O O14 0.325463 0.850867 0.046480
O O15 0.000000 0.736161 0.250000
O O16 0.750000 0.750000 0.000000
#
# Coordination Sequence:
#
# PCOD9299549 Si02
#       7
#     8   8   8   8   8   8   8
#     4  11  25  44  67  93 136 172 227 279 342 413
#     4  11  22  41  64  97 136 167 224 293 341 408
#     4  11  23  42  64  97 129 173 228 268 342 411
#     4  11  23  38  66  96 126 172 214 279 342 401
#     4  11  24  44  66  93 129 178 218 279 339 410
#     4  11  26  43  70 104 140 181 228 288 356 410
#     4  10  25  43  66  97 133 166 226 280 342 405
#
# _framework density 20.435414000000002
#
# number of rings (size 3 to 8) (size 9 to 14) (size 15 to 20)
#    0.000    1.143    4.286    0.857    6.000    0.000 
#    0.000    2.857    0.000    0.000    0.000    0.000 
#    0.000    0.000    0.000    0.000    0.000    0.000 
#
# Total GULP energy -156132.474559 kJ/mol
# GULP energy per Si atom -5576.159806 kJ/mol
# Density = 2.038890 g / cm^3
# Si number density = 20.435414 Si / 1000 Ang^3
#
#
#
# Elastic Constant Matrix: (Units=GPa)
#
#
# Indices 1 2 3 4 5 6 
#
# 1 127.8402 57.5441 13.8519 0.0000 -18.7266 0.0000
# 2 57.5441 107.7257 0.1139 0.0000 -11.8675 0.0000
# 3 13.8519 0.1139 72.6833 0.0000 -8.1416 0.0000
# 4 0.0000 0.0000 0.0000 31.7130 0.0000 -5.3516
# 5 -18.7266 -11.8675 -8.1416 0.0000 22.5425 0.0000
# 6 0.0000 0.0000 0.0000 -5.3516 0.0000 20.3658
#
#
#
# Elastic Compliance Matrix: (Units=1/GPa)
#
#
# Indices 1 2 3 4 5 6 
#
# 1 0.011274 -0.005358 -0.001466 0.000000 0.006015 0.000000
# 2 -0.005358 0.012425 0.001288 0.000000 0.002555 0.000000
# 3 -0.001466 0.001288 0.014564 0.000000 0.004720 0.000000
# 4 0.000000 0.000000 0.000000 0.032996 0.000000 0.008671
# 5 0.006015 0.002555 0.004720 0.000000 0.052408 0.000000
# 6 0.000000 0.000000 0.000000 0.008671 0.000000 0.051380
#
#
# Mechanical properties :
#
#
# Convention : Reuss Voigt Hill
#
# Bulk Modulus (GPa) = 36.77756 50.14101 43.45929
# Shear Modulus (GPa) = 25.61678 30.70687 28.16183
#
# Velocity S-wave (km/s) = 3.54439 3.88058 3.71629
# Velocity P-wave (km/s) = 5.89799 6.68342 6.30295
#
# Compressibility (1/GPa) = 0.02719049
#
# Stress axis : x y z
#
# Youngs Moduli (GPa) = 88.69856 80.48205 68.66020
#
# Poissons Ratio (x) = 0.43123 0.10068
# Poissons Ratio (y) = 0.47526 -0.08843
# Poissons Ratio (z) = 0.13007 -0.10365
#
# Static dielectric constant tensor:
#      x y z
#    x 1.814460 0.000000 0.141900 
#    y 0.000000 1.725250 0.000000 
#    z 0.141900 0.000000 1.906990 
# 
# From -- ./inp_files/169176.got.cif
#   From: 2010.05.17/outbox.cif.g08.bks.cpg/sg15_85_cif.got.tgz:169176.got - 2010.06.03 18:47:42.
