data_PCOD9299888
_publ_section_title
;
Structure prediction by ZEFSAII (Michael W. Deem and Ramdas Pophale) SiO2 
 PCOD9299888
Probable space group: C 2/C
;
_chemical_formula_sum "Si O2"
_cell_formula_units_Z 52
_cell_length_a 5.091414
_cell_length_b 20.433034
_cell_length_c 21.286911
_cell_angle_alpha 90.000000
_cell_angle_beta 117.677945
_cell_angle_gamma 90.000000
_cell_volume 1961.137449
_symmetry_space_group_name_H-M "C 2/C"
_symmetry_group_IT_number 15
_symmetry_cell_setting 'monoclinic'
loop_
_space_group_symop_operation_xyz
x,y,z
-x,y,1/2-z
-x,-y,-z
x,-y,1/2+z
1/2+x,1/2+y,z
1/2-x,1/2+y,1/2-z
1/2-x,1/2-y,-z
1/2+x,1/2-y,1/2+z
loop_
_atom_site_type_symbol
_atom_site_label
_atom_site_fract_x
_atom_site_fract_y
_atom_site_fract_z
Si Si1 0.302864 0.004734 0.891053
Si Si2 0.500000 0.121871 0.750000
Si Si3 0.081476 0.932901 0.555955
Si Si4 0.000000 0.214945 0.750000
Si Si5 0.428116 0.391584 0.398508
Si Si6 0.900445 0.750297 0.447732
Si Si7 0.500000 0.424062 0.750000
Si Si8 0.507229 0.170575 0.344159
O O1 0.631620 0.980335 0.913072
O O2 0.193371 0.966602 0.941000
O O3 0.082808 0.972988 0.815298
O O4 0.220694 0.080849 0.894247
O O5 0.256408 0.168229 0.754250
O O6 0.336501 0.082988 0.676121
O O7 0.204076 0.870460 0.606435
O O8 0.989890 0.912797 0.476386
O O9 0.911625 0.264060 0.684246
O O10 0.349737 0.315790 0.401236
O O11 0.750000 0.750000 0.500000
O O12 0.853686 0.690925 0.393390
O O13 0.250000 0.750000 0.500000
O O14 0.220508 0.374549 0.720207
#
# Coordination Sequence:
#
# PCOD9299888 Si02
#       8
#     8   4   8   4   8   8   4   8
#     4  11  27  50  76 115 142 203 253 315 383 444
#     4  12  31  44  71 108 157 205 240 308 396 456
#     4  11  26  47  80 108 145 198 257 315 375 445
#     4  12  26  47  67 112 154 196 254 304 384 468
#     4  12  28  51  77 110 160 196 254 319 378 464
#     4  12  29  46  75 114 153 202 254 314 388 453
#     4  10  25  47  80 106 153 195 258 320 380 462
#     4  11  24  47  77 109 152 197 259 316 380 455
#
# _framework density 26.515225999999998
#
# number of rings (size 3 to 8) (size 9 to 14) (size 15 to 20)
#    0.000    0.615    3.077    2.308    6.462    9.846 
#    0.000    0.000    0.000    0.000    0.000    0.000 
#    0.000    0.000    0.000    0.000    0.000    0.000 
#
# Total GULP energy -145699.368512 kJ/mol
# GULP energy per Si atom -5603.821866 kJ/mol
# Density = 2.645488 g / cm^3
# Si number density = 26.515226 Si / 1000 Ang^3
#
#
#
# Elastic Constant Matrix: (Units=GPa)
#
#
# Indices 1 2 3 4 5 6 
#
# 1 159.7112 50.7413 32.3565 0.0000 -9.4957 0.0000
# 2 50.7413 96.6631 27.7855 0.0000 -3.0548 0.0000
# 3 32.3565 27.7855 172.6002 0.0000 10.7002 0.0000
# 4 0.0000 0.0000 0.0000 28.5887 0.0000 -27.9720
# 5 -9.4957 -3.0548 10.7002 0.0000 40.1321 0.0000
# 6 0.0000 0.0000 0.0000 -27.9720 0.0000 25.5394
#
#
#
# Elastic Compliance Matrix: (Units=1/GPa)
#
#
# Indices 1 2 3 4 5 6 
#
# 1 0.007750 -0.003734 -0.000964 0.000000 0.001807 0.000000
# 2 -0.003734 0.012715 -0.001375 0.000000 0.000451 0.000000
# 3 -0.000964 -0.001375 0.006321 0.000000 -0.002018 0.000000
# 4 0.000000 0.000000 0.000000 -0.488391 0.000000 -0.534908
# 5 0.001807 0.000451 -0.002018 0.000000 0.025918 0.000000
# 6 0.000000 0.000000 0.000000 -0.534908 0.000000 -0.546701
#
#
# Mechanical properties :
#
#
# Convention : Reuss Voigt Hill
#
# Bulk Modulus (GPa) = 68.30395 72.30456 70.30426
# Shear Modulus (GPa) = -5.17940 40.05812 17.43936
#
# Velocity S-wave (km/s) = -1.39915 3.89107 2.56737
# Velocity P-wave (km/s) = 4.81727 6.89315 5.94649
#
# Compressibility (1/GPa) = 0.01464044
#
# Stress axis : x y z
#
# Youngs Moduli (GPa) = 129.02614 78.64817 158.20726
#
# Poissons Ratio (x) = 0.29369 0.15248
# Poissons Ratio (y) = 0.48182 0.21750
# Poissons Ratio (z) = 0.12435 0.10812
#
# Static dielectric constant tensor:
#      x y z
#    x 2.025860 0.000000 -0.070140 
#    y 0.000000 2.163260 0.000000 
#    z -0.070140 0.000000 2.048330 
# 
# From -- ./inp_files/228237.got.cif
#   From: 2010.05.17/outbox.cif.g08.bks.cpg/sg15_115_cif.got.tgz:228237.got - 2010.06.03 18:47:42.
