data_PCOD9299478
_publ_section_title
;
Structure prediction by ZEFSAII (Michael W. Deem and Ramdas Pophale) SiO2 
 PCOD9299478
Probable space group: C 2/C
;
_chemical_formula_sum "Si O2"
_cell_formula_units_Z 60
_cell_length_a 8.715238
_cell_length_b 16.714526
_cell_length_c 23.590340
_cell_angle_alpha 90.000000
_cell_angle_beta 62.353598
_cell_angle_gamma 90.000000
_cell_volume 3044.086296
_symmetry_space_group_name_H-M "C 2/C"
_symmetry_group_IT_number 15
_symmetry_cell_setting 'monoclinic'
loop_
_space_group_symop_operation_xyz
x,y,z
-x,y,1/2-z
-x,-y,-z
x,-y,1/2+z
1/2+x,1/2+y,z
1/2-x,1/2+y,1/2-z
1/2-x,1/2-y,-z
1/2+x,1/2-y,1/2+z
loop_
_atom_site_type_symbol
_atom_site_label
_atom_site_fract_x
_atom_site_fract_y
_atom_site_fract_z
Si Si1 0.633131 0.136798 0.141883
Si Si2 0.260534 0.968018 0.077192
Si Si3 0.434000 0.539587 0.705751
Si Si4 0.247684 0.879144 0.755485
Si Si5 0.860409 0.209125 0.931570
Si Si6 0.761696 0.140442 0.635749
Si Si7 0.358059 0.013797 0.938384
Si Si8 0.500000 0.244670 0.750000
O O1 0.747843 0.122048 0.177280
O O2 0.437715 0.124537 0.196692
O O3 0.646759 0.226666 0.117419
O O4 0.672439 0.071446 0.086956
O O5 0.227941 0.874479 0.069650
O O6 0.438730 0.978819 0.080741
O O7 0.267937 0.013001 0.015531
O O8 0.096595 0.992507 0.142226
O O9 0.500000 0.587261 0.750000
O O10 0.330911 0.464286 0.747145
O O11 0.319844 0.589744 0.681343
O O12 0.141075 0.803485 0.752845
O O13 0.063402 0.190064 0.910029
O O14 0.750000 0.250000 0.000000
O O15 0.600194 0.192718 0.685428
O O16 0.706466 0.082042 0.593850
#
# Coordination Sequence:
#
# PCOD9299478 Si02
#       8
#     8   8   8   8   8   8   8   4
#     4  11  23  42  69  94 129 177 222 267 337 399
#     4  10  25  41  69  95 136 174 219 284 329 394
#     4  11  23  42  67  98 129 174 224 268 334 394
#     4  11  24  41  65  96 130 176 215 275 328 401
#     4  11  23  46  66  94 131 175 219 271 337 396
#     4  11  27  41  68 101 131 176 220 283 328 399
#     4  11  23  45  67  98 131 172 231 273 333 391
#     4  12  26  42  62 102 144 160 224 278 338 388
#
# _framework density 19.710346999999999
#
# number of rings (size 3 to 8) (size 9 to 14) (size 15 to 20)
#    0.000    1.067    4.667    0.800    5.600    4.267 
#    0.000    0.667    0.000    0.000    0.000    0.000 
#    0.000    0.000    0.000    0.000    0.000    0.000 
#
# Total GULP energy -167587.339327 kJ/mol
# GULP energy per Si atom -5586.244644 kJ/mol
# Density = 1.966549 g / cm^3
# Si number density = 19.710347 Si / 1000 Ang^3
#
#
#
# Elastic Constant Matrix: (Units=GPa)
#
#
# Indices 1 2 3 4 5 6 
#
# 1 54.0545 11.8132 18.3213 0.0000 24.6113 0.0000
# 2 11.8132 67.6430 15.9985 0.0000 6.5901 0.0000
# 3 18.3213 15.9985 73.3063 0.0000 13.3049 0.0000
# 4 0.0000 0.0000 0.0000 28.4578 0.0000 18.1443
# 5 24.6113 6.5901 13.3049 0.0000 34.1427 0.0000
# 6 0.0000 0.0000 0.0000 18.1443 0.0000 -0.4586
#
#
#
# Elastic Compliance Matrix: (Units=1/GPa)
#
#
# Indices 1 2 3 4 5 6 
#
# 1 0.028779 -0.002412 -0.003213 0.000000 -0.019028 0.000000
# 2 -0.002412 0.015895 -0.002825 0.000000 -0.000228 0.000000
# 3 -0.003213 -0.002825 0.015648 0.000000 -0.003237 0.000000
# 4 0.000000 0.000000 0.000000 0.001340 0.000000 0.053012
# 5 -0.019028 -0.000228 -0.003237 0.000000 0.044310 0.000000
# 6 0.000000 0.000000 0.000000 0.053012 0.000000 -0.083146
#
#
# Mechanical properties :
#
#
# Convention : Reuss Voigt Hill
#
# Bulk Modulus (GPa) = 23.02917 31.91886 27.47402
# Shear Modulus (GPa) = 92.24893 22.35310 57.30102
#
# Velocity S-wave (km/s) = 6.84864 3.37126 5.39765
# Velocity P-wave (km/s) = 8.61671 5.60205 7.26742
#
# Compressibility (1/GPa) = 0.04342318
#
# Stress axis : x y z
#
# Youngs Moduli (GPa) = 34.74704 62.91248 63.90478
#
# Poissons Ratio (x) = 0.15177 0.20532
# Poissons Ratio (y) = 0.08382 0.18050
# Poissons Ratio (z) = 0.11164 0.17770
#
# Static dielectric constant tensor:
#      x y z
#    x 1.686370 0.000000 0.018690 
#    y 0.000000 1.676100 0.000000 
#    z 0.018690 0.000000 1.678070 
# 
# From -- ./inp_files/233057.got.cif
#   From: 2010.05.17/outbox.cif.g08.bks.cpg/sg15_117_cif.got.tgz:233057.got - 2010.06.03 18:47:42.
