data_PCOD9299523
_publ_section_title
;
Structure prediction by ZEFSAII (Michael W. Deem and Ramdas Pophale) SiO2 
 PCOD9299523
Probable space group: C 2/C
;
_chemical_formula_sum "Si O2"
_cell_formula_units_Z 40
_cell_length_a 16.151195
_cell_length_b 4.869593
_cell_length_c 20.731881
_cell_angle_alpha 90.000000
_cell_angle_beta 99.101454
_cell_angle_gamma 90.000000
_cell_volume 1610.028124
_symmetry_space_group_name_H-M "C 2/C"
_symmetry_group_IT_number 15
_symmetry_cell_setting 'monoclinic'
loop_
_space_group_symop_operation_xyz
x,y,z
-x,y,1/2-z
-x,-y,-z
x,-y,1/2+z
1/2+x,1/2+y,z
1/2-x,1/2+y,1/2-z
1/2-x,1/2-y,-z
1/2+x,1/2-y,1/2+z
loop_
_atom_site_type_symbol
_atom_site_label
_atom_site_fract_x
_atom_site_fract_y
_atom_site_fract_z
Si Si1 0.168615 0.787724 0.896208
Si Si2 0.986982 0.530036 0.173818
Si Si3 0.416032 0.491644 0.863457
Si Si4 0.262944 0.862305 0.791251
Si Si5 0.181925 0.046907 0.023658
O O1 0.203100 0.968747 0.841528
O O2 0.255595 0.662313 0.933032
O O3 0.105109 0.572408 0.857638
O O4 0.133221 0.922038 0.956618
O O5 0.012153 0.776520 0.129367
O O6 0.000000 0.618383 0.250000
O O7 0.045520 0.264405 0.169675
O O8 0.341439 0.675491 0.822687
O O9 0.381688 0.374264 0.927350
O O10 0.213157 0.634016 0.744091
O O11 0.250000 0.250000 0.000000
#
# Coordination Sequence:
#
# PCOD9299523 Si02
#       5
#     8   8   8   8   8
#     4  10  25  42  70  97 137 183 226 291 341 405
#     4  12  26  46  68 105 144 178 225 285 358 420
#     4  11  26  43  69 100 139 183 226 286 350 411
#     4  11  23  41  68  98 131 181 235 279 338 412
#     4  10  25  46  71  97 136 182 244 284 333 408
#
# _framework density 24.844287999999999
#
# number of rings (size 3 to 8) (size 9 to 14) (size 15 to 20)
#    0.000    1.200    0.000    4.200   16.800    1.600 
#    0.000    0.000    0.000    0.000    0.000    0.000 
#    0.000    0.000    0.000    0.000    0.000    0.000 
#
# Total GULP energy -111726.285912 kJ/mol
# GULP energy per Si atom -5586.314296 kJ/mol
# Density = 2.478774 g / cm^3
# Si number density = 24.844288 Si / 1000 Ang^3
#
#
#
# Elastic Constant Matrix: (Units=GPa)
#
#
# Indices 1 2 3 4 5 6 
#
# 1 84.5258 19.8659 46.8428 0.0000 -1.4393 0.0000
# 2 19.8659 78.5712 17.8481 0.0000 1.6404 0.0000
# 3 46.8428 17.8481 104.3228 0.0000 -8.5969 0.0000
# 4 0.0000 0.0000 0.0000 20.9571 0.0000 -2.9625
# 5 -1.4393 1.6404 -8.5969 0.0000 42.9060 0.0000
# 6 0.0000 0.0000 0.0000 -2.9625 0.0000 26.8187
#
#
#
# Elastic Compliance Matrix: (Units=1/GPa)
#
#
# Indices 1 2 3 4 5 6 
#
# 1 0.016249 -0.002519 -0.006926 0.000000 -0.000746 0.000000
# 2 -0.002519 0.013673 -0.001279 0.000000 -0.000864 0.000000
# 3 -0.006926 -0.001279 0.013116 0.000000 0.002445 0.000000
# 4 0.000000 0.000000 0.000000 0.048473 0.000000 0.005355
# 5 -0.000746 -0.000864 0.002445 0.000000 0.023805 0.000000
# 6 0.000000 0.000000 0.000000 0.005355 0.000000 0.037879
#
#
# Mechanical properties :
#
#
# Convention : Reuss Voigt Hill
#
# Bulk Modulus (GPa) = 46.32266 48.50372 47.41319
# Shear Modulus (GPa) = 27.49669 30.32723 28.91196
#
# Velocity S-wave (km/s) = 3.33041 3.49763 3.41504
# Velocity P-wave (km/s) = 5.78572 5.98972 5.88860
#
# Compressibility (1/GPa) = 0.02158771
#
# Stress axis : x y z
#
# Youngs Moduli (GPa) = 61.54375 73.13742 76.24273
#
# Poissons Ratio (x) = 0.18426 0.52809
# Poissons Ratio (y) = 0.15505 0.09753
# Poissons Ratio (z) = 0.42628 0.09356
#
# Static dielectric constant tensor:
#      x y z
#    x 2.044250 0.000000 -0.007900 
#    y 0.000000 2.010840 0.000000 
#    z -0.007900 0.000000 2.173140 
# 
# From -- ./inp_files/208058.got.cif
#   From: 2010.05.17/outbox.cif.g08.bks.cpg/sg15_105_cif.got.tgz:208058.got - 2010.06.03 18:47:42.
