data_PCOD9299696
_publ_section_title
;
Structure prediction by ZEFSAII (Michael W. Deem and Ramdas Pophale) SiO2 
 PCOD9299696
Probable space group: C 2/C
;
_chemical_formula_sum "Si O2"
_cell_formula_units_Z 48
_cell_length_a 14.485306
_cell_length_b 23.953248
_cell_length_c 15.673562
_cell_angle_alpha 90.000000
_cell_angle_beta 158.186423
_cell_angle_gamma 90.000000
_cell_volume 2020.790480
_symmetry_space_group_name_H-M "C 2/C"
_symmetry_group_IT_number 15
_symmetry_cell_setting 'monoclinic'
loop_
_space_group_symop_operation_xyz
x,y,z
-x,y,1/2-z
-x,-y,-z
x,-y,1/2+z
1/2+x,1/2+y,z
1/2-x,1/2+y,1/2-z
1/2-x,1/2-y,-z
1/2+x,1/2-y,1/2+z
loop_
_atom_site_type_symbol
_atom_site_label
_atom_site_fract_x
_atom_site_fract_y
_atom_site_fract_z
Si Si1 0.620799 0.016526 0.443533
Si Si2 0.341887 0.444384 0.858755
Si Si3 0.641318 0.770224 0.497063
Si Si4 0.670363 0.395581 0.262794
Si Si5 0.376385 0.100773 0.484583
Si Si6 0.858715 0.769820 0.216845
O O1 0.500000 0.033167 0.250000
O O2 0.648161 0.949792 0.469664
O O3 0.420351 0.030474 0.343617
O O4 0.828604 0.054822 0.666508
O O5 0.342733 0.413938 0.769902
O O6 0.500000 0.500000 0.000000
O O7 0.413260 0.400870 0.992322
O O8 0.750000 0.750000 0.500000
O O9 0.350258 0.750029 0.246066
O O10 0.642071 0.837233 0.497242
O O11 0.696643 0.335885 0.328177
O O12 0.873494 0.400564 0.359830
O O13 0.000000 0.754018 0.250000
O O14 0.079743 0.756899 0.475698
#
# Coordination Sequence:
#
# PCOD9299696 Si02
#       6
#     8   8   8   8   8   8
#     4  11  25  40  67 105 139 176 233 297 371 426
#     4  11  21  44  66  99 140 183 231 289 359 436
#     4  10  25  47  70 101 143 190 246 299 344 415
#     4  11  24  43  69  99 139 180 234 293 352 436
#     4  11  24  44  69  98 142 191 231 294 359 427
#     4  10  25  45  68  98 135 180 229 290 354 418
#
# _framework density 23.753081999999999
#
# number of rings (size 3 to 8) (size 9 to 14) (size 15 to 20)
#    0.000    1.333    3.333    1.000   11.667    2.000 
#    3.000    0.000    0.000    0.000    0.000    0.000 
#    0.000    0.000    0.000    0.000    0.000    0.000 
#
# Total GULP energy -133769.388526 kJ/mol
# GULP energy per Si atom -5573.724522 kJ/mol
# Density = 2.369902 g / cm^3
# Si number density = 23.753082 Si / 1000 Ang^3
#
#
#
# Elastic Constant Matrix: (Units=GPa)
#
#
# Indices 1 2 3 4 5 6 
#
# 1 63.0248 15.9923 19.0147 0.0005 -1.3737 0.0006
# 2 15.9923 147.5294 18.8175 -0.0006 -18.9724 0.0001
# 3 19.0147 18.8175 121.4943 -0.0023 -17.5693 0.0004
# 4 0.0005 -0.0006 -0.0023 34.7990 -0.0003 -8.8941
# 5 -1.3737 -18.9724 -17.5693 -0.0003 38.2111 0.0003
# 6 0.0006 0.0001 0.0004 -8.8941 0.0003 36.6530
#
#
#
# Elastic Compliance Matrix: (Units=1/GPa)
#
#
# Indices 1 2 3 4 5 6 
#
# 1 0.017055 -0.001700 -0.002613 -0.000001 -0.001432 0.000000
# 2 -0.001700 0.007457 -0.000388 0.000000 0.003463 0.000000
# 3 -0.002613 -0.000388 0.009275 0.000001 0.003978 0.000000
# 4 -0.000001 0.000000 0.000001 0.030637 0.000001 0.007434
# 5 -0.001432 0.003463 0.003978 0.000001 0.029667 0.000000
# 6 0.000000 0.000000 0.000000 0.007434 0.000000 0.029087
#
#
# Mechanical properties :
#
#
# Convention : Reuss Voigt Hill
#
# Bulk Modulus (GPa) = 41.00747 48.85525 44.93136
# Shear Modulus (GPa) = 35.53422 40.48087 38.00754
#
# Velocity S-wave (km/s) = 3.87199 4.13272 4.00448
# Velocity P-wave (km/s) = 6.10666 6.58674 6.35124
#
# Compressibility (1/GPa) = 0.02438580
#
# Stress axis : x y z
#
# Youngs Moduli (GPa) = 58.63304 134.09431 107.81435
#
# Poissons Ratio (x) = 0.22792 0.28173
# Poissons Ratio (y) = 0.09966 0.04186
# Poissons Ratio (z) = 0.15322 0.05206
#
# Static dielectric constant tensor:
#      x y z
#    x 1.885290 0.000000 0.063210 
#    y 0.000000 2.359220 -0.000020 
#    z 0.063210 -0.000020 1.991740 
# 
# From -- ./inp_files/212053.got.cif
#   From: 2010.05.17/outbox.cif.g08.bks.cpg/sg15_107_cif.got.tgz:212053.got - 2010.06.03 18:47:42.
