data_PCOD9299971
_publ_section_title
;
Structure prediction by ZEFSAII (Michael W. Deem and Ramdas Pophale) SiO2 
 PCOD9299971
Probable space group: C 2/C
;
_chemical_formula_sum "Si O2"
_cell_formula_units_Z 28
_cell_length_a 17.023096
_cell_length_b 7.846398
_cell_length_c 18.847553
_cell_angle_alpha 90.000000
_cell_angle_beta 22.376115
_cell_angle_gamma 90.000000
_cell_volume 958.361890
_symmetry_space_group_name_H-M "C 2/C"
_symmetry_group_IT_number 15
_symmetry_cell_setting 'monoclinic'
loop_
_space_group_symop_operation_xyz
x,y,z
-x,y,1/2-z
-x,-y,-z
x,-y,1/2+z
1/2+x,1/2+y,z
1/2-x,1/2+y,1/2-z
1/2-x,1/2-y,-z
1/2+x,1/2-y,1/2+z
loop_
_atom_site_type_symbol
_atom_site_label
_atom_site_fract_x
_atom_site_fract_y
_atom_site_fract_z
Si Si1 0.105203 0.438015 0.508234
Si Si2 0.556786 0.439132 0.374286
Si Si3 0.834401 0.611101 0.838615
Si Si4 0.500000 0.467447 0.750000
O O1 0.987758 0.259057 0.596770
O O2 0.311256 0.402819 0.384751
O O3 0.932700 0.569874 0.680891
O O4 0.218176 0.485969 0.340370
O O5 0.500000 0.500000 0.500000
O O6 0.391979 0.535559 0.459385
O O7 0.840979 0.806222 0.855659
O O8 0.000000 0.519736 0.750000
#
# Coordination Sequence:
#
# PCOD9299971 Si02
#       4
#     8   8   8   4
#     4  12  25  51  77 108 157 197 252 321 371 456
#     4  12  29  49  74 113 153 208 254 307 383 450
#     4  10  25  50  76 116 147 195 255 310 383 448
#     4  10  26  46  80 118 146 196 254 316 380 444
#
# _framework density 29.216522000000001
#
# number of rings (size 3 to 8) (size 9 to 14) (size 15 to 20)
#    0.857    0.000    2.857    2.571    6.000    5.714 
#    0.000    0.000    0.000    0.000    0.000    0.000 
#    0.000    0.000    0.000    0.000    0.000    0.000 
#
# Total GULP energy -78180.753472 kJ/mol
# GULP energy per Si atom -5584.339534 kJ/mol
# Density = 2.915002 g / cm^3
# Si number density = 29.216522 Si / 1000 Ang^3
#
#
#
# Elastic Constant Matrix: (Units=GPa)
#
#
# Indices 1 2 3 4 5 6 
#
# 1 91.0674 7.8753 6.8855 -0.0024 -8.8339 0.0009
# 2 7.8753 110.0904 11.5619 -0.0031 -3.8135 0.0013
# 3 6.8855 11.5619 214.0885 -0.0067 -21.5993 0.0038
# 4 -0.0024 -0.0031 -0.0067 51.3746 0.0029 2.6937
# 5 -8.8339 -3.8135 -21.5993 0.0029 54.4339 -0.0007
# 6 0.0009 0.0013 0.0038 2.6937 -0.0007 53.4113
#
#
#
# Elastic Compliance Matrix: (Units=1/GPa)
#
#
# Indices 1 2 3 4 5 6 
#
# 1 0.011221 -0.000728 -0.000149 0.000000 0.001711 0.000000
# 2 -0.000728 0.009194 -0.000438 0.000000 0.000352 0.000000
# 3 -0.000149 -0.000438 0.004890 0.000001 0.001885 0.000000
# 4 0.000000 0.000000 0.000001 0.019516 -0.000001 -0.000984
# 5 0.001711 0.000352 0.001885 -0.000001 0.019421 0.000000
# 6 0.000000 0.000000 0.000000 -0.000984 0.000000 0.018772
#
#
# Mechanical properties :
#
#
# Convention : Reuss Voigt Hill
#
# Bulk Modulus (GPa) = 44.10010 51.98798 48.04404
# Shear Modulus (GPa) = 53.64714 57.77219 55.70967
#
# Velocity S-wave (km/s) = 4.28973 4.45160 4.37141
# Velocity P-wave (km/s) = 6.29783 6.65244 6.47756
#
# Compressibility (1/GPa) = 0.02267569
#
# Stress axis : x y z
#
# Youngs Moduli (GPa) = 89.11830 108.77052 204.51569
#
# Poissons Ratio (x) = 0.07916 0.03047
# Poissons Ratio (y) = 0.06486 0.08949
# Poissons Ratio (z) = 0.01328 0.04759
#
# Static dielectric constant tensor:
#      x y z
#    x 2.572360 0.000000 -0.169510 
#    y 0.000000 2.145230 0.000000 
#    z -0.169510 0.000000 2.060980 
# 
# From -- ./inp_files/208834.got.cif
#   From: 2010.05.17/outbox.cif.g08.bks.cpg/sg15_105_cif.got.tgz:208834.got - 2010.06.03 18:47:42.
