data_PCOD9299892
_publ_section_title
;
Structure prediction by ZEFSAII (Michael W. Deem and Ramdas Pophale) SiO2 
 PCOD9299892
Probable space group: C 2/C
;
_chemical_formula_sum "Si O2"
_cell_formula_units_Z 24
_cell_length_a 6.568452
_cell_length_b 18.859777
_cell_length_c 8.593315
_cell_angle_alpha 90.000000
_cell_angle_beta 107.407519
_cell_angle_gamma 90.000000
_cell_volume 1015.781311
_symmetry_space_group_name_H-M "C 2/C"
_symmetry_group_IT_number 15
_symmetry_cell_setting 'monoclinic'
loop_
_space_group_symop_operation_xyz
x,y,z
-x,y,1/2-z
-x,-y,-z
x,-y,1/2+z
1/2+x,1/2+y,z
1/2-x,1/2+y,1/2-z
1/2-x,1/2-y,-z
1/2+x,1/2-y,1/2+z
loop_
_atom_site_type_symbol
_atom_site_label
_atom_site_fract_x
_atom_site_fract_y
_atom_site_fract_z
Si Si1 0.500000 0.058717 0.750000
Si Si2 0.857612 0.048406 0.354610
Si Si3 0.603513 0.845048 0.018007
Si Si4 0.000000 0.767914 0.250000
O O1 0.308503 0.007721 0.754899
O O2 0.547629 0.107354 0.909561
O O3 0.726618 0.893488 0.920432
O O4 0.000000 0.080156 0.250000
O O5 0.000000 0.000000 0.500000
O O6 0.788691 0.813905 0.172391
O O7 0.488278 0.782587 0.898517
#
# Coordination Sequence:
#
# PCOD9299892 Si02
#       4
#     4   8   8   4
#     4  12  25  44  74 104 137 174 230 290 348 402
#     4  12  25  44  71 106 138 174 224 289 352 404
#     4  11  24  46  69 101 137 182 230 279 339 409
#     4  10  25  48  64  96 141 186 236 268 330 414
#
# _framework density 23.627133000000001
#
# number of rings (size 3 to 8) (size 9 to 14) (size 15 to 20)
#    0.000    0.667    3.333    4.000    4.667    1.333 
#   12.000    0.000    0.000    0.000    0.000    0.000 
#    0.000    0.000    0.000    0.000    0.000    0.000 
#
# Total GULP energy -67235.351774 kJ/mol
# GULP energy per Si atom -5602.945981 kJ/mol
# Density = 2.357336 g / cm^3
# Si number density = 23.627133 Si / 1000 Ang^3
#
#
#
# Elastic Constant Matrix: (Units=GPa)
#
#
# Indices 1 2 3 4 5 6 
#
# 1 59.7139 25.1193 31.0942 0.0000 -35.5576 0.0000
# 2 25.1193 90.9239 32.3034 0.0000 -11.7312 0.0000
# 3 31.0942 32.3034 88.3118 0.0000 -1.1329 0.0000
# 4 0.0000 0.0000 0.0000 58.8261 0.0000 -3.6893
# 5 -35.5576 -11.7312 -1.1329 0.0000 57.8416 0.0000
# 6 0.0000 0.0000 0.0000 -3.6893 0.0000 12.7870
#
#
#
# Elastic Compliance Matrix: (Units=1/GPa)
#
#
# Indices 1 2 3 4 5 6 
#
# 1 0.037346 -0.003334 -0.011647 0.000000 0.022054 0.000000
# 2 -0.003334 0.013303 -0.003685 0.000000 0.000576 0.000000
# 3 -0.011647 -0.003685 0.016675 0.000000 -0.007580 0.000000
# 4 0.000000 0.000000 0.000000 0.017313 0.000000 0.004995
# 5 0.022054 0.000576 -0.007580 0.000000 0.030814 0.000000
# 6 0.000000 0.000000 0.000000 0.004995 0.000000 0.079646
#
#
# Mechanical properties :
#
#
# Convention : Reuss Voigt Hill
#
# Bulk Modulus (GPa) = 33.34189 46.22038 39.78113
# Shear Modulus (GPa) = 20.62493 35.91979 28.27236
#
# Velocity S-wave (km/s) = 2.95775 3.90330 3.46295
# Velocity P-wave (km/s) = 5.08003 6.31817 5.73262
#
# Compressibility (1/GPa) = 0.02999230
#
# Stress axis : x y z
#
# Youngs Moduli (GPa) = 26.77658 75.17239 59.97055
#
# Poissons Ratio (x) = 0.25064 0.69847
# Poissons Ratio (y) = 0.08928 0.22097
# Poissons Ratio (z) = 0.31186 0.27698
#
# Static dielectric constant tensor:
#      x y z
#    x 1.851660 0.000000 0.029850 
#    y 0.000000 1.858150 0.000000 
#    z 0.029850 0.000000 1.898090 
# 
# From -- ./inp_files/21243.got.cif
#   From: 2010.05.17/outbox.cif.g08.bks.cpg/sg15_11_cif.got.tgz:21243.got - 2010.06.03 18:47:42.
