data_PCOD9299046
_publ_section_title
;
Structure prediction by ZEFSAII (Michael W. Deem and Ramdas Pophale) SiO2 
 PCOD9299046
Probable space group: C 2/C
;
_chemical_formula_sum "Si O2"
_cell_formula_units_Z 40
_cell_length_a 11.118559
_cell_length_b 16.666201
_cell_length_c 14.860245
_cell_angle_alpha 90.000000
_cell_angle_beta 36.912007
_cell_angle_gamma 90.000000
_cell_volume 1653.817536
_symmetry_space_group_name_H-M "C 2/C"
_symmetry_group_IT_number 15
_symmetry_cell_setting 'monoclinic'
loop_
_space_group_symop_operation_xyz
x,y,z
-x,y,1/2-z
-x,-y,-z
x,-y,1/2+z
1/2+x,1/2+y,z
1/2-x,1/2+y,1/2-z
1/2-x,1/2-y,-z
1/2+x,1/2-y,1/2+z
loop_
_atom_site_type_symbol
_atom_site_label
_atom_site_fract_x
_atom_site_fract_y
_atom_site_fract_z
Si Si1 0.775803 0.222215 0.865896
Si Si2 0.863452 0.193255 0.618676
Si Si3 0.888965 0.413088 0.910638
Si Si4 0.274054 0.119327 0.153279
Si Si5 0.827415 0.923894 0.977483
O O1 0.797510 0.172720 0.759544
O O2 0.000000 0.250550 0.750000
O O3 0.601763 0.288960 0.961861
O O4 0.718424 0.163383 0.980971
O O5 0.779677 0.284188 0.660335
O O6 0.792485 0.128925 0.587770
O O7 0.000000 0.406005 0.750000
O O8 0.060507 0.424122 0.884480
O O9 0.731101 0.483353 0.985934
O O10 0.299248 0.107320 0.031891
O O11 0.058903 0.087473 0.312913
#
# Coordination Sequence:
#
# PCOD9299046 Si02
#       5
#     8   8   8   8   8
#     4  11  26  45  78 110 154 197 258 312 377 445
#     4  11  23  47  76 115 144 200 255 315 373 450
#     4  11  28  49  73 111 152 205 250 308 379 462
#     4  10  24  46  75 112 153 191 261 306 377 451
#     4  11  24  46  77 107 159 195 246 315 386 441
#
# _framework density 24.186464000000001
#
# number of rings (size 3 to 8) (size 9 to 14) (size 15 to 20)
#    0.000    1.200    2.000    1.800    5.600    8.800 
#    3.600    0.000    0.000    0.000    0.000    0.000 
#    0.000    0.000    0.000    0.000    0.000    0.000 
#
# Total GULP energy -111878.028506 kJ/mol
# GULP energy per Si atom -5593.901425 kJ/mol
# Density = 2.413141 g / cm^3
# Si number density = 24.186464 Si / 1000 Ang^3
#
#
#
# Elastic Constant Matrix: (Units=GPa)
#
#
# Indices 1 2 3 4 5 6 
#
# 1 149.8795 38.8644 59.5849 -0.0003 11.9768 -0.0014
# 2 38.8644 109.0904 23.1904 -0.0023 -8.1510 0.0005
# 3 59.5849 23.1904 100.2931 -0.0087 13.3206 0.0005
# 4 -0.0003 -0.0023 -0.0087 17.8924 0.0031 -4.6400
# 5 11.9768 -8.1510 13.3206 0.0031 57.3918 -0.0005
# 6 -0.0014 0.0005 0.0005 -4.6400 -0.0005 89.4729
#
#
#
# Elastic Compliance Matrix: (Units=1/GPa)
#
#
# Indices 1 2 3 4 5 6 
#
# 1 0.009296 -0.002374 -0.004820 -0.000002 -0.001158 0.000000
# 2 -0.002374 0.010462 -0.001312 0.000000 0.002286 0.000000
# 3 -0.004820 -0.001312 0.013444 0.000007 -0.002301 0.000000
# 4 -0.000002 0.000000 0.000007 0.056652 -0.000004 0.002938
# 5 -0.001158 0.002286 -0.002301 -0.000004 0.018524 0.000000
# 6 0.000000 0.000000 0.000000 0.002938 0.000000 0.011329
#
#
# Mechanical properties :
#
#
# Convention : Reuss Voigt Hill
#
# Bulk Modulus (GPa) = 61.77002 66.94917 64.35959
# Shear Modulus (GPa) = 35.18229 48.79296 41.98763
#
# Velocity S-wave (km/s) = 3.81810 4.49638 4.17105
# Velocity P-wave (km/s) = 6.71056 7.39575 7.06147
#
# Compressibility (1/GPa) = 0.01618908
#
# Stress axis : x y z
#
# Youngs Moduli (GPa) = 107.56767 95.58234 74.38457
#
# Poissons Ratio (x) = 0.22689 0.35856
# Poissons Ratio (y) = 0.25534 0.09763
# Poissons Ratio (z) = 0.51852 0.12545
#
# Static dielectric constant tensor:
#      x y z
#    x 1.990570 0.000000 0.011060 
#    y 0.000000 1.952900 0.000000 
#    z 0.011060 0.000000 1.918150 
# 
# From -- ./inp_files/145381.got.cif
#   From: 2010.05.17/outbox.cif.g08.bks.cpg/sg15_73_cif.got.tgz:145381.got - 2010.06.03 18:47:42.
