data_PCOD9299361
_publ_section_title
;
Structure prediction by ZEFSAII (Michael W. Deem and Ramdas Pophale) SiO2 
 PCOD9299361
Probable space group: C 2/C
;
_chemical_formula_sum "Si O2"
_cell_formula_units_Z 44
_cell_length_a 8.953718
_cell_length_b 23.117500
_cell_length_c 10.027847
_cell_angle_alpha 90.000000
_cell_angle_beta 60.883695
_cell_angle_gamma 90.000000
_cell_volume 1813.349011
_symmetry_space_group_name_H-M "C 2/C"
_symmetry_group_IT_number 15
_symmetry_cell_setting 'monoclinic'
loop_
_space_group_symop_operation_xyz
x,y,z
-x,y,1/2-z
-x,-y,-z
x,-y,1/2+z
1/2+x,1/2+y,z
1/2-x,1/2+y,1/2-z
1/2-x,1/2-y,-z
1/2+x,1/2-y,1/2+z
loop_
_atom_site_type_symbol
_atom_site_label
_atom_site_fract_x
_atom_site_fract_y
_atom_site_fract_z
Si Si1 0.991558 0.364437 0.893495
Si Si2 0.377263 0.776495 0.171822
Si Si3 0.820557 0.905803 0.900337
Si Si4 0.500000 0.416521 0.250000
Si Si5 0.450433 0.321553 0.056001
Si Si6 0.680161 0.021947 0.980057
O O1 0.000000 0.331619 0.750000
O O2 0.175447 0.388221 0.858988
O O3 0.921021 0.328291 0.049815
O O4 0.873017 0.420806 0.918292
O O5 0.500000 0.777561 0.250000
O O6 0.183520 0.783251 0.303392
O O7 0.411361 0.718212 0.075021
O O8 0.000000 0.915768 0.750000
O O9 0.762600 0.963785 0.003576
O O10 0.841155 0.852238 0.988852
O O11 0.516774 0.373483 0.117921
O O12 0.671064 0.455084 0.183572
O O13 0.500000 0.000000 0.000000
#
# Coordination Sequence:
#
# PCOD9299361 Si02
#       6
#     8   8   8   4   8   8
#     4  11  26  47  76 113 154 200 266 329 405 476
#     4  12  26  51  74 111 152 215 265 328 397 479
#     4  11  25  45  76 110 154 209 262 323 404 487
#     4  12  26  48  72 120 150 206 264 330 402 474
#     4  12  29  45  78 108 160 208 272 328 397 484
#     4  10  24  49  74 111 158 203 256 332 402 479
#
# _framework density 24.264496999999999
#
# number of rings (size 3 to 8) (size 9 to 14) (size 15 to 20)
#    0.000    0.727    4.545    1.091    6.364    4.364 
#    0.000    0.000    0.000    0.000    0.000    0.000 
#    0.000    0.000    0.000    0.000    0.000    0.000 
#
# Total GULP energy -123121.201644 kJ/mol
# GULP energy per Si atom -5596.418257 kJ/mol
# Density = 2.420927 g / cm^3
# Si number density = 24.264497 Si / 1000 Ang^3
#
#
#
# Elastic Constant Matrix: (Units=GPa)
#
#
# Indices 1 2 3 4 5 6 
#
# 1 90.0649 35.5536 61.4156 0.0000 -20.2908 0.0000
# 2 35.5536 126.0883 56.3266 0.0000 -15.1514 0.0000
# 3 61.4156 56.3266 125.3232 0.0000 -13.2229 0.0000
# 4 0.0000 0.0000 0.0000 -20.7448 0.0000 -28.1730
# 5 -20.2908 -15.1514 -13.2229 0.0000 44.9712 0.0000
# 6 0.0000 0.0000 0.0000 -28.1730 0.0000 30.4244
#
#
#
# Elastic Compliance Matrix: (Units=1/GPa)
#
#
# Indices 1 2 3 4 5 6 
#
# 1 0.018072 -0.000920 -0.007859 0.000000 0.005533 0.000000
# 2 -0.000920 0.010166 -0.003922 0.000000 0.001857 0.000000
# 3 -0.007859 -0.003922 0.013499 0.000000 -0.000898 0.000000
# 4 0.000000 0.000000 0.000000 -0.021352 0.000000 -0.019772
# 5 0.005533 0.001857 -0.000898 0.000000 0.025094 0.000000
# 6 0.000000 0.000000 0.000000 -0.019772 0.000000 0.014559
#
#
# Mechanical properties :
#
#
# Convention : Reuss Voigt Hill
#
# Bulk Modulus (GPa) = 61.22253 72.00756 66.61505
# Shear Modulus (GPa) = 55.01503 23.47554 39.24528
#
# Velocity S-wave (km/s) = 4.76679 3.11382 4.02605
# Velocity P-wave (km/s) = 7.45536 6.53210 7.00895
#
# Compressibility (1/GPa) = 0.01633386
#
# Stress axis : x y z
#
# Youngs Moduli (GPa) = 55.33444 98.37095 74.08114
#
# Poissons Ratio (x) = 0.09052 0.58220
# Poissons Ratio (y) = 0.05092 0.29056
# Poissons Ratio (z) = 0.43487 0.38582
#
# Static dielectric constant tensor:
#      x y z
#    x 1.945880 0.000000 0.042380 
#    y 0.000000 1.925590 0.000000 
#    z 0.042380 0.000000 2.044190 
# 
# From -- ./inp_files/79697.got.cif
#   From: 2010.05.17/outbox.cif.g08.bks.cpg/sg15_40_cif.got.tgz:79697.got - 2010.06.03 18:47:42.
