data_PCOD9299424
_publ_section_title
;
Structure prediction by ZEFSAII (Michael W. Deem and Ramdas Pophale) SiO2 
 PCOD9299424
Probable space group: C 2/C
;
_chemical_formula_sum "Si O2"
_cell_formula_units_Z 48
_cell_length_a 22.091517
_cell_length_b 7.629951
_cell_length_c 17.466006
_cell_angle_alpha 90.000000
_cell_angle_beta 39.893356
_cell_angle_gamma 90.000000
_cell_volume 1888.179228
_symmetry_space_group_name_H-M "C 2/C"
_symmetry_group_IT_number 15
_symmetry_cell_setting 'monoclinic'
loop_
_space_group_symop_operation_xyz
x,y,z
-x,y,1/2-z
-x,-y,-z
x,-y,1/2+z
1/2+x,1/2+y,z
1/2-x,1/2+y,1/2-z
1/2-x,1/2-y,-z
1/2+x,1/2-y,1/2+z
loop_
_atom_site_type_symbol
_atom_site_label
_atom_site_fract_x
_atom_site_fract_y
_atom_site_fract_z
Si Si1 0.148333 0.327272 0.079111
Si Si2 0.882951 0.306367 0.963851
Si Si3 0.063072 0.576189 0.370792
Si Si4 0.900413 0.059044 0.485412
Si Si5 0.228562 0.835298 0.790436
Si Si6 0.402967 0.303988 0.718283
O O1 0.139936 0.538497 0.074406
O O2 0.118932 0.251066 0.026459
O O3 0.092096 0.208278 0.195386
O O4 0.250000 0.250000 0.000000
O O5 0.990869 0.320191 0.887513
O O6 0.877658 0.100036 0.947221
O O7 0.819085 0.309205 0.104578
O O8 0.160378 0.661392 0.302908
O O9 0.090613 0.403785 0.299445
O O10 0.000000 0.500000 0.500000
O O11 0.011349 0.078477 0.397606
O O12 0.825335 0.006858 0.622758
O O13 0.190279 0.838894 0.741124
#
# Coordination Sequence:
#
# PCOD9299424 Si02
#       6
#     8   8   8   8   8   8
#     4  12  27  48  78 111 159 207 264 328 405 475
#     4  10  26  50  75 112 156 206 266 321 398 484
#     4  12  24  46  80 113 153 202 265 330 394 472
#     4  10  24  51  73 111 158 205 267 319 401 475
#     4  10  26  48  79 116 156 211 267 333 397 484
#     4  12  25  47  78 116 155 209 261 336 399 474
#
# _framework density 25.421315
#
# number of rings (size 3 to 8) (size 9 to 14) (size 15 to 20)
#    1.000    0.000    3.333    2.000    2.333    4.667 
#    6.000    0.000    0.000    0.000    0.000    0.000 
#    0.000    0.000    0.000    0.000    0.000    0.000 
#
# Total GULP energy -133668.151661 kJ/mol
# GULP energy per Si atom -5569.506319 kJ/mol
# Density = 2.536346 g / cm^3
# Si number density = 25.421315 Si / 1000 Ang^3
#
#
#
# Elastic Constant Matrix: (Units=GPa)
#
#
# Indices 1 2 3 4 5 6 
#
# 1 136.3225 27.7384 70.4777 0.0072 -41.8047 -0.0064
# 2 27.7384 110.3398 6.2417 0.0172 -3.2643 -0.0178
# 3 70.4777 6.2417 84.4759 0.0047 -25.9742 -0.0063
# 4 0.0072 0.0172 0.0047 38.2560 -0.0056 2.2015
# 5 -41.8047 -3.2643 -25.9742 -0.0056 51.1252 0.0052
# 6 -0.0064 -0.0178 -0.0063 2.2015 0.0052 51.2740
#
#
#
# Elastic Compliance Matrix: (Units=1/GPa)
#
#
# Indices 1 2 3 4 5 6 
#
# 1 0.015684 -0.003128 -0.010633 0.000001 0.007223 -0.000001
# 2 -0.003128 0.009728 0.001535 -0.000004 -0.001156 0.000003
# 3 -0.010633 0.001535 0.021276 -0.000001 0.002212 0.000002
# 4 0.000001 -0.000004 -0.000001 0.026204 0.000003 -0.001125
# 5 0.007223 -0.001156 0.002212 0.000003 0.026516 -0.000002
# 6 -0.000001 0.000003 0.000002 -0.001125 -0.000002 0.019551
#
#
# Mechanical properties :
#
#
# Convention : Reuss Voigt Hill
#
# Bulk Modulus (GPa) = 44.97142 60.00598 52.48870
# Shear Modulus (GPa) = 33.15112 43.24306 38.19709
#
# Velocity S-wave (km/s) = 3.61511 4.12886 3.88049
# Velocity P-wave (km/s) = 5.92909 6.81071 6.38514
#
# Compressibility (1/GPa) = 0.02223634
#
# Stress axis : x y z
#
# Youngs Moduli (GPa) = 63.75796 102.79459 47.00155
#
# Poissons Ratio (x) = 0.32151 0.49978
# Poissons Ratio (y) = 0.19942 -0.07215
# Poissons Ratio (z) = 0.67796 -0.15779
#
# Static dielectric constant tensor:
#      x y z
#    x 1.758460 0.000000 -0.215880 
#    y 0.000000 2.067510 0.000000 
#    z -0.215880 0.000000 2.024150 
# 
# From -- ./inp_files/213720.got.cif
#   From: 2010.05.17/outbox.cif.g08.bks.cpg/sg15_107_cif.got.tgz:213720.got - 2010.06.03 18:47:42.
