data_PCOD9299306
_publ_section_title
;
Structure prediction by ZEFSAII (Michael W. Deem and Ramdas Pophale) SiO2 
 PCOD9299306
Probable space group: C 2/C
;
_chemical_formula_sum "Si O2"
_cell_formula_units_Z 40
_cell_length_a 8.315778
_cell_length_b 29.385283
_cell_length_c 8.432362
_cell_angle_alpha 90.000000
_cell_angle_beta 112.365473
_cell_angle_gamma 90.000000
_cell_volume 1905.541114
_symmetry_space_group_name_H-M "C 2/C"
_symmetry_group_IT_number 15
_symmetry_cell_setting 'monoclinic'
loop_
_space_group_symop_operation_xyz
x,y,z
-x,y,1/2-z
-x,-y,-z
x,-y,1/2+z
1/2+x,1/2+y,z
1/2-x,1/2+y,1/2-z
1/2-x,1/2-y,-z
1/2+x,1/2-y,1/2+z
loop_
_atom_site_type_symbol
_atom_site_label
_atom_site_fract_x
_atom_site_fract_y
_atom_site_fract_z
Si Si1 0.000000 0.756521 0.750000
Si Si2 0.500000 0.625119 0.750000
Si Si3 0.292797 0.472774 0.672510
Si Si4 0.303489 0.687909 0.923422
Si Si5 0.710624 0.064844 0.487142
Si Si6 0.901702 0.605864 0.545186
O O1 0.169126 0.724313 0.800076
O O2 0.953088 0.787386 0.580788
O O3 0.381928 0.656445 0.816939
O O4 0.379717 0.593540 0.596446
O O5 0.500000 0.479139 0.750000
O O6 0.204030 0.520411 0.596759
O O7 0.237920 0.434529 0.524734
O O8 0.230595 0.454229 0.818455
O O9 0.193650 0.654302 0.996959
O O10 0.545655 0.095995 0.465805
O O11 0.000000 0.603847 0.750000
#
# Coordination Sequence:
#
# PCOD9299306 Si02
#       6
#     4   4   8   8   8   8
#     4  10  24  48  75  98 136 170 223 284 368 412
#     4  12  24  42  71 104 140 178 233 278 342 406
#     4  12  26  43  68 100 139 191 238 284 333 398
#     4  11  24  46  73 104 133 181 218 293 345 423
#     4  12  25  43  66 102 143 190 234 284 331 399
#     4  12  24  45  68  99 142 182 232 283 339 405
#
# _framework density 20.991413000000001
#
# number of rings (size 3 to 8) (size 9 to 14) (size 15 to 20)
#    0.000    0.400    4.000    4.200    4.200    0.800 
#    0.000    0.000    0.000    0.000    0.000    0.000 
#    0.000    0.000    0.000    0.000    0.000    0.000 
#
# Total GULP energy -111952.786722 kJ/mol
# GULP energy per Si atom -5597.639336 kJ/mol
# Density = 2.094364 g / cm^3
# Si number density = 20.991413 Si / 1000 Ang^3
#
#
#
# Elastic Constant Matrix: (Units=GPa)
#
#
# Indices 1 2 3 4 5 6 
#
# 1 86.8442 26.9793 28.6675 0.0000 -8.0501 0.0000
# 2 26.9793 119.2511 55.9141 0.0000 -0.9719 0.0000
# 3 28.6675 55.9141 107.4938 0.0000 3.8929 0.0000
# 4 0.0000 0.0000 0.0000 98.7593 0.0000 10.6134
# 5 -8.0501 -0.9719 3.8929 0.0000 36.7379 0.0000
# 6 0.0000 0.0000 0.0000 10.6134 0.0000 31.2606
#
#
#
# Elastic Compliance Matrix: (Units=1/GPa)
#
#
# Indices 1 2 3 4 5 6 
#
# 1 0.013242 -0.001668 -0.002778 0.000000 0.003152 0.000000
# 2 -0.001668 0.011331 -0.005468 0.000000 0.000514 0.000000
# 3 -0.002778 -0.005468 0.012965 0.000000 -0.002127 0.000000
# 4 0.000000 0.000000 0.000000 0.010509 0.000000 -0.003568
# 5 0.003152 0.000514 -0.002127 0.000000 0.028150 0.000000
# 6 0.000000 0.000000 0.000000 -0.003568 0.000000 0.033201
#
#
# Mechanical properties :
#
#
# Convention : Reuss Voigt Hill
#
# Bulk Modulus (GPa) = 56.46276 59.63457 58.04866
# Shear Modulus (GPa) = 37.00195 46.82009 41.91102
#
# Velocity S-wave (km/s) = 4.20303 4.72788 4.47316
# Velocity P-wave (km/s) = 7.10706 7.63377 7.37512
#
# Compressibility (1/GPa) = 0.01771079
#
# Stress axis : x y z
#
# Youngs Moduli (GPa) = 75.51596 88.25489 77.13093
#
# Poissons Ratio (x) = 0.14717 0.21430
# Poissons Ratio (y) = 0.12593 0.42173
# Poissons Ratio (z) = 0.20981 0.48256
#
# Static dielectric constant tensor:
#      x y z
#    x 1.761800 0.000000 0.016490 
#    y 0.000000 1.735590 0.000000 
#    z 0.016490 0.000000 1.756520 
# 
# From -- ./inp_files/25418.got.cif
#   From: 2010.05.17/outbox.cif.g08.bks.cpg/sg15_13_cif.got.tgz:25418.got - 2010.06.03 18:47:42.
