data_PCOD9299268
_publ_section_title
;
Structure prediction by ZEFSAII (Michael W. Deem and Ramdas Pophale) SiO2 
 PCOD9299268
Probable space group: C 2/C
;
_chemical_formula_sum "Si O2"
_cell_formula_units_Z 40
_cell_length_a 14.713215
_cell_length_b 27.456932
_cell_length_c 9.145972
_cell_angle_alpha 90.000000
_cell_angle_beta 33.216143
_cell_angle_gamma 90.000000
_cell_volume 2024.000705
_symmetry_space_group_name_H-M "C 2/C"
_symmetry_group_IT_number 15
_symmetry_cell_setting 'monoclinic'
loop_
_space_group_symop_operation_xyz
x,y,z
-x,y,1/2-z
-x,-y,-z
x,-y,1/2+z
1/2+x,1/2+y,z
1/2-x,1/2+y,1/2-z
1/2-x,1/2-y,-z
1/2+x,1/2-y,1/2+z
loop_
_atom_site_type_symbol
_atom_site_label
_atom_site_fract_x
_atom_site_fract_y
_atom_site_fract_z
Si Si1 0.693593 0.099658 0.999958
Si Si2 0.294738 0.184597 0.299202
Si Si3 0.120827 0.993553 0.199517
Si Si4 0.690589 0.398301 0.485835
Si Si5 0.500000 0.750173 0.750000
Si Si6 0.500000 0.851911 0.250000
O O1 0.729443 0.042705 0.976432
O O2 0.766690 0.109753 0.741509
O O3 0.500000 0.108167 0.250000
O O4 0.752056 0.134537 0.052952
O O5 0.401392 0.216057 0.270491
O O6 0.129809 0.215556 0.491795
O O7 0.404762 0.175808 0.008224
O O8 0.000000 0.966581 0.250000
O O9 0.000000 0.000000 0.500000
O O10 0.173755 0.044939 0.058586
O O11 0.844848 0.379056 0.376353
O O12 0.500000 0.378623 0.750000
#
# Coordination Sequence:
#
# PCOD9299268 Si02
#       6
#     8   8   8   8   4   4
#     4  12  24  43  66  96 138 177 227 280 332 397
#     4  11  25  45  71 101 130 173 220 278 344 413
#     4  11  24  41  62  96 137 185 232 269 327 388
#     4  11  25  44  64  99 144 183 226 278 322 395
#     4  10  24  48  71  96 134 168 213 282 350 410
#     4  12  26  44  71 108 132 174 233 266 342 404
#
# _framework density 19.762839
#
# number of rings (size 3 to 8) (size 9 to 14) (size 15 to 20)
#    0.000    0.800    7.000    0.000    8.400    1.600 
#    0.000    0.000    0.000    0.000    0.000    0.000 
#    0.000    0.000    0.000    0.000    0.000    0.000 
#
# Total GULP energy -111460.004846 kJ/mol
# GULP energy per Si atom -5573.000242 kJ/mol
# Density = 1.971786 g / cm^3
# Si number density = 19.762839 Si / 1000 Ang^3
#
#
#
# Elastic Constant Matrix: (Units=GPa)
#
#
# Indices 1 2 3 4 5 6 
#
# 1 54.0853 10.0423 31.7446 0.0000 3.6807 0.0000
# 2 10.0423 73.8799 50.1545 0.0000 4.5391 0.0000
# 3 31.7446 50.1545 160.5119 0.0000 17.8132 0.0000
# 4 0.0000 0.0000 0.0000 50.2447 0.0000 -33.4705
# 5 3.6807 4.5391 17.8132 0.0000 48.0194 0.0000
# 6 0.0000 0.0000 0.0000 -33.4705 0.0000 18.2765
#
#
#
# Elastic Compliance Matrix: (Units=1/GPa)
#
#
# Indices 1 2 3 4 5 6 
#
# 1 0.020918 -0.000046 -0.004115 0.000000 -0.000073 0.000000
# 2 -0.000046 0.017187 -0.005404 0.000000 0.000384 0.000000
# 3 -0.004115 -0.005404 0.009012 0.000000 -0.002517 0.000000
# 4 0.000000 0.000000 0.000000 -0.090488 0.000000 -0.165715
# 5 -0.000073 0.000384 -0.002517 0.000000 0.021728 0.000000
# 6 0.000000 0.000000 0.000000 -0.165715 0.000000 -0.248766
#
#
# Mechanical properties :
#
#
# Convention : Reuss Voigt Hill
#
# Bulk Modulus (GPa) = 35.72958 52.48445 44.10702
# Shear Modulus (GPa) = -20.66515 36.41049 7.87267
#
# Velocity S-wave (km/s) = -3.23717 4.29694 1.99805
# Velocity P-wave (km/s) = 2.03619 7.15773 5.26209
#
# Compressibility (1/GPa) = 0.02798801
#
# Stress axis : x y z
#
# Youngs Moduli (GPa) = 47.80633 58.18501 110.96776
#
# Poissons Ratio (x) = 0.00265 0.45659
# Poissons Ratio (y) = 0.00218 0.59964
# Poissons Ratio (z) = 0.19671 0.31442
#
# Static dielectric constant tensor:
#      x y z
#    x 1.683030 0.000000 -0.036570 
#    y 0.000000 1.687410 0.000000 
#    z -0.036570 0.000000 1.657990 
# 
# From -- ./inp_files/25402.got.cif
#   From: 2010.05.17/outbox.cif.g08.bks.cpg/sg15_13_cif.got.tgz:25402.got - 2010.06.03 18:47:42.
