data_PCOD9299145
_publ_section_title
;
Structure prediction by ZEFSAII (Michael W. Deem and Ramdas Pophale) SiO2 
 PCOD9299145
Probable space group: C 2/C
;
_chemical_formula_sum "Si O2"
_cell_formula_units_Z 32
_cell_length_a 23.381652
_cell_length_b 7.399614
_cell_length_c 15.817323
_cell_angle_alpha 90.000000
_cell_angle_beta 155.422315
_cell_angle_gamma 90.000000
_cell_volume 1138.240355
_symmetry_space_group_name_H-M "C 2/C"
_symmetry_group_IT_number 15
_symmetry_cell_setting 'monoclinic'
loop_
_space_group_symop_operation_xyz
x,y,z
-x,y,1/2-z
-x,-y,-z
x,-y,1/2+z
1/2+x,1/2+y,z
1/2-x,1/2+y,1/2-z
1/2-x,1/2-y,-z
1/2+x,1/2-y,1/2+z
loop_
_atom_site_type_symbol
_atom_site_label
_atom_site_fract_x
_atom_site_fract_y
_atom_site_fract_z
Si Si1 0.539410 0.799643 0.713930
Si Si2 0.810775 0.031453 0.124346
Si Si3 0.618856 0.938797 0.595713
Si Si4 0.821286 0.837269 0.455952
O O1 0.500000 0.715345 0.750000
O O2 0.596069 0.642159 0.730417
O O3 0.404701 0.904781 0.504787
O O4 0.662659 0.944548 0.896528
O O5 0.789472 0.177324 0.168950
O O6 0.868120 0.124814 0.115248
O O7 0.756410 0.980193 0.831645
O O8 0.500000 0.000000 0.500000
O O9 0.604147 0.755966 0.523581
#
# Coordination Sequence:
#
# PCOD9299145 Si02
#       4
#     8   8   8   8
#     4  11  23  44  70  99 134 183 225 286 345 410
#     4  10  24  47  70  98 136 181 237 277 342 419
#     4  12  27  44  68 102 143 179 230 289 352 398
#     4  11  26  45  68 102 140 182 233 286 337 428
#
# _framework density 28.113568000000001
#
# number of rings (size 3 to 8) (size 9 to 14) (size 15 to 20)
#    0.000    1.000    5.000    0.000    7.000    3.000 
#    0.000    0.000    0.000    0.000    0.000    0.000 
#    0.000    0.000    0.000    0.000    0.000    0.000 
#
# Total GULP energy -89493.165415 kJ/mol
# GULP energy per Si atom -5593.322838 kJ/mol
# Density = 2.804958 g / cm^3
# Si number density = 28.113568 Si / 1000 Ang^3
#
#
#
# Elastic Constant Matrix: (Units=GPa)
#
#
# Indices 1 2 3 4 5 6 
#
# 1 145.0677 20.6129 -0.4775 0.0000 -8.6607 0.0000
# 2 20.6129 100.0174 16.4346 0.0000 8.6799 0.0000
# 3 -0.4775 16.4346 85.0327 0.0000 -18.1590 0.0000
# 4 0.0000 0.0000 0.0000 41.0427 0.0000 0.3465
# 5 -8.6607 8.6799 -18.1590 0.0000 25.3171 0.0000
# 6 0.0000 0.0000 0.0000 0.3465 0.0000 69.5138
#
#
#
# Elastic Compliance Matrix: (Units=1/GPa)
#
#
# Indices 1 2 3 4 5 6 
#
# 1 0.007455 -0.002130 0.001363 0.000000 0.004258 0.000000
# 2 -0.002130 0.011731 -0.003889 0.000000 -0.007540 0.000000
# 3 0.001363 -0.003889 0.015238 0.000000 0.012729 0.000000
# 4 0.000000 0.000000 0.000000 0.024366 0.000000 -0.000121
# 5 0.004258 -0.007540 0.012729 0.000000 0.052671 0.000000
# 6 0.000000 0.000000 0.000000 -0.000121 0.000000 0.014386
#
#
# Mechanical properties :
#
#
# Convention : Reuss Voigt Hill
#
# Bulk Modulus (GPa) = 39.82421 44.80643 42.31532
# Shear Modulus (GPa) = 34.83616 46.74458 40.79037
#
# Velocity S-wave (km/s) = 3.52394 4.08205 3.81322
# Velocity P-wave (km/s) = 5.54560 6.17979 5.87127
#
# Compressibility (1/GPa) = 0.02511035
#
# Stress axis : x y z
#
# Youngs Moduli (GPa) = 134.14478 85.24682 65.62576
#
# Poissons Ratio (x) = 0.18156 -0.08943
# Poissons Ratio (y) = 0.28570 0.25524
# Poissons Ratio (z) = -0.18281 0.33156
#
# Static dielectric constant tensor:
#      x y z
#    x 2.407520 0.000000 -0.079590 
#    y 0.000000 2.122790 0.000000 
#    z -0.079590 0.000000 2.394280 
# 
# From -- ./inp_files/93451.got.cif
#   From: 2010.05.17/outbox.cif.g08.bks.cpg/sg15_47_cif.got.tgz:93451.got - 2010.06.03 18:47:42.
