data_PCOD9299286
_publ_section_title
;
Structure prediction by ZEFSAII (Michael W. Deem and Ramdas Pophale) SiO2 
 PCOD9299286
Probable space group: C 2/C
;
_chemical_formula_sum "Si O2"
_cell_formula_units_Z 44
_cell_length_a 12.130163
_cell_length_b 7.389039
_cell_length_c 18.692315
_cell_angle_alpha 90.000000
_cell_angle_beta 100.550292
_cell_angle_gamma 90.000000
_cell_volume 1647.073515
_symmetry_space_group_name_H-M "C 2/C"
_symmetry_group_IT_number 15
_symmetry_cell_setting 'monoclinic'
loop_
_space_group_symop_operation_xyz
x,y,z
-x,y,1/2-z
-x,-y,-z
x,-y,1/2+z
1/2+x,1/2+y,z
1/2-x,1/2+y,1/2-z
1/2-x,1/2-y,-z
1/2+x,1/2-y,1/2+z
loop_
_atom_site_type_symbol
_atom_site_label
_atom_site_fract_x
_atom_site_fract_y
_atom_site_fract_z
Si Si1 0.423072 0.592509 0.631813
Si Si2 0.830962 0.934632 0.854116
Si Si3 0.727156 0.967044 0.198922
Si Si4 0.816781 0.421939 0.037679
Si Si5 0.250000 0.250000 0.000000
Si Si6 0.991580 0.519239 0.170730
O O1 0.542317 0.502858 0.631755
O O2 0.338979 0.476706 0.670680
O O3 0.357595 0.649665 0.553668
O O4 0.432466 0.786120 0.673084
O O5 0.758973 0.039460 0.786045
O O6 0.816117 0.729864 0.828670
O O7 0.770181 0.952853 0.924107
O O8 0.617892 0.081386 0.167557
O O9 0.835736 0.577477 0.982247
O O10 0.923469 0.406758 0.102718
O O11 0.750000 0.250000 0.000000
O O12 0.000000 0.428854 0.250000
#
# Coordination Sequence:
#
# PCOD9299286 Si02
#       6
#     8   8   8   8   4   8
#     4  11  25  45  71 107 146 194 244 314 379 452
#     4  12  25  45  74 107 149 194 248 315 377 451
#     4  12  24  45  73 107 148 190 248 317 372 450
#     4  11  26  48  74 113 150 202 257 307 381 463
#     4  10  24  48  72  98 156 194 246 312 370 448
#     4  11  22  47  71 102 151 191 247 315 367 438
#
# _framework density 26.714047000000001
#
# number of rings (size 3 to 8) (size 9 to 14) (size 15 to 20)
#    0.000    0.727    5.455    2.727    2.545    6.545 
#    0.000    3.636    0.000    0.000    0.000    0.000 
#    0.000    0.000    0.000    0.000    0.000    0.000 
#
# Total GULP energy -122756.204288 kJ/mol
# GULP energy per Si atom -5579.827468 kJ/mol
# Density = 2.665324 g / cm^3
# Si number density = 26.714047 Si / 1000 Ang^3
#
#
#
# Elastic Constant Matrix: (Units=GPa)
#
#
# Indices 1 2 3 4 5 6 
#
# 1 141.7747 1.4876 49.1679 0.0000 34.6952 0.0000
# 2 1.4876 92.9322 39.8615 0.0000 12.9181 0.0000
# 3 49.1679 39.8615 202.4613 0.0000 41.6025 0.0000
# 4 0.0000 0.0000 0.0000 47.8721 0.0000 11.9563
# 5 34.6952 12.9181 41.6025 0.0000 54.8972 0.0000
# 6 0.0000 0.0000 0.0000 11.9563 0.0000 32.6661
#
#
#
# Elastic Compliance Matrix: (Units=1/GPa)
#
#
# Indices 1 2 3 4 5 6 
#
# 1 0.008663 0.001096 -0.001352 0.000000 -0.004708 0.000000
# 2 0.001096 0.011959 -0.002250 0.000000 -0.001801 0.000000
# 3 -0.001352 -0.002250 0.006427 0.000000 -0.003487 0.000000
# 4 0.000000 0.000000 0.000000 0.022991 0.000000 -0.008415
# 5 -0.004708 -0.001801 -0.003487 0.000000 0.024258 0.000000
# 6 0.000000 0.000000 0.000000 -0.008415 0.000000 0.033693
#
#
# Mechanical properties :
#
#
# Convention : Reuss Voigt Hill
#
# Bulk Modulus (GPa) = 45.38198 68.68911 57.03554
# Shear Modulus (GPa) = 41.54601 50.19715 45.87158
#
# Velocity S-wave (km/s) = 3.94790 4.33951 4.14833
# Velocity P-wave (km/s) = 6.14867 7.13281 6.65895
#
# Compressibility (1/GPa) = 0.02203518
#
# Stress axis : x y z
#
# Youngs Moduli (GPa) = 115.43251 83.62138 155.59169
#
# Poissons Ratio (x) = -0.09163 0.21038
# Poissons Ratio (y) = -0.12649 0.35016
# Poissons Ratio (z) = 0.15608 0.18819
#
# Static dielectric constant tensor:
#      x y z
#    x 2.091740 0.000000 0.176080 
#    y 0.000000 1.737850 0.000000 
#    z 0.176080 0.000000 1.793140 
# 
# From -- ./inp_files/299792.got.cif
#   From: 2010.05.17/outbox.cif.g08.bks.cpg/sg15_150_cif.got.tgz:299792.got - 2010.06.03 18:47:42.
