data_PCOD9299893
_publ_section_title
;
Structure prediction by ZEFSAII (Michael W. Deem and Ramdas Pophale) SiO2 
 PCOD9299893
Probable space group: C 2/C
;
_chemical_formula_sum "Si O2"
_cell_formula_units_Z 52
_cell_length_a 16.610960
_cell_length_b 10.985081
_cell_length_c 17.190549
_cell_angle_alpha 90.000000
_cell_angle_beta 54.114092
_cell_angle_gamma 90.000000
_cell_volume 2541.396273
_symmetry_space_group_name_H-M "C 2/C"
_symmetry_group_IT_number 15
_symmetry_cell_setting 'monoclinic'
loop_
_space_group_symop_operation_xyz
x,y,z
-x,y,1/2-z
-x,-y,-z
x,-y,1/2+z
1/2+x,1/2+y,z
1/2-x,1/2+y,1/2-z
1/2-x,1/2-y,-z
1/2+x,1/2-y,1/2+z
loop_
_atom_site_type_symbol
_atom_site_label
_atom_site_fract_x
_atom_site_fract_y
_atom_site_fract_z
Si Si1 0.963648 0.756245 0.925052
Si Si2 0.790356 0.996435 0.877349
Si Si3 0.225581 0.223743 0.870714
Si Si4 0.256032 0.872511 0.947774
Si Si5 0.000000 0.079258 0.250000
Si Si6 0.102148 0.436473 0.147730
Si Si7 0.309189 0.779505 0.153280
O O1 0.916566 0.629090 0.922953
O O2 0.973346 0.838262 0.840897
O O3 0.074502 0.730187 0.892077
O O4 0.884051 0.804823 0.033328
O O5 0.721275 0.096908 0.875005
O O6 0.755874 0.859727 0.880051
O O7 0.793041 0.027730 0.967719
O O8 0.903851 0.000220 0.784317
O O9 0.308275 0.132956 0.859416
O O10 0.242500 0.221503 0.768738
O O11 0.213631 0.836982 0.888347
O O12 0.366470 0.924110 0.876277
O O13 0.250000 0.750000 0.000000
O O14 0.000000 0.422485 0.250000
#
# Coordination Sequence:
#
# PCOD9299893 Si02
#       7
#     8   8   8   8   4   8   8
#     4  12  22  42  73 104 134 181 237 289 350 408
#     4  11  23  45  69  94 146 182 226 291 349 415
#     4  12  24  41  72 107 135 181 237 298 345 414
#     4  10  25  48  65  96 142 185 225 283 351 423
#     4  12  22  44  72 100 140 182 234 290 348 428
#     4  12  21  42  74  98 133 185 236 279 346 420
#     4  11  26  45  64 105 145 173 238 295 344 416
#
# _framework density 20.461193000000002
#
# number of rings (size 3 to 8) (size 9 to 14) (size 15 to 20)
#    0.000    0.615    6.923    1.385    2.154    1.846 
#   11.077    2.308    0.000    0.000    0.000    0.000 
#    0.000    0.000    0.000    0.000    0.000    0.000 
#
# Total GULP energy -145119.462274 kJ/mol
# GULP energy per Si atom -5581.517780 kJ/mol
# Density = 2.041462 g / cm^3
# Si number density = 20.461193 Si / 1000 Ang^3
#
#
#
# Elastic Constant Matrix: (Units=GPa)
#
#
# Indices 1 2 3 4 5 6 
#
# 1 109.7513 26.5772 61.6267 0.0000 -1.5531 0.0000
# 2 26.5772 74.8991 28.7924 0.0000 9.5329 0.0000
# 3 61.6267 28.7924 160.2244 0.0000 -3.1712 0.0000
# 4 0.0000 0.0000 0.0000 30.6563 0.0000 -8.2183
# 5 -1.5531 9.5329 -3.1712 0.0000 33.0918 0.0000
# 6 0.0000 0.0000 0.0000 -8.2183 0.0000 19.0818
#
#
#
# Elastic Compliance Matrix: (Units=1/GPa)
#
#
# Indices 1 2 3 4 5 6 
#
# 1 0.012137 -0.002842 -0.004138 0.000000 0.000992 0.000000
# 2 -0.002842 0.015673 -0.001819 0.000000 -0.004823 0.000000
# 3 -0.004138 -0.001819 0.008182 0.000000 0.001114 0.000000
# 4 0.000000 0.000000 0.000000 0.036877 0.000000 0.015883
# 5 0.000992 -0.004823 0.001114 0.000000 0.031762 0.000000
# 6 0.000000 0.000000 0.000000 0.015883 0.000000 0.059246
#
#
# Mechanical properties :
#
#
# Convention : Reuss Voigt Hill
#
# Bulk Modulus (GPa) = 54.36569 64.31858 59.34213
# Shear Modulus (GPa) = 26.65157 31.75790 29.20473
#
# Velocity S-wave (km/s) = 3.61299 3.94395 3.78209
# Velocity P-wave (km/s) = 6.63572 7.22788 6.93812
#
# Compressibility (1/GPa) = 0.01839396
#
# Stress axis : x y z
#
# Youngs Moduli (GPa) = 82.39026 63.80490 122.22452
#
# Poissons Ratio (x) = 0.18136 0.50576
# Poissons Ratio (y) = 0.23418 0.22228
# Poissons Ratio (z) = 0.34093 0.11604
#
# Static dielectric constant tensor:
#      x y z
#    x 1.713990 0.000000 0.005870 
#    y 0.000000 1.759090 0.000000 
#    z 0.005870 0.000000 1.800600 
# 
# From -- ./inp_files/203880.got.cif
#   From: 2010.05.17/outbox.cif.g08.bks.cpg/sg15_102_cif.got.tgz:203880.got - 2010.06.03 18:47:42.
