data_PCOD9299578
_publ_section_title
;
Structure prediction by ZEFSAII (Michael W. Deem and Ramdas Pophale) SiO2 
 PCOD9299578
Probable space group: C 2/C
;
_chemical_formula_sum "Si O2"
_cell_formula_units_Z 40
_cell_length_a 13.488643
_cell_length_b 13.535128
_cell_length_c 9.033178
_cell_angle_alpha 90.000000
_cell_angle_beta 77.647473
_cell_angle_gamma 90.000000
_cell_volume 1611.012894
_symmetry_space_group_name_H-M "C 2/C"
_symmetry_group_IT_number 15
_symmetry_cell_setting 'monoclinic'
loop_
_space_group_symop_operation_xyz
x,y,z
-x,y,1/2-z
-x,-y,-z
x,-y,1/2+z
1/2+x,1/2+y,z
1/2-x,1/2+y,1/2-z
1/2-x,1/2-y,-z
1/2+x,1/2-y,1/2+z
loop_
_atom_site_type_symbol
_atom_site_label
_atom_site_fract_x
_atom_site_fract_y
_atom_site_fract_z
Si Si1 0.500000 0.107409 0.250000
Si Si2 0.351251 0.800454 0.028041
Si Si3 0.300828 0.007478 0.720503
Si Si4 0.707974 0.362283 0.519259
Si Si5 0.500000 0.543178 0.750000
Si Si6 0.034126 0.128903 0.444461
O O1 0.441916 0.175947 0.385445
O O2 0.588982 0.037998 0.281542
O O3 0.317229 0.904344 0.101060
O O4 0.403157 0.723820 0.124643
O O5 0.250000 0.750000 0.000000
O O6 0.242161 0.917887 0.658436
O O7 0.253171 0.065097 0.876563
O O8 0.750000 0.250000 0.500000
O O9 0.586573 0.356280 0.533268
O O10 0.559566 0.606855 0.609617
O O11 0.442934 0.468148 0.658565
#
# Coordination Sequence:
#
# PCOD9299578 Si02
#       6
#     4   8   8   8   4   8
#     4  12  27  55  80 110 168 214 261 339 416 484
#     4  12  30  48  81 119 162 213 275 335 419 495
#     4  12  29  52  81 121 161 213 275 342 411 511
#     4  12  29  49  84 117 160 212 279 336 416 497
#     4  10  25  43  72 106 148 204 261 325 402 470
#     4  11  26  47  76 108 159 204 264 341 407 470
#
# _framework density 24.8291
#
# number of rings (size 3 to 8) (size 9 to 14) (size 15 to 20)
#    0.000    0.400    2.000    3.600   19.600    0.000 
#    0.000    0.000    0.000    0.000    0.000    0.000 
#    0.000    0.000    0.000    0.000    0.000    0.000 
#
# Total GULP energy -111970.383357 kJ/mol
# GULP energy per Si atom -5598.519168 kJ/mol
# Density = 2.477259 g / cm^3
# Si number density = 24.829100 Si / 1000 Ang^3
#
#
#
# Elastic Constant Matrix: (Units=GPa)
#
#
# Indices 1 2 3 4 5 6 
#
# 1 196.3336 96.7312 48.5567 0.0000 -25.5774 0.0000
# 2 96.7312 214.1125 35.3743 0.0000 5.0522 0.0000
# 3 48.5567 35.3743 99.5654 0.0000 1.8072 0.0000
# 4 0.0000 0.0000 0.0000 43.3807 0.0000 7.9391
# 5 -25.5774 5.0522 1.8072 0.0000 30.2202 0.0000
# 6 0.0000 0.0000 0.0000 7.9391 0.0000 49.5006
#
#
#
# Elastic Compliance Matrix: (Units=1/GPa)
#
#
# Indices 1 2 3 4 5 6 
#
# 1 0.008704 -0.003611 -0.003110 0.000000 0.008157 0.000000
# 2 -0.003611 0.006476 -0.000465 0.000000 -0.004111 0.000000
# 3 -0.003110 -0.000465 0.011785 0.000000 -0.003259 0.000000
# 4 0.000000 0.000000 0.000000 0.023749 0.000000 -0.003809
# 5 0.008157 -0.004111 -0.003259 0.000000 0.040876 0.000000
# 6 0.000000 0.000000 0.000000 -0.003809 0.000000 0.020813
#
#
# Mechanical properties :
#
#
# Convention : Reuss Voigt Hill
#
# Bulk Modulus (GPa) = 79.41283 96.81511 88.11397
# Shear Modulus (GPa) = 38.17608 46.57693 42.37650
#
# Velocity S-wave (km/s) = 3.92542 4.33587 4.13574
# Velocity P-wave (km/s) = 7.25248 8.00897 7.64009
#
# Compressibility (1/GPa) = 0.01259242
#
# Stress axis : x y z
#
# Youngs Moduli (GPa) = 114.88607 154.42427 84.85535
#
# Poissons Ratio (x) = 0.55763 0.26390
# Poissons Ratio (y) = 0.41486 0.03946
# Poissons Ratio (z) = 0.35730 0.07181
#
# Static dielectric constant tensor:
#      x y z
#    x 1.944510 0.000000 0.050370 
#    y 0.000000 2.261950 0.000000 
#    z 0.050370 0.000000 2.055300 
# 
# From -- ./inp_files/39017.got.cif
#   From: 2010.05.17/outbox.cif.g08.bks.cpg/sg15_20_cif.got.tgz:39017.got - 2010.06.03 18:47:42.
