data_PCOD9299714
_publ_section_title
;
Structure prediction by ZEFSAII (Michael W. Deem and Ramdas Pophale) SiO2 
 PCOD9299714
Probable space group: C 2/C
;
_chemical_formula_sum "Si O2"
_cell_formula_units_Z 44
_cell_length_a 5.299568
_cell_length_b 14.037870
_cell_length_c 27.396111
_cell_angle_alpha 90.000000
_cell_angle_beta 115.033564
_cell_angle_gamma 90.000000
_cell_volume 1846.662753
_symmetry_space_group_name_H-M "C 2/C"
_symmetry_group_IT_number 15
_symmetry_cell_setting 'monoclinic'
loop_
_space_group_symop_operation_xyz
x,y,z
-x,y,1/2-z
-x,-y,-z
x,-y,1/2+z
1/2+x,1/2+y,z
1/2-x,1/2+y,1/2-z
1/2-x,1/2-y,-z
1/2+x,1/2-y,1/2+z
loop_
_atom_site_type_symbol
_atom_site_label
_atom_site_fract_x
_atom_site_fract_y
_atom_site_fract_z
Si Si1 0.425556 0.831745 0.576163
Si Si2 0.664561 0.460942 0.076255
Si Si3 0.415826 0.859972 0.464696
Si Si4 0.527347 0.944100 0.194819
Si Si5 0.273819 0.156913 0.305197
Si Si6 0.000000 0.803579 0.250000
O O1 0.523031 0.839094 0.528146
O O2 0.231140 0.738242 0.564831
O O3 0.689073 0.824444 0.634395
O O4 0.250733 0.928366 0.574725
O O5 0.338306 0.435865 0.048376
O O6 0.848880 0.400678 0.052235
O O7 0.767114 0.429240 0.138546
O O8 0.500000 0.933538 0.250000
O O9 0.771515 0.870733 0.206539
O O10 0.619671 0.050747 0.192549
O O11 0.446231 0.234635 0.290746
O O12 0.000000 0.161261 0.250000
#
# Coordination Sequence:
#
# PCOD9299714 Si02
#       6
#     8   8   8   8   8   4
#     4  10  25  45  70 102 144 179 235 292 342 418
#     4  11  26  45  73 102 141 182 234 288 350 407
#     4  11  25  48  71 107 135 189 234 282 352 412
#     4  11  25  43  67 100 136 181 230 286 340 419
#     4  11  24  45  66 102 136 180 227 285 347 410
#     4  12  24  42  68  92 138 178 228 276 352 408
#
# _framework density 23.826765999999999
#
# number of rings (size 3 to 8) (size 9 to 14) (size 15 to 20)
#    0.000    1.091    1.818    2.727    7.636    4.364 
#    3.273    0.000    0.000    0.000    0.000    0.000 
#    0.000    0.000    0.000    0.000    0.000    0.000 
#
# Total GULP energy -123026.685841 kJ/mol
# GULP energy per Si atom -5592.122084 kJ/mol
# Density = 2.377254 g / cm^3
# Si number density = 23.826766 Si / 1000 Ang^3
#
#
#
# Elastic Constant Matrix: (Units=GPa)
#
#
# Indices 1 2 3 4 5 6 
#
# 1 53.8770 5.6340 37.3648 0.0000 -3.6178 0.0000
# 2 5.6340 115.1045 30.7169 0.0000 3.5187 0.0000
# 3 37.3648 30.7169 202.1371 0.0000 -2.4248 0.0000
# 4 0.0000 0.0000 0.0000 34.5497 0.0000 5.3854
# 5 -3.6178 3.5187 -2.4248 0.0000 25.5989 0.0000
# 6 0.0000 0.0000 0.0000 5.3854 0.0000 23.2329
#
#
#
# Elastic Compliance Matrix: (Units=1/GPa)
#
#
# Indices 1 2 3 4 5 6 
#
# 1 0.021471 -0.000086 -0.003924 0.000000 0.002674 0.000000
# 2 -0.000086 0.009104 -0.001384 0.000000 -0.001395 0.000000
# 3 -0.003924 -0.001384 0.005885 0.000000 0.000193 0.000000
# 4 0.000000 0.000000 0.000000 0.030029 0.000000 -0.006961
# 5 0.002674 -0.001395 0.000193 0.000000 0.039652 0.000000
# 6 0.000000 0.000000 0.000000 -0.006961 0.000000 0.044656
#
#
# Mechanical properties :
#
#
# Convention : Reuss Voigt Hill
#
# Bulk Modulus (GPa) = 38.95248 57.61668 48.28458
# Shear Modulus (GPa) = 29.38736 36.50317 32.94526
#
# Velocity S-wave (km/s) = 3.51576 3.91835 3.72250
# Velocity P-wave (km/s) = 5.73275 6.68620 6.22775
#
# Compressibility (1/GPa) = 0.02567231
#
# Stress axis : x y z
#
# Youngs Moduli (GPa) = 46.57552 109.84172 169.92020
#
# Poissons Ratio (x) = 0.00940 0.66672
# Poissons Ratio (y) = 0.00399 0.23523
# Poissons Ratio (z) = 0.18275 0.15206
#
# Static dielectric constant tensor:
#      x y z
#    x 2.198490 0.000000 0.043040 
#    y 0.000000 1.867380 0.000000 
#    z 0.043040 0.000000 2.102790 
# 
# From -- ./inp_files/260349.got.cif
#   From: 2010.05.17/outbox.cif.g08.bks.cpg/sg15_131_cif.got.tgz:260349.got - 2010.06.03 18:47:42.
