data_PCOD9299563
_publ_section_title
;
Structure prediction by ZEFSAII (Michael W. Deem and Ramdas Pophale) SiO2 
 PCOD9299563
Probable space group: C 2/C
;
_chemical_formula_sum "Si O2"
_cell_formula_units_Z 40
_cell_length_a 7.809717
_cell_length_b 10.485677
_cell_length_c 26.010968
_cell_angle_alpha 90.000000
_cell_angle_beta 122.339026
_cell_angle_gamma 90.000000
_cell_volume 1799.668026
_symmetry_space_group_name_H-M "C 2/C"
_symmetry_group_IT_number 15
_symmetry_cell_setting 'monoclinic'
loop_
_space_group_symop_operation_xyz
x,y,z
-x,y,1/2-z
-x,-y,-z
x,-y,1/2+z
1/2+x,1/2+y,z
1/2-x,1/2+y,1/2-z
1/2-x,1/2-y,-z
1/2+x,1/2-y,1/2+z
loop_
_atom_site_type_symbol
_atom_site_label
_atom_site_fract_x
_atom_site_fract_y
_atom_site_fract_z
Si Si1 0.766844 0.701612 0.229336
Si Si2 0.531757 0.109287 0.866388
Si Si3 0.487161 0.639728 0.942687
Si Si4 0.218439 0.927071 0.189441
Si Si5 0.585038 0.064372 0.462190
O O1 0.624282 0.776232 0.165467
O O2 0.696575 0.554237 0.219999
O O3 0.000000 0.704787 0.250000
O O4 0.757054 0.792973 0.277506
O O5 0.753413 0.145896 0.923606
O O6 0.591126 0.057364 0.819257
O O7 0.471663 0.999632 0.895723
O O8 0.465017 0.587177 0.880713
O O9 0.544400 0.786628 0.952972
O O10 0.668103 0.562014 0.998313
O O11 0.500000 0.000000 0.500000
#
# Coordination Sequence:
#
# PCOD9299563 Si02
#       5
#     8   8   8   8   8
#     4  12  26  42  69  98 132 177 233 278 339 400
#     4  10  25  43  69  93 141 176 221 277 343 395
#     4   9  25  43  68  96 141 171 227 273 343 398
#     4  10  27  45  68  97 139 181 219 285 339 405
#     4  11  24  43  71 104 131 179 226 279 331 413
#
# _framework density 22.226322
#
# number of rings (size 3 to 8) (size 9 to 14) (size 15 to 20)
#    1.200    0.400    0.000    2.400   11.200    4.000 
#    0.000    0.000    0.000    0.000    0.000    0.000 
#    0.000    0.000    0.000    0.000    0.000    0.000 
#
# Total GULP energy -111412.410264 kJ/mol
# GULP energy per Si atom -5570.620513 kJ/mol
# Density = 2.217573 g / cm^3
# Si number density = 22.226322 Si / 1000 Ang^3
#
#
#
# Elastic Constant Matrix: (Units=GPa)
#
#
# Indices 1 2 3 4 5 6 
#
# 1 56.6956 21.6639 6.4424 0.0000 14.0585 0.0000
# 2 21.6639 136.2116 58.7289 0.0000 -2.2644 0.0000
# 3 6.4424 58.7289 61.9173 0.0000 7.9966 0.0000
# 4 0.0000 0.0000 0.0000 46.9358 0.0000 7.1120
# 5 14.0585 -2.2644 7.9966 0.0000 47.5989 0.0000
# 6 0.0000 0.0000 0.0000 7.1120 0.0000 19.2640
#
#
#
# Elastic Compliance Matrix: (Units=1/GPa)
#
#
# Indices 1 2 3 4 5 6 
#
# 1 0.020844 -0.004878 0.003355 0.000000 -0.006952 0.000000
# 2 -0.004878 0.013893 -0.013228 0.000000 0.004324 0.000000
# 3 0.003355 -0.013228 0.029191 0.000000 -0.006524 0.000000
# 4 0.000000 0.000000 0.000000 0.022568 0.000000 -0.008332
# 5 -0.006952 0.004324 -0.006524 0.000000 0.024364 0.000000
# 6 0.000000 0.000000 0.000000 -0.008332 0.000000 0.054986
#
#
# Mechanical properties :
#
#
# Convention : Reuss Voigt Hill
#
# Bulk Modulus (GPa) = 29.04650 47.61055 38.32852
# Shear Modulus (GPa) = 24.17530 33.95902 29.06716
#
# Velocity S-wave (km/s) = 3.30159 3.91304 3.62025
# Velocity P-wave (km/s) = 5.25651 6.47172 5.89551
#
# Compressibility (1/GPa) = 0.03442756
#
# Stress axis : x y z
#
# Youngs Moduli (GPa) = 47.97449 71.98095 34.25716
#
# Poissons Ratio (x) = 0.35109 -0.11495
# Poissons Ratio (y) = 0.23400 0.45316
# Poissons Ratio (z) = -0.16097 0.95217
#
# Static dielectric constant tensor:
#      x y z
#    x 1.813480 0.000000 0.050960 
#    y 0.000000 1.363480 0.000000 
#    z 0.050960 0.000000 1.834310 
# 
# From -- ./inp_files/263343.got.cif
#   From: 2010.05.17/outbox.cif.g08.bks.cpg/sg15_132_cif.got.tgz:263343.got - 2010.06.03 18:47:42.
