data_PCOD9299058
_publ_section_title
;
Structure prediction by ZEFSAII (Michael W. Deem and Ramdas Pophale) SiO2 
 PCOD9299058
Probable space group: C 2/C
;
_chemical_formula_sum "Si O2"
_cell_formula_units_Z 40
_cell_length_a 13.423172
_cell_length_b 13.406582
_cell_length_c 8.997262
_cell_angle_alpha 90.000000
_cell_angle_beta 76.280908
_cell_angle_gamma 90.000000
_cell_volume 1572.943238
_symmetry_space_group_name_H-M "C 2/C"
_symmetry_group_IT_number 15
_symmetry_cell_setting 'monoclinic'
loop_
_space_group_symop_operation_xyz
x,y,z
-x,y,1/2-z
-x,-y,-z
x,-y,1/2+z
1/2+x,1/2+y,z
1/2-x,1/2+y,1/2-z
1/2-x,1/2-y,-z
1/2+x,1/2-y,1/2+z
loop_
_atom_site_type_symbol
_atom_site_label
_atom_site_fract_x
_atom_site_fract_y
_atom_site_fract_z
Si Si1 0.548099 0.133763 0.938190
Si Si2 0.858198 0.970670 0.047016
Si Si3 0.801186 0.192432 0.119241
Si Si4 0.000000 0.539840 0.250000
Si Si5 0.693292 0.153698 0.460813
Si Si6 0.000000 0.007763 0.750000
O O1 0.615820 0.225148 0.859349
O O2 0.565161 0.034943 0.832720
O O3 0.561444 0.104765 0.107256
O O4 0.427306 0.156894 0.973211
O O5 0.855170 0.090502 0.049848
O O6 0.913692 0.936555 0.179856
O O7 0.747850 0.933106 0.036168
O O8 0.934602 0.942383 0.887061
O O9 0.725441 0.156501 0.276614
O O10 0.750000 0.250000 0.000000
O O11 0.750000 0.250000 0.500000
#
# Coordination Sequence:
#
# PCOD9299058 Si02
#       6
#     8   8   8   4   8   4
#     4  11  26  47  78 110 159 204 265 334 398 482
#     4  11  26  47  77 111 154 205 271 332 402 477
#     4  12  29  49  76 117 157 209 274 325 407 486
#     4  10  24  46  76 104 154 210 254 316 424 458
#     4  12  29  46  78 115 159 211 275 327 408 484
#     4  10  24  46  78 100 150 208 256 330 408 454
#
# _framework density 25.430035
#
# number of rings (size 3 to 8) (size 9 to 14) (size 15 to 20)
#    0.000    0.800    2.000    2.400   16.800    1.600 
#    0.000    0.000    0.000    0.000    0.000    0.000 
#    0.000    0.000    0.000    0.000    0.000    0.000 
#
# Total GULP energy -111970.183939 kJ/mol
# GULP energy per Si atom -5598.509197 kJ/mol
# Density = 2.537216 g / cm^3
# Si number density = 25.430035 Si / 1000 Ang^3
#
#
#
# Elastic Constant Matrix: (Units=GPa)
#
#
# Indices 1 2 3 4 5 6 
#
# 1 174.3382 28.6257 52.0313 0.0000 13.9871 0.0000
# 2 28.6257 103.0152 9.1063 0.0000 4.0245 0.0000
# 3 52.0313 9.1063 155.2045 0.0000 20.7140 0.0000
# 4 0.0000 0.0000 0.0000 32.9119 0.0000 8.5510
# 5 13.9871 4.0245 20.7140 0.0000 48.8611 0.0000
# 6 0.0000 0.0000 0.0000 8.5510 0.0000 43.2878
#
#
#
# Elastic Compliance Matrix: (Units=1/GPa)
#
#
# Indices 1 2 3 4 5 6 
#
# 1 0.006683 -0.001642 -0.002021 0.000000 -0.000921 0.000000
# 2 -0.001642 0.010178 0.000003 0.000000 -0.000369 0.000000
# 3 -0.002021 0.000003 0.007466 0.000000 -0.002587 0.000000
# 4 0.000000 0.000000 0.000000 0.032028 0.000000 -0.006327
# 5 -0.000921 -0.000369 -0.002587 0.000000 0.021857 0.000000
# 6 0.000000 0.000000 0.000000 -0.006327 0.000000 0.024351
#
#
# Mechanical properties :
#
#
# Convention : Reuss Voigt Hill
#
# Bulk Modulus (GPa) = 58.80657 68.00939 63.40798
# Shear Modulus (GPa) = 43.27068 47.86514 45.56791
#
# Velocity S-wave (km/s) = 4.12947 4.34317 4.23767
# Velocity P-wave (km/s) = 6.77582 7.20782 6.99515
#
# Compressibility (1/GPa) = 0.01700490
#
# Stress axis : x y z
#
# Youngs Moduli (GPa) = 149.63967 98.25245 133.94547
#
# Poissons Ratio (x) = 0.16136 0.27071
# Poissons Ratio (y) = 0.24576 -0.00036
# Poissons Ratio (z) = 0.30243 -0.00027
#
# Static dielectric constant tensor:
#      x y z
#    x 2.053520 0.000000 -0.006140 
#    y 0.000000 2.054340 0.000000 
#    z -0.006140 0.000000 1.925990 
# 
# From -- ./inp_files/37883.got.cif
#   From: 2010.05.17/outbox.cif.g08.bks.cpg/sg15_19_cif.got.tgz:37883.got - 2010.06.03 18:47:42.
