data_PCOD9299636
_publ_section_title
;
Structure prediction by ZEFSAII (Michael W. Deem and Ramdas Pophale) SiO2 
 PCOD9299636
Probable space group: C 2/C
;
_chemical_formula_sum "Si O2"
_cell_formula_units_Z 44
_cell_length_a 27.464052
_cell_length_b 8.629448
_cell_length_c 10.021299
_cell_angle_alpha 90.000000
_cell_angle_beta 122.956145
_cell_angle_gamma 90.000000
_cell_volume 1992.868962
_symmetry_space_group_name_H-M "C 2/C"
_symmetry_group_IT_number 15
_symmetry_cell_setting 'monoclinic'
loop_
_space_group_symop_operation_xyz
x,y,z
-x,y,1/2-z
-x,-y,-z
x,-y,1/2+z
1/2+x,1/2+y,z
1/2-x,1/2+y,1/2-z
1/2-x,1/2-y,-z
1/2+x,1/2-y,1/2+z
loop_
_atom_site_type_symbol
_atom_site_label
_atom_site_fract_x
_atom_site_fract_y
_atom_site_fract_z
Si Si1 0.248223 0.598498 0.402981
Si Si2 0.685850 0.445249 0.770143
Si Si3 0.917132 0.829681 0.709437
Si Si4 0.362356 0.784457 0.868076
Si Si5 0.510025 0.181195 0.023575
Si Si6 0.000000 0.900336 0.250000
O O1 0.250000 0.750000 0.500000
O O2 0.271063 0.464132 0.536853
O O3 0.286794 0.619546 0.326153
O O4 0.183213 0.586313 0.247031
O O5 0.628711 0.362897 0.741696
O O6 0.667283 0.619287 0.702604
O O7 0.884079 0.724204 0.552338
O O8 0.974828 0.749245 0.847955
O O9 0.943415 0.990847 0.690088
O O10 0.421416 0.793388 0.874685
O O11 0.487363 0.285020 0.110416
O O12 0.500000 0.000000 0.000000
#
# Coordination Sequence:
#
# PCOD9299636 Si02
#       6
#     8   8   8   8   8   4
#     4  10  25  44  70 106 145 186 249 315 382 438
#     4  11  22  46  74 108 139 201 264 314 374 465
#     4  12  23  44  81 106 143 202 264 313 382 473
#     4  11  23  45  70 100 152 191 254 316 378 467
#     4  12  28  44  69 114 156 195 246 325 411 452
#     4  12  24  44  78 108 144 202 262 316 378 474
#
# _framework density 22.078721999999999
#
# number of rings (size 3 to 8) (size 9 to 14) (size 15 to 20)
#    0.000    0.727    5.455    1.636    2.545    2.182 
#    6.545    0.000    0.000    0.000    0.000    0.000 
#    0.000    0.000    0.000    0.000    0.000    0.000 
#
# Total GULP energy -122836.495124 kJ/mol
# GULP energy per Si atom -5583.477051 kJ/mol
# Density = 2.202847 g / cm^3
# Si number density = 22.078722 Si / 1000 Ang^3
#
#
#
# Elastic Constant Matrix: (Units=GPa)
#
#
# Indices 1 2 3 4 5 6 
#
# 1 137.2784 45.8924 67.1858 0.0000 -9.9330 0.0000
# 2 45.8924 70.6067 29.6497 0.0000 -10.2151 0.0000
# 3 67.1858 29.6497 134.2286 0.0000 -6.7085 0.0000
# 4 0.0000 0.0000 0.0000 27.3268 0.0000 -4.1803
# 5 -9.9330 -10.2151 -6.7085 0.0000 44.6020 0.0000
# 6 0.0000 0.0000 0.0000 -4.1803 0.0000 15.6575
#
#
#
# Elastic Compliance Matrix: (Units=1/GPa)
#
#
# Indices 1 2 3 4 5 6 
#
# 1 0.011303 -0.005395 -0.004435 0.000000 0.000614 0.000000
# 2 -0.005395 0.018618 -0.001268 0.000000 0.002872 0.000000
# 3 -0.004435 -0.001268 0.009961 0.000000 0.000220 0.000000
# 4 0.000000 0.000000 0.000000 0.038152 0.000000 0.010186
# 5 0.000614 0.002872 0.000220 0.000000 0.023248 0.000000
# 6 0.000000 0.000000 0.000000 0.010186 0.000000 0.066587
#
#
# Mechanical properties :
#
#
# Convention : Reuss Voigt Hill
#
# Bulk Modulus (GPa) = 56.54731 69.72995 63.13863
# Shear Modulus (GPa) = 25.51516 30.80967 28.16241
#
# Velocity S-wave (km/s) = 3.40317 3.73962 3.57535
# Velocity P-wave (km/s) = 6.41166 7.09206 6.76042
#
# Compressibility (1/GPa) = 0.01768431
#
# Stress axis : x y z
#
# Youngs Moduli (GPa) = 88.47019 53.71161 100.39081
#
# Poissons Ratio (x) = 0.28980 0.44525
# Poissons Ratio (y) = 0.47734 0.12734
# Poissons Ratio (z) = 0.39238 0.06813
#
# Static dielectric constant tensor:
#      x y z
#    x 1.869640 0.000000 0.052750 
#    y 0.000000 1.769870 0.000000 
#    z 0.052750 0.000000 1.978670 
# 
# From -- ./inp_files/68648.got.cif
#   From: 2010.05.17/outbox.cif.g08.bks.cpg/sg15_35_cif.got.tgz:68648.got - 2010.06.03 18:47:42.
