data_PCOD9299392
_publ_section_title
;
Structure prediction by ZEFSAII (Michael W. Deem and Ramdas Pophale) SiO2 
 PCOD9299392
Probable space group: C 2/C
;
_chemical_formula_sum "Si O2"
_cell_formula_units_Z 36
_cell_length_a 28.980351
_cell_length_b 13.038635
_cell_length_c 9.462613
_cell_angle_alpha 90.000000
_cell_angle_beta 26.004083
_cell_angle_gamma 90.000000
_cell_volume 1567.661374
_symmetry_space_group_name_H-M "C 2/C"
_symmetry_group_IT_number 15
_symmetry_cell_setting 'monoclinic'
loop_
_space_group_symop_operation_xyz
x,y,z
-x,y,1/2-z
-x,-y,-z
x,-y,1/2+z
1/2+x,1/2+y,z
1/2-x,1/2+y,1/2-z
1/2-x,1/2-y,-z
1/2+x,1/2-y,1/2+z
loop_
_atom_site_type_symbol
_atom_site_label
_atom_site_fract_x
_atom_site_fract_y
_atom_site_fract_z
Si Si1 0.204977 0.560868 0.822061
Si Si2 0.059872 0.298490 0.859469
Si Si3 0.500000 0.031780 0.750000
Si Si4 0.500000 0.628291 0.250000
Si Si5 0.167719 0.951569 0.808610
Si Si6 0.000000 0.220194 0.750000
O O1 0.237631 0.474229 0.845131
O O2 0.293677 0.561728 0.457955
O O3 0.174775 0.668027 0.982127
O O4 0.099498 0.530556 0.030040
O O5 0.981800 0.284244 0.941499
O O6 0.044123 0.200117 0.003153
O O7 0.031422 0.394865 0.034364
O O8 0.405747 0.551747 0.468484
O O9 0.095546 0.853180 0.033897
#
# Coordination Sequence:
#
# PCOD9299392 Si02
#       6
#     8   8   4   4   8   4
#     4  12  24  44  71 104 135 191 231 288 350 424
#     4  11  24  43  71  99 140 177 236 288 344 401
#     4  11  25  47  65  96 150 186 215 297 369 407
#     4  10  24  50  68 102 148 192 218 294 354 428
#     4  11  25  46  74  99 145 189 233 273 371 420
#     4  11  25  47  69 106 142 182 229 303 335 421
#
# _framework density 22.964141999999999
#
# number of rings (size 3 to 8) (size 9 to 14) (size 15 to 20)
#    0.000    0.889    2.222    4.000    3.111    5.333 
#   12.000    0.000    0.000    0.000    0.000    0.000 
#    0.000    0.000    0.000    0.000    0.000    0.000 
#
# Total GULP energy -100618.630035 kJ/mol
# GULP energy per Si atom -5589.923891 kJ/mol
# Density = 2.291188 g / cm^3
# Si number density = 22.964142 Si / 1000 Ang^3
#
#
#
# Elastic Constant Matrix: (Units=GPa)
#
#
# Indices 1 2 3 4 5 6 
#
# 1 135.7855 41.7554 29.9525 0.0000 11.9778 0.0000
# 2 41.7554 88.8794 40.1984 0.0000 6.4064 0.0000
# 3 29.9525 40.1984 89.0143 0.0000 16.2971 0.0000
# 4 0.0000 0.0000 0.0000 39.1330 0.0000 -7.6706
# 5 11.9778 6.4064 16.2971 0.0000 42.4072 0.0000
# 6 0.0000 0.0000 0.0000 -7.6706 0.0000 23.6393
#
#
#
# Elastic Compliance Matrix: (Units=1/GPa)
#
#
# Indices 1 2 3 4 5 6 
#
# 1 0.008831 -0.003545 -0.001088 0.000000 -0.001540 0.000000
# 2 -0.003545 0.015567 -0.006013 0.000000 0.000960 0.000000
# 3 -0.001088 -0.006013 0.015160 0.000000 -0.004610 0.000000
# 4 0.000000 0.000000 0.000000 0.027290 0.000000 0.008855
# 5 -0.001540 0.000960 -0.004610 0.000000 0.025643 0.000000
# 6 0.000000 0.000000 0.000000 0.008855 0.000000 0.045176
#
#
# Mechanical properties :
#
#
# Convention : Reuss Voigt Hill
#
# Bulk Modulus (GPa) = 54.75135 59.72131 57.23633
# Shear Modulus (GPa) = 30.29439 34.48743 32.39091
#
# Velocity S-wave (km/s) = 3.63602 3.87950 3.75974
# Velocity P-wave (km/s) = 6.44371 6.79192 6.62011
#
# Compressibility (1/GPa) = 0.01826439
#
# Stress axis : x y z
#
# Youngs Moduli (GPa) = 113.24056 64.23801 65.96393
#
# Poissons Ratio (x) = 0.22775 0.07179
# Poissons Ratio (y) = 0.40148 0.39663
# Poissons Ratio (z) = 0.12325 0.38626
#
# Static dielectric constant tensor:
#      x y z
#    x 1.860500 0.000000 0.014950 
#    y 0.000000 1.851840 0.000000 
#    z 0.014950 0.000000 1.912860 
# 
# From -- ./inp_files/37478.got.cif
#   From: 2010.05.17/outbox.cif.g08.bks.cpg/sg15_19_cif.got.tgz:37478.got - 2010.06.03 18:47:42.
