data_PCOD9299042
_publ_section_title
;
Structure prediction by ZEFSAII (Michael W. Deem and Ramdas Pophale) SiO2 
 PCOD9299042
Probable space group: C 2/C
;
_chemical_formula_sum "Si O2"
_cell_formula_units_Z 52
_cell_length_a 13.407985
_cell_length_b 10.564457
_cell_length_c 19.971033
_cell_angle_alpha 90.000000
_cell_angle_beta 135.347408
_cell_angle_gamma 90.000000
_cell_volume 1988.139656
_symmetry_space_group_name_H-M "C 2/C"
_symmetry_group_IT_number 15
_symmetry_cell_setting 'monoclinic'
loop_
_space_group_symop_operation_xyz
x,y,z
-x,y,1/2-z
-x,-y,-z
x,-y,1/2+z
1/2+x,1/2+y,z
1/2-x,1/2+y,1/2-z
1/2-x,1/2-y,-z
1/2+x,1/2-y,1/2+z
loop_
_atom_site_type_symbol
_atom_site_label
_atom_site_fract_x
_atom_site_fract_y
_atom_site_fract_z
Si Si1 0.804018 0.937131 0.902331
Si Si2 0.185794 0.339306 0.664467
Si Si3 0.149123 0.686433 0.510722
Si Si4 0.834887 0.088039 0.786252
Si Si5 0.122820 0.012713 0.909647
Si Si6 0.500000 0.969897 0.250000
Si Si7 0.649148 0.251586 0.888327
O O1 0.867946 0.028040 0.876390
O O2 0.637195 0.945502 0.805464
O O3 0.852070 0.792696 0.932462
O O4 0.831785 0.991746 0.990389
O O5 0.244517 0.477519 0.709713
O O6 0.252285 0.281889 0.628270
O O7 0.014002 0.342883 0.582542
O O8 0.229102 0.226677 0.736472
O O9 0.250000 0.750000 0.500000
O O10 0.238312 0.558656 0.563737
O O11 0.992410 0.105072 0.832656
O O12 0.060611 0.878714 0.857180
O O13 0.448428 0.870473 0.168667
O O14 0.750000 0.250000 0.000000
#
# Coordination Sequence:
#
# PCOD9299042 Si02
#       7
#     8   8   8   8   8   4   8
#     4  11  24  43  77 108 148 206 262 318 387 469
#     4  12  27  48  77 120 153 210 265 321 399 470
#     4  10  24  46  75 105 151 203 262 312 397 471
#     4  12  26  46  77 110 160 193 268 321 384 476
#     4  11  24  47  75 106 151 209 250 324 392 460
#     4  12  24  42  70 114 144 202 264 302 402 456
#     4  12  26  46  74 109 158 200 258 329 390 463
#
# _framework density 26.155101999999999
#
# number of rings (size 3 to 8) (size 9 to 14) (size 15 to 20)
#    0.000    0.615    6.154    1.385    6.462    1.846 
#    0.000    0.769    0.000    0.000    0.000    0.000 
#    0.000    0.000    0.000    0.000    0.000    0.000 
#
# Total GULP energy -145437.866070 kJ/mol
# GULP energy per Si atom -5593.764080 kJ/mol
# Density = 2.609557 g / cm^3
# Si number density = 26.155102 Si / 1000 Ang^3
#
#
#
# Elastic Constant Matrix: (Units=GPa)
#
#
# Indices 1 2 3 4 5 6 
#
# 1 80.3251 12.9139 58.1123 0.0000 9.8303 0.0000
# 2 12.9139 87.3307 67.0479 0.0000 -1.8433 0.0000
# 3 58.1123 67.0479 149.0225 0.0000 17.8687 0.0000
# 4 0.0000 0.0000 0.0000 48.6657 0.0000 6.3083
# 5 9.8303 -1.8433 17.8687 0.0000 60.0753 0.0000
# 6 0.0000 0.0000 0.0000 6.3083 0.0000 33.6744
#
#
#
# Elastic Compliance Matrix: (Units=1/GPa)
#
#
# Indices 1 2 3 4 5 6 
#
# 1 0.018317 0.004207 -0.009013 0.000000 -0.000187 0.000000
# 2 0.004207 0.018991 -0.010549 0.000000 0.003032 0.000000
# 3 -0.009013 -0.010549 0.015382 0.000000 -0.003424 0.000000
# 4 0.000000 0.000000 0.000000 0.021060 0.000000 -0.003945
# 5 -0.000187 0.003032 -0.003424 0.000000 0.017788 0.000000
# 6 0.000000 0.000000 0.000000 -0.003945 0.000000 0.030435
#
#
# Mechanical properties :
#
#
# Convention : Reuss Voigt Hill
#
# Bulk Modulus (GPa) = 45.49482 65.86963 55.68223
# Shear Modulus (GPa) = 31.24829 40.39003 35.81916
#
# Velocity S-wave (km/s) = 3.46024 3.93396 3.70468
# Velocity P-wave (km/s) = 5.77896 6.77301 6.29563
#
# Compressibility (1/GPa) = 0.02198052
#
# Stress axis : x y z
#
# Youngs Moduli (GPa) = 54.59522 52.65548 65.01189
#
# Poissons Ratio (x) = -0.22154 0.58597
# Poissons Ratio (y) = -0.22970 0.68580
# Poissons Ratio (z) = 0.49208 0.55545
#
# Static dielectric constant tensor:
#      x y z
#    x 2.181790 0.000000 -0.044640 
#    y 0.000000 2.132520 0.000000 
#    z -0.044640 0.000000 2.049880 
# 
# From -- ./inp_files/273889.got.cif
#   From: 2010.05.17/outbox.cif.g08.bks.cpg/sg15_137_cif.got.tgz:273889.got - 2010.06.03 18:47:42.
