data_PCOD9299786
_publ_section_title
;
Structure prediction by ZEFSAII (Michael W. Deem and Ramdas Pophale) SiO2 
 PCOD9299786
Probable space group: C 2/C
;
_chemical_formula_sum "Si O2"
_cell_formula_units_Z 56
_cell_length_a 10.461264
_cell_length_b 20.991371
_cell_length_c 27.300959
_cell_angle_alpha 90.000000
_cell_angle_beta 154.396878
_cell_angle_gamma 90.000000
_cell_volume 2590.730271
_symmetry_space_group_name_H-M "C 2/C"
_symmetry_group_IT_number 15
_symmetry_cell_setting 'monoclinic'
loop_
_space_group_symop_operation_xyz
x,y,z
-x,y,1/2-z
-x,-y,-z
x,-y,1/2+z
1/2+x,1/2+y,z
1/2-x,1/2+y,1/2-z
1/2-x,1/2-y,-z
1/2+x,1/2-y,1/2+z
loop_
_atom_site_type_symbol
_atom_site_label
_atom_site_fract_x
_atom_site_fract_y
_atom_site_fract_z
Si Si1 0.760518 0.327352 0.496033
Si Si2 0.721714 0.979558 0.436257
Si Si3 0.225307 0.838473 0.371010
Si Si4 0.873792 0.894707 0.570720
Si Si5 0.284686 0.858177 0.130514
Si Si6 0.739066 0.414868 0.793486
Si Si7 0.040679 0.216116 0.465982
O O1 0.750000 0.250000 0.500000
O O2 0.662752 0.347276 0.407087
O O3 0.540893 0.362301 0.458199
O O4 0.080411 0.357032 0.618818
O O5 0.832141 0.961416 0.528832
O O6 0.618568 0.915507 0.371748
O O7 0.466082 0.030883 0.354326
O O8 0.000000 0.000000 0.500000
O O9 0.543559 0.869709 0.468894
O O10 0.271258 0.762027 0.383425
O O11 0.000000 0.858085 0.250000
O O12 0.030621 0.850784 0.583651
O O13 0.062474 0.893465 0.684570
O O14 0.500000 0.850751 0.250000
O O15 0.245697 0.796099 0.083662
O O16 0.500000 0.440006 0.750000
O O17 0.250000 0.250000 0.500000
#
# Coordination Sequence:
#
# PCOD9299786 Si02
#       7
#     8   8   8   8   8   8   8
#     4  12  26  44  73 111 144 193 244 302 378 448
#     4  11  26  49  71 104 141 191 253 305 369 441
#     4  11  24  43  68 103 147 191 240 296 367 453
#     4  10  25  46  71 101 142 191 241 298 378 434
#     4  11  25  44  71 105 145 191 247 310 371 440
#     4  12  27  50  76 107 149 195 250 319 369 447
#     4   9  21  42  63 100 141 189 236 288 368 446
#
# _framework density 21.615525999999999
#
# number of rings (size 3 to 8) (size 9 to 14) (size 15 to 20)
#    0.000    1.143    4.286    0.000   10.000    2.857 
#    0.000    0.000    0.000    0.000    0.000    0.000 
#    0.000    0.000    0.000    0.000    0.000    0.000 
#
# Total GULP energy -156316.849043 kJ/mol
# GULP energy per Si atom -5582.744609 kJ/mol
# Density = 2.156633 g / cm^3
# Si number density = 21.615526 Si / 1000 Ang^3
#
#
#
# Elastic Constant Matrix: (Units=GPa)
#
#
# Indices 1 2 3 4 5 6 
#
# 1 108.0486 34.7973 42.6883 -0.0116 -13.2681 -0.0019
# 2 34.7973 58.5268 42.4821 -0.0154 4.4002 -0.0064
# 3 42.6883 42.4821 133.7770 -0.0500 -28.6113 -0.0129
# 4 -0.0116 -0.0154 -0.0500 20.3557 -0.0062 0.7621
# 5 -13.2681 4.4002 -28.6113 -0.0062 49.7246 -0.0036
# 6 -0.0019 -0.0064 -0.0129 0.7621 -0.0036 31.9115
#
#
#
# Elastic Compliance Matrix: (Units=1/GPa)
#
#
# Indices 1 2 3 4 5 6 
#
# 1 0.012252 -0.006752 -0.001070 0.000000 0.003251 -0.000001
# 2 -0.006752 0.028192 -0.008800 -0.000007 -0.009360 0.000001
# 3 -0.001070 -0.008800 0.012220 0.000025 0.007525 0.000003
# 4 0.000000 -0.000007 0.000025 0.049170 0.000021 -0.001174
# 5 0.003251 -0.009360 0.007525 0.000021 0.026136 0.000004
# 6 -0.000001 0.000001 0.000003 -0.001174 0.000004 0.031365
#
#
# Mechanical properties :
#
#
# Convention : Reuss Voigt Hill
#
# Bulk Modulus (GPa) = 51.49310 60.03199 55.76254
# Shear Modulus (GPa) = 25.11914 32.42401 28.77158
#
# Velocity S-wave (km/s) = 3.41264 3.87723 3.65233
# Velocity P-wave (km/s) = 6.27711 6.91930 6.60602
#
# Compressibility (1/GPa) = 0.01942008
#
# Stress axis : x y z
#
# Youngs Moduli (GPa) = 81.62250 35.47158 81.83050
#
# Poissons Ratio (x) = 0.23950 0.08757
# Poissons Ratio (y) = 0.55110 0.72009
# Poissons Ratio (z) = 0.08734 0.31214
#
# Static dielectric constant tensor:
#      x y z
#    x 1.799250 0.000000 0.017640 
#    y 0.000000 1.868290 -0.000010 
#    z 0.017640 -0.000010 1.792660 
# 
# From -- ./inp_files/311817.got.cif
#   From: 2010.05.17/outbox.cif.g08.bks.cpg/sg15_156_cif.got.tgz:311817.got - 2010.06.03 18:47:42.
