data_PCOD9299698
_publ_section_title
;
Structure prediction by ZEFSAII (Michael W. Deem and Ramdas Pophale) SiO2 
 PCOD9299698
Probable space group: C 2/C
;
_chemical_formula_sum "Si O2"
_cell_formula_units_Z 48
_cell_length_a 20.382096
_cell_length_b 19.303317
_cell_length_c 9.556361
_cell_angle_alpha 90.000000
_cell_angle_beta 144.350581
_cell_angle_gamma 90.000000
_cell_volume 2191.345287
_symmetry_space_group_name_H-M "C 2/C"
_symmetry_group_IT_number 15
_symmetry_cell_setting 'monoclinic'
loop_
_space_group_symop_operation_xyz
x,y,z
-x,y,1/2-z
-x,-y,-z
x,-y,1/2+z
1/2+x,1/2+y,z
1/2-x,1/2+y,1/2-z
1/2-x,1/2-y,-z
1/2+x,1/2-y,1/2+z
loop_
_atom_site_type_symbol
_atom_site_label
_atom_site_fract_x
_atom_site_fract_y
_atom_site_fract_z
Si Si1 0.570512 0.957038 0.737899
Si Si2 0.851833 0.811156 0.294429
Si Si3 0.873855 0.595990 0.596538
Si Si4 0.756793 0.826784 0.436849
Si Si5 0.529409 0.569105 0.141892
Si Si6 0.180534 0.334509 0.761917
O O1 0.500000 0.935763 0.750000
O O2 0.625923 0.893978 0.758444
O O3 0.500000 0.000000 0.500000
O O4 0.656480 0.015558 0.942409
O O5 0.774749 0.818690 0.301069
O O6 0.897244 0.733084 0.388038
O O7 0.941212 0.871253 0.449784
O O8 0.789627 0.814202 0.038239
O O9 0.857496 0.634782 0.713926
O O10 0.797382 0.635065 0.351974
O O11 0.000000 0.598878 0.750000
O O12 0.750000 0.750000 0.500000
O O13 0.853051 0.884690 0.650412
O O14 0.500000 0.548741 0.250000
O O15 0.500000 0.500000 0.000000
#
# Coordination Sequence:
#
# PCOD9299698 Si02
#       6
#     8   8   8   8   8   8
#     4  11  23  41  62 100 133 179 223 278 364 418
#     4  10  25  45  68  99 141 182 234 294 346 422
#     4  11  24  41  69  99 140 180 224 295 353 427
#     4  11  24  43  74 102 132 187 241 281 361 424
#     4  10  25  49  71 101 139 188 241 294 351 429
#     4  11  23  43  65  98 143 174 229 289 353 412
#
# _framework density 21.904353
#
# number of rings (size 3 to 8) (size 9 to 14) (size 15 to 20)
#    0.000    1.333    5.000    0.000    7.000    1.333 
#    0.000    0.000    0.000    0.000    0.000    0.000 
#    0.000    0.000    0.000    0.000    0.000    0.000 
#
# Total GULP energy -133770.048038 kJ/mol
# GULP energy per Si atom -5573.752002 kJ/mol
# Density = 2.185450 g / cm^3
# Si number density = 21.904353 Si / 1000 Ang^3
#
#
#
# Elastic Constant Matrix: (Units=GPa)
#
#
# Indices 1 2 3 4 5 6 
#
# 1 77.7026 42.4329 7.6151 0.0000 -8.3061 0.0000
# 2 42.4329 175.6425 23.0438 0.0000 -7.6196 0.0000
# 3 7.6151 23.0438 68.6729 0.0000 -20.3527 0.0000
# 4 0.0000 0.0000 0.0000 38.3621 0.0000 -9.1715
# 5 -8.3061 -7.6196 -20.3527 0.0000 21.4394 0.0000
# 6 0.0000 0.0000 0.0000 -9.1715 0.0000 39.8441
#
#
#
# Elastic Compliance Matrix: (Units=1/GPa)
#
#
# Indices 1 2 3 4 5 6 
#
# 1 0.015348 -0.003617 0.001243 0.000000 0.005840 0.000000
# 2 -0.003617 0.006810 -0.002201 0.000000 -0.001071 0.000000
# 3 0.001243 -0.002201 0.020975 0.000000 0.019611 0.000000
# 4 0.000000 0.000000 0.000000 0.027585 0.000000 0.006350
# 5 0.005840 -0.001071 0.019611 0.000000 0.067141 0.000000
# 6 0.000000 0.000000 0.000000 0.006350 0.000000 0.026559
#
#
# Mechanical properties :
#
#
# Convention : Reuss Voigt Hill
#
# Bulk Modulus (GPa) = 29.42910 52.02240 40.72575
# Shear Modulus (GPa) = 27.04211 36.52422 31.78316
#
# Velocity S-wave (km/s) = 3.51743 4.08786 3.81333
# Velocity P-wave (km/s) = 5.47366 6.78838 6.16616
#
# Compressibility (1/GPa) = 0.03397997
#
# Stress axis : x y z
#
# Youngs Moduli (GPa) = 65.15697 146.85019 47.67658
#
# Poissons Ratio (x) = 0.53123 -0.05926
# Poissons Ratio (y) = 0.23570 0.10495
# Poissons Ratio (z) = -0.08098 0.32327
#
# Static dielectric constant tensor:
#      x y z
#    x 1.821260 0.000000 0.018360 
#    y 0.000000 1.851680 0.000000 
#    z 0.018360 0.000000 1.908060 
# 
# From -- ./inp_files/56787.got.cif
#   From: 2010.05.17/outbox.cif.g08.bks.cpg/sg15_29_cif.got.tgz:56787.got - 2010.06.03 18:47:42.
