data_PCOD9299267
_publ_section_title
;
Structure prediction by ZEFSAII (Michael W. Deem and Ramdas Pophale) SiO2 
 PCOD9299267
Probable space group: C 2/C
;
_chemical_formula_sum "Si O2"
_cell_formula_units_Z 32
_cell_length_a 7.797691
_cell_length_b 33.667154
_cell_length_c 5.153649
_cell_angle_alpha 90.000000
_cell_angle_beta 84.848646
_cell_angle_gamma 90.000000
_cell_volume 1347.502537
_symmetry_space_group_name_H-M "C 2/C"
_symmetry_group_IT_number 15
_symmetry_cell_setting 'monoclinic'
loop_
_space_group_symop_operation_xyz
x,y,z
-x,y,1/2-z
-x,-y,-z
x,-y,1/2+z
1/2+x,1/2+y,z
1/2-x,1/2+y,1/2-z
1/2-x,1/2-y,-z
1/2+x,1/2-y,1/2+z
loop_
_atom_site_type_symbol
_atom_site_label
_atom_site_fract_x
_atom_site_fract_y
_atom_site_fract_z
Si Si1 0.500000 0.907249 0.750000
Si Si2 0.500000 0.581398 0.750000
Si Si3 0.234016 0.472647 0.501144
Si Si4 0.316391 0.864437 0.153690
Si Si5 0.701528 0.724295 0.753390
O O1 0.578862 0.941053 0.543730
O O2 0.653479 0.875361 0.656235
O O3 0.587697 0.552379 0.528281
O O4 0.339654 0.609936 0.705481
O O5 0.226707 0.497434 0.239890
O O6 0.500000 0.875728 0.250000
O O7 0.289249 0.818551 0.219229
O O8 0.500000 0.716656 0.750000
O O9 0.750000 0.750000 0.500000
O O10 0.750000 0.750000 0.000000
#
# Coordination Sequence:
#
# PCOD9299267 Si02
#       5
#     4   4   8   8   8
#     4  10  26  42  73 106 150 194 252 310 377 444
#     4  10  24  48  71 110 144 200 254 312 381 444
#     4  11  24  45  72 104 146 197 250 313 377 444
#     4  11  25  48  74 107 154 198 252 310 375 452
#     4  12  27  51  79 115 154 201 252 312 381 456
#
# _framework density 23.747634000000001
#
# number of rings (size 3 to 8) (size 9 to 14) (size 15 to 20)
#    0.000    1.000    1.250    3.750   12.250    0.000 
#    4.500    0.000    0.000    0.000    0.000    0.000 
#    0.000    0.000    0.000    0.000    0.000    0.000 
#
# Total GULP energy -89182.806936 kJ/mol
# GULP energy per Si atom -5573.925433 kJ/mol
# Density = 2.369358 g / cm^3
# Si number density = 23.747634 Si / 1000 Ang^3
#
#
#
# Elastic Constant Matrix: (Units=GPa)
#
#
# Indices 1 2 3 4 5 6 
#
# 1 165.5364 78.4078 59.0492 0.0000 -23.0992 0.0000
# 2 78.4078 218.5511 93.5743 0.0000 -17.5518 0.0000
# 3 59.0492 93.5743 151.1586 0.0000 -10.2302 0.0000
# 4 0.0000 0.0000 0.0000 45.5673 0.0000 -20.4159
# 5 -23.0992 -17.5518 -10.2302 0.0000 40.7937 0.0000
# 6 0.0000 0.0000 0.0000 -20.4159 0.0000 52.0643
#
#
#
# Elastic Compliance Matrix: (Units=1/GPa)
#
#
# Indices 1 2 3 4 5 6 
#
# 1 0.008006 -0.001856 -0.001756 0.000000 0.003295 0.000000
# 2 -0.001856 0.006780 -0.003404 0.000000 0.001013 0.000000
# 3 -0.001756 -0.003404 0.009402 0.000000 -0.000101 0.000000
# 4 0.000000 0.000000 0.000000 0.026623 0.000000 0.010440
# 5 0.003295 0.001013 -0.000101 0.000000 0.026790 0.000000
# 6 0.000000 0.000000 0.000000 0.010440 0.000000 0.023301
#
#
# Mechanical properties :
#
#
# Convention : Reuss Voigt Hill
#
# Bulk Modulus (GPa) = 98.45177 110.81209 104.63193
# Shear Modulus (GPa) = 42.25939 47.96606 45.11272
#
# Velocity S-wave (km/s) = 4.22301 4.49912 4.36325
# Velocity P-wave (km/s) = 8.08245 8.58796 8.33904
#
# Compressibility (1/GPa) = 0.01015726
#
# Stress axis : x y z
#
# Youngs Moduli (GPa) = 124.90549 147.49134 106.36552
#
# Poissons Ratio (x) = 0.27375 0.18673
# Poissons Ratio (y) = 0.23183 0.36203
# Poissons Ratio (z) = 0.21928 0.50200
#
# Static dielectric constant tensor:
#      x y z
#    x 1.969400 0.000000 0.209230 
#    y 0.000000 1.981940 0.000000 
#    z 0.209230 0.000000 2.461030 
# 
# From -- ./inp_files/2602.got.cif
#   From: 2010.05.17/outbox.cif.g08.bks.cpg/sg15_2_cif.got.tgz:2602.got - 2010.06.03 18:47:42.
