data_PCOD9299517
_publ_section_title
;
Structure prediction by ZEFSAII (Michael W. Deem and Ramdas Pophale) SiO2 
 PCOD9299517
Probable space group: C 2/C
;
_chemical_formula_sum "Si O2"
_cell_formula_units_Z 32
_cell_length_a 9.260877
_cell_length_b 5.221937
_cell_length_c 29.241944
_cell_angle_alpha 90.000000
_cell_angle_beta 99.908788
_cell_angle_gamma 90.000000
_cell_volume 1393.037427
_symmetry_space_group_name_H-M "C 2/C"
_symmetry_group_IT_number 15
_symmetry_cell_setting 'monoclinic'
loop_
_space_group_symop_operation_xyz
x,y,z
-x,y,1/2-z
-x,-y,-z
x,-y,1/2+z
1/2+x,1/2+y,z
1/2-x,1/2+y,1/2-z
1/2-x,1/2-y,-z
1/2+x,1/2-y,1/2+z
loop_
_atom_site_type_symbol
_atom_site_label
_atom_site_fract_x
_atom_site_fract_y
_atom_site_fract_z
Si Si1 0.365031 0.574010 0.625853
Si Si2 0.669402 0.927438 0.327265
Si Si3 0.844645 0.000201 0.017667
Si Si4 0.922678 0.090046 0.292264
O O1 0.283947 0.348573 0.649678
O O2 0.371489 0.508075 0.573502
O O3 0.520103 0.562742 0.660183
O O4 0.307911 0.855957 0.633394
O O5 0.499124 0.865240 0.305726
O O6 0.751734 0.035077 0.286978
O O7 0.750000 0.750000 0.000000
O O8 0.750000 0.250000 0.000000
O O9 0.000000 0.000000 0.000000
O O10 0.000000 0.002361 0.250000
#
# Coordination Sequence:
#
# PCOD9299517 Si02
#       4
#     8   8   8   8
#     4  10  26  44  73  96 145 176 235 285 352 411
#     4  10  25  42  69  98 139 179 229 281 350 407
#     4  12  28  47  75 107 142 187 239 293 356 421
#     4  10  26  43  71  99 140 179 234 282 350 415
#
# _framework density 22.971385999999999
#
# number of rings (size 3 to 8) (size 9 to 14) (size 15 to 20)
#    1.500    0.000    0.000    2.250   14.000    1.000 
#    0.000    0.000    0.000    0.000    0.000    0.000 
#    0.000    0.000    0.000    0.000    0.000    0.000 
#
# Total GULP energy -89172.290732 kJ/mol
# GULP energy per Si atom -5573.268171 kJ/mol
# Density = 2.291910 g / cm^3
# Si number density = 22.971386 Si / 1000 Ang^3
#
#
#
# Elastic Constant Matrix: (Units=GPa)
#
#
# Indices 1 2 3 4 5 6 
#
# 1 141.6966 77.1946 46.6389 0.0000 -36.6607 0.0000
# 2 77.1946 159.9283 31.4211 0.0000 -4.8482 0.0000
# 3 46.6389 31.4211 139.4263 0.0000 2.0560 0.0000
# 4 0.0000 0.0000 0.0000 -276.5204 0.0000 -117.7061
# 5 -36.6607 -4.8482 2.0560 0.0000 32.7183 0.0000
# 6 0.0000 0.0000 0.0000 -117.7061 0.0000 -4.7557
#
#
#
# Elastic Compliance Matrix: (Units=1/GPa)
#
#
# Indices 1 2 3 4 5 6 
#
# 1 0.016878 -0.006732 -0.004397 0.000000 0.018191 0.000000
# 2 -0.006732 0.009264 0.000255 0.000000 -0.006186 0.000000
# 3 -0.004397 0.000255 0.008666 0.000000 -0.005434 0.000000
# 4 0.000000 0.000000 0.000000 0.000379 0.000000 -0.009387
# 5 0.018191 -0.006186 -0.005434 0.000000 0.050372 0.000000
# 6 0.000000 0.000000 0.000000 -0.009387 0.000000 0.022052
#
#
# Mechanical properties :
#
#
# Convention : Reuss Voigt Hill
#
# Bulk Modulus (GPa) = 76.56151 83.50673 80.03412
# Shear Modulus (GPa) = 37.39379 -30.65847 3.36766
#
# Velocity S-wave (km/s) = 4.03903 -3.65723 1.21211
# Velocity P-wave (km/s) = 7.42651 4.31250 6.07251
#
# Compressibility (1/GPa) = 0.01306139
#
# Stress axis : x y z
#
# Youngs Moduli (GPa) = 59.24734 107.94069 115.39685
#
# Poissons Ratio (x) = 0.72661 0.50742
# Poissons Ratio (y) = 0.39883 -0.02944
# Poissons Ratio (z) = 0.26052 -0.02754
#
# Static dielectric constant tensor:
#      x y z
#    x 1.894880 0.000000 -0.050840 
#    y 0.000000 1.878170 0.000000 
#    z -0.050840 0.000000 1.807260 
# 
# From -- ./inp_files/306159.got.cif
#   From: 2010.05.17/outbox.cif.g08.bks.cpg/sg15_154_cif.got.tgz:306159.got - 2010.06.03 18:47:42.
