data_PCOD9299730
_publ_section_title
;
Structure prediction by ZEFSAII (Michael W. Deem and Ramdas Pophale) SiO2 
 PCOD9299730
Probable space group: C 2/C
;
_chemical_formula_sum "Si O2"
_cell_formula_units_Z 32
_cell_length_a 9.588661
_cell_length_b 18.668477
_cell_length_c 12.225106
_cell_angle_alpha 90.000000
_cell_angle_beta 144.658560
_cell_angle_gamma 90.000000
_cell_volume 1265.854029
_symmetry_space_group_name_H-M "C 2/C"
_symmetry_group_IT_number 15
_symmetry_cell_setting 'monoclinic'
loop_
_space_group_symop_operation_xyz
x,y,z
-x,y,1/2-z
-x,-y,-z
x,-y,1/2+z
1/2+x,1/2+y,z
1/2-x,1/2+y,1/2-z
1/2-x,1/2-y,-z
1/2+x,1/2-y,1/2+z
loop_
_atom_site_type_symbol
_atom_site_label
_atom_site_fract_x
_atom_site_fract_y
_atom_site_fract_z
Si Si1 0.341471 0.079672 0.275238
Si Si2 0.511930 0.757164 0.868737
Si Si3 0.350709 0.378552 0.391570
Si Si4 0.130330 0.558850 0.969494
O O1 0.442284 0.159782 0.336521
O O2 0.242510 0.063338 0.333525
O O3 0.552416 0.022158 0.391600
O O4 0.105424 0.080677 0.047555
O O5 0.396137 0.702033 0.881541
O O6 0.301709 0.741176 0.619610
O O7 0.250778 0.395961 0.449473
O O8 0.136403 0.408106 0.180740
#
# Coordination Sequence:
#
# PCOD9299730 Si02
#       4
#     8   8   8   8
#     4  11  24  46  72 102 146 184 237 297 364 426
#     4  12  25  43  68 102 141 192 242 292 353 431
#     4  11  24  45  72 104 143 188 237 295 362 424
#     4  10  25  45  72 110 138 187 239 299 361 435
#
# _framework density 25.279375000000002
#
# number of rings (size 3 to 8) (size 9 to 14) (size 15 to 20)
#    0.000    1.000    2.500    3.000    3.500    3.000 
#    4.500    2.500    0.000    0.000    0.000    0.000 
#    0.000    0.000    0.000    0.000    0.000    0.000 
#
# Total GULP energy -89293.768674 kJ/mol
# GULP energy per Si atom -5580.860542 kJ/mol
# Density = 2.522184 g / cm^3
# Si number density = 25.279375 Si / 1000 Ang^3
#
#
#
# Elastic Constant Matrix: (Units=GPa)
#
#
# Indices 1 2 3 4 5 6 
#
# 1 157.0013 78.7030 23.6238 -0.0001 -9.0556 -0.0004
# 2 78.7030 201.9626 35.1470 -0.0001 23.3513 -0.0003
# 3 23.6238 35.1470 134.6441 -0.0005 17.0175 -0.0015
# 4 -0.0001 -0.0001 -0.0005 11.7271 -0.0001 -78.3028
# 5 -9.0556 23.3513 17.0175 -0.0001 49.7495 -0.0005
# 6 -0.0004 -0.0003 -0.0015 -78.3028 -0.0005 -146.5887
#
#
#
# Elastic Compliance Matrix: (Units=1/GPa)
#
#
# Indices 1 2 3 4 5 6 
#
# 1 0.008508 -0.003550 -0.001016 0.000000 0.003563 0.000000
# 2 -0.003550 0.006879 -0.000714 0.000000 -0.003631 0.000000
# 3 -0.001016 -0.000714 0.008124 0.000000 -0.002629 0.000000
# 4 0.000000 0.000000 0.000000 0.018673 0.000000 -0.009974
# 5 0.003563 -0.003631 -0.002629 0.000000 0.023353 0.000000
# 6 0.000000 0.000000 0.000000 -0.009974 0.000000 -0.001494
#
#
# Mechanical properties :
#
#
# Convention : Reuss Voigt Hill
#
# Bulk Modulus (GPa) = 77.22239 85.39507 81.30873
# Shear Modulus (GPa) = 63.35580 6.71987 35.03783
#
# Velocity S-wave (km/s) = 5.01165 1.63218 3.72697
# Velocity P-wave (km/s) = 8.00642 6.11603 7.12421
#
# Compressibility (1/GPa) = 0.01294961
#
# Stress axis : x y z
#
# Youngs Moduli (GPa) = 117.54287 145.36979 123.09411
#
# Poissons Ratio (x) = 0.51612 0.12509
# Poissons Ratio (y) = 0.41732 0.08787
# Poissons Ratio (z) = 0.11944 0.10377
#
# Static dielectric constant tensor:
#      x y z
#    x 2.009540 0.000000 -0.083670 
#    y 0.000000 1.897810 0.000000 
#    z -0.083670 0.000000 2.562140 
# 
# From -- ./inp_files/145928.got.cif
#   From: 2010.05.17/outbox.cif.g08.bks.cpg/sg15_73_cif.got.tgz:145928.got - 2010.06.03 18:47:42.
