data_PCOD9299513
_publ_section_title
;
Structure prediction by ZEFSAII (Michael W. Deem and Ramdas Pophale) SiO2 
 PCOD9299513
Probable space group: C 2/C
;
_chemical_formula_sum "Si O2"
_cell_formula_units_Z 40
_cell_length_a 11.649932
_cell_length_b 7.612423
_cell_length_c 19.348103
_cell_angle_alpha 90.000000
_cell_angle_beta 83.682889
_cell_angle_gamma 90.000000
_cell_volume 1705.452705
_symmetry_space_group_name_H-M "C 2/C"
_symmetry_group_IT_number 15
_symmetry_cell_setting 'monoclinic'
loop_
_space_group_symop_operation_xyz
x,y,z
-x,y,1/2-z
-x,-y,-z
x,-y,1/2+z
1/2+x,1/2+y,z
1/2-x,1/2+y,1/2-z
1/2-x,1/2-y,-z
1/2+x,1/2-y,1/2+z
loop_
_atom_site_type_symbol
_atom_site_label
_atom_site_fract_x
_atom_site_fract_y
_atom_site_fract_z
Si Si1 0.404257 0.566624 0.713306
Si Si2 0.715207 0.677855 0.176170
Si Si3 0.154446 0.432159 0.061980
Si Si4 0.912162 0.077119 0.062414
Si Si5 0.590199 0.995150 0.415866
O O1 0.500000 0.672336 0.750000
O O2 0.374199 0.406037 0.765773
O O3 0.286866 0.671537 0.709640
O O4 0.442167 0.506272 0.634933
O O5 0.661064 0.763610 0.111044
O O6 0.812976 0.540228 0.145704
O O7 0.278854 0.523621 0.056780
O O8 0.041924 0.542254 0.094477
O O9 0.126077 0.401970 0.983274
O O10 0.912569 0.288054 0.067364
O O11 0.000000 0.000000 0.000000
#
# Coordination Sequence:
#
# PCOD9299513 Si02
#       5
#     8   8   8   8   8
#     4  11  26  45  69  98 138 187 228 288 346 415
#     4  11  25  45  68  99 141 179 239 282 353 414
#     4  10  25  42  69 105 136 179 230 282 352 412
#     4  11  26  45  72 104 140 182 235 286 350 415
#     4  11  24  42  72 103 140 179 227 295 348 409
#
# _framework density 23.454181999999999
#
# number of rings (size 3 to 8) (size 9 to 14) (size 15 to 20)
#    0.000    1.200    0.000    3.600   16.800    4.800 
#    0.000    1.000    0.000    0.000    0.000    0.000 
#    0.000    0.000    0.000    0.000    0.000    0.000 
#
# Total GULP energy -111925.956778 kJ/mol
# GULP energy per Si atom -5596.297839 kJ/mol
# Density = 2.340080 g / cm^3
# Si number density = 23.454182 Si / 1000 Ang^3
#
#
#
# Elastic Constant Matrix: (Units=GPa)
#
#
# Indices 1 2 3 4 5 6 
#
# 1 167.1766 38.9821 80.5389 0.0000 -3.2252 0.0000
# 2 38.9821 75.4088 41.5283 0.0000 -1.8665 0.0000
# 3 80.5389 41.5283 149.4177 0.0000 -24.1507 0.0000
# 4 0.0000 0.0000 0.0000 34.5875 0.0000 -7.6822
# 5 -3.2252 -1.8665 -24.1507 0.0000 34.7602 0.0000
# 6 0.0000 0.0000 0.0000 -7.6822 0.0000 13.6031
#
#
#
# Elastic Compliance Matrix: (Units=1/GPa)
#
#
# Indices 1 2 3 4 5 6 
#
# 1 0.008542 -0.002039 -0.004424 0.000000 -0.002391 0.000000
# 2 -0.002039 0.016333 -0.003751 0.000000 -0.001918 0.000000
# 3 -0.004424 -0.003751 0.011289 0.000000 0.007231 0.000000
# 4 0.000000 0.000000 0.000000 0.033059 0.000000 0.018670
# 5 -0.002391 -0.001918 0.007231 0.000000 0.033468 0.000000
# 6 0.000000 0.000000 0.000000 0.018670 0.000000 0.084056
#
#
# Mechanical properties :
#
#
# Convention : Reuss Voigt Hill
#
# Bulk Modulus (GPa) = 63.54519 79.34463 71.44491
# Shear Modulus (GPa) = 23.53829 31.98707 27.76268
#
# Velocity S-wave (km/s) = 3.17138 3.69699 3.44422
# Velocity P-wave (km/s) = 6.36886 7.21988 6.80768
#
# Compressibility (1/GPa) = 0.01573683
#
# Stress axis : x y z
#
# Youngs Moduli (GPa) = 117.06298 61.22601 88.58408
#
# Poissons Ratio (x) = 0.12481 0.39193
# Poissons Ratio (y) = 0.23864 0.33225
# Poissons Ratio (z) = 0.51793 0.22964
#
# Static dielectric constant tensor:
#      x y z
#    x 1.931900 0.000000 0.007200 
#    y 0.000000 1.896630 0.000000 
#    z 0.007200 0.000000 1.852020 
# 
# From -- ./inp_files/195099.got.cif
#   From: 2010.05.17/outbox.cif.g08.bks.cpg/sg15_98_cif.got.tgz:195099.got - 2010.06.03 18:47:42.
