data_PCOD9299219
_publ_section_title
;
Structure prediction by ZEFSAII (Michael W. Deem and Ramdas Pophale) SiO2 
 PCOD9299219
Probable space group: C 2/C
;
_chemical_formula_sum "Si O2"
_cell_formula_units_Z 32
_cell_length_a 13.857306
_cell_length_b 4.925605
_cell_length_c 17.550180
_cell_angle_alpha 90.000000
_cell_angle_beta 71.926760
_cell_angle_gamma 90.000000
_cell_volume 1138.794911
_symmetry_space_group_name_H-M "C 2/C"
_symmetry_group_IT_number 15
_symmetry_cell_setting 'monoclinic'
loop_
_space_group_symop_operation_xyz
x,y,z
-x,y,1/2-z
-x,-y,-z
x,-y,1/2+z
1/2+x,1/2+y,z
1/2-x,1/2+y,1/2-z
1/2-x,1/2-y,-z
1/2+x,1/2-y,1/2+z
loop_
_atom_site_type_symbol
_atom_site_label
_atom_site_fract_x
_atom_site_fract_y
_atom_site_fract_z
Si Si1 0.813387 0.511479 0.901211
Si Si2 0.506166 0.367234 0.128090
Si Si3 0.889037 0.224944 0.524176
Si Si4 0.184244 0.897881 0.739359
O O1 0.899175 0.293381 0.859764
O O2 0.691718 0.500958 0.925978
O O3 0.831698 0.764369 0.839749
O O4 0.829608 0.557243 0.987895
O O5 0.445494 0.166367 0.084557
O O6 0.423288 0.503295 0.201951
O O7 0.544249 0.584240 0.056978
O O8 0.260827 0.153223 0.727243
#
# Coordination Sequence:
#
# PCOD9299219 Si02
#       4
#     8   8   8   8
#     4  11  25  49  81 118 165 220 284 348 429 502
#     4  11  25  49  81 118 165 220 284 348 429 502
#     4  10  24  47  80 118 162 210 292 350 424 493
#     4  12  30  55  79 120 180 224 278 355 428 511
#
# _framework density 28.099879000000001
#
# number of rings (size 3 to 8) (size 9 to 14) (size 15 to 20)
#    0.000    1.000    2.500    1.500    7.000    9.000 
#    0.000    0.000    0.000    0.000    0.000    0.000 
#    0.000    0.000    0.000    0.000    0.000    0.000 
#
# Total GULP energy -89607.690538 kJ/mol
# GULP energy per Si atom -5600.480659 kJ/mol
# Density = 2.803592 g / cm^3
# Si number density = 28.099879 Si / 1000 Ang^3
#
#
#
# Elastic Constant Matrix: (Units=GPa)
#
#
# Indices 1 2 3 4 5 6 
#
# 1 166.8522 69.3577 70.3167 0.0004 -12.5173 0.0009
# 2 69.3577 156.1367 66.0847 0.0018 -19.2298 0.0022
# 3 70.3167 66.0847 181.9435 0.0001 -29.2972 0.0005
# 4 0.0004 0.0018 0.0001 47.1964 0.0003 0.9935
# 5 -12.5173 -19.2298 -29.2972 0.0003 73.3099 0.0007
# 6 0.0009 0.0022 0.0005 0.9935 0.0007 53.6106
#
#
#
# Elastic Compliance Matrix: (Units=1/GPa)
#
#
# Indices 1 2 3 4 5 6 
#
# 1 0.007993 -0.002663 -0.002153 0.000000 -0.000194 0.000000
# 2 -0.002663 0.008518 -0.001900 0.000000 0.001020 0.000000
# 3 -0.002153 -0.001900 0.007352 0.000000 0.002072 0.000000
# 4 0.000000 0.000000 0.000000 0.021196 0.000000 -0.000393
# 5 -0.000194 0.001020 0.002072 0.000000 0.014703 0.000000
# 6 0.000000 0.000000 0.000000 -0.000393 0.000000 0.018660
#
#
# Mechanical properties :
#
#
# Convention : Reuss Voigt Hill
#
# Bulk Modulus (GPa) = 95.87879 101.82784 98.85331
# Shear Modulus (GPa) = 52.44796 54.76828 53.60812
#
# Velocity S-wave (km/s) = 4.32497 4.41960 4.37254
# Velocity P-wave (km/s) = 7.68995 7.89686 7.79409
#
# Compressibility (1/GPa) = 0.01042984
#
# Stress axis : x y z
#
# Youngs Moduli (GPa) = 125.10578 117.40414 136.01440
#
# Poissons Ratio (x) = 0.31268 0.29285
# Poissons Ratio (y) = 0.33319 0.25845
# Poissons Ratio (z) = 0.26937 0.22309
#
# Static dielectric constant tensor:
#      x y z
#    x 2.432650 0.000000 0.068910 
#    y 0.000000 2.366320 0.000000 
#    z 0.068910 0.000000 2.152800 
# 
# From -- ./inp_files/241402.got.cif
#   From: 2010.05.17/outbox.cif.g08.bks.cpg/sg15_121_cif.got.tgz:241402.got - 2010.06.03 18:47:42.
