data_PCOD9299662
_publ_section_title
;
Structure prediction by ZEFSAII (Michael W. Deem and Ramdas Pophale) SiO2 
 PCOD9299662
Probable space group: C 2/C
;
_chemical_formula_sum "Si O2"
_cell_formula_units_Z 56
_cell_length_a 15.742373
_cell_length_b 17.189882
_cell_length_c 22.283566
_cell_angle_alpha 90.000000
_cell_angle_beta 23.199864
_cell_angle_gamma 90.000000
_cell_volume 2375.513845
_symmetry_space_group_name_H-M "C 2/C"
_symmetry_group_IT_number 15
_symmetry_cell_setting 'monoclinic'
loop_
_space_group_symop_operation_xyz
x,y,z
-x,y,1/2-z
-x,-y,-z
x,-y,1/2+z
1/2+x,1/2+y,z
1/2-x,1/2+y,1/2-z
1/2-x,1/2-y,-z
1/2+x,1/2-y,1/2+z
loop_
_atom_site_type_symbol
_atom_site_label
_atom_site_fract_x
_atom_site_fract_y
_atom_site_fract_z
Si Si1 0.000000 0.240848 0.750000
Si Si2 0.500000 0.543377 0.250000
Si Si3 0.020090 0.282272 0.304832
Si Si4 0.182262 0.029466 0.460551
Si Si5 0.253923 0.926874 0.316140
Si Si6 0.934291 0.866612 0.905433
Si Si7 0.618842 0.854058 0.568441
Si Si8 0.465305 0.987790 0.952942
O O1 0.019163 0.297293 0.797073
O O2 0.203290 0.189417 0.591139
O O3 0.449186 0.597497 0.227495
O O4 0.712819 0.494196 0.101488
O O5 0.044414 0.217612 0.340452
O O6 0.807680 0.335723 0.452667
O O7 0.000000 0.250575 0.250000
O O8 0.212778 0.342728 0.178121
O O9 0.263017 0.088446 0.458950
O O10 0.987266 0.067317 0.550594
O O11 0.334489 0.994389 0.309693
O O12 0.088840 0.945091 0.541922
O O13 0.405211 0.942457 0.161511
O O14 0.473560 0.905720 0.617371
O O15 0.500000 0.000000 0.000000
#
# Coordination Sequence:
#
# PCOD9299662 Si02
#       8
#     4   4   8   8   8   8   8   8
#     4  10  25  44  76 103 138 200 232 298 377 422
#     4  12  21  40  62 101 134 172 228 286 341 420
#     4  11  21  39  65  94 140 177 223 287 361 417
#     4  11  23  43  74 100 142 186 244 295 345 432
#     4  11  24  42  65 107 138 185 241 290 356 424
#     4  11  22  37  65  97 131 182 229 280 360 414
#     4  11  23  46  74 104 141 188 244 296 364 436
#     4  12  26  42  74 103 137 184 239 298 350 421
#
# _framework density 23.573848000000002
#
# number of rings (size 3 to 8) (size 9 to 14) (size 15 to 20)
#    0.000    0.857    5.000    2.143    2.000    0.000 
#    0.000    8.571    0.000    0.000    0.000    0.000 
#    0.000    0.000    0.000    0.000    0.000    0.000 
#
# Total GULP energy -155914.292037 kJ/mol
# GULP energy per Si atom -5568.367573 kJ/mol
# Density = 2.352019 g / cm^3
# Si number density = 23.573848 Si / 1000 Ang^3
#
#
#
# Elastic Constant Matrix: (Units=GPa)
#
#
# Indices 1 2 3 4 5 6 
#
# 1 88.1979 43.4782 8.9171 -0.0272 20.0870 -0.0029
# 2 43.4782 123.7445 17.7798 -0.0284 6.1641 0.0002
# 3 8.9171 17.7798 57.3768 -0.1210 26.1965 -0.0287
# 4 -0.0272 -0.0284 -0.1210 52.3685 0.0365 17.9872
# 5 20.0870 6.1641 26.1965 0.0365 37.7382 0.0095
# 6 -0.0029 0.0002 -0.0287 17.9872 0.0095 34.5683
#
#
#
# Elastic Compliance Matrix: (Units=1/GPa)
#
#
# Indices 1 2 3 4 5 6 
#
# 1 0.016136 -0.005729 0.004043 0.000023 -0.010459 -0.000005
# 2 -0.005729 0.010503 -0.004353 -0.000010 0.004356 0.000000
# 3 0.004043 -0.004353 0.027534 0.000082 -0.020554 -0.000014
# 4 0.000023 -0.000010 0.000082 0.023251 -0.000087 -0.012098
# 5 -0.010459 0.004356 -0.020554 -0.000087 0.045622 0.000015
# 6 -0.000005 0.000000 -0.000014 -0.012098 0.000015 0.035223
#
#
# Mechanical properties :
#
#
# Convention : Reuss Voigt Hill
#
# Bulk Modulus (GPa) = 23.75621 45.51882 34.63751
# Shear Modulus (GPa) = 27.11823 38.21129 32.66476
#
# Velocity S-wave (km/s) = 3.39536 4.03043 3.72645
# Velocity P-wave (km/s) = 5.04684 6.40391 5.76544
#
# Compressibility (1/GPa) = 0.04209425
#
# Stress axis : x y z
#
# Youngs Moduli (GPa) = 61.97394 95.21435 36.31930
#
# Poissons Ratio (x) = 0.54551 -0.14685
# Poissons Ratio (y) = 0.35507 0.15809
# Poissons Ratio (z) = -0.25057 0.41445
#
# Static dielectric constant tensor:
#      x y z
#    x 1.833420 -0.000160 -0.054070 
#    y -0.000160 2.006530 -0.000150 
#    z -0.054070 -0.000150 1.891130 
# 
# From -- ./inp_files/245143.got.cif
#   From: 2010.05.17/outbox.cif.g08.bks.cpg/sg15_123_cif.got.tgz:245143.got - 2010.06.03 18:47:42.
