data_PCOD9299464
_publ_section_title
;
Structure prediction by ZEFSAII (Michael W. Deem and Ramdas Pophale) SiO2 
 PCOD9299464
Probable space group: C 2/C
;
_chemical_formula_sum "Si O2"
_cell_formula_units_Z 48
_cell_length_a 11.873186
_cell_length_b 12.812469
_cell_length_c 14.445911
_cell_angle_alpha 90.000000
_cell_angle_beta 92.521230
_cell_angle_gamma 90.000000
_cell_volume 2195.454440
_symmetry_space_group_name_H-M "C 2/C"
_symmetry_group_IT_number 15
_symmetry_cell_setting 'monoclinic'
loop_
_space_group_symop_operation_xyz
x,y,z
-x,y,1/2-z
-x,-y,-z
x,-y,1/2+z
1/2+x,1/2+y,z
1/2-x,1/2+y,1/2-z
1/2-x,1/2-y,-z
1/2+x,1/2-y,1/2+z
loop_
_atom_site_type_symbol
_atom_site_label
_atom_site_fract_x
_atom_site_fract_y
_atom_site_fract_z
Si Si1 0.852583 0.911285 0.204054
Si Si2 0.004697 0.937442 0.596246
Si Si3 0.741514 0.590371 0.209301
Si Si4 0.356012 0.214901 0.065714
Si Si5 0.917692 0.285518 0.030223
Si Si6 0.728039 0.276338 0.148131
O O1 0.865851 0.819046 0.129738
O O2 0.859647 0.851178 0.301932
O O3 0.935164 0.997915 0.168126
O O4 0.745712 0.987021 0.226374
O O5 0.943968 0.828767 0.572619
O O6 0.128350 0.920166 0.642966
O O7 0.000000 0.000000 0.500000
O O8 0.834273 0.621134 0.136754
O O9 0.733018 0.691165 0.275587
O O10 0.250000 0.250000 0.000000
O O11 0.459624 0.183060 0.003184
O O12 0.835701 0.334154 0.105567
O O13 0.839847 0.277920 0.936661
#
# Coordination Sequence:
#
# PCOD9299464 Si02
#       6
#     8   8   8   8   8   8
#     4  11  23  38  66 101 133 167 226 283 335 395
#     4  12  21  36  70 105 130 164 228 291 332 388
#     4  11  23  39  65 103 134 166 226 286 343 393
#     4  11  23  42  67  99 136 177 223 283 349 405
#     4  11  22  42  65  91 138 180 224 268 348 401
#     4  10  25  41  64 100 139 178 220 282 341 410
#
# _framework density 21.863354000000001
#
# number of rings (size 3 to 8) (size 9 to 14) (size 15 to 20)
#    0.000    1.000    5.000    1.500    2.333    2.000 
#    0.000    0.833    3.667    0.000    0.000    0.000 
#    0.000    0.000    0.000    0.000    0.000    0.000 
#
# Total GULP energy -133674.698807 kJ/mol
# GULP energy per Si atom -5569.779117 kJ/mol
# Density = 2.181359 g / cm^3
# Si number density = 21.863354 Si / 1000 Ang^3
#
#
#
# Elastic Constant Matrix: (Units=GPa)
#
#
# Indices 1 2 3 4 5 6 
#
# 1 92.1821 -7.4511 39.9612 0.0000 -15.1197 0.0000
# 2 -7.4511 38.8246 5.6732 0.0000 4.7086 0.0000
# 3 39.9612 5.6732 114.1524 0.0000 -19.4785 0.0000
# 4 0.0000 0.0000 0.0000 36.9384 0.0000 -13.7515
# 5 -15.1197 4.7086 -19.4785 0.0000 41.5827 0.0000
# 6 0.0000 0.0000 0.0000 -13.7515 0.0000 29.6207
#
#
#
# Elastic Compliance Matrix: (Units=1/GPa)
#
#
# Indices 1 2 3 4 5 6 
#
# 1 0.013404 0.002917 -0.004415 0.000000 0.002475 0.000000
# 2 0.002917 0.027160 -0.002951 0.000000 -0.003397 0.000000
# 3 -0.004415 -0.002951 0.011125 0.000000 0.003940 0.000000
# 4 0.000000 0.000000 0.000000 0.032729 0.000000 0.015194
# 5 0.002475 -0.003397 0.003940 0.000000 0.027179 0.000000
# 6 0.000000 0.000000 0.000000 0.015194 0.000000 0.040814
#
#
# Mechanical properties :
#
#
# Convention : Reuss Voigt Hill
#
# Bulk Modulus (GPa) = 23.36892 35.72507 29.54699
# Shear Modulus (GPa) = 28.47862 35.42676 31.95269
#
# Velocity S-wave (km/s) = 3.61303 4.02975 3.82707
# Velocity P-wave (km/s) = 5.30256 6.16664 5.75086
#
# Compressibility (1/GPa) = 0.04279189
#
# Stress axis : x y z
#
# Youngs Moduli (GPa) = 74.60602 36.81896 89.89042
#
# Poissons Ratio (x) = -0.10741 0.39685
# Poissons Ratio (y) = -0.21765 0.26524
# Poissons Ratio (z) = 0.32937 0.10864
#
# Static dielectric constant tensor:
#      x y z
#    x 1.885520 0.000000 -0.043430 
#    y 0.000000 1.842700 0.000000 
#    z -0.043430 0.000000 1.826520 
# 
# From -- ./inp_files/143658.got.cif
#   From: 2010.05.17/outbox.cif.g08.bks.cpg/sg15_72_cif.got.tgz:143658.got - 2010.06.03 18:47:42.
