data_PCOD9299255
_publ_section_title
;
Structure prediction by ZEFSAII (Michael W. Deem and Ramdas Pophale) SiO2 
 PCOD9299255
Probable space group: C 2/C
;
_chemical_formula_sum "Si O2"
_cell_formula_units_Z 40
_cell_length_a 10.406813
_cell_length_b 24.992889
_cell_length_c 8.864383
_cell_angle_alpha 90.000000
_cell_angle_beta 124.482818
_cell_angle_gamma 90.000000
_cell_volume 1900.491447
_symmetry_space_group_name_H-M "C 2/C"
_symmetry_group_IT_number 15
_symmetry_cell_setting 'monoclinic'
loop_
_space_group_symop_operation_xyz
x,y,z
-x,y,1/2-z
-x,-y,-z
x,-y,1/2+z
1/2+x,1/2+y,z
1/2-x,1/2+y,1/2-z
1/2-x,1/2-y,-z
1/2+x,1/2-y,1/2+z
loop_
_atom_site_type_symbol
_atom_site_label
_atom_site_fract_x
_atom_site_fract_y
_atom_site_fract_z
Si Si1 0.265667 0.534078 0.348443
Si Si2 0.500000 0.052641 0.750000
Si Si3 0.081371 0.374234 0.588948
Si Si4 0.397363 0.778942 0.533533
Si Si5 0.000000 0.004867 0.750000
Si Si6 0.162656 0.215948 0.310855
O O1 0.146127 0.484375 0.294428
O O2 0.155793 0.584713 0.255052
O O3 0.384375 0.537755 0.566207
O O4 0.380449 0.527018 0.280080
O O5 0.447238 0.090507 0.578451
O O6 0.209364 0.327365 0.652580
O O7 0.925180 0.341914 0.526634
O O8 0.500000 0.767272 0.750000
O O9 0.250000 0.750000 0.500000
O O10 0.399818 0.753774 0.366572
O O11 0.250000 0.250000 0.500000
O O12 0.000000 0.188296 0.250000
#
# Coordination Sequence:
#
# PCOD9299255 Si02
#       6
#     8   4   8   8   4   8
#     4  11  25  47  74 110 152 193 245 310 367 456
#     4  12  26  46  78 111 143 198 252 306 360 466
#     4  12  26  43  77 106 145 195 248 293 389 431
#     4  12  25  47  70 105 146 188 246 313 367 435
#     4  10  24  48  70 103 161 184 240 314 370 424
#     4  12  24  46  73 103 143 193 248 310 359 442
#
# _framework density 21.047187999999998
#
# number of rings (size 3 to 8) (size 9 to 14) (size 15 to 20)
#    0.000    0.400    6.000    1.800    2.800    0.000 
#    1.800    0.000    0.000    0.000    0.000    0.000 
#    0.000    0.000    0.000    0.000    0.000    0.000 
#
# Total GULP energy -111435.621324 kJ/mol
# GULP energy per Si atom -5571.781066 kJ/mol
# Density = 2.099928 g / cm^3
# Si number density = 21.047188 Si / 1000 Ang^3
#
#
#
# Elastic Constant Matrix: (Units=GPa)
#
#
# Indices 1 2 3 4 5 6 
#
# 1 115.3414 58.3005 32.2989 0.0000 -3.0930 0.0000
# 2 58.3005 141.4511 78.1459 0.0000 10.2128 0.0000
# 3 32.2989 78.1459 168.1355 0.0000 -4.1067 0.0000
# 4 0.0000 0.0000 0.0000 17.6268 0.0000 -1.7986
# 5 -3.0930 10.2128 -4.1067 0.0000 20.0345 0.0000
# 6 0.0000 0.0000 0.0000 -1.7986 0.0000 25.6096
#
#
#
# Elastic Compliance Matrix: (Units=1/GPa)
#
#
# Indices 1 2 3 4 5 6 
#
# 1 0.011307 -0.005169 0.000339 0.000000 0.004450 0.000000
# 2 -0.005169 0.012592 -0.005061 0.000000 -0.008254 0.000000
# 3 0.000339 -0.005061 0.008341 0.000000 0.004342 0.000000
# 4 0.000000 0.000000 0.000000 0.057141 0.000000 0.004013
# 5 0.004450 -0.008254 0.004342 0.000000 0.055699 0.000000
# 6 0.000000 0.000000 0.000000 0.004013 0.000000 0.039330
#
#
# Mechanical properties :
#
#
# Convention : Reuss Voigt Hill
#
# Bulk Modulus (GPa) = 80.27126 84.71318 82.49222
# Shear Modulus (GPa) = 23.99873 29.73301 26.86587
#
# Velocity S-wave (km/s) = 3.38040 3.76265 3.57663
# Velocity P-wave (km/s) = 7.31147 7.69501 7.50569
#
# Compressibility (1/GPa) = 0.01245776
#
# Stress axis : x y z
#
# Youngs Moduli (GPa) = 88.44106 79.41518 119.89174
#
# Poissons Ratio (x) = 0.41049 -0.04064
# Poissons Ratio (y) = 0.45714 0.60680
# Poissons Ratio (z) = -0.02998 0.40194
#
# Static dielectric constant tensor:
#      x y z
#    x 1.809750 0.000000 -0.020850 
#    y 0.000000 1.728010 0.000000 
#    z -0.020850 0.000000 1.688880 
# 
# From -- ./inp_files/32316.got.cif
#   From: 2010.05.17/outbox.cif.g08.bks.cpg/sg15_17_cif.got.tgz:32316.got - 2010.06.03 18:47:42.
