data_PCOD9299972
_publ_section_title
;
Structure prediction by ZEFSAII (Michael W. Deem and Ramdas Pophale) SiO2 
 PCOD9299972
Probable space group: C 2/C
;
_chemical_formula_sum "Si O2"
_cell_formula_units_Z 40
_cell_length_a 5.794446
_cell_length_b 27.689073
_cell_length_c 11.008315
_cell_angle_alpha 90.000000
_cell_angle_beta 96.438263
_cell_angle_gamma 90.000000
_cell_volume 1755.066300
_symmetry_space_group_name_H-M "C 2/C"
_symmetry_group_IT_number 15
_symmetry_cell_setting 'monoclinic'
loop_
_space_group_symop_operation_xyz
x,y,z
-x,y,1/2-z
-x,-y,-z
x,-y,1/2+z
1/2+x,1/2+y,z
1/2-x,1/2+y,1/2-z
1/2-x,1/2-y,-z
1/2+x,1/2-y,1/2+z
loop_
_atom_site_type_symbol
_atom_site_label
_atom_site_fract_x
_atom_site_fract_y
_atom_site_fract_z
Si Si1 0.000000 0.944006 0.750000
Si Si2 0.203462 0.659111 0.832298
Si Si3 0.613893 0.388661 0.506715
Si Si4 0.241737 0.011626 0.935289
Si Si5 0.500000 0.262619 0.250000
Si Si6 0.073611 0.705389 0.474058
O O1 0.056152 0.910886 0.636218
O O2 0.199616 0.980617 0.810662
O O3 0.297025 0.697243 0.737380
O O4 0.000000 0.631487 0.750000
O O5 0.394683 0.627336 0.911567
O O6 0.104153 0.692553 0.932381
O O7 0.734353 0.430598 0.435269
O O8 0.776364 0.342625 0.537632
O O9 0.500000 0.000000 0.000000
O O10 0.000000 0.000000 0.000000
O O11 0.435698 0.225654 0.351369
O O12 0.250000 0.750000 0.500000
#
# Coordination Sequence:
#
# PCOD9299972 Si02
#       6
#     4   8   8   8   4   8
#     4  10  26  51  78 114 154 198 265 340 392 494
#     4  12  25  46  72 106 161 209 270 320 398 480
#     4  11  27  46  75 116 146 212 261 326 413 481
#     4  10  25  50  77 111 153 197 259 329 407 473
#     4  12  26  45  66 106 154 216 251 332 382 474
#     4  12  26  43  73 110 155 206 263 322 393 481
#
# _framework density 22.791162
#
# number of rings (size 3 to 8) (size 9 to 14) (size 15 to 20)
#    0.000    0.800    4.000    0.600    8.400    5.600 
#    0.000    0.000    0.000    0.000    0.000    0.000 
#    0.000    0.000    0.000    0.000    0.000    0.000 
#
# Total GULP energy -111461.761689 kJ/mol
# GULP energy per Si atom -5573.088084 kJ/mol
# Density = 2.273929 g / cm^3
# Si number density = 22.791162 Si / 1000 Ang^3
#
#
#
# Elastic Constant Matrix: (Units=GPa)
#
#
# Indices 1 2 3 4 5 6 
#
# 1 119.7128 62.4907 42.0142 0.0000 25.0947 0.0000
# 2 62.4907 179.8435 48.7590 0.0000 9.0291 0.0000
# 3 42.0142 48.7590 98.2690 0.0000 8.1647 0.0000
# 4 0.0000 0.0000 0.0000 51.5360 0.0000 -0.2029
# 5 25.0947 9.0291 8.1647 0.0000 42.1923 0.0000
# 6 0.0000 0.0000 0.0000 -0.2029 0.0000 30.1240
#
#
#
# Elastic Compliance Matrix: (Units=1/GPa)
#
#
# Indices 1 2 3 4 5 6 
#
# 1 0.012396 -0.003122 -0.003246 0.000000 -0.006077 0.000000
# 2 -0.003122 0.007236 -0.002318 0.000000 0.000757 0.000000
# 3 -0.003246 -0.002318 0.012717 0.000000 -0.000034 0.000000
# 4 0.000000 0.000000 0.000000 0.019404 0.000000 0.000131
# 5 -0.006077 0.000757 -0.000034 0.000000 0.027160 0.000000
# 6 0.000000 0.000000 0.000000 0.000131 0.000000 0.033197
#
#
# Mechanical properties :
#
#
# Convention : Reuss Voigt Hill
#
# Bulk Modulus (GPa) = 66.77233 78.26147 72.51690
# Shear Modulus (GPa) = 37.18170 41.07455 39.12813
#
# Velocity S-wave (km/s) = 4.04345 4.24985 4.14794
# Velocity P-wave (km/s) = 7.15265 7.64819 7.40456
#
# Compressibility (1/GPa) = 0.01497626
#
# Stress axis : x y z
#
# Youngs Moduli (GPa) = 80.67065 138.20180 78.63495
#
# Poissons Ratio (x) = 0.43150 0.25523
# Poissons Ratio (y) = 0.25187 0.18230
# Poissons Ratio (z) = 0.26184 0.32039
#
# Static dielectric constant tensor:
#      x y z
#    x 1.963100 0.000000 0.051650 
#    y 0.000000 1.716430 0.000000 
#    z 0.051650 0.000000 1.899500 
# 
# From -- ./inp_files/73277.got.cif
#   From: 2010.05.17/outbox.cif.g08.bks.cpg/sg15_37_cif.got.tgz:73277.got - 2010.06.03 18:47:42.
