data_PCOD9299460
_publ_section_title
;
Structure prediction by ZEFSAII (Michael W. Deem and Ramdas Pophale) SiO2 
 PCOD9299460
Probable space group: C 2/C
;
_chemical_formula_sum "Si O2"
_cell_formula_units_Z 56
_cell_length_a 17.623142
_cell_length_b 12.042700
_cell_length_c 14.129292
_cell_angle_alpha 90.000000
_cell_angle_beta 118.464141
_cell_angle_gamma 90.000000
_cell_volume 2636.171027
_symmetry_space_group_name_H-M "C 2/C"
_symmetry_group_IT_number 15
_symmetry_cell_setting 'monoclinic'
loop_
_space_group_symop_operation_xyz
x,y,z
-x,y,1/2-z
-x,-y,-z
x,-y,1/2+z
1/2+x,1/2+y,z
1/2-x,1/2+y,1/2-z
1/2-x,1/2-y,-z
1/2+x,1/2-y,1/2+z
loop_
_atom_site_type_symbol
_atom_site_label
_atom_site_fract_x
_atom_site_fract_y
_atom_site_fract_z
Si Si1 0.431092 0.298210 0.414930
Si Si2 0.450386 0.459096 0.590687
Si Si3 0.400727 0.187284 0.209608
Si Si4 0.109613 0.804599 0.483602
Si Si5 0.638126 0.394486 0.775046
Si Si6 0.253516 0.541198 0.325625
Si Si7 0.256109 0.710824 0.896281
O O1 0.432881 0.413448 0.475115
O O2 0.406978 0.286493 0.290296
O O3 0.527359 0.247656 0.486841
O O4 0.348228 0.242708 0.414798
O O5 0.442754 0.590558 0.591145
O O6 0.543827 0.413353 0.674753
O O7 0.379958 0.419970 0.625535
O O8 0.500000 0.152860 0.250000
O O9 0.362071 0.229095 0.086851
O O10 0.340997 0.093446 0.219459
O O11 0.183123 0.866400 0.586953
O O12 0.706734 0.467576 0.756533
O O13 0.678426 0.271847 0.795017
O O14 0.252518 0.420582 0.373847
O O15 0.250000 0.750000 0.000000
#
# Coordination Sequence:
#
# PCOD9299460 Si02
#       7
#     8   8   8   8   8   8   8
#     4  11  20  39  63  90 133 163 214 274 326 376
#     4  11  22  37  64  98 128 162 214 280 324 378
#     4  10  25  41  63  92 133 178 218 268 327 393
#     4  11  22  38  66  97 124 167 222 277 326 379
#     4  11  24  37  63  98 127 167 218 265 335 387
#     4  12  23  42  67  92 133 173 216 273 332 390
#     4  12  24  43  63  96 134 175 214 273 328 397
#
# _framework density 21.242930999999999
#
# number of rings (size 3 to 8) (size 9 to 14) (size 15 to 20)
#    0.000    0.857    5.714    1.714    8.000    0.000 
#    2.571    0.000    0.000    2.571    0.000    0.000 
#    0.000    0.000    0.000    0.000    0.000    0.000 
#
# Total GULP energy -156015.791149 kJ/mol
# GULP energy per Si atom -5571.992541 kJ/mol
# Density = 2.119458 g / cm^3
# Si number density = 21.242931 Si / 1000 Ang^3
#
#
#
# Elastic Constant Matrix: (Units=GPa)
#
#
# Indices 1 2 3 4 5 6 
#
# 1 169.2606 45.4212 38.9836 0.0000 -18.7279 0.0000
# 2 45.4212 63.0240 25.4232 0.0000 -1.9148 0.0000
# 3 38.9836 25.4232 57.6811 0.0000 -10.8374 0.0000
# 4 0.0000 0.0000 0.0000 24.0529 0.0000 2.3012
# 5 -18.7279 -1.9148 -10.8374 0.0000 43.7490 0.0000
# 6 0.0000 0.0000 0.0000 2.3012 0.0000 32.2194
#
#
#
# Elastic Compliance Matrix: (Units=1/GPa)
#
#
# Indices 1 2 3 4 5 6 
#
# 1 0.008098 -0.004553 -0.002992 0.000000 0.002526 0.000000
# 2 -0.004553 0.021931 -0.007106 0.000000 -0.002749 0.000000
# 3 -0.002992 -0.007106 0.023275 0.000000 0.004174 0.000000
# 4 0.000000 0.000000 0.000000 0.041861 0.000000 -0.002990
# 5 0.002526 -0.002749 0.004174 0.000000 0.024853 0.000000
# 6 0.000000 0.000000 0.000000 -0.002990 0.000000 0.031251
#
#
# Mechanical properties :
#
#
# Convention : Reuss Voigt Hill
#
# Bulk Modulus (GPa) = 41.66094 56.62462 49.14278
# Shear Modulus (GPa) = 26.51520 32.01345 29.26432
#
# Velocity S-wave (km/s) = 3.53680 3.88624 3.71563
# Velocity P-wave (km/s) = 6.02768 6.84476 6.44917
#
# Compressibility (1/GPa) = 0.02400330
#
# Stress axis : x y z
#
# Youngs Moduli (GPa) = 123.48067 45.59743 42.96476
#
# Poissons Ratio (x) = 0.20760 0.12855
# Poissons Ratio (y) = 0.56219 0.30530
# Poissons Ratio (z) = 0.36945 0.32400
#
# Static dielectric constant tensor:
#      x y z
#    x 1.902430 0.000000 0.019570 
#    y 0.000000 1.770680 0.000000 
#    z 0.019570 0.000000 1.836570 
# 
# From -- ./inp_files/161012.got.cif
#   From: 2010.05.17/outbox.cif.g08.bks.cpg/sg15_81_cif.got.tgz:161012.got - 2010.06.03 18:47:42.
