data_PCOD9299723
_publ_section_title
;
Structure prediction by ZEFSAII (Michael W. Deem and Ramdas Pophale) SiO2 
 PCOD9299723
Probable space group: C 2/C
;
_chemical_formula_sum "Si O2"
_cell_formula_units_Z 40
_cell_length_a 11.481133
_cell_length_b 14.660224
_cell_length_c 11.171482
_cell_angle_alpha 90.000000
_cell_angle_beta 73.477727
_cell_angle_gamma 90.000000
_cell_volume 1802.698362
_symmetry_space_group_name_H-M "C 2/C"
_symmetry_group_IT_number 15
_symmetry_cell_setting 'monoclinic'
loop_
_space_group_symop_operation_xyz
x,y,z
-x,y,1/2-z
-x,-y,-z
x,-y,1/2+z
1/2+x,1/2+y,z
1/2-x,1/2+y,1/2-z
1/2-x,1/2-y,-z
1/2+x,1/2-y,1/2+z
loop_
_atom_site_type_symbol
_atom_site_label
_atom_site_fract_x
_atom_site_fract_y
_atom_site_fract_z
Si Si1 0.307228 0.348507 0.487534
Si Si2 0.556539 0.400204 0.498390
Si Si3 0.363789 0.079668 0.256927
Si Si4 0.702340 0.702051 0.135495
Si Si5 0.724276 0.884526 0.251595
O O1 0.250000 0.250000 0.500000
O O2 0.446199 0.338563 0.485275
O O3 0.228611 0.405733 0.605454
O O4 0.289781 0.387256 0.360408
O O5 0.500000 0.500000 0.500000
O O6 0.600060 0.367070 0.616050
O O7 0.670884 0.396109 0.377512
O O8 0.500000 0.108841 0.250000
O O9 0.306246 0.141873 0.169062
O O10 0.362630 0.972117 0.227054
O O11 0.667694 0.785156 0.235407
O O12 0.750000 0.750000 0.000000
#
# Coordination Sequence:
#
# PCOD9299723 Si02
#       5
#     8   8   8   8   8
#     4  12  26  44  72 107 140 189 238 294 366 423
#     4  11  23  47  76 103 141 183 243 300 349 429
#     4  12  28  48  70 103 147 190 239 297 363 438
#     4  10  25  45  71 104 140 186 234 295 360 416
#     4  11  25  48  70 107 142 186 239 296 361 425
#
# _framework density 22.188960000000002
#
# number of rings (size 3 to 8) (size 9 to 14) (size 15 to 20)
#    0.000    0.800    4.000    1.800    8.400    3.200 
#    0.000    0.000    0.000    0.000    0.000    0.000 
#    0.000    0.000    0.000    0.000    0.000    0.000 
#
# Total GULP energy -111802.427913 kJ/mol
# GULP energy per Si atom -5590.121396 kJ/mol
# Density = 2.213846 g / cm^3
# Si number density = 22.188960 Si / 1000 Ang^3
#
#
#
# Elastic Constant Matrix: (Units=GPa)
#
#
# Indices 1 2 3 4 5 6 
#
# 1 119.8522 61.3449 46.1858 0.0000 48.7619 0.0000
# 2 61.3449 139.7404 17.0989 0.0000 30.0267 0.0000
# 3 46.1858 17.0989 99.5092 0.0000 25.0280 0.0000
# 4 0.0000 0.0000 0.0000 15.9731 0.0000 2.0376
# 5 48.7619 30.0267 25.0280 0.0000 41.0745 0.0000
# 6 0.0000 0.0000 0.0000 2.0376 0.0000 39.8285
#
#
#
# Elastic Compliance Matrix: (Units=1/GPa)
#
#
# Indices 1 2 3 4 5 6 
#
# 1 0.018856 -0.004152 -0.003746 0.000000 -0.017068 0.000000
# 2 -0.004152 0.009405 0.000945 0.000000 -0.002522 0.000000
# 3 -0.003746 0.000945 0.012614 0.000000 -0.003931 0.000000
# 4 0.000000 0.000000 0.000000 0.063016 0.000000 -0.003224
# 5 -0.017068 -0.002522 -0.003931 0.000000 0.048847 0.000000
# 6 0.000000 0.000000 0.000000 -0.003224 0.000000 0.025273
#
#
# Mechanical properties :
#
#
# Convention : Reuss Voigt Hill
#
# Bulk Modulus (GPa) = 37.07703 67.59566 52.33635
# Shear Modulus (GPa) = 24.88729 35.00671 29.94700
#
# Velocity S-wave (km/s) = 3.35267 3.97629 3.67772
# Velocity P-wave (km/s) = 5.63322 7.18408 6.45539
#
# Compressibility (1/GPa) = 0.02697088
#
# Stress axis : x y z
#
# Youngs Moduli (GPa) = 53.03319 106.32488 79.27743
#
# Poissons Ratio (x) = 0.44146 0.29694
# Poissons Ratio (y) = 0.22019 -0.07495
# Poissons Ratio (z) = 0.19864 -0.10052
#
# Static dielectric constant tensor:
#      x y z
#    x 2.142750 0.000000 0.230200 
#    y 0.000000 2.191060 0.000000 
#    z 0.230200 0.000000 1.993870 
# 
# From -- ./inp_files/76838.got.cif
#   From: 2010.05.17/outbox.cif.g08.bks.cpg/sg15_39_cif.got.tgz:76838.got - 2010.06.03 18:47:42.
