data_PCOD9299177
_publ_section_title
;
Structure prediction by ZEFSAII (Michael W. Deem and Ramdas Pophale) SiO2 
 PCOD9299177
Probable space group: C 2/C
;
_chemical_formula_sum "Si O2"
_cell_formula_units_Z 24
_cell_length_a 9.043109
_cell_length_b 25.857303
_cell_length_c 5.155685
_cell_angle_alpha 90.000000
_cell_angle_beta 121.555574
_cell_angle_gamma 90.000000
_cell_volume 1027.293955
_symmetry_space_group_name_H-M "C 2/C"
_symmetry_group_IT_number 15
_symmetry_cell_setting 'monoclinic'
loop_
_space_group_symop_operation_xyz
x,y,z
-x,y,1/2-z
-x,-y,-z
x,-y,1/2+z
1/2+x,1/2+y,z
1/2-x,1/2+y,1/2-z
1/2-x,1/2-y,-z
1/2+x,1/2-y,1/2+z
loop_
_atom_site_type_symbol
_atom_site_label
_atom_site_fract_x
_atom_site_fract_y
_atom_site_fract_z
Si Si1 0.315515 0.145102 0.436742
Si Si2 0.209518 0.971254 0.921521
Si Si3 0.000000 0.712485 0.250000
Si Si4 0.500000 0.284870 0.750000
O O1 0.261725 0.085676 0.379775
O O2 0.345810 0.173535 0.189622
O O3 0.166453 0.178611 0.436078
O O4 0.500000 0.147478 0.750000
O O5 0.000000 0.972587 0.750000
O O6 0.271590 0.012237 0.763201
O O7 0.025818 0.749058 0.521886
#
# Coordination Sequence:
#
# PCOD9299177 Si02
#       4
#     8   8   4   4
#     4  12  28  47  76 110 143 192 242 295 360 424
#     4  10  24  47  74 103 141 187 236 292 362 428
#     4  12  28  48  72 110 146 192 244 292 358 422
#     4  12  28  50  72 102 154 194 236 296 352 430
#
# _framework density 23.362349999999999
#
# number of rings (size 3 to 8) (size 9 to 14) (size 15 to 20)
#    0.000    0.667    3.333    2.000    9.333    1.333 
#    0.000    0.000    0.000    0.000    0.000    0.000 
#    0.000    0.000    0.000    0.000    0.000    0.000 
#
# Total GULP energy -67181.876672 kJ/mol
# GULP energy per Si atom -5598.489723 kJ/mol
# Density = 2.330918 g / cm^3
# Si number density = 23.362350 Si / 1000 Ang^3
#
#
#
# Elastic Constant Matrix: (Units=GPa)
#
#
# Indices 1 2 3 4 5 6 
#
# 1 108.8498 60.1705 46.9215 0.0000 -12.8703 0.0000
# 2 60.1705 172.1205 32.9859 0.0000 -26.7142 0.0000
# 3 46.9215 32.9859 97.4099 0.0000 -24.7933 0.0000
# 4 0.0000 0.0000 0.0000 7.4606 0.0000 2.4171
# 5 -12.8703 -26.7142 -24.7933 0.0000 30.9854 0.0000
# 6 0.0000 0.0000 0.0000 2.4171 0.0000 63.8234
#
#
#
# Elastic Compliance Matrix: (Units=1/GPa)
#
#
# Indices 1 2 3 4 5 6 
#
# 1 0.013639 -0.004035 -0.005836 0.000000 -0.002483 0.000000
# 2 -0.004035 0.007980 0.000711 0.000000 0.005773 0.000000
# 3 -0.005836 0.000711 0.015540 0.000000 0.010623 0.000000
# 4 0.000000 0.000000 0.000000 0.135703 0.000000 -0.005139
# 5 -0.002483 0.005773 0.010623 0.000000 0.044719 0.000000
# 6 0.000000 0.000000 0.000000 -0.005139 0.000000 0.015863
#
#
# Mechanical properties :
#
#
# Convention : Reuss Voigt Hill
#
# Bulk Modulus (GPa) = 53.07922 73.17067 63.12494
# Shear Modulus (GPa) = 19.37648 36.34070 27.85859
#
# Velocity S-wave (km/s) = 2.88304 3.94829 3.45694
# Velocity P-wave (km/s) = 5.81823 7.22311 6.55839
#
# Compressibility (1/GPa) = 0.01883977
#
# Stress axis : x y z
#
# Youngs Moduli (GPa) = 73.31666 125.30878 64.34968
#
# Poissons Ratio (x) = 0.50564 0.37552
# Poissons Ratio (y) = 0.29584 -0.04573
# Poissons Ratio (z) = 0.42784 -0.08905
#
# Static dielectric constant tensor:
#      x y z
#    x 1.904260 0.000000 0.005020 
#    y 0.000000 1.829330 0.000000 
#    z 0.005020 0.000000 1.901690 
# 
# From -- ./inp_files/1482.got.cif
#   From: 2010.05.17/outbox.cif.g08.bks.cpg/sg15_1_cif.got.tgz:1482.got - 2010.06.03 18:47:42.
