data_PCOD9299718
_publ_section_title
;
Structure prediction by ZEFSAII (Michael W. Deem and Ramdas Pophale) SiO2 
 PCOD9299718
Probable space group: C 2/C
;
_chemical_formula_sum "Si O2"
_cell_formula_units_Z 40
_cell_length_a 19.232854
_cell_length_b 4.851211
_cell_length_c 31.804156
_cell_angle_alpha 90.000000
_cell_angle_beta 147.211624
_cell_angle_gamma 90.000000
_cell_volume 1606.965097
_symmetry_space_group_name_H-M "C 2/C"
_symmetry_group_IT_number 15
_symmetry_cell_setting 'monoclinic'
loop_
_space_group_symop_operation_xyz
x,y,z
-x,y,1/2-z
-x,-y,-z
x,-y,1/2+z
1/2+x,1/2+y,z
1/2-x,1/2+y,1/2-z
1/2-x,1/2-y,-z
1/2+x,1/2-y,1/2+z
loop_
_atom_site_type_symbol
_atom_site_label
_atom_site_fract_x
_atom_site_fract_y
_atom_site_fract_z
Si Si1 0.530090 0.924707 0.155935
Si Si2 0.152582 0.081714 0.331327
Si Si3 0.998942 0.072475 0.916626
Si Si4 0.778857 0.331868 0.562919
Si Si5 0.744600 0.080194 0.329770
O O1 0.521557 0.615068 0.135244
O O2 0.659683 0.994352 0.246357
O O3 0.519267 0.116476 0.109098
O O4 0.410119 0.995119 0.125310
O O5 0.197819 0.936952 0.397028
O O6 0.217749 0.894394 0.328136
O O7 0.000000 0.052992 0.250000
O O8 0.190829 0.393060 0.340407
O O9 0.891188 0.986119 0.894680
O O10 0.143153 0.032162 0.006256
O O11 0.750000 0.250000 0.500000
#
# Coordination Sequence:
#
# PCOD9299718 Si02
#       5
#     8   8   8   8   8
#     4  11  22  43  69 100 138 181 226 274 334 409
#     4  12  26  45  69  99 134 181 227 282 337 407
#     4  11  24  42  68 104 137 177 224 281 340 400
#     4  10  25  45  70  99 136 181 226 275 337 405
#     4  12  25  42  71  99 139 176 227 282 340 398
#
# _framework density 24.891642000000001
#
# number of rings (size 3 to 8) (size 9 to 14) (size 15 to 20)
#    0.000    0.800    2.000    4.800    2.800    4.800 
#    0.000    0.000    0.000    0.000    0.000    0.000 
#    0.000    0.000    0.000    0.000    0.000    0.000 
#
# Total GULP energy -112188.903585 kJ/mol
# GULP energy per Si atom -5609.445179 kJ/mol
# Density = 2.483499 g / cm^3
# Si number density = 24.891642 Si / 1000 Ang^3
#
#
#
# Elastic Constant Matrix: (Units=GPa)
#
#
# Indices 1 2 3 4 5 6 
#
# 1 115.8675 -6.0125 16.3757 -0.0167 43.9468 0.0250
# 2 -6.0125 61.6006 -5.2051 -0.0285 5.3434 -0.0024
# 3 16.3757 -5.2051 101.5061 -0.0071 8.5144 0.0101
# 4 -0.0167 -0.0285 -0.0071 30.2986 0.0031 -12.0884
# 5 43.9468 5.3434 8.5144 0.0031 56.5520 -0.0131
# 6 0.0250 -0.0024 0.0101 -12.0884 -0.0131 45.2627
#
#
#
# Elastic Compliance Matrix: (Units=1/GPa)
#
#
# Indices 1 2 3 4 5 6 
#
# 1 0.012617 0.001990 -0.001109 0.000007 -0.009826 -0.000008
# 2 0.001990 0.016779 0.000812 0.000019 -0.003254 0.000004
# 3 -0.001109 0.000812 0.010134 0.000002 -0.000741 -0.000001
# 4 0.000007 0.000019 0.000002 0.036941 -0.000007 0.009866
# 5 -0.009826 -0.003254 -0.000741 -0.000007 0.025738 0.000011
# 6 -0.000008 0.000004 -0.000001 0.009866 0.000011 0.024728
#
#
# Mechanical properties :
#
#
# Convention : Reuss Voigt Hill
#
# Bulk Modulus (GPa) = 23.30083 32.14339 27.72211
# Shear Modulus (GPa) = 36.26946 44.67706 40.47326
#
# Velocity S-wave (km/s) = 3.82133 4.24118 4.03672
# Velocity P-wave (km/s) = 5.37134 6.07658 5.73481
#
# Compressibility (1/GPa) = 0.04291693
#
# Stress axis : x y z
#
# Youngs Moduli (GPa) = 79.25502 59.59914 98.67429
#
# Poissons Ratio (x) = -0.11861 0.10946
# Poissons Ratio (y) = -0.15773 -0.08015
# Poissons Ratio (z) = 0.08792 -0.04841
#
# Static dielectric constant tensor:
#      x y z
#    x 2.015030 -0.000010 -0.050590 
#    y -0.000010 1.903980 0.000020 
#    z -0.050590 0.000020 1.920820 
# 
# From -- ./inp_files/314959.got.cif
#   From: 2010.05.17/outbox.cif.g08.bks.cpg/sg15_158_cif.got.tgz:314959.got - 2010.06.03 18:47:42.
