data_PCOD9299712
_publ_section_title
;
Structure prediction by ZEFSAII (Michael W. Deem and Ramdas Pophale) SiO2 
 PCOD9299712
Probable space group: C 2/C
;
_chemical_formula_sum "Si O2"
_cell_formula_units_Z 64
_cell_length_a 9.569117
_cell_length_b 30.163812
_cell_length_c 9.598406
_cell_angle_alpha 90.000000
_cell_angle_beta 108.547312
_cell_angle_gamma 90.000000
_cell_volume 2626.598144
_symmetry_space_group_name_H-M "C 2/C"
_symmetry_group_IT_number 15
_symmetry_cell_setting 'monoclinic'
loop_
_space_group_symop_operation_xyz
x,y,z
-x,y,1/2-z
-x,-y,-z
x,-y,1/2+z
1/2+x,1/2+y,z
1/2-x,1/2+y,1/2-z
1/2-x,1/2-y,-z
1/2+x,1/2-y,1/2+z
loop_
_atom_site_type_symbol
_atom_site_label
_atom_site_fract_x
_atom_site_fract_y
_atom_site_fract_z
Si Si1 0.045390 0.785488 0.410106
Si Si2 0.826636 0.061241 0.187442
Si Si3 0.265244 0.821540 0.148609
Si Si4 0.152868 0.976415 0.117942
Si Si5 0.649032 0.150759 0.132457
Si Si6 0.641160 0.273238 0.721803
Si Si7 0.817580 0.349895 0.462964
Si Si8 0.628625 0.426437 0.368622
O O1 0.912261 0.818865 0.401918
O O2 0.000000 0.763736 0.250000
O O3 0.078011 0.756222 0.554174
O O4 0.196456 0.811715 0.441284
O O5 0.720302 0.102612 0.178468
O O6 0.000000 0.074840 0.250000
O O7 0.810180 0.024161 0.303305
O O8 0.803537 0.040371 0.022492
O O9 0.310064 0.769949 0.179597
O O10 0.332603 0.848547 0.299003
O O11 0.314839 0.838939 0.017345
O O12 0.216804 0.946591 0.266023
O O13 0.023660 0.036774 0.911448
O O14 0.733905 0.189566 0.242534
O O15 0.526736 0.152901 0.413854
O O16 0.500000 0.294895 0.750000
O O17 0.734084 0.394631 0.483886
O O18 0.500000 0.398282 0.250000
#
# Coordination Sequence:
#
# PCOD9299712 Si02
#       8
#     8   8   8   8   8   8   8   8
#     4  10  25  45  70 102 141 196 246 296 366 429
#     4  12  23  42  71 107 137 184 246 295 368 439
#     4  11  24  45  75 101 140 205 250 298 360 438
#     4   9  22  39  70 103 133 181 238 297 350 447
#     4  12  27  42  71 109 150 190 249 304 376 432
#     4  12  25  46  72 105 148 196 252 314 360 431
#     4  11  23  43  66 108 148 194 242 310 360 438
#     4   8  18  36  68  95 137 182 238 285 363 424
#
# _framework density 24.366119000000001
#
# number of rings (size 3 to 8) (size 9 to 14) (size 15 to 20)
#    0.750    0.500    2.500    4.125    3.500    2.500 
#    2.250    0.625    0.000    1.500    0.000    0.000 
#    0.000    0.000    0.000    0.000    0.000    0.000 
#
# Total GULP energy -178731.192014 kJ/mol
# GULP energy per Si atom -5585.349750 kJ/mol
# Density = 2.431066 g / cm^3
# Si number density = 24.366119 Si / 1000 Ang^3
#
#
#
# Elastic Constant Matrix: (Units=GPa)
#
#
# Indices 1 2 3 4 5 6 
#
# 1 140.7489 59.5977 34.7989 0.0000 32.7460 0.0000
# 2 59.5977 137.0264 50.6300 0.0000 18.1451 0.0000
# 3 34.7989 50.6300 183.7398 0.0000 2.2216 0.0000
# 4 0.0000 0.0000 0.0000 15.1273 0.0000 11.2872
# 5 32.7460 18.1451 2.2216 0.0000 31.1900 0.0000
# 6 0.0000 0.0000 0.0000 11.2872 0.0000 40.1185
#
#
#
# Elastic Compliance Matrix: (Units=1/GPa)
#
#
# Indices 1 2 3 4 5 6 
#
# 1 0.010907 -0.003066 -0.001105 0.000000 -0.009589 0.000000
# 2 -0.003066 0.009695 -0.002063 0.000000 -0.002274 0.000000
# 3 -0.001105 -0.002063 0.006197 0.000000 0.001919 0.000000
# 4 0.000000 0.000000 0.000000 0.083670 0.000000 -0.023540
# 5 -0.009589 -0.002274 0.001919 0.000000 0.043315 0.000000
# 6 0.000000 0.000000 0.000000 -0.023540 0.000000 0.031549
#
#
# Mechanical properties :
#
#
# Convention : Reuss Voigt Hill
#
# Bulk Modulus (GPa) = 69.77956 83.50759 76.64358
# Shear Modulus (GPa) = 24.68171 38.38639 31.53405
#
# Velocity S-wave (km/s) = 3.18614 3.97344 3.60137
# Velocity P-wave (km/s) = 6.49888 7.44294 6.98687
#
# Compressibility (1/GPa) = 0.01433084
#
# Stress axis : x y z
#
# Youngs Moduli (GPa) = 91.68281 103.14762 161.36589
#
# Poissons Ratio (x) = 0.31624 0.17831
# Poissons Ratio (y) = 0.28109 0.33294
# Poissons Ratio (z) = 0.10131 0.21282
#
# Static dielectric constant tensor:
#      x y z
#    x 1.947850 0.000000 -0.050520 
#    y 0.000000 1.985470 0.000000 
#    z -0.050520 0.000000 2.068170 
# 
# From -- ./inp_files/43564.got.cif
#   From: 2010.05.17/outbox.cif.g08.bks.cpg/sg15_22_cif.got.tgz:43564.got - 2010.06.03 18:47:42.
