data_PCOD9299879
_publ_section_title
;
Structure prediction by ZEFSAII (Michael W. Deem and Ramdas Pophale) SiO2 
 PCOD9299879
Probable space group: C 2/C
;
_chemical_formula_sum "Si O2"
_cell_formula_units_Z 44
_cell_length_a 11.651726
_cell_length_b 7.947633
_cell_length_c 21.125816
_cell_angle_alpha 90.000000
_cell_angle_beta 118.160039
_cell_angle_gamma 90.000000
_cell_volume 1724.762531
_symmetry_space_group_name_H-M "C 2/C"
_symmetry_group_IT_number 15
_symmetry_cell_setting 'monoclinic'
loop_
_space_group_symop_operation_xyz
x,y,z
-x,y,1/2-z
-x,-y,-z
x,-y,1/2+z
1/2+x,1/2+y,z
1/2-x,1/2+y,1/2-z
1/2-x,1/2-y,-z
1/2+x,1/2-y,1/2+z
loop_
_atom_site_type_symbol
_atom_site_label
_atom_site_fract_x
_atom_site_fract_y
_atom_site_fract_z
Si Si1 0.249405 0.379250 0.206917
Si Si2 0.652067 0.843411 0.522545
Si Si3 0.029170 0.190098 0.114652
Si Si4 0.500000 0.401552 0.750000
Si Si5 0.344068 0.628917 0.565996
Si Si6 0.093554 0.298367 0.649302
O O1 0.185043 0.219510 0.154148
O O2 0.373956 0.479190 0.213231
O O3 0.136169 0.516842 0.181622
O O4 0.303823 0.318448 0.288008
O O5 0.750000 0.750000 0.500000
O O6 0.526600 0.836597 0.445284
O O7 0.612153 0.770746 0.579377
O O8 0.730002 0.009482 0.561773
O O9 0.001355 0.195603 0.183354
O O10 0.953706 0.017450 0.073580
O O11 0.250000 0.750000 0.500000
O O12 0.444973 0.753065 0.626793
#
# Coordination Sequence:
#
# PCOD9299879 Si02
#       6
#     8   8   8   4   8   8
#     4  12  25  46  81 111 149 206 251 316 384 446
#     4  10  25  47  76 110 155 199 247 318 377 447
#     4  11  25  48  80 112 150 202 253 314 383 449
#     4  12  24  50  80 104 162 194 252 322 388 444
#     4  11  24  46  76 112 146 200 248 301 385 445
#     4  12  25  47  77 113 154 200 258 314 380 454
#
# _framework density 25.510757999999999
#
# number of rings (size 3 to 8) (size 9 to 14) (size 15 to 20)
#    0.000    0.727    3.636    3.273    0.000    7.273 
#    0.000    8.182    4.000    0.000    0.000    0.000 
#    0.000    0.000    0.000    0.000    0.000    0.000 
#
# Total GULP energy -122584.268577 kJ/mol
# GULP energy per Si atom -5572.012208 kJ/mol
# Density = 2.545269 g / cm^3
# Si number density = 25.510758 Si / 1000 Ang^3
#
#
#
# Elastic Constant Matrix: (Units=GPa)
#
#
# Indices 1 2 3 4 5 6 
#
# 1 112.8267 60.8122 77.0863 0.0000 19.7085 0.0000
# 2 60.8122 112.3072 73.5030 0.0000 22.4706 0.0000
# 3 77.0863 73.5030 244.0348 0.0000 31.0649 0.0000
# 4 0.0000 0.0000 0.0000 55.1650 0.0000 21.7009
# 5 19.7085 22.4706 31.0649 0.0000 68.2514 0.0000
# 6 0.0000 0.0000 0.0000 21.7009 0.0000 59.6900
#
#
#
# Elastic Compliance Matrix: (Units=1/GPa)
#
#
# Indices 1 2 3 4 5 6 
#
# 1 0.013795 -0.005609 -0.002544 0.000000 -0.000979 0.000000
# 2 -0.005609 0.013710 -0.002112 0.000000 -0.001933 0.000000
# 3 -0.002544 -0.002112 0.005685 0.000000 -0.001158 0.000000
# 4 0.000000 0.000000 0.000000 0.021153 0.000000 -0.007690
# 5 -0.000979 -0.001933 -0.001158 0.000000 0.016098 0.000000
# 6 0.000000 0.000000 0.000000 -0.007690 0.000000 0.019549
#
#
# Mechanical properties :
#
#
# Convention : Reuss Voigt Hill
#
# Bulk Modulus (GPa) = 78.98054 99.10796 89.04425
# Shear Modulus (GPa) = 43.57719 53.80577 48.69148
#
# Velocity S-wave (km/s) = 4.13751 4.59752 4.37357
# Velocity P-wave (km/s) = 7.33841 8.19248 7.77718
#
# Compressibility (1/GPa) = 0.01266135
#
# Stress axis : x y z
#
# Youngs Moduli (GPa) = 72.48814 72.93836 175.91358
#
# Poissons Ratio (x) = 0.40913 0.44745
# Poissons Ratio (y) = 0.40661 0.37145
# Poissons Ratio (z) = 0.18438 0.15401
#
# Static dielectric constant tensor:
#      x y z
#    x 2.092600 0.000000 -0.088710 
#    y 0.000000 2.107050 0.000000 
#    z -0.088710 0.000000 2.129590 
# 
# From -- ./inp_files/268146.got.cif
#   From: 2010.05.17/outbox.cif.g08.bks.cpg/sg15_135_cif.got.tgz:268146.got - 2010.06.03 18:47:42.
