data_PCOD9299473
_publ_section_title
;
Structure prediction by ZEFSAII (Michael W. Deem and Ramdas Pophale) SiO2 
 PCOD9299473
Probable space group: C 2/C
;
_chemical_formula_sum "Si O2"
_cell_formula_units_Z 64
_cell_length_a 26.519947
_cell_length_b 15.195950
_cell_length_c 12.533784
_cell_angle_alpha 90.000000
_cell_angle_beta 40.078622
_cell_angle_gamma 90.000000
_cell_volume 3252.066674
_symmetry_space_group_name_H-M "C 2/C"
_symmetry_group_IT_number 15
_symmetry_cell_setting 'monoclinic'
loop_
_space_group_symop_operation_xyz
x,y,z
-x,y,1/2-z
-x,-y,-z
x,-y,1/2+z
1/2+x,1/2+y,z
1/2-x,1/2+y,1/2-z
1/2-x,1/2-y,-z
1/2+x,1/2-y,1/2+z
loop_
_atom_site_type_symbol
_atom_site_label
_atom_site_fract_x
_atom_site_fract_y
_atom_site_fract_z
Si Si1 0.489006 0.261989 0.895602
Si Si2 0.214698 0.714693 0.670014
Si Si3 0.612218 0.625269 0.327168
Si Si4 0.638622 0.976566 0.271882
Si Si5 0.013528 0.439424 0.103986
Si Si6 0.697838 0.457972 0.081609
Si Si7 0.329764 0.358773 0.160480
Si Si8 0.585407 0.524269 0.577626
O O1 0.500000 0.262982 0.750000
O O2 0.553949 0.325202 0.841672
O O3 0.491006 0.160962 0.930568
O O4 0.405131 0.300230 0.061078
O O5 0.250000 0.750000 0.500000
O O6 0.165596 0.797843 0.787454
O O7 0.164015 0.625923 0.735283
O O8 0.275665 0.690878 0.663525
O O9 0.662919 0.550588 0.184598
O O10 0.571049 0.581204 0.494863
O O11 0.563199 0.988135 0.317531
O O12 0.597342 0.015289 0.444571
O O13 0.717282 0.025858 0.108062
O O14 0.000000 0.434446 0.250000
O O15 0.704393 0.392863 0.171983
O O16 0.633848 0.430805 0.095482
O O17 0.360262 0.444562 0.048200
O O18 0.500000 0.491977 0.750000
#
# Coordination Sequence:
#
# PCOD9299473 Si02
#       8
#     8   8   8   8   8   8   8   8
#     4  11  21  39  63  94 130 163 219 263 311 377
#     4  12  22  41  66  95 124 162 223 266 314 373
#     4  11  23  39  65  93 122 170 214 263 315 381
#     4  11  23  43  65  93 128 166 220 262 325 374
#     4  10  25  41  67  93 126 173 214 268 315 381
#     4  11  23  41  64  94 130 166 212 267 326 392
#     4  11  24  37  64  98 126 168 210 270 321 379
#     4  11  22  40  61  92 130 170 204 256 326 390
#
# _framework density 19.679794999999999
#
# number of rings (size 3 to 8) (size 9 to 14) (size 15 to 20)
#    0.000    1.000    3.750    3.375    3.500    3.000 
#    0.000    4.375    0.000    0.000    0.000    0.000 
#    0.000    0.000    0.000    0.000    0.000    0.000 
#
# Total GULP energy -178614.903170 kJ/mol
# GULP energy per Si atom -5581.715724 kJ/mol
# Density = 1.963500 g / cm^3
# Si number density = 19.679795 Si / 1000 Ang^3
#
#
#
# Elastic Constant Matrix: (Units=GPa)
#
#
# Indices 1 2 3 4 5 6 
#
# 1 78.4134 21.9083 31.0918 0.0000 1.3240 0.0000
# 2 21.9083 58.2708 37.6369 0.0000 3.6250 0.0000
# 3 31.0918 37.6369 112.7473 0.0000 -4.5386 0.0000
# 4 0.0000 0.0000 0.0000 18.9885 0.0000 -4.0144
# 5 1.3240 3.6250 -4.5386 0.0000 28.5838 0.0000
# 6 0.0000 0.0000 0.0000 -4.0144 0.0000 33.5369
#
#
#
# Elastic Compliance Matrix: (Units=1/GPa)
#
#
# Indices 1 2 3 4 5 6 
#
# 1 0.014954 -0.003695 -0.002918 0.000000 -0.000687 0.000000
# 2 -0.003695 0.023246 -0.006897 0.000000 -0.003872 0.000000
# 3 -0.002918 -0.006897 0.012094 0.000000 0.002930 0.000000
# 4 0.000000 0.000000 0.000000 0.054031 0.000000 0.006468
# 5 -0.000687 -0.003872 0.002930 0.000000 0.035973 0.000000
# 6 0.000000 0.000000 0.000000 0.006468 0.000000 0.030592
#
#
# Mechanical properties :
#
#
# Convention : Reuss Voigt Hill
#
# Bulk Modulus (GPa) = 42.96493 47.85616 45.41054
# Shear Modulus (GPa) = 24.31108 26.80815 25.55961
#
# Velocity S-wave (km/s) = 3.51854 3.69483 3.60776
# Velocity P-wave (km/s) = 6.19566 6.52476 6.36234
#
# Compressibility (1/GPa) = 0.02327480
#
# Stress axis : x y z
#
# Youngs Moduli (GPa) = 66.87234 43.01827 82.68334
#
# Poissons Ratio (x) = 0.15894 0.24127
# Poissons Ratio (y) = 0.24708 0.57026
# Poissons Ratio (z) = 0.19514 0.29669
#
# Static dielectric constant tensor:
#      x y z
#    x 1.726510 0.000000 0.018830 
#    y 0.000000 1.716570 0.000000 
#    z 0.018830 0.000000 1.704980 
# 
# From -- ./inp_files/123502.got.cif
#   From: 2010.05.17/outbox.cif.g08.bks.cpg/sg15_62_cif.got.tgz:123502.got - 2010.06.03 18:47:42.
