data_PCOD9299890
_publ_section_title
;
Structure prediction by ZEFSAII (Michael W. Deem and Ramdas Pophale) SiO2 
 PCOD9299890
Probable space group: C 2/C
;
_chemical_formula_sum "Si O2"
_cell_formula_units_Z 28
_cell_length_a 12.634475
_cell_length_b 8.396208
_cell_length_c 8.645034
_cell_angle_alpha 90.000000
_cell_angle_beta 87.116315
_cell_angle_gamma 90.000000
_cell_volume 915.918454
_symmetry_space_group_name_H-M "C 2/C"
_symmetry_group_IT_number 15
_symmetry_cell_setting 'monoclinic'
loop_
_space_group_symop_operation_xyz
x,y,z
-x,y,1/2-z
-x,-y,-z
x,-y,1/2+z
1/2+x,1/2+y,z
1/2-x,1/2+y,1/2-z
1/2-x,1/2-y,-z
1/2+x,1/2-y,1/2+z
loop_
_atom_site_type_symbol
_atom_site_label
_atom_site_fract_x
_atom_site_fract_y
_atom_site_fract_z
Si Si1 0.332612 0.473015 0.693020
Si Si2 0.250000 0.250000 0.000000
Si Si3 0.999592 0.707324 0.917197
Si Si4 0.661995 0.216314 0.137379
O O1 0.258074 0.566912 0.579722
O O2 0.427277 0.364363 0.626510
O O3 0.373678 0.612120 0.798803
O O4 0.237838 0.355660 0.771226
O O5 0.382676 0.252355 0.971884
O O6 0.000000 0.624818 0.750000
O O7 0.064512 0.636131 0.056888
O O8 0.750000 0.250000 0.000000
#
# Coordination Sequence:
#
# PCOD9299890 Si02
#       4
#     8   4   8   8
#     4  11  26  47  82 118 167 223 280 348 424 495
#     4  12  26  46  78 122 160 222 280 338 418 508
#     4  11  27  49  81 118 169 221 273 345 424 500
#     4  10  25  47  81 120 168 217 284 347 419 506
#
# _framework density 30.570405999999998
#
# number of rings (size 3 to 8) (size 9 to 14) (size 15 to 20)
#    0.000    1.143    0.000    4.286   20.000    1.143 
#    0.000    0.000    0.000    0.000    0.000    0.000 
#    0.000    0.000    0.000    0.000    0.000    0.000 
#
# Total GULP energy -78183.386345 kJ/mol
# GULP energy per Si atom -5584.527596 kJ/mol
# Density = 3.050083 g / cm^3
# Si number density = 30.570406 Si / 1000 Ang^3
#
#
#
# Elastic Constant Matrix: (Units=GPa)
#
#
# Indices 1 2 3 4 5 6 
#
# 1 324.5530 61.1438 84.4739 0.0000 16.5609 0.0000
# 2 61.1438 117.0507 42.4330 0.0000 -0.3457 0.0000
# 3 84.4739 42.4330 132.9918 0.0000 19.5739 0.0000
# 4 0.0000 0.0000 0.0000 66.6139 0.0000 -14.2001
# 5 16.5609 -0.3457 19.5739 0.0000 86.0146 0.0000
# 6 0.0000 0.0000 0.0000 -14.2001 0.0000 13.7416
#
#
#
# Elastic Compliance Matrix: (Units=1/GPa)
#
#
# Indices 1 2 3 4 5 6 
#
# 1 0.003859 -0.001293 -0.001995 0.000000 -0.000294 0.000000
# 2 -0.001293 0.010143 -0.002543 0.000000 0.000868 0.000000
# 3 -0.001995 -0.002543 0.009874 0.000000 -0.001873 0.000000
# 4 0.000000 0.000000 0.000000 0.019253 0.000000 0.019895
# 5 -0.000294 0.000868 -0.001873 0.000000 0.012112 0.000000
# 6 0.000000 0.000000 0.000000 0.019895 0.000000 0.093331
#
#
# Mechanical properties :
#
#
# Convention : Reuss Voigt Hill
#
# Bulk Modulus (GPa) = 81.87783 105.63297 93.75540
# Shear Modulus (GPa) = 30.43103 59.04366 44.73734
#
# Velocity S-wave (km/s) = 3.15848 4.39954 3.82962
# Velocity P-wave (km/s) = 6.33584 7.77412 7.09154
#
# Compressibility (1/GPa) = 0.01221332
#
# Stress axis : x y z
#
# Youngs Moduli (GPa) = 259.12239 98.58747 101.28084
#
# Poissons Ratio (x) = 0.12752 0.20208
# Poissons Ratio (y) = 0.33517 0.25752
# Poissons Ratio (z) = 0.51702 0.25067
#
# Static dielectric constant tensor:
#      x y z
#    x 2.249590 0.000000 0.076780 
#    y 0.000000 2.587980 0.000000 
#    z 0.076780 0.000000 1.736380 
# 
# From -- ./inp_files/83207.got.cif
#   From: 2010.05.17/outbox.cif.g08.bks.cpg/sg15_42_cif.got.tgz:83207.got - 2010.06.03 18:47:42.
