data_PCOD9299287
_publ_section_title
;
Structure prediction by ZEFSAII (Michael W. Deem and Ramdas Pophale) SiO2 
 PCOD9299287
Probable space group: C 2/C
;
_chemical_formula_sum "Si O2"
_cell_formula_units_Z 56
_cell_length_a 21.106403
_cell_length_b 14.062921
_cell_length_c 8.465924
_cell_angle_alpha 90.000000
_cell_angle_beta 121.106784
_cell_angle_gamma 90.000000
_cell_volume 2151.504975
_symmetry_space_group_name_H-M "C 2/C"
_symmetry_group_IT_number 15
_symmetry_cell_setting 'monoclinic'
loop_
_space_group_symop_operation_xyz
x,y,z
-x,y,1/2-z
-x,-y,-z
x,-y,1/2+z
1/2+x,1/2+y,z
1/2-x,1/2+y,1/2-z
1/2-x,1/2-y,-z
1/2+x,1/2-y,1/2+z
loop_
_atom_site_type_symbol
_atom_site_label
_atom_site_fract_x
_atom_site_fract_y
_atom_site_fract_z
Si Si1 0.685496 0.960772 0.314929
Si Si2 0.649604 0.525648 0.938679
Si Si3 0.013794 0.293565 0.041924
Si Si4 0.605198 0.884157 0.906422
Si Si5 0.370257 0.192333 0.547062
Si Si6 0.324868 0.284619 0.182677
Si Si7 0.052583 0.088824 0.094326
O O1 0.663459 0.913908 0.119925
O O2 0.683602 0.888100 0.459500
O O3 0.767479 0.999699 0.408393
O O4 0.624317 0.038323 0.295317
O O5 0.659034 0.604880 0.814979
O O6 0.598215 0.438217 0.812901
O O7 0.611835 0.583353 0.031181
O O8 0.034697 0.365117 0.929656
O O9 0.089836 0.276280 0.240376
O O10 0.000998 0.181340 0.003153
O O11 0.945390 0.336473 0.050107
O O12 0.617376 0.783004 0.836722
O O13 0.327242 0.257863 0.369864
O O14 0.250000 0.250000 0.000000
O O15 0.000000 0.000000 0.000000
#
# Coordination Sequence:
#
# PCOD9299287 Si02
#       7
#     8   8   8   8   8   8   8
#     4  11  24  45  72 103 145 184 242 291 357 422
#     4  12  27  43  72 103 143 188 231 296 358 423
#     4  10  24  48  73 102 145 188 243 290 357 422
#     4  11  23  45  72 104 141 185 235 297 349 428
#     4  10  25  44  73 103 141 191 237 296 347 432
#     4  12  25  44  70 104 145 185 236 293 367 422
#     4  12  27  45  71 104 142 186 235 291 358 432
#
# _framework density 26.028289999999998
#
# number of rings (size 3 to 8) (size 9 to 14) (size 15 to 20)
#    0.000    0.857    2.857    3.000    8.000    1.143 
#    0.000    5.714    0.000    0.000    0.000    0.000 
#    0.000    0.000    0.000    0.000    0.000    0.000 
#
# Total GULP energy -156519.300939 kJ/mol
# GULP energy per Si atom -5589.975034 kJ/mol
# Density = 2.596905 g / cm^3
# Si number density = 26.028290 Si / 1000 Ang^3
#
#
#
# Elastic Constant Matrix: (Units=GPa)
#
#
# Indices 1 2 3 4 5 6 
#
# 1 45.2568 4.8025 -13.9175 0.0000 -15.4269 0.0000
# 2 4.8025 62.8975 36.0240 0.0000 -17.6960 0.0000
# 3 -13.9175 36.0240 140.6552 0.0000 -2.8884 0.0000
# 4 0.0000 0.0000 0.0000 48.4236 0.0000 4.2040
# 5 -15.4269 -17.6960 -2.8884 0.0000 32.1541 0.0000
# 6 0.0000 0.0000 0.0000 4.2040 0.0000 27.5876
#
#
#
# Elastic Compliance Matrix: (Units=1/GPa)
#
#
# Indices 1 2 3 4 5 6 
#
# 1 0.027634 -0.000041 0.003022 0.000000 0.013508 0.000000
# 2 -0.000041 0.022365 -0.005490 0.000000 0.011796 0.000000
# 3 0.003022 -0.005490 0.008799 0.000000 -0.000781 0.000000
# 4 0.000000 0.000000 0.000000 0.020928 0.000000 -0.003189
# 5 0.013508 0.011796 -0.000781 0.000000 0.044003 0.000000
# 6 0.000000 0.000000 0.000000 -0.003189 0.000000 0.036734
#
#
# Mechanical properties :
#
#
# Convention : Reuss Voigt Hill
#
# Bulk Modulus (GPa) = 18.59385 33.62526 26.10955
# Shear Modulus (GPa) = 27.26189 36.42641 31.84415
#
# Velocity S-wave (km/s) = 3.23986 3.74504 3.50157
# Velocity P-wave (km/s) = 4.59943 5.62558 5.13819
#
# Compressibility (1/GPa) = 0.05378124
#
# Stress axis : x y z
#
# Youngs Moduli (GPa) = 36.18710 44.71273 113.65438
#
# Poissons Ratio (x) = 0.00181 -0.34348
# Poissons Ratio (y) = 0.00147 0.62394
# Poissons Ratio (z) = -0.10936 0.24546
#
# Static dielectric constant tensor:
#      x y z
#    x 2.049380 0.000000 0.018270 
#    y 0.000000 2.155900 0.000000 
#    z 0.018270 0.000000 2.188270 
# 
# From -- ./inp_files/61985.got.cif
#   From: 2010.05.17/outbox.cif.g08.bks.cpg/sg15_31_cif.got.tgz:61985.got - 2010.06.03 18:47:42.
