data_PCOD9299871
_publ_section_title
;
Structure prediction by ZEFSAII (Michael W. Deem and Ramdas Pophale) SiO2 
 PCOD9299871
Probable space group: C 2/C
;
_chemical_formula_sum "Si O2"
_cell_formula_units_Z 32
_cell_length_a 13.005148
_cell_length_b 6.174862
_cell_length_c 20.440010
_cell_angle_alpha 90.000000
_cell_angle_beta 47.083022
_cell_angle_gamma 90.000000
_cell_volume 1202.090317
_symmetry_space_group_name_H-M "C 2/C"
_symmetry_group_IT_number 15
_symmetry_cell_setting 'monoclinic'
loop_
_space_group_symop_operation_xyz
x,y,z
-x,y,1/2-z
-x,-y,-z
x,-y,1/2+z
1/2+x,1/2+y,z
1/2-x,1/2+y,1/2-z
1/2-x,1/2-y,-z
1/2+x,1/2-y,1/2+z
loop_
_atom_site_type_symbol
_atom_site_label
_atom_site_fract_x
_atom_site_fract_y
_atom_site_fract_z
Si Si1 0.405761 0.664727 0.353636
Si Si2 0.839225 0.356345 0.020067
Si Si3 0.916591 0.185041 0.657802
Si Si4 0.695676 0.050055 0.175308
O O1 0.500000 0.604078 0.250000
O O2 0.247841 0.572130 0.426997
O O3 0.493151 0.537734 0.371732
O O4 0.381445 0.919063 0.349871
O O5 0.814668 0.196926 0.091163
O O6 0.750000 0.250000 0.000000
O O7 0.997601 0.346974 0.926657
O O8 0.890405 0.295718 0.738998
O O9 0.768215 0.126702 0.690390
#
# Coordination Sequence:
#
# PCOD9299871 Si02
#       4
#     8   8   8   8
#     4  11  24  46  72 102 148 196 239 306 372 432
#     4  10  25  47  73 113 147 193 255 302 373 451
#     4  11  26  49  75 114 145 197 253 305 378 446
#     4  12  26  50  74 108 153 195 250 312 370 451
#
# _framework density 26.620291999999999
#
# number of rings (size 3 to 8) (size 9 to 14) (size 15 to 20)
#    0.000    1.000    2.500    2.250    7.000    5.000 
#    4.500    0.000    0.000    0.000    0.000    0.000 
#    0.000    0.000    0.000    0.000    0.000    0.000 
#
# Total GULP energy -89465.390919 kJ/mol
# GULP energy per Si atom -5591.586932 kJ/mol
# Density = 2.655970 g / cm^3
# Si number density = 26.620292 Si / 1000 Ang^3
#
#
#
# Elastic Constant Matrix: (Units=GPa)
#
#
# Indices 1 2 3 4 5 6 
#
# 1 98.4362 47.3494 0.3555 0.0001 -6.1658 -0.0002
# 2 47.3494 101.9786 50.2039 0.0006 5.2661 0.0009
# 3 0.3555 50.2039 155.2262 0.0000 1.3736 -0.0002
# 4 0.0001 0.0006 0.0000 37.2813 -0.0003 3.3715
# 5 -6.1658 5.2661 1.3736 -0.0003 26.0517 0.0003
# 6 -0.0002 0.0009 -0.0002 3.3715 0.0003 48.2498
#
#
#
# Elastic Compliance Matrix: (Units=1/GPa)
#
#
# Indices 1 2 3 4 5 6 
#
# 1 0.014411 -0.008216 0.002581 0.000000 0.004936 0.000000
# 2 -0.008216 0.016470 -0.005264 0.000000 -0.004996 0.000000
# 3 0.002581 -0.005264 0.008128 0.000000 0.001246 0.000000
# 4 0.000000 0.000000 0.000000 0.026994 0.000000 -0.001886
# 5 0.004936 -0.004996 0.001246 0.000000 0.040498 0.000000
# 6 0.000000 0.000000 0.000000 -0.001886 0.000000 0.020857
#
#
# Mechanical properties :
#
#
# Convention : Reuss Voigt Hill
#
# Bulk Modulus (GPa) = 58.10642 61.27317 59.68980
# Shear Modulus (GPa) = 32.28027 39.49870 35.88948
#
# Velocity S-wave (km/s) = 3.48605 3.85617 3.67577
# Velocity P-wave (km/s) = 6.17079 6.54936 6.36289
#
# Compressibility (1/GPa) = 0.01720980
#
# Stress axis : x y z
#
# Youngs Moduli (GPa) = 69.39177 60.71517 123.03546
#
# Poissons Ratio (x) = 0.49886 -0.31752
# Poissons Ratio (y) = 0.57015 0.64764
# Poissons Ratio (z) = -0.17908 0.31960
#
# Static dielectric constant tensor:
#      x y z
#    x 2.093930 0.000000 -0.053320 
#    y 0.000000 2.088750 0.000000 
#    z -0.053320 0.000000 2.061980 
# 
# From -- ./inp_files/158269.got.cif
#   From: 2010.05.17/outbox.cif.g08.bks.cpg/sg15_80_cif.got.tgz:158269.got - 2010.06.03 18:47:42.
