data_PCOD9299356
_publ_section_title
;
Structure prediction by ZEFSAII (Michael W. Deem and Ramdas Pophale) SiO2 
 PCOD9299356
Probable space group: C 2/C
;
_chemical_formula_sum "Si O2"
_cell_formula_units_Z 32
_cell_length_a 7.771958
_cell_length_b 28.505100
_cell_length_c 6.902416
_cell_angle_alpha 90.000000
_cell_angle_beta 111.442287
_cell_angle_gamma 90.000000
_cell_volume 1423.325108
_symmetry_space_group_name_H-M "C 2/C"
_symmetry_group_IT_number 15
_symmetry_cell_setting 'monoclinic'
loop_
_space_group_symop_operation_xyz
x,y,z
-x,y,1/2-z
-x,-y,-z
x,-y,1/2+z
1/2+x,1/2+y,z
1/2-x,1/2+y,1/2-z
1/2-x,1/2-y,-z
1/2+x,1/2-y,1/2+z
loop_
_atom_site_type_symbol
_atom_site_label
_atom_site_fract_x
_atom_site_fract_y
_atom_site_fract_z
Si Si1 0.500000 0.274100 0.250000
Si Si2 0.000000 0.449974 0.250000
Si Si3 0.825969 0.204316 0.292338
Si Si4 0.329399 0.105160 0.324856
Si Si5 0.357427 0.489494 0.820119
O O1 0.656101 0.240023 0.225538
O O2 0.603143 0.302956 0.458484
O O3 0.836191 0.482025 0.266783
O O4 0.087840 0.417187 0.448508
O O5 0.767625 0.154676 0.181433
O O6 0.000000 0.224554 0.250000
O O7 0.500000 0.112753 0.250000
O O8 0.189723 0.065913 0.185363
O O9 0.406880 0.496378 0.586646
#
# Coordination Sequence:
#
# PCOD9299356 Si02
#       5
#     4   4   8   8   8
#     4  10  24  49  72  98 132 172 218 281 344 402
#     4  12  26  45  66  96 144 182 224 285 328 388
#     4  11  24  46  72 101 133 172 221 278 338 406
#     4  12  25  45  66 101 138 175 227 277 329 400
#     4  12  23  43  69  93 134 186 228 272 333 390
#
# _framework density 22.482564
#
# number of rings (size 3 to 8) (size 9 to 14) (size 15 to 20)
#    0.000    0.500    5.000    3.750    0.000    2.000 
#    4.500    0.000    0.000    0.000    0.000    0.000 
#    0.000    0.000    0.000    0.000    0.000    0.000 
#
# Total GULP energy -89479.480103 kJ/mol
# GULP energy per Si atom -5592.467506 kJ/mol
# Density = 2.243139 g / cm^3
# Si number density = 22.482564 Si / 1000 Ang^3
#
#
#
# Elastic Constant Matrix: (Units=GPa)
#
#
# Indices 1 2 3 4 5 6 
#
# 1 197.5156 32.8120 28.4543 0.0000 -12.3964 0.0000
# 2 32.8120 52.5514 14.4372 0.0000 12.3792 0.0000
# 3 28.4543 14.4372 81.3909 0.0000 20.9098 0.0000
# 4 0.0000 0.0000 0.0000 7.5424 0.0000 -27.4316
# 5 -12.3964 12.3792 20.9098 0.0000 47.6239 0.0000
# 6 0.0000 0.0000 0.0000 -27.4316 0.0000 -55.3686
#
#
#
# Elastic Compliance Matrix: (Units=1/GPa)
#
#
# Indices 1 2 3 4 5 6 
#
# 1 0.006354 -0.004192 -0.002460 0.000000 0.003824 0.000000
# 2 -0.004192 0.023508 -0.000963 0.000000 -0.006779 0.000000
# 3 -0.002460 -0.000963 0.015123 0.000000 -0.007030 0.000000
# 4 0.000000 0.000000 0.000000 0.047319 0.000000 -0.023444
# 5 0.003824 -0.006779 -0.007030 0.000000 0.026842 0.000000
# 6 0.000000 0.000000 0.000000 -0.023444 0.000000 -0.006446
#
#
# Mechanical properties :
#
#
# Convention : Reuss Voigt Hill
#
# Bulk Modulus (GPa) = 33.60748 53.65165 43.62957
# Shear Modulus (GPa) = 36.27194 17.00983 26.64088
#
# Velocity S-wave (km/s) = 4.02099 2.75358 3.44606
# Velocity P-wave (km/s) = 6.04471 5.83310 5.93985
#
# Compressibility (1/GPa) = 0.02975528
#
# Stress axis : x y z
#
# Youngs Moduli (GPa) = 157.39045 42.53923 66.12336
#
# Poissons Ratio (x) = 0.17832 0.16266
# Poissons Ratio (y) = 0.65977 0.06366
# Poissons Ratio (z) = 0.38717 0.04095
#
# Static dielectric constant tensor:
#      x y z
#    x 1.842700 0.000000 -0.112710 
#    y 0.000000 1.726300 0.000000 
#    z -0.112710 0.000000 2.093390 
# 
# From -- ./inp_files/2611.got.cif
#   From: 2010.05.17/outbox.cif.g08.bks.cpg/sg15_2_cif.got.tgz:2611.got - 2010.06.03 18:47:42.
