data_PCOD9299426
_publ_section_title
;
Structure prediction by ZEFSAII (Michael W. Deem and Ramdas Pophale) SiO2 
 PCOD9299426
Probable space group: C 2/C
;
_chemical_formula_sum "Si O2"
_cell_formula_units_Z 36
_cell_length_a 17.727245
_cell_length_b 14.002894
_cell_length_c 12.046128
_cell_angle_alpha 90.000000
_cell_angle_beta 27.931891
_cell_angle_gamma 90.000000
_cell_volume 1400.694682
_symmetry_space_group_name_H-M "C 2/C"
_symmetry_group_IT_number 15
_symmetry_cell_setting 'monoclinic'
loop_
_space_group_symop_operation_xyz
x,y,z
-x,y,1/2-z
-x,-y,-z
x,-y,1/2+z
1/2+x,1/2+y,z
1/2-x,1/2+y,1/2-z
1/2-x,1/2-y,-z
1/2+x,1/2-y,1/2+z
loop_
_atom_site_type_symbol
_atom_site_label
_atom_site_fract_x
_atom_site_fract_y
_atom_site_fract_z
Si Si1 0.500000 0.466801 0.750000
Si Si2 0.571594 0.045947 0.520383
Si Si3 0.727689 0.400548 0.097368
Si Si4 0.207927 0.334795 0.138068
Si Si5 0.101986 0.301025 0.831509
O O1 0.412754 0.535582 0.775328
O O2 0.637597 0.395097 0.526167
O O3 0.406551 0.091826 0.782089
O O4 0.671564 0.137224 0.344777
O O5 0.500000 0.000000 0.500000
O O6 0.327595 0.966770 0.049798
O O7 0.657128 0.306621 0.246568
O O8 0.842625 0.357494 0.850597
O O9 0.087294 0.301621 0.391759
O O10 0.250000 0.250000 0.000000
#
# Coordination Sequence:
#
# PCOD9299426 Si02
#       5
#     4   8   8   8   8
#     4  12  28  48  82 130 166 228 284 342 452 502
#     4  10  24  51  87 121 168 233 286 352 440 510
#     4  11  25  54  88 125 175 221 295 368 422 540
#     4  10  26  55  78 124 175 221 289 350 427 526
#     4   9  25  52  88 126 170 227 288 350 448 500
#
# _framework density 25.701530000000002
#
# number of rings (size 3 to 8) (size 9 to 14) (size 15 to 20)
#    1.333    0.444    0.000    1.333    0.000   12.444 
#   12.000    5.556    0.000    0.000    0.000    0.000 
#    0.000    0.000    0.000    0.000    0.000    0.000 
#
# Total GULP energy -100752.411086 kJ/mol
# GULP energy per Si atom -5597.356171 kJ/mol
# Density = 2.564303 g / cm^3
# Si number density = 25.701530 Si / 1000 Ang^3
#
#
#
# Elastic Constant Matrix: (Units=GPa)
#
#
# Indices 1 2 3 4 5 6 
#
# 1 164.1365 121.6820 79.4959 0.0000 -34.3823 0.0000
# 2 121.6820 274.3643 142.6507 0.0000 -6.3471 0.0000
# 3 79.4959 142.6507 207.0592 0.0000 -7.0368 0.0000
# 4 0.0000 0.0000 0.0000 71.1853 0.0000 2.8949
# 5 -34.3823 -6.3471 -7.0368 0.0000 31.0632 0.0000
# 6 0.0000 0.0000 0.0000 2.8949 0.0000 40.9220
#
#
#
# Elastic Compliance Matrix: (Units=1/GPa)
#
#
# Indices 1 2 3 4 5 6 
#
# 1 0.013025 -0.004838 -0.001221 0.000000 0.013152 0.000000
# 2 -0.004838 0.007478 -0.003451 0.000000 -0.004608 0.000000
# 3 -0.001221 -0.003451 0.007665 0.000000 -0.000320 0.000000
# 4 0.000000 0.000000 0.000000 0.014088 0.000000 -0.000997
# 5 0.013152 -0.004608 -0.000320 0.000000 0.045735 0.000000
# 6 0.000000 0.000000 0.000000 -0.000997 0.000000 0.024507
#
#
# Mechanical properties :
#
#
# Convention : Reuss Voigt Hill
#
# Bulk Modulus (GPa) = 109.30509 148.13526 128.72017
# Shear Modulus (GPa) = 37.15572 48.74953 42.95263
#
# Velocity S-wave (km/s) = 3.80631 4.35990 4.09248
# Velocity P-wave (km/s) = 7.87009 9.11630 8.51602
#
# Compressibility (1/GPa) = 0.00914870
#
# Stress axis : x y z
#
# Youngs Moduli (GPa) = 76.77424 133.72314 130.46158
#
# Poissons Ratio (x) = 0.64691 0.15928
# Poissons Ratio (y) = 0.37141 0.45026
# Poissons Ratio (z) = 0.09373 0.46151
#
# Static dielectric constant tensor:
#      x y z
#    x 2.168350 0.000000 0.091300 
#    y 0.000000 2.093070 0.000000 
#    z 0.091300 0.000000 2.107880 
# 
# From -- ./inp_files/225250.got.cif
#   From: 2010.05.17/outbox.cif.g08.bks.cpg/sg15_113_cif.got.tgz:225250.got - 2010.06.03 18:47:42.
