data_PCOD9299692
_publ_section_title
;
Structure prediction by ZEFSAII (Michael W. Deem and Ramdas Pophale) SiO2 
 PCOD9299692
Probable space group: C 2/C
;
_chemical_formula_sum "Si O2"
_cell_formula_units_Z 52
_cell_length_a 10.762130
_cell_length_b 29.025038
_cell_length_c 8.234888
_cell_angle_alpha 90.000000
_cell_angle_beta 61.848798
_cell_angle_gamma 90.000000
_cell_volume 2268.048438
_symmetry_space_group_name_H-M "C 2/C"
_symmetry_group_IT_number 15
_symmetry_cell_setting 'monoclinic'
loop_
_space_group_symop_operation_xyz
x,y,z
-x,y,1/2-z
-x,-y,-z
x,-y,1/2+z
1/2+x,1/2+y,z
1/2-x,1/2+y,1/2-z
1/2-x,1/2-y,-z
1/2+x,1/2-y,1/2+z
loop_
_atom_site_type_symbol
_atom_site_label
_atom_site_fract_x
_atom_site_fract_y
_atom_site_fract_z
Si Si1 0.271591 0.231911 0.304579
Si Si2 0.699195 0.450925 0.275295
Si Si3 0.798543 0.052217 0.344101
Si Si4 0.000000 0.874469 0.250000
Si Si5 0.500000 0.374628 0.750000
Si Si6 0.525308 0.697575 0.003954
Si Si7 0.000000 0.656006 0.250000
Si Si8 0.991831 0.591647 0.564092
O O1 0.250000 0.250000 0.500000
O O2 0.361438 0.268318 0.143406
O O3 0.370750 0.187534 0.267104
O O4 0.112102 0.223626 0.341256
O O5 0.661799 0.502300 0.244569
O O6 0.672087 0.446877 0.482357
O O7 0.621247 0.409312 0.232881
O O8 0.864885 0.444461 0.144541
O O9 0.636835 0.066509 0.426689
O O10 0.895832 0.092668 0.214483
O O11 0.040134 0.837719 0.087237
O O12 0.591267 0.339626 0.585985
O O13 0.961136 0.627075 0.436124
O O14 0.000000 0.609009 0.750000
#
# Coordination Sequence:
#
# PCOD9299692 Si02
#       8
#     8   8   8   4   4   8   4   8
#     4  12  23  45  70 103 133 180 235 295 353 438
#     4  11  25  41  70 101 142 188 232 292 350 417
#     4  11  25  45  66 103 143 186 235 291 349 420
#     4  12  22  42  70 102 134 188 228 292 344 424
#     4  12  27  46  66 103 140 179 234 292 361 418
#     4  12  26  45  72  98 141 178 236 294 361 427
#     4  12  23  42  76 101 134 197 234 290 369 422
#     4  10  25  45  68 105 147 187 240 293 348 431
#
# _framework density 22.927199000000002
#
# number of rings (size 3 to 8) (size 9 to 14) (size 15 to 20)
#    0.000    0.615    4.615    2.769    4.308    1.846 
#    1.385    0.000    0.000    0.000    0.000    0.000 
#    0.000    0.000    0.000    0.000    0.000    0.000 
#
# Total GULP energy -145272.360822 kJ/mol
# GULP energy per Si atom -5587.398493 kJ/mol
# Density = 2.287502 g / cm^3
# Si number density = 22.927199 Si / 1000 Ang^3
#
#
#
# Elastic Constant Matrix: (Units=GPa)
#
#
# Indices 1 2 3 4 5 6 
#
# 1 83.9737 43.0959 20.0749 0.0000 -31.0154 0.0000
# 2 43.0959 151.5608 63.7885 0.0000 -8.6850 0.0000
# 3 20.0749 63.7885 71.1810 0.0000 -18.5732 0.0000
# 4 0.0000 0.0000 0.0000 38.9931 0.0000 0.6859
# 5 -31.0154 -8.6850 -18.5732 0.0000 40.5335 0.0000
# 6 0.0000 0.0000 0.0000 0.6859 0.0000 24.5393
#
#
#
# Elastic Compliance Matrix: (Units=1/GPa)
#
#
# Indices 1 2 3 4 5 6 
#
# 1 0.020237 -0.006742 0.004540 0.000000 0.016121 0.000000
# 2 -0.006742 0.013042 -0.011816 0.000000 -0.007778 0.000000
# 3 0.004540 -0.011816 0.026808 0.000000 0.013227 0.000000
# 4 0.000000 0.000000 0.000000 0.025658 0.000000 -0.000717
# 5 0.016121 -0.007778 0.013227 0.000000 0.041400 0.000000
# 6 0.000000 0.000000 0.000000 -0.000717 0.000000 0.040771
#
#
# Mechanical properties :
#
#
# Convention : Reuss Voigt Hill
#
# Bulk Modulus (GPa) = 31.19797 62.29268 46.74532
# Shear Modulus (GPa) = 24.19709 32.79694 28.49701
#
# Velocity S-wave (km/s) = 3.25220 3.78627 3.52935
# Velocity P-wave (km/s) = 5.26681 6.80759 6.08616
#
# Compressibility (1/GPa) = 0.03205337
#
# Stress axis : x y z
#
# Youngs Moduli (GPa) = 49.41418 76.67302 37.30177
#
# Poissons Ratio (x) = 0.51690 -0.16937
# Poissons Ratio (y) = 0.33313 0.44076
# Poissons Ratio (z) = -0.22436 0.90598
#
# Static dielectric constant tensor:
#      x y z
#    x 1.943530 0.000000 -0.001730 
#    y 0.000000 1.830800 0.000000 
#    z -0.001730 0.000000 1.950330 
# 
# From -- ./inp_files/34132.got.cif
#   From: 2010.05.17/outbox.cif.g08.bks.cpg/sg15_18_cif.got.tgz:34132.got - 2010.06.03 18:47:42.
