data_PCOD9299848
_publ_section_title
;
Structure prediction by ZEFSAII (Michael W. Deem and Ramdas Pophale) SiO2 
 PCOD9299848
Probable space group: C 2/C
;
_chemical_formula_sum "Si O2"
_cell_formula_units_Z 36
_cell_length_a 16.850896
_cell_length_b 7.497880
_cell_length_c 13.881866
_cell_angle_alpha 90.000000
_cell_angle_beta 55.164009
_cell_angle_gamma 90.000000
_cell_volume 1439.599468
_symmetry_space_group_name_H-M "C 2/C"
_symmetry_group_IT_number 15
_symmetry_cell_setting 'monoclinic'
loop_
_space_group_symop_operation_xyz
x,y,z
-x,y,1/2-z
-x,-y,-z
x,-y,1/2+z
1/2+x,1/2+y,z
1/2-x,1/2+y,1/2-z
1/2-x,1/2-y,-z
1/2+x,1/2-y,1/2+z
loop_
_atom_site_type_symbol
_atom_site_label
_atom_site_fract_x
_atom_site_fract_y
_atom_site_fract_z
Si Si1 0.132161 0.284204 0.988761
Si Si2 0.410413 0.592019 0.004898
Si Si3 0.073134 0.283941 0.813637
Si Si4 0.000000 0.598688 0.750000
Si Si5 0.741132 0.140660 0.905938
O O1 0.056802 0.296990 0.128712
O O2 0.158657 0.076196 0.965962
O O3 0.084142 0.329000 0.918810
O O4 0.211523 0.437318 0.944149
O O5 0.469282 0.686098 0.877470
O O6 0.500000 0.500000 0.000000
O O7 0.344211 0.750875 0.090980
O O8 0.160932 0.159527 0.721415
O O9 0.072776 0.464771 0.754011
O O10 0.750000 0.250000 0.000000
#
# Coordination Sequence:
#
# PCOD9299848 Si02
#       5
#     8   8   8   4   8
#     4  11  26  45  73 105 144 197 246 303 375 442
#     4  10  25  47  70 108 142 193 251 303 377 441
#     4  11  24  46  74 105 151 193 244 312 372 442
#     4  12  22  46  72 104 146 200 238 306 378 436
#     4  12  25  47  72 107 153 191 251 308 372 446
#
# _framework density 25.006955999999999
#
# number of rings (size 3 to 8) (size 9 to 14) (size 15 to 20)
#    0.000    0.889    4.444    0.667    9.333    3.556 
#    4.000    0.000    0.000    0.000    0.000    0.000 
#    0.000    0.000    0.000    0.000    0.000    0.000 
#
# Total GULP energy -100648.644474 kJ/mol
# GULP energy per Si atom -5591.591360 kJ/mol
# Density = 2.495004 g / cm^3
# Si number density = 25.006956 Si / 1000 Ang^3
#
#
#
# Elastic Constant Matrix: (Units=GPa)
#
#
# Indices 1 2 3 4 5 6 
#
# 1 85.4174 8.5517 10.4381 0.0000 4.9247 0.0000
# 2 8.5517 115.6997 3.6540 -0.0001 -12.5285 0.0000
# 3 10.4381 3.6540 117.7225 0.0000 -3.3663 0.0000
# 4 0.0000 -0.0001 0.0000 27.4979 0.0000 -9.9374
# 5 4.9247 -12.5285 -3.3663 0.0000 54.3616 0.0000
# 6 0.0000 0.0000 0.0000 -9.9374 0.0000 32.3679
#
#
#
# Elastic Compliance Matrix: (Units=1/GPa)
#
#
# Indices 1 2 3 4 5 6 
#
# 1 0.012019 -0.001005 -0.001074 0.000000 -0.001387 0.000000
# 2 -0.001005 0.008954 -0.000127 0.000000 0.002147 0.000000
# 3 -0.001074 -0.000127 0.008611 0.000000 0.000601 0.000000
# 4 0.000000 0.000000 0.000000 0.040905 0.000000 0.012558
# 5 -0.001387 0.002147 0.000601 0.000000 0.019053 0.000000
# 6 0.000000 0.000000 0.000000 0.012558 0.000000 0.034750
#
#
# Mechanical properties :
#
#
# Convention : Reuss Voigt Hill
#
# Bulk Modulus (GPa) = 39.72782 40.45858 40.09320
# Shear Modulus (GPa) = 36.47108 42.59185 39.53147
#
# Velocity S-wave (km/s) = 3.82309 4.13146 3.98026
# Velocity P-wave (km/s) = 5.95057 6.24281 6.09844
#
# Compressibility (1/GPa) = 0.02517128
#
# Stress axis : x y z
#
# Youngs Moduli (GPa) = 83.20150 111.68443 116.13133
#
# Poissons Ratio (x) = 0.11220 0.12474
# Poissons Ratio (y) = 0.08359 0.01480
# Poissons Ratio (z) = 0.08937 0.01423
#
# Static dielectric constant tensor:
#      x y z
#    x 2.154390 0.000000 0.052350 
#    y 0.000000 1.983300 0.000000 
#    z 0.052350 0.000000 1.954620 
# 
# From -- ./inp_files/159068.got.cif
#   From: 2010.05.17/outbox.cif.g08.bks.cpg/sg15_80_cif.got.tgz:159068.got - 2010.06.03 18:47:42.
