data_PCOD9299241
_publ_section_title
;
Structure prediction by ZEFSAII (Michael W. Deem and Ramdas Pophale) SiO2 
 PCOD9299241
Probable space group: C 2/C
;
_chemical_formula_sum "Si O2"
_cell_formula_units_Z 44
_cell_length_a 29.578223
_cell_length_b 10.433932
_cell_length_c 8.318653
_cell_angle_alpha 90.000000
_cell_angle_beta 56.898105
_cell_angle_gamma 90.000000
_cell_volume 2150.611404
_symmetry_space_group_name_H-M "C 2/C"
_symmetry_group_IT_number 15
_symmetry_cell_setting 'monoclinic'
loop_
_space_group_symop_operation_xyz
x,y,z
-x,y,1/2-z
-x,-y,-z
x,-y,1/2+z
1/2+x,1/2+y,z
1/2-x,1/2+y,1/2-z
1/2-x,1/2-y,-z
1/2+x,1/2-y,1/2+z
loop_
_atom_site_type_symbol
_atom_site_label
_atom_site_fract_x
_atom_site_fract_y
_atom_site_fract_z
Si Si1 0.194450 0.318908 0.646073
Si Si2 0.351538 0.992483 0.521159
Si Si3 0.422527 0.872172 0.132787
Si Si4 0.562845 0.616396 0.600967
Si Si5 0.905369 0.152162 0.594713
Si Si6 0.000000 0.679487 0.750000
O O1 0.250000 0.250000 0.500000
O O2 0.194391 0.433925 0.776117
O O3 0.169135 0.384226 0.535702
O O4 0.152211 0.219387 0.804318
O O5 0.372241 0.889160 0.351680
O O6 0.403740 0.030358 0.529017
O O7 0.474208 0.893745 0.147389
O O8 0.430599 0.734993 0.033667
O O9 0.500000 0.584840 0.750000
O O10 0.582719 0.651954 0.738859
O O11 0.592254 0.491653 0.475643
O O12 0.951795 0.232030 0.413122
#
# Coordination Sequence:
#
# PCOD9299241 Si02
#       6
#     8   8   8   8   8   4
#     4  11  25  48  72  97 132 177 229 281 341 395
#     4  10  24  48  67  98 139 171 228 284 326 417
#     4  11  23  42  67  96 141 180 217 277 340 396
#     4  12  23  40  65 100 139 175 223 280 332 401
#     4  12  24  41  66 100 137 175 225 279 336 398
#     4  12  22  40  68 102 136 186 216 270 344 408
#
# _framework density 20.459299000000001
#
# number of rings (size 3 to 8) (size 9 to 14) (size 15 to 20)
#    0.000    0.727    6.364    1.636    0.000    2.182 
#    1.636    1.818    0.000    0.000    0.000    0.000 
#    0.000    0.000    0.000    0.000    0.000    0.000 
#
# Total GULP energy -122858.976513 kJ/mol
# GULP energy per Si atom -5584.498932 kJ/mol
# Density = 2.041273 g / cm^3
# Si number density = 20.459299 Si / 1000 Ang^3
#
#
#
# Elastic Constant Matrix: (Units=GPa)
#
#
# Indices 1 2 3 4 5 6 
#
# 1 67.9438 37.2740 57.9069 0.0000 7.0372 0.0000
# 2 37.2740 103.0916 80.5983 0.0000 -3.6864 0.0000
# 3 57.9069 80.5983 138.6675 0.0000 -4.2371 0.0000
# 4 0.0000 0.0000 0.0000 41.8754 0.0000 -5.2310
# 5 7.0372 -3.6864 -4.2371 0.0000 43.1509 0.0000
# 6 0.0000 0.0000 0.0000 -5.2310 0.0000 21.5293
#
#
#
# Elastic Compliance Matrix: (Units=1/GPa)
#
#
# Indices 1 2 3 4 5 6 
#
# 1 0.023985 -0.001650 -0.009208 0.000000 -0.004957 0.000000
# 2 -0.001650 0.017904 -0.009691 0.000000 0.000847 0.000000
# 3 -0.009208 -0.009691 0.016761 0.000000 0.002320 0.000000
# 4 0.000000 0.000000 0.000000 0.024628 0.000000 0.005984
# 5 -0.004957 0.000847 0.002320 0.000000 0.024283 0.000000
# 6 0.000000 0.000000 0.000000 0.005984 0.000000 0.047902
#
#
# Mechanical properties :
#
#
# Convention : Reuss Voigt Hill
#
# Bulk Modulus (GPa) = 56.98088 73.47347 65.22718
# Shear Modulus (GPa) = 24.70216 30.23936 27.47076
#
# Velocity S-wave (km/s) = 3.47851 3.84868 3.66827
# Velocity P-wave (km/s) = 6.63662 7.46591 7.06344
#
# Compressibility (1/GPa) = 0.01754975
#
# Stress axis : x y z
#
# Youngs Moduli (GPa) = 41.69344 55.85390 59.66351
#
# Poissons Ratio (x) = 0.09216 0.54940
# Poissons Ratio (y) = 0.06880 0.57822
# Poissons Ratio (z) = 0.38392 0.54130
#
# Static dielectric constant tensor:
#      x y z
#    x 1.764200 0.000000 0.022700 
#    y 0.000000 1.734610 0.000000 
#    z 0.022700 0.000000 1.719020 
# 
# From -- ./inp_files/68975.got.cif
#   From: 2010.05.17/outbox.cif.g08.bks.cpg/sg15_35_cif.got.tgz:68975.got - 2010.06.03 18:47:42.
