data_PCOD9299384
_publ_section_title
;
Structure prediction by ZEFSAII (Michael W. Deem and Ramdas Pophale) SiO2 
 PCOD9299384
Probable space group: C 2/C
;
_chemical_formula_sum "Si O2"
_cell_formula_units_Z 24
_cell_length_a 7.825701
_cell_length_b 17.018930
_cell_length_c 7.405455
_cell_angle_alpha 90.000000
_cell_angle_beta 122.409181
_cell_angle_gamma 90.000000
_cell_volume 832.672519
_symmetry_space_group_name_H-M "C 2/C"
_symmetry_group_IT_number 15
_symmetry_cell_setting 'monoclinic'
loop_
_space_group_symop_operation_xyz
x,y,z
-x,y,1/2-z
-x,-y,-z
x,-y,1/2+z
1/2+x,1/2+y,z
1/2-x,1/2+y,1/2-z
1/2-x,1/2-y,-z
1/2+x,1/2-y,1/2+z
loop_
_atom_site_type_symbol
_atom_site_label
_atom_site_fract_x
_atom_site_fract_y
_atom_site_fract_z
Si Si1 0.772612 0.355313 0.040820
Si Si2 0.168681 0.532389 0.459167
Si Si3 0.646578 0.679637 0.053817
O O1 0.737027 0.449752 0.050823
O O2 0.000000 0.340742 0.250000
O O3 0.906842 0.189415 0.957786
O O4 0.732077 0.338308 0.806008
O O5 0.326472 0.600955 0.551006
O O6 0.000000 0.578257 0.250000
O O7 0.000000 0.500000 0.500000
O O8 0.750000 0.750000 0.000000
#
# Coordination Sequence:
#
# PCOD9299384 Si02
#       3
#     8   8   8
#     4  10  24  49  87 126 169 228 302 351 428 538
#     4  11  22  48  85 120 164 224 291 352 430 529
#     4  11  25  50  84 129 177 228 283 367 449 512
#
# _framework density 28.822856000000002
#
# number of rings (size 3 to 8) (size 9 to 14) (size 15 to 20)
#    0.000    1.333    3.333    1.000    0.000    1.333 
#    6.000    8.333    0.000    8.000    0.000    0.000 
#    0.000    0.000    0.000    0.000    0.000    0.000 
#
# Total GULP energy -66939.510368 kJ/mol
# GULP energy per Si atom -5578.292531 kJ/mol
# Density = 2.875725 g / cm^3
# Si number density = 28.822856 Si / 1000 Ang^3
#
#
#
# Elastic Constant Matrix: (Units=GPa)
#
#
# Indices 1 2 3 4 5 6 
#
# 1 271.8333 111.8405 100.1368 0.0000 -2.6701 0.0000
# 2 111.8405 240.1673 59.8182 0.0000 5.9787 0.0000
# 3 100.1368 59.8182 216.8082 0.0000 36.1681 0.0000
# 4 0.0000 0.0000 0.0000 27.9148 0.0000 -6.8424
# 5 -2.6701 5.9787 36.1681 0.0000 56.7310 0.0000
# 6 0.0000 0.0000 0.0000 -6.8424 0.0000 59.6421
#
#
#
# Elastic Compliance Matrix: (Units=1/GPa)
#
#
# Indices 1 2 3 4 5 6 
#
# 1 0.005331 -0.001974 -0.002232 0.000000 0.001882 0.000000
# 2 -0.001974 0.005208 -0.000468 0.000000 -0.000343 0.000000
# 3 -0.002232 -0.000468 0.006470 0.000000 -0.004180 0.000000
# 4 0.000000 0.000000 0.000000 0.036860 0.000000 0.004229
# 5 0.001882 -0.000343 -0.004180 0.000000 0.020417 0.000000
# 6 0.000000 0.000000 0.000000 0.004229 0.000000 0.017252
#
#
# Mechanical properties :
#
#
# Convention : Reuss Voigt Hill
#
# Bulk Modulus (GPa) = 130.51354 141.37776 135.94565
# Shear Modulus (GPa) = 48.33788 59.32512 53.83150
#
# Velocity S-wave (km/s) = 4.09964 4.54173 4.32634
# Velocity P-wave (km/s) = 8.23341 8.75558 8.49851
#
# Compressibility (1/GPa) = 0.00766204
#
# Stress axis : x y z
#
# Youngs Moduli (GPa) = 187.56904 192.01275 154.56770
#
# Poissons Ratio (x) = 0.37897 0.34496
# Poissons Ratio (y) = 0.37020 0.07234
# Poissons Ratio (z) = 0.41861 0.08987
#
# Static dielectric constant tensor:
#      x y z
#    x 2.354700 0.000000 -0.252050 
#    y 0.000000 2.243510 0.000000 
#    z -0.252050 0.000000 2.650840 
# 
# From -- ./inp_files/21436.got.cif
#   From: 2010.05.17/outbox.cif.g08.bks.cpg/sg15_11_cif.got.tgz:21436.got - 2010.06.03 18:47:42.
