data_PCOD9299172
_publ_section_title
;
Structure prediction by ZEFSAII (Michael W. Deem and Ramdas Pophale) SiO2 
 PCOD9299172
Probable space group: C 2/C
;
_chemical_formula_sum "Si O2"
_cell_formula_units_Z 32
_cell_length_a 18.670729
_cell_length_b 4.770628
_cell_length_c 13.665420
_cell_angle_alpha 90.000000
_cell_angle_beta 106.690298
_cell_angle_gamma 90.000000
_cell_volume 1165.915030
_symmetry_space_group_name_H-M "C 2/C"
_symmetry_group_IT_number 15
_symmetry_cell_setting 'monoclinic'
loop_
_space_group_symop_operation_xyz
x,y,z
-x,y,1/2-z
-x,-y,-z
x,-y,1/2+z
1/2+x,1/2+y,z
1/2-x,1/2+y,1/2-z
1/2-x,1/2-y,-z
1/2+x,1/2-y,1/2+z
loop_
_atom_site_type_symbol
_atom_site_label
_atom_site_fract_x
_atom_site_fract_y
_atom_site_fract_z
Si Si1 0.167304 0.708404 0.507860
Si Si2 0.560918 0.752182 0.458833
Si Si3 0.703433 0.850354 0.714387
Si Si4 0.043740 0.161909 0.673053
O O1 0.250000 0.750000 0.500000
O O2 0.111439 0.493167 0.432314
O O3 0.179367 0.542725 0.614172
O O4 0.120116 0.993028 0.494601
O O5 0.534682 0.799297 0.561509
O O6 0.492789 0.640817 0.366034
O O7 0.756670 0.590437 0.705173
O O8 0.631366 0.694152 0.729632
O O9 0.000000 0.265909 0.750000
#
# Coordination Sequence:
#
# PCOD9299172 Si02
#       4
#     8   8   8   8
#     4  11  24  47  73 106 150 195 238 310 378 431
#     4  10  24  47  73 107 145 192 257 302 360 455
#     4  11  25  46  73 108 150 188 249 310 366 452
#     4  10  24  48  76 108 145 200 243 312 370 436
#
# _framework density 27.446256000000002
#
# number of rings (size 3 to 8) (size 9 to 14) (size 15 to 20)
#    0.000    1.500    0.000    3.750    3.500   11.000 
#    4.500   12.500    0.000    0.000    0.000    0.000 
#    0.000    0.000    0.000    0.000    0.000    0.000 
#
# Total GULP energy -89582.761355 kJ/mol
# GULP energy per Si atom -5598.922585 kJ/mol
# Density = 2.738379 g / cm^3
# Si number density = 27.446256 Si / 1000 Ang^3
#
#
#
# Elastic Constant Matrix: (Units=GPa)
#
#
# Indices 1 2 3 4 5 6 
#
# 1 203.0435 66.8039 59.3500 0.0000 -34.2877 0.0000
# 2 66.8039 167.6564 52.9297 0.0000 0.5850 0.0000
# 3 59.3500 52.9297 97.8355 0.0000 -8.7144 0.0000
# 4 0.0000 0.0000 0.0000 39.6313 0.0000 20.9134
# 5 -34.2877 0.5850 -8.7144 0.0000 38.8753 0.0000
# 6 0.0000 0.0000 0.0000 20.9134 0.0000 65.1341
#
#
#
# Elastic Compliance Matrix: (Units=1/GPa)
#
#
# Indices 1 2 3 4 5 6 
#
# 1 0.007456 -0.002088 -0.002862 0.000000 0.005966 0.000000
# 2 -0.002088 0.007816 -0.003200 0.000000 -0.002677 0.000000
# 3 -0.002862 -0.003200 0.013743 0.000000 0.000605 0.000000
# 4 0.000000 0.000000 0.000000 0.030380 0.000000 -0.009755
# 5 0.005966 -0.002677 0.000605 0.000000 0.031161 0.000000
# 6 0.000000 0.000000 0.000000 -0.009755 0.000000 0.018485
#
#
# Mechanical properties :
#
#
# Convention : Reuss Voigt Hill
#
# Bulk Modulus (GPa) = 78.65305 91.85584 85.25445
# Shear Modulus (GPa) = 38.58608 48.02495 43.30551
#
# Velocity S-wave (km/s) = 3.75357 4.18758 3.97650
# Velocity P-wave (km/s) = 6.89239 7.54462 7.22587
#
# Compressibility (1/GPa) = 0.01271406
#
# Stress axis : x y z
#
# Youngs Moduli (GPa) = 134.11707 127.93686 72.76624
#
# Poissons Ratio (x) = 0.26716 0.20825
# Poissons Ratio (y) = 0.28007 0.23288
# Poissons Ratio (z) = 0.38384 0.40944
#
# Static dielectric constant tensor:
#      x y z
#    x 2.220580 0.000000 0.137950 
#    y 0.000000 2.223590 0.000000 
#    z 0.137950 0.000000 2.215000 
# 
# From -- ./inp_files/115424.got.cif
#   From: 2010.05.17/outbox.cif.g08.bks.cpg/sg15_58_cif.got.tgz:115424.got - 2010.06.03 18:47:42.
