data_PCOD9299050
_publ_section_title
;
Structure prediction by ZEFSAII (Michael W. Deem and Ramdas Pophale) SiO2 
 PCOD9299050
Probable space group: C 2/C
;
_chemical_formula_sum "Si O2"
_cell_formula_units_Z 24
_cell_length_a 16.374458
_cell_length_b 11.278380
_cell_length_c 8.986525
_cell_angle_alpha 90.000000
_cell_angle_beta 148.778143
_cell_angle_gamma 90.000000
_cell_volume 860.263088
_symmetry_space_group_name_H-M "C 2/C"
_symmetry_group_IT_number 15
_symmetry_cell_setting 'monoclinic'
loop_
_space_group_symop_operation_xyz
x,y,z
-x,y,1/2-z
-x,-y,-z
x,-y,1/2+z
1/2+x,1/2+y,z
1/2-x,1/2+y,1/2-z
1/2-x,1/2-y,-z
1/2+x,1/2-y,1/2+z
loop_
_atom_site_type_symbol
_atom_site_label
_atom_site_fract_x
_atom_site_fract_y
_atom_site_fract_z
Si Si1 0.260641 0.206007 0.846862
Si Si2 0.609049 0.031972 0.808136
Si Si3 0.074705 0.130302 0.146981
O O1 0.360991 0.294618 0.897139
O O2 0.077140 0.193022 0.522528
O O3 0.250000 0.250000 0.000000
O O4 0.336050 0.077420 0.000531
O O5 0.500000 0.102923 0.750000
O O6 0.500000 0.000000 0.500000
O O7 0.767005 0.102724 0.012532
O O8 0.000000 0.000000 0.000000
#
# Coordination Sequence:
#
# PCOD9299050 Si02
#       3
#     8   8   8
#     4  11  22  45  78 114 156 211 273 337 417 505
#     4  11  24  45  74 112 158 210 273 347 419 498
#     4  10  24  46  75 114 162 215 272 342 419 501
#
# _framework density 27.898440999999998
#
# number of rings (size 3 to 8) (size 9 to 14) (size 15 to 20)
#    0.000    1.333    0.000    5.000    0.000    2.667 
#    0.000   35.000    0.000    0.000    0.000    0.000 
#    0.000    0.000    0.000    0.000    0.000    0.000 
#
# Total GULP energy -67125.864889 kJ/mol
# GULP energy per Si atom -5593.822074 kJ/mol
# Density = 2.783494 g / cm^3
# Si number density = 27.898441 Si / 1000 Ang^3
#
#
#
# Elastic Constant Matrix: (Units=GPa)
#
#
# Indices 1 2 3 4 5 6 
#
# 1 237.0013 101.7055 115.3983 0.0000 39.6304 0.0000
# 2 101.7055 210.3431 75.6449 0.0000 0.9464 0.0000
# 3 115.3983 75.6449 292.9306 0.0000 36.0587 0.0000
# 4 0.0000 0.0000 0.0000 52.3314 0.0000 -1.0784
# 5 39.6304 0.9464 36.0587 0.0000 65.5712 0.0000
# 6 0.0000 0.0000 0.0000 -1.0784 0.0000 74.9936
#
#
#
# Elastic Compliance Matrix: (Units=1/GPa)
#
#
# Indices 1 2 3 4 5 6 
#
# 1 0.006622 -0.002632 -0.001546 0.000000 -0.003114 0.000000
# 2 -0.002632 0.006319 -0.000836 0.000000 0.001959 0.000000
# 3 -0.001546 -0.000836 0.004421 0.000000 -0.001485 0.000000
# 4 0.000000 0.000000 0.000000 0.019115 0.000000 0.000275
# 5 -0.003114 0.001959 -0.001485 0.000000 0.017921 0.000000
# 6 0.000000 0.000000 0.000000 0.000275 0.000000 0.013338
#
#
# Mechanical properties :
#
#
# Convention : Reuss Voigt Hill
#
# Bulk Modulus (GPa) = 136.33847 147.30804 141.82326
# Shear Modulus (GPa) = 62.33682 68.41435 65.37558
#
# Velocity S-wave (km/s) = 4.73209 4.95741 4.84606
# Velocity P-wave (km/s) = 8.87877 9.25657 9.06964
#
# Compressibility (1/GPa) = 0.00733469
#
# Stress axis : x y z
#
# Youngs Moduli (GPa) = 151.00361 158.26139 226.17248
#
# Poissons Ratio (x) = 0.41657 0.34961
# Poissons Ratio (y) = 0.39746 0.18907
# Poissons Ratio (z) = 0.23341 0.13230
#
# Static dielectric constant tensor:
#      x y z
#    x 4.137550 0.000000 1.190640 
#    y 0.000000 2.430830 0.000000 
#    z 1.190640 0.000000 2.970010 
# 
# From -- ./inp_files/47369.got.cif
#   From: 2010.05.17/outbox.cif.g08.bks.cpg/sg15_24_cif.got.tgz:47369.got - 2010.06.03 18:47:42.
