data_PCOD9299155
_publ_section_title
;
Structure prediction by ZEFSAII (Michael W. Deem and Ramdas Pophale) SiO2 
 PCOD9299155
Probable space group: C 2/C
;
_chemical_formula_sum "Si O2"
_cell_formula_units_Z 44
_cell_length_a 9.191368
_cell_length_b 28.705368
_cell_length_c 10.641240
_cell_angle_alpha 90.000000
_cell_angle_beta 48.141080
_cell_angle_gamma 90.000000
_cell_volume 2091.074243
_symmetry_space_group_name_H-M "C 2/C"
_symmetry_group_IT_number 15
_symmetry_cell_setting 'monoclinic'
loop_
_space_group_symop_operation_xyz
x,y,z
-x,y,1/2-z
-x,-y,-z
x,-y,1/2+z
1/2+x,1/2+y,z
1/2-x,1/2+y,1/2-z
1/2-x,1/2-y,-z
1/2+x,1/2-y,1/2+z
loop_
_atom_site_type_symbol
_atom_site_label
_atom_site_fract_x
_atom_site_fract_y
_atom_site_fract_z
Si Si1 0.500000 0.404922 0.250000
Si Si2 0.070841 0.874533 0.479127
Si Si3 0.221066 0.198152 0.067420
Si Si4 0.615501 0.476480 0.546576
Si Si5 0.598072 0.040199 0.025654
Si Si6 0.881613 0.361915 0.691726
O O1 0.544554 0.374833 0.345835
O O2 0.693513 0.436497 0.131665
O O3 0.210168 0.835497 0.453713
O O4 0.145933 0.923214 0.491319
O O5 0.846785 0.869406 0.651449
O O6 0.372219 0.175703 0.082593
O O7 0.000000 0.196530 0.250000
O O8 0.250000 0.250000 0.000000
O O9 0.500000 0.476291 0.750000
O O10 0.500000 0.500000 0.500000
O O11 0.813063 0.506565 0.420011
O O12 0.464692 0.085893 0.116530
O O13 0.500000 0.000000 0.000000
O O14 0.000000 0.346690 0.750000
#
# Coordination Sequence:
#
# PCOD9299155 Si02
#       6
#     4   8   8   8   8   8
#     4  12  24  42  60  96 140 180 230 284 324 394
#     4  11  23  44  66  92 139 178 223 276 341 395
#     4  10  24  47  72 100 128 167 216 279 350 415
#     4  12  21  39  63  94 138 183 223 273 328 395
#     4  12  24  38  64  99 135 182 235 272 328 390
#     4  11  22  43  69  97 133 176 223 276 338 410
#
# _framework density 21.041817000000002
#
# number of rings (size 3 to 8) (size 9 to 14) (size 15 to 20)
#    0.000    0.727    4.545    3.818    0.000    2.909 
#    1.636    5.455    0.000    0.000    0.000    0.000 
#    0.000    0.000    0.000    0.000    0.000    0.000 
#
# Total GULP energy -122527.151636 kJ/mol
# GULP energy per Si atom -5569.415983 kJ/mol
# Density = 2.099392 g / cm^3
# Si number density = 21.041817 Si / 1000 Ang^3
#
#
#
# Elastic Constant Matrix: (Units=GPa)
#
#
# Indices 1 2 3 4 5 6 
#
# 1 188.8027 106.8096 43.5293 0.0000 15.1203 0.0000
# 2 106.8096 191.4446 33.1896 0.0000 28.4081 0.0000
# 3 43.5293 33.1896 52.6322 0.0000 19.6211 0.0000
# 4 0.0000 0.0000 0.0000 265.2752 0.0000 184.6694
# 5 15.1203 28.4081 19.6211 0.0000 36.6023 0.0000
# 6 0.0000 0.0000 0.0000 184.6694 0.0000 174.9085
#
#
#
# Elastic Compliance Matrix: (Units=1/GPa)
#
#
# Indices 1 2 3 4 5 6 
#
# 1 0.008832 -0.004367 -0.005567 0.000000 0.002725 0.000000
# 2 -0.004367 0.008342 0.000115 0.000000 -0.004732 0.000000
# 3 -0.005567 0.000115 0.028378 0.000000 -0.013002 0.000000
# 4 0.000000 0.000000 0.000000 0.014225 0.000000 -0.015019
# 5 0.002725 -0.004732 -0.013002 0.000000 0.036838 0.000000
# 6 0.000000 0.000000 0.000000 -0.015019 0.000000 0.021574
#
#
# Mechanical properties :
#
#
# Convention : Reuss Voigt Hill
#
# Bulk Modulus (GPa) = 38.58617 88.88181 63.73399
# Shear Modulus (GPa) = 34.13806 111.98059 73.05933
#
# Velocity S-wave (km/s) = 4.03226 7.30299 5.89885
# Velocity P-wave (km/s) = 6.32902 10.65100 8.76072
#
# Compressibility (1/GPa) = 0.02591602
#
# Stress axis : x y z
#
# Youngs Moduli (GPa) = 113.22262 119.87541 35.23834
#
# Poissons Ratio (x) = 0.52348 0.19616
# Poissons Ratio (y) = 0.49443 -0.00407
# Poissons Ratio (z) = 0.63027 -0.01383
#
# Static dielectric constant tensor:
#      x y z
#    x 1.930380 0.000000 0.008860 
#    y 0.000000 1.781730 0.000000 
#    z 0.008860 0.000000 1.887360 
# 
# From -- ./inp_files/81078.got.cif
#   From: 2010.05.17/outbox.cif.g08.bks.cpg/sg15_41_cif.got.tgz:81078.got - 2010.06.03 18:47:42.
