data_PCOD9299199
_publ_section_title
;
Structure prediction by ZEFSAII (Michael W. Deem and Ramdas Pophale) SiO2 
 PCOD9299199
Probable space group: C 2/C
;
_chemical_formula_sum "Si O2"
_cell_formula_units_Z 60
_cell_length_a 15.250918
_cell_length_b 28.382544
_cell_length_c 10.044209
_cell_angle_alpha 90.000000
_cell_angle_beta 35.440698
_cell_angle_gamma 90.000000
_cell_volume 2521.077608
_symmetry_space_group_name_H-M "C 2/C"
_symmetry_group_IT_number 15
_symmetry_cell_setting 'monoclinic'
loop_
_space_group_symop_operation_xyz
x,y,z
-x,y,1/2-z
-x,-y,-z
x,-y,1/2+z
1/2+x,1/2+y,z
1/2-x,1/2+y,1/2-z
1/2-x,1/2-y,-z
1/2+x,1/2-y,1/2+z
loop_
_atom_site_type_symbol
_atom_site_label
_atom_site_fract_x
_atom_site_fract_y
_atom_site_fract_z
Si Si1 0.500000 0.248544 0.250000
Si Si2 0.550569 0.575657 0.912332
Si Si3 0.178637 0.297897 0.027488
Si Si4 0.724515 0.044088 0.295114
Si Si5 0.653977 0.361200 0.488539
Si Si6 0.791979 0.812986 0.358087
Si Si7 0.659430 0.969061 0.583066
Si Si8 0.291683 0.644764 0.149767
O O1 0.358062 0.218121 0.466627
O O2 0.437003 0.280598 0.208934
O O3 0.406569 0.541430 0.086760
O O4 0.459122 0.622506 0.971254
O O5 0.613055 0.586747 0.983322
O O6 0.691096 0.559267 0.649824
O O7 0.221126 0.344282 0.062735
O O8 0.000000 0.291623 0.250000
O O9 0.250000 0.250000 0.000000
O O10 0.244920 0.311733 0.800589
O O11 0.675815 0.020980 0.217696
O O12 0.690889 0.099521 0.317648
O O13 0.656245 0.016660 0.501764
O O14 0.696121 0.337542 0.297584
O O15 0.500000 0.344137 0.750000
O O16 0.226491 0.842542 0.981928
O O17 0.500000 0.943496 0.750000
#
# Coordination Sequence:
#
# PCOD9299199 Si02
#       8
#     4   8   8   8   8   8   8   8
#     4  10  26  42  70 110 138 194 250 314 374 444
#     4  10  24  47  76 106 146 199 250 301 386 463
#     4  12  30  47  75 107 156 203 261 324 389 449
#     4  10  25  46  75 109 153 199 246 305 387 456
#     4  12  25  47  73 108 142 199 257 319 385 454
#     4  11  25  43  74 101 148 192 257 312 377 458
#     4  12  25  45  77 117 152 196 248 317 379 469
#     4  10  25  49  74 106 153 204 252 313 380 458
#
# _framework density 23.799344999999999
#
# number of rings (size 3 to 8) (size 9 to 14) (size 15 to 20)
#    0.800    0.267    1.333    3.200    7.467    3.733 
#    2.400    0.000    0.000    0.000    0.000    0.000 
#    0.000    0.000    0.000    0.000    0.000    0.000 
#
# Total GULP energy -167613.000576 kJ/mol
# GULP energy per Si atom -5587.100019 kJ/mol
# Density = 2.374518 g / cm^3
# Si number density = 23.799345 Si / 1000 Ang^3
#
#
#
# Elastic Constant Matrix: (Units=GPa)
#
#
# Indices 1 2 3 4 5 6 
#
# 1 122.0094 42.2298 52.2854 0.0000 5.5270 0.0000
# 2 42.2298 73.9963 46.4771 0.0000 13.8603 0.0000
# 3 52.2854 46.4771 119.5631 0.0000 -7.0661 0.0000
# 4 0.0000 0.0000 0.0000 21.4088 0.0000 12.5089
# 5 5.5270 13.8603 -7.0661 0.0000 58.0292 0.0000
# 6 0.0000 0.0000 0.0000 12.5089 0.0000 9.9587
#
#
#
# Elastic Compliance Matrix: (Units=1/GPa)
#
#
# Indices 1 2 3 4 5 6 
#
# 1 0.011052 -0.004197 -0.003228 0.000000 -0.000443 0.000000
# 2 -0.004197 0.021147 -0.006708 0.000000 -0.005468 0.000000
# 3 -0.003228 -0.006708 0.012586 0.000000 0.003442 0.000000
# 4 0.000000 0.000000 0.000000 0.175540 0.000000 -0.220491
# 5 -0.000443 -0.005468 0.003442 0.000000 0.019000 0.000000
# 6 0.000000 0.000000 0.000000 -0.220491 0.000000 0.377369
#
#
# Mechanical properties :
#
#
# Convention : Reuss Voigt Hill
#
# Bulk Modulus (GPa) = 60.53447 66.39483 63.46465
# Shear Modulus (GPa) = 7.68679 29.51777 18.60228
#
# Velocity S-wave (km/s) = 1.79912 3.52558 2.79880
# Velocity P-wave (km/s) = 5.45952 6.67317 6.09662
#
# Compressibility (1/GPa) = 0.01651951
#
# Stress axis : x y z
#
# Youngs Moduli (GPa) = 90.48065 47.28785 79.45084
#
# Poissons Ratio (x) = 0.19847 0.25645
# Poissons Ratio (y) = 0.37975 0.53297
# Poissons Ratio (z) = 0.29206 0.31721
#
# Static dielectric constant tensor:
#      x y z
#    x 2.115390 0.000000 -0.460820 
#    y 0.000000 2.055880 0.000000 
#    z -0.460820 0.000000 2.857410 
# 
# From -- ./inp_files/108395.got.cif
#   From: 2010.05.17/outbox.cif.g08.bks.cpg/sg15_55_cif.got.tgz:108395.got - 2010.06.03 18:47:42.
