data_PCOD9299202
_publ_section_title
;
Structure prediction by ZEFSAII (Michael W. Deem and Ramdas Pophale) SiO2 
 PCOD9299202
Probable space group: C 2/C
;
_chemical_formula_sum "Si O2"
_cell_formula_units_Z 52
_cell_length_a 14.427581
_cell_length_b 5.785706
_cell_length_c 25.826790
_cell_angle_alpha 90.000000
_cell_angle_beta 81.521178
_cell_angle_gamma 90.000000
_cell_volume 2132.296194
_symmetry_space_group_name_H-M "C 2/C"
_symmetry_group_IT_number 15
_symmetry_cell_setting 'monoclinic'
loop_
_space_group_symop_operation_xyz
x,y,z
-x,y,1/2-z
-x,-y,-z
x,-y,1/2+z
1/2+x,1/2+y,z
1/2-x,1/2+y,1/2-z
1/2-x,1/2-y,-z
1/2+x,1/2-y,1/2+z
loop_
_atom_site_type_symbol
_atom_site_label
_atom_site_fract_x
_atom_site_fract_y
_atom_site_fract_z
Si Si1 0.356391 0.995152 0.786763
Si Si2 0.509192 0.506517 0.366181
Si Si3 0.000000 0.861456 0.750000
Si Si4 0.830402 0.265882 0.687568
Si Si5 0.364248 0.159706 0.396396
Si Si6 0.804177 0.504520 0.001574
Si Si7 0.163972 0.647666 0.889750
O O1 0.409728 0.198824 0.753214
O O2 0.251439 0.080652 0.803865
O O3 0.361648 0.792530 0.744447
O O4 0.400513 0.947883 0.839331
O O5 0.487147 0.531285 0.307201
O O6 0.587309 0.307317 0.357593
O O7 0.416108 0.405624 0.399967
O O8 0.567762 0.720665 0.383967
O O9 0.799654 0.503096 0.663037
O O10 0.253466 0.189930 0.394926
O O11 0.374456 0.009350 0.446955
O O12 0.654593 0.005246 0.943995
O O13 0.750000 0.750000 0.000000
O O14 0.750000 0.250000 0.000000
#
# Coordination Sequence:
#
# PCOD9299202 Si02
#       7
#     8   8   4   8   8   8   8
#     4  12  22  39  69  96 141 189 238 306 381 460
#     4  12  25  44  68 102 145 187 247 311 377 470
#     4  12  24  42  62 104 144 186 242 304 376 454
#     4  12  23  42  66 101 138 187 243 303 379 457
#     4  11  24  45  71 104 141 194 246 309 385 452
#     4  10  24  47  77 108 147 195 254 317 383 456
#     4  11  24  47  71 100 144 188 247 311 379 461
#
# _framework density 24.386854
#
# number of rings (size 3 to 8) (size 9 to 14) (size 15 to 20)
#    0.000    0.615    3.077    5.538    2.154    1.846 
#    0.000    0.769    0.000    0.000    0.000    0.000 
#    0.000    0.000    0.000    0.000    0.000    0.000 
#
# Total GULP energy -145164.577179 kJ/mol
# GULP energy per Si atom -5583.252968 kJ/mol
# Density = 2.433135 g / cm^3
# Si number density = 24.386854 Si / 1000 Ang^3
#
#
#
# Elastic Constant Matrix: (Units=GPa)
#
#
# Indices 1 2 3 4 5 6 
#
# 1 73.7181 24.1758 30.6085 0.0000 14.2467 0.0000
# 2 24.1758 86.9155 51.8351 0.0000 11.2133 0.0000
# 3 30.6085 51.8351 166.3552 0.0000 27.8013 0.0000
# 4 0.0000 0.0000 0.0000 83.4518 0.0000 6.6762
# 5 14.2467 11.2133 27.8013 0.0000 25.3459 0.0000
# 6 0.0000 0.0000 0.0000 6.6762 0.0000 45.6472
#
#
#
# Elastic Compliance Matrix: (Units=1/GPa)
#
#
# Indices 1 2 3 4 5 6 
#
# 1 0.016269 -0.003121 -0.000886 0.000000 -0.006792 0.000000
# 2 -0.003121 0.014793 -0.003961 0.000000 -0.000446 0.000000
# 3 -0.000886 -0.003961 0.008611 0.000000 -0.007195 0.000000
# 4 0.000000 0.000000 0.000000 0.012125 0.000000 -0.001773
# 5 -0.006792 -0.000446 -0.007195 0.000000 0.051361 0.000000
# 6 0.000000 0.000000 0.000000 -0.001773 0.000000 0.022166
#
#
# Mechanical properties :
#
#
# Convention : Reuss Voigt Hill
#
# Bulk Modulus (GPa) = 42.12565 60.02527 51.07546
# Shear Modulus (GPa) = 33.51821 45.58028 39.54925
#
# Velocity S-wave (km/s) = 3.71136 4.32794 4.03146
# Velocity P-wave (km/s) = 5.97303 7.04571 6.53143
#
# Compressibility (1/GPa) = 0.02373850
#
# Stress axis : x y z
#
# Youngs Moduli (GPa) = 61.46604 67.59913 116.13416
#
# Poissons Ratio (x) = 0.21095 0.10289
# Poissons Ratio (y) = 0.19181 0.45997
# Poissons Ratio (z) = 0.05445 0.26774
#
# Static dielectric constant tensor:
#      x y z
#    x 1.720160 0.000000 0.886260 
#    y 0.000000 2.068270 0.000000 
#    z 0.886260 0.000000 -1.384000 
# 
# From -- ./inp_files/312300.got.cif
#   From: 2010.05.17/outbox.cif.g08.bks.cpg/sg15_157_cif.got.tgz:312300.got - 2010.06.03 18:47:42.
