data_PCOD9299704
_publ_section_title
;
Structure prediction by ZEFSAII (Michael W. Deem and Ramdas Pophale) SiO2 
 PCOD9299704
Probable space group: C 2/C
;
_chemical_formula_sum "Si O2"
_cell_formula_units_Z 56
_cell_length_a 29.318873
_cell_length_b 10.562816
_cell_length_c 9.050213
_cell_angle_alpha 90.000000
_cell_angle_beta 68.931993
_cell_angle_gamma 90.000000
_cell_volume 2615.407099
_symmetry_space_group_name_H-M "C 2/C"
_symmetry_group_IT_number 15
_symmetry_cell_setting 'monoclinic'
loop_
_space_group_symop_operation_xyz
x,y,z
-x,y,1/2-z
-x,-y,-z
x,-y,1/2+z
1/2+x,1/2+y,z
1/2-x,1/2+y,1/2-z
1/2-x,1/2-y,-z
1/2+x,1/2-y,1/2+z
loop_
_atom_site_type_symbol
_atom_site_label
_atom_site_fract_x
_atom_site_fract_y
_atom_site_fract_z
Si Si1 0.620774 0.005551 0.874090
Si Si2 0.986684 0.132078 0.437995
Si Si3 0.791808 0.844810 0.392499
Si Si4 0.320797 0.859101 0.447595
Si Si5 0.042469 0.690916 0.096437
Si Si6 0.215480 0.907055 0.432229
Si Si7 0.401638 0.262477 0.208199
O O1 0.594503 0.886569 0.829409
O O2 0.645762 0.097414 0.726745
O O3 0.660891 0.942260 0.935701
O O4 0.581268 0.086851 0.006200
O O5 0.930144 0.164385 0.545119
O O6 0.000000 0.130200 0.250000
O O7 0.018244 0.240008 0.485437
O O8 0.000000 0.000000 0.500000
O O9 0.750000 0.750000 0.500000
O O10 0.775021 0.898492 0.253289
O O11 0.844414 0.784208 0.298507
O O12 0.801715 0.955395 0.498458
O O13 0.265615 0.889203 0.464256
O O14 0.320073 0.709587 0.484104
O O15 0.069940 0.790482 0.172436
O O16 0.000000 0.636623 0.250000
#
# Coordination Sequence:
#
# PCOD9299704 Si02
#       7
#     8   8   8   8   8   8   8
#     4  12  23  44  71 103 149 186 246 302 375 435
#     4  11  26  48  76 105 147 192 245 314 378 453
#     4  12  28  48  72 106 152 196 247 318 365 452
#     4  11  25  44  69 106 140 197 240 306 365 445
#     4  10  25  45  69 104 141 188 238 303 373 448
#     4  11  27  45  71 105 146 190 259 292 378 442
#     4  11  25  45  70 104 147 192 245 297 378 443
#
# _framework density 21.411581000000002
#
# number of rings (size 3 to 8) (size 9 to 14) (size 15 to 20)
#    0.000    0.857    2.857    3.000    8.000    6.286 
#    0.000    0.000    0.000    0.000    0.000    0.000 
#    0.000    0.000    0.000    0.000    0.000    0.000 
#
# Total GULP energy -156547.790972 kJ/mol
# GULP energy per Si atom -5590.992535 kJ/mol
# Density = 2.136285 g / cm^3
# Si number density = 21.411581 Si / 1000 Ang^3
#
#
#
# Elastic Constant Matrix: (Units=GPa)
#
#
# Indices 1 2 3 4 5 6 
#
# 1 84.7069 7.7016 58.9488 0.0000 -0.3545 0.0000
# 2 7.7016 104.1922 91.2056 0.0000 -14.8091 0.0000
# 3 58.9488 91.2056 192.2107 0.0000 -1.1496 0.0000
# 4 0.0000 0.0000 0.0000 37.9960 0.0000 -4.0327
# 5 -0.3545 -14.8091 -1.1496 0.0000 45.4327 0.0000
# 6 0.0000 0.0000 0.0000 -4.0327 0.0000 35.2276
#
#
#
# Elastic Compliance Matrix: (Units=1/GPa)
#
#
# Indices 1 2 3 4 5 6 
#
# 1 0.016850 0.006052 -0.008028 0.000000 0.001901 0.000000
# 2 0.006052 0.019893 -0.011258 0.000000 0.006247 0.000000
# 3 -0.008028 -0.011258 0.012987 0.000000 -0.003404 0.000000
# 4 0.000000 0.000000 0.000000 0.026642 0.000000 0.003050
# 5 0.001901 0.006247 -0.003404 0.000000 0.023975 0.000000
# 6 0.000000 0.000000 0.000000 0.003050 0.000000 0.028736
#
#
# Mechanical properties :
#
#
# Convention : Reuss Voigt Hill
#
# Bulk Modulus (GPa) = 42.98979 77.42464 60.20721
# Shear Modulus (GPa) = 30.61744 38.61483 34.61613
#
# Velocity S-wave (km/s) = 3.78557 4.25132 4.02518
# Velocity P-wave (km/s) = 6.26329 7.76769 7.05570
#
# Compressibility (1/GPa) = 0.02326134
#
# Stress axis : x y z
#
# Youngs Moduli (GPa) = 59.34707 50.26854 77.00270
#
# Poissons Ratio (x) = -0.30424 0.61819
# Poissons Ratio (y) = -0.35918 0.86692
# Poissons Ratio (z) = 0.47645 0.56594
#
# Static dielectric constant tensor:
#      x y z
#    x 1.823540 0.000000 0.018780 
#    y 0.000000 1.769100 0.000000 
#    z 0.018780 0.000000 1.766080 
# 
# From -- ./inp_files/69300.got.cif
#   From: 2010.05.17/outbox.cif.g08.bks.cpg/sg15_35_cif.got.tgz:69300.got - 2010.06.03 18:47:42.
