data_PCOD9299634
_publ_section_title
;
Structure prediction by ZEFSAII (Michael W. Deem and Ramdas Pophale) SiO2 
 PCOD9299634
Probable space group: C 2/C
;
_chemical_formula_sum "Si O2"
_cell_formula_units_Z 32
_cell_length_a 5.219715
_cell_length_b 7.886965
_cell_length_c 27.789062
_cell_angle_alpha 90.000000
_cell_angle_beta 77.161108
_cell_angle_gamma 90.000000
_cell_volume 1115.410294
_symmetry_space_group_name_H-M "C 2/C"
_symmetry_group_IT_number 15
_symmetry_cell_setting 'monoclinic'
loop_
_space_group_symop_operation_xyz
x,y,z
-x,y,1/2-z
-x,-y,-z
x,-y,1/2+z
1/2+x,1/2+y,z
1/2-x,1/2+y,1/2-z
1/2-x,1/2-y,-z
1/2+x,1/2-y,1/2+z
loop_
_atom_site_type_symbol
_atom_site_label
_atom_site_fract_x
_atom_site_fract_y
_atom_site_fract_z
Si Si1 0.424300 0.976774 0.850181
Si Si2 0.470994 0.648605 0.906428
Si Si3 0.030981 0.148131 0.037118
Si Si4 0.290299 0.736111 0.216349
O O1 0.506950 0.789047 0.862892
O O2 0.212549 0.929589 0.817692
O O3 0.636599 0.098027 0.817730
O O4 0.278497 0.086953 0.897656
O O5 0.366836 0.453563 0.919436
O O6 0.238662 0.749954 0.943779
O O7 0.250000 0.250000 0.000000
O O8 0.000000 0.000000 0.000000
O O9 0.500000 0.721376 0.250000
O O10 0.000000 0.746709 0.250000
#
# Coordination Sequence:
#
# PCOD9299634 Si02
#       4
#     8   8   8   8
#     4  11  27  46  71 105 146 190 244 306 368 441
#     4  10  25  44  70 104 143 190 241 300 367 437
#     4  11  24  43  69 102 142 188 240 298 361 436
#     4  12  29  51  78 111 150 200 253 312 377 448
#
# _framework density 28.688994000000001
#
# number of rings (size 3 to 8) (size 9 to 14) (size 15 to 20)
#    0.000    1.000    0.000    3.750    0.000   26.000 
#    0.000    0.000    0.000    0.000    0.000    0.000 
#    0.000    0.000    0.000    0.000    0.000    0.000 
#
# Total GULP energy -89339.592590 kJ/mol
# GULP energy per Si atom -5583.724537 kJ/mol
# Density = 2.862370 g / cm^3
# Si number density = 28.688994 Si / 1000 Ang^3
#
#
#
# Elastic Constant Matrix: (Units=GPa)
#
#
# Indices 1 2 3 4 5 6 
#
# 1 144.6383 75.9041 63.1273 0.0000 -16.1524 0.0000
# 2 75.9041 223.8264 70.9142 0.0000 -13.3688 0.0000
# 3 63.1273 70.9142 150.1900 0.0000 -48.3615 0.0000
# 4 0.0000 0.0000 0.0000 65.9781 0.0000 -7.4329
# 5 -16.1524 -13.3688 -48.3615 0.0000 48.5809 0.0000
# 6 0.0000 0.0000 0.0000 -7.4329 0.0000 76.3189
#
#
#
# Elastic Compliance Matrix: (Units=1/GPa)
#
#
# Indices 1 2 3 4 5 6 
#
# 1 0.009360 -0.002240 -0.003051 0.000000 -0.000542 0.000000
# 2 -0.002240 0.005866 -0.002278 0.000000 -0.001399 0.000000
# 3 -0.003051 -0.002278 0.012492 0.000000 0.010794 0.000000
# 4 0.000000 0.000000 0.000000 0.015325 0.000000 0.001493
# 5 -0.000542 -0.001399 0.010794 0.000000 0.030765 0.000000
# 6 0.000000 0.000000 0.000000 0.001493 0.000000 0.013248
#
#
# Mechanical properties :
#
#
# Convention : Reuss Voigt Hill
#
# Bulk Modulus (GPa) = 79.49527 104.28289 91.88908
# Shear Modulus (GPa) = 46.99750 58.75619 52.87684
#
# Velocity S-wave (km/s) = 4.05182 4.53044 4.29780
# Velocity P-wave (km/s) = 7.04693 7.98717 7.53173
#
# Compressibility (1/GPa) = 0.01257936
#
# Stress axis : x y z
#
# Youngs Moduli (GPa) = 106.83196 170.48205 80.04936
#
# Poissons Ratio (x) = 0.38188 0.24424
# Poissons Ratio (y) = 0.23931 0.18239
# Poissons Ratio (z) = 0.32595 0.38844
#
# Static dielectric constant tensor:
#      x y z
#    x 2.320250 0.000000 0.230300 
#    y 0.000000 2.236210 0.000000 
#    z 0.230300 0.000000 2.475540 
# 
# From -- ./inp_files/304657.got.cif
#   From: 2010.05.17/outbox.cif.g08.bks.cpg/sg15_153_cif.got.tgz:304657.got - 2010.06.03 18:47:42.
