data_PCOD9299160
_publ_section_title
;
Structure prediction by ZEFSAII (Michael W. Deem and Ramdas Pophale) SiO2 
 PCOD9299160
Probable space group: C 2/C
;
_chemical_formula_sum "Si O2"
_cell_formula_units_Z 44
_cell_length_a 12.368721
_cell_length_b 19.727353
_cell_length_c 8.718332
_cell_angle_alpha 90.000000
_cell_angle_beta 113.530619
_cell_angle_gamma 90.000000
_cell_volume 1950.400547
_symmetry_space_group_name_H-M "C 2/C"
_symmetry_group_IT_number 15
_symmetry_cell_setting 'monoclinic'
loop_
_space_group_symop_operation_xyz
x,y,z
-x,y,1/2-z
-x,-y,-z
x,-y,1/2+z
1/2+x,1/2+y,z
1/2-x,1/2+y,1/2-z
1/2-x,1/2-y,-z
1/2+x,1/2-y,1/2+z
loop_
_atom_site_type_symbol
_atom_site_label
_atom_site_fract_x
_atom_site_fract_y
_atom_site_fract_z
Si Si1 0.245207 0.941571 0.407322
Si Si2 0.000000 0.162777 0.250000
Si Si3 0.500000 0.886218 0.250000
Si Si4 0.157898 0.270610 0.187767
Si Si5 0.893916 0.950173 0.482691
Si Si6 0.000000 0.500000 0.500000
Si Si7 0.370391 0.693095 0.632895
O O1 0.383379 0.955093 0.481987
O O2 0.204917 0.872074 0.467427
O O3 0.183036 0.007190 0.441865
O O4 0.189231 0.934837 0.207361
O O5 0.890783 0.208929 0.240066
O O6 0.953005 0.115418 0.088542
O O7 0.597490 0.836121 0.229848
O O8 0.542382 0.937818 0.406380
O O9 0.297151 0.279015 0.237517
O O10 0.118224 0.250444 0.991349
O O11 0.000000 0.000000 0.500000
O O12 0.500000 0.669358 0.750000
#
# Coordination Sequence:
#
# PCOD9299160 Si02
#       7
#     8   4   4   8   8   4   8
#     4  12  25  43  74 105 148 193 251 302 376 437
#     4  11  22  44  74 104 151 192 246 310 377 438
#     4  11  24  54  74 106 149 200 250 314 373 464
#     4  10  24  47  72 106 148 193 250 304 376 452
#     4  12  23  43  70 110 144 191 242 305 366 445
#     4  12  26  50  72 104 150 194 246 316 374 442
#     4  11  23  47  74 107 148 196 249 311 373 451
#
# _framework density 22.559467999999999
#
# number of rings (size 3 to 8) (size 9 to 14) (size 15 to 20)
#    0.000    0.727    3.636    4.364    0.000    0.000 
#    8.182    2.727    0.000    0.000    0.000    0.000 
#    0.000    0.000    0.000    0.000    0.000    0.000 
#
# Total GULP energy -122472.994255 kJ/mol
# GULP energy per Si atom -5566.954284 kJ/mol
# Density = 2.250812 g / cm^3
# Si number density = 22.559468 Si / 1000 Ang^3
#
#
#
# Elastic Constant Matrix: (Units=GPa)
#
#
# Indices 1 2 3 4 5 6 
#
# 1 175.5964 61.2233 17.0800 0.0000 -16.7390 0.0000
# 2 61.2233 153.7331 44.2046 0.0000 -20.5711 0.0000
# 3 17.0800 44.2046 54.5011 0.0000 -25.2843 0.0000
# 4 0.0000 0.0000 0.0000 44.5405 0.0000 -20.0398
# 5 -16.7390 -20.5711 -25.2843 0.0000 16.7287 0.0000
# 6 0.0000 0.0000 0.0000 -20.0398 0.0000 52.6997
#
#
#
# Elastic Compliance Matrix: (Units=1/GPa)
#
#
# Indices 1 2 3 4 5 6 
#
# 1 0.007366 -0.002953 0.006096 0.000000 0.012953 0.000000
# 2 -0.002953 0.009667 -0.009274 0.000000 -0.005085 0.000000
# 3 0.006096 -0.009274 0.071949 0.000000 0.103441 0.000000
# 4 0.000000 0.000000 0.000000 0.027086 0.000000 0.010300
# 5 0.012953 -0.005085 0.103441 0.000000 0.222830 0.000000
# 6 0.000000 0.000000 0.000000 0.010300 0.000000 0.022892
#
#
# Mechanical properties :
#
#
# Convention : Reuss Voigt Hill
#
# Bulk Modulus (GPa) = 13.03458 69.87183 41.45320
# Shear Modulus (GPa) = 12.51170 40.21529 26.36349
#
# Velocity S-wave (km/s) = 2.35757 4.22671 3.42222
# Velocity P-wave (km/s) = 3.63335 7.40673 5.83356
#
# Compressibility (1/GPa) = 0.07671902
#
# Stress axis : x y z
#
# Youngs Moduli (GPa) = 135.75240 103.44230 13.89877
#
# Poissons Ratio (x) = 0.30548 -0.08473
# Poissons Ratio (y) = 0.40090 0.12890
# Poissons Ratio (z) = -0.82753 0.95937
#
# Static dielectric constant tensor:
#      x y z
#    x 1.840020 0.000000 -0.048950 
#    y 0.000000 1.847390 0.000000 
#    z -0.048950 0.000000 1.732380 
# 
# From -- ./inp_files/30987.got.cif
#   From: 2010.05.17/outbox.cif.g08.bks.cpg/sg15_16_cif.got.tgz:30987.got - 2010.06.03 18:47:42.
