data_PCOD9299945
_publ_section_title
;
Structure prediction by ZEFSAII (Michael W. Deem and Ramdas Pophale) SiO2 
 PCOD9299945
Probable space group: C 2/C
;
_chemical_formula_sum "Si O2"
_cell_formula_units_Z 60
_cell_length_a 24.873262
_cell_length_b 17.767642
_cell_length_c 11.600582
_cell_angle_alpha 90.000000
_cell_angle_beta 150.769180
_cell_angle_gamma 90.000000
_cell_volume 2503.542456
_symmetry_space_group_name_H-M "C 2/C"
_symmetry_group_IT_number 15
_symmetry_cell_setting 'monoclinic'
loop_
_space_group_symop_operation_xyz
x,y,z
-x,y,1/2-z
-x,-y,-z
x,-y,1/2+z
1/2+x,1/2+y,z
1/2-x,1/2+y,1/2-z
1/2-x,1/2-y,-z
1/2+x,1/2-y,1/2+z
loop_
_atom_site_type_symbol
_atom_site_label
_atom_site_fract_x
_atom_site_fract_y
_atom_site_fract_z
Si Si1 0.716617 0.411508 0.213029
Si Si2 0.341426 0.218406 0.080979
Si Si3 0.824740 0.549030 0.375645
Si Si4 0.647199 0.673686 0.114248
Si Si5 0.500000 0.312006 0.750000
Si Si6 0.933923 0.721444 0.856344
Si Si7 0.451046 0.475260 0.029663
Si Si8 0.038014 0.436362 0.155558
O O1 0.795156 0.356665 0.432050
O O2 0.776443 0.469928 0.235446
O O3 0.611888 0.361155 0.977481
O O4 0.661829 0.477660 0.186013
O O5 0.457359 0.210830 0.361736
O O6 0.250000 0.250000 0.000000
O O7 0.363885 0.276066 0.019065
O O8 0.739862 0.613798 0.250804
O O9 0.918961 0.590686 0.479174
O O10 0.892166 0.524892 0.614301
O O11 0.653410 0.730371 0.233253
O O12 0.553060 0.614979 0.976762
O O13 0.471928 0.262469 0.810125
O O14 0.896225 0.636734 0.761133
O O15 0.500000 0.493116 0.250000
O O16 0.500000 0.500000 0.000000
O O17 0.000000 0.500000 0.000000
#
# Coordination Sequence:
#
# PCOD9299945 Si02
#       8
#     8   8   8   8   4   8   8   8
#     4  11  25  44  75 105 150 192 254 303 384 462
#     4  12  25  45  72 107 148 199 247 311 381 466
#     4  10  25  49  70 106 145 193 246 305 371 453
#     4  11  27  46  75 111 146 194 256 318 386 461
#     4  12  24  46  74 116 146 196 240 324 386 450
#     4  12  26  46  75 106 150 192 254 316 383 450
#     4  11  24  46  74 108 153 200 253 320 395 464
#     4  11  25  47  74 101 147 199 244 300 371 451
#
# _framework density 23.96604
#
# number of rings (size 3 to 8) (size 9 to 14) (size 15 to 20)
#    0.000    0.800    2.000    4.400    5.600    1.600 
#    4.800    0.000    0.000    0.000    0.000    0.000 
#    0.000    0.000    0.000    0.000    0.000    0.000 
#
# Total GULP energy -167422.654510 kJ/mol
# GULP energy per Si atom -5580.755150 kJ/mol
# Density = 2.391149 g / cm^3
# Si number density = 23.966040 Si / 1000 Ang^3
#
#
#
# Elastic Constant Matrix: (Units=GPa)
#
#
# Indices 1 2 3 4 5 6 
#
# 1 107.9030 53.1406 22.2803 0.0000 -16.8872 0.0000
# 2 53.1406 171.0323 42.8764 0.0000 -13.1360 0.0000
# 3 22.2803 42.8764 67.2993 0.0000 -9.9261 0.0000
# 4 0.0000 0.0000 0.0000 26.4705 0.0000 9.7390
# 5 -16.8872 -13.1360 -9.9261 0.0000 30.9342 0.0000
# 6 0.0000 0.0000 0.0000 9.7390 0.0000 40.4675
#
#
#
# Elastic Compliance Matrix: (Units=1/GPa)
#
#
# Indices 1 2 3 4 5 6 
#
# 1 0.011733 -0.002955 -0.001304 0.000000 0.004732 0.000000
# 2 -0.002955 0.007780 -0.003914 0.000000 0.000434 0.000000
# 3 -0.001304 -0.003914 0.018300 0.000000 0.003498 0.000000
# 4 0.000000 0.000000 0.000000 0.041448 0.000000 -0.009975
# 5 0.004732 0.000434 0.003498 0.000000 0.036217 0.000000
# 6 0.000000 0.000000 0.000000 -0.009975 0.000000 0.027112
#
#
# Mechanical properties :
#
#
# Convention : Reuss Voigt Hill
#
# Bulk Modulus (GPa) = 46.58331 64.75881 55.67106
# Shear Modulus (GPa) = 30.10417 34.77026 32.43721
#
# Velocity S-wave (km/s) = 3.54802 3.81309 3.68294
# Velocity P-wave (km/s) = 6.02196 6.81659 6.43156
#
# Compressibility (1/GPa) = 0.02146691
#
# Stress axis : x y z
#
# Youngs Moduli (GPa) = 85.23198 128.54135 54.64438
#
# Poissons Ratio (x) = 0.37986 0.07124
# Poissons Ratio (y) = 0.25188 0.21388
# Poissons Ratio (z) = 0.11111 0.50311
#
# Static dielectric constant tensor:
#      x y z
#    x 2.148440 0.000000 0.104430 
#    y 0.000000 1.758980 0.000000 
#    z 0.104430 0.000000 2.001070 
# 
# From -- ./inp_files/124019.got.cif
#   From: 2010.05.17/outbox.cif.g08.bks.cpg/sg15_63_cif.got.tgz:124019.got - 2010.06.03 18:47:42.
