data_PCOD9299453
_publ_section_title
;
Structure prediction by ZEFSAII (Michael W. Deem and Ramdas Pophale) SiO2 
 PCOD9299453
Probable space group: C 2/C
;
_chemical_formula_sum "Si O2"
_cell_formula_units_Z 44
_cell_length_a 11.086742
_cell_length_b 22.853565
_cell_length_c 9.199239
_cell_angle_alpha 90.000000
_cell_angle_beta 119.782441
_cell_angle_gamma 90.000000
_cell_volume 2022.964928
_symmetry_space_group_name_H-M "C 2/C"
_symmetry_group_IT_number 15
_symmetry_cell_setting 'monoclinic'
loop_
_space_group_symop_operation_xyz
x,y,z
-x,y,1/2-z
-x,-y,-z
x,-y,1/2+z
1/2+x,1/2+y,z
1/2-x,1/2+y,1/2-z
1/2-x,1/2-y,-z
1/2+x,1/2-y,1/2+z
loop_
_atom_site_type_symbol
_atom_site_label
_atom_site_fract_x
_atom_site_fract_y
_atom_site_fract_z
Si Si1 0.774645 0.591278 0.892613
Si Si2 0.597969 0.634293 0.039166
Si Si3 0.893746 0.979415 0.812238
Si Si4 0.000000 0.626656 0.250000
Si Si5 0.205166 0.299928 0.670316
Si Si6 0.712894 0.664975 0.600759
O O1 0.713001 0.528987 0.804256
O O2 0.809181 0.630418 0.772365
O O3 0.651030 0.624933 0.907534
O O4 0.900953 0.589897 0.082428
O O5 0.670699 0.580116 0.167348
O O6 0.656294 0.692000 0.149481
O O7 0.434978 0.632234 0.971796
O O8 0.000000 0.964437 0.750000
O O9 0.000000 0.000000 0.000000
O O10 0.911406 0.668871 0.302961
O O11 0.229832 0.330315 0.528349
O O12 0.184295 0.231471 0.632200
#
# Coordination Sequence:
#
# PCOD9299453 Si02
#       6
#     8   8   8   4   8   8
#     4  11  24  42  65  98 135 175 219 269 333 401
#     4  11  23  41  67 102 131 169 223 276 338 382
#     4  12  21  39  69 100 129 164 218 291 330 378
#     4  10  26  46  60  90 140 184 220 252 334 414
#     4  10  25  40  64  96 135 177 218 272 327 402
#     4  11  22  40  67  99 130 169 227 280 328 377
#
# _framework density 21.750253000000001
#
# number of rings (size 3 to 8) (size 9 to 14) (size 15 to 20)
#    0.000    1.091    3.636    2.182    5.091    2.182 
#    0.000    3.636    0.000    0.000    0.000    0.000 
#    0.000    0.000    0.000    0.000    0.000    0.000 
#
# Total GULP energy -122858.808975 kJ/mol
# GULP energy per Si atom -5584.491317 kJ/mol
# Density = 2.170075 g / cm^3
# Si number density = 21.750253 Si / 1000 Ang^3
#
#
#
# Elastic Constant Matrix: (Units=GPa)
#
#
# Indices 1 2 3 4 5 6 
#
# 1 61.7136 13.8507 34.9445 0.0000 -9.8645 0.0000
# 2 13.8507 80.3861 39.5193 0.0000 -2.7160 0.0000
# 3 34.9445 39.5193 121.1819 0.0000 5.6141 0.0000
# 4 0.0000 0.0000 0.0000 39.6216 0.0000 -2.3206
# 5 -9.8645 -2.7160 5.6141 0.0000 44.1080 0.0000
# 6 0.0000 0.0000 0.0000 -2.3206 0.0000 20.3542
#
#
#
# Elastic Compliance Matrix: (Units=1/GPa)
#
#
# Indices 1 2 3 4 5 6 
#
# 1 0.020574 -0.000388 -0.006054 0.000000 0.005348 0.000000
# 2 -0.000388 0.014927 -0.004823 0.000000 0.001446 0.000000
# 3 -0.006054 -0.004823 0.011716 0.000000 -0.003142 0.000000
# 4 0.000000 0.000000 0.000000 0.025408 0.000000 0.002897
# 5 0.005348 0.001446 -0.003142 0.000000 0.024357 0.000000
# 6 0.000000 0.000000 0.000000 0.002897 0.000000 0.049460
#
#
# Mechanical properties :
#
#
# Convention : Reuss Voigt Hill
#
# Bulk Modulus (GPa) = 40.50728 48.87895 44.69312
# Shear Modulus (GPa) = 28.21657 32.48122 30.34890
#
# Velocity S-wave (km/s) = 3.60571 3.86861 3.73947
# Velocity P-wave (km/s) = 5.99993 6.51740 6.26401
#
# Compressibility (1/GPa) = 0.02468692
#
# Stress axis : x y z
#
# Youngs Moduli (GPa) = 48.60558 66.99387 85.35168
#
# Poissons Ratio (x) = 0.02599 0.51672
# Poissons Ratio (y) = 0.01886 0.41165
# Poissons Ratio (z) = 0.29426 0.32311
#
# Static dielectric constant tensor:
#      x y z
#    x 1.764030 0.000000 0.067040 
#    y 0.000000 1.758590 0.000000 
#    z 0.067040 0.000000 1.826850 
# 
# From -- ./inp_files/32215.got.cif
#   From: 2010.05.17/outbox.cif.g08.bks.cpg/sg15_17_cif.got.tgz:32215.got - 2010.06.03 18:47:42.
