data_PCOD9299189
_publ_section_title
;
Structure prediction by ZEFSAII (Michael W. Deem and Ramdas Pophale) SiO2 
 PCOD9299189
Probable space group: C 2/C
;
_chemical_formula_sum "Si O2"
_cell_formula_units_Z 44
_cell_length_a 9.516291
_cell_length_b 15.664681
_cell_length_c 21.066600
_cell_angle_alpha 90.000000
_cell_angle_beta 146.575280
_cell_angle_gamma 90.000000
_cell_volume 1729.855720
_symmetry_space_group_name_H-M "C 2/C"
_symmetry_group_IT_number 15
_symmetry_cell_setting 'monoclinic'
loop_
_space_group_symop_operation_xyz
x,y,z
-x,y,1/2-z
-x,-y,-z
x,-y,1/2+z
1/2+x,1/2+y,z
1/2-x,1/2+y,1/2-z
1/2-x,1/2-y,-z
1/2+x,1/2-y,1/2+z
loop_
_atom_site_type_symbol
_atom_site_label
_atom_site_fract_x
_atom_site_fract_y
_atom_site_fract_z
Si Si1 0.176292 0.926745 0.201876
Si Si2 0.756174 0.353167 0.934068
Si Si3 0.935528 0.072512 0.422449
Si Si4 0.000000 0.712103 0.750000
Si Si5 0.000000 0.994479 0.750000
Si Si6 0.714472 0.688697 0.927511
Si Si7 0.500000 0.205023 0.250000
O O1 0.224036 0.017473 0.188481
O O2 0.192219 0.946919 0.282078
O O3 0.310755 0.853783 0.212850
O O4 0.877049 0.902680 0.081940
O O5 0.602474 0.273548 0.844629
O O6 0.666512 0.433087 0.857364
O O7 0.830184 0.118813 0.027200
O O8 0.043797 0.325940 0.026143
O O9 0.739051 0.148448 0.362937
O O10 0.000000 0.000000 0.500000
O O11 0.477379 0.730410 0.800071
O O12 0.750000 0.750000 0.000000
#
# Coordination Sequence:
#
# PCOD9299189 Si02
#       7
#     8   8   8   4   4   8   4
#     4  11  23  44  69 108 146 194 254 316 386 462
#     4  10  24  47  75 104 149 202 257 310 402 474
#     4  11  26  50  71 112 153 204 251 327 396 463
#     4  11  21  44  75 113 146 198 258 323 383 476
#     4   9  23  44  71 105 144 198 244 317 391 468
#     4  12  25  47  76 111 152 201 264 328 388 477
#     4  12  28  50  74 112 158 192 260 328 386 466
#
# _framework density 25.435645999999998
#
# number of rings (size 3 to 8) (size 9 to 14) (size 15 to 20)
#    0.000    1.091    1.818    3.273    5.091    3.636 
#   19.636    0.000    0.000    0.000    0.000    0.000 
#    0.000    0.000    0.000    0.000    0.000    0.000 
#
# Total GULP energy -122794.935004 kJ/mol
# GULP energy per Si atom -5581.587955 kJ/mol
# Density = 2.537775 g / cm^3
# Si number density = 25.435646 Si / 1000 Ang^3
#
#
#
# Elastic Constant Matrix: (Units=GPa)
#
#
# Indices 1 2 3 4 5 6 
#
# 1 165.7790 62.7736 37.2777 0.0002 9.4395 0.0001
# 2 62.7736 148.9043 25.7507 0.0001 4.7496 0.0001
# 3 37.2777 25.7507 57.5991 0.0002 -3.0749 0.0005
# 4 0.0002 0.0001 0.0002 39.9606 0.0003 -7.0198
# 5 9.4395 4.7496 -3.0749 0.0003 46.6869 0.0002
# 6 0.0001 0.0001 0.0005 -7.0198 0.0002 62.7632
#
#
#
# Elastic Compliance Matrix: (Units=1/GPa)
#
#
# Indices 1 2 3 4 5 6 
#
# 1 0.008046 -0.002628 -0.004120 0.000000 -0.001631 0.000000
# 2 -0.002628 0.008179 -0.001979 0.000000 -0.000431 0.000000
# 3 -0.004120 -0.001979 0.021042 0.000000 0.002420 0.000000
# 4 0.000000 0.000000 0.000000 0.025526 0.000000 0.002855
# 5 -0.001631 -0.000431 0.002420 0.000000 0.021952 0.000000
# 6 0.000000 0.000000 0.000000 0.002855 0.000000 0.016252
#
#
# Mechanical properties :
#
#
# Convention : Reuss Voigt Hill
#
# Bulk Modulus (GPa) = 50.46893 69.32070 59.89482
# Shear Modulus (GPa) = 39.98191 46.31416 43.14804
#
# Velocity S-wave (km/s) = 3.96900 4.27176 4.12316
# Velocity P-wave (km/s) = 6.39444 7.18631 6.80191
#
# Compressibility (1/GPa) = 0.01981417
#
# Stress axis : x y z
#
# Youngs Moduli (GPa) = 124.27961 122.25721 47.52449
#
# Poissons Ratio (x) = 0.32125 0.19580
# Poissons Ratio (y) = 0.32656 0.09406
# Poissons Ratio (z) = 0.51202 0.24197
#
# Static dielectric constant tensor:
#      x y z
#    x 2.079680 0.000000 -0.027570 
#    y 0.000000 1.927080 0.000000 
#    z -0.027570 0.000000 2.126030 
# 
# From -- ./inp_files/292964.got.cif
#   From: 2010.05.17/outbox.cif.g08.bks.cpg/sg15_147_cif.got.tgz:292964.got - 2010.06.03 18:47:42.
