data_PCOD9299627
_publ_section_title
;
Structure prediction by ZEFSAII (Michael W. Deem and Ramdas Pophale) SiO2 
 PCOD9299627
Probable space group: C 2/C
;
_chemical_formula_sum "Si O2"
_cell_formula_units_Z 48
_cell_length_a 14.951871
_cell_length_b 13.915797
_cell_length_c 29.441970
_cell_angle_alpha 90.000000
_cell_angle_beta 160.343855
_cell_angle_gamma 90.000000
_cell_volume 2060.599619
_symmetry_space_group_name_H-M "C 2/C"
_symmetry_group_IT_number 15
_symmetry_cell_setting 'monoclinic'
loop_
_space_group_symop_operation_xyz
x,y,z
-x,y,1/2-z
-x,-y,-z
x,-y,1/2+z
1/2+x,1/2+y,z
1/2-x,1/2+y,1/2-z
1/2-x,1/2-y,-z
1/2+x,1/2-y,1/2+z
loop_
_atom_site_type_symbol
_atom_site_label
_atom_site_fract_x
_atom_site_fract_y
_atom_site_fract_z
Si Si1 0.813890 0.698860 0.703540
Si Si2 0.955127 0.281312 0.370553
Si Si3 0.267215 0.112679 0.866373
Si Si4 0.100566 0.048535 0.002233
Si Si5 0.684087 0.076696 0.250109
Si Si6 0.171924 0.414940 0.640610
O O1 0.874095 0.667593 0.784357
O O2 0.521362 0.656077 0.555449
O O3 0.825941 0.814335 0.711680
O O4 0.000000 0.668113 0.750000
O O5 0.943108 0.341871 0.410773
O O6 0.776085 0.187853 0.295849
O O7 0.250000 0.250000 0.500000
O O8 0.000000 0.169935 0.750000
O O9 0.179874 0.010788 0.803326
O O10 0.431255 0.097043 0.990443
O O11 0.418033 0.051244 0.150603
O O12 0.939439 0.987046 0.886932
O O13 0.000000 0.000000 0.000000
O O14 0.594438 0.066177 0.155149
#
# Coordination Sequence:
#
# PCOD9299627 Si02
#       6
#     8   8   8   8   8   8
#     4  11  24  45  73 104 152 195 252 310 381 459
#     4  11  27  46  77 111 150 203 251 315 385 454
#     4  11  25  42  74 107 148 192 249 310 377 453
#     4  12  28  47  76 112 152 201 254 319 378 455
#     4  11  28  47  77 109 152 199 257 310 389 451
#     4  10  25  44  69 106 144 192 246 303 379 450
#
# _framework density 23.294191000000001
#
# number of rings (size 3 to 8) (size 9 to 14) (size 15 to 20)
#    0.000    1.000    0.000    4.000   16.333    4.000 
#    0.000    0.000    0.000    0.000    0.000    0.000 
#    0.000    0.000    0.000    0.000    0.000    0.000 
#
# Total GULP energy -134097.057751 kJ/mol
# GULP energy per Si atom -5587.377406 kJ/mol
# Density = 2.324117 g / cm^3
# Si number density = 23.294191 Si / 1000 Ang^3
#
#
#
# Elastic Constant Matrix: (Units=GPa)
#
#
# Indices 1 2 3 4 5 6 
#
# 1 135.5744 29.3830 40.0136 -0.0089 -3.9037 0.0083
# 2 29.3830 64.1324 9.1702 0.0019 -1.8366 0.0019
# 3 40.0136 9.1702 77.1763 -0.0099 14.2650 -0.0005
# 4 -0.0089 0.0019 -0.0099 31.0336 -0.0138 -10.6688
# 5 -3.9037 -1.8366 14.2650 -0.0138 47.2738 -0.0062
# 6 0.0083 0.0019 -0.0005 -10.6688 -0.0062 22.2434
#
#
#
# Elastic Compliance Matrix: (Units=1/GPa)
#
#
# Indices 1 2 3 4 5 6 
#
# 1 0.009709 -0.003672 -0.004998 0.000002 0.002167 -0.000002
# 2 -0.003672 0.017321 -0.000236 -0.000002 0.000441 -0.000001
# 3 -0.004998 -0.000236 0.016580 0.000002 -0.005425 0.000002
# 4 0.000002 -0.000002 0.000002 0.038586 0.000013 0.018507
# 5 0.002167 0.000441 -0.005425 0.000013 0.022986 0.000012
# 6 -0.000002 -0.000001 0.000002 0.018507 0.000012 0.053834
#
#
# Mechanical properties :
#
#
# Convention : Reuss Voigt Hill
#
# Bulk Modulus (GPa) = 38.76234 48.22408 43.49321
# Shear Modulus (GPa) = 26.96467 33.33126 30.14796
#
# Velocity S-wave (km/s) = 3.40600 3.78681 3.60144
# Velocity P-wave (km/s) = 5.66959 6.31403 6.00047
#
# Compressibility (1/GPa) = 0.02579824
#
# Stress axis : x y z
#
# Youngs Moduli (GPa) = 102.99269 57.73220 60.31504
#
# Poissons Ratio (x) = 0.21198 0.30148
# Poissons Ratio (y) = 0.37816 0.01423
# Poissons Ratio (z) = 0.51480 0.01362
#
# Static dielectric constant tensor:
#      x y z
#    x 1.848390 0.000030 -0.088780 
#    y 0.000030 1.943930 0.000010 
#    z -0.088780 0.000010 1.867160 
# 
# From -- ./inp_files/314057.got.cif
#   From: 2010.05.17/outbox.cif.g08.bks.cpg/sg15_158_cif.got.tgz:314057.got - 2010.06.03 18:47:42.
