data_PCOD9299222
_publ_section_title
;
Structure prediction by ZEFSAII (Michael W. Deem and Ramdas Pophale) SiO2 
 PCOD9299222
Probable space group: C 2/C
;
_chemical_formula_sum "Si O2"
_cell_formula_units_Z 36
_cell_length_a 16.946795
_cell_length_b 7.719094
_cell_length_c 13.539612
_cell_angle_alpha 90.000000
_cell_angle_beta 73.828314
_cell_angle_gamma 90.000000
_cell_volume 1701.086869
_symmetry_space_group_name_H-M "C 2/C"
_symmetry_group_IT_number 15
_symmetry_cell_setting 'monoclinic'
loop_
_space_group_symop_operation_xyz
x,y,z
-x,y,1/2-z
-x,-y,-z
x,-y,1/2+z
1/2+x,1/2+y,z
1/2-x,1/2+y,1/2-z
1/2-x,1/2-y,-z
1/2+x,1/2-y,1/2+z
loop_
_atom_site_type_symbol
_atom_site_label
_atom_site_fract_x
_atom_site_fract_y
_atom_site_fract_z
Si Si1 0.310599 0.866754 0.542706
Si Si2 0.500000 0.846875 0.750000
Si Si3 0.792148 0.072638 0.762869
Si Si4 0.828609 0.443714 0.844250
Si Si5 0.448110 0.378226 0.092038
O O1 0.250000 0.750000 0.500000
O O2 0.389842 0.759135 0.553223
O O3 0.256707 0.945813 0.648806
O O4 0.333571 0.020368 0.458490
O O5 0.419552 0.961926 0.769635
O O6 0.495798 0.726671 0.849259
O O7 0.802388 0.250997 0.819596
O O8 0.881449 0.024753 0.686646
O O9 0.733435 0.073272 0.687976
O O10 0.500000 0.500000 0.000000
#
# Coordination Sequence:
#
# PCOD9299222 Si02
#       5
#     8   4   8   8   8
#     4  12  24  45  69 108 133 187 247 285 356 436
#     4  10  24  48  62 104 144 176 238 292 362 414
#     4  11  22  46  71 100 142 186 235 289 357 425
#     4  11  23  44  74  99 145 184 236 297 354 427
#     4  11  26  45  70 103 144 185 238 295 361 421
#
# _framework density 21.162939000000001
#
# number of rings (size 3 to 8) (size 9 to 14) (size 15 to 20)
#    0.000    0.889    6.667    0.667    6.222    2.667 
#    8.000    0.000    0.000    0.000    0.000    0.000 
#    0.000    0.000    0.000    0.000    0.000    0.000 
#
# Total GULP energy -100401.446994 kJ/mol
# GULP energy per Si atom -5577.858166 kJ/mol
# Density = 2.111477 g / cm^3
# Si number density = 21.162939 Si / 1000 Ang^3
#
#
#
# Elastic Constant Matrix: (Units=GPa)
#
#
# Indices 1 2 3 4 5 6 
#
# 1 105.5095 45.5974 28.9369 0.0000 -1.8842 0.0000
# 2 45.5974 73.5727 57.4009 0.0000 -17.0764 0.0000
# 3 28.9369 57.4009 156.1390 0.0000 -9.9841 0.0000
# 4 0.0000 0.0000 0.0000 41.0793 0.0000 2.2735
# 5 -1.8842 -17.0764 -9.9841 0.0000 42.5213 0.0000
# 6 0.0000 0.0000 0.0000 2.2735 0.0000 37.2466
#
#
#
# Elastic Compliance Matrix: (Units=1/GPa)
#
#
# Indices 1 2 3 4 5 6 
#
# 1 0.013370 -0.009698 0.000890 0.000000 -0.003093 0.000000
# 2 -0.009698 0.027791 -0.007851 0.000000 0.008887 0.000000
# 3 0.000890 -0.007851 0.009063 0.000000 -0.000985 0.000000
# 4 0.000000 0.000000 0.000000 0.024426 0.000000 -0.001491
# 5 -0.003093 0.008887 -0.000985 0.000000 0.026718 0.000000
# 6 0.000000 0.000000 0.000000 -0.001491 0.000000 0.026939
#
#
# Mechanical properties :
#
#
# Convention : Reuss Voigt Hill
#
# Bulk Modulus (GPa) = 59.15617 66.56575 62.86096
# Shear Modulus (GPa) = 29.89364 37.72187 33.80776
#
# Velocity S-wave (km/s) = 3.76246 4.22649 4.00121
# Velocity P-wave (km/s) = 6.84750 7.43907 7.14941
#
# Compressibility (1/GPa) = 0.01690441
#
# Stress axis : x y z
#
# Youngs Moduli (GPa) = 74.79568 35.98350 110.34055
#
# Poissons Ratio (x) = 0.34897 -0.09817
# Poissons Ratio (y) = 0.72538 0.86627
# Poissons Ratio (z) = -0.06655 0.28250
#
# Static dielectric constant tensor:
#      x y z
#    x 1.747360 0.000000 0.006890 
#    y 0.000000 1.808120 0.000000 
#    z 0.006890 0.000000 1.878070 
# 
# From -- ./inp_files/102430.got.cif
#   From: 2010.05.17/outbox.cif.g08.bks.cpg/sg15_52_cif.got.tgz:102430.got - 2010.06.03 18:47:42.
