data_PCOD9299022
_publ_section_title
;
Structure prediction by ZEFSAII (Michael W. Deem and Ramdas Pophale) SiO2 
 PCOD9299022
Probable space group: C 2/C
;
_chemical_formula_sum "Si O2"
_cell_formula_units_Z 36
_cell_length_a 11.774219
_cell_length_b 7.225441
_cell_length_c 20.923342
_cell_angle_alpha 90.000000
_cell_angle_beta 60.776647
_cell_angle_gamma 90.000000
_cell_volume 1553.474123
_symmetry_space_group_name_H-M "C 2/C"
_symmetry_group_IT_number 15
_symmetry_cell_setting 'monoclinic'
loop_
_space_group_symop_operation_xyz
x,y,z
-x,y,1/2-z
-x,-y,-z
x,-y,1/2+z
1/2+x,1/2+y,z
1/2-x,1/2+y,1/2-z
1/2-x,1/2-y,-z
1/2+x,1/2-y,1/2+z
loop_
_atom_site_type_symbol
_atom_site_label
_atom_site_fract_x
_atom_site_fract_y
_atom_site_fract_z
Si Si1 0.558644 0.644525 0.392219
Si Si2 0.377879 0.358626 0.483906
Si Si3 0.500000 0.208286 0.250000
Si Si4 0.137835 0.065612 0.231897
Si Si5 0.071210 0.421037 0.869212
O O1 0.624972 0.592468 0.440838
O O2 0.633691 0.570683 0.309675
O O3 0.418605 0.541020 0.432993
O O4 0.880761 0.855162 0.287676
O O5 0.250000 0.250000 0.500000
O O6 0.492937 0.213931 0.436795
O O7 0.448077 0.134998 0.608700
O O8 0.479934 0.104066 0.189483
O O9 0.276419 0.132559 0.170796
O O10 0.000000 0.159717 0.250000
#
# Coordination Sequence:
#
# PCOD9299022 Si02
#       5
#     8   8   4   8   8
#     4  11  26  47  74 110 143 200 251 291 377 454
#     4  11  27  51  74 106 159 194 247 316 363 443
#     4  10  24  46  74 106 152 188 238 328 362 428
#     4  10  24  47  73 107 153 186 249 316 364 442
#     4  12  25  47  78 107 148 199 250 308 377 437
#
# _framework density 23.173866
#
# number of rings (size 3 to 8) (size 9 to 14) (size 15 to 20)
#    0.667    0.444    2.222    2.000   10.889    0.889 
#    8.000    0.000    0.000    0.000    0.000    0.000 
#    0.000    0.000    0.000    0.000    0.000    0.000 
#
# Total GULP energy -100642.972002 kJ/mol
# GULP energy per Si atom -5591.276222 kJ/mol
# Density = 2.312112 g / cm^3
# Si number density = 23.173866 Si / 1000 Ang^3
#
#
#
# Elastic Constant Matrix: (Units=GPa)
#
#
# Indices 1 2 3 4 5 6 
#
# 1 134.6220 40.0833 66.2489 0.0000 -31.6145 0.0000
# 2 40.0833 84.6997 18.1330 0.0000 -8.4276 0.0000
# 3 66.2489 18.1330 84.7155 0.0000 -19.2904 0.0000
# 4 0.0000 0.0000 0.0000 42.4194 0.0000 4.0579
# 5 -31.6145 -8.4276 -19.2904 0.0000 32.8497 0.0000
# 6 0.0000 0.0000 0.0000 4.0579 0.0000 33.1569
#
#
#
# Elastic Compliance Matrix: (Units=1/GPa)
#
#
# Indices 1 2 3 4 5 6 
#
# 1 0.015065 -0.004398 -0.008998 0.000000 0.008086 0.000000
# 2 -0.004398 0.013758 0.000386 0.000000 -0.000477 0.000000
# 3 -0.008998 0.000386 0.019404 0.000000 0.002834 0.000000
# 4 0.000000 0.000000 0.000000 0.023853 0.000000 -0.002919
# 5 0.008086 -0.000477 0.002834 0.000000 0.039765 0.000000
# 6 0.000000 0.000000 0.000000 -0.002919 0.000000 0.030517
#
#
# Mechanical properties :
#
#
# Convention : Reuss Voigt Hill
#
# Bulk Modulus (GPa) = 45.03397 61.44086 53.23741
# Shear Modulus (GPa) = 28.44398 33.65668 31.05033
#
# Velocity S-wave (km/s) = 3.50725 3.81511 3.66442
# Velocity P-wave (km/s) = 5.98969 6.78066 6.39741
#
# Compressibility (1/GPa) = 0.02220546
#
# Stress axis : x y z
#
# Youngs Moduli (GPa) = 66.37981 72.68618 51.53689
#
# Poissons Ratio (x) = 0.31970 0.46374
# Poissons Ratio (y) = 0.29196 -0.01991
# Poissons Ratio (z) = 0.59730 -0.02808
#
# Static dielectric constant tensor:
#      x y z
#    x 1.913140 0.000000 0.002860 
#    y 0.000000 1.887060 0.000000 
#    z 0.002860 0.000000 1.838750 
# 
# From -- ./inp_files/187614.got.cif
#   From: 2010.05.17/outbox.cif.g08.bks.cpg/sg15_94_cif.got.tgz:187614.got - 2010.06.03 18:47:42.
