data_PCOD9299008
_publ_section_title
;
Structure prediction by ZEFSAII (Michael W. Deem and Ramdas Pophale) SiO2 
 PCOD9299008
Probable space group: C 2/C
;
_chemical_formula_sum "Si O2"
_cell_formula_units_Z 44
_cell_length_a 14.018255
_cell_length_b 9.392544
_cell_length_c 14.047971
_cell_angle_alpha 90.000000
_cell_angle_beta 64.095221
_cell_angle_gamma 90.000000
_cell_volume 1663.804399
_symmetry_space_group_name_H-M "C 2/C"
_symmetry_group_IT_number 15
_symmetry_cell_setting 'monoclinic'
loop_
_space_group_symop_operation_xyz
x,y,z
-x,y,1/2-z
-x,-y,-z
x,-y,1/2+z
1/2+x,1/2+y,z
1/2-x,1/2+y,1/2-z
1/2-x,1/2-y,-z
1/2+x,1/2-y,1/2+z
loop_
_atom_site_type_symbol
_atom_site_label
_atom_site_fract_x
_atom_site_fract_y
_atom_site_fract_z
Si Si1 0.324002 0.271370 0.378038
Si Si2 0.273620 0.564985 0.735695
Si Si3 0.790612 0.195108 0.358437
Si Si4 0.000000 0.459421 0.750000
Si Si5 0.569024 0.822842 0.062516
Si Si6 0.501458 0.366578 0.067828
O O1 0.250000 0.250000 0.500000
O O2 0.244257 0.348239 0.341577
O O3 0.394605 0.141083 0.304516
O O4 0.412422 0.369701 0.388198
O O5 0.215538 0.637809 0.671945
O O6 0.286681 0.404238 0.766426
O O7 0.390409 0.626205 0.668062
O O8 0.686184 0.149277 0.464461
O O9 0.895718 0.198526 0.377713
O O10 0.989822 0.556429 0.849821
O O11 0.500114 0.767618 0.003542
O O12 0.500000 0.500000 0.000000
#
# Coordination Sequence:
#
# PCOD9299008 Si02
#       6
#     8   8   8   4   8   8
#     4  12  27  47  72 108 150 192 250 313 374 451
#     4  11  24  44  73 103 150 189 249 303 380 447
#     4  10  24  46  73 112 143 197 246 313 376 459
#     4  12  26  46  74 108 150 202 246 304 384 440
#     4  10  25  44  73 106 150 186 255 305 375 456
#     4  11  25  46  71 103 143 195 245 306 378 448
#
# _framework density 26.445416000000002
#
# number of rings (size 3 to 8) (size 9 to 14) (size 15 to 20)
#    0.000    1.091    1.818    2.182    7.636    2.182 
#    0.000    0.000    0.000    0.000    0.000    0.000 
#    0.000    0.000    0.000    0.000    0.000    0.000 
#
# Total GULP energy -122813.029137 kJ/mol
# GULP energy per Si atom -5582.410415 kJ/mol
# Density = 2.638522 g / cm^3
# Si number density = 26.445416 Si / 1000 Ang^3
#
#
#
# Elastic Constant Matrix: (Units=GPa)
#
#
# Indices 1 2 3 4 5 6 
#
# 1 57.9383 4.4869 10.3079 0.0000 3.2723 0.0000
# 2 4.4869 138.5437 44.7086 0.0000 6.6464 0.0000
# 3 10.3079 44.7086 80.6267 0.0000 1.0903 0.0000
# 4 0.0000 0.0000 0.0000 58.2138 0.0000 13.0877
# 5 3.2723 6.6464 1.0903 0.0000 46.3089 0.0000
# 6 0.0000 0.0000 0.0000 13.0877 0.0000 24.1522
#
#
#
# Elastic Compliance Matrix: (Units=1/GPa)
#
#
# Indices 1 2 3 4 5 6 
#
# 1 0.017735 0.000257 -0.002393 0.000000 -0.001234 0.000000
# 2 0.000257 0.008856 -0.004928 0.000000 -0.001173 0.000000
# 3 -0.002393 -0.004928 0.015434 0.000000 0.000513 0.000000
# 4 0.000000 0.000000 0.000000 0.019561 0.000000 -0.010600
# 5 -0.001234 -0.001173 0.000513 0.000000 0.021838 0.000000
# 6 0.000000 0.000000 0.000000 -0.010600 0.000000 0.047148
#
#
# Mechanical properties :
#
#
# Convention : Reuss Voigt Hill
#
# Bulk Modulus (GPa) = 35.84508 44.01281 39.92895
# Shear Modulus (GPa) = 32.46756 40.24202 36.35479
#
# Velocity S-wave (km/s) = 3.50768 3.90513 3.71173
# Velocity P-wave (km/s) = 5.47621 6.08378 5.78798
#
# Compressibility (1/GPa) = 0.02789783
#
# Stress axis : x y z
#
# Youngs Moduli (GPa) = 56.38475 112.91612 64.79022
#
# Poissons Ratio (x) = -0.02904 0.15506
# Poissons Ratio (y) = -0.01450 0.31928
# Poissons Ratio (z) = 0.13495 0.55643
#
# Static dielectric constant tensor:
#      x y z
#    x 0.885870 0.000000 2.128980 
#    y 0.000000 2.167520 0.000000 
#    z 2.128980 0.000000 -0.996630 
# 
# From -- ./inp_files/159662.got.cif
#   From: 2010.05.17/outbox.cif.g08.bks.cpg/sg15_80_cif.got.tgz:159662.got - 2010.06.03 18:47:42.
