data_PCOD9299397
_publ_section_title
;
Structure prediction by ZEFSAII (Michael W. Deem and Ramdas Pophale) SiO2 
 PCOD9299397
Probable space group: C 2/C
;
_chemical_formula_sum "Si O2"
_cell_formula_units_Z 52
_cell_length_a 27.689848
_cell_length_b 10.530717
_cell_length_c 9.905058
_cell_angle_alpha 90.000000
_cell_angle_beta 57.495591
_cell_angle_gamma 90.000000
_cell_volume 2435.810150
_symmetry_space_group_name_H-M "C 2/C"
_symmetry_group_IT_number 15
_symmetry_cell_setting 'monoclinic'
loop_
_space_group_symop_operation_xyz
x,y,z
-x,y,1/2-z
-x,-y,-z
x,-y,1/2+z
1/2+x,1/2+y,z
1/2-x,1/2+y,1/2-z
1/2-x,1/2-y,-z
1/2+x,1/2-y,1/2+z
loop_
_atom_site_type_symbol
_atom_site_label
_atom_site_fract_x
_atom_site_fract_y
_atom_site_fract_z
Si Si1 0.611244 0.967724 0.175724
Si Si2 0.222298 0.824060 0.916683
Si Si3 0.842056 0.612574 0.164202
Si Si4 0.375817 0.500040 0.315189
Si Si5 0.191752 0.752395 0.675223
Si Si6 0.586166 0.346879 0.490147
Si Si7 0.000000 0.340440 0.250000
O O1 0.649187 0.856287 0.186637
O O2 0.545922 0.924417 0.261398
O O3 0.624295 0.088030 0.247711
O O4 0.633389 0.976071 0.989792
O O5 0.275121 0.909555 0.784370
O O6 0.205451 0.740665 0.812919
O O7 0.250000 0.750000 0.000000
O O8 0.169272 0.903965 0.049939
O O9 0.856807 0.757155 0.098924
O O10 0.339553 0.612414 0.299003
O O11 0.413120 0.427898 0.146937
O O12 0.410816 0.563868 0.383767
O O13 0.250000 0.750000 0.500000
O O14 0.535074 0.248454 0.593952
#
# Coordination Sequence:
#
# PCOD9299397 Si02
#       7
#     8   8   8   8   8   8   4
#     4  11  25  43  72  97 142 182 236 287 344 413
#     4  12  25  38  67 103 143 182 222 280 349 428
#     4  11  24  43  65 105 138 183 230 282 349 422
#     4  12  23  41  66 101 138 179 225 286 340 422
#     4  12  23  43  66  99 142 186 222 276 355 414
#     4  11  24  45  68  96 134 179 235 286 343 409
#     4  10  24  50  72 100 136 186 240 298 354 398
#
# _framework density 21.348133000000001
#
# number of rings (size 3 to 8) (size 9 to 14) (size 15 to 20)
#    0.000    0.615    7.692    0.923    2.154    3.077 
#    0.000    0.000    0.000    4.615    0.000    0.000 
#    0.000    0.000    0.000    0.000    0.000    0.000 
#
# Total GULP energy -145451.022232 kJ/mol
# GULP energy per Si atom -5594.270086 kJ/mol
# Density = 2.129954 g / cm^3
# Si number density = 21.348133 Si / 1000 Ang^3
#
#
#
# Elastic Constant Matrix: (Units=GPa)
#
#
# Indices 1 2 3 4 5 6 
#
# 1 85.1647 -1.3190 9.6409 0.0000 -1.1725 0.0000
# 2 -1.3190 35.8749 -1.7787 0.0000 3.3578 0.0000
# 3 9.6409 -1.7787 79.5515 0.0000 14.8694 0.0000
# 4 0.0000 0.0000 0.0000 38.0380 0.0000 7.3293
# 5 -1.1725 3.3578 14.8694 0.0000 36.4327 0.0000
# 6 0.0000 0.0000 0.0000 7.3293 0.0000 40.0059
#
#
#
# Elastic Compliance Matrix: (Units=1/GPa)
#
#
# Indices 1 2 3 4 5 6 
#
# 1 0.011945 0.000262 -0.001634 0.000000 0.001027 0.000000
# 2 0.000262 0.028230 0.001174 0.000000 -0.003072 0.000000
# 3 -0.001634 0.001174 0.013884 0.000000 -0.005827 0.000000
# 4 0.000000 0.000000 0.000000 0.027251 0.000000 -0.004993
# 5 0.001027 -0.003072 -0.005827 0.000000 0.030142 0.000000
# 6 0.000000 0.000000 0.000000 -0.004993 0.000000 0.025911
#
#
# Mechanical properties :
#
#
# Convention : Reuss Voigt Hill
#
# Bulk Modulus (GPa) = 18.63480 23.74195 21.18838
# Shear Modulus (GPa) = 32.12385 35.83184 33.97785
#
# Velocity S-wave (km/s) = 3.88333 4.10134 3.99382
# Velocity P-wave (km/s) = 5.37169 5.79426 5.58697
#
# Compressibility (1/GPa) = 0.05366304
#
# Stress axis : x y z
#
# Youngs Moduli (GPa) = 83.71631 35.42326 72.02581
#
# Poissons Ratio (x) = -0.00928 0.11767
# Poissons Ratio (y) = -0.02194 -0.08454
# Poissons Ratio (z) = 0.13677 -0.04158
#
# Static dielectric constant tensor:
#      x y z
#    x 1.762170 0.000000 0.002250 
#    y 0.000000 1.793130 0.000000 
#    z 0.002250 0.000000 1.782750 
# 
# From -- ./inp_files/65379.got.cif
#   From: 2010.05.17/outbox.cif.g08.bks.cpg/sg15_33_cif.got.tgz:65379.got - 2010.06.03 18:47:42.
