data_PCOD9299736
_publ_section_title
;
Structure prediction by ZEFSAII (Michael W. Deem and Ramdas Pophale) SiO2 
 PCOD9299736
Probable space group: C 2/C
;
_chemical_formula_sum "Si O2"
_cell_formula_units_Z 48
_cell_length_a 11.908482
_cell_length_b 19.919479
_cell_length_c 9.631740
_cell_angle_alpha 90.000000
_cell_angle_beta 55.000306
_cell_angle_gamma 90.000000
_cell_volume 1871.566547
_symmetry_space_group_name_H-M "C 2/C"
_symmetry_group_IT_number 15
_symmetry_cell_setting 'monoclinic'
loop_
_space_group_symop_operation_xyz
x,y,z
-x,y,1/2-z
-x,-y,-z
x,-y,1/2+z
1/2+x,1/2+y,z
1/2-x,1/2+y,1/2-z
1/2-x,1/2-y,-z
1/2+x,1/2-y,1/2+z
loop_
_atom_site_type_symbol
_atom_site_label
_atom_site_fract_x
_atom_site_fract_y
_atom_site_fract_z
Si Si1 0.817830 0.194991 0.630260
Si Si2 0.610596 0.682593 0.327667
Si Si3 0.735030 0.556702 0.162932
Si Si4 0.777380 0.827898 0.457888
Si Si5 0.785963 0.548811 0.820589
Si Si6 0.525331 0.925766 0.573636
O O1 0.715633 0.258149 0.711518
O O2 0.956350 0.209837 0.448979
O O3 0.739386 0.127725 0.640071
O O4 0.860071 0.172338 0.756333
O O5 0.630413 0.616919 0.221399
O O6 0.650864 0.652441 0.451050
O O7 0.684793 0.498394 0.302832
O O8 0.871975 0.591551 0.130790
O O9 0.776323 0.524143 0.986247
O O10 0.750000 0.750000 0.500000
O O11 0.635022 0.866524 0.528277
O O12 0.910784 0.544664 0.618274
O O13 0.500000 0.952911 0.750000
#
# Coordination Sequence:
#
# PCOD9299736 Si02
#       6
#     8   8   8   8   8   8
#     4  10  25  45  73 110 149 195 249 311 376 452
#     4  11  24  44  76 110 146 200 246 309 377 452
#     4  12  26  45  74 106 148 197 253 309 376 449
#     4   9  20  36  68 104 148 185 241 298 362 432
#     4  11  27  47  70 109 148 198 250 316 376 448
#     4  11  21  42  71 106 148 189 246 300 366 438
#
# _framework density 25.646965000000002
#
# number of rings (size 3 to 8) (size 9 to 14) (size 15 to 20)
#    0.000    1.333    1.667    2.500    9.333    2.000 
#    0.000    0.000    0.000    0.000    0.000    0.000 
#    0.000    0.000    0.000    0.000    0.000    0.000 
#
# Total GULP energy -133868.875352 kJ/mol
# GULP energy per Si atom -5577.869806 kJ/mol
# Density = 2.558859 g / cm^3
# Si number density = 25.646965 Si / 1000 Ang^3
#
#
#
# Elastic Constant Matrix: (Units=GPa)
#
#
# Indices 1 2 3 4 5 6 
#
# 1 112.2940 31.4934 62.8435 0.0000 -10.6297 0.0000
# 2 31.4934 112.2989 50.0471 0.0000 -20.2127 0.0000
# 3 62.8435 50.0471 199.8808 0.0000 7.9073 0.0000
# 4 0.0000 0.0000 0.0000 48.8153 0.0000 -4.9288
# 5 -10.6297 -20.2127 7.9073 0.0000 63.4776 0.0000
# 6 0.0000 0.0000 0.0000 -4.9288 0.0000 22.7917
#
#
#
# Elastic Compliance Matrix: (Units=1/GPa)
#
#
# Indices 1 2 3 4 5 6 
#
# 1 0.011304 -0.001371 -0.003285 0.000000 0.001866 0.000000
# 2 -0.001371 0.011039 -0.002475 0.000000 0.003594 0.000000
# 3 -0.003285 -0.002475 0.006742 0.000000 -0.002178 0.000000
# 4 0.000000 0.000000 0.000000 0.020943 0.000000 0.004529
# 5 0.001866 0.003594 -0.002178 0.000000 0.017482 0.000000
# 6 0.000000 0.000000 0.000000 0.004529 0.000000 0.044855
#
#
# Mechanical properties :
#
#
# Convention : Reuss Voigt Hill
#
# Bulk Modulus (GPa) = 67.45813 79.24909 73.35361
# Shear Modulus (GPa) = 38.00330 45.68956 41.84643
#
# Velocity S-wave (km/s) = 3.85357 4.22534 4.04373
# Velocity P-wave (km/s) = 6.79409 7.40079 7.10392
#
# Compressibility (1/GPa) = 0.01482401
#
# Stress axis : x y z
#
# Youngs Moduli (GPa) = 88.46045 90.58635 148.33053
#
# Poissons Ratio (x) = 0.12415 0.48724
# Poissons Ratio (y) = 0.12124 0.36717
# Poissons Ratio (z) = 0.29058 0.22423
#
# Static dielectric constant tensor:
#      x y z
#    x 2.157420 0.000000 0.035080 
#    y 0.000000 2.181370 0.000000 
#    z 0.035080 0.000000 2.038160 
# 
# From -- ./inp_files/40652.got.cif
#   From: 2010.05.17/outbox.cif.g08.bks.cpg/sg15_21_cif.got.tgz:40652.got - 2010.06.03 18:47:42.
