data_PCOD9299984
_publ_section_title
;
Structure prediction by ZEFSAII (Michael W. Deem and Ramdas Pophale) SiO2 
 PCOD9299984
Probable space group: C 2/C
;
_chemical_formula_sum "Si O2"
_cell_formula_units_Z 48
_cell_length_a 8.648805
_cell_length_b 25.249979
_cell_length_c 14.832846
_cell_angle_alpha 90.000000
_cell_angle_beta 140.947296
_cell_angle_gamma 90.000000
_cell_volume 2040.827431
_symmetry_space_group_name_H-M "C 2/C"
_symmetry_group_IT_number 15
_symmetry_cell_setting 'monoclinic'
loop_
_space_group_symop_operation_xyz
x,y,z
-x,y,1/2-z
-x,-y,-z
x,-y,1/2+z
1/2+x,1/2+y,z
1/2-x,1/2+y,1/2-z
1/2-x,1/2-y,-z
1/2+x,1/2-y,1/2+z
loop_
_atom_site_type_symbol
_atom_site_label
_atom_site_fract_x
_atom_site_fract_y
_atom_site_fract_z
Si Si1 0.361586 0.274765 0.790181
Si Si2 0.636735 0.221141 0.533552
Si Si3 0.203531 0.611858 0.501363
Si Si4 0.000000 0.971580 0.250000
Si Si5 0.301430 0.960545 0.741972
Si Si6 0.000000 0.323102 0.250000
Si Si7 0.992295 0.127462 0.033863
O O1 0.504492 0.220129 0.832270
O O2 0.479275 0.331136 0.870118
O O3 0.155624 0.278981 0.620284
O O4 0.263447 0.255559 0.840557
O O5 0.750000 0.250000 0.500000
O O6 0.700830 0.159812 0.569790
O O7 0.357387 0.564653 0.613714
O O8 0.314166 0.635599 0.459411
O O9 0.944525 0.587386 0.355931
O O10 0.800326 0.001986 0.223765
O O11 0.500000 0.977044 0.750000
O O12 0.056890 0.932757 0.590301
O O13 0.234003 0.359866 0.370357
#
# Coordination Sequence:
#
# PCOD9299984 Si02
#       7
#     8   8   8   4   8   4   8
#     4  12  24  41  67 104 150 203 245 301 376 453
#     4  12  24  39  73 104 145 190 247 307 369 463
#     4  11  25  47  74 110 143 192 256 309 389 463
#     4  12  28  49  78 118 140 193 264 330 394 450
#     4  10  25  51  80 104 149 197 252 322 390 457
#     4  12  26  43  64 114 162 195 256 310 366 474
#     4  11  24  45  70 104 147 204 246 308 388 448
#
# _framework density 23.519874000000002
#
# number of rings (size 3 to 8) (size 9 to 14) (size 15 to 20)
#    0.000    0.667    5.000    1.500    4.667    4.667 
#    4.500    0.000    0.000    0.000    0.000    0.000 
#    0.000    0.000    0.000    0.000    0.000    0.000 
#
# Total GULP energy -133754.932765 kJ/mol
# GULP energy per Si atom -5573.122199 kJ/mol
# Density = 2.346634 g / cm^3
# Si number density = 23.519874 Si / 1000 Ang^3
#
#
#
# Elastic Constant Matrix: (Units=GPa)
#
#
# Indices 1 2 3 4 5 6 
#
# 1 95.2811 50.7252 24.0877 0.0000 -6.3210 0.0000
# 2 50.7252 93.0493 33.4961 0.0000 15.6051 0.0000
# 3 24.0877 33.4961 87.8600 0.0000 6.4429 0.0000
# 4 0.0000 0.0000 0.0000 168.8139 0.0000 -16.8457
# 5 -6.3210 15.6051 6.4429 0.0000 29.0961 0.0000
# 6 0.0000 0.0000 0.0000 -16.8457 0.0000 39.3318
#
#
#
# Elastic Compliance Matrix: (Units=1/GPa)
#
#
# Indices 1 2 3 4 5 6 
#
# 1 0.017006 -0.010367 -0.001412 0.000000 0.009567 0.000000
# 2 -0.010367 0.019790 -0.003821 0.000000 -0.012020 0.000000
# 3 -0.001412 -0.003821 0.013314 0.000000 -0.001205 0.000000
# 4 0.000000 0.000000 0.000000 0.006188 0.000000 0.002650
# 5 0.009567 -0.012020 -0.001205 0.000000 0.043161 0.000000
# 6 0.000000 0.000000 0.000000 0.002650 0.000000 0.026560
#
#
# Mechanical properties :
#
#
# Convention : Reuss Voigt Hill
#
# Bulk Modulus (GPa) = 52.88111 54.75649 53.81880
# Shear Modulus (GPa) = 30.57706 58.64046 44.60876
#
# Velocity S-wave (km/s) = 3.60954 4.99864 4.35977
# Velocity P-wave (km/s) = 6.31697 7.52640 6.94805
#
# Compressibility (1/GPa) = 0.01891034
#
# Stress axis : x y z
#
# Youngs Moduli (GPa) = 58.80304 50.53096 75.10947
#
# Poissons Ratio (x) = 0.52385 0.10602
# Poissons Ratio (y) = 0.60961 0.28700
# Poissons Ratio (z) = 0.08300 0.19308
#
# Static dielectric constant tensor:
#      x y z
#    x 2.072090 0.000000 -0.003100 
#    y 0.000000 1.863670 0.000000 
#    z -0.003100 0.000000 1.921140 
# 
# From -- ./inp_files/139081.got.cif
#   From: 2010.05.17/outbox.cif.g08.bks.cpg/sg15_70_cif.got.tgz:139081.got - 2010.06.03 18:47:42.
