data_PCOD9299031
_publ_section_title
;
Structure prediction by ZEFSAII (Michael W. Deem and Ramdas Pophale) SiO2 
 PCOD9299031
Probable space group: C 2/C
;
_chemical_formula_sum "Si O2"
_cell_formula_units_Z 36
_cell_length_a 27.338435
_cell_length_b 5.989650
_cell_length_c 11.550015
_cell_angle_alpha 90.000000
_cell_angle_beta 50.084369
_cell_angle_gamma 90.000000
_cell_volume 1450.599146
_symmetry_space_group_name_H-M "C 2/C"
_symmetry_group_IT_number 15
_symmetry_cell_setting 'monoclinic'
loop_
_space_group_symop_operation_xyz
x,y,z
-x,y,1/2-z
-x,-y,-z
x,-y,1/2+z
1/2+x,1/2+y,z
1/2-x,1/2+y,1/2-z
1/2-x,1/2-y,-z
1/2+x,1/2-y,1/2+z
loop_
_atom_site_type_symbol
_atom_site_label
_atom_site_fract_x
_atom_site_fract_y
_atom_site_fract_z
Si Si1 0.177912 0.318326 0.072726
Si Si2 0.244574 0.055113 0.706632
Si Si3 0.500000 0.691452 0.750000
Si Si4 0.431945 0.933153 0.650215
Si Si5 0.612162 0.573298 0.962715
O O1 0.122796 0.387175 0.243743
O O2 0.146564 0.142435 0.031240
O O3 0.250000 0.250000 0.000000
O O4 0.198576 0.543725 0.972056
O O5 0.239256 0.321815 0.745768
O O6 0.171150 0.986080 0.794811
O O7 0.450652 0.826393 0.745212
O O8 0.452463 0.555573 0.907052
O O9 0.408144 0.779441 0.583546
O O10 0.500000 0.000000 0.500000
#
# Coordination Sequence:
#
# PCOD9299031 Si02
#       5
#     8   8   4   8   8
#     4  11  27  45  77 113 157 201 269 329 410 480
#     4  10  24  46  74 110 157 198 257 327 403 472
#     4  12  26  48  72 106 154 208 272 328 406 492
#     4  12  27  47  76 106 157 207 268 332 404 486
#     4  11  26  45  76 109 154 204 265 324 410 476
#
# _framework density 24.817333999999999
#
# number of rings (size 3 to 8) (size 9 to 14) (size 15 to 20)
#    0.000    0.889    0.000    4.667   18.667    0.889 
#    0.000    0.000    0.000    0.000    0.000    0.000 
#    0.000    0.000    0.000    0.000    0.000    0.000 
#
# Total GULP energy -100202.048148 kJ/mol
# GULP energy per Si atom -5566.780453 kJ/mol
# Density = 2.476085 g / cm^3
# Si number density = 24.817334 Si / 1000 Ang^3
#
#
#
# Elastic Constant Matrix: (Units=GPa)
#
#
# Indices 1 2 3 4 5 6 
#
# 1 145.5576 65.5815 24.6209 0.0000 -34.5171 0.0000
# 2 65.5815 80.7493 38.7126 0.0000 -17.2280 -0.0001
# 3 24.6209 38.7126 173.5108 0.0000 -56.4170 0.0000
# 4 0.0000 0.0000 0.0000 41.6519 0.0000 -23.8560
# 5 -34.5171 -17.2280 -56.4170 0.0000 47.0028 0.0000
# 6 0.0000 -0.0001 0.0000 -23.8560 0.0000 56.7948
#
#
#
# Elastic Compliance Matrix: (Units=1/GPa)
#
#
# Indices 1 2 3 4 5 6 
#
# 1 0.013529 -0.010578 0.003953 0.000000 0.010803 0.000000
# 2 -0.010578 0.022284 -0.005479 0.000000 -0.006177 0.000000
# 3 0.003953 -0.005479 0.011014 0.000000 0.014115 0.000000
# 4 0.000000 0.000000 0.000000 0.031614 0.000000 0.013279
# 5 0.010803 -0.006177 0.014115 0.000000 0.043886 0.000000
# 6 0.000000 0.000000 0.000000 0.013279 0.000000 0.023185
#
#
# Mechanical properties :
#
#
# Convention : Reuss Voigt Hill
#
# Bulk Modulus (GPa) = 44.21187 73.07198 58.64192
# Shear Modulus (GPa) = 28.20672 47.15008 37.67840
#
# Velocity S-wave (km/s) = 3.37497 4.36350 3.90067
# Velocity P-wave (km/s) = 5.74811 7.40909 6.63082
#
# Compressibility (1/GPa) = 0.02261836
#
# Stress axis : x y z
#
# Youngs Moduli (GPa) = 73.91348 44.87465 90.78975
#
# Poissons Ratio (x) = 0.47470 -0.35888
# Poissons Ratio (y) = 0.78188 0.49748
# Poissons Ratio (z) = -0.29217 0.24589
#
# Static dielectric constant tensor:
#      x y z
#    x 2.004510 0.000000 0.020390 
#    y 0.000000 2.094220 0.000000 
#    z 0.020390 0.000000 1.627830 
# 
# From -- ./inp_files/179946.got.cif
#   From: 2010.05.17/outbox.cif.g08.bks.cpg/sg15_90_cif.got.tgz:179946.got - 2010.06.03 18:47:42.
