data_PCOD9299924
_publ_section_title
;
Structure prediction by ZEFSAII (Michael W. Deem and Ramdas Pophale) SiO2 
 PCOD9299924
Probable space group: C 2/C
;
_chemical_formula_sum "Si O2"
_cell_formula_units_Z 40
_cell_length_a 9.137811
_cell_length_b 11.266689
_cell_length_c 14.978394
_cell_angle_alpha 90.000000
_cell_angle_beta 69.852652
_cell_angle_gamma 90.000000
_cell_volume 1447.709441
_symmetry_space_group_name_H-M "C 2/C"
_symmetry_group_IT_number 15
_symmetry_cell_setting 'monoclinic'
loop_
_space_group_symop_operation_xyz
x,y,z
-x,y,1/2-z
-x,-y,-z
x,-y,1/2+z
1/2+x,1/2+y,z
1/2-x,1/2+y,1/2-z
1/2-x,1/2-y,-z
1/2+x,1/2-y,1/2+z
loop_
_atom_site_type_symbol
_atom_site_label
_atom_site_fract_x
_atom_site_fract_y
_atom_site_fract_z
Si Si1 0.149060 0.573655 0.261837
Si Si2 0.018930 0.069388 0.348593
Si Si3 0.088823 0.339467 0.369763
Si Si4 0.862560 0.846516 0.425523
Si Si5 0.140451 0.705727 0.441933
O O1 0.297124 0.549751 0.167715
O O2 0.078384 0.449907 0.308869
O O3 0.205820 0.639314 0.340920
O O4 0.000000 0.638078 0.250000
O O5 0.020690 0.212691 0.354737
O O6 0.000000 0.031071 0.250000
O O7 0.891499 0.990118 0.428479
O O8 0.273661 0.331953 0.350477
O O9 0.990278 0.370581 0.478851
O O10 0.750000 0.750000 0.500000
O O11 0.034344 0.806339 0.417736
O O12 0.250000 0.750000 0.500000
#
# Coordination Sequence:
#
# PCOD9299924 Si02
#       5
#     8   8   8   8   8
#     4  12  27  46  77 117 164 211 280 350 426 488
#     4  12  25  46  80 114 162 212 276 346 417 494
#     4  11  25  49  74 112 161 214 273 336 423 502
#     4  10  25  48  75 109 156 208 275 333 413 493
#     4  11  26  47  78 112 160 212 278 337 414 498
#
# _framework density 27.629856
#
# number of rings (size 3 to 8) (size 9 to 14) (size 15 to 20)
#    0.000    0.800    2.000    3.600    5.600    4.000 
#    3.600    0.000    0.000    0.000    0.000    0.000 
#    0.000    0.000    0.000    0.000    0.000    0.000 
#
# Total GULP energy -111475.210570 kJ/mol
# GULP energy per Si atom -5573.760529 kJ/mol
# Density = 2.756697 g / cm^3
# Si number density = 27.629856 Si / 1000 Ang^3
#
#
#
# Elastic Constant Matrix: (Units=GPa)
#
#
# Indices 1 2 3 4 5 6 
#
# 1 195.0639 43.7762 54.2896 0.0000 25.0266 0.0000
# 2 43.7762 147.7406 41.0660 0.0000 -0.1305 0.0000
# 3 54.2896 41.0660 87.9376 0.0000 5.1576 0.0000
# 4 0.0000 0.0000 0.0000 33.7300 0.0000 -4.8790
# 5 25.0266 -0.1305 5.1576 0.0000 61.9102 0.0000
# 6 0.0000 0.0000 0.0000 -4.8790 0.0000 52.1413
#
#
#
# Elastic Compliance Matrix: (Units=1/GPa)
#
#
# Indices 1 2 3 4 5 6 
#
# 1 0.006627 -0.000997 -0.003486 0.000000 -0.002391 0.000000
# 2 -0.000997 0.007935 -0.003130 0.000000 0.000680 0.000000
# 3 -0.003486 -0.003130 0.014976 0.000000 0.000155 0.000000
# 4 0.000000 0.000000 0.000000 0.030054 0.000000 0.002812
# 5 -0.002391 0.000680 0.000155 0.000000 0.017107 0.000000
# 6 0.000000 0.000000 0.000000 0.002812 0.000000 0.019442
#
#
# Mechanical properties :
#
#
# Convention : Reuss Voigt Hill
#
# Bulk Modulus (GPa) = 69.86585 78.77843 74.32214
# Shear Modulus (GPa) = 43.05278 48.99697 46.02487
#
# Velocity S-wave (km/s) = 3.95168 4.21567 4.08581
# Velocity P-wave (km/s) = 6.79429 7.22978 7.01541
#
# Compressibility (1/GPa) = 0.01431315
#
# Stress axis : x y z
#
# Youngs Moduli (GPa) = 150.89654 126.03073 66.77313
#
# Poissons Ratio (x) = 0.12564 0.23274
# Poissons Ratio (y) = 0.15043 0.20899
# Poissons Ratio (z) = 0.52596 0.39445
#
# Static dielectric constant tensor:
#      x y z
#    x 2.261250 0.000000 -0.054520 
#    y 0.000000 2.300050 0.000000 
#    z -0.054520 0.000000 2.227830 
# 
# From -- ./inp_files/187830.got.cif
#   From: 2010.05.17/outbox.cif.g08.bks.cpg/sg15_94_cif.got.tgz:187830.got - 2010.06.03 18:47:42.
