data_PCOD9299065
_publ_section_title
;
Structure prediction by ZEFSAII (Michael W. Deem and Ramdas Pophale) SiO2 
 PCOD9299065
Probable space group: C 2/C
;
_chemical_formula_sum "Si O2"
_cell_formula_units_Z 40
_cell_length_a 12.932120
_cell_length_b 25.275162
_cell_length_c 9.702856
_cell_angle_alpha 90.000000
_cell_angle_beta 150.079476
_cell_angle_gamma 90.000000
_cell_volume 1581.933315
_symmetry_space_group_name_H-M "C 2/C"
_symmetry_group_IT_number 15
_symmetry_cell_setting 'monoclinic'
loop_
_space_group_symop_operation_xyz
x,y,z
-x,y,1/2-z
-x,-y,-z
x,-y,1/2+z
1/2+x,1/2+y,z
1/2-x,1/2+y,1/2-z
1/2-x,1/2-y,-z
1/2+x,1/2-y,1/2+z
loop_
_atom_site_type_symbol
_atom_site_label
_atom_site_fract_x
_atom_site_fract_y
_atom_site_fract_z
Si Si1 0.431193 0.634754 0.446130
Si Si2 0.753720 0.964042 0.876323
Si Si3 0.863648 0.702391 0.210087
Si Si4 0.265175 0.059515 0.833756
Si Si5 0.410656 0.739492 0.272396
O O1 0.329716 0.577249 0.346913
O O2 0.316218 0.665026 0.438552
O O3 0.671219 0.618187 0.713193
O O4 0.391847 0.676600 0.281772
O O5 0.510722 0.948538 0.609529
O O6 0.798109 0.021630 0.865904
O O7 0.816510 0.958582 0.109450
O O8 0.010870 0.726687 0.500302
O O9 0.000000 0.674954 0.250000
O O10 0.750000 0.750000 0.000000
O O11 0.151761 0.755307 0.976233
#
# Coordination Sequence:
#
# PCOD9299065 Si02
#       5
#     8   8   8   8   8
#     4  12  26  43  79 107 151 202 265 319 397 475
#     4  10  24  46  76 110 155 191 257 326 401 491
#     4  12  26  46  76 108 154 204 271 333 390 467
#     4  10  24  47  75 112 150 198 251 328 405 482
#     4  12  26  50  70 103 156 213 266 331 396 471
#
# _framework density 25.285513999999999
#
# number of rings (size 3 to 8) (size 9 to 14) (size 15 to 20)
#    0.000    0.800    4.000    1.200    8.400    3.200 
#    0.000    6.000    0.000    0.000    0.000    0.000 
#    0.000    0.000    0.000    0.000    0.000    0.000 
#
# Total GULP energy -111635.583246 kJ/mol
# GULP energy per Si atom -5581.779162 kJ/mol
# Density = 2.522796 g / cm^3
# Si number density = 25.285514 Si / 1000 Ang^3
#
#
#
# Elastic Constant Matrix: (Units=GPa)
#
#
# Indices 1 2 3 4 5 6 
#
# 1 188.9846 49.3338 49.0134 0.0000 15.1504 0.0000
# 2 49.3338 114.6876 57.3778 0.0000 -8.4585 0.0000
# 3 49.0134 57.3778 172.0300 0.0000 -12.5021 0.0000
# 4 0.0000 0.0000 0.0000 44.6472 0.0000 12.4024
# 5 15.1504 -8.4585 -12.5021 0.0000 48.8034 0.0000
# 6 0.0000 0.0000 0.0000 12.4024 0.0000 64.6614
#
#
#
# Elastic Compliance Matrix: (Units=1/GPa)
#
#
# Indices 1 2 3 4 5 6 
#
# 1 0.006448 -0.002349 -0.001252 0.000000 -0.002730 0.000000
# 2 -0.002349 0.011363 -0.002980 0.000000 0.001935 0.000000
# 3 -0.001252 -0.002980 0.007290 0.000000 0.001740 0.000000
# 4 0.000000 0.000000 0.000000 0.023658 0.000000 -0.004538
# 5 -0.002730 0.001935 0.001740 0.000000 0.022119 0.000000
# 6 0.000000 0.000000 0.000000 -0.004538 0.000000 0.016336
#
#
# Mechanical properties :
#
#
# Convention : Reuss Voigt Hill
#
# Bulk Modulus (GPa) = 83.75539 87.46137 85.60838
# Shear Modulus (GPa) = 47.91284 52.95422 50.43353
#
# Velocity S-wave (km/s) = 4.35774 4.58126 4.47090
# Velocity P-wave (km/s) = 7.64955 7.91509 7.78345
#
# Compressibility (1/GPa) = 0.01193953
#
# Stress axis : x y z
#
# Youngs Moduli (GPa) = 155.08462 88.00238 137.17115
#
# Poissons Ratio (x) = 0.20668 0.17176
# Poissons Ratio (y) = 0.36422 0.40881
# Poissons Ratio (z) = 0.19419 0.26227
#
# Static dielectric constant tensor:
#      x y z
#    x 2.037140 0.000000 0.079380 
#    y 0.000000 1.898400 0.000000 
#    z 0.079380 0.000000 2.154280 
# 
# From -- ./inp_files/100750.got.cif
#   From: 2010.05.17/outbox.cif.g08.bks.cpg/sg15_51_cif.got.tgz:100750.got - 2010.06.03 18:47:42.
