data_PCOD9299106
_publ_section_title
;
Structure prediction by ZEFSAII (Michael W. Deem and Ramdas Pophale) SiO2 
 PCOD9299106
Probable space group: C 2/C
;
_chemical_formula_sum "Si O2"
_cell_formula_units_Z 48
_cell_length_a 6.012656
_cell_length_b 14.143606
_cell_length_c 27.898352
_cell_angle_alpha 90.000000
_cell_angle_beta 108.865714
_cell_angle_gamma 90.000000
_cell_volume 2245.040962
_symmetry_space_group_name_H-M "C 2/C"
_symmetry_group_IT_number 15
_symmetry_cell_setting 'monoclinic'
loop_
_space_group_symop_operation_xyz
x,y,z
-x,y,1/2-z
-x,-y,-z
x,-y,1/2+z
1/2+x,1/2+y,z
1/2-x,1/2+y,1/2-z
1/2-x,1/2-y,-z
1/2+x,1/2-y,1/2+z
loop_
_atom_site_type_symbol
_atom_site_label
_atom_site_fract_x
_atom_site_fract_y
_atom_site_fract_z
Si Si1 0.498241 0.518552 0.353248
Si Si2 0.000000 0.323630 0.750000
Si Si3 0.032421 0.483624 0.558440
Si Si4 0.000000 0.073598 0.250000
Si Si5 0.392871 0.766380 0.558444
Si Si6 0.811563 0.231446 0.353252
Si Si7 0.202394 0.624983 0.884923
O O1 0.705870 0.497594 0.404704
O O2 0.571834 0.517874 0.302937
O O3 0.411876 0.625009 0.357857
O O4 0.303808 0.440741 0.350309
O O5 0.248777 0.375016 0.749185
O O6 0.087007 0.267908 0.802938
O O7 0.000000 0.500000 0.500000
O O8 0.973652 0.374999 0.565757
O O9 0.874501 0.553416 0.578709
O O10 0.250000 0.750000 0.500000
O O11 0.241687 0.747635 0.595290
O O12 0.611561 0.696566 0.578727
O O13 0.997075 0.309303 0.350315
#
# Coordination Sequence:
#
# PCOD9299106 Si02
#       7
#     8   4   8   4   8   8   8
#     4  11  24  47  77 105 148 197 254 314 390 456
#     4  10  24  46  83 111 150 204 256 323 392 459
#     4  12  26  45  72 107 151 197 252 317 380 457
#     4  10  24  46  83 111 150 204 256 323 392 459
#     4  12  26  45  72 107 151 197 252 317 380 457
#     4  11  24  47  77 105 148 197 254 314 390 456
#     4  12  26  46  75 108 144 198 252 310 386 462
#
# _framework density 21.380455999999999
#
# number of rings (size 3 to 8) (size 9 to 14) (size 15 to 20)
#    0.000    0.667    3.333    4.000    7.000    2.667 
#    0.000    5.000    0.000    0.000    0.000    0.000 
#    0.000    0.000    0.000    0.000    0.000    0.000 
#
# Total GULP energy -134110.651423 kJ/mol
# GULP energy per Si atom -5587.943809 kJ/mol
# Density = 2.133179 g / cm^3
# Si number density = 21.380456 Si / 1000 Ang^3
#
#
#
# Elastic Constant Matrix: (Units=GPa)
#
#
# Indices 1 2 3 4 5 6 
#
# 1 106.2167 55.6019 46.6285 0.0000 0.9838 0.0000
# 2 55.6019 145.5326 15.1283 0.0000 0.8639 0.0000
# 3 46.6285 15.1283 157.0717 0.0000 -2.2551 0.0000
# 4 0.0000 0.0000 0.0000 18.0799 0.0000 0.7883
# 5 0.9838 0.8639 -2.2551 0.0000 7.1391 0.0000
# 6 0.0000 0.0000 0.0000 0.7883 0.0000 51.9138
#
#
#
# Elastic Compliance Matrix: (Units=1/GPa)
#
#
# Indices 1 2 3 4 5 6 
#
# 1 0.013511 -0.004775 -0.003586 0.000000 -0.002417 0.000000
# 2 -0.004775 0.008636 0.000583 0.000000 -0.000203 0.000000
# 3 -0.003586 0.000583 0.007415 0.000000 0.002766 0.000000
# 4 0.000000 0.000000 0.000000 0.055347 0.000000 -0.000840
# 5 -0.002417 -0.000203 0.002766 0.000000 0.141305 0.000000
# 6 0.000000 0.000000 0.000000 -0.000840 0.000000 0.019275
#
#
# Mechanical properties :
#
#
# Convention : Reuss Voigt Hill
#
# Bulk Modulus (GPa) = 71.39756 71.50425 71.45091
# Shear Modulus (GPa) = 18.81735 34.85739 26.83737
#
# Velocity S-wave (km/s) = 2.96990 4.04213 3.54676
# Velocity P-wave (km/s) = 6.72508 7.43649 7.08972
#
# Compressibility (1/GPa) = 0.01400608
#
# Stress axis : x y z
#
# Youngs Moduli (GPa) = 74.01579 115.79198 134.87043
#
# Poissons Ratio (x) = 0.55288 0.48359
# Poissons Ratio (y) = 0.35341 -0.07859
# Poissons Ratio (z) = 0.26539 -0.06748
#
# Static dielectric constant tensor:
#      x y z
#    x 1.850310 0.000000 0.002580 
#    y 0.000000 1.701910 0.000000 
#    z 0.002580 0.000000 1.736490 
# 
# From -- ./inp_files/305250.got.cif
#   From: 2010.05.17/outbox.cif.g08.bks.cpg/sg15_153_cif.got.tgz:305250.got - 2010.06.03 18:47:42.
