data_PCOD9299583
_publ_section_title
;
Structure prediction by ZEFSAII (Michael W. Deem and Ramdas Pophale) SiO2 
 PCOD9299583
Probable space group: C 2/C
;
_chemical_formula_sum "Si O2"
_cell_formula_units_Z 36
_cell_length_a 20.990621
_cell_length_b 13.878646
_cell_length_c 12.037402
_cell_angle_alpha 90.000000
_cell_angle_beta 27.871169
_cell_angle_gamma 90.000000
_cell_volume 1639.354492
_symmetry_space_group_name_H-M "C 2/C"
_symmetry_group_IT_number 15
_symmetry_cell_setting 'monoclinic'
loop_
_space_group_symop_operation_xyz
x,y,z
-x,y,1/2-z
-x,-y,-z
x,-y,1/2+z
1/2+x,1/2+y,z
1/2-x,1/2+y,1/2-z
1/2-x,1/2-y,-z
1/2+x,1/2-y,1/2+z
loop_
_atom_site_type_symbol
_atom_site_label
_atom_site_fract_x
_atom_site_fract_y
_atom_site_fract_z
Si Si1 0.239340 0.183721 0.281168
Si Si2 0.642421 0.458271 0.732630
Si Si3 0.000000 0.710226 0.250000
Si Si4 0.139910 0.210404 0.078877
Si Si5 0.895396 0.571809 0.222211
O O1 0.202780 0.106692 0.241083
O O2 0.348306 0.138142 0.193382
O O3 0.120202 0.215758 0.543798
O O4 0.277865 0.283825 0.161316
O O5 0.599635 0.388861 0.696799
O O6 0.765577 0.522994 0.488660
O O7 0.500000 0.500000 0.000000
O O8 0.029809 0.640500 0.306316
O O9 0.000000 0.261846 0.250000
O O10 0.250000 0.250000 0.000000
O O11 0.000000 0.500000 0.000000
#
# Coordination Sequence:
#
# PCOD9299583 Si02
#       5
#     8   8   4   8   8
#     4  11  26  44  71 100 138 184 238 287 354 429
#     4  11  26  45  70 104 140 181 234 296 357 418
#     4  12  26  46  70 102 138 184 240 294 352 430
#     4  10  25  43  74 100 141 184 241 283 357 428
#     4  12  27  45  71 102 143 181 234 296 362 420
#
# _framework density 21.959862999999999
#
# number of rings (size 3 to 8) (size 9 to 14) (size 15 to 20)
#    0.000    0.889    0.000    4.667   18.667    0.000 
#    0.000    0.000    0.000    0.000    0.000    0.000 
#    0.000    0.000    0.000    0.000    0.000    0.000 
#
# Total GULP energy -100235.014010 kJ/mol
# GULP energy per Si atom -5568.611889 kJ/mol
# Density = 2.190988 g / cm^3
# Si number density = 21.959863 Si / 1000 Ang^3
#
#
#
# Elastic Constant Matrix: (Units=GPa)
#
#
# Indices 1 2 3 4 5 6 
#
# 1 171.8610 53.6824 9.4203 0.0000 -12.6052 0.0000
# 2 53.6824 68.2307 31.8648 0.0000 9.0170 0.0000
# 3 9.4203 31.8648 89.2876 0.0000 -13.2028 0.0000
# 4 0.0000 0.0000 0.0000 61.5103 0.0000 8.1561
# 5 -12.6052 9.0170 -13.2028 0.0000 25.8228 0.0000
# 6 0.0000 0.0000 0.0000 8.1561 0.0000 40.2302
#
#
#
# Elastic Compliance Matrix: (Units=1/GPa)
#
#
# Indices 1 2 3 4 5 6 
#
# 1 0.010022 -0.011620 0.004774 0.000000 0.011390 0.000000
# 2 -0.011620 0.033896 -0.014560 0.000000 -0.024953 0.000000
# 3 0.004774 -0.014560 0.018378 0.000000 0.016811 0.000000
# 4 0.000000 0.000000 0.000000 0.016707 0.000000 -0.003387
# 5 0.011390 -0.024953 0.016811 0.000000 0.061594 0.000000
# 6 0.000000 0.000000 0.000000 -0.003387 0.000000 0.025544
#
#
# Mechanical properties :
#
#
# Convention : Reuss Voigt Hill
#
# Bulk Modulus (GPa) = 51.32641 57.70159 54.51400
# Shear Modulus (GPa) = 23.20751 41.14012 32.17381
#
# Velocity S-wave (km/s) = 3.25440 4.33300 3.83184
# Velocity P-wave (km/s) = 6.12740 7.16702 6.66750
#
# Compressibility (1/GPa) = 0.01948315
#
# Stress axis : x y z
#
# Youngs Moduli (GPa) = 99.78103 29.50210 54.41210
#
# Poissons Ratio (x) = 0.34281 -0.25975
# Poissons Ratio (y) = 1.15943 0.79227
# Poissons Ratio (z) = -0.47633 0.42956
#
# Static dielectric constant tensor:
#      x y z
#    x 1.857240 0.000000 -0.126600 
#    y 0.000000 1.839100 0.000000 
#    z -0.126600 0.000000 1.906280 
# 
# From -- ./inp_files/112587.got.cif
#   From: 2010.05.17/outbox.cif.g08.bks.cpg/sg15_57_cif.got.tgz:112587.got - 2010.06.03 18:47:42.
