data_PCOD9299991
_publ_section_title
;
Structure prediction by ZEFSAII (Michael W. Deem and Ramdas Pophale) SiO2 
 PCOD9299991
Probable space group: C 2/C
;
_chemical_formula_sum "Si O2"
_cell_formula_units_Z 40
_cell_length_a 8.995054
_cell_length_b 11.988463
_cell_length_c 16.837780
_cell_angle_alpha 90.000000
_cell_angle_beta 126.340126
_cell_angle_gamma 90.000000
_cell_volume 1462.597832
_symmetry_space_group_name_H-M "C 2/C"
_symmetry_group_IT_number 15
_symmetry_cell_setting 'monoclinic'
loop_
_space_group_symop_operation_xyz
x,y,z
-x,y,1/2-z
-x,-y,-z
x,-y,1/2+z
1/2+x,1/2+y,z
1/2-x,1/2+y,1/2-z
1/2-x,1/2-y,-z
1/2+x,1/2-y,1/2+z
loop_
_atom_site_type_symbol
_atom_site_label
_atom_site_fract_x
_atom_site_fract_y
_atom_site_fract_z
Si Si1 0.000000 0.654235 0.250000
Si Si2 0.895439 0.229144 0.879322
Si Si3 0.613943 0.110197 0.562820
Si Si4 0.920325 0.238960 0.112694
Si Si5 0.147541 0.023815 0.147594
Si Si6 0.000000 0.065588 0.750000
O O1 0.077192 0.732129 0.203650
O O2 0.834148 0.574263 0.171420
O O3 0.163613 0.104072 0.864704
O O4 0.044356 0.297208 0.977505
O O5 0.899438 0.097452 0.901336
O O6 0.185383 0.236174 0.336868
O O7 0.547652 0.157214 0.627885
O O8 0.500000 0.000000 0.500000
O O9 0.008970 0.125678 0.109974
O O10 0.750000 0.250000 0.000000
O O11 0.148846 0.996412 0.241722
#
# Coordination Sequence:
#
# PCOD9299991 Si02
#       6
#     4   8   8   8   8   4
#     4  12  29  52  83 134 174 225 304 361 440 532
#     4  11  28  52  86 120 174 234 287 371 439 527
#     4  11  26  52  89 126 177 230 294 362 448 527
#     4  10  25  52  80 118 167 226 283 358 444 514
#     4  12  28  48  83 120 171 223 295 353 441 519
#     4  12  27  52  83 126 174 223 294 373 426 530
#
# _framework density 27.348596000000001
#
# number of rings (size 3 to 8) (size 9 to 14) (size 15 to 20)
#    0.000    0.800    0.000    5.400   11.200    4.000 
#    3.600    1.000    0.000    0.000    0.000    1.400 
#    0.000    0.000    0.000    0.000    0.000    0.000 
#
# Total GULP energy -111767.719694 kJ/mol
# GULP energy per Si atom -5588.385985 kJ/mol
# Density = 2.728635 g / cm^3
# Si number density = 27.348596 Si / 1000 Ang^3
#
#
#
# Elastic Constant Matrix: (Units=GPa)
#
#
# Indices 1 2 3 4 5 6 
#
# 1 194.5571 79.7111 68.8097 0.0000 9.4011 0.0000
# 2 79.7111 261.6264 82.9523 0.0000 33.8555 0.0000
# 3 68.8097 82.9523 110.5990 0.0000 26.6438 0.0000
# 4 0.0000 0.0000 0.0000 65.2082 0.0000 3.7339
# 5 9.4011 33.8555 26.6438 0.0000 57.5793 0.0000
# 6 0.0000 0.0000 0.0000 3.7339 0.0000 68.9194
#
#
#
# Elastic Compliance Matrix: (Units=1/GPa)
#
#
# Indices 1 2 3 4 5 6 
#
# 1 0.006843 -0.001051 -0.003769 0.000000 0.001245 0.000000
# 2 -0.001051 0.005273 -0.002921 0.000000 -0.001577 0.000000
# 3 -0.003769 -0.002921 0.014648 0.000000 -0.004445 0.000000
# 4 0.000000 0.000000 0.000000 0.015383 0.000000 -0.000833
# 5 0.001245 -0.001577 -0.004445 0.000000 0.020148 0.000000
# 6 0.000000 0.000000 0.000000 -0.000833 0.000000 0.014555
#
#
# Mechanical properties :
#
#
# Convention : Reuss Voigt Hill
#
# Bulk Modulus (GPa) = 88.63475 114.41431 101.52453
# Shear Modulus (GPa) = 52.03250 60.69535 56.36392
#
# Velocity S-wave (km/s) = 4.36657 4.71608 4.54469
# Velocity P-wave (km/s) = 7.60935 8.46059 8.04623
#
# Compressibility (1/GPa) = 0.01128226
#
# Stress axis : x y z
#
# Youngs Moduli (GPa) = 146.12578 189.65908 68.26705
#
# Poissons Ratio (x) = 0.19933 0.25732
# Poissons Ratio (y) = 0.15358 0.19939
# Poissons Ratio (z) = 0.55079 0.55396
#
# Static dielectric constant tensor:
#      x y z
#    x 2.236810 0.000000 -0.163520 
#    y 0.000000 2.309090 0.000000 
#    z -0.163520 0.000000 2.103460 
# 
# From -- ./inp_files/263361.got.cif
#   From: 2010.05.17/outbox.cif.g08.bks.cpg/sg15_132_cif.got.tgz:263361.got - 2010.06.03 18:47:42.
