data_PCOD9299115
_publ_section_title
;
Structure prediction by ZEFSAII (Michael W. Deem and Ramdas Pophale) SiO2 
 PCOD9299115
Probable space group: C 2/C
;
_chemical_formula_sum "Si O2"
_cell_formula_units_Z 48
_cell_length_a 6.589557
_cell_length_b 16.928506
_cell_length_c 20.800444
_cell_angle_alpha 90.000000
_cell_angle_beta 69.556634
_cell_angle_gamma 90.000000
_cell_volume 2174.179221
_symmetry_space_group_name_H-M "C 2/C"
_symmetry_group_IT_number 15
_symmetry_cell_setting 'monoclinic'
loop_
_space_group_symop_operation_xyz
x,y,z
-x,y,1/2-z
-x,-y,-z
x,-y,1/2+z
1/2+x,1/2+y,z
1/2-x,1/2+y,1/2-z
1/2-x,1/2-y,-z
1/2+x,1/2-y,1/2+z
loop_
_atom_site_type_symbol
_atom_site_label
_atom_site_fract_x
_atom_site_fract_y
_atom_site_fract_z
Si Si1 0.162353 0.850576 0.097463
Si Si2 0.500000 0.790590 0.250000
Si Si3 0.068734 0.297222 0.835526
Si Si4 0.170240 0.061137 0.953539
Si Si5 0.909006 0.561108 0.670878
Si Si6 0.000000 0.565947 0.250000
Si Si7 0.113027 0.319600 0.981439
O O1 0.235501 0.922379 0.134907
O O2 0.087853 0.777826 0.148892
O O3 0.966709 0.876613 0.073518
O O4 0.366935 0.821837 0.033635
O O5 0.706611 0.734339 0.218805
O O6 0.535657 0.853058 0.304444
O O7 0.113544 0.315563 0.905091
O O8 0.963061 0.371367 0.811247
O O9 0.367688 0.031771 0.886965
O O10 0.280634 0.101711 0.002362
O O11 0.000000 0.000000 0.000000
O O12 0.841791 0.498242 0.732914
O O13 0.250000 0.250000 0.000000
#
# Coordination Sequence:
#
# PCOD9299115 Si02
#       7
#     8   4   8   8   8   4   8
#     4  11  23  45  75  95 135 188 223 282 361 412
#     4  11  22  48  66  93 138 188 232 261 338 440
#     4  12  24  44  71 103 139 185 229 290 350 412
#     4  11  25  41  71 102 135 178 227 287 352 404
#     4  10  24  47  66  96 138 179 237 274 333 428
#     4  11  28  42  64 101 138 180 230 289 334 404
#     4  11  24  43  70 109 135 172 233 298 344 412
#
# _framework density 22.077296
#
# number of rings (size 3 to 8) (size 9 to 14) (size 15 to 20)
#    0.000    1.000    3.333    2.500    4.667    2.667 
#    0.000    0.000    0.000    0.000    0.000    0.000 
#    0.000    0.000    0.000    0.000    0.000    0.000 
#
# Total GULP energy -134087.101975 kJ/mol
# GULP energy per Si atom -5586.962582 kJ/mol
# Density = 2.202705 g / cm^3
# Si number density = 22.077296 Si / 1000 Ang^3
#
#
#
# Elastic Constant Matrix: (Units=GPa)
#
#
# Indices 1 2 3 4 5 6 
#
# 1 93.0901 35.5488 50.1050 0.0000 -0.6183 0.0000
# 2 35.5488 103.8241 46.1541 0.0000 -3.4649 0.0000
# 3 50.1050 46.1541 109.2915 0.0000 8.1055 0.0000
# 4 0.0000 0.0000 0.0000 49.0527 0.0000 3.8678
# 5 -0.6183 -3.4649 8.1055 0.0000 42.1378 0.0000
# 6 0.0000 0.0000 0.0000 3.8678 0.0000 18.3874
#
#
#
# Elastic Compliance Matrix: (Units=1/GPa)
#
#
# Indices 1 2 3 4 5 6 
#
# 1 0.014832 -0.002437 -0.005855 0.000000 0.001144 0.000000
# 2 -0.002437 0.012421 -0.004262 0.000000 0.001805 0.000000
# 3 -0.005855 -0.004262 0.013864 0.000000 -0.003103 0.000000
# 4 0.000000 0.000000 0.000000 0.020730 0.000000 -0.004361
# 5 0.001144 0.001805 -0.003103 0.000000 0.024494 0.000000
# 6 0.000000 0.000000 0.000000 -0.004361 0.000000 0.055302
#
#
# Mechanical properties :
#
#
# Convention : Reuss Voigt Hill
#
# Bulk Modulus (GPa) = 62.46798 63.31347 62.89072
# Shear Modulus (GPa) = 29.05466 33.54208 31.29837
#
# Velocity S-wave (km/s) = 3.63167 3.90205 3.76928
# Velocity P-wave (km/s) = 6.77804 7.00298 6.89143
#
# Compressibility (1/GPa) = 0.01600820
#
# Stress axis : x y z
#
# Youngs Moduli (GPa) = 67.42056 80.50835 72.12795
#
# Poissons Ratio (x) = 0.19623 0.42234
# Poissons Ratio (y) = 0.16433 0.30740
# Poissons Ratio (z) = 0.39477 0.34312
#
# Static dielectric constant tensor:
#      x y z
#    x 1.865970 0.000000 -0.019960 
#    y 0.000000 1.830530 0.000000 
#    z -0.019960 0.000000 1.862330 
# 
# From -- ./inp_files/260861.got.cif
#   From: 2010.05.17/outbox.cif.g08.bks.cpg/sg15_131_cif.got.tgz:260861.got - 2010.06.03 18:47:42.
