data_PCOD9299574
_publ_section_title
;
Structure prediction by ZEFSAII (Michael W. Deem and Ramdas Pophale) SiO2 
 PCOD9299574
Probable space group: C 2/C
;
_chemical_formula_sum "Si O2"
_cell_formula_units_Z 40
_cell_length_a 16.077207
_cell_length_b 10.772547
_cell_length_c 17.376155
_cell_angle_alpha 90.000000
_cell_angle_beta 33.956245
_cell_angle_gamma 90.000000
_cell_volume 1680.940059
_symmetry_space_group_name_H-M "C 2/C"
_symmetry_group_IT_number 15
_symmetry_cell_setting 'monoclinic'
loop_
_space_group_symop_operation_xyz
x,y,z
-x,y,1/2-z
-x,-y,-z
x,-y,1/2+z
1/2+x,1/2+y,z
1/2-x,1/2+y,1/2-z
1/2-x,1/2-y,-z
1/2+x,1/2-y,1/2+z
loop_
_atom_site_type_symbol
_atom_site_label
_atom_site_fract_x
_atom_site_fract_y
_atom_site_fract_z
Si Si1 0.176474 0.348518 0.614399
Si Si2 0.140211 0.930418 0.597298
Si Si3 0.130093 0.383697 0.958524
Si Si4 0.664140 0.983030 0.773986
Si Si5 0.425673 0.376175 0.019506
O O1 0.250000 0.250000 0.500000
O O2 0.243574 0.473442 0.527353
O O3 0.204880 0.370285 0.684390
O O4 0.000000 0.334949 0.750000
O O5 0.241575 0.851579 0.578252
O O6 0.064839 0.872955 0.579933
O O7 0.000000 0.988646 0.750000
O O8 0.207727 0.451325 0.827364
O O9 0.043397 0.267305 0.985671
O O10 0.008205 0.476039 0.089195
O O11 0.755097 0.101177 0.674842
O O12 0.500000 0.500000 0.000000
#
# Coordination Sequence:
#
# PCOD9299574 Si02
#       5
#     8   8   8   8   8
#     4  11  23  44  68 105 151 196 255 310 380 456
#     4  11  24  44  72 108 143 198 252 306 388 458
#     4  11  24  47  72 104 153 193 246 319 377 463
#     4  10  25  43  71 105 140 199 246 305 389 446
#     4  11  26  44  71 106 144 190 256 307 379 459
#
# _framework density 23.796209999999999
#
# number of rings (size 3 to 8) (size 9 to 14) (size 15 to 20)
#    0.000    1.200    2.000    2.400    5.600    6.400 
#    0.000    0.000    0.000    0.000    0.000    0.000 
#    0.000    0.000    0.000    0.000    0.000    0.000 
#
# Total GULP energy -111400.022301 kJ/mol
# GULP energy per Si atom -5570.001115 kJ/mol
# Density = 2.374205 g / cm^3
# Si number density = 23.796210 Si / 1000 Ang^3
#
#
#
# Elastic Constant Matrix: (Units=GPa)
#
#
# Indices 1 2 3 4 5 6 
#
# 1 87.9511 10.9556 36.9649 0.0000 5.6414 0.0000
# 2 10.9556 71.1971 23.0576 0.0000 8.3672 0.0000
# 3 36.9649 23.0576 167.4388 0.0000 17.5193 0.0000
# 4 0.0000 0.0000 0.0000 27.9775 0.0000 -4.5607
# 5 5.6414 8.3672 17.5193 0.0000 37.4727 0.0000
# 6 0.0000 0.0000 0.0000 -4.5607 0.0000 19.5216
#
#
#
# Elastic Compliance Matrix: (Units=1/GPa)
#
#
# Indices 1 2 3 4 5 6 
#
# 1 0.012620 -0.001049 -0.002594 0.000000 -0.000453 0.000000
# 2 -0.001049 0.015006 -0.001578 0.000000 -0.002455 0.000000
# 3 -0.002594 -0.001578 0.007028 0.000000 -0.002543 0.000000
# 4 0.000000 0.000000 0.000000 0.037158 0.000000 0.008681
# 5 -0.000453 -0.002455 -0.002543 0.000000 0.028491 0.000000
# 6 0.000000 0.000000 0.000000 0.008681 0.000000 0.053253
#
#
# Mechanical properties :
#
#
# Convention : Reuss Voigt Hill
#
# Bulk Modulus (GPa) = 41.30015 52.06037 46.68026
# Shear Modulus (GPa) = 29.05782 34.03496 31.54639
#
# Velocity S-wave (km/s) = 3.49823 3.78599 3.64495
# Velocity P-wave (km/s) = 5.80605 6.40599 6.11339
#
# Compressibility (1/GPa) = 0.02421299
#
# Stress axis : x y z
#
# Youngs Moduli (GPa) = 79.23956 66.63786 142.27855
#
# Poissons Ratio (x) = 0.06987 0.36911
# Poissons Ratio (y) = 0.08308 0.22454
# Poissons Ratio (z) = 0.20557 0.10516
#
# Static dielectric constant tensor:
#      x y z
#    x 2.083030 0.000000 0.079510 
#    y 0.000000 1.999510 0.000000 
#    z 0.079510 0.000000 2.018820 
# 
# From -- ./inp_files/210769.got.cif
#   From: 2010.05.17/outbox.cif.g08.bks.cpg/sg15_106_cif.got.tgz:210769.got - 2010.06.03 18:47:42.
