data_PCOD9299516
_publ_section_title
;
Structure prediction by ZEFSAII (Michael W. Deem and Ramdas Pophale) SiO2 
 PCOD9299516
Probable space group: C 2/C
;
_chemical_formula_sum "Si O2"
_cell_formula_units_Z 36
_cell_length_a 6.268070
_cell_length_b 26.301717
_cell_length_c 11.300494
_cell_angle_alpha 90.000000
_cell_angle_beta 66.516732
_cell_angle_gamma 90.000000
_cell_volume 1708.709670
_symmetry_space_group_name_H-M "C 2/C"
_symmetry_group_IT_number 15
_symmetry_cell_setting 'monoclinic'
loop_
_space_group_symop_operation_xyz
x,y,z
-x,y,1/2-z
-x,-y,-z
x,-y,1/2+z
1/2+x,1/2+y,z
1/2-x,1/2+y,1/2-z
1/2-x,1/2-y,-z
1/2+x,1/2-y,1/2+z
loop_
_atom_site_type_symbol
_atom_site_label
_atom_site_fract_x
_atom_site_fract_y
_atom_site_fract_z
Si Si1 0.500000 0.221901 0.250000
Si Si2 0.500000 0.428332 0.750000
Si Si3 0.768308 0.810309 0.153671
Si Si4 0.500000 0.398975 0.250000
Si Si5 0.466581 0.669812 0.124838
Si Si6 0.872052 0.485383 0.151268
O O1 0.389975 0.260923 0.181182
O O2 0.707116 0.187835 0.148463
O O3 0.508033 0.390553 0.860519
O O4 0.282084 0.464830 0.792050
O O5 0.500000 0.812519 0.250000
O O6 0.898158 0.860662 0.174602
O O7 0.829143 0.810811 0.002655
O O8 0.706820 0.436583 0.164314
O O9 0.500000 0.690025 0.250000
O O10 0.000000 0.475492 0.250000
O O11 0.000000 0.500000 0.000000
#
# Coordination Sequence:
#
# PCOD9299516 Si02
#       6
#     4   4   8   4   8   8
#     4  11  24  43  66 102 130 179 226 287 332 410
#     4   9  26  41  64 102 130 177 226 277 340 412
#     4  11  25  44  69  99 137 176 230 277 342 411
#     4  10  26  42  70  96 132 180 222 274 338 404
#     4  10  25  42  69  95 136 176 225 277 344 402
#     4  11  26  43  70  99 137 178 227 284 340 405
#
# _framework density 21.068531
#
# number of rings (size 3 to 8) (size 9 to 14) (size 15 to 20)
#    0.667    0.889    0.000    2.000   10.889    8.889 
#    0.000    0.000    0.000    0.000    0.000    0.000 
#    0.000    0.000    0.000    0.000    0.000    0.000 
#
# Total GULP energy -100377.021480 kJ/mol
# GULP energy per Si atom -5576.501193 kJ/mol
# Density = 2.102058 g / cm^3
# Si number density = 21.068531 Si / 1000 Ang^3
#
#
#
# Elastic Constant Matrix: (Units=GPa)
#
#
# Indices 1 2 3 4 5 6 
#
# 1 114.4253 41.2771 50.4533 0.0000 -8.2913 0.0000
# 2 41.2771 99.2551 -5.3513 0.0000 5.4917 0.0000
# 3 50.4533 -5.3513 129.4451 0.0000 -2.3382 0.0000
# 4 0.0000 0.0000 0.0000 -5.2814 0.0000 8.1846
# 5 -8.2913 5.4917 -2.3382 0.0000 24.8416 0.0000
# 6 0.0000 0.0000 0.0000 8.1846 0.0000 11.7479
#
#
#
# Elastic Compliance Matrix: (Units=1/GPa)
#
#
# Indices 1 2 3 4 5 6 
#
# 1 0.013908 -0.006391 -0.005585 0.000000 0.005529 0.000000
# 2 -0.006391 0.013155 0.002949 0.000000 -0.004764 0.000000
# 3 -0.005585 0.002949 0.009996 0.000000 -0.001575 0.000000
# 4 0.000000 0.000000 0.000000 -0.091046 0.000000 0.063431
# 5 0.005529 -0.004764 -0.001575 0.000000 0.043005 0.000000
# 6 0.000000 0.000000 0.000000 0.063431 0.000000 0.040931
#
#
# Mechanical properties :
#
#
# Convention : Reuss Voigt Hill
#
# Bulk Modulus (GPa) = 52.61962 57.32039 54.97001
# Shear Modulus (GPa) = 92.01570 23.37804 57.69687
#
# Velocity S-wave (km/s) = 6.61584 3.33471 5.23878
# Velocity P-wave (km/s) = 9.13174 6.48789 7.92090
#
# Compressibility (1/GPa) = 0.01900432
#
# Stress axis : x y z
#
# Youngs Moduli (GPa) = 71.90047 76.01427 100.04333
#
# Poissons Ratio (x) = 0.48581 0.55877
# Poissons Ratio (y) = 0.45952 -0.29501
# Poissons Ratio (z) = 0.40158 -0.22415
#
# Static dielectric constant tensor:
#      x y z
#    x 1.831910 0.000000 0.017190 
#    y 0.000000 1.760460 0.000000 
#    z 0.017190 0.000000 1.818600 
# 
# From -- ./inp_files/73023.got.cif
#   From: 2010.05.17/outbox.cif.g08.bks.cpg/sg15_37_cif.got.tgz:73023.got - 2010.06.03 18:47:42.
