data_PCOD9299757
_publ_section_title
;
Structure prediction by ZEFSAII (Michael W. Deem and Ramdas Pophale) SiO2 
 PCOD9299757
Probable space group: C 2/C
;
_chemical_formula_sum "Si O2"
_cell_formula_units_Z 44
_cell_length_a 18.422431
_cell_length_b 6.632531
_cell_length_c 21.922316
_cell_angle_alpha 90.000000
_cell_angle_beta 47.771096
_cell_angle_gamma 90.000000
_cell_volume 1983.433165
_symmetry_space_group_name_H-M "C 2/C"
_symmetry_group_IT_number 15
_symmetry_cell_setting 'monoclinic'
loop_
_space_group_symop_operation_xyz
x,y,z
-x,y,1/2-z
-x,-y,-z
x,-y,1/2+z
1/2+x,1/2+y,z
1/2-x,1/2+y,1/2-z
1/2-x,1/2-y,-z
1/2+x,1/2-y,1/2+z
loop_
_atom_site_type_symbol
_atom_site_label
_atom_site_fract_x
_atom_site_fract_y
_atom_site_fract_z
Si Si1 0.088869 0.246422 0.770999
Si Si2 0.746529 0.961910 0.398172
Si Si3 0.392727 0.747203 0.598643
Si Si4 0.391365 0.607001 0.025497
Si Si5 0.584304 0.569300 0.114398
Si Si6 0.500000 0.904351 0.250000
O O1 0.170163 0.100512 0.697250
O O2 0.114182 0.297464 0.826361
O O3 0.078724 0.445669 0.735867
O O4 0.985501 0.122794 0.829464
O O5 0.689642 0.762073 0.450217
O O6 0.669833 0.106083 0.407984
O O7 0.806920 0.050665 0.420183
O O8 0.508927 0.730436 0.518774
O O9 0.358820 0.518069 0.602942
O O10 0.412382 0.444639 0.960319
O O11 0.538864 0.762494 0.173655
#
# Coordination Sequence:
#
# PCOD9299757 Si02
#       6
#     8   8   8   8   8   4
#     4  11  25  44  68 101 137 171 224 291 334 400
#     4  12  23  41  69 102 130 175 228 279 334 403
#     4  10  26  44  65  98 138 178 220 271 347 402
#     4  10  25  46  66  96 140 180 217 279 339 402
#     4  11  24  45  68 100 134 173 233 272 339 407
#     4  12  22  44  70  92 134 180 220 276 344 388
#
# _framework density 22.183757
#
# number of rings (size 3 to 8) (size 9 to 14) (size 15 to 20)
#    0.000    1.091    3.636    1.091    5.091    8.000 
#    0.000    0.000    0.000    0.000    0.000    0.000 
#    0.000    0.000    0.000    0.000    0.000    0.000 
#
# Total GULP energy -122981.663122 kJ/mol
# GULP energy per Si atom -5590.075596 kJ/mol
# Density = 2.213327 g / cm^3
# Si number density = 22.183757 Si / 1000 Ang^3
#
#
#
# Elastic Constant Matrix: (Units=GPa)
#
#
# Indices 1 2 3 4 5 6 
#
# 1 138.8395 46.4666 43.9746 0.0004 3.9804 0.0034
# 2 46.4666 72.7384 20.8998 0.0041 -4.5575 0.0039
# 3 43.9746 20.8998 46.2536 0.0001 7.7542 0.0004
# 4 0.0004 0.0041 0.0001 20.4677 -0.0004 -3.7336
# 5 3.9804 -4.5575 7.7542 -0.0004 17.1642 -0.0003
# 6 0.0034 0.0039 0.0004 -3.7336 -0.0003 34.3474
#
#
#
# Elastic Compliance Matrix: (Units=1/GPa)
#
#
# Indices 1 2 3 4 5 6 
#
# 1 0.011647 -0.004894 -0.008863 0.000001 0.000003 0.000000
# 2 -0.004894 0.018949 -0.005348 -0.000004 0.008582 -0.000002
# 3 -0.008863 -0.005348 0.035007 0.000001 -0.015180 0.000001
# 4 0.000001 -0.000004 0.000001 0.049846 0.000000 0.005418
# 5 0.000003 0.008582 -0.015180 0.000000 0.067397 0.000000
# 6 0.000000 -0.000002 0.000001 0.005418 0.000000 0.029703
#
#
# Mechanical properties :
#
#
# Convention : Reuss Voigt Hill
#
# Bulk Modulus (GPa) = 36.50428 53.39040 44.94734
# Shear Modulus (GPa) = 19.23892 24.16188 21.70040
#
# Velocity S-wave (km/s) = 2.94811 3.30384 3.13103
# Velocity P-wave (km/s) = 5.29902 6.21879 5.77724
#
# Compressibility (1/GPa) = 0.02739404
#
# Stress axis : x y z
#
# Youngs Moduli (GPa) = 85.85562 52.77450 28.56534
#
# Poissons Ratio (x) = 0.25827 0.25317
# Poissons Ratio (y) = 0.42016 0.15277
# Poissons Ratio (z) = 0.76093 0.28224
#
# Static dielectric constant tensor:
#      x y z
#    x 1.818860 0.000000 0.005500 
#    y 0.000000 1.831710 0.000000 
#    z 0.005500 0.000000 1.809660 
# 
# From -- ./inp_files/297637.got.cif
#   From: 2010.05.17/outbox.cif.g08.bks.cpg/sg15_149_cif.got.tgz:297637.got - 2010.06.03 18:47:42.
