data_PCOD9299320
_publ_section_title
;
Structure prediction by ZEFSAII (Michael W. Deem and Ramdas Pophale) SiO2 
 PCOD9299320
Probable space group: C 2/C
;
_chemical_formula_sum "Si O2"
_cell_formula_units_Z 36
_cell_length_a 25.197298
_cell_length_b 5.421871
_cell_length_c 27.369607
_cell_angle_alpha 90.000000
_cell_angle_beta 160.553535
_cell_angle_gamma 90.000000
_cell_volume 1244.856684
_symmetry_space_group_name_H-M "C 2/C"
_symmetry_group_IT_number 15
_symmetry_cell_setting 'monoclinic'
loop_
_space_group_symop_operation_xyz
x,y,z
-x,y,1/2-z
-x,-y,-z
x,-y,1/2+z
1/2+x,1/2+y,z
1/2-x,1/2+y,1/2-z
1/2-x,1/2-y,-z
1/2+x,1/2-y,1/2+z
loop_
_atom_site_type_symbol
_atom_site_label
_atom_site_fract_x
_atom_site_fract_y
_atom_site_fract_z
Si Si1 0.376973 0.065679 0.719552
Si Si2 0.000000 0.935834 0.750000
Si Si3 0.847114 0.092297 0.274322
Si Si4 0.000000 0.500000 0.000000
Si Si5 0.500000 0.500000 0.500000
Si Si6 0.612536 0.303072 0.440820
O O1 0.390590 0.262060 0.688520
O O2 0.300143 0.162975 0.702282
O O3 0.551337 0.973717 0.885219
O O4 0.277548 0.842441 0.610949
O O5 0.896943 0.090181 0.622021
O O6 0.936953 0.190422 0.401673
O O7 0.982387 0.958889 0.359271
O O8 0.680365 0.954133 0.131876
O O9 0.928870 0.239226 0.910407
#
# Coordination Sequence:
#
# PCOD9299320 Si02
#       6
#     8   4   8   4   4   8
#     4  11  26  48  78 117 167 212 282 340 430 504
#     4  10  24  48  76 118 158 216 276 346 422 514
#     4  11  28  49  75 115 158 216 275 347 410 499
#     4  12  28  48  78 112 156 212 276 336 410 480
#     4  12  28  48  78 110 158 210 276 338 412 480
#     4  11  26  46  79 114 163 218 270 350 421 511
#
# _framework density 28.918990000000001
#
# number of rings (size 3 to 8) (size 9 to 14) (size 15 to 20)
#    0.000    0.889    0.000    4.000    9.333   10.667 
#    0.000    0.000    0.000    0.000    0.000    0.000 
#    0.000    0.000    0.000    0.000    0.000    0.000 
#
# Total GULP energy -100356.611075 kJ/mol
# GULP energy per Si atom -5575.367282 kJ/mol
# Density = 2.885317 g / cm^3
# Si number density = 28.918990 Si / 1000 Ang^3
#
#
#
# Elastic Constant Matrix: (Units=GPa)
#
#
# Indices 1 2 3 4 5 6 
#
# 1 139.1606 20.2544 69.2113 0.0023 -37.5512 -0.0030
# 2 20.2544 93.1697 2.9813 0.0300 5.0797 -0.0552
# 3 69.2113 2.9813 174.7780 0.0017 1.3953 -0.0014
# 4 0.0023 0.0300 0.0017 39.6063 0.0039 -0.0100
# 5 -37.5512 5.0797 1.3953 0.0039 47.2836 -0.0022
# 6 -0.0030 -0.0552 -0.0014 -0.0100 -0.0022 57.2470
#
#
#
# Elastic Compliance Matrix: (Units=1/GPa)
#
#
# Indices 1 2 3 4 5 6 
#
# 1 0.013289 -0.003323 -0.005294 0.000001 0.011067 -0.000002
# 2 -0.003323 0.011633 0.001149 -0.000008 -0.003922 0.000011
# 3 -0.005294 0.001149 0.007835 0.000000 -0.004559 0.000001
# 4 0.000001 -0.000008 0.000000 0.025249 0.000000 0.000004
# 5 0.011067 -0.003922 -0.004559 0.000000 0.030494 -0.000002
# 6 -0.000002 0.000011 0.000001 0.000004 -0.000002 0.017468
#
#
# Mechanical properties :
#
#
# Convention : Reuss Voigt Hill
#
# Bulk Modulus (GPa) = 56.11705 65.77804 60.94755
# Shear Modulus (GPa) = 39.41891 49.80480 44.61185
#
# Velocity S-wave (km/s) = 3.69600 4.15446 3.93192
# Velocity P-wave (km/s) = 6.13685 6.76814 6.46021
#
# Compressibility (1/GPa) = 0.01781989
#
# Stress axis : x y z
#
# Youngs Moduli (GPa) = 75.25149 85.96556 127.63675
#
# Poissons Ratio (x) = 0.28565 0.67570
# Poissons Ratio (y) = 0.25005 -0.14662
# Poissons Ratio (z) = 0.39838 -0.09875
#
# Static dielectric constant tensor:
#      x y z
#    x 2.159270 0.000130 0.491890 
#    y 0.000130 0.967010 -0.000180 
#    z 0.491890 -0.000180 1.554830 
# 
# From -- ./inp_files/320028.got.cif
#   From: 2010.05.17/outbox.cif.g08.bks.cpg/sg15_161_cif.got.tgz:320028.got - 2010.06.03 18:47:42.
