data_PCOD9299411
_publ_section_title
;
Structure prediction by ZEFSAII (Michael W. Deem and Ramdas Pophale) SiO2 
 PCOD9299411
Probable space group: C 2/C
;
_chemical_formula_sum "Si O2"
_cell_formula_units_Z 40
_cell_length_a 21.734794
_cell_length_b 13.519043
_cell_length_c 10.689481
_cell_angle_alpha 90.000000
_cell_angle_beta 151.727263
_cell_angle_gamma 90.000000
_cell_volume 1487.761247
_symmetry_space_group_name_H-M "C 2/C"
_symmetry_group_IT_number 15
_symmetry_cell_setting 'monoclinic'
loop_
_space_group_symop_operation_xyz
x,y,z
-x,y,1/2-z
-x,-y,-z
x,-y,1/2+z
1/2+x,1/2+y,z
1/2-x,1/2+y,1/2-z
1/2-x,1/2-y,-z
1/2+x,1/2-y,1/2+z
loop_
_atom_site_type_symbol
_atom_site_label
_atom_site_fract_x
_atom_site_fract_y
_atom_site_fract_z
Si Si1 0.426500 0.907626 0.996078
Si Si2 0.687260 0.522887 0.567629
Si Si3 0.898897 0.750498 0.821074
Si Si4 0.878877 0.085412 0.795849
Si Si5 0.752158 0.720766 0.783275
O O1 0.335088 0.997842 0.795477
O O2 0.321832 0.822928 0.842365
O O3 0.500000 0.942501 0.250000
O O4 0.527917 0.846878 0.096433
O O5 0.616114 0.465708 0.329855
O O6 0.650992 0.503290 0.648753
O O7 0.672071 0.640870 0.554896
O O8 0.750000 0.750000 0.500000
O O9 0.881702 0.740944 0.939969
O O10 0.996415 0.842367 0.967084
O O11 0.756241 0.160600 0.601172
#
# Coordination Sequence:
#
# PCOD9299411 Si02
#       5
#     8   8   8   8   8
#     4  11  23  44  77 107 154 217 265 327 402 486
#     4  10  24  50  76 117 159 205 273 331 403 472
#     4  11  22  44  80 109 159 213 263 319 413 484
#     4   9  24  48  79 117 160 205 269 334 396 491
#     4   9  23  44  75 111 156 201 268 319 404 472
#
# _framework density 26.886033000000001
#
# number of rings (size 3 to 8) (size 9 to 14) (size 15 to 20)
#    1.200    0.800    2.000    0.000    2.800    4.000 
#    0.000   12.000    0.000    0.000    0.000    0.000 
#    0.000    0.000    0.000    0.000    0.000    0.000 
#
# Total GULP energy -111488.826845 kJ/mol
# GULP energy per Si atom -5574.441342 kJ/mol
# Density = 2.682484 g / cm^3
# Si number density = 26.886033 Si / 1000 Ang^3
#
#
#
# Elastic Constant Matrix: (Units=GPa)
#
#
# Indices 1 2 3 4 5 6 
#
# 1 109.1177 57.1102 68.5929 0.0000 29.7280 0.0000
# 2 57.1102 104.6412 36.8872 0.0000 3.1489 0.0000
# 3 68.5929 36.8872 88.2556 0.0000 1.2079 0.0000
# 4 0.0000 0.0000 0.0000 32.3583 0.0000 10.3575
# 5 29.7280 3.1489 1.2079 0.0000 44.6254 0.0000
# 6 0.0000 0.0000 0.0000 10.3575 0.0000 81.8675
#
#
#
# Elastic Compliance Matrix: (Units=1/GPa)
#
#
# Indices 1 2 3 4 5 6 
#
# 1 0.034244 -0.010279 -0.022024 0.000000 -0.021491 0.000000
# 2 -0.010279 0.014313 0.001927 0.000000 0.005785 0.000000
# 3 -0.022024 0.001927 0.027454 0.000000 0.013793 0.000000
# 4 0.000000 0.000000 0.000000 0.032208 0.000000 -0.004075
# 5 -0.021491 0.005785 0.013793 0.000000 0.035944 0.000000
# 6 0.000000 0.000000 0.000000 -0.004075 0.000000 0.012730
#
#
# Mechanical properties :
#
#
# Convention : Reuss Voigt Hill
#
# Bulk Modulus (GPa) = 65.53476 69.68837 67.61157
# Shear Modulus (GPa) = 22.44863 41.06519 31.75691
#
# Velocity S-wave (km/s) = 2.89269 3.91241 3.44054
# Velocity P-wave (km/s) = 5.96530 6.81069 6.40196
#
# Compressibility (1/GPa) = 0.01525908
#
# Stress axis : x y z
#
# Youngs Moduli (GPa) = 29.20230 69.86751 36.42471
#
# Poissons Ratio (x) = 0.71815 0.80223
# Poissons Ratio (y) = 0.30016 -0.07021
# Poissons Ratio (z) = 0.64316 -0.13466
#
# Static dielectric constant tensor:
#      x y z
#    x 2.366990 0.000000 -0.224480 
#    y 0.000000 2.089310 0.000000 
#    z -0.224480 0.000000 2.302650 
# 
# From -- ./inp_files/118857.got.cif
#   From: 2010.05.17/outbox.cif.g08.bks.cpg/sg15_60_cif.got.tgz:118857.got - 2010.06.03 18:47:42.
