data_PCOD9299238
_publ_section_title
;
Structure prediction by ZEFSAII (Michael W. Deem and Ramdas Pophale) SiO2 
 PCOD9299238
Probable space group: C 2/C
;
_chemical_formula_sum "Si O2"
_cell_formula_units_Z 36
_cell_length_a 19.399047
_cell_length_b 7.901145
_cell_length_c 21.622104
_cell_angle_alpha 90.000000
_cell_angle_beta 152.143879
_cell_angle_gamma 90.000000
_cell_volume 1548.532582
_symmetry_space_group_name_H-M "C 2/C"
_symmetry_group_IT_number 15
_symmetry_cell_setting 'monoclinic'
loop_
_space_group_symop_operation_xyz
x,y,z
-x,y,1/2-z
-x,-y,-z
x,-y,1/2+z
1/2+x,1/2+y,z
1/2-x,1/2+y,1/2-z
1/2-x,1/2-y,-z
1/2+x,1/2-y,1/2+z
loop_
_atom_site_type_symbol
_atom_site_label
_atom_site_fract_x
_atom_site_fract_y
_atom_site_fract_z
Si Si1 0.458023 0.213689 0.592689
Si Si2 0.072801 0.358937 0.003654
Si Si3 0.716123 0.537457 0.091142
Si Si4 0.260396 0.676374 0.777133
Si Si5 0.000000 0.556333 0.750000
O O1 0.362388 0.371741 0.497112
O O2 0.629581 0.257843 0.714856
O O3 0.432586 0.039597 0.534005
O O4 0.429925 0.172127 0.641530
O O5 0.184192 0.362113 0.150717
O O6 0.135895 0.209972 0.011185
O O7 0.911629 0.282427 0.893619
O O8 0.709397 0.496785 0.159655
O O9 0.879119 0.546038 0.192684
#
# Coordination Sequence:
#
# PCOD9299238 Si02
#       5
#     8   8   8   8   4
#     4  11  25  43  70  98 141 184 230 286 339 412
#     4  12  26  43  70 107 140 180 232 282 360 410
#     4  11  25  43  70  98 141 184 230 286 339 412
#     4  11  23  42  68 106 141 176 224 285 349 419
#     4  10  24  48  66  98 136 186 242 280 336 406
#
# _framework density 23.247816
#
# number of rings (size 3 to 8) (size 9 to 14) (size 15 to 20)
#    0.000    0.889    2.222    4.667    6.222    2.667 
#    0.000    2.222    0.000    0.000    0.000    0.000 
#    0.000    0.000    0.000    0.000    0.000    0.000 
#
# Total GULP energy -100667.270315 kJ/mol
# GULP energy per Si atom -5592.626129 kJ/mol
# Density = 2.319490 g / cm^3
# Si number density = 23.247816 Si / 1000 Ang^3
#
#
#
# Elastic Constant Matrix: (Units=GPa)
#
#
# Indices 1 2 3 4 5 6 
#
# 1 79.4243 44.3667 30.3370 0.0000 -10.3611 0.0000
# 2 44.3667 147.6039 49.9212 0.0000 12.7857 0.0000
# 3 30.3370 49.9212 105.1010 0.0000 -1.3810 0.0000
# 4 0.0000 0.0000 0.0000 29.3118 0.0000 8.9634
# 5 -10.3611 12.7857 -1.3810 0.0000 47.4595 0.0000
# 6 0.0000 0.0000 0.0000 8.9634 0.0000 8.0538
#
#
#
# Elastic Compliance Matrix: (Units=1/GPa)
#
#
# Indices 1 2 3 4 5 6 
#
# 1 0.016771 -0.004578 -0.002603 0.000000 0.004819 0.000000
# 2 -0.004578 0.009577 -0.003276 0.000000 -0.003675 0.000000
# 3 -0.002603 -0.003276 0.011831 0.000000 0.000659 0.000000
# 4 0.000000 0.000000 0.000000 0.051717 0.000000 -0.057558
# 5 0.004819 -0.003675 0.000659 0.000000 0.023132 0.000000
# 6 0.000000 0.000000 0.000000 -0.057558 0.000000 0.188223
#
#
# Mechanical properties :
#
#
# Convention : Reuss Voigt Hill
#
# Bulk Modulus (GPa) = 57.92124 64.59767 61.25945
# Shear Modulus (GPa) = 15.24768 30.79866 23.02317
#
# Velocity S-wave (km/s) = 2.56379 3.64373 3.15038
# Velocity P-wave (km/s) = 5.80799 6.74901 6.29611
#
# Compressibility (1/GPa) = 0.01726483
#
# Stress axis : x y z
#
# Youngs Moduli (GPa) = 59.62756 104.41465 84.52621
#
# Poissons Ratio (x) = 0.47801 0.22002
# Poissons Ratio (y) = 0.27297 0.27690
# Poissons Ratio (z) = 0.15521 0.34205
#
# Static dielectric constant tensor:
#      x y z
#    x 1.879960 0.000000 -0.042260 
#    y 0.000000 1.906600 0.000000 
#    z -0.042260 0.000000 1.947330 
# 
# From -- ./inp_files/247915.got.cif
#   From: 2010.05.17/outbox.cif.g08.bks.cpg/sg15_124_cif.got.tgz:247915.got - 2010.06.03 18:47:42.
