data_PCOD9299045
_publ_section_title
;
Structure prediction by ZEFSAII (Michael W. Deem and Ramdas Pophale) SiO2 
 PCOD9299045
Probable space group: C 2/C
;
_chemical_formula_sum "Si O2"
_cell_formula_units_Z 32
_cell_length_a 24.922798
_cell_length_b 8.024514
_cell_length_c 9.180744
_cell_angle_alpha 90.000000
_cell_angle_beta 44.741494
_cell_angle_gamma 90.000000
_cell_volume 1292.439157
_symmetry_space_group_name_H-M "C 2/C"
_symmetry_group_IT_number 15
_symmetry_cell_setting 'monoclinic'
loop_
_space_group_symop_operation_xyz
x,y,z
-x,y,1/2-z
-x,-y,-z
x,-y,1/2+z
1/2+x,1/2+y,z
1/2-x,1/2+y,1/2-z
1/2-x,1/2-y,-z
1/2+x,1/2-y,1/2+z
loop_
_atom_site_type_symbol
_atom_site_label
_atom_site_fract_x
_atom_site_fract_y
_atom_site_fract_z
Si Si1 0.261993 0.158984 0.827019
Si Si2 0.147774 0.661199 0.356897
Si Si3 0.505833 0.679387 0.062541
Si Si4 0.423653 0.828308 0.972168
O O1 0.189104 0.197434 0.870286
O O2 0.338937 0.238850 0.608086
O O3 0.285813 0.968375 0.815594
O O4 0.250000 0.250000 0.000000
O O5 0.089716 0.749192 0.361094
O O6 0.090231 0.522948 0.537804
O O7 0.500000 0.667170 0.250000
O O8 0.500000 0.500000 0.000000
O O9 0.442874 0.795677 0.105556
O O10 0.500000 0.765396 0.750000
#
# Coordination Sequence:
#
# PCOD9299045 Si02
#       4
#     8   8   8   8
#     4  10  24  46  75 110 151 202 255 315 391 467
#     4  10  25  43  78 106 153 199 259 313 394 455
#     4  12  26  46  76 111 155 198 261 322 389 464
#     4  10  24  46  78 111 147 198 254 321 396 455
#
# _framework density 24.759388999999999
#
# number of rings (size 3 to 8) (size 9 to 14) (size 15 to 20)
#    1.500    0.000    0.000    3.750    7.000    0.000 
#    4.500    3.750    0.000    0.000    0.000    0.000 
#    0.000    0.000    0.000    0.000    0.000    0.000 
#
# Total GULP energy -89149.149878 kJ/mol
# GULP energy per Si atom -5571.821867 kJ/mol
# Density = 2.470304 g / cm^3
# Si number density = 24.759389 Si / 1000 Ang^3
#
#
#
# Elastic Constant Matrix: (Units=GPa)
#
#
# Indices 1 2 3 4 5 6 
#
# 1 145.5147 38.5502 3.9894 0.0000 -32.2255 0.0000
# 2 38.5502 122.2164 14.3469 0.0000 -8.3971 0.0000
# 3 3.9894 14.3469 86.6512 0.0000 -5.7173 0.0000
# 4 0.0000 0.0000 0.0000 25.3220 0.0000 -8.9747
# 5 -32.2255 -8.3971 -5.7173 0.0000 37.2389 0.0000
# 6 0.0000 0.0000 0.0000 -8.9747 0.0000 64.7726
#
#
#
# Elastic Compliance Matrix: (Units=1/GPa)
#
#
# Indices 1 2 3 4 5 6 
#
# 1 0.009152 -0.002431 0.000472 0.000000 0.007444 0.000000
# 2 -0.002431 0.009096 -0.001412 0.000000 -0.000269 0.000000
# 3 0.000472 -0.001412 0.011879 0.000000 0.001914 0.000000
# 4 0.000000 0.000000 0.000000 0.041531 0.000000 0.005754
# 5 0.007444 -0.000269 0.001914 0.000000 0.033529 0.000000
# 6 0.000000 0.000000 0.000000 0.005754 0.000000 0.016236
#
#
# Mechanical properties :
#
#
# Convention : Reuss Voigt Hill
#
# Bulk Modulus (GPa) = 42.76048 52.01726 47.38887
# Shear Modulus (GPa) = 36.77605 45.29978 41.03791
#
# Velocity S-wave (km/s) = 3.85819 4.28202 4.07562
# Velocity P-wave (km/s) = 6.09552 6.74554 6.42875
#
# Compressibility (1/GPa) = 0.02338608
#
# Stress axis : x y z
#
# Youngs Moduli (GPa) = 109.26942 109.93659 84.18333
#
# Poissons Ratio (x) = 0.26722 -0.03976
# Poissons Ratio (y) = 0.26560 0.11886
# Poissons Ratio (z) = -0.05160 0.15522
#
# Static dielectric constant tensor:
#      x y z
#    x 1.936300 0.000000 0.020310 
#    y 0.000000 2.041970 0.000000 
#    z 0.020310 0.000000 2.087310 
# 
# From -- ./inp_files/64466.got.cif
#   From: 2010.05.17/outbox.cif.g08.bks.cpg/sg15_33_cif.got.tgz:64466.got - 2010.06.03 18:47:42.
