data_PCOD9299324
_publ_section_title
;
Structure prediction by ZEFSAII (Michael W. Deem and Ramdas Pophale) SiO2 
 PCOD9299324
Probable space group: C 2/C
;
_chemical_formula_sum "Si O2"
_cell_formula_units_Z 36
_cell_length_a 6.983583
_cell_length_b 23.521271
_cell_length_c 9.149154
_cell_angle_alpha 90.000000
_cell_angle_beta 71.971478
_cell_angle_gamma 90.000000
_cell_volume 1429.078361
_symmetry_space_group_name_H-M "C 2/C"
_symmetry_group_IT_number 15
_symmetry_cell_setting 'monoclinic'
loop_
_space_group_symop_operation_xyz
x,y,z
-x,y,1/2-z
-x,-y,-z
x,-y,1/2+z
1/2+x,1/2+y,z
1/2-x,1/2+y,1/2-z
1/2-x,1/2-y,-z
1/2+x,1/2-y,1/2+z
loop_
_atom_site_type_symbol
_atom_site_label
_atom_site_fract_x
_atom_site_fract_y
_atom_site_fract_z
Si Si1 0.702597 0.435487 0.295117
Si Si2 0.000000 0.755316 0.250000
Si Si3 0.698011 0.561538 0.300974
Si Si4 0.046726 0.606167 0.520320
Si Si5 0.223361 0.824602 0.962782
O O1 0.500000 0.425600 0.250000
O O2 0.709496 0.498453 0.362833
O O3 0.118635 0.433623 0.364957
O O4 0.773743 0.391791 0.403855
O O5 0.194776 0.713767 0.190783
O O6 0.949088 0.795017 0.401134
O O7 0.500000 0.559612 0.250000
O O8 0.673445 0.613085 0.417701
O O9 0.874410 0.579062 0.147618
O O10 0.923151 0.663829 0.515791
#
# Coordination Sequence:
#
# PCOD9299324 Si02
#       5
#     8   4   8   8   8
#     4  10  26  42  69 108 154 195 237 285 361 445
#     4  10  24  48  78 102 144 186 244 320 366 424
#     4  11  25  42  69 108 152 196 237 293 363 438
#     4  11  24  41  70 106 147 195 238 297 354 434
#     4  11  24  46  77 106 143 188 248 303 370 427
#
# _framework density 25.191061000000001
#
# number of rings (size 3 to 8) (size 9 to 14) (size 15 to 20)
#    0.000    1.333    2.222    0.667   14.000    3.556 
#    0.000    1.111   19.556    0.000    0.000    0.000 
#    0.000    0.000    0.000    0.000    0.000    0.000 
#
# Total GULP energy -100663.286845 kJ/mol
# GULP energy per Si atom -5592.404825 kJ/mol
# Density = 2.513373 g / cm^3
# Si number density = 25.191061 Si / 1000 Ang^3
#
#
#
# Elastic Constant Matrix: (Units=GPa)
#
#
# Indices 1 2 3 4 5 6 
#
# 1 140.8058 33.0766 33.0620 0.0000 1.0745 0.0000
# 2 33.0766 109.0625 25.2996 0.0000 4.1682 0.0000
# 3 33.0620 25.2996 161.1223 0.0000 -23.7316 0.0000
# 4 0.0000 0.0000 0.0000 41.6601 0.0000 6.7086
# 5 1.0745 4.1682 -23.7316 0.0000 40.9649 0.0000
# 6 0.0000 0.0000 0.0000 6.7086 0.0000 7.3559
#
#
#
# Elastic Compliance Matrix: (Units=1/GPa)
#
#
# Indices 1 2 3 4 5 6 
#
# 1 0.007923 -0.002040 -0.001427 0.000000 -0.000827 0.000000
# 2 -0.002040 0.010194 -0.001451 0.000000 -0.001824 0.000000
# 3 -0.001427 -0.001451 0.007384 0.000000 0.004463 0.000000
# 4 0.000000 0.000000 0.000000 0.028136 0.000000 -0.025660
# 5 -0.000827 -0.001824 0.004463 0.000000 0.027204 0.000000
# 6 0.000000 0.000000 0.000000 -0.025660 0.000000 0.159346
#
#
# Mechanical properties :
#
#
# Convention : Reuss Voigt Hill
#
# Bulk Modulus (GPa) = 63.83622 65.98523 64.91072
# Shear Modulus (GPa) = 19.58901 39.29967 29.44434
#
# Velocity S-wave (km/s) = 2.79160 3.95405 3.42254
# Velocity P-wave (km/s) = 5.98219 6.86271 6.43752
#
# Compressibility (1/GPa) = 0.01566509
#
# Stress axis : x y z
#
# Youngs Moduli (GPa) = 126.22056 98.09669 135.41942
#
# Poissons Ratio (x) = 0.20013 0.19327
# Poissons Ratio (y) = 0.25750 0.19646
# Poissons Ratio (z) = 0.18014 0.14231
#
# Static dielectric constant tensor:
#      x y z
#    x 2.039130 0.000000 -0.003630 
#    y 0.000000 2.010840 0.000000 
#    z -0.003630 0.000000 2.012970 
# 
# From -- ./inp_files/78945.got.cif
#   From: 2010.05.17/outbox.cif.g08.bks.cpg/sg15_40_cif.got.tgz:78945.got - 2010.06.03 18:47:42.
