data_PCOD9299601
_publ_section_title
;
Structure prediction by ZEFSAII (Michael W. Deem and Ramdas Pophale) SiO2 
 PCOD9299601
Probable space group: C 2/C
;
_chemical_formula_sum "Si O2"
_cell_formula_units_Z 56
_cell_length_a 9.286574
_cell_length_b 25.255760
_cell_length_c 14.879794
_cell_angle_alpha 90.000000
_cell_angle_beta 124.721964
_cell_angle_gamma 90.000000
_cell_volume 2868.438027
_symmetry_space_group_name_H-M "C 2/C"
_symmetry_group_IT_number 15
_symmetry_cell_setting 'monoclinic'
loop_
_space_group_symop_operation_xyz
x,y,z
-x,y,1/2-z
-x,-y,-z
x,-y,1/2+z
1/2+x,1/2+y,z
1/2-x,1/2+y,1/2-z
1/2-x,1/2-y,-z
1/2+x,1/2-y,1/2+z
loop_
_atom_site_type_symbol
_atom_site_label
_atom_site_fract_x
_atom_site_fract_y
_atom_site_fract_z
Si Si1 0.439949 0.273132 0.043704
Si Si2 0.581406 0.082030 0.503701
Si Si3 0.198679 0.325636 0.618388
Si Si4 0.528080 0.021137 0.868131
Si Si5 0.530175 0.380083 0.362047
Si Si6 0.542649 0.656835 0.126875
Si Si7 0.086298 0.056844 0.515075
O O1 0.584651 0.227623 0.084386
O O2 0.497563 0.317487 0.136025
O O3 0.250000 0.250000 0.000000
O O4 0.423019 0.306758 0.946510
O O5 0.436097 0.127536 0.451777
O O6 0.592819 0.055418 0.607189
O O7 0.768490 0.106195 0.543732
O O8 0.530520 0.037208 0.412869
O O9 0.300944 0.336933 0.747328
O O10 0.357216 0.324720 0.603250
O O11 0.500000 0.020840 0.750000
O O12 0.720133 0.046035 0.950932
O O13 0.500000 0.396674 0.250000
O O14 0.411414 0.411808 0.389977
O O15 0.518267 0.595802 0.088405
O O16 0.000000 0.000000 0.500000
#
# Coordination Sequence:
#
# PCOD9299601 Si02
#       7
#     8   8   8   8   8   8   8
#     4  11  24  41  67  94 130 159 217 278 319 388
#     4  11  23  42  64  97 134 166 224 270 313 399
#     4  11  23  44  68  93 131 172 219 267 322 394
#     4  11  24  41  65  94 130 180 214 266 327 385
#     4  11  24  42  63  95 128 171 210 266 331 382
#     4  10  25  44  66  96 128 179 213 263 331 387
#     4  11  22  43  63  94 136 166 216 264 317 397
#
# _framework density 19.522819999999999
#
# number of rings (size 3 to 8) (size 9 to 14) (size 15 to 20)
#    0.000    1.143    4.286    1.286    4.000    0.000 
#    2.571    0.000    0.000    0.000    0.000    0.000 
#    0.000    0.000    0.000    0.000    0.000    0.000 
#
# Total GULP energy -156394.961876 kJ/mol
# GULP energy per Si atom -5585.534353 kJ/mol
# Density = 1.947838 g / cm^3
# Si number density = 19.522820 Si / 1000 Ang^3
#
#
#
# Elastic Constant Matrix: (Units=GPa)
#
#
# Indices 1 2 3 4 5 6 
#
# 1 65.3716 35.6194 6.4801 0.0000 -3.0050 0.0000
# 2 35.6194 133.1178 20.5709 0.0000 2.8390 0.0000
# 3 6.4801 20.5709 50.7439 0.0000 -11.7858 0.0000
# 4 0.0000 0.0000 0.0000 10.2922 0.0000 -2.4356
# 5 -3.0050 2.8390 -11.7858 0.0000 30.6315 0.0000
# 6 0.0000 0.0000 0.0000 -2.4356 0.0000 35.0420
#
#
#
# Elastic Compliance Matrix: (Units=1/GPa)
#
#
# Indices 1 2 3 4 5 6 
#
# 1 0.018060 -0.004916 0.000224 0.000000 0.002314 0.000000
# 2 -0.004916 0.009488 -0.003882 0.000000 -0.002855 0.000000
# 3 0.000224 -0.003882 0.023435 0.000000 0.009399 0.000000
# 4 0.000000 0.000000 0.000000 0.098786 0.000000 0.006866
# 5 0.002314 -0.002855 0.009399 0.000000 0.036754 0.000000
# 6 0.000000 0.000000 0.000000 0.006866 0.000000 0.029014
#
#
# Mechanical properties :
#
#
# Convention : Reuss Voigt Hill
#
# Bulk Modulus (GPa) = 29.55521 41.61936 35.58728
# Shear Modulus (GPa) = 20.49479 27.63066 24.06273
#
# Velocity S-wave (km/s) = 3.24356 3.76613 3.51457
# Velocity P-wave (km/s) = 5.40363 6.34636 5.89387
#
# Compressibility (1/GPa) = 0.03383499
#
# Stress axis : x y z
#
# Youngs Moduli (GPa) = 55.37048 105.39128 42.67169
#
# Poissons Ratio (x) = 0.51815 -0.00956
# Poissons Ratio (y) = 0.27223 0.16564
# Poissons Ratio (z) = -0.01241 0.40911
#
# Static dielectric constant tensor:
#      x y z
#    x 1.680080 0.000000 -0.024430 
#    y 0.000000 1.649560 0.000000 
#    z -0.024430 0.000000 1.677380 
# 
# From -- ./inp_files/137930.got.cif
#   From: 2010.05.17/outbox.cif.g08.bks.cpg/sg15_69_cif.got.tgz:137930.got - 2010.06.03 18:47:42.
