data_PCOD9299278
_publ_section_title
;
Structure prediction by ZEFSAII (Michael W. Deem and Ramdas Pophale) SiO2 
 PCOD9299278
Probable space group: C 2/C
;
_chemical_formula_sum "Si O2"
_cell_formula_units_Z 40
_cell_length_a 18.976433
_cell_length_b 15.275488
_cell_length_c 13.723873
_cell_angle_alpha 90.000000
_cell_angle_beta 158.181450
_cell_angle_gamma 90.000000
_cell_volume 1478.570470
_symmetry_space_group_name_H-M "C 2/C"
_symmetry_group_IT_number 15
_symmetry_cell_setting 'monoclinic'
loop_
_space_group_symop_operation_xyz
x,y,z
-x,y,1/2-z
-x,-y,-z
x,-y,1/2+z
1/2+x,1/2+y,z
1/2-x,1/2+y,1/2-z
1/2-x,1/2-y,-z
1/2+x,1/2-y,1/2+z
loop_
_atom_site_type_symbol
_atom_site_label
_atom_site_fract_x
_atom_site_fract_y
_atom_site_fract_z
Si Si1 0.455245 0.197339 0.483686
Si Si2 0.225757 0.545496 0.525529
Si Si3 0.477522 0.696204 0.605191
Si Si4 0.028992 0.113181 0.167388
Si Si5 0.187025 0.537760 0.783267
O O1 0.490127 0.214271 0.413327
O O2 0.505174 0.289346 0.599069
O O3 0.603740 0.128878 0.718090
O O4 0.234752 0.171939 0.202591
O O5 0.362828 0.626747 0.724802
O O6 0.300930 0.447992 0.651804
O O7 0.260090 0.531733 0.453711
O O8 0.000000 0.555797 0.250000
O O9 0.500000 0.708872 0.750000
O O10 0.000000 0.114237 0.250000
O O11 0.839990 0.058999 0.898584
O O12 0.000000 0.500000 0.500000
#
# Coordination Sequence:
#
# PCOD9299278 Si02
#       5
#     8   8   8   8   8
#     4  12  26  46  79 109 151 196 254 310 381 451
#     4  11  27  46  77 108 151 197 250 311 379 449
#     4  12  27  49  74 113 150 200 248 316 377 450
#     4  10  24  48  72 108 150 195 250 311 375 450
#     4  11  24  46  71 104 149 199 244 309 381 449
#
# _framework density 27.053158
#
# number of rings (size 3 to 8) (size 9 to 14) (size 15 to 20)
#    0.000    0.800    2.000    4.800    5.600    7.200 
#    0.000    0.000    0.000    0.000    0.000    0.000 
#    0.000    0.000    0.000    0.000    0.000    0.000 
#
# Total GULP energy -111896.567755 kJ/mol
# GULP energy per Si atom -5594.828388 kJ/mol
# Density = 2.699158 g / cm^3
# Si number density = 27.053158 Si / 1000 Ang^3
#
#
#
# Elastic Constant Matrix: (Units=GPa)
#
#
# Indices 1 2 3 4 5 6 
#
# 1 98.0045 15.8641 13.4683 0.0000 2.1630 0.0000
# 2 15.8641 111.7086 39.8568 0.0000 9.6749 0.0000
# 3 13.4683 39.8568 144.5728 0.0000 49.3179 0.0000
# 4 0.0000 0.0000 0.0000 59.1126 0.0000 -1.8593
# 5 2.1630 9.6749 49.3179 0.0000 51.4823 0.0000
# 6 0.0000 0.0000 0.0000 -1.8593 0.0000 41.4111
#
#
#
# Elastic Compliance Matrix: (Units=1/GPa)
#
#
# Indices 1 2 3 4 5 6 
#
# 1 0.010507 -0.001244 -0.000839 0.000000 0.000596 0.000000
# 2 -0.001244 0.010120 -0.003035 0.000000 0.001058 0.000000
# 3 -0.000839 -0.003035 0.011327 0.000000 -0.010245 0.000000
# 4 0.000000 0.000000 0.000000 0.016941 0.000000 0.000761
# 5 0.000596 0.001058 -0.010245 0.000000 0.029014 0.000000
# 6 0.000000 0.000000 0.000000 0.000761 0.000000 0.024182
#
#
# Mechanical properties :
#
#
# Convention : Reuss Voigt Hill
#
# Bulk Modulus (GPa) = 46.04727 54.74046 50.39386
# Shear Modulus (GPa) = 41.81768 49.40765 45.61266
#
# Velocity S-wave (km/s) = 3.93588 4.27818 4.11059
# Velocity P-wave (km/s) = 6.14108 6.68447 6.41853
#
# Compressibility (1/GPa) = 0.02171682
#
# Stress axis : x y z
#
# Youngs Moduli (GPa) = 95.17272 98.81656 88.28817
#
# Poissons Ratio (x) = 0.12297 0.07409
# Poissons Ratio (y) = 0.11843 0.26793
# Poissons Ratio (z) = 0.07987 0.29988
#
# Static dielectric constant tensor:
#      x y z
#    x 2.174300 0.000000 -0.046390 
#    y 0.000000 2.183470 0.000000 
#    z -0.046390 0.000000 2.266560 
# 
# From -- ./inp_files/169225.got.cif
#   From: 2010.05.17/outbox.cif.g08.bks.cpg/sg15_85_cif.got.tgz:169225.got - 2010.06.03 18:47:42.
