data_PCOD9299867
_publ_section_title
;
Structure prediction by ZEFSAII (Michael W. Deem and Ramdas Pophale) SiO2 
 PCOD9299867
Probable space group: C 2/C
;
_chemical_formula_sum "Si O2"
_cell_formula_units_Z 36
_cell_length_a 18.916329
_cell_length_b 5.769118
_cell_length_c 18.096161
_cell_angle_alpha 90.000000
_cell_angle_beta 137.219688
_cell_angle_gamma 90.000000
_cell_volume 1341.292404
_symmetry_space_group_name_H-M "C 2/C"
_symmetry_group_IT_number 15
_symmetry_cell_setting 'monoclinic'
loop_
_space_group_symop_operation_xyz
x,y,z
-x,y,1/2-z
-x,-y,-z
x,-y,1/2+z
1/2+x,1/2+y,z
1/2-x,1/2+y,1/2-z
1/2-x,1/2-y,-z
1/2+x,1/2-y,1/2+z
loop_
_atom_site_type_symbol
_atom_site_label
_atom_site_fract_x
_atom_site_fract_y
_atom_site_fract_z
Si Si1 0.896258 0.858117 0.887283
Si Si2 0.500000 0.445445 0.750000
Si Si3 0.257540 0.184591 0.647529
Si Si4 0.355406 0.173205 0.118036
Si Si5 0.947471 0.389418 0.075056
O O1 0.817542 0.831996 0.755363
O O2 0.960410 0.626403 0.913211
O O3 0.809341 0.960923 0.875404
O O4 0.000000 0.000000 0.000000
O O5 0.597667 0.608237 0.805124
O O6 0.529477 0.308855 0.846679
O O7 0.167517 0.344034 0.544091
O O8 0.335186 0.059727 0.649269
O O9 0.437587 0.119253 0.115588
O O10 0.250000 0.250000 0.000000
#
# Coordination Sequence:
#
# PCOD9299867 Si02
#       5
#     8   4   8   8   8
#     4  10  25  47  73 107 154 208 252 313 392 452
#     4  12  24  42  76 106 156 184 260 312 398 446
#     4  11  24  47  75 108 156 203 260 321 385 469
#     4  12  26  45  77 114 144 208 261 316 394 465
#     4  11  25  47  71 111 156 195 251 337 377 460
#
# _framework density 26.839786
#
# number of rings (size 3 to 8) (size 9 to 14) (size 15 to 20)
#    0.000    0.889    2.222    4.000    6.222    0.000 
#    0.000    3.333    0.000    0.000    0.000    0.000 
#    0.000    0.000    0.000    0.000    0.000    0.000 
#
# Total GULP energy -100310.983314 kJ/mol
# GULP energy per Si atom -5572.832406 kJ/mol
# Density = 2.677870 g / cm^3
# Si number density = 26.839786 Si / 1000 Ang^3
#
#
#
# Elastic Constant Matrix: (Units=GPa)
#
#
# Indices 1 2 3 4 5 6 
#
# 1 95.9182 21.1240 14.8550 -0.0002 14.5297 -0.0001
# 2 21.1240 58.2415 45.1709 -0.0008 -13.0819 -0.0005
# 3 14.8550 45.1709 253.1891 -0.0001 8.5123 -0.0001
# 4 -0.0002 -0.0008 -0.0001 61.4976 -0.0001 -4.1667
# 5 14.5297 -13.0819 8.5123 -0.0001 37.4127 0.0000
# 6 -0.0001 -0.0005 -0.0001 -4.1667 0.0000 46.9544
#
#
#
# Elastic Compliance Matrix: (Units=1/GPa)
#
#
# Indices 1 2 3 4 5 6 
#
# 1 0.013022 -0.007030 0.000749 0.000000 -0.007686 0.000000
# 2 -0.007030 0.026297 -0.004716 0.000000 0.012998 0.000000
# 3 0.000749 -0.004716 0.004849 0.000000 -0.003043 0.000000
# 4 0.000000 0.000000 0.000000 0.016359 0.000000 0.001452
# 5 -0.007686 0.012998 -0.003043 0.000000 0.034951 0.000000
# 6 0.000000 0.000000 0.000000 0.001452 0.000000 0.021426
#
#
# Mechanical properties :
#
#
# Convention : Reuss Voigt Hill
#
# Bulk Modulus (GPa) = 45.09909 63.29427 54.19668
# Shear Modulus (GPa) = 34.17842 50.91953 42.54898
#
# Velocity S-wave (km/s) = 3.57238 4.36037 3.98590
# Velocity P-wave (km/s) = 5.81854 6.99885 6.43581
#
# Compressibility (1/GPa) = 0.02217340
#
# Stress axis : x y z
#
# Youngs Moduli (GPa) = 76.79275 38.02716 206.21093
#
# Poissons Ratio (x) = 0.26733 -0.15436
# Poissons Ratio (y) = 0.53985 0.97252
# Poissons Ratio (z) = -0.05748 0.17934
#
# Static dielectric constant tensor:
#      x y z
#    x 2.167730 0.000000 0.023790 
#    y 0.000000 2.161930 0.000000 
#    z 0.023790 0.000000 2.133260 
# 
# From -- ./inp_files/175575.got.cif
#   From: 2010.05.17/outbox.cif.g08.bks.cpg/sg15_88_cif.got.tgz:175575.got - 2010.06.03 18:47:42.
