data_PCOD9299013
_publ_section_title
;
Structure prediction by ZEFSAII (Michael W. Deem and Ramdas Pophale) SiO2 
 PCOD9299013
Probable space group: C 2/C
;
_chemical_formula_sum "Si O2"
_cell_formula_units_Z 40
_cell_length_a 18.605556
_cell_length_b 8.924795
_cell_length_c 24.279327
_cell_angle_alpha 90.000000
_cell_angle_beta 21.847408
_cell_angle_gamma 90.000000
_cell_volume 1500.303721
_symmetry_space_group_name_H-M "C 2/C"
_symmetry_group_IT_number 15
_symmetry_cell_setting 'monoclinic'
loop_
_space_group_symop_operation_xyz
x,y,z
-x,y,1/2-z
-x,-y,-z
x,-y,1/2+z
1/2+x,1/2+y,z
1/2-x,1/2+y,1/2-z
1/2-x,1/2-y,-z
1/2+x,1/2-y,1/2+z
loop_
_atom_site_type_symbol
_atom_site_label
_atom_site_fract_x
_atom_site_fract_y
_atom_site_fract_z
Si Si1 0.500000 0.219465 0.750000
Si Si2 0.071142 0.064127 0.823697
Si Si3 0.622155 0.304186 0.872964
Si Si4 0.250000 0.250000 0.500000
Si Si5 0.587486 0.962133 0.771754
Si Si6 0.675311 0.081638 0.447293
O O1 0.683769 0.327568 0.612004
O O2 0.559298 0.111455 0.757385
O O3 0.195895 0.192226 0.765574
O O4 0.076620 0.911266 0.854353
O O5 0.191752 0.027472 0.682395
O O6 0.858661 0.116970 0.958737
O O7 0.696168 0.407874 0.870263
O O8 0.440461 0.195563 0.009386
O O9 0.461636 0.173934 0.338351
O O10 0.481228 0.993662 0.905744
#
# Coordination Sequence:
#
# PCOD9299013 Si02
#       6
#     4   8   8   4   8   8
#     4  12  26  44  72 104 148 194 254 312 374 448
#     4  11  24  46  74 112 149 201 248 314 374 453
#     4  11  24  44  72 107 151 191 252 311 377 443
#     4  10  24  46  74 100 152 194 246 298 382 450
#     4  11  25  45  67 107 143 197 246 310 373 448
#     4  12  24  45  75 105 147 196 249 310 377 448
#
# _framework density 26.661269000000001
#
# number of rings (size 3 to 8) (size 9 to 14) (size 15 to 20)
#    0.000    0.800    2.000    4.800    0.000    4.000 
#    3.600    0.000    0.000    0.000    0.000    0.000 
#    0.000    0.000    0.000    0.000    0.000    0.000 
#
# Total GULP energy -111720.426736 kJ/mol
# GULP energy per Si atom -5586.021337 kJ/mol
# Density = 2.660059 g / cm^3
# Si number density = 26.661269 Si / 1000 Ang^3
#
#
#
# Elastic Constant Matrix: (Units=GPa)
#
#
# Indices 1 2 3 4 5 6 
#
# 1 91.6459 47.1787 51.4148 -0.0081 -14.9336 0.0035
# 2 47.1787 124.0744 41.9763 -0.0185 -15.0882 -0.0093
# 3 51.4148 41.9763 117.4654 -0.0214 -47.6997 0.0048
# 4 -0.0081 -0.0185 -0.0214 22.6131 -0.0010 20.5601
# 5 -14.9336 -15.0882 -47.6997 -0.0010 53.4542 0.0045
# 6 0.0035 -0.0093 0.0048 20.5601 0.0045 1.4546
#
#
#
# Elastic Compliance Matrix: (Units=1/GPa)
#
#
# Indices 1 2 3 4 5 6 
#
# 1 0.016483 -0.004306 -0.006743 -0.000002 -0.002627 -0.000002
# 2 -0.004306 0.010302 -0.001732 0.000006 0.000159 -0.000001
# 3 -0.006743 -0.001732 0.017439 -0.000008 0.013189 0.000024
# 4 -0.000002 0.000006 -0.000008 -0.003731 -0.000011 0.052742
# 5 -0.002627 0.000159 0.013189 -0.000011 0.029788 0.000026
# 6 -0.000002 -0.000001 0.000024 0.052742 0.000026 -0.058008
#
#
# Mechanical properties :
#
#
# Convention : Reuss Voigt Hill
#
# Bulk Modulus (GPa) = 53.58247 68.25835 60.92041
# Shear Modulus (GPa) = 113.49314 28.34543 70.91928
#
# Velocity S-wave (km/s) = 6.53154 3.26416 5.16313
# Velocity P-wave (km/s) = 8.77624 6.31379 7.64482
#
# Compressibility (1/GPa) = 0.01866282
#
# Stress axis : x y z
#
# Youngs Moduli (GPa) = 60.66901 97.06518 57.34180
#
# Poissons Ratio (x) = 0.41795 0.38665
# Poissons Ratio (y) = 0.26123 0.09933
# Poissons Ratio (z) = 0.40908 0.16813
#
# Static dielectric constant tensor:
#      x y z
#    x 2.179230 0.000090 0.019770 
#    y 0.000090 2.074660 0.000000 
#    z 0.019770 0.000000 1.977740 
# 
# From -- ./inp_files/317465.got.cif
#   From: 2010.05.17/outbox.cif.g08.bks.cpg/sg15_159_cif.got.tgz:317465.got - 2010.06.03 18:47:42.
