data_PCOD9299131
_publ_section_title
;
Structure prediction by ZEFSAII (Michael W. Deem and Ramdas Pophale) SiO2 
 PCOD9299131
Probable space group: C 2/C
;
_chemical_formula_sum "Si O2"
_cell_formula_units_Z 24
_cell_length_a 6.545909
_cell_length_b 13.041679
_cell_length_c 14.459619
_cell_angle_alpha 90.000000
_cell_angle_beta 55.774301
_cell_angle_gamma 90.000000
_cell_volume 1020.647307
_symmetry_space_group_name_H-M "C 2/C"
_symmetry_group_IT_number 15
_symmetry_cell_setting 'monoclinic'
loop_
_space_group_symop_operation_xyz
x,y,z
-x,y,1/2-z
-x,-y,-z
x,-y,1/2+z
1/2+x,1/2+y,z
1/2-x,1/2+y,1/2-z
1/2-x,1/2-y,-z
1/2+x,1/2-y,1/2+z
loop_
_atom_site_type_symbol
_atom_site_label
_atom_site_fract_x
_atom_site_fract_y
_atom_site_fract_z
Si Si1 0.278610 0.109353 0.644335
Si Si2 0.676088 0.668586 0.289887
Si Si3 0.140014 0.422262 0.589531
O O1 0.369761 0.219638 0.656889
O O2 0.273691 0.102436 0.534581
O O3 0.000000 0.092590 0.750000
O O4 0.476683 0.025221 0.628918
O O5 0.500000 0.644289 0.250000
O O6 0.662727 0.586989 0.377820
O O7 0.944792 0.663726 0.173248
#
# Coordination Sequence:
#
# PCOD9299131 Si02
#       3
#     8   8   8
#     4  11  23  46  77 101 140 189 230 289 344 411
#     4  11  24  43  72 103 144 179 230 287 347 411
#     4  10  24  47  69 108 138 182 240 277 350 415
#
# _framework density 23.514488
#
# number of rings (size 3 to 8) (size 9 to 14) (size 15 to 20)
#    0.000    1.333    3.333    2.000    4.667    1.333 
#    0.000   10.000    0.000    0.000    0.000    0.000 
#    0.000    0.000    0.000    0.000    0.000    0.000 
#
# Total GULP energy -67154.782310 kJ/mol
# GULP energy per Si atom -5596.231859 kJ/mol
# Density = 2.346097 g / cm^3
# Si number density = 23.514488 Si / 1000 Ang^3
#
#
#
# Elastic Constant Matrix: (Units=GPa)
#
#
# Indices 1 2 3 4 5 6 
#
# 1 112.0843 49.2354 73.4323 -0.0001 60.3517 0.0000
# 2 49.2354 128.3753 77.6136 0.0000 33.9440 0.0000
# 3 73.4323 77.6136 208.1362 0.0000 43.0837 0.0000
# 4 -0.0001 0.0000 0.0000 7.7349 0.0000 -1.5193
# 5 60.3517 33.9440 43.0837 0.0000 50.6428 0.0000
# 6 0.0000 0.0000 0.0000 -1.5193 0.0000 18.3935
#
#
#
# Elastic Compliance Matrix: (Units=1/GPa)
#
#
# Indices 1 2 3 4 5 6 
#
# 1 0.026847 -0.000733 -0.003250 0.000000 -0.028737 0.000000
# 2 -0.000733 0.010916 -0.003008 0.000000 -0.003884 0.000000
# 3 -0.003250 -0.003008 0.007105 0.000000 -0.000155 0.000000
# 4 0.000000 0.000000 0.000000 0.131416 0.000000 0.010855
# 5 -0.028737 -0.003884 -0.000155 0.000000 0.056729 0.000000
# 6 0.000000 0.000000 0.000000 0.010855 0.000000 0.055264
#
#
# Mechanical properties :
#
#
# Convention : Reuss Voigt Hill
#
# Bulk Modulus (GPa) = 32.37698 94.35092 63.36395
# Shear Modulus (GPa) = 15.99725 31.90855 23.95290
#
# Velocity S-wave (km/s) = 2.61111 3.68771 3.19508
# Velocity P-wave (km/s) = 4.78429 7.63832 6.37312
#
# Compressibility (1/GPa) = 0.03088615
#
# Stress axis : x y z
#
# Youngs Moduli (GPa) = 37.24866 91.60459 140.74632
#
# Poissons Ratio (x) = 0.06716 0.45739
# Poissons Ratio (y) = 0.02731 0.42337
# Poissons Ratio (z) = 0.12105 0.27555
#
# Static dielectric constant tensor:
#      x y z
#    x 2.130890 0.000000 0.046720 
#    y 0.000000 1.898350 0.000000 
#    z 0.046720 0.000000 1.844300 
# 
# From -- ./inp_files/127756.got.cif
#   From: 2010.05.17/outbox.cif.g08.bks.cpg/sg15_64_cif.got.tgz:127756.got - 2010.06.03 18:47:42.
