data_PCOD9299463
_publ_section_title
;
Structure prediction by ZEFSAII (Michael W. Deem and Ramdas Pophale) SiO2 
 PCOD9299463
Probable space group: C 2/C
;
_chemical_formula_sum "Si O2"
_cell_formula_units_Z 56
_cell_length_a 8.036134
_cell_length_b 14.696079
_cell_length_c 22.550685
_cell_angle_alpha 90.000000
_cell_angle_beta 121.490563
_cell_angle_gamma 90.000000
_cell_volume 2271.004523
_symmetry_space_group_name_H-M "C 2/C"
_symmetry_group_IT_number 15
_symmetry_cell_setting 'monoclinic'
loop_
_space_group_symop_operation_xyz
x,y,z
-x,y,1/2-z
-x,-y,-z
x,-y,1/2+z
1/2+x,1/2+y,z
1/2-x,1/2+y,1/2-z
1/2-x,1/2-y,-z
1/2+x,1/2-y,1/2+z
loop_
_atom_site_type_symbol
_atom_site_label
_atom_site_fract_x
_atom_site_fract_y
_atom_site_fract_z
Si Si1 0.703378 0.773386 0.095701
Si Si2 0.688966 0.486734 0.967810
Si Si3 0.732769 0.152484 0.280871
Si Si4 0.173192 0.215870 0.668704
Si Si5 0.587207 0.020977 0.599912
Si Si6 0.808109 0.964292 0.255234
Si Si7 0.055329 0.154447 0.532373
O O1 0.682157 0.716133 0.152078
O O2 0.612695 0.872862 0.087914
O O3 0.936332 0.779783 0.129060
O O4 0.602648 0.724236 0.021814
O O5 0.752611 0.474790 0.912286
O O6 0.534270 0.567082 0.949195
O O7 0.637134 0.392621 0.988899
O O8 0.881034 0.517191 0.040837
O O9 0.500000 0.146336 0.250000
O O10 0.756306 0.199416 0.220728
O O11 0.824414 0.052913 0.298592
O O12 0.233370 0.125734 0.715620
O O13 0.206438 0.202380 0.605071
O O14 0.634282 0.012892 0.677228
O O15 0.000000 0.948691 0.250000
#
# Coordination Sequence:
#
# PCOD9299463 Si02
#       7
#     8   8   8   8   8   8   8
#     4  11  22  40  67  95 130 178 215 275 328 405
#     4  10  25  41  64 100 127 174 221 270 329 402
#     4  10  25  42  66  97 131 171 231 266 332 401
#     4  11  22  45  66 100 129 181 218 275 337 405
#     4  11  23  43  65  92 137 176 218 267 340 401
#     4  12  23  42  69  93 131 179 216 276 331 398
#     4  11  24  41  70  96 134 168 228 280 325 391
#
# _framework density 24.65869
#
# number of rings (size 3 to 8) (size 9 to 14) (size 15 to 20)
#    0.000    1.143    4.286    0.857   10.000    1.714 
#    2.571    0.714    0.000    0.000    0.000    0.000 
#    0.000    0.000    0.000    0.000    0.000    0.000 
#
# Total GULP energy -156865.075885 kJ/mol
# GULP energy per Si atom -5602.324139 kJ/mol
# Density = 2.460257 g / cm^3
# Si number density = 24.658690 Si / 1000 Ang^3
#
#
#
# Elastic Constant Matrix: (Units=GPa)
#
#
# Indices 1 2 3 4 5 6 
#
# 1 36.0817 11.4386 6.6572 0.0000 1.3485 0.0000
# 2 11.4386 85.5349 8.2427 0.0000 -16.6794 0.0000
# 3 6.6572 8.2427 110.8914 0.0000 -10.6430 0.0000
# 4 0.0000 0.0000 0.0000 45.3620 0.0000 -3.2240
# 5 1.3485 -16.6794 -10.6430 0.0000 23.1619 0.0000
# 6 0.0000 0.0000 0.0000 -3.2240 0.0000 25.3246
#
#
#
# Elastic Compliance Matrix: (Units=1/GPa)
#
#
# Indices 1 2 3 4 5 6 
#
# 1 0.029920 -0.005034 -0.002027 0.000000 -0.006298 0.000000
# 2 -0.005034 0.014449 0.000267 0.000000 0.010820 0.000000
# 3 -0.002027 0.000267 0.009572 0.000000 0.004708 0.000000
# 4 0.000000 0.000000 0.000000 0.022246 0.000000 0.002832
# 5 -0.006298 0.010820 0.004708 0.000000 0.053497 0.000000
# 6 0.000000 0.000000 0.000000 0.002832 0.000000 0.039848
#
#
# Mechanical properties :
#
#
# Convention : Reuss Voigt Hill
#
# Bulk Modulus (GPa) = 24.78163 31.68723 28.23443
# Shear Modulus (GPa) = 25.43628 32.51432 28.97530
#
# Velocity S-wave (km/s) = 3.21523 3.63516 3.43163
# Velocity P-wave (km/s) = 4.88419 5.52244 5.21309
#
# Compressibility (1/GPa) = 0.04035247
#
# Stress axis : x y z
#
# Youngs Moduli (GPa) = 33.42230 69.21062 104.47630
#
# Poissons Ratio (x) = 0.34842 0.21172
# Poissons Ratio (y) = 0.16825 -0.02787
# Poissons Ratio (z) = 0.06773 -0.01846
#
# Static dielectric constant tensor:
#      x y z
#    x 1.997390 0.000000 -0.000880 
#    y 0.000000 1.887660 0.000000 
#    z -0.000880 0.000000 1.943030 
# 
# From -- ./inp_files/264810.got.cif
#   From: 2010.05.17/outbox.cif.g08.bks.cpg/sg15_133_cif.got.tgz:264810.got - 2010.06.03 18:47:42.
