data_PCOD9299459
_publ_section_title
;
Structure prediction by ZEFSAII (Michael W. Deem and Ramdas Pophale) SiO2 
 PCOD9299459
Probable space group: C 2/C
;
_chemical_formula_sum "Si O2"
_cell_formula_units_Z 40
_cell_length_a 12.086398
_cell_length_b 16.817184
_cell_length_c 9.167553
_cell_angle_alpha 90.000000
_cell_angle_beta 101.507092
_cell_angle_gamma 90.000000
_cell_volume 1825.935208
_symmetry_space_group_name_H-M "C 2/C"
_symmetry_group_IT_number 15
_symmetry_cell_setting 'monoclinic'
loop_
_space_group_symop_operation_xyz
x,y,z
-x,y,1/2-z
-x,-y,-z
x,-y,1/2+z
1/2+x,1/2+y,z
1/2-x,1/2+y,1/2-z
1/2-x,1/2-y,-z
1/2+x,1/2-y,1/2+z
loop_
_atom_site_type_symbol
_atom_site_label
_atom_site_fract_x
_atom_site_fract_y
_atom_site_fract_z
Si Si1 0.872423 0.512534 0.518060
Si Si2 0.602203 0.257744 0.098999
Si Si3 0.363237 0.727049 0.443240
Si Si4 0.290853 0.107417 0.227693
Si Si5 0.165410 0.669187 0.821264
O O1 0.798242 0.544955 0.362772
O O2 0.828614 0.434925 0.589408
O O3 0.868136 0.582660 0.636284
O O4 0.000000 0.500000 0.500000
O O5 0.625960 0.178873 0.200753
O O6 0.699186 0.321195 0.161963
O O7 0.473939 0.286417 0.067708
O O8 0.630665 0.229385 0.941391
O O9 0.250000 0.750000 0.500000
O O10 0.327221 0.651772 0.334521
O O11 0.387885 0.800562 0.341916
#
# Coordination Sequence:
#
# PCOD9299459 Si02
#       5
#     8   8   8   8   8
#     4  11  24  39  66  93 142 170 221 282 348 407
#     4   9  20  43  65  91 133 173 228 281 331 403
#     4  11  24  37  68  98 137 176 239 281 333 409
#     4  10  25  41  63 103 129 178 221 277 348 403
#     4   9  21  40  63  94 126 180 223 279 341 399
#
# _framework density 21.906583000000001
#
# number of rings (size 3 to 8) (size 9 to 14) (size 15 to 20)
#    0.000    2.000    0.000    2.400   11.200    5.600 
#    0.000    1.000    0.000    0.000    0.000    0.000 
#    0.000    0.000    0.000    0.000    0.000    0.000 
#
# Total GULP energy -111852.991262 kJ/mol
# GULP energy per Si atom -5592.649563 kJ/mol
# Density = 2.185672 g / cm^3
# Si number density = 21.906583 Si / 1000 Ang^3
#
#
#
# Elastic Constant Matrix: (Units=GPa)
#
#
# Indices 1 2 3 4 5 6 
#
# 1 138.4604 44.1593 38.4546 0.0000 29.2673 0.0000
# 2 44.1593 93.4637 48.0439 0.0000 -5.0676 0.0000
# 3 38.4546 48.0439 100.5485 0.0000 13.1655 0.0000
# 4 0.0000 0.0000 0.0000 60.9999 0.0000 -6.5920
# 5 29.2673 -5.0676 13.1655 0.0000 41.1143 0.0000
# 6 0.0000 0.0000 0.0000 -6.5920 0.0000 20.6783
#
#
#
# Elastic Compliance Matrix: (Units=1/GPa)
#
#
# Indices 1 2 3 4 5 6 
#
# 1 0.010768 -0.005249 -0.000545 0.000000 -0.008137 0.000000
# 2 -0.005249 0.017432 -0.007403 0.000000 0.008256 0.000000
# 3 -0.000545 -0.007403 0.014362 0.000000 -0.005124 0.000000
# 4 0.000000 0.000000 0.000000 0.016978 0.000000 0.005413
# 5 -0.008137 0.008256 -0.005124 0.000000 0.032773 0.000000
# 6 0.000000 0.000000 0.000000 0.005413 0.000000 0.050085
#
#
# Mechanical properties :
#
#
# Convention : Reuss Voigt Hill
#
# Bulk Modulus (GPa) = 61.84650 65.97646 63.91148
# Shear Modulus (GPa) = 28.70570 38.01282 33.35926
#
# Velocity S-wave (km/s) = 3.62383 4.17012 3.90654
# Velocity P-wave (km/s) = 6.76777 7.30542 7.04173
#
# Compressibility (1/GPa) = 0.01616906
#
# Stress axis : x y z
#
# Youngs Moduli (GPa) = 92.87135 57.36483 69.62847
#
# Poissons Ratio (x) = 0.30109 0.03792
# Poissons Ratio (y) = 0.48745 0.51546
# Poissons Ratio (z) = 0.05058 0.42468
#
# Static dielectric constant tensor:
#      x y z
#    x 1.817900 0.000000 -0.007030 
#    y 0.000000 1.805670 0.000000 
#    z -0.007030 0.000000 1.877650 
# 
# From -- ./inp_files/29315.got.cif
#   From: 2010.05.17/outbox.cif.g08.bks.cpg/sg15_15_cif.got.tgz:29315.got - 2010.06.03 18:47:42.
