data_PCOD9299107
_publ_section_title
;
Structure prediction by ZEFSAII (Michael W. Deem and Ramdas Pophale) SiO2 
 PCOD9299107
Probable space group: C 2/C
;
_chemical_formula_sum "Si O2"
_cell_formula_units_Z 32
_cell_length_a 15.103045
_cell_length_b 14.716475
_cell_length_c 8.963383
_cell_angle_alpha 90.000000
_cell_angle_beta 142.229826
_cell_angle_gamma 90.000000
_cell_volume 1220.234425
_symmetry_space_group_name_H-M "C 2/C"
_symmetry_group_IT_number 15
_symmetry_cell_setting 'monoclinic'
loop_
_space_group_symop_operation_xyz
x,y,z
-x,y,1/2-z
-x,-y,-z
x,-y,1/2+z
1/2+x,1/2+y,z
1/2-x,1/2+y,1/2-z
1/2-x,1/2-y,-z
1/2+x,1/2-y,1/2+z
loop_
_atom_site_type_symbol
_atom_site_label
_atom_site_fract_x
_atom_site_fract_y
_atom_site_fract_z
Si Si1 0.348582 0.771081 0.988993
Si Si2 0.912441 0.245890 0.769620
Si Si3 0.500000 0.471683 0.750000
Si Si4 0.500000 0.075937 0.250000
Si Si5 0.282114 0.548261 0.210714
O O1 0.396332 0.705497 0.915117
O O2 0.273484 0.854983 0.809596
O O3 0.500000 0.805073 0.250000
O O4 0.250000 0.750000 0.000000
O O5 0.750000 0.250000 0.500000
O O6 0.000000 0.198659 0.750000
O O7 0.980344 0.348405 0.856005
O O8 0.393408 0.515035 0.483446
O O9 0.624890 0.430402 0.812838
O O10 0.644141 0.016722 0.481312
#
# Coordination Sequence:
#
# PCOD9299107 Si02
#       5
#     8   8   4   4   8
#     4  12  27  46  74 109 151 200 251 320 378 448
#     4  10  24  48  71 108 149 200 249 304 380 454
#     4  10  26  44  72 112 152 192 238 328 378 444
#     4  10  24  46  88 104 148 204 258 312 370 456
#     4  11  24  49  74 113 149 194 258 310 382 448
#
# _framework density 26.224467000000001
#
# number of rings (size 3 to 8) (size 9 to 14) (size 15 to 20)
#    0.750    0.500    1.250    3.000    5.250    2.000 
#   22.500    0.000    0.000    0.000    0.000    0.000 
#    0.000    0.000    0.000    0.000    0.000    0.000 
#
# Total GULP energy -89143.462164 kJ/mol
# GULP energy per Si atom -5571.466385 kJ/mol
# Density = 2.616478 g / cm^3
# Si number density = 26.224467 Si / 1000 Ang^3
#
#
#
# Elastic Constant Matrix: (Units=GPa)
#
#
# Indices 1 2 3 4 5 6 
#
# 1 276.4327 34.8419 44.6372 0.0000 -11.4649 0.0000
# 2 34.8419 83.9133 36.0657 0.0000 10.1351 0.0000
# 3 44.6372 36.0657 137.3565 0.0000 18.9738 0.0000
# 4 0.0000 0.0000 0.0000 39.6436 0.0000 14.5545
# 5 -11.4649 10.1351 18.9738 0.0000 62.2641 0.0000
# 6 0.0000 0.0000 0.0000 14.5545 0.0000 18.6964
#
#
#
# Elastic Compliance Matrix: (Units=1/GPa)
#
#
# Indices 1 2 3 4 5 6 
#
# 1 0.004024 -0.001340 -0.001136 0.000000 0.001305 0.000000
# 2 -0.001340 0.013960 -0.003009 0.000000 -0.001602 0.000000
# 3 -0.001136 -0.003009 0.008770 0.000000 -0.002392 0.000000
# 4 0.000000 0.000000 0.000000 0.035319 0.000000 -0.027494
# 5 0.001305 -0.001602 -0.002392 0.000000 0.017291 0.000000
# 6 0.000000 0.000000 0.000000 -0.027494 0.000000 0.074890
#
#
# Mechanical properties :
#
#
# Convention : Reuss Voigt Hill
#
# Bulk Modulus (GPa) = 63.35452 80.97690 72.16571
# Shear Modulus (GPa) = 29.32813 49.59801 39.46307
#
# Velocity S-wave (km/s) = 3.34780 4.35361 3.88341
# Velocity P-wave (km/s) = 6.25737 7.49782 6.90551
#
# Compressibility (1/GPa) = 0.01578419
#
# Stress axis : x y z
#
# Youngs Moduli (GPa) = 248.50719 71.63242 114.02596
#
# Poissons Ratio (x) = 0.09600 0.12955
# Poissons Ratio (y) = 0.33304 0.34307
# Poissons Ratio (z) = 0.28233 0.21552
#
# Static dielectric constant tensor:
#      x y z
#    x 2.261080 0.000000 -0.040250 
#    y 0.000000 2.104690 0.000000 
#    z -0.040250 0.000000 2.022420 
# 
# From -- ./inp_files/40492.got.cif
#   From: 2010.05.17/outbox.cif.g08.bks.cpg/sg15_21_cif.got.tgz:40492.got - 2010.06.03 18:47:42.
