data_PCOD9299683
_publ_section_title
;
Structure prediction by ZEFSAII (Michael W. Deem and Ramdas Pophale) SiO2 
 PCOD9299683
Probable space group: C 2/C
;
_chemical_formula_sum "Si O2"
_cell_formula_units_Z 44
_cell_length_a 17.922889
_cell_length_b 8.695158
_cell_length_c 24.293190
_cell_angle_alpha 90.000000
_cell_angle_beta 25.329588
_cell_angle_gamma 90.000000
_cell_volume 1619.704825
_symmetry_space_group_name_H-M "C 2/C"
_symmetry_group_IT_number 15
_symmetry_cell_setting 'monoclinic'
loop_
_space_group_symop_operation_xyz
x,y,z
-x,y,1/2-z
-x,-y,-z
x,-y,1/2+z
1/2+x,1/2+y,z
1/2-x,1/2+y,1/2-z
1/2-x,1/2-y,-z
1/2+x,1/2-y,1/2+z
loop_
_atom_site_type_symbol
_atom_site_label
_atom_site_fract_x
_atom_site_fract_y
_atom_site_fract_z
Si Si1 0.000000 0.574864 0.750000
Si Si2 0.640605 0.402221 0.006141
Si Si3 0.332583 0.392924 0.383590
Si Si4 0.183422 0.816976 0.686147
Si Si5 0.053775 0.637632 0.921826
Si Si6 0.197369 0.933555 0.801374
O O1 0.179482 0.483021 0.630743
O O2 0.029085 0.697019 0.779728
O O3 0.632517 0.438638 0.076920
O O4 0.472616 0.456084 0.084018
O O5 0.667514 0.218076 0.988076
O O6 0.500000 0.301274 0.250000
O O7 0.327257 0.535498 0.346416
O O8 0.375938 0.763741 0.537842
O O9 0.185153 0.865008 0.747891
O O10 0.191395 0.778127 0.842364
O O11 0.134176 0.543425 0.816476
O O12 0.000000 0.500000 0.000000
#
# Coordination Sequence:
#
# PCOD9299683 Si02
#       6
#     4   8   8   8   8   8
#     4  12  22  38  68 108 130 176 228 286 352 424
#     4  11  24  39  67 100 141 181 228 279 357 421
#     4  11  22  41  63 101 139 177 215 288 355 417
#     4  11  23  41  67  96 139 169 226 289 350 411
#     4  10  25  45  67  98 136 179 236 290 346 408
#     4  11  23  46  68  96 132 187 230 288 348 410
#
# _framework density 27.165444000000001
#
# number of rings (size 3 to 8) (size 9 to 14) (size 15 to 20)
#    0.000    1.091    5.455    0.000    5.091    1.455 
#    0.000    7.273    0.000    0.000    0.000    0.000 
#    0.000    0.000    0.000    0.000    0.000    0.000 
#
# Total GULP energy -122882.054567 kJ/mol
# GULP energy per Si atom -5585.547935 kJ/mol
# Density = 2.710361 g / cm^3
# Si number density = 27.165444 Si / 1000 Ang^3
#
#
#
# Elastic Constant Matrix: (Units=GPa)
#
#
# Indices 1 2 3 4 5 6 
#
# 1 84.3546 31.0812 4.3283 -0.0002 15.3208 0.0001
# 2 31.0812 129.7848 37.9257 0.0012 0.4434 0.0003
# 3 4.3283 37.9257 94.5768 0.0016 -16.2977 0.0009
# 4 -0.0002 0.0012 0.0016 37.4961 0.0001 -14.2107
# 5 15.3208 0.4434 -16.2977 0.0001 38.0510 -0.0001
# 6 0.0001 0.0003 0.0009 -14.2107 -0.0001 63.6999
#
#
#
# Elastic Compliance Matrix: (Units=1/GPa)
#
#
# Indices 1 2 3 4 5 6 
#
# 1 0.014127 -0.003265 -0.000336 0.000000 -0.005794 0.000000
# 2 -0.003265 0.009589 -0.003767 0.000000 -0.000410 0.000000
# 3 -0.000336 -0.003767 0.013097 -0.000001 0.005788 0.000000
# 4 0.000000 0.000000 -0.000001 0.029133 0.000000 0.006499
# 5 -0.005794 -0.000410 0.005788 0.000000 0.031097 0.000000
# 6 0.000000 0.000000 0.000000 0.006499 0.000000 0.017148
#
#
# Mechanical properties :
#
#
# Convention : Reuss Voigt Hill
#
# Bulk Modulus (GPa) = 45.29342 50.59850 47.94596
# Shear Modulus (GPa) = 36.68756 43.54148 40.11452
#
# Velocity S-wave (km/s) = 3.67893 4.00787 3.84692
# Velocity P-wave (km/s) = 5.89537 6.33118 6.11716
#
# Compressibility (1/GPa) = 0.02207826
#
# Stress axis : x y z
#
# Youngs Moduli (GPa) = 70.78430 104.28474 76.35550
#
# Poissons Ratio (x) = 0.34054 0.02562
# Poissons Ratio (y) = 0.23114 0.28759
# Poissons Ratio (z) = 0.02375 0.39279
#
# Static dielectric constant tensor:
#      x y z
#    x 2.146490 0.000000 -0.096200 
#    y 0.000000 2.166940 0.000000 
#    z -0.096200 0.000000 2.278710 
# 
# From -- ./inp_files/116238.got.cif
#   From: 2010.05.17/outbox.cif.g08.bks.cpg/sg15_59_cif.got.tgz:116238.got - 2010.06.03 18:47:42.
