data_PCOD9299377
_publ_section_title
;
Structure prediction by ZEFSAII (Michael W. Deem and Ramdas Pophale) SiO2 
 PCOD9299377
Probable space group: C 2/C
;
_chemical_formula_sum "Si O2"
_cell_formula_units_Z 56
_cell_length_a 19.092118
_cell_length_b 6.951996
_cell_length_c 18.101319
_cell_angle_alpha 90.000000
_cell_angle_beta 50.493802
_cell_angle_gamma 90.000000
_cell_volume 1853.707339
_symmetry_space_group_name_H-M "C 2/C"
_symmetry_group_IT_number 15
_symmetry_cell_setting 'monoclinic'
loop_
_space_group_symop_operation_xyz
x,y,z
-x,y,1/2-z
-x,-y,-z
x,-y,1/2+z
1/2+x,1/2+y,z
1/2-x,1/2+y,1/2-z
1/2-x,1/2-y,-z
1/2+x,1/2-y,1/2+z
loop_
_atom_site_type_symbol
_atom_site_label
_atom_site_fract_x
_atom_site_fract_y
_atom_site_fract_z
Si Si1 0.098192 0.019721 0.968113
Si Si2 0.226356 0.513839 0.749345
Si Si3 0.579874 0.221389 0.768024
Si Si4 0.942083 0.084777 0.845669
Si Si5 0.561113 0.947231 0.030429
Si Si6 0.284224 0.706471 0.849987
Si Si7 0.810101 0.434528 0.436879
O O1 0.174845 0.984230 0.855349
O O2 0.086384 0.894814 0.050520
O O3 0.105180 0.239824 0.985881
O O4 0.000000 0.000000 0.000000
O O5 0.176414 0.698168 0.745235
O O6 0.224594 0.562848 0.837454
O O7 0.175152 0.325514 0.749638
O O8 0.521121 0.417924 0.804954
O O9 0.652400 0.580152 0.638018
O O10 0.517886 0.080053 0.856580
O O11 0.890757 0.655092 0.832666
O O12 0.000000 0.219690 0.750000
O O13 0.643740 0.035320 0.023709
O O14 0.500000 0.000000 0.000000
O O15 0.268686 0.896074 0.913343
O O16 0.750000 0.250000 0.500000
#
# Coordination Sequence:
#
# PCOD9299377 Si02
#       7
#     8   8   8   8   8   8   8
#     4  11  26  48  79 120 179 232 299 376 468 546
#     4  11  27  51  81 127 175 239 300 385 458 563
#     4  10  24  49  81 118 174 233 301 368 463 542
#     4  11  25  48  84 124 171 243 302 373 462 549
#     4  11  25  44  76 120 167 225 295 371 444 537
#     4  11  28  49  87 122 176 230 307 365 469 549
#     4  11  25  53  83 125 174 236 296 376 457 559
#
# _framework density 30.209731999999999
#
# number of rings (size 3 to 8) (size 9 to 14) (size 15 to 20)
#    0.000    1.143    0.000    4.714   12.000    2.857 
#    0.000    2.857    0.000    0.000    0.000    0.000 
#    0.000    0.000    0.000    0.000    0.000    0.000 
#
# Total GULP energy -156158.329942 kJ/mol
# GULP energy per Si atom -5577.083212 kJ/mol
# Density = 3.014097 g / cm^3
# Si number density = 30.209732 Si / 1000 Ang^3
#
#
#
# Elastic Constant Matrix: (Units=GPa)
#
#
# Indices 1 2 3 4 5 6 
#
# 1 274.3016 58.8726 88.4368 -0.0006 59.3752 0.0008
# 2 58.8726 128.8868 40.8093 0.0011 29.9471 0.0007
# 3 88.4368 40.8093 223.0681 0.0002 35.9461 -0.0002
# 4 -0.0006 0.0011 0.0002 25.8451 -0.0001 5.8408
# 5 59.3752 29.9471 35.9461 -0.0001 68.6300 -0.0001
# 6 0.0008 0.0007 -0.0002 5.8408 -0.0001 61.2310
#
#
#
# Elastic Compliance Matrix: (Units=1/GPa)
#
#
# Indices 1 2 3 4 5 6 
#
# 1 0.004978 -0.001144 -0.001257 0.000000 -0.003149 0.000000
# 2 -0.001144 0.009134 -0.000802 0.000000 -0.002575 0.000000
# 3 -0.001257 -0.000802 0.005348 0.000000 -0.001364 0.000000
# 4 0.000000 0.000000 0.000000 0.039545 0.000000 -0.003772
# 5 -0.003149 -0.002575 -0.001364 0.000000 0.019133 0.000000
# 6 0.000000 0.000000 0.000000 -0.003772 0.000000 0.016691
#
#
# Mechanical properties :
#
#
# Convention : Reuss Voigt Hill
#
# Bulk Modulus (GPa) = 76.61101 111.38821 93.99961
# Shear Modulus (GPa) = 47.35444 60.35040 53.85242
#
# Velocity S-wave (km/s) = 3.96349 4.47443 4.22669
# Velocity P-wave (km/s) = 6.80885 7.97782 7.41641
#
# Compressibility (1/GPa) = 0.01305295
#
# Stress axis : x y z
#
# Youngs Moduli (GPa) = 200.88066 109.48286 186.99602
#
# Poissons Ratio (x) = 0.12527 0.23501
# Poissons Ratio (y) = 0.22985 0.15004
# Poissons Ratio (z) = 0.25246 0.08784
#
# Static dielectric constant tensor:
#      x y z
#    x 2.276080 0.000010 -0.084950 
#    y 0.000010 2.470310 0.000000 
#    z -0.084950 0.000000 2.455260 
# 
# From -- ./inp_files/251823.got.cif
#   From: 2010.05.17/outbox.cif.g08.bks.cpg/sg15_126_cif.got.tgz:251823.got - 2010.06.03 18:47:42.
