data_PCOD9299846
_publ_section_title
;
Structure prediction by ZEFSAII (Michael W. Deem and Ramdas Pophale) SiO2 
 PCOD9299846
Probable space group: C 2/C
;
_chemical_formula_sum "Si O2"
_cell_formula_units_Z 40
_cell_length_a 16.943211
_cell_length_b 12.145048
_cell_length_c 16.060508
_cell_angle_alpha 90.000000
_cell_angle_beta 150.917263
_cell_angle_gamma 90.000000
_cell_volume 1606.404535
_symmetry_space_group_name_H-M "C 2/C"
_symmetry_group_IT_number 15
_symmetry_cell_setting 'monoclinic'
loop_
_space_group_symop_operation_xyz
x,y,z
-x,y,1/2-z
-x,-y,-z
x,-y,1/2+z
1/2+x,1/2+y,z
1/2-x,1/2+y,1/2-z
1/2-x,1/2-y,-z
1/2+x,1/2-y,1/2+z
loop_
_atom_site_type_symbol
_atom_site_label
_atom_site_fract_x
_atom_site_fract_y
_atom_site_fract_z
Si Si1 0.506150 0.483251 0.105164
Si Si2 0.991676 0.591060 0.836150
Si Si3 0.173924 0.389256 0.753742
Si Si4 0.810882 0.186386 0.200993
Si Si5 0.356524 0.689712 0.669409
O O1 0.537218 0.603749 0.170642
O O2 0.660094 0.407887 0.277212
O O3 0.500000 0.500000 0.000000
O O4 0.329597 0.428165 0.951806
O O5 0.000000 0.545412 0.750000
O O6 0.943138 0.493784 0.854037
O O7 0.864325 0.689790 0.733537
O O8 0.165406 0.645707 0.010153
O O9 0.240926 0.338117 0.729701
O O10 0.085180 0.291148 0.720144
O O11 0.500000 0.635022 0.750000
O O12 0.250000 0.750000 0.500000
#
# Coordination Sequence:
#
# PCOD9299846 Si02
#       5
#     8   8   8   8   8
#     4  10  25  47  70 105 147 194 243 303 377 454
#     4  12  27  47  71 108 142 190 247 316 379 444
#     4  11  26  45  74 101 147 192 248 305 378 457
#     4  11  27  45  76  99 144 195 250 300 377 468
#     4  12  26  44  74 110 148 190 246 320 382 444
#
# _framework density 24.900327000000001
#
# number of rings (size 3 to 8) (size 9 to 14) (size 15 to 20)
#    0.000    0.800    2.000    3.000   16.800    0.800 
#    0.000    0.000    0.000    0.000    0.000    0.000 
#    0.000    0.000    0.000    0.000    0.000    0.000 
#
# Total GULP energy -111566.408952 kJ/mol
# GULP energy per Si atom -5578.320448 kJ/mol
# Density = 2.484365 g / cm^3
# Si number density = 24.900327 Si / 1000 Ang^3
#
#
#
# Elastic Constant Matrix: (Units=GPa)
#
#
# Indices 1 2 3 4 5 6 
#
# 1 83.6103 22.8406 19.6362 0.0003 -9.6857 0.0000
# 2 22.8406 116.3960 -17.1129 0.0001 -2.2833 0.0000
# 3 19.6362 -17.1129 62.8434 0.0003 -14.0052 -0.0001
# 4 0.0003 0.0001 0.0003 125.6381 0.0003 -2.5426
# 5 -9.6857 -2.2833 -14.0052 0.0003 32.3333 0.0000
# 6 0.0000 0.0000 -0.0001 -2.5426 0.0000 41.0335
#
#
#
# Elastic Compliance Matrix: (Units=1/GPa)
#
#
# Indices 1 2 3 4 5 6 
#
# 1 0.014312 -0.003509 -0.005011 0.000000 0.001869 0.000000
# 2 -0.003509 0.009913 0.004115 0.000000 0.001431 0.000000
# 3 -0.005011 0.004115 0.020287 0.000000 0.007577 0.000000
# 4 0.000000 0.000000 0.000000 0.007969 0.000000 0.000494
# 5 0.001869 0.001431 0.007577 0.000000 0.034871 0.000000
# 6 0.000000 0.000000 0.000000 0.000494 0.000000 0.024401
#
#
# Mechanical properties :
#
#
# Convention : Reuss Voigt Hill
#
# Bulk Modulus (GPa) = 28.00903 34.84195 31.42549
# Shear Modulus (GPa) = 37.74619 55.63338 46.68978
#
# Velocity S-wave (km/s) = 3.89767 4.73191 4.33490
# Velocity P-wave (km/s) = 5.61504 6.62401 6.14028
#
# Compressibility (1/GPa) = 0.03570278
#
# Stress axis : x y z
#
# Youngs Moduli (GPa) = 69.87128 100.87904 49.29181
#
# Poissons Ratio (x) = 0.35394 0.24699
# Poissons Ratio (y) = 0.24514 -0.20282
# Poissons Ratio (z) = 0.35011 -0.41508
#
# Static dielectric constant tensor:
#      x y z
#    x 2.713640 0.000000 -0.163530 
#    y 0.000000 2.032610 0.000000 
#    z -0.163530 0.000000 2.104880 
# 
# From -- ./inp_files/210806.got.cif
#   From: 2010.05.17/outbox.cif.g08.bks.cpg/sg15_106_cif.got.tgz:210806.got - 2010.06.03 18:47:42.
