data_PCOD9299512
_publ_section_title
;
Structure prediction by ZEFSAII (Michael W. Deem and Ramdas Pophale) SiO2 
 PCOD9299512
Probable space group: C 2/C
;
_chemical_formula_sum "Si O2"
_cell_formula_units_Z 56
_cell_length_a 5.422306
_cell_length_b 18.150328
_cell_length_c 31.105796
_cell_angle_alpha 90.000000
_cell_angle_beta 62.690661
_cell_angle_gamma 90.000000
_cell_volume 2720.119646
_symmetry_space_group_name_H-M "C 2/C"
_symmetry_group_IT_number 15
_symmetry_cell_setting 'monoclinic'
loop_
_space_group_symop_operation_xyz
x,y,z
-x,y,1/2-z
-x,-y,-z
x,-y,1/2+z
1/2+x,1/2+y,z
1/2-x,1/2+y,1/2-z
1/2-x,1/2-y,-z
1/2+x,1/2-y,1/2+z
loop_
_atom_site_type_symbol
_atom_site_label
_atom_site_fract_x
_atom_site_fract_y
_atom_site_fract_z
Si Si1 0.593195 0.624244 0.602709
Si Si2 0.859202 0.712376 0.948205
Si Si3 0.115515 0.605721 0.098187
Si Si4 0.328571 0.350890 0.719286
Si Si5 0.017859 0.033223 0.137586
Si Si6 0.748812 0.238330 0.367211
Si Si7 0.557653 0.582203 0.511228
O O1 0.545506 0.554636 0.636827
O O2 0.323643 0.675814 0.630682
O O3 0.669243 0.585203 0.550802
O O4 0.828700 0.686915 0.585239
O O5 0.777634 0.767620 0.916457
O O6 0.750000 0.750000 0.000000
O O7 0.707166 0.633551 0.960907
O O8 0.327511 0.562752 0.112872
O O9 0.262361 0.619028 0.040744
O O10 0.835931 0.560549 0.110276
O O11 0.992073 0.681145 0.127701
O O12 0.500000 0.352094 0.750000
O O13 0.384361 0.427206 0.689523
O O14 0.475544 0.288132 0.678541
O O15 0.000000 0.339419 0.750000
O O16 0.500000 0.500000 0.500000
#
# Coordination Sequence:
#
# PCOD9299512 Si02
#       7
#     8   8   8   8   8   8   8
#     4  11  24  40  64 100 144 184 225 285 344 398
#     4  11  24  38  64  99 143 187 233 273 332 408
#     4  11  23  40  66  98 136 192 230 270 322 410
#     4  11  25  48  78 101 124 171 236 287 351 428
#     4  11  25  43  71  98 135 175 226 289 351 401
#     4  10  25  42  68  99 136 180 222 288 344 408
#     4  11  22  36  57  96 137 187 235 262 318 394
#
# _framework density 20.587327999999999
#
# number of rings (size 3 to 8) (size 9 to 14) (size 15 to 20)
#    0.000    1.143    1.429    4.286   14.000    3.429 
#    0.000    0.714    0.000    0.000    0.000    0.000 
#    0.000    0.000    0.000    0.000    0.000    0.000 
#
# Total GULP energy -156103.951780 kJ/mol
# GULP energy per Si atom -5575.141135 kJ/mol
# Density = 2.054047 g / cm^3
# Si number density = 20.587328 Si / 1000 Ang^3
#
#
#
# Elastic Constant Matrix: (Units=GPa)
#
#
# Indices 1 2 3 4 5 6 
#
# 1 109.1569 35.0789 45.3212 0.0000 -8.3983 0.0000
# 2 35.0789 113.3399 37.5949 0.0000 -4.9358 0.0000
# 3 45.3212 37.5949 109.9391 0.0000 -12.6366 0.0000
# 4 0.0000 0.0000 0.0000 29.0796 0.0000 0.2728
# 5 -8.3983 -4.9358 -12.6366 0.0000 33.7577 0.0000
# 6 0.0000 0.0000 0.0000 0.2728 0.0000 16.5480
#
#
#
# Elastic Compliance Matrix: (Units=1/GPa)
#
#
# Indices 1 2 3 4 5 6 
#
# 1 0.011579 -0.002250 -0.003877 0.000000 0.001100 0.000000
# 2 -0.002250 0.010390 -0.002628 0.000000 -0.000024 0.000000
# 3 -0.003877 -0.002628 0.011952 0.000000 0.003125 0.000000
# 4 0.000000 0.000000 0.000000 0.034394 0.000000 -0.000567
# 5 0.001100 -0.000024 0.003125 0.000000 0.031063 0.000000
# 6 0.000000 0.000000 0.000000 -0.000567 0.000000 0.060440
#
#
# Mechanical properties :
#
#
# Convention : Reuss Voigt Hill
#
# Bulk Modulus (GPa) = 60.93763 63.15840 62.04801
# Shear Modulus (GPa) = 27.35258 30.17311 28.76284
#
# Velocity S-wave (km/s) = 3.64897 3.83249 3.74185
# Velocity P-wave (km/s) = 6.88601 7.09428 6.99092
#
# Compressibility (1/GPa) = 0.01641022
#
# Stress axis : x y z
#
# Youngs Moduli (GPa) = 86.36647 96.24594 83.66502
#
# Poissons Ratio (x) = 0.21651 0.32441
# Poissons Ratio (y) = 0.19428 0.21991
# Poissons Ratio (z) = 0.33488 0.25298
#
# Static dielectric constant tensor:
#      x y z
#    x 1.828580 0.000000 -0.105310 
#    y 0.000000 1.001230 0.000000 
#    z -0.105310 0.000000 1.288480 
# 
# From -- ./inp_files/305757.got.cif
#   From: 2010.05.17/outbox.cif.g08.bks.cpg/sg15_153_cif.got.tgz:305757.got - 2010.06.03 18:47:42.
