data_PCOD9299505
_publ_section_title
;
Structure prediction by ZEFSAII (Michael W. Deem and Ramdas Pophale) SiO2 
 PCOD9299505
Probable space group: C 2/C
;
_chemical_formula_sum "Si O2"
_cell_formula_units_Z 40
_cell_length_a 7.693698
_cell_length_b 20.177419
_cell_length_c 19.889569
_cell_angle_alpha 90.000000
_cell_angle_beta 138.399624
_cell_angle_gamma 90.000000
_cell_volume 2049.977740
_symmetry_space_group_name_H-M "C 2/C"
_symmetry_group_IT_number 15
_symmetry_cell_setting 'monoclinic'
loop_
_space_group_symop_operation_xyz
x,y,z
-x,y,1/2-z
-x,-y,-z
x,-y,1/2+z
1/2+x,1/2+y,z
1/2-x,1/2+y,1/2-z
1/2-x,1/2-y,-z
1/2+x,1/2-y,1/2+z
loop_
_atom_site_type_symbol
_atom_site_label
_atom_site_fract_x
_atom_site_fract_y
_atom_site_fract_z
Si Si1 0.352059 0.871977 0.269296
Si Si2 0.016297 0.900184 0.830211
Si Si3 0.610488 0.180079 0.965908
Si Si4 0.000000 0.027972 0.750000
Si Si5 0.607961 0.267235 0.387991
Si Si6 0.000000 0.651466 0.250000
O O1 0.500000 0.904071 0.250000
O O2 0.582464 0.845189 0.382846
O O3 0.201773 0.925087 0.270836
O O4 0.157748 0.811707 0.189814
O O5 0.000000 0.868403 0.750000
O O6 0.743217 0.890900 0.791317
O O7 0.093218 0.975634 0.834018
O O8 0.230995 0.865397 0.937610
O O9 0.318483 0.189302 0.908601
O O10 0.750000 0.250000 0.000000
O O11 0.750000 0.250000 0.500000
O O12 0.571694 0.200878 0.332686
#
# Coordination Sequence:
#
# PCOD9299505 Si02
#       6
#     8   8   8   4   8   4
#     4  12  25  46  68 100 139 182 224 284 339 401
#     4  10  25  42  67  97 135 178 231 280 328 402
#     4  12  21  42  68 103 137 172 222 286 349 407
#     4  10  25  50  64  94 139 186 238 272 324 414
#     4  12  23  40  70 103 142 171 220 283 354 406
#     4  12  21  44  66 102 137 172 226 280 350 408
#
# _framework density 19.512407
#
# number of rings (size 3 to 8) (size 9 to 14) (size 15 to 20)
#    0.600    0.000    6.000    2.400    1.400    2.400 
#    0.000    1.000    0.000    0.000    0.000    0.000 
#    0.000    0.000    0.000    0.000    0.000    0.000 
#
# Total GULP energy -111512.355051 kJ/mol
# GULP energy per Si atom -5575.617753 kJ/mol
# Density = 1.946800 g / cm^3
# Si number density = 19.512407 Si / 1000 Ang^3
#
#
#
# Elastic Constant Matrix: (Units=GPa)
#
#
# Indices 1 2 3 4 5 6 
#
# 1 126.7548 36.1472 17.8598 0.0000 -7.1260 -0.0001
# 2 36.1472 104.2487 45.4737 0.0000 -13.4801 0.0000
# 3 17.8598 45.4737 109.6369 -0.0001 -20.2209 -0.0001
# 4 0.0000 0.0000 -0.0001 24.9654 0.0000 -14.4287
# 5 -7.1260 -13.4801 -20.2209 0.0000 28.9543 0.0000
# 6 -0.0001 0.0000 -0.0001 -14.4287 0.0000 20.7319
#
#
#
# Elastic Compliance Matrix: (Units=1/GPa)
#
#
# Indices 1 2 3 4 5 6 
#
# 1 0.008773 -0.002908 -0.000085 0.000000 0.000745 0.000000
# 2 -0.002908 0.012818 -0.004447 0.000000 0.002146 0.000000
# 3 -0.000085 -0.004447 0.012160 0.000000 0.006401 0.000000
# 4 0.000000 0.000000 0.000000 0.067008 0.000000 0.046635
# 5 0.000745 0.002146 0.006401 0.000000 0.040190 0.000000
# 6 0.000000 0.000000 0.000000 0.046635 0.000000 0.080691
#
#
# Mechanical properties :
#
#
# Convention : Reuss Voigt Hill
#
# Bulk Modulus (GPa) = 52.99510 59.95575 56.47542
# Shear Modulus (GPa) = 20.59219 31.00763 25.79991
#
# Velocity S-wave (km/s) = 3.25212 3.99071 3.64019
# Velocity P-wave (km/s) = 6.42809 7.21304 6.83185
#
# Compressibility (1/GPa) = 0.01886967
#
# Stress axis : x y z
#
# Youngs Moduli (GPa) = 113.99239 78.01450 82.23756
#
# Poissons Ratio (x) = 0.22688 0.00702
# Poissons Ratio (y) = 0.33151 0.36570
# Poissons Ratio (z) = 0.00973 0.34692
#
# Static dielectric constant tensor:
#      x y z
#    x 1.548160 0.000000 0.157120 
#    y 0.000000 1.718710 0.000000 
#    z 0.157120 0.000000 1.509310 
# 
# From -- ./inp_files/232966.got.cif
#   From: 2010.05.17/outbox.cif.g08.bks.cpg/sg15_117_cif.got.tgz:232966.got - 2010.06.03 18:47:42.
