data_PCOD9299256
_publ_section_title
;
Structure prediction by ZEFSAII (Michael W. Deem and Ramdas Pophale) SiO2 
 PCOD9299256
Probable space group: C 2/C
;
_chemical_formula_sum "Si O2"
_cell_formula_units_Z 52
_cell_length_a 25.216850
_cell_length_b 10.918770
_cell_length_c 9.410581
_cell_angle_alpha 90.000000
_cell_angle_beta 117.577488
_cell_angle_gamma 90.000000
_cell_volume 2296.696743
_symmetry_space_group_name_H-M "C 2/C"
_symmetry_group_IT_number 15
_symmetry_cell_setting 'monoclinic'
loop_
_space_group_symop_operation_xyz
x,y,z
-x,y,1/2-z
-x,-y,-z
x,-y,1/2+z
1/2+x,1/2+y,z
1/2-x,1/2+y,1/2-z
1/2-x,1/2-y,-z
1/2+x,1/2-y,1/2+z
loop_
_atom_site_type_symbol
_atom_site_label
_atom_site_fract_x
_atom_site_fract_y
_atom_site_fract_z
Si Si1 0.331841 0.269591 0.724932
Si Si2 0.437865 0.627749 0.169486
Si Si3 0.426730 0.382137 0.321731
Si Si4 0.213273 0.370547 0.588403
Si Si5 0.500000 0.824743 0.750000
Si Si6 0.126968 0.404576 0.976676
Si Si7 0.687859 0.750979 0.838933
O O1 0.385738 0.307210 0.690364
O O2 0.285144 0.380367 0.694575
O O3 0.297584 0.168691 0.587147
O O4 0.355491 0.206426 0.896186
O O5 0.500000 0.701328 0.250000
O O6 0.448260 0.503684 0.271325
O O7 0.424723 0.604539 0.988504
O O8 0.468667 0.268438 0.324461
O O9 0.358560 0.356982 0.188452
O O10 0.167454 0.479226 0.566073
O O11 0.198981 0.265046 0.685880
O O12 0.445092 0.905484 0.620207
O O13 0.151672 0.367944 0.852404
O O14 0.750000 0.750000 0.000000
#
# Coordination Sequence:
#
# PCOD9299256 Si02
#       7
#     8   8   8   8   4   8   8
#     4  11  25  44  71 104 142 179 236 303 345 422
#     4  12  25  42  71 103 137 182 228 293 354 416
#     4  11  25  43  69 101 139 181 234 286 357 411
#     4  11  24  47  68 103 141 180 239 290 360 419
#     4  10  24  48  70 104 148 188 242 286 346 440
#     4  11  24  45  74 100 141 193 232 288 356 424
#     4  11  23  44  66  99 137 177 229 290 348 421
#
# _framework density 22.641214999999999
#
# number of rings (size 3 to 8) (size 9 to 14) (size 15 to 20)
#    0.000    0.923    3.846    2.308    6.462    0.000 
#    1.385    3.846    0.000    0.000    0.000    0.000 
#    0.000    0.000    0.000    0.000    0.000    0.000 
#
# Total GULP energy -145138.974950 kJ/mol
# GULP energy per Si atom -5582.268267 kJ/mol
# Density = 2.258968 g / cm^3
# Si number density = 22.641215 Si / 1000 Ang^3
#
#
#
# Elastic Constant Matrix: (Units=GPa)
#
#
# Indices 1 2 3 4 5 6 
#
# 1 172.9786 37.8409 51.2069 0.0000 23.7455 0.0000
# 2 37.8409 43.9371 16.7190 0.0000 11.9470 0.0000
# 3 51.2069 16.7190 112.8263 0.0000 2.9830 0.0000
# 4 0.0000 0.0000 0.0000 24.9437 0.0000 0.9105
# 5 23.7455 11.9470 2.9830 0.0000 59.8834 0.0000
# 6 0.0000 0.0000 0.0000 0.9105 0.0000 28.1700
#
#
#
# Elastic Compliance Matrix: (Units=1/GPa)
#
#
# Indices 1 2 3 4 5 6 
#
# 1 0.008051 -0.005323 -0.002813 0.000000 -0.001991 0.000000
# 2 -0.005323 0.028999 -0.001787 0.000000 -0.003586 0.000000
# 3 -0.002813 -0.001787 0.010379 0.000000 0.000955 0.000000
# 4 0.000000 0.000000 0.000000 0.040138 0.000000 -0.001297
# 5 -0.001991 -0.003586 0.000955 0.000000 0.018156 0.000000
# 6 0.000000 0.000000 0.000000 -0.001297 0.000000 0.035541
#
#
# Mechanical properties :
#
#
# Convention : Reuss Voigt Hill
#
# Bulk Modulus (GPa) = 36.25116 60.14172 48.19644
# Shear Modulus (GPa) = 29.35937 37.53110 33.44524
#
# Velocity S-wave (km/s) = 3.60491 4.07584 3.84758
# Velocity P-wave (km/s) = 5.77694 6.98359 6.40873
#
# Compressibility (1/GPa) = 0.02758533
#
# Stress axis : x y z
#
# Youngs Moduli (GPa) = 124.20220 34.48417 96.34561
#
# Poissons Ratio (x) = 0.18355 0.27100
# Poissons Ratio (y) = 0.66109 0.17213
# Poissons Ratio (z) = 0.34936 0.06161
#
# Static dielectric constant tensor:
#      x y z
#    x 1.882890 0.000000 0.073000 
#    y 0.000000 1.863390 0.000000 
#    z 0.073000 0.000000 1.861240 
# 
# From -- ./inp_files/65604.got.cif
#   From: 2010.05.17/outbox.cif.g08.bks.cpg/sg15_33_cif.got.tgz:65604.got - 2010.06.03 18:47:42.
