data_PCOD9299195
_publ_section_title
;
Structure prediction by ZEFSAII (Michael W. Deem and Ramdas Pophale) SiO2 
 PCOD9299195
Probable space group: C 2/C
;
_chemical_formula_sum "Si O2"
_cell_formula_units_Z 32
_cell_length_a 5.136338
_cell_length_b 18.238899
_cell_length_c 13.914403
_cell_angle_alpha 90.000000
_cell_angle_beta 91.987198
_cell_angle_gamma 90.000000
_cell_volume 1302.733339
_symmetry_space_group_name_H-M "C 2/C"
_symmetry_group_IT_number 15
_symmetry_cell_setting 'monoclinic'
loop_
_space_group_symop_operation_xyz
x,y,z
-x,y,1/2-z
-x,-y,-z
x,-y,1/2+z
1/2+x,1/2+y,z
1/2-x,1/2+y,1/2-z
1/2-x,1/2-y,-z
1/2+x,1/2-y,1/2+z
loop_
_atom_site_type_symbol
_atom_site_label
_atom_site_fract_x
_atom_site_fract_y
_atom_site_fract_z
Si Si1 0.888640 0.935244 0.064251
Si Si2 0.730347 0.056457 0.181332
Si Si3 0.000000 0.268832 0.250000
Si Si4 0.500000 0.367843 0.250000
Si Si5 0.098746 0.815718 0.943520
O O1 0.069451 0.912746 0.155718
O O2 0.675667 0.979003 0.125257
O O3 0.881271 0.859692 0.003678
O O4 0.000000 0.000000 0.000000
O O5 0.500000 0.073238 0.250000
O O6 0.731479 0.117037 0.096682
O O7 0.000000 0.056679 0.250000
O O8 0.250616 0.317888 0.234505
O O9 0.004427 0.219833 0.344471
O O10 0.250000 0.750000 0.000000
#
# Coordination Sequence:
#
# PCOD9299195 Si02
#       5
#     8   8   4   4   8
#     4  10  24  47  75 111 148 198 254 308 379 450
#     4  11  25  48  77 107 151 197 247 311 375 445
#     4  12  28  47  76 111 154 196 248 316 382 450
#     4  12  26  49  74 109 154 196 252 316 374 450
#     4  11  24  50  77 115 151 200 253 315 383 455
#
# _framework density 24.563739000000002
#
# number of rings (size 3 to 8) (size 9 to 14) (size 15 to 20)
#    0.000    1.000    5.000    0.000    3.500    1.000 
#    9.000    7.500    0.000    0.000    0.000    0.000 
#    0.000    0.000    0.000    0.000    0.000    0.000 
#
# Total GULP energy -89213.123009 kJ/mol
# GULP energy per Si atom -5575.820188 kJ/mol
# Density = 2.450783 g / cm^3
# Si number density = 24.563739 Si / 1000 Ang^3
#
#
#
# Elastic Constant Matrix: (Units=GPa)
#
#
# Indices 1 2 3 4 5 6 
#
# 1 100.3695 39.2601 26.6230 0.0000 -10.9258 0.0000
# 2 39.2601 181.8999 80.4839 0.0000 10.4353 0.0000
# 3 26.6230 80.4839 177.6248 0.0000 5.0280 0.0000
# 4 0.0000 0.0000 0.0000 353.9696 0.0000 95.4089
# 5 -10.9258 10.4353 5.0280 0.0000 26.2805 0.0000
# 6 0.0000 0.0000 0.0000 95.4089 0.0000 48.6837
#
#
#
# Elastic Compliance Matrix: (Units=1/GPa)
#
#
# Indices 1 2 3 4 5 6 
#
# 1 0.011834 -0.002554 -0.000789 0.000000 0.006085 0.000000
# 2 -0.002554 0.007550 -0.002939 0.000000 -0.003498 0.000000
# 3 -0.000789 -0.002939 0.007094 0.000000 -0.000518 0.000000
# 4 0.000000 0.000000 0.000000 0.005988 0.000000 -0.011736
# 5 0.006085 -0.003498 -0.000518 0.000000 0.042069 0.000000
# 6 0.000000 0.000000 0.000000 -0.011736 0.000000 0.043540
#
#
# Mechanical properties :
#
#
# Convention : Reuss Voigt Hill
#
# Bulk Modulus (GPa) = 71.86864 83.62536 77.74700
# Shear Modulus (GPa) = 36.96106 106.68859 71.82482
#
# Velocity S-wave (km/s) = 3.88325 6.59755 5.41329
# Velocity P-wave (km/s) = 7.03049 9.59974 8.41376
#
# Compressibility (1/GPa) = 0.01391427
#
# Stress axis : x y z
#
# Youngs Moduli (GPa) = 84.50334 132.45156 140.95528
#
# Poissons Ratio (x) = 0.33832 0.11115
# Poissons Ratio (y) = 0.21585 0.41428
# Poissons Ratio (z) = 0.06663 0.38929
#
# Static dielectric constant tensor:
#      x y z
#    x 2.503310 0.000000 0.317070 
#    y 0.000000 2.120990 0.000000 
#    z 0.317070 0.000000 2.101620 
# 
# From -- ./inp_files/128367.got.cif
#   From: 2010.05.17/outbox.cif.g08.bks.cpg/sg15_65_cif.got.tgz:128367.got - 2010.06.03 18:47:42.
