data_PCOD9299591
_publ_section_title
;
Structure prediction by ZEFSAII (Michael W. Deem and Ramdas Pophale) SiO2 
 PCOD9299591
Probable space group: C 2/C
;
_chemical_formula_sum "Si O2"
_cell_formula_units_Z 36
_cell_length_a 28.237470
_cell_length_b 11.537301
_cell_length_c 14.222203
_cell_angle_alpha 90.000000
_cell_angle_beta 19.720284
_cell_angle_gamma 90.000000
_cell_volume 1563.430898
_symmetry_space_group_name_H-M "C 2/C"
_symmetry_group_IT_number 15
_symmetry_cell_setting 'monoclinic'
loop_
_space_group_symop_operation_xyz
x,y,z
-x,y,1/2-z
-x,-y,-z
x,-y,1/2+z
1/2+x,1/2+y,z
1/2-x,1/2+y,1/2-z
1/2-x,1/2-y,-z
1/2+x,1/2-y,1/2+z
loop_
_atom_site_type_symbol
_atom_site_label
_atom_site_fract_x
_atom_site_fract_y
_atom_site_fract_z
Si Si1 0.820975 0.126951 0.387904
Si Si2 0.812338 0.248210 0.988996
Si Si3 0.374753 0.440365 0.154968
Si Si4 0.213978 0.005691 0.361406
Si Si5 0.500000 0.093509 0.250000
O O1 0.750000 0.250000 0.500000
O O2 0.774269 0.016584 0.410958
O O3 0.808605 0.095764 0.520154
O O4 0.987509 0.112302 0.053459
O O5 0.698916 0.329000 0.252350
O O6 0.803930 0.122080 0.046065
O O7 0.750000 0.250000 0.000000
O O8 0.952597 0.319640 0.753322
O O9 0.391780 0.515271 0.029489
O O10 0.370837 0.985903 0.026366
#
# Coordination Sequence:
#
# PCOD9299591 Si02
#       5
#     8   8   8   8   4
#     4  11  25  42  72 102 141 183 234 294 356 423
#     4  11  24  45  72  97 139 188 231 298 353 416
#     4  10  25  44  64 107 135 184 240 285 359 425
#     4  11  25  46  68 100 144 183 232 292 352 422
#     4  10  28  44  68 108 140 190 240 286 364 422
#
# _framework density 23.02628
#
# number of rings (size 3 to 8) (size 9 to 14) (size 15 to 20)
#    0.000    1.333    2.222    0.667   12.444    4.444 
#    0.000    0.000    0.000    0.000    0.000    0.000 
#    0.000    0.000    0.000    0.000    0.000    0.000 
#
# Total GULP energy -100241.125557 kJ/mol
# GULP energy per Si atom -5568.951420 kJ/mol
# Density = 2.297387 g / cm^3
# Si number density = 23.026280 Si / 1000 Ang^3
#
#
#
# Elastic Constant Matrix: (Units=GPa)
#
#
# Indices 1 2 3 4 5 6 
#
# 1 151.7090 45.5936 11.5731 0.0000 4.1505 0.0000
# 2 45.5936 136.5201 37.4769 0.0000 -15.3178 0.0000
# 3 11.5731 37.4769 74.1510 0.0000 -5.9208 0.0000
# 4 0.0000 0.0000 0.0000 30.8422 0.0000 -3.1224
# 5 4.1505 -15.3178 -5.9208 0.0000 37.6958 0.0000
# 6 0.0000 0.0000 0.0000 -3.1224 0.0000 40.3649
#
#
#
# Elastic Compliance Matrix: (Units=1/GPa)
#
#
# Indices 1 2 3 4 5 6 
#
# 1 0.007458 -0.002722 0.000059 0.000000 -0.001918 0.000000
# 2 -0.002722 0.009804 -0.004242 0.000000 0.003617 0.000000
# 3 0.000059 -0.004242 0.015679 0.000000 0.000733 0.000000
# 4 0.000000 0.000000 0.000000 0.032679 0.000000 0.002528
# 5 -0.001918 0.003617 0.000733 0.000000 0.028324 0.000000
# 6 0.000000 0.000000 0.000000 0.002528 0.000000 0.024970
#
#
# Mechanical properties :
#
#
# Convention : Reuss Voigt Hill
#
# Bulk Modulus (GPa) = 52.27053 61.29637 56.78345
# Shear Modulus (GPa) = 35.94525 39.62969 37.78747
#
# Velocity S-wave (km/s) = 3.95530 4.15307 4.05539
# Velocity P-wave (km/s) = 6.60370 7.04807 6.82950
#
# Compressibility (1/GPa) = 0.01913124
#
# Stress axis : x y z
#
# Youngs Moduli (GPa) = 134.09159 101.99705 63.77931
#
# Poissons Ratio (x) = 0.27763 -0.00374
# Poissons Ratio (y) = 0.36498 0.27052
# Poissons Ratio (z) = -0.00786 0.43262
#
# Static dielectric constant tensor:
#      x y z
#    x 2.231210 0.000000 -0.075840 
#    y 0.000000 1.933590 0.000000 
#    z -0.075840 0.000000 1.978590 
# 
# From -- ./inp_files/141988.got.cif
#   From: 2010.05.17/outbox.cif.g08.bks.cpg/sg15_71_cif.got.tgz:141988.got - 2010.06.03 18:47:42.
