data_PCOD9299619
_publ_section_title
;
Structure prediction by ZEFSAII (Michael W. Deem and Ramdas Pophale) SiO2 
 PCOD9299619
Probable space group: C 2/C
;
_chemical_formula_sum "Si O2"
_cell_formula_units_Z 64
_cell_length_a 18.943129
_cell_length_b 10.662682
_cell_length_c 15.010669
_cell_angle_alpha 90.000000
_cell_angle_beta 84.857318
_cell_angle_gamma 90.000000
_cell_volume 3019.718581
_symmetry_space_group_name_H-M "C 2/C"
_symmetry_group_IT_number 15
_symmetry_cell_setting 'monoclinic'
loop_
_space_group_symop_operation_xyz
x,y,z
-x,y,1/2-z
-x,-y,-z
x,-y,1/2+z
1/2+x,1/2+y,z
1/2-x,1/2+y,1/2-z
1/2-x,1/2-y,-z
1/2+x,1/2-y,1/2+z
loop_
_atom_site_type_symbol
_atom_site_label
_atom_site_fract_x
_atom_site_fract_y
_atom_site_fract_z
Si Si1 0.930687 0.321187 0.570421
Si Si2 0.052353 0.338943 0.135344
Si Si3 0.191776 0.041891 0.313052
Si Si4 0.420599 0.883478 0.866728
Si Si5 0.771075 0.605151 0.478302
Si Si6 0.893645 0.277506 0.197065
Si Si7 0.302790 0.988099 0.656475
Si Si8 0.575716 0.648913 0.771922
O O1 0.919988 0.319940 0.466627
O O2 0.869279 0.403318 0.621681
O O3 0.931364 0.192207 0.624734
O O4 0.008671 0.373407 0.582359
O O5 0.071618 0.476410 0.172330
O O6 0.088798 0.248589 0.202065
O O7 0.967953 0.320485 0.146642
O O8 0.231276 0.030566 0.403348
O O9 0.136423 0.151603 0.340042
O O10 0.252781 0.076670 0.234844
O O11 0.146399 0.933823 0.268828
O O12 0.352347 0.883774 0.936760
O O13 0.417907 0.772322 0.793572
O O14 0.750000 0.750000 0.500000
O O15 0.764178 0.527672 0.569935
O O16 0.834264 0.383144 0.192591
O O17 0.500000 0.589830 0.750000
#
# Coordination Sequence:
#
# PCOD9299619 Si02
#       8
#     8   8   8   8   8   8   8   8
#     4  11  22  40  70 102 131 170 233 293 342 404
#     4  11  22  40  71 101 130 165 235 303 342 392
#     4  12  28  46  65  98 146 184 228 283 345 428
#     4  11  21  43  68 102 136 173 231 290 340 413
#     4  12  24  42  70 101 137 185 233 278 347 417
#     4  11  25  42  67  96 134 176 228 286 351 401
#     4  12  24  43  69 103 136 180 225 287 356 406
#     4  10  25  44  68  94 140 189 225 278 357 419
#
# _framework density 21.194026999999998
#
# number of rings (size 3 to 8) (size 9 to 14) (size 15 to 20)
#    0.000    0.750    3.750    4.125    7.000    1.000 
#    0.000    1.875    0.000    0.000    0.000    0.000 
#    0.000    0.000    0.000    0.000    0.000    0.000 
#
# Total GULP energy -178701.512817 kJ/mol
# GULP energy per Si atom -5584.422276 kJ/mol
# Density = 2.114579 g / cm^3
# Si number density = 21.194027 Si / 1000 Ang^3
#
#
#
# Elastic Constant Matrix: (Units=GPa)
#
#
# Indices 1 2 3 4 5 6 
#
# 1 91.0769 26.7974 39.1351 0.0000 4.6076 0.0000
# 2 26.7974 25.3095 12.4258 0.0000 -0.2458 0.0000
# 3 39.1351 12.4258 123.8952 0.0000 9.8762 0.0000
# 4 0.0000 0.0000 0.0000 14.7584 0.0000 8.2418
# 5 4.6076 -0.2458 9.8762 0.0000 28.2047 0.0000
# 6 0.0000 0.0000 0.0000 8.2418 0.0000 29.2795
#
#
#
# Elastic Compliance Matrix: (Units=1/GPa)
#
#
# Indices 1 2 3 4 5 6 
#
# 1 0.017632 -0.016848 -0.003743 0.000000 -0.001717 0.000000
# 2 -0.016848 0.057752 -0.000751 0.000000 0.003519 0.000000
# 3 -0.003743 -0.000751 0.009547 0.000000 -0.002738 0.000000
# 4 0.000000 0.000000 0.000000 0.080396 0.000000 -0.022630
# 5 -0.001717 0.003519 -0.002738 0.000000 0.036725 0.000000
# 6 0.000000 0.000000 0.000000 -0.022630 0.000000 0.040524
#
#
# Mechanical properties :
#
#
# Convention : Reuss Voigt Hill
#
# Bulk Modulus (GPa) = 23.66968 44.11091 33.89030
# Shear Modulus (GPa) = 16.70336 25.24339 20.97337
#
# Velocity S-wave (km/s) = 2.81039 3.45492 3.14919
# Velocity P-wave (km/s) = 4.66083 6.06411 5.40818
#
# Compressibility (1/GPa) = 0.04224814
#
# Stress axis : x y z
#
# Youngs Moduli (GPa) = 56.71538 17.31550 104.74273
#
# Poissons Ratio (x) = 0.29172 0.39204
# Poissons Ratio (y) = 0.95551 0.07865
# Poissons Ratio (z) = 0.21228 0.01300
#
# Static dielectric constant tensor:
#      x y z
#    x 1.796370 0.000000 0.035910 
#    y 0.000000 1.815850 0.000000 
#    z 0.035910 0.000000 1.759380 
# 
# From -- ./inp_files/161345.got.cif
#   From: 2010.05.17/outbox.cif.g08.bks.cpg/sg15_81_cif.got.tgz:161345.got - 2010.06.03 18:47:42.
