data_PCOD9299204
_publ_section_title
;
Structure prediction by ZEFSAII (Michael W. Deem and Ramdas Pophale) SiO2 
 PCOD9299204
Probable space group: C 2/C
;
_chemical_formula_sum "Si O2"
_cell_formula_units_Z 32
_cell_length_a 4.818689
_cell_length_b 18.694841
_cell_length_c 13.341430
_cell_angle_alpha 90.000000
_cell_angle_beta 85.140921
_cell_angle_gamma 90.000000
_cell_volume 1197.538295
_symmetry_space_group_name_H-M "C 2/C"
_symmetry_group_IT_number 15
_symmetry_cell_setting 'monoclinic'
loop_
_space_group_symop_operation_xyz
x,y,z
-x,y,1/2-z
-x,-y,-z
x,-y,1/2+z
1/2+x,1/2+y,z
1/2-x,1/2+y,1/2-z
1/2-x,1/2-y,-z
1/2+x,1/2-y,1/2+z
loop_
_atom_site_type_symbol
_atom_site_label
_atom_site_fract_x
_atom_site_fract_y
_atom_site_fract_z
Si Si1 0.000000 0.735257 0.250000
Si Si2 0.000000 0.860825 0.750000
Si Si3 0.249546 0.417643 0.177186
Si Si4 0.712377 0.551202 0.433376
Si Si5 0.826080 0.820905 0.435448
O O1 0.768837 0.684777 0.207997
O O2 0.818581 0.784397 0.327464
O O3 0.080668 0.905430 0.845349
O O4 0.500000 0.434807 0.250000
O O5 0.120902 0.489087 0.129254
O O6 0.372606 0.360755 0.093088
O O7 0.000000 0.388539 0.250000
O O8 0.500000 0.500000 0.500000
O O9 0.824509 0.612374 0.504752
O O10 0.750000 0.750000 0.500000
#
# Coordination Sequence:
#
# PCOD9299204 Si02
#       5
#     4   4   8   8   8
#     4  12  28  47  78 109 162 200 260 326 396 470
#     4  12  26  49  74 113 152 204 256 326 392 460
#     4  11  25  48  77 108 154 202 257 322 390 461
#     4  10  24  47  77 112 151 205 261 325 387 472
#     4  11  24  50  76 115 154 207 261 320 399 470
#
# _framework density 26.721482999999999
#
# number of rings (size 3 to 8) (size 9 to 14) (size 15 to 20)
#    0.000    1.000    5.000    0.000    3.500    1.000 
#    9.000    7.500    0.000    0.000    0.000    0.000 
#    0.000    0.000    0.000    0.000    0.000    0.000 
#
# Total GULP energy -89178.604226 kJ/mol
# GULP energy per Si atom -5573.662764 kJ/mol
# Density = 2.666066 g / cm^3
# Si number density = 26.721483 Si / 1000 Ang^3
#
#
#
# Elastic Constant Matrix: (Units=GPa)
#
#
# Indices 1 2 3 4 5 6 
#
# 1 104.3119 63.0820 40.1601 0.0000 -1.4046 0.0000
# 2 63.0820 246.8813 83.4481 0.0000 2.3187 0.0000
# 3 40.1601 83.4481 152.7643 0.0000 -20.6227 0.0000
# 4 0.0000 0.0000 0.0000 69.0887 0.0000 -15.5351
# 5 -1.4046 2.3187 -20.6227 0.0000 33.0661 0.0000
# 6 0.0000 0.0000 0.0000 -15.5351 0.0000 71.2970
#
#
#
# Elastic Compliance Matrix: (Units=1/GPa)
#
#
# Indices 1 2 3 4 5 6 
#
# 1 0.011724 -0.002363 -0.001858 0.000000 -0.000495 0.000000
# 2 -0.002363 0.005599 -0.002734 0.000000 -0.002198 0.000000
# 3 -0.001858 -0.002734 0.009329 0.000000 0.005931 0.000000
# 4 0.000000 0.000000 0.000000 0.015220 0.000000 0.003316
# 5 -0.000495 -0.002198 0.005931 0.000000 0.034075 0.000000
# 6 0.000000 0.000000 0.000000 0.003316 0.000000 0.014748
#
#
# Mechanical properties :
#
#
# Convention : Reuss Voigt Hill
#
# Bulk Modulus (GPa) = 78.48362 97.48201 87.98281
# Shear Modulus (GPa) = 45.93351 55.84151 50.88751
#
# Velocity S-wave (km/s) = 4.15055 4.57635 4.36864
# Velocity P-wave (km/s) = 7.23907 8.03019 7.64487
#
# Compressibility (1/GPa) = 0.01274151
#
# Stress axis : x y z
#
# Youngs Moduli (GPa) = 85.29207 178.60017 107.19598
#
# Poissons Ratio (x) = 0.42203 0.19920
# Poissons Ratio (y) = 0.20155 0.29308
# Poissons Ratio (z) = 0.15850 0.48831
#
# Static dielectric constant tensor:
#      x y z
#    x 2.700110 0.000000 0.291140 
#    y 0.000000 2.157050 0.000000 
#    z 0.291140 0.000000 2.367560 
# 
# From -- ./inp_files/128359.got.cif
#   From: 2010.05.17/outbox.cif.g08.bks.cpg/sg15_65_cif.got.tgz:128359.got - 2010.06.03 18:47:42.
