data_PCOD9299694
_publ_section_title
;
Structure prediction by ZEFSAII (Michael W. Deem and Ramdas Pophale) SiO2 
 PCOD9299694
Probable space group: C 2/C
;
_chemical_formula_sum "Si O2"
_cell_formula_units_Z 24
_cell_length_a 10.039213
_cell_length_b 18.400923
_cell_length_c 9.966486
_cell_angle_alpha 90.000000
_cell_angle_beta 147.960048
_cell_angle_gamma 90.000000
_cell_volume 976.731739
_symmetry_space_group_name_H-M "C 2/C"
_symmetry_group_IT_number 15
_symmetry_cell_setting 'monoclinic'
loop_
_space_group_symop_operation_xyz
x,y,z
-x,y,1/2-z
-x,-y,-z
x,-y,1/2+z
1/2+x,1/2+y,z
1/2-x,1/2+y,1/2-z
1/2-x,1/2-y,-z
1/2+x,1/2-y,1/2+z
loop_
_atom_site_type_symbol
_atom_site_label
_atom_site_fract_x
_atom_site_fract_y
_atom_site_fract_z
Si Si1 0.651977 0.705863 0.264523
Si Si2 0.437401 0.388040 0.049374
Si Si3 0.650205 0.965345 0.252337
O O1 0.500000 0.659855 0.250000
O O2 0.921576 0.737551 0.539371
O O3 0.710119 0.664181 0.176157
O O4 0.500000 0.359938 0.250000
O O5 0.686280 0.404126 0.177453
O O6 0.306497 0.466870 0.947345
O O7 0.500000 0.935464 0.250000
O O8 0.500000 0.000000 0.000000
#
# Coordination Sequence:
#
# PCOD9299694 Si02
#       3
#     8   8   8
#     4  10  25  45  68  97 131 176 226 275 335 397
#     4  11  25  41  65 100 130 172 224 274 331 398
#     4  11  24  41  65  97 136 172 213 272 336 400
#
# _framework density 24.571739999999998
#
# number of rings (size 3 to 8) (size 9 to 14) (size 15 to 20)
#    0.000    1.333    3.333    0.000    9.333    2.667 
#    0.000    0.000    0.000    0.000    0.000    0.000 
#    0.000    0.000    0.000    0.000    0.000    0.000 
#
# Total GULP energy -67067.772739 kJ/mol
# GULP energy per Si atom -5588.981062 kJ/mol
# Density = 2.451581 g / cm^3
# Si number density = 24.571740 Si / 1000 Ang^3
#
#
#
# Elastic Constant Matrix: (Units=GPa)
#
#
# Indices 1 2 3 4 5 6 
#
# 1 158.9776 19.9425 31.2872 0.0000 -16.4165 0.0000
# 2 19.9425 27.0755 22.6258 0.0000 1.2094 0.0001
# 3 31.2872 22.6258 108.4403 0.0012 -10.0430 0.0003
# 4 0.0000 0.0000 0.0012 45.3566 0.0002 -13.9770
# 5 -16.4165 1.2094 -10.0430 0.0002 46.9053 0.0000
# 6 0.0000 0.0001 0.0003 -13.9770 0.0000 34.2776
#
#
#
# Elastic Compliance Matrix: (Units=1/GPa)
#
#
# Indices 1 2 3 4 5 6 
#
# 1 0.007320 -0.004761 -0.000887 0.000000 0.002495 0.000000
# 2 -0.004761 0.048311 -0.009157 0.000000 -0.004873 0.000000
# 3 -0.000887 -0.009157 0.011612 0.000000 0.002412 0.000000
# 4 0.000000 0.000000 0.000000 0.025216 0.000000 0.010282
# 5 0.002495 -0.004873 0.002412 0.000000 0.022835 0.000000
# 6 0.000000 0.000000 0.000000 0.010282 0.000000 0.033366
#
#
# Mechanical properties :
#
#
# Convention : Reuss Voigt Hill
#
# Bulk Modulus (GPa) = 26.57453 49.13381 37.85417
# Shear Modulus (GPa) = 26.20345 40.01710 33.11027
#
# Velocity S-wave (km/s) = 3.26913 4.03995 3.67481
# Velocity P-wave (km/s) = 5.00881 6.46537 5.78313
#
# Compressibility (1/GPa) = 0.03763001
#
# Stress axis : x y z
#
# Youngs Moduli (GPa) = 136.61776 20.69934 86.11967
#
# Poissons Ratio (x) = 0.09855 0.07643
# Poissons Ratio (y) = 0.65046 0.78864
# Poissons Ratio (z) = 0.12124 0.18955
#
# Static dielectric constant tensor:
#      x y z
#    x 2.122000 0.000000 0.030600 
#    y 0.000000 2.002410 0.000000 
#    z 0.030600 0.000000 2.077290 
# 
# From -- ./inp_files/79659.got.cif
#   From: 2010.05.17/outbox.cif.g08.bks.cpg/sg15_40_cif.got.tgz:79659.got - 2010.06.03 18:47:42.
