data_PCOD9299068
_publ_section_title
;
Structure prediction by ZEFSAII (Michael W. Deem and Ramdas Pophale) SiO2 
 PCOD9299068
Probable space group: C 2/C
;
_chemical_formula_sum "Si O2"
_cell_formula_units_Z 44
_cell_length_a 8.536499
_cell_length_b 11.594877
_cell_length_c 20.163533
_cell_angle_alpha 90.000000
_cell_angle_beta 60.520177
_cell_angle_gamma 90.000000
_cell_volume 1737.384086
_symmetry_space_group_name_H-M "C 2/C"
_symmetry_group_IT_number 15
_symmetry_cell_setting 'monoclinic'
loop_
_space_group_symop_operation_xyz
x,y,z
-x,y,1/2-z
-x,-y,-z
x,-y,1/2+z
1/2+x,1/2+y,z
1/2-x,1/2+y,1/2-z
1/2-x,1/2-y,-z
1/2+x,1/2-y,1/2+z
loop_
_atom_site_type_symbol
_atom_site_label
_atom_site_fract_x
_atom_site_fract_y
_atom_site_fract_z
Si Si1 0.627939 0.924356 0.785006
Si Si2 0.423816 0.372666 0.520915
Si Si3 0.500000 0.319723 0.750000
Si Si4 0.162667 0.476151 0.415466
Si Si5 0.864786 0.792806 0.911158
Si Si6 0.912859 0.241285 0.896614
O O1 0.500000 0.960927 0.750000
O O2 0.844326 0.899206 0.746457
O O3 0.597295 0.010387 0.853602
O O4 0.549238 0.796756 0.817865
O O5 0.500000 0.500000 0.500000
O O6 0.453851 0.320147 0.586434
O O7 0.214042 0.348088 0.554212
O O8 0.512807 0.301731 0.442122
O O9 0.415073 0.244396 0.828117
O O10 0.286132 0.584837 0.406132
O O11 0.286649 0.363498 0.399502
O O12 0.000000 0.500000 0.500000
O O13 0.750000 0.750000 0.000000
#
# Coordination Sequence:
#
# PCOD9299068 Si02
#       6
#     8   8   4   8   8   8
#     4  11  25  48  79 107 161 213 262 335 410 481
#     4  11  21  39  71 110 147 201 256 316 395 467
#     4  10  24  46  76 114 158 206 268 334 398 486
#     4  11  23  43  76 112 152 204 266 326 402 481
#     4  11  22  42  74 105 152 202 259 329 392 474
#     4  11  23  44  72 111 155 206 268 329 396 481
#
# _framework density 25.325430999999998
#
# number of rings (size 3 to 8) (size 9 to 14) (size 15 to 20)
#    0.000    1.091    1.818    6.545    0.000    0.000 
#    6.545    0.000   26.000    0.000    0.000    0.000 
#    0.000    0.000    0.000    0.000    0.000    0.000 
#
# Total GULP energy -122608.373446 kJ/mol
# GULP energy per Si atom -5573.107884 kJ/mol
# Density = 2.526779 g / cm^3
# Si number density = 25.325431 Si / 1000 Ang^3
#
#
#
# Elastic Constant Matrix: (Units=GPa)
#
#
# Indices 1 2 3 4 5 6 
#
# 1 139.3795 44.9048 81.1612 0.0000 33.0402 0.0000
# 2 44.9048 103.0648 28.7426 0.0000 3.0846 0.0000
# 3 81.1612 28.7426 173.7013 0.0000 33.8797 0.0000
# 4 0.0000 0.0000 0.0000 29.6822 0.0000 11.8150
# 5 33.0402 3.0846 33.8797 0.0000 64.9467 0.0000
# 6 0.0000 0.0000 0.0000 11.8150 0.0000 57.6160
#
#
#
# Elastic Compliance Matrix: (Units=1/GPa)
#
#
# Indices 1 2 3 4 5 6 
#
# 1 0.011654 -0.003824 -0.004110 0.000000 -0.003603 0.000000
# 2 -0.003824 0.011438 -0.000423 0.000000 0.001622 0.000000
# 3 -0.004110 -0.000423 0.008166 0.000000 -0.002149 0.000000
# 4 0.000000 0.000000 0.000000 0.036685 0.000000 -0.007523
# 5 -0.003603 0.001622 -0.002149 0.000000 0.018274 0.000000
# 6 0.000000 0.000000 0.000000 -0.007523 0.000000 0.018899
#
#
# Mechanical properties :
#
#
# Convention : Reuss Voigt Hill
#
# Bulk Modulus (GPa) = 68.74555 80.64032 74.69294
# Shear Modulus (GPa) = 39.47072 47.87145 43.67109
#
# Velocity S-wave (km/s) = 3.95212 4.35242 4.15709
# Velocity P-wave (km/s) = 6.93033 7.56101 7.25253
#
# Compressibility (1/GPa) = 0.01454640
#
# Stress axis : x y z
#
# Youngs Moduli (GPa) = 85.80952 87.42942 122.45359
#
# Poissons Ratio (x) = 0.33429 0.50325
# Poissons Ratio (y) = 0.32809 0.05174
# Poissons Ratio (z) = 0.35265 0.03694
#
# Static dielectric constant tensor:
#      x y z
#    x 2.204790 0.000000 0.011520 
#    y 0.000000 2.025980 0.000000 
#    z 0.011520 0.000000 2.064310 
# 
# From -- ./inp_files/230156.got.cif
#   From: 2010.05.17/outbox.cif.g08.bks.cpg/sg15_116_cif.got.tgz:230156.got - 2010.06.03 18:47:42.
