data_PCOD9299752
_publ_section_title
;
Structure prediction by ZEFSAII (Michael W. Deem and Ramdas Pophale) SiO2 
 PCOD9299752
Probable space group: C 2/C
;
_chemical_formula_sum "Si O2"
_cell_formula_units_Z 40
_cell_length_a 11.894621
_cell_length_b 16.631714
_cell_length_c 9.499974
_cell_angle_alpha 90.000000
_cell_angle_beta 98.350656
_cell_angle_gamma 90.000000
_cell_volume 1859.434835
_symmetry_space_group_name_H-M "C 2/C"
_symmetry_group_IT_number 15
_symmetry_cell_setting 'monoclinic'
loop_
_space_group_symop_operation_xyz
x,y,z
-x,y,1/2-z
-x,-y,-z
x,-y,1/2+z
1/2+x,1/2+y,z
1/2-x,1/2+y,1/2-z
1/2-x,1/2-y,-z
1/2+x,1/2-y,1/2+z
loop_
_atom_site_type_symbol
_atom_site_label
_atom_site_fract_x
_atom_site_fract_y
_atom_site_fract_z
Si Si1 0.082730 0.199830 0.399592
Si Si2 0.993444 0.331387 0.591124
Si Si3 0.258671 0.073148 0.039107
Si Si4 0.222370 0.413308 0.638830
Si Si5 0.019558 0.920036 0.414524
O O1 0.209499 0.170680 0.377685
O O2 0.000000 0.183946 0.250000
O O3 0.039864 0.282459 0.463624
O O4 0.063257 0.142054 0.528537
O O5 0.870246 0.371244 0.543223
O O6 0.000000 0.290141 0.750000
O O7 0.088387 0.399602 0.624652
O O8 0.237513 0.059847 0.200198
O O9 0.146278 0.114541 0.957762
O O10 0.261951 0.986395 0.965479
O O11 0.000000 0.936913 0.250000
O O12 0.000000 0.000000 0.500000
#
# Coordination Sequence:
#
# PCOD9299752 Si02
#       5
#     8   8   8   8   8
#     4  12  24  43  65  96 133 173 219 272 329 392
#     4  10  25  46  64  96 135 177 216 267 334 399
#     4  11  23  42  69  96 131 172 221 272 327 394
#     4  11  23  43  68  98 133 170 219 275 325 398
#     4  12  23  40  65  95 131 170 221 273 328 383
#
# _framework density 21.511911000000001
#
# number of rings (size 3 to 8) (size 9 to 14) (size 15 to 20)
#    0.000    0.800    4.000    3.600    0.000    2.400 
#    3.600    0.000    0.000    0.000    0.000    0.000 
#    0.000    0.000    0.000    0.000    0.000    0.000 
#
# Total GULP energy -111497.217790 kJ/mol
# GULP energy per Si atom -5574.860889 kJ/mol
# Density = 2.146295 g / cm^3
# Si number density = 21.511911 Si / 1000 Ang^3
#
#
#
# Elastic Constant Matrix: (Units=GPa)
#
#
# Indices 1 2 3 4 5 6 
#
# 1 121.8026 -2.7498 34.6828 0.0000 4.3554 0.0000
# 2 -2.7498 35.7597 30.6635 0.0000 -9.3369 0.0000
# 3 34.6828 30.6635 168.3869 0.0000 -9.3051 0.0000
# 4 0.0000 0.0000 0.0000 -1.0474 0.0000 17.5385
# 5 4.3554 -9.3369 -9.3051 0.0000 18.8363 0.0000
# 6 0.0000 0.0000 0.0000 17.5385 0.0000 4.5130
#
#
#
# Elastic Compliance Matrix: (Units=1/GPa)
#
#
# Indices 1 2 3 4 5 6 
#
# 1 0.009011 0.002154 -0.002369 0.000000 -0.002186 0.000000
# 2 0.002154 0.037568 -0.006460 0.000000 0.014933 0.000000
# 3 -0.002369 -0.006460 0.007666 0.000000 0.001133 0.000000
# 4 0.000000 0.000000 0.000000 -0.014450 0.000000 0.056154
# 5 -0.002186 0.014933 0.001133 0.000000 0.061556 0.000000
# 6 0.000000 0.000000 0.000000 0.056154 0.000000 0.003354
#
#
# Mechanical properties :
#
#
# Convention : Reuss Voigt Hill
#
# Bulk Modulus (GPa) = 24.45300 50.12691 37.28995
# Shear Modulus (GPa) = 37.96879 22.01722 29.99301
#
# Velocity S-wave (km/s) = 4.20576 3.20267 3.73802
# Velocity P-wave (km/s) = 5.91409 6.08512 6.00021
#
# Compressibility (1/GPa) = 0.04089478
#
# Stress axis : x y z
#
# Youngs Moduli (GPa) = 110.97071 26.61833 130.45382
#
# Poissons Ratio (x) = -0.05732 0.30905
# Poissons Ratio (y) = -0.23898 0.84267
# Poissons Ratio (z) = 0.26290 0.17194
#
# Static dielectric constant tensor:
#      x y z
#    x 1.833740 0.000000 -0.027100 
#    y 0.000000 1.901040 0.000000 
#    z -0.027100 0.000000 1.810290 
# 
# From -- ./inp_files/29042.got.cif
#   From: 2010.05.17/outbox.cif.g08.bks.cpg/sg15_15_cif.got.tgz:29042.got - 2010.06.03 18:47:42.
