data_PCOD9299992
_publ_section_title
;
Structure prediction by ZEFSAII (Michael W. Deem and Ramdas Pophale) SiO2 
 PCOD9299992
Probable space group: C 2/C
;
_chemical_formula_sum "Si O2"
_cell_formula_units_Z 36
_cell_length_a 12.099630
_cell_length_b 14.335069
_cell_length_c 6.863687
_cell_angle_alpha 90.000000
_cell_angle_beta 92.597082
_cell_angle_gamma 90.000000
_cell_volume 1189.277071
_symmetry_space_group_name_H-M "C 2/C"
_symmetry_group_IT_number 15
_symmetry_cell_setting 'monoclinic'
loop_
_space_group_symop_operation_xyz
x,y,z
-x,y,1/2-z
-x,-y,-z
x,-y,1/2+z
1/2+x,1/2+y,z
1/2-x,1/2+y,1/2-z
1/2-x,1/2-y,-z
1/2+x,1/2-y,1/2+z
loop_
_atom_site_type_symbol
_atom_site_label
_atom_site_fract_x
_atom_site_fract_y
_atom_site_fract_z
Si Si1 0.064792 0.401126 0.969601
Si Si2 0.716640 0.174258 0.160981
Si Si3 0.000000 0.233665 0.250000
Si Si4 0.681660 0.391781 0.477435
Si Si5 0.382369 0.411010 0.447739
O O1 0.190604 0.411848 0.065602
O O2 0.014798 0.315399 0.084200
O O3 0.106470 0.362954 0.756958
O O4 0.000000 0.500000 0.000000
O O5 0.624861 0.368648 0.269056
O O6 0.801649 0.186701 0.353044
O O7 0.763518 0.088374 0.044779
O O8 0.952956 0.156581 0.087912
O O9 0.610333 0.477069 0.562778
O O10 0.250000 0.250000 0.500000
#
# Coordination Sequence:
#
# PCOD9299992 Si02
#       5
#     8   8   4   8   8
#     4  10  27  56  88 143 186 248 325 414 500 580
#     4  10  26  51  92 129 182 258 319 385 501 596
#     4  12  32  50  94 140 188 238 332 418 488 584
#     4  10  25  52  91 127 186 255 309 397 503 590
#     4  12  26  54  85 137 177 253 316 397 492 601
#
# _framework density 30.270489000000001
#
# number of rings (size 3 to 8) (size 9 to 14) (size 15 to 20)
#    1.333    0.000    2.222    0.000    9.333    4.444 
#    0.000    3.333    0.000    1.333    0.000    1.556 
#    0.000    0.000    0.000    0.000    0.000    0.000 
#
# Total GULP energy -100207.376562 kJ/mol
# GULP energy per Si atom -5567.076476 kJ/mol
# Density = 3.020159 g / cm^3
# Si number density = 30.270489 Si / 1000 Ang^3
#
#
#
# Elastic Constant Matrix: (Units=GPa)
#
#
# Indices 1 2 3 4 5 6 
#
# 1 96.4680 96.4611 92.6185 0.0000 -10.6247 0.0000
# 2 96.4611 274.9338 138.5551 0.0000 -16.8463 0.0000
# 3 92.6185 138.5551 347.5184 0.0000 -14.6024 0.0000
# 4 0.0000 0.0000 0.0000 53.8653 0.0000 3.9350
# 5 -10.6247 -16.8463 -14.6024 0.0000 56.8986 0.0000
# 6 0.0000 0.0000 0.0000 3.9350 0.0000 57.9077
#
#
#
# Elastic Compliance Matrix: (Units=1/GPa)
#
#
# Indices 1 2 3 4 5 6 
#
# 1 0.018051 -0.004831 -0.002834 0.000000 0.001213 0.000000
# 2 -0.004831 0.005890 -0.001037 0.000000 0.000576 0.000000
# 3 -0.002834 -0.001037 0.004055 0.000000 0.000205 0.000000
# 4 0.000000 0.000000 0.000000 0.018657 0.000000 -0.001268
# 5 0.001213 0.000576 0.000205 0.000000 0.018025 0.000000
# 6 0.000000 0.000000 0.000000 -0.001268 0.000000 0.017355
#
#
# Mechanical properties :
#
#
# Convention : Reuss Voigt Hill
#
# Bulk Modulus (GPa) = 94.40168 152.68774 123.54471
# Shear Modulus (GPa) = 48.55985 59.82003 54.18994
#
# Velocity S-wave (km/s) = 4.00959 4.45025 4.23565
# Velocity P-wave (km/s) = 7.25875 8.77251 8.05129
#
# Compressibility (1/GPa) = 0.01059303
#
# Stress axis : x y z
#
# Youngs Moduli (GPa) = 55.39898 169.78524 246.62811
#
# Poissons Ratio (x) = 0.82019 0.69890
# Poissons Ratio (y) = 0.26762 0.25566
# Poissons Ratio (z) = 0.15699 0.17600
#
# Static dielectric constant tensor:
#      x y z
#    x 4.361880 0.000000 0.291020 
#    y 0.000000 2.108960 0.000000 
#    z 0.291020 0.000000 2.409220 
# 
# From -- ./inp_files/94113.got.cif
#   From: 2010.05.17/outbox.cif.g08.bks.cpg/sg15_48_cif.got.tgz:94113.got - 2010.06.03 18:47:42.
