data_PCOD9299653
_publ_section_title
;
Structure prediction by ZEFSAII (Michael W. Deem and Ramdas Pophale) SiO2 
 PCOD9299653
Probable space group: C 2/C
;
_chemical_formula_sum "Si O2"
_cell_formula_units_Z 36
_cell_length_a 18.345547
_cell_length_b 17.139369
_cell_length_c 5.433211
_cell_angle_alpha 90.000000
_cell_angle_beta 119.656270
_cell_angle_gamma 90.000000
_cell_volume 1484.590051
_symmetry_space_group_name_H-M "C 2/C"
_symmetry_group_IT_number 15
_symmetry_cell_setting 'monoclinic'
loop_
_space_group_symop_operation_xyz
x,y,z
-x,y,1/2-z
-x,-y,-z
x,-y,1/2+z
1/2+x,1/2+y,z
1/2-x,1/2+y,1/2-z
1/2-x,1/2-y,-z
1/2+x,1/2-y,1/2+z
loop_
_atom_site_type_symbol
_atom_site_label
_atom_site_fract_x
_atom_site_fract_y
_atom_site_fract_z
Si Si1 0.500000 0.926848 0.750000
Si Si2 0.822782 0.467325 0.529222
Si Si3 0.873536 0.807051 0.636659
Si Si4 0.000000 0.052975 0.250000
Si Si5 0.198522 0.707231 0.616814
Si Si6 0.500000 0.176296 0.750000
O O1 0.421264 0.983829 0.666913
O O2 0.488566 0.872903 0.483948
O O3 0.783632 0.502100 0.215322
O O4 0.829048 0.374826 0.532037
O O5 0.871076 0.767446 0.902913
O O6 0.773848 0.817103 0.430342
O O7 0.922016 0.886368 0.656128
O O8 0.921105 0.735758 0.577629
O O9 0.000000 0.000000 0.500000
O O10 0.250000 0.750000 0.500000
#
# Coordination Sequence:
#
# PCOD9299653 Si02
#       6
#     4   8   8   4   8   4
#     4  12  22  42  67  95 142 172 224 272 344 416
#     4  12  27  44  66 102 141 180 223 287 354 411
#     4  10  25  44  73 104 138 188 240 297 355 423
#     4  11  28  49  75 110 149 190 250 307 370 429
#     4  11  25  46  73 102 142 189 247 289 359 436
#     4  11  22  41  74 103 127 180 230 289 330 417
#
# _framework density 24.249116000000001
#
# number of rings (size 3 to 8) (size 9 to 14) (size 15 to 20)
#    0.000    0.889    2.222    3.333    9.333    3.556 
#    0.000    0.000    0.000    0.000    0.000    0.000 
#    0.000    0.000    0.000    0.000    0.000    0.000 
#
# Total GULP energy -100349.689464 kJ/mol
# GULP energy per Si atom -5574.982748 kJ/mol
# Density = 2.419392 g / cm^3
# Si number density = 24.249116 Si / 1000 Ang^3
#
#
#
# Elastic Constant Matrix: (Units=GPa)
#
#
# Indices 1 2 3 4 5 6 
#
# 1 64.6367 46.7475 15.8799 0.0000 -19.2875 0.0000
# 2 46.7475 152.1290 68.5274 0.0000 -40.8107 0.0000
# 3 15.8799 68.5274 105.7001 0.0000 -45.0819 0.0000
# 4 0.0000 0.0000 0.0000 36.8609 0.0000 -8.9508
# 5 -19.2875 -40.8107 -45.0819 0.0000 46.5905 0.0000
# 6 0.0000 0.0000 0.0000 -8.9508 0.0000 38.6327
#
#
#
# Elastic Compliance Matrix: (Units=1/GPa)
#
#
# Indices 1 2 3 4 5 6 
#
# 1 0.021238 -0.006437 0.003963 0.000000 0.006989 0.000000
# 2 -0.006437 0.011679 -0.005751 0.000000 0.002000 0.000000
# 3 0.003963 -0.005751 0.018977 0.000000 0.014965 0.000000
# 4 0.000000 0.000000 0.000000 0.028746 0.000000 0.006660
# 5 0.006989 0.002000 0.014965 0.000000 0.040589 0.000000
# 6 0.000000 0.000000 0.000000 0.006660 0.000000 0.027428
#
#
# Mechanical properties :
#
#
# Convention : Reuss Voigt Hill
#
# Bulk Modulus (GPa) = 28.21401 64.97503 46.59452
# Shear Modulus (GPa) = 28.26120 37.17087 32.71604
#
# Velocity S-wave (km/s) = 3.41758 3.91944 3.67708
# Velocity P-wave (km/s) = 5.21857 6.88009 6.10611
#
# Compressibility (1/GPa) = 0.03544338
#
# Stress axis : x y z
#
# Youngs Moduli (GPa) = 47.08535 85.62743 52.69593
#
# Poissons Ratio (x) = 0.55114 -0.20883
# Poissons Ratio (y) = 0.30307 0.30308
# Poissons Ratio (z) = -0.18660 0.49248
#
# Static dielectric constant tensor:
#      x y z
#    x 1.996610 0.000000 -0.017100 
#    y 0.000000 1.933750 0.000000 
#    z -0.017100 0.000000 1.977130 
# 
# From -- ./inp_files/9716.got.cif
#   From: 2010.05.17/outbox.cif.g08.bks.cpg/sg15_5_cif.got.tgz:9716.got - 2010.06.03 18:47:42.
