data_PCOD9299754
_publ_section_title
;
Structure prediction by ZEFSAII (Michael W. Deem and Ramdas Pophale) SiO2 
 PCOD9299754
Probable space group: C 2/C
;
_chemical_formula_sum "Si O2"
_cell_formula_units_Z 56
_cell_length_a 15.369355
_cell_length_b 8.470779
_cell_length_c 22.532913
_cell_angle_alpha 90.000000
_cell_angle_beta 117.503318
_cell_angle_gamma 90.000000
_cell_volume 2602.029188
_symmetry_space_group_name_H-M "C 2/C"
_symmetry_group_IT_number 15
_symmetry_cell_setting 'monoclinic'
loop_
_space_group_symop_operation_xyz
x,y,z
-x,y,1/2-z
-x,-y,-z
x,-y,1/2+z
1/2+x,1/2+y,z
1/2-x,1/2+y,1/2-z
1/2-x,1/2-y,-z
1/2+x,1/2-y,1/2+z
loop_
_atom_site_type_symbol
_atom_site_label
_atom_site_fract_x
_atom_site_fract_y
_atom_site_fract_z
Si Si1 0.500000 0.895232 0.750000
Si Si2 0.000000 0.907385 0.750000
Si Si3 0.029049 0.861086 0.161515
Si Si4 0.279116 0.325485 0.681451
Si Si5 0.183769 0.483110 0.373101
Si Si6 0.421081 0.876788 0.549822
Si Si7 0.182692 0.127523 0.178660
Si Si8 0.619311 0.920231 0.097393
O O1 0.454901 0.781741 0.786695
O O2 0.420103 0.000838 0.692838
O O3 0.896452 0.830000 0.728662
O O4 0.026286 0.012938 0.815270
O O5 0.959354 0.788246 0.089404
O O6 0.123190 0.962790 0.169934
O O7 0.269354 0.185693 0.629904
O O8 0.253418 0.323678 0.743820
O O9 0.216260 0.474397 0.639417
O O10 0.157108 0.536933 0.431244
O O11 0.251047 0.605942 0.358717
O O12 0.381835 0.864615 0.471041
O O13 0.521997 0.976809 0.577863
O O14 0.114129 0.273595 0.140447
#
# Coordination Sequence:
#
# PCOD9299754 Si02
#       8
#     4   4   8   8   8   8   8   8
#     4   9  21  36  64  91 133 166 218 279 327 394
#     4   9  21  38  64 101 125 166 214 281 321 368
#     4   9  20  40  63  89 130 165 216 268 330 382
#     4  11  24  40  67  98 136 166 218 280 334 393
#     4  11  24  38  66  96 126 180 219 268 336 390
#     4  10  25  46  66  90 133 183 220 270 328 399
#     4  11  25  38  66 100 126 171 219 280 335 390
#     4  11  26  45  65  96 135 173 222 274 330 396
#
# _framework density 21.521664999999999
#
# number of rings (size 3 to 8) (size 9 to 14) (size 15 to 20)
#    0.000    1.714    0.000    2.143   22.000    1.714 
#    0.000    0.000    0.000    0.000    0.000    0.000 
#    0.000    0.000    0.000    0.000    0.000    0.000 
#
# Total GULP energy -156004.155395 kJ/mol
# GULP energy per Si atom -5571.576978 kJ/mol
# Density = 2.147268 g / cm^3
# Si number density = 21.521665 Si / 1000 Ang^3
#
#
#
# Elastic Constant Matrix: (Units=GPa)
#
#
# Indices 1 2 3 4 5 6 
#
# 1 97.6361 26.6782 21.2536 0.0000 -12.6588 0.0000
# 2 26.6782 85.1685 33.3259 0.0000 -1.5263 0.0000
# 3 21.2536 33.3259 107.2975 0.0000 -14.1606 0.0000
# 4 0.0000 0.0000 0.0000 27.8232 0.0000 -6.5567
# 5 -12.6588 -1.5263 -14.1606 0.0000 28.2108 0.0000
# 6 0.0000 0.0000 0.0000 -6.5567 0.0000 -4.9528
#
#
#
# Elastic Compliance Matrix: (Units=1/GPa)
#
#
# Indices 1 2 3 4 5 6 
#
# 1 0.011942 -0.003390 -0.000674 0.000000 0.004837 0.000000
# 2 -0.003390 0.014384 -0.004171 0.000000 -0.002836 0.000000
# 3 -0.000674 -0.004171 0.011437 0.000000 0.005213 0.000000
# 4 0.000000 0.000000 0.000000 0.027395 0.000000 -0.036266
# 5 0.004837 -0.002836 0.005213 0.000000 0.040081 0.000000
# 6 0.000000 0.000000 0.000000 -0.036266 0.000000 -0.153896
#
#
# Mechanical properties :
#
#
# Convention : Reuss Voigt Hill
#
# Bulk Modulus (GPa) = 46.96276 50.29084 48.62680
# Shear Modulus (GPa) = -199.29135 24.13920 -87.57607
#
# Velocity S-wave (km/s) = -9.63335 3.35270 -6.38595
# Velocity P-wave (km/s) = 10.09290 6.19723 5.63298
#
# Compressibility (1/GPa) = 0.02129347
#
# Stress axis : x y z
#
# Youngs Moduli (GPa) = 83.73541 69.51941 87.43798
#
# Poissons Ratio (x) = 0.23569 0.05895
# Poissons Ratio (y) = 0.28389 0.36466
# Poissons Ratio (z) = 0.05645 0.28993
#
# Static dielectric constant tensor:
#      x y z
#    x 1.850900 0.000000 -0.031880 
#    y 0.000000 1.815160 0.000000 
#    z -0.031880 0.000000 1.791100 
# 
# From -- ./inp_files/273279.got.cif
#   From: 2010.05.17/outbox.cif.g08.bks.cpg/sg15_137_cif.got.tgz:273279.got - 2010.06.03 18:47:42.
