data_PCOD9299531
_publ_section_title
;
Structure prediction by ZEFSAII (Michael W. Deem and Ramdas Pophale) SiO2 
 PCOD9299531
Probable space group: C 2/C
;
_chemical_formula_sum "Si O2"
_cell_formula_units_Z 60
_cell_length_a 25.562321
_cell_length_b 5.406494
_cell_length_c 22.035837
_cell_angle_alpha 90.000000
_cell_angle_beta 59.412160
_cell_angle_gamma 90.000000
_cell_volume 2621.640068
_symmetry_space_group_name_H-M "C 2/C"
_symmetry_group_IT_number 15
_symmetry_cell_setting 'monoclinic'
loop_
_space_group_symop_operation_xyz
x,y,z
-x,y,1/2-z
-x,-y,-z
x,-y,1/2+z
1/2+x,1/2+y,z
1/2-x,1/2+y,1/2-z
1/2-x,1/2-y,-z
1/2+x,1/2-y,1/2+z
loop_
_atom_site_type_symbol
_atom_site_label
_atom_site_fract_x
_atom_site_fract_y
_atom_site_fract_z
Si Si1 0.073749 0.174320 0.395956
Si Si2 0.789836 0.660049 0.816348
Si Si3 0.500000 0.018030 0.250000
Si Si4 0.190414 0.959930 0.276344
Si Si5 0.455002 0.603176 0.945986
Si Si6 0.223357 0.497585 0.044553
Si Si7 0.583768 0.105906 0.596837
Si Si8 0.591438 0.072878 0.293176
O O1 0.061485 0.166397 0.474571
O O2 0.058716 0.418611 0.365881
O O3 0.144981 0.141414 0.340002
O O4 0.026494 0.967590 0.399454
O O5 0.748653 0.576578 0.783719
O O6 0.764537 0.535221 0.891018
O O7 0.861629 0.608216 0.770063
O O8 0.788318 0.953207 0.803232
O O9 0.459103 0.856060 0.319416
O O10 0.545430 0.165118 0.268285
O O11 0.141633 0.747367 0.293408
O O12 0.421349 0.352547 0.941887
O O13 0.438047 0.849114 0.920373
O O14 0.151747 0.462797 0.076179
O O15 0.250000 0.250000 0.000000
O O16 0.250000 0.750000 0.000000
#
# Coordination Sequence:
#
# PCOD9299531 Si02
#       8
#     8   8   4   8   8   8   8   8
#     4  10  25  42  73 106 148 190 251 316 386 458
#     4  11  25  45  71 107 147 199 263 315 385 458
#     4  12  24  48  78 104 160 194 262 318 386 476
#     4  11  24  43  74 109 146 199 256 326 382 456
#     4  11  26  47  73 111 149 193 252 315 386 470
#     4  12  30  50  76 110 158 208 259 320 394 480
#     4  12  27  48  76 111 147 208 252 320 394 462
#     4  11  23  46  70 114 146 196 252 320 395 448
#
# _framework density 22.886437999999998
#
# number of rings (size 3 to 8) (size 9 to 14) (size 15 to 20)
#    0.000    0.800    4.000    1.600    7.467    2.667 
#    0.000    0.000    0.000    0.000    0.000    0.000 
#    0.000    0.000    0.000    0.000    0.000    0.000 
#
# Total GULP energy -167288.676929 kJ/mol
# GULP energy per Si atom -5576.289231 kJ/mol
# Density = 2.283435 g / cm^3
# Si number density = 22.886438 Si / 1000 Ang^3
#
#
#
# Elastic Constant Matrix: (Units=GPa)
#
#
# Indices 1 2 3 4 5 6 
#
# 1 159.6118 51.0492 52.1805 0.0111 8.2110 0.0042
# 2 51.0492 131.9109 69.3633 0.0127 15.2244 0.0298
# 3 52.1805 69.3633 130.4647 -0.0010 17.3376 -0.0187
# 4 0.0111 0.0127 -0.0010 31.8925 -0.0147 -6.5808
# 5 8.2110 15.2244 17.3376 -0.0147 37.1807 0.0034
# 6 0.0042 0.0298 -0.0187 -6.5808 0.0034 32.9522
#
#
#
# Elastic Compliance Matrix: (Units=1/GPa)
#
#
# Indices 1 2 3 4 5 6 
#
# 1 0.007517 -0.001846 -0.002031 -0.000002 0.000043 -0.000001
# 2 -0.001846 0.011092 -0.004914 -0.000008 -0.001843 -0.000014
# 3 -0.002031 -0.004914 0.011474 0.000004 -0.002890 0.000012
# 4 -0.000002 -0.000008 0.000004 0.032703 0.000014 0.006531
# 5 0.000043 -0.001843 -0.002890 0.000014 0.028988 0.000000
# 6 -0.000001 -0.000014 0.000012 0.006531 0.000000 0.031651
#
#
# Mechanical properties :
#
#
# Convention : Reuss Voigt Hill
#
# Bulk Modulus (GPa) = 79.99227 85.24147 82.61687
# Shear Modulus (GPa) = 34.44134 37.03137 35.73636
#
# Velocity S-wave (km/s) = 3.88349 4.02686 3.95582
# Velocity P-wave (km/s) = 7.42538 7.67770 7.55260
#
# Compressibility (1/GPa) = 0.01250121
#
# Stress axis : x y z
#
# Youngs Moduli (GPa) = 133.02463 90.15545 87.15635
#
# Poissons Ratio (x) = 0.16646 0.17699
# Poissons Ratio (y) = 0.24561 0.42827
# Poissons Ratio (z) = 0.27013 0.44301
#
# Static dielectric constant tensor:
#      x y z
#    x 1.894900 -0.000290 0.035060 
#    y -0.000290 1.956130 0.000350 
#    z 0.035060 0.000350 1.832960 
# 
# From -- ./inp_files/256753.got.cif
#   From: 2010.05.17/outbox.cif.g08.bks.cpg/sg15_129_cif.got.tgz:256753.got - 2010.06.03 18:47:42.
