data_PCOD9299581
_publ_section_title
;
Structure prediction by ZEFSAII (Michael W. Deem and Ramdas Pophale) SiO2 
 PCOD9299581
Probable space group: C 2/C
;
_chemical_formula_sum "Si O2"
_cell_formula_units_Z 44
_cell_length_a 9.200223
_cell_length_b 12.447283
_cell_length_c 19.509317
_cell_angle_alpha 90.000000
_cell_angle_beta 62.663771
_cell_angle_gamma 90.000000
_cell_volume 1984.667999
_symmetry_space_group_name_H-M "C 2/C"
_symmetry_group_IT_number 15
_symmetry_cell_setting 'monoclinic'
loop_
_space_group_symop_operation_xyz
x,y,z
-x,y,1/2-z
-x,-y,-z
x,-y,1/2+z
1/2+x,1/2+y,z
1/2-x,1/2+y,1/2-z
1/2-x,1/2-y,-z
1/2+x,1/2-y,1/2+z
loop_
_atom_site_type_symbol
_atom_site_label
_atom_site_fract_x
_atom_site_fract_y
_atom_site_fract_z
Si Si1 0.846626 0.683681 0.037586
Si Si2 0.508682 0.328093 0.675254
Si Si3 0.500000 0.085389 0.250000
Si Si4 0.788743 0.036002 0.733052
Si Si5 0.987718 0.229621 0.866099
Si Si6 0.642307 0.849996 0.391227
O O1 0.692349 0.641025 0.113873
O O2 0.953672 0.750199 0.069304
O O3 0.750000 0.750000 0.000000
O O4 0.984448 0.614660 0.969079
O O5 0.500000 0.267061 0.750000
O O6 0.408710 0.435656 0.708904
O O7 0.420998 0.253972 0.637967
O O8 0.490400 0.164626 0.186408
O O9 0.347384 0.005858 0.289835
O O10 0.891106 0.140075 0.690624
O O11 0.699877 0.063498 0.823325
O O12 0.802132 0.186865 0.899014
#
# Coordination Sequence:
#
# PCOD9299581 Si02
#       6
#     8   8   4   8   8   8
#     4  10  25  43  73 103 146 193 235 305 372 424
#     4  11  22  43  69 104 140 187 245 297 348 442
#     4  12  26  44  72 116 138 192 250 310 348 426
#     4  12  24  41  77 101 142 190 248 290 367 428
#     4  12  23  48  70 105 149 189 247 303 355 439
#     4  11  23  44  69 105 146 188 238 302 367 425
#
# _framework density 22.169954000000001
#
# number of rings (size 3 to 8) (size 9 to 14) (size 15 to 20)
#    0.000    0.727    3.636    3.818    6.364    0.000 
#    0.000   13.636    0.000    0.000    0.000    0.000 
#    0.000    0.000    0.000    0.000    0.000    0.000 
#
# Total GULP energy -122980.128232 kJ/mol
# GULP energy per Si atom -5590.005829 kJ/mol
# Density = 2.211949 g / cm^3
# Si number density = 22.169954 Si / 1000 Ang^3
#
#
#
# Elastic Constant Matrix: (Units=GPa)
#
#
# Indices 1 2 3 4 5 6 
#
# 1 165.4483 60.8483 59.9393 0.0000 -9.8730 0.0000
# 2 60.8483 93.4667 38.7542 0.0000 -10.3388 0.0000
# 3 59.9393 38.7542 120.1707 0.0000 -20.0356 0.0000
# 4 0.0000 0.0000 0.0000 -22.3477 0.0000 31.4699
# 5 -9.8730 -10.3388 -20.0356 0.0000 59.2981 0.0000
# 6 0.0000 0.0000 0.0000 31.4699 0.0000 1.6853
#
#
#
# Elastic Compliance Matrix: (Units=1/GPa)
#
#
# Indices 1 2 3 4 5 6 
#
# 1 0.008758 -0.004507 -0.002970 0.000000 -0.000331 0.000000
# 2 -0.004507 0.014711 -0.002325 0.000000 0.001029 0.000000
# 3 -0.002970 -0.002325 0.011024 0.000000 0.002825 0.000000
# 4 0.000000 0.000000 0.000000 -0.001639 0.000000 0.030612
# 5 -0.000331 0.001029 0.002825 0.000000 0.017943 0.000000
# 6 0.000000 0.000000 0.000000 0.030612 0.000000 0.021739
#
#
# Mechanical properties :
#
#
# Convention : Reuss Voigt Hill
#
# Bulk Modulus (GPa) = 67.16271 77.57438 72.36854
# Shear Modulus (GPa) = 51.49327 22.36340 36.92834
#
# Velocity S-wave (km/s) = 4.82463 3.17949 4.08572
# Velocity P-wave (km/s) = 7.83558 6.96747 7.41424
#
# Compressibility (1/GPa) = 0.01488922
#
# Stress axis : x y z
#
# Youngs Moduli (GPa) = 114.18242 67.97816 90.71437
#
# Poissons Ratio (x) = 0.30635 0.26944
# Poissons Ratio (y) = 0.51458 0.21088
# Poissons Ratio (z) = 0.33914 0.15803
#
# Static dielectric constant tensor:
#      x y z
#    x 1.916950 0.000000 0.037360 
#    y 0.000000 1.789470 0.000000 
#    z 0.037360 0.000000 1.889190 
# 
# From -- ./inp_files/188772.got.cif
#   From: 2010.05.17/outbox.cif.g08.bks.cpg/sg15_95_cif.got.tgz:188772.got - 2010.06.03 18:47:42.
