data_PCOD9299494
_publ_section_title
;
Structure prediction by ZEFSAII (Michael W. Deem and Ramdas Pophale) SiO2 
 PCOD9299494
Probable space group: C 2/C
;
_chemical_formula_sum "Si O2"
_cell_formula_units_Z 40
_cell_length_a 9.449571
_cell_length_b 15.290261
_cell_length_c 24.731007
_cell_angle_alpha 90.000000
_cell_angle_beta 152.913577
_cell_angle_gamma 90.000000
_cell_volume 1627.042215
_symmetry_space_group_name_H-M "C 2/C"
_symmetry_group_IT_number 15
_symmetry_cell_setting 'monoclinic'
loop_
_space_group_symop_operation_xyz
x,y,z
-x,y,1/2-z
-x,-y,-z
x,-y,1/2+z
1/2+x,1/2+y,z
1/2-x,1/2+y,1/2-z
1/2-x,1/2-y,-z
1/2+x,1/2-y,1/2+z
loop_
_atom_site_type_symbol
_atom_site_label
_atom_site_fract_x
_atom_site_fract_y
_atom_site_fract_z
Si Si1 0.252669 0.549388 0.047170
Si Si2 0.566431 0.025347 0.211473
Si Si3 0.151263 0.884327 0.497321
Si Si4 0.320762 0.143154 0.825316
Si Si5 0.275485 0.245199 0.312777
O O1 0.327867 0.468315 0.033263
O O2 0.088707 0.631728 0.961945
O O3 0.602329 0.574584 0.184550
O O4 0.000000 0.500000 0.000000
O O5 0.500000 0.001172 0.250000
O O6 0.252384 0.079033 0.089695
O O7 0.614477 0.942292 0.189291
O O8 0.435310 0.818565 0.584812
O O9 0.856781 0.827763 0.380143
O O10 0.288962 0.219465 0.769686
O O11 0.000000 0.138368 0.750000
O O12 0.000000 0.198482 0.250000
#
# Coordination Sequence:
#
# PCOD9299494 Si02
#       5
#     8   8   8   8   8
#     4  11  22  40  70  97 127 169 221 270 328 385
#     4  11  24  40  67  99 129 164 218 274 324 381
#     4  10  25  42  64  94 133 168 216 267 322 391
#     4  11  22  40  65  94 130 167 217 269 320 389
#     4  11  24  43  66  91 130 179 216 258 329 387
#
# _framework density 24.584489000000001
#
# number of rings (size 3 to 8) (size 9 to 14) (size 15 to 20)
#    0.000    1.200    4.000    0.600    5.600    2.400 
#    0.000    1.000    0.000    0.000    0.000    0.000 
#    0.000    0.000    0.000    0.000    0.000    0.000 
#
# Total GULP energy -111592.327031 kJ/mol
# GULP energy per Si atom -5579.616352 kJ/mol
# Density = 2.452853 g / cm^3
# Si number density = 24.584489 Si / 1000 Ang^3
#
#
#
# Elastic Constant Matrix: (Units=GPa)
#
#
# Indices 1 2 3 4 5 6 
#
# 1 131.1401 8.6381 22.4968 -0.0008 10.3888 0.0000
# 2 8.6381 62.7815 14.6417 -0.0021 0.0663 -0.0005
# 3 22.4968 14.6417 93.2795 0.0013 -1.5072 0.0019
# 4 -0.0008 -0.0021 0.0013 28.6571 -0.0007 1.0447
# 5 10.3888 0.0663 -1.5072 -0.0007 22.8505 -0.0003
# 6 0.0000 -0.0005 0.0019 1.0447 -0.0003 15.7246
#
#
#
# Elastic Compliance Matrix: (Units=1/GPa)
#
#
# Indices 1 2 3 4 5 6 
#
# 1 0.008317 -0.000683 -0.001962 0.000000 -0.003908 0.000000
# 2 -0.000683 0.016591 -0.002438 0.000001 0.000101 0.000001
# 3 -0.001962 -0.002438 0.011603 -0.000001 0.001664 -0.000001
# 4 0.000000 0.000001 -0.000001 0.034980 0.000001 -0.002324
# 5 -0.003908 0.000101 0.001664 0.000001 0.045649 0.000001
# 6 0.000000 0.000001 -0.000001 -0.002324 0.000001 0.063749
#
#
# Mechanical properties :
#
#
# Convention : Reuss Voigt Hill
#
# Bulk Modulus (GPa) = 37.95675 42.08381 40.02028
# Shear Modulus (GPa) = 25.02064 29.54142 27.28103
#
# Velocity S-wave (km/s) = 3.19367 3.47021 3.33481
# Velocity P-wave (km/s) = 5.39186 5.76296 5.58050
#
# Compressibility (1/GPa) = 0.02634578
#
# Stress axis : x y z
#
# Youngs Moduli (GPa) = 120.24212 60.27501 86.18346
#
# Poissons Ratio (x) = 0.04115 0.16907
# Poissons Ratio (y) = 0.08208 0.21011
# Poissons Ratio (z) = 0.23589 0.14694
#
# Static dielectric constant tensor:
#      x y z
#    x 1.912900 0.000000 -0.058820 
#    y 0.000000 1.965050 0.000000 
#    z -0.058820 0.000000 2.173290 
# 
# From -- ./inp_files/76721.got.cif
#   From: 2010.05.17/outbox.cif.g08.bks.cpg/sg15_39_cif.got.tgz:76721.got - 2010.06.03 18:47:42.
