data_PCOD9299240
_publ_section_title
;
Structure prediction by ZEFSAII (Michael W. Deem and Ramdas Pophale) SiO2 
 PCOD9299240
Probable space group: C 2/C
;
_chemical_formula_sum "Si O2"
_cell_formula_units_Z 56
_cell_length_a 6.983289
_cell_length_b 15.166170
_cell_length_c 20.733678
_cell_angle_alpha 90.000000
_cell_angle_beta 63.689733
_cell_angle_gamma 90.000000
_cell_volume 1968.418935
_symmetry_space_group_name_H-M "C 2/C"
_symmetry_group_IT_number 15
_symmetry_cell_setting 'monoclinic'
loop_
_space_group_symop_operation_xyz
x,y,z
-x,y,1/2-z
-x,-y,-z
x,-y,1/2+z
1/2+x,1/2+y,z
1/2-x,1/2+y,1/2-z
1/2-x,1/2-y,-z
1/2+x,1/2-y,1/2+z
loop_
_atom_site_type_symbol
_atom_site_label
_atom_site_fract_x
_atom_site_fract_y
_atom_site_fract_z
Si Si1 0.500000 0.620267 0.750000
Si Si2 0.326086 0.511268 0.365975
Si Si3 0.698559 0.527268 0.898825
Si Si4 0.535714 0.774037 0.845050
Si Si5 0.125187 0.606595 0.035956
Si Si6 0.927208 0.313867 0.440198
Si Si7 0.034828 0.795878 0.672720
Si Si8 0.500000 0.930046 0.750000
O O1 0.676217 0.552116 0.695821
O O2 0.545579 0.686867 0.801507
O O3 0.467538 0.463540 0.399530
O O4 0.094642 0.548384 0.419068
O O5 0.467276 0.599647 0.332693
O O6 0.804423 0.610752 0.917917
O O7 0.850241 0.490708 0.817387
O O8 0.700495 0.454369 0.954972
O O9 0.719624 0.770342 0.870821
O O10 0.590668 0.856961 0.788260
O O11 0.354929 0.809215 0.919449
O O12 0.920993 0.359587 0.029112
O O13 0.750000 0.250000 0.500000
O O14 0.072983 0.258337 0.367399
O O15 0.000000 0.765323 0.750000
#
# Coordination Sequence:
#
# PCOD9299240 Si02
#       8
#     4   8   8   8   8   8   8   4
#     4  11  22  36  65 106 132 180 235 282 342 419
#     4  11  23  40  70 104 139 179 234 288 349 415
#     4  11  25  42  72 102 137 185 238 283 354 419
#     4   9  19  39  63  93 141 176 218 284 356 399
#     4  10  24  48  67  96 141 189 228 290 347 425
#     4  12  24  45  70  97 143 191 231 290 359 408
#     4  11  22  40  66  99 138 180 227 294 353 411
#     4   9  20  38  65  98 136 178 223 290 342 413
#
# _framework density 28.449228999999999
#
# number of rings (size 3 to 8) (size 9 to 14) (size 15 to 20)
#    0.000    1.429    3.571    2.143    5.000    1.714 
#    0.000    0.714    0.000    0.000    0.000    0.000 
#    0.000    0.000    0.000    0.000    0.000    0.000 
#
# Total GULP energy -156616.087563 kJ/mol
# GULP energy per Si atom -5593.431699 kJ/mol
# Density = 2.838448 g / cm^3
# Si number density = 28.449229 Si / 1000 Ang^3
#
#
#
# Elastic Constant Matrix: (Units=GPa)
#
#
# Indices 1 2 3 4 5 6 
#
# 1 140.1971 43.5983 32.0066 0.0000 40.5147 0.0000
# 2 43.5983 182.0371 79.3624 0.0000 31.6214 0.0000
# 3 32.0066 79.3624 181.2540 0.0000 42.2491 0.0000
# 4 0.0000 0.0000 0.0000 66.7380 0.0000 15.2325
# 5 40.5147 31.6214 42.2491 0.0000 51.4457 0.0000
# 6 0.0000 0.0000 0.0000 15.2325 0.0000 40.8433
#
#
#
# Elastic Compliance Matrix: (Units=1/GPa)
#
#
# Indices 1 2 3 4 5 6 
#
# 1 0.009459 -0.001266 0.000543 0.000000 -0.007117 0.000000
# 2 -0.001266 0.007155 -0.002618 0.000000 -0.001251 0.000000
# 3 0.000543 -0.002618 0.007782 0.000000 -0.005209 0.000000
# 4 0.000000 0.000000 0.000000 0.016378 0.000000 -0.006108
# 5 -0.007117 -0.001251 -0.005209 0.000000 0.030090 0.000000
# 6 0.000000 0.000000 0.000000 -0.006108 0.000000 0.026762
#
#
# Mechanical properties :
#
#
# Convention : Reuss Voigt Hill
#
# Bulk Modulus (GPa) = 56.45048 90.38031 73.41540
# Shear Modulus (GPa) = 45.36700 55.04014 50.20357
#
# Velocity S-wave (km/s) = 3.99766 4.40327 4.20536
# Velocity P-wave (km/s) = 6.41825 7.59537 7.03149
#
# Compressibility (1/GPa) = 0.01771464
#
# Stress axis : x y z
#
# Youngs Moduli (GPa) = 105.71620 139.75928 128.50795
#
# Poissons Ratio (x) = 0.17692 -0.06976
# Poissons Ratio (y) = 0.13382 0.33639
# Poissons Ratio (z) = -0.05739 0.36585
#
# Static dielectric constant tensor:
#      x y z
#    x 2.329100 0.000000 -0.191090 
#    y 0.000000 2.243930 0.000000 
#    z -0.191090 0.000000 2.410070 
# 
# From -- ./inp_files/288401.got.cif
#   From: 2010.05.17/outbox.cif.g08.bks.cpg/sg15_145_cif.got.tgz:288401.got - 2010.06.03 18:47:42.
