data_PCOD9299743
_publ_section_title
;
Structure prediction by ZEFSAII (Michael W. Deem and Ramdas Pophale) SiO2 
 PCOD9299743
Probable space group: C 2/C
;
_chemical_formula_sum "Si O2"
_cell_formula_units_Z 28
_cell_length_a 14.257725
_cell_length_b 9.850376
_cell_length_c 10.784413
_cell_angle_alpha 90.000000
_cell_angle_beta 51.115281
_cell_angle_gamma 90.000000
_cell_volume 1178.985042
_symmetry_space_group_name_H-M "C 2/C"
_symmetry_group_IT_number 15
_symmetry_cell_setting 'monoclinic'
loop_
_space_group_symop_operation_xyz
x,y,z
-x,y,1/2-z
-x,-y,-z
x,-y,1/2+z
1/2+x,1/2+y,z
1/2-x,1/2+y,1/2-z
1/2-x,1/2-y,-z
1/2+x,1/2-y,1/2+z
loop_
_atom_site_type_symbol
_atom_site_label
_atom_site_fract_x
_atom_site_fract_y
_atom_site_fract_z
Si Si1 0.052632 0.587716 0.072688
Si Si2 0.500000 0.332725 0.750000
Si Si3 0.789092 0.020880 0.282274
Si Si4 0.115135 0.236005 0.912362
O O1 0.000000 0.551428 0.250000
O O2 0.999080 0.735513 0.081631
O O3 0.194591 0.562855 0.946103
O O4 0.000000 0.500000 0.000000
O O5 0.596364 0.423825 0.740839
O O6 0.571615 0.245423 0.589252
O O7 0.832403 0.913855 0.144638
O O8 0.716709 0.153187 0.296046
#
# Coordination Sequence:
#
# PCOD9299743 Si02
#       4
#     8   4   8   8
#     4  10  25  45  77 109 151 196 255 303 379 440
#     4  12  26  44  78 112 152 194 256 308 384 444
#     4  11  26  46  77 106 154 191 257 308 379 439
#     4  11  26  48  75 111 150 199 252 311 377 449
#
# _framework density 23.749241000000001
#
# number of rings (size 3 to 8) (size 9 to 14) (size 15 to 20)
#    0.000    1.143    0.000    3.429   18.000    1.143 
#    0.000    0.000    0.000    0.000    0.000    0.000 
#    0.000    0.000    0.000    0.000    0.000    0.000 
#
# Total GULP energy -78304.592643 kJ/mol
# GULP energy per Si atom -5593.185189 kJ/mol
# Density = 2.369519 g / cm^3
# Si number density = 23.749241 Si / 1000 Ang^3
#
#
#
# Elastic Constant Matrix: (Units=GPa)
#
#
# Indices 1 2 3 4 5 6 
#
# 1 63.0117 24.6687 -3.6533 0.0000 -16.5556 0.0000
# 2 24.6687 109.2628 23.6118 0.0000 1.5014 0.0000
# 3 -3.6533 23.6118 117.1338 0.0000 21.9778 0.0000
# 4 0.0000 0.0000 0.0000 9.7531 0.0000 1.4760
# 5 -16.5556 1.5014 21.9778 0.0000 40.0264 0.0000
# 6 0.0000 0.0000 0.0000 1.4760 0.0000 49.5846
#
#
#
# Elastic Compliance Matrix: (Units=1/GPa)
#
#
# Indices 1 2 3 4 5 6 
#
# 1 0.019878 -0.004597 -0.000032 0.000000 0.008412 0.000000
# 2 -0.004597 0.010654 -0.002073 0.000000 -0.001163 0.000000
# 3 -0.000032 -0.002073 0.009969 0.000000 -0.005409 0.000000
# 4 0.000000 0.000000 0.000000 0.102995 0.000000 -0.003066
# 5 0.008412 -0.001163 -0.005409 0.000000 0.031476 0.000000
# 6 0.000000 0.000000 0.000000 -0.003066 0.000000 0.020259
#
#
# Mechanical properties :
#
#
# Convention : Reuss Voigt Hill
#
# Bulk Modulus (GPa) = 36.90243 42.07363 39.48803
# Shear Modulus (GPa) = 22.97095 36.19155 29.58125
#
# Velocity S-wave (km/s) = 3.11340 3.90796 3.53309
# Velocity P-wave (km/s) = 5.33821 6.17390 5.77120
#
# Compressibility (1/GPa) = 0.02709849
#
# Stress axis : x y z
#
# Youngs Moduli (GPa) = 50.30731 93.86182 100.31075
#
# Poissons Ratio (x) = 0.43145 0.00318
# Poissons Ratio (y) = 0.23124 0.20793
# Poissons Ratio (z) = 0.00160 0.19456
#
# Static dielectric constant tensor:
#      x y z
#    x 1.923900 0.000000 -0.037040 
#    y 0.000000 1.978620 0.000000 
#    z -0.037040 0.000000 1.888920 
# 
# From -- ./inp_files/36481.got.cif
#   From: 2010.05.17/outbox.cif.g08.bks.cpg/sg15_19_cif.got.tgz:36481.got - 2010.06.03 18:47:42.
