data_PCOD9299014
_publ_section_title
;
Structure prediction by ZEFSAII (Michael W. Deem and Ramdas Pophale) SiO2 
 PCOD9299014
Probable space group: C 2/C
;
_chemical_formula_sum "Si O2"
_cell_formula_units_Z 52
_cell_length_a 18.666630
_cell_length_b 14.048964
_cell_length_c 14.728741
_cell_angle_alpha 90.000000
_cell_angle_beta 37.912868
_cell_angle_gamma 90.000000
_cell_volume 2373.401213
_symmetry_space_group_name_H-M "C 2/C"
_symmetry_group_IT_number 15
_symmetry_cell_setting 'monoclinic'
loop_
_space_group_symop_operation_xyz
x,y,z
-x,y,1/2-z
-x,-y,-z
x,-y,1/2+z
1/2+x,1/2+y,z
1/2-x,1/2+y,1/2-z
1/2-x,1/2-y,-z
1/2+x,1/2-y,1/2+z
loop_
_atom_site_type_symbol
_atom_site_label
_atom_site_fract_x
_atom_site_fract_y
_atom_site_fract_z
Si Si1 0.742931 0.792142 0.739533
Si Si2 0.541204 0.100742 0.495313
Si Si3 0.000000 0.074031 0.750000
Si Si4 0.270338 0.662658 0.913127
Si Si5 0.290921 0.138806 0.815875
Si Si6 0.610184 0.478542 0.954086
Si Si7 0.365824 0.968411 0.415590
O O1 0.615791 0.838430 0.850342
O O2 0.761993 0.704832 0.651930
O O3 0.739501 0.741010 0.841099
O O4 0.834971 0.876060 0.627856
O O5 0.423667 0.148007 0.647899
O O6 0.627096 0.077176 0.492451
O O7 0.500000 0.000000 0.500000
O O8 0.095248 0.134262 0.709755
O O9 0.067158 0.019864 0.602029
O O10 0.250000 0.750000 0.000000
O O11 0.196820 0.569993 0.014142
O O12 0.304079 0.101036 0.905284
O O13 0.212585 0.057230 0.845688
O O14 0.500000 0.500000 0.000000
O O15 0.500000 0.982060 0.250000
#
# Coordination Sequence:
#
# PCOD9299014 Si02
#       7
#     8   8   4   8   8   8   8
#     4  12  27  44  75 109 142 192 250 298 364 447
#     4  11  24  44  75 103 143 194 239 299 365 427
#     4  12  26  44  72 102 150 196 234 302 380 418
#     4  12  25  43  68 108 146 183 243 301 361 432
#     4  11  24  48  70 106 146 189 250 292 364 438
#     4  12  27  48  71 108 150 194 243 307 373 433
#     4  10  24  46  74 101 145 195 234 303 362 429
#
# _framework density 21.909486000000001
#
# number of rings (size 3 to 8) (size 9 to 14) (size 15 to 20)
#    0.000    0.615    4.615    1.846    9.692    0.615 
#    0.000    0.000    0.000    0.000    0.000    0.000 
#    0.000    0.000    0.000    0.000    0.000    0.000 
#
# Total GULP energy -145312.408164 kJ/mol
# GULP energy per Si atom -5588.938776 kJ/mol
# Density = 2.185962 g / cm^3
# Si number density = 21.909486 Si / 1000 Ang^3
#
#
#
# Elastic Constant Matrix: (Units=GPa)
#
#
# Indices 1 2 3 4 5 6 
#
# 1 126.0897 50.0679 20.3507 0.0000 1.3412 0.0000
# 2 50.0679 125.1967 47.8124 0.0000 7.9709 0.0000
# 3 20.3507 47.8124 73.6723 0.0000 2.9017 0.0000
# 4 0.0000 0.0000 0.0000 32.6710 0.0000 2.2674
# 5 1.3412 7.9709 2.9017 0.0000 30.7912 0.0000
# 6 0.0000 0.0000 0.0000 2.2674 0.0000 40.0161
#
#
#
# Elastic Compliance Matrix: (Units=1/GPa)
#
#
# Indices 1 2 3 4 5 6 
#
# 1 0.009440 -0.003732 -0.000208 0.000000 0.000575 0.000000
# 2 -0.003732 0.012233 -0.006815 0.000000 -0.002362 0.000000
# 3 -0.000208 -0.006815 0.018051 0.000000 0.000072 0.000000
# 4 0.000000 0.000000 0.000000 0.030729 0.000000 -0.001741
# 5 0.000575 -0.002362 0.000072 0.000000 0.033056 0.000000
# 6 0.000000 0.000000 0.000000 -0.001741 0.000000 0.025089
#
#
# Mechanical properties :
#
#
# Convention : Reuss Voigt Hill
#
# Bulk Modulus (GPa) = 54.90439 62.38008 58.64223
# Shear Modulus (GPa) = 32.01407 34.47750 33.24578
#
# Velocity S-wave (km/s) = 3.82671 3.97121 3.89963
# Velocity P-wave (km/s) = 6.68124 7.03995 6.86294
#
# Compressibility (1/GPa) = 0.01821348
#
# Stress axis : x y z
#
# Youngs Moduli (GPa) = 105.92733 81.74498 55.39804
#
# Poissons Ratio (x) = 0.30511 0.01153
# Poissons Ratio (y) = 0.39537 0.37754
# Poissons Ratio (z) = 0.02204 0.55710
#
# Static dielectric constant tensor:
#      x y z
#    x 1.857580 0.000000 0.025120 
#    y 0.000000 1.798620 0.000000 
#    z 0.025120 0.000000 1.884160 
# 
# From -- ./inp_files/162470.got.cif
#   From: 2010.05.17/outbox.cif.g08.bks.cpg/sg15_82_cif.got.tgz:162470.got - 2010.06.03 18:47:42.
