data_PCOD9299381
_publ_section_title
;
Structure prediction by ZEFSAII (Michael W. Deem and Ramdas Pophale) SiO2 
 PCOD9299381
Probable space group: C 2/C
;
_chemical_formula_sum "Si O2"
_cell_formula_units_Z 40
_cell_length_a 11.740780
_cell_length_b 15.455741
_cell_length_c 14.456820
_cell_angle_alpha 90.000000
_cell_angle_beta 32.164788
_cell_angle_gamma 90.000000
_cell_volume 1396.567137
_symmetry_space_group_name_H-M "C 2/C"
_symmetry_group_IT_number 15
_symmetry_cell_setting 'monoclinic'
loop_
_space_group_symop_operation_xyz
x,y,z
-x,y,1/2-z
-x,-y,-z
x,-y,1/2+z
1/2+x,1/2+y,z
1/2-x,1/2+y,1/2-z
1/2-x,1/2-y,-z
1/2+x,1/2-y,1/2+z
loop_
_atom_site_type_symbol
_atom_site_label
_atom_site_fract_x
_atom_site_fract_y
_atom_site_fract_z
Si Si1 0.211968 0.255953 0.373130
Si Si2 0.976375 0.374397 0.406348
Si Si3 0.239030 0.106820 0.511265
Si Si4 0.847396 0.927679 0.018443
Si Si5 0.838731 0.394377 0.695550
O O1 0.884869 0.291398 0.684586
O O2 0.293135 0.344795 0.366993
O O3 0.087111 0.095702 0.382019
O O4 0.047573 0.284818 0.405106
O O5 0.784266 0.370305 0.465334
O O6 0.882827 0.421166 0.560973
O O7 0.190159 0.415899 0.214759
O O8 0.218936 0.181577 0.447998
O O9 0.128228 0.021055 0.548467
O O10 0.480554 0.069738 0.361499
#
# Coordination Sequence:
#
# PCOD9299381 Si02
#       5
#     8   8   8   8   8
#     4  10  24  49  82 112 164 213 268 348 406 480
#     4  10  26  50  75 121 162 210 275 340 406 502
#     4  10  25  53  80 120 164 211 285 344 404 503
#     4  11  26  53  80 116 168 219 270 346 419 486
#     4  11  25  49  85 116 159 221 273 345 412 490
#
# _framework density 28.641660000000002
#
# number of rings (size 3 to 8) (size 9 to 14) (size 15 to 20)
#    0.000    1.600    0.000    1.200   11.200    4.800 
#    3.600   16.000    0.000    0.000    0.000    0.000 
#    0.000    0.000    0.000    0.000    0.000    0.000 
#
# Total GULP energy -111672.423492 kJ/mol
# GULP energy per Si atom -5583.621175 kJ/mol
# Density = 2.857647 g / cm^3
# Si number density = 28.641660 Si / 1000 Ang^3
#
#
#
# Elastic Constant Matrix: (Units=GPa)
#
#
# Indices 1 2 3 4 5 6 
#
# 1 260.6535 61.6568 63.4024 -0.0126 1.1591 0.0003
# 2 61.6568 126.2971 31.8189 -0.0163 13.9117 0.0091
# 3 63.4024 31.8189 146.4182 -0.0253 34.8660 0.0202
# 4 -0.0126 -0.0163 -0.0253 49.8813 0.0147 6.1975
# 5 1.1591 13.9117 34.8660 0.0147 47.5229 -0.0062
# 6 0.0003 0.0091 0.0202 6.1975 -0.0062 68.4527
#
#
#
# Elastic Compliance Matrix: (Units=1/GPa)
#
#
# Indices 1 2 3 4 5 6 
#
# 1 0.004831 -0.002046 -0.002135 -0.000001 0.002047 0.000001
# 2 -0.002046 0.009315 -0.000607 0.000003 -0.002232 -0.000002
# 3 -0.002135 -0.000607 0.009489 0.000007 -0.006732 -0.000004
# 4 -0.000001 0.000003 0.000007 0.020276 -0.000012 -0.001836
# 5 0.002047 -0.002232 -0.006732 -0.000012 0.026585 0.000006
# 6 0.000001 -0.000002 -0.000004 -0.001836 0.000006 0.014775
#
#
# Mechanical properties :
#
#
# Convention : Reuss Voigt Hill
#
# Bulk Modulus (GPa) = 71.12425 94.12500 82.62463
# Shear Modulus (GPa) = 50.23489 58.27076 54.25282
#
# Velocity S-wave (km/s) = 4.19251 4.51541 4.35695
# Velocity P-wave (km/s) = 6.95145 7.75368 7.36350
#
# Compressibility (1/GPa) = 0.01405990
#
# Stress axis : x y z
#
# Youngs Moduli (GPa) = 207.01319 107.34912 105.38412
#
# Poissons Ratio (x) = 0.21963 0.22496
# Poissons Ratio (y) = 0.42354 0.06397
# Poissons Ratio (z) = 0.44190 0.06516
#
# Static dielectric constant tensor:
#      x y z
#    x 2.131300 -0.000010 -0.178670 
#    y -0.000010 2.298900 0.000020 
#    z -0.178670 0.000020 2.438450 
# 
# From -- ./inp_files/97381.got.cif
#   From: 2010.05.17/outbox.cif.g08.bks.cpg/sg15_49_cif.got.tgz:97381.got - 2010.06.03 18:47:42.
