data_PCOD9299434
_publ_section_title
;
Structure prediction by ZEFSAII (Michael W. Deem and Ramdas Pophale) SiO2 
 PCOD9299434
Probable space group: C 2/C
;
_chemical_formula_sum "Si O2"
_cell_formula_units_Z 56
_cell_length_a 7.620277
_cell_length_b 27.041533
_cell_length_c 10.240447
_cell_angle_alpha 90.000000
_cell_angle_beta 78.248229
_cell_angle_gamma 90.000000
_cell_volume 2065.955925
_symmetry_space_group_name_H-M "C 2/C"
_symmetry_group_IT_number 15
_symmetry_cell_setting 'monoclinic'
loop_
_space_group_symop_operation_xyz
x,y,z
-x,y,1/2-z
-x,-y,-z
x,-y,1/2+z
1/2+x,1/2+y,z
1/2-x,1/2+y,1/2-z
1/2-x,1/2-y,-z
1/2+x,1/2-y,1/2+z
loop_
_atom_site_type_symbol
_atom_site_label
_atom_site_fract_x
_atom_site_fract_y
_atom_site_fract_z
Si Si1 0.326766 0.695034 0.007569
Si Si2 0.500000 0.846261 0.250000
Si Si3 0.807093 0.773719 0.130113
Si Si4 0.353523 0.087299 0.995510
Si Si5 0.500000 0.550228 0.750000
Si Si6 0.290352 0.971493 0.745239
Si Si7 0.244359 0.591450 0.999455
Si Si8 0.816369 0.666285 0.216998
O O1 0.518473 0.693398 0.914243
O O2 0.203457 0.649851 0.978954
O O3 0.250000 0.750000 0.000000
O O4 0.341075 0.676194 0.155333
O O5 0.658667 0.803807 0.231249
O O6 0.380556 0.886139 0.352475
O O7 0.865140 0.722612 0.184122
O O8 0.750000 0.750000 0.000000
O O9 0.258393 0.044754 0.098215
O O10 0.289274 0.134435 0.093106
O O11 0.558388 0.068025 0.983492
O O12 0.660308 0.517395 0.786289
O O13 0.409917 0.579037 0.882972
O O14 0.500000 0.981082 0.750000
O O15 0.230107 0.928215 0.856572
O O16 0.000000 0.643363 0.250000
#
# Coordination Sequence:
#
# PCOD9299434 Si02
#       8
#     8   4   8   8   4   8   8   8
#     4  12  25  42  77 108 147 204 257 309 380 468
#     4  12  28  44  63 110 158 197 264 320 392 460
#     4  12  26  42  63 103 154 197 256 326 377 446
#     4  11  23  48  72 103 149 204 248 315 399 473
#     4  12  28  48  81 124 156 187 268 334 404 482
#     4  10  24  53  83 108 152 206 254 320 408 480
#     4  11  25  47  77 114 151 196 262 323 382 479
#     4  12  21  42  70  98 139 205 255 303 379 471
#
# _framework density 27.106095
#
# number of rings (size 3 to 8) (size 9 to 14) (size 15 to 20)
#    0.000    0.571    5.714    1.714    4.000    3.429 
#    3.857    0.000    0.000    0.000    0.000    0.000 
#    0.000    0.000    0.000    0.000    0.000    0.000 
#
# Total GULP energy -156073.989347 kJ/mol
# GULP energy per Si atom -5574.071048 kJ/mol
# Density = 2.704440 g / cm^3
# Si number density = 27.106095 Si / 1000 Ang^3
#
#
#
# Elastic Constant Matrix: (Units=GPa)
#
#
# Indices 1 2 3 4 5 6 
#
# 1 53.2644 19.6117 9.4124 0.0000 -30.3166 0.0000
# 2 19.6117 130.2051 30.2911 0.0000 -16.3384 0.0000
# 3 9.4124 30.2911 131.2716 0.0000 -36.5990 0.0000
# 4 0.0000 0.0000 0.0000 31.6217 0.0000 -8.4491
# 5 -30.3166 -16.3384 -36.5990 0.0000 46.7908 0.0000
# 6 0.0000 0.0000 0.0000 -8.4491 0.0000 38.2211
#
#
#
# Elastic Compliance Matrix: (Units=1/GPa)
#
#
# Indices 1 2 3 4 5 6 
#
# 1 0.032736 -0.003089 0.005088 0.000000 0.024111 0.000000
# 2 -0.003089 0.008521 -0.001884 0.000000 -0.000500 0.000000
# 3 0.005088 -0.001884 0.010773 0.000000 0.011065 0.000000
# 4 0.000000 0.000000 0.000000 0.033609 0.000000 0.007430
# 5 0.024111 -0.000500 0.011065 0.000000 0.045474 0.000000
# 6 0.000000 0.000000 0.000000 0.007430 0.000000 0.027806
#
#
# Mechanical properties :
#
#
# Convention : Reuss Voigt Hill
#
# Bulk Modulus (GPa) = 19.13529 48.15239 33.64384
# Shear Modulus (GPa) = 28.39159 40.35512 34.37336
#
# Velocity S-wave (km/s) = 3.23990 3.86266 3.56491
# Velocity P-wave (km/s) = 4.59028 6.13975 5.42067
#
# Compressibility (1/GPa) = 0.05225946
#
# Stress axis : x y z
#
# Youngs Moduli (GPa) = 30.54748 117.35641 92.82773
#
# Poissons Ratio (x) = 0.36249 -0.47229
# Poissons Ratio (y) = 0.09436 0.17489
# Poissons Ratio (z) = -0.15542 0.22111
#
# Static dielectric constant tensor:
#      x y z
#    x 2.159210 0.000000 0.173330 
#    y 0.000000 2.243170 0.000000 
#    z 0.173330 0.000000 2.499900 
# 
# From -- ./inp_files/82503.got.cif
#   From: 2010.05.17/outbox.cif.g08.bks.cpg/sg15_42_cif.got.tgz:82503.got - 2010.06.03 18:47:42.
