data_PCOD9299847
_publ_section_title
;
Structure prediction by ZEFSAII (Michael W. Deem and Ramdas Pophale) SiO2 
 PCOD9299847
Probable space group: C 2/C
;
_chemical_formula_sum "Si O2"
_cell_formula_units_Z 40
_cell_length_a 7.777305
_cell_length_b 13.779288
_cell_length_c 28.340639
_cell_angle_alpha 90.000000
_cell_angle_beta 32.454963
_cell_angle_gamma 90.000000
_cell_volume 1629.842936
_symmetry_space_group_name_H-M "C 2/C"
_symmetry_group_IT_number 15
_symmetry_cell_setting 'monoclinic'
loop_
_space_group_symop_operation_xyz
x,y,z
-x,y,1/2-z
-x,-y,-z
x,-y,1/2+z
1/2+x,1/2+y,z
1/2-x,1/2+y,1/2-z
1/2-x,1/2-y,-z
1/2+x,1/2-y,1/2+z
loop_
_atom_site_type_symbol
_atom_site_label
_atom_site_fract_x
_atom_site_fract_y
_atom_site_fract_z
Si Si1 0.817351 0.423398 0.572788
Si Si2 0.569019 0.401268 0.178017
Si Si3 0.049898 0.737307 0.610867
Si Si4 0.662335 0.607976 0.468476
Si Si5 0.692102 0.779827 0.791263
O O1 0.571883 0.490052 0.658470
O O2 0.671957 0.344212 0.571953
O O3 0.000000 0.500000 0.500000
O O4 0.078506 0.386368 0.549510
O O5 0.500000 0.412669 0.250000
O O6 0.383013 0.334581 0.183081
O O7 0.878090 0.330890 0.113058
O O8 0.367393 0.677417 0.550094
O O9 0.812466 0.765167 0.709353
O O10 0.500000 0.500000 0.500000
O O11 0.887163 0.651589 0.373665
O O12 0.000000 0.810516 0.750000
#
# Coordination Sequence:
#
# PCOD9299847 Si02
#       5
#     8   8   8   8   8
#     4  12  26  41  72 106 143 190 249 307 375 449
#     4  10  25  47  70 105 147 194 246 313 372 449
#     4  11  25  47  73 104 146 195 248 303 382 443
#     4  12  26  47  76 108 151 198 247 314 381 450
#     4  11  25  45  76 104 148 194 250 309 375 453
#
# _framework density 24.542242000000002
#
# number of rings (size 3 to 8) (size 9 to 14) (size 15 to 20)
#    0.000    0.800    4.000    1.800    8.400    1.600 
#    0.000    3.000    0.000    0.000    0.000    0.000 
#    0.000    0.000    0.000    0.000    0.000    0.000 
#
# Total GULP energy -111423.636293 kJ/mol
# GULP energy per Si atom -5571.181815 kJ/mol
# Density = 2.448638 g / cm^3
# Si number density = 24.542242 Si / 1000 Ang^3
#
#
#
# Elastic Constant Matrix: (Units=GPa)
#
#
# Indices 1 2 3 4 5 6 
#
# 1 55.3385 14.7630 31.2685 -0.0097 -21.1478 0.0167
# 2 14.7630 149.8594 43.0509 0.0135 -14.5517 -0.0033
# 3 31.2685 43.0509 125.1064 0.0033 11.9314 0.0219
# 4 -0.0097 0.0135 0.0033 43.2052 0.0150 -0.5424
# 5 -21.1478 -14.5517 11.9314 0.0150 37.7085 -0.0142
# 6 0.0167 -0.0033 0.0219 -0.5424 -0.0142 22.5606
#
#
#
# Elastic Compliance Matrix: (Units=1/GPa)
#
#
# Indices 1 2 3 4 5 6 
#
# 1 0.032204 0.002131 -0.010912 0.000000 0.022336 0.000001
# 2 0.002131 0.008108 -0.003851 -0.000004 0.005543 0.000007
# 3 -0.010912 -0.003851 0.013169 0.000002 -0.011773 -0.000013
# 4 0.000000 -0.000004 0.000002 0.023152 -0.000011 0.000557
# 5 0.022336 0.005543 -0.011773 -0.000011 0.044910 0.000024
# 6 0.000001 0.000007 -0.000013 0.000557 0.000024 0.044338
#
#
# Mechanical properties :
#
#
# Convention : Reuss Voigt Hill
#
# Bulk Modulus (GPa) = 35.44196 56.49658 45.96927
# Shear Modulus (GPa) = 24.93147 36.77632 30.85390
#
# Velocity S-wave (km/s) = 3.19071 3.87523 3.54951
# Velocity P-wave (km/s) = 5.29592 6.56455 5.96406
#
# Compressibility (1/GPa) = 0.02821514
#
# Stress axis : x y z
#
# Youngs Moduli (GPa) = 31.05238 123.34248 75.93816
#
# Poissons Ratio (x) = -0.26288 0.82867
# Poissons Ratio (y) = -0.06618 0.29245
# Poissons Ratio (z) = 0.33886 0.47501
#
# Static dielectric constant tensor:
#      x y z
#    x 2.089180 -0.010850 0.001190 
#    y -0.010850 13.249650 0.005330 
#    z 0.001190 0.005330 2.048370 
# 
# From -- ./inp_files/308159.got.cif
#   From: 2010.05.17/outbox.cif.g08.bks.cpg/sg15_155_cif.got.tgz:308159.got - 2010.06.03 18:47:42.
