data_PCOD9299261
_publ_section_title
;
Structure prediction by ZEFSAII (Michael W. Deem and Ramdas Pophale) SiO2 
 PCOD9299261
Probable space group: C 2/C
;
_chemical_formula_sum "Si O2"
_cell_formula_units_Z 44
_cell_length_a 20.841586
_cell_length_b 11.592655
_cell_length_c 8.408070
_cell_angle_alpha 90.000000
_cell_angle_beta 127.799416
_cell_angle_gamma 90.000000
_cell_volume 1605.187347
_symmetry_space_group_name_H-M "C 2/C"
_symmetry_group_IT_number 15
_symmetry_cell_setting 'monoclinic'
loop_
_space_group_symop_operation_xyz
x,y,z
-x,y,1/2-z
-x,-y,-z
x,-y,1/2+z
1/2+x,1/2+y,z
1/2-x,1/2+y,1/2-z
1/2-x,1/2-y,-z
1/2+x,1/2-y,1/2+z
loop_
_atom_site_type_symbol
_atom_site_label
_atom_site_fract_x
_atom_site_fract_y
_atom_site_fract_z
Si Si1 0.282744 0.070663 0.152995
Si Si2 0.553219 0.832295 0.683020
Si Si3 0.899348 0.846915 0.653675
Si Si4 0.700479 0.836342 0.465234
Si Si5 0.888118 0.914346 0.280754
Si Si6 0.000000 0.667486 0.750000
O O1 0.353077 0.134053 0.160698
O O2 0.284491 0.114793 0.334444
O O3 0.306792 0.937008 0.175727
O O4 0.195811 0.093514 0.943586
O O5 0.500000 0.873192 0.750000
O O6 0.553886 0.692239 0.678861
O O7 0.524735 0.876985 0.466262
O O8 0.803835 0.807300 0.584753
O O9 0.869503 0.893492 0.436842
O O10 0.000000 0.817779 0.750000
O O11 0.918396 0.956518 0.795043
O O12 0.598640 0.803041 0.342541
#
# Coordination Sequence:
#
# PCOD9299261 Si02
#       6
#     8   8   8   8   8   4
#     4  12  26  51  76 113 156 203 264 324 398 468
#     4  11  27  48  79 114 156 218 261 325 393 473
#     4  11  25  45  72 113 159 198 256 327 387 463
#     4  12  27  47  76 114 151 200 252 329 386 462
#     4  11  24  45  77 113 153 200 260 327 391 459
#     4  10  24  48  70 110 164 194 270 318 386 482
#
# _framework density 27.411131999999998
#
# number of rings (size 3 to 8) (size 9 to 14) (size 15 to 20)
#    0.000    0.727    5.455    1.636    3.818    2.909 
#    1.636    1.818    0.000    0.000    0.000    0.000 
#    0.000    0.000    0.000    0.000    0.000    0.000 
#
# Total GULP energy -123205.714192 kJ/mol
# GULP energy per Si atom -5600.259736 kJ/mol
# Density = 2.734874 g / cm^3
# Si number density = 27.411132 Si / 1000 Ang^3
#
#
#
# Elastic Constant Matrix: (Units=GPa)
#
#
# Indices 1 2 3 4 5 6 
#
# 1 249.8159 59.0799 60.2380 0.0000 -1.7913 0.0000
# 2 59.0799 162.1643 41.0876 0.0000 -9.5991 0.0000
# 3 60.2380 41.0876 134.4965 0.0000 15.6854 0.0000
# 4 0.0000 0.0000 0.0000 33.8722 0.0000 -3.2868
# 5 -1.7913 -9.5991 15.6854 0.0000 49.1298 0.0000
# 6 0.0000 0.0000 0.0000 -3.2868 0.0000 55.5935
#
#
#
# Elastic Compliance Matrix: (Units=1/GPa)
#
#
# Indices 1 2 3 4 5 6 
#
# 1 0.004734 -0.001238 -0.001801 0.000000 0.000506 0.000000
# 2 -0.001238 0.007209 -0.001877 0.000000 0.001963 0.000000
# 3 -0.001801 -0.001877 0.009208 0.000000 -0.003372 0.000000
# 4 0.000000 0.000000 0.000000 0.029693 0.000000 0.001756
# 5 0.000506 0.001963 -0.003372 0.000000 0.021833 0.000000
# 6 0.000000 0.000000 0.000000 0.001756 0.000000 0.018091
#
#
# Mechanical properties :
#
#
# Convention : Reuss Voigt Hill
#
# Bulk Modulus (GPa) = 88.34136 96.36532 92.35334
# Shear Modulus (GPa) = 47.90493 53.45720 50.68107
#
# Velocity S-wave (km/s) = 4.18502 4.42090 4.30458
# Velocity P-wave (km/s) = 7.45994 7.82886 7.64662
#
# Compressibility (1/GPa) = 0.01131973
#
# Stress axis : x y z
#
# Youngs Moduli (GPa) = 211.25320 138.70748 108.59858
#
# Poissons Ratio (x) = 0.17177 0.19556
# Poissons Ratio (y) = 0.26161 0.20380
# Poissons Ratio (z) = 0.38041 0.26031
#
# Static dielectric constant tensor:
#      x y z
#    x 2.244550 0.000000 0.145610 
#    y 0.000000 2.142870 0.000000 
#    z 0.145610 0.000000 1.999230 
# 
# From -- ./inp_files/56293.got.cif
#   From: 2010.05.17/outbox.cif.g08.bks.cpg/sg15_29_cif.got.tgz:56293.got - 2010.06.03 18:47:42.
