data_PCOD9299452
_publ_section_title
;
Structure prediction by ZEFSAII (Michael W. Deem and Ramdas Pophale) SiO2 
 PCOD9299452
Probable space group: C 2/C
;
_chemical_formula_sum "Si O2"
_cell_formula_units_Z 32
_cell_length_a 11.766251
_cell_length_b 7.560490
_cell_length_c 25.649587
_cell_angle_alpha 90.000000
_cell_angle_beta 143.046024
_cell_angle_gamma 90.000000
_cell_volume 1371.728364
_symmetry_space_group_name_H-M "C 2/C"
_symmetry_group_IT_number 15
_symmetry_cell_setting 'monoclinic'
loop_
_space_group_symop_operation_xyz
x,y,z
-x,y,1/2-z
-x,-y,-z
x,-y,1/2+z
1/2+x,1/2+y,z
1/2-x,1/2+y,1/2-z
1/2-x,1/2-y,-z
1/2+x,1/2-y,1/2+z
loop_
_atom_site_type_symbol
_atom_site_label
_atom_site_fract_x
_atom_site_fract_y
_atom_site_fract_z
Si Si1 0.855886 0.125127 0.241667
Si Si2 0.304602 0.237087 0.834891
Si Si3 0.448756 0.069581 0.061027
Si Si4 0.814737 0.118786 0.441416
O O1 0.653853 0.411517 0.263382
O O2 0.640518 0.174431 0.147305
O O3 0.000000 0.186442 0.250000
O O4 0.114266 0.180806 0.188063
O O5 0.229323 0.361748 0.852431
O O6 0.472139 0.123332 0.924031
O O7 0.322980 0.037845 0.065927
O O8 0.349651 0.188461 0.981442
O O9 0.000000 0.000000 0.500000
#
# Coordination Sequence:
#
# PCOD9299452 Si02
#       4
#     8   8   8   8
#     4  10  25  40  64  90 125 161 204 252 304 360
#     4  10  25  40  65  90 124 160 204 250 304 364
#     4   9  25  41  62  94 121 159 207 247 309 360
#     4  11  24  41  66  89 126 161 202 255 303 359
#
# _framework density 23.328236
#
# number of rings (size 3 to 8) (size 9 to 14) (size 15 to 20)
#    1.500    0.500    0.000    0.750   10.500    3.000 
#    0.000    0.000    0.000    0.000    0.000    0.000 
#    0.000    0.000    0.000    0.000    0.000    0.000 
#
# Total GULP energy -89175.137657 kJ/mol
# GULP energy per Si atom -5573.446104 kJ/mol
# Density = 2.327514 g / cm^3
# Si number density = 23.328236 Si / 1000 Ang^3
#
#
#
# Elastic Constant Matrix: (Units=GPa)
#
#
# Indices 1 2 3 4 5 6 
#
# 1 208.1979 19.2957 29.4616 0.0000 -23.9249 0.0000
# 2 19.2957 38.4748 6.7580 0.0000 -13.9912 0.0000
# 3 29.4616 6.7580 33.4390 0.0000 -15.6512 0.0000
# 4 0.0000 0.0000 0.0000 20.7930 0.0000 -7.2014
# 5 -23.9249 -13.9912 -15.6512 0.0000 44.7042 0.0000
# 6 0.0000 0.0000 0.0000 -7.2014 0.0000 19.1685
#
#
#
# Elastic Compliance Matrix: (Units=1/GPa)
#
#
# Indices 1 2 3 4 5 6 
#
# 1 0.005672 -0.001737 -0.004162 0.000000 0.001035 0.000000
# 2 -0.001737 0.029968 -0.000683 0.000000 0.008210 0.000000
# 3 -0.004162 -0.000683 0.038950 0.000000 0.011195 0.000000
# 4 0.000000 0.000000 0.000000 0.055287 0.000000 0.020771
# 5 0.001035 0.008210 0.011195 0.000000 0.029412 0.000000
# 6 0.000000 0.000000 0.000000 0.020771 0.000000 0.059972
#
#
# Mechanical properties :
#
#
# Convention : Reuss Voigt Hill
#
# Bulk Modulus (GPa) = 16.27991 43.46026 29.87008
# Shear Modulus (GPa) = 19.77061 31.90624 25.83842
#
# Velocity S-wave (km/s) = 2.91434 3.70227 3.33168
# Velocity P-wave (km/s) = 4.27998 6.07833 5.25663
#
# Compressibility (1/GPa) = 0.06142541
#
# Stress axis : x y z
#
# Youngs Moduli (GPa) = 176.30530 33.36909 25.67387
#
# Poissons Ratio (x) = 0.05797 0.10685
# Poissons Ratio (y) = 0.30629 0.01754
# Poissons Ratio (z) = 0.73377 0.02279
#
# Static dielectric constant tensor:
#      x y z
#    x 1.843610 0.000000 0.036000 
#    y 0.000000 1.898680 0.000000 
#    z 0.036000 0.000000 1.920070 
# 
# From -- ./inp_files/229218.got.cif
#   From: 2010.05.17/outbox.cif.g08.bks.cpg/sg15_115_cif.got.tgz:229218.got - 2010.06.03 18:47:42.
