data_PCOD9299067
_publ_section_title
;
Structure prediction by ZEFSAII (Michael W. Deem and Ramdas Pophale) SiO2 
 PCOD9299067
Probable space group: C 2/C
;
_chemical_formula_sum "Si O2"
_cell_formula_units_Z 52
_cell_length_a 13.896654
_cell_length_b 13.282227
_cell_length_c 12.327240
_cell_angle_alpha 90.000000
_cell_angle_beta 84.025907
_cell_angle_gamma 90.000000
_cell_volume 2262.986368
_symmetry_space_group_name_H-M "C 2/C"
_symmetry_group_IT_number 15
_symmetry_cell_setting 'monoclinic'
loop_
_space_group_symop_operation_xyz
x,y,z
-x,y,1/2-z
-x,-y,-z
x,-y,1/2+z
1/2+x,1/2+y,z
1/2-x,1/2+y,1/2-z
1/2-x,1/2-y,-z
1/2+x,1/2-y,1/2+z
loop_
_atom_site_type_symbol
_atom_site_label
_atom_site_fract_x
_atom_site_fract_y
_atom_site_fract_z
Si Si1 0.169982 0.344303 0.278748
Si Si2 0.625352 0.080883 0.557074
Si Si3 0.860577 0.842226 0.403033
Si Si4 0.164204 0.431110 0.821370
Si Si5 0.970784 0.634698 0.409890
Si Si6 0.847455 0.126267 0.154870
Si Si7 0.500000 0.482416 0.250000
O O1 0.171817 0.357409 0.148968
O O2 0.271111 0.340029 0.330932
O O3 0.129357 0.453471 0.316011
O O4 0.121839 0.239562 0.315855
O O5 0.527233 0.129299 0.519340
O O6 0.694862 0.078631 0.443891
O O7 0.591799 0.967671 0.592679
O O8 0.905111 0.731416 0.409975
O O9 0.832158 0.122938 0.027456
O O10 0.939169 0.914226 0.339628
O O11 0.249751 0.401940 0.731828
O O12 0.067204 0.365289 0.823025
O O13 0.927927 0.050053 0.187564
#
# Coordination Sequence:
#
# PCOD9299067 Si02
#       7
#     8   8   8   8   8   8   4
#     4  12  27  44  82 109 154 197 252 316 386 450
#     4   9  23  48  77 116 149 194 257 318 384 442
#     4  12  28  50  76 112 151 207 252 308 390 464
#     4  10  24  46  76 113 147 198 252 326 372 445
#     4   9  23  48  82 112 151 194 265 326 369 454
#     4  12  29  49  73 111 156 196 257 314 385 460
#     4  12  30  50  76 104 156 212 244 314 382 468
#
# _framework density 22.978486
#
# number of rings (size 3 to 8) (size 9 to 14) (size 15 to 20)
#    0.923    0.308    1.538    1.846    8.615    1.231 
#    2.769    0.000    0.000    0.000    0.000    0.000 
#    0.000    0.000    0.000    0.000    0.000    0.000 
#
# Total GULP energy -145424.800294 kJ/mol
# GULP energy per Si atom -5593.261550 kJ/mol
# Density = 2.292619 g / cm^3
# Si number density = 22.978486 Si / 1000 Ang^3
#
#
#
# Elastic Constant Matrix: (Units=GPa)
#
#
# Indices 1 2 3 4 5 6 
#
# 1 110.6833 50.8257 77.8667 0.0000 4.2023 0.0000
# 2 50.8257 112.6198 79.9624 0.0000 4.2893 0.0000
# 3 77.8667 79.9624 178.5822 0.0000 12.7086 0.0000
# 4 0.0000 0.0000 0.0000 28.4081 0.0000 -1.1310
# 5 4.2023 4.2893 12.7086 0.0000 49.8530 0.0000
# 6 0.0000 0.0000 0.0000 -1.1310 0.0000 33.9865
#
#
#
# Elastic Compliance Matrix: (Units=1/GPa)
#
#
# Indices 1 2 3 4 5 6 
#
# 1 0.013625 -0.002826 -0.004697 0.000000 0.000292 0.000000
# 2 -0.002826 0.013611 -0.004885 0.000000 0.000312 0.000000
# 3 -0.004697 -0.004885 0.009957 0.000000 -0.001722 0.000000
# 4 0.000000 0.000000 0.000000 0.035248 0.000000 0.001173
# 5 0.000292 0.000312 -0.001722 0.000000 0.020447 0.000000
# 6 0.000000 0.000000 0.000000 0.001173 0.000000 0.029462
#
#
# Mechanical properties :
#
#
# Convention : Reuss Voigt Hill
#
# Bulk Modulus (GPa) = 80.77671 91.02166 85.89918
# Shear Modulus (GPa) = 33.04895 35.33154 34.19024
#
# Velocity S-wave (km/s) = 3.79655 3.92547 3.86155
# Velocity P-wave (km/s) = 7.37888 7.76166 7.57269
#
# Compressibility (1/GPa) = 0.01237981
#
# Stress axis : x y z
#
# Youngs Moduli (GPa) = 73.39284 73.47025 100.42968
#
# Poissons Ratio (x) = 0.20760 0.47168
# Poissons Ratio (y) = 0.20738 0.49056
# Poissons Ratio (z) = 0.34469 0.35888
#
# Static dielectric constant tensor:
#      x y z
#    x 1.836280 0.000000 -0.009010 
#    y 0.000000 1.836170 0.000000 
#    z -0.009010 0.000000 1.971440 
# 
# From -- ./inp_files/203580.got.cif
#   From: 2010.05.17/outbox.cif.g08.bks.cpg/sg15_102_cif.got.tgz:203580.got - 2010.06.03 18:47:42.
