data_PCOD9299245
_publ_section_title
;
Structure prediction by ZEFSAII (Michael W. Deem and Ramdas Pophale) SiO2 
 PCOD9299245
Probable space group: C 2/C
;
_chemical_formula_sum "Si O2"
_cell_formula_units_Z 52
_cell_length_a 25.414388
_cell_length_b 11.087797
_cell_length_c 9.125921
_cell_angle_alpha 90.000000
_cell_angle_beta 120.404308
_cell_angle_gamma 90.000000
_cell_volume 2217.933159
_symmetry_space_group_name_H-M "C 2/C"
_symmetry_group_IT_number 15
_symmetry_cell_setting 'monoclinic'
loop_
_space_group_symop_operation_xyz
x,y,z
-x,y,1/2-z
-x,-y,-z
x,-y,1/2+z
1/2+x,1/2+y,z
1/2-x,1/2+y,1/2-z
1/2-x,1/2-y,-z
1/2+x,1/2-y,1/2+z
loop_
_atom_site_type_symbol
_atom_site_label
_atom_site_fract_x
_atom_site_fract_y
_atom_site_fract_z
Si Si1 0.960579 0.077550 0.330363
Si Si2 0.860739 0.224856 0.344663
Si Si3 0.877142 0.143795 0.692208
Si Si4 0.925382 0.633267 0.392318
Si Si5 0.273739 0.499478 0.694897
Si Si6 0.689364 0.020910 0.825920
Si Si7 0.000000 0.487835 0.250000
O O1 0.924008 0.180911 0.363374
O O2 0.000000 0.121028 0.250000
O O3 0.911379 0.980096 0.199370
O O4 0.000000 0.000000 0.500000
O O5 0.865161 0.217706 0.526854
O O6 0.842727 0.353973 0.258208
O O7 0.810060 0.125306 0.231460
O O8 0.920046 0.225117 0.855343
O O9 0.816497 0.105182 0.693573
O O10 0.856544 0.583623 0.284719
O O11 0.962523 0.570492 0.311570
O O12 0.955684 0.592132 0.586321
O O13 0.254298 0.517753 0.834451
O O14 0.209491 0.493640 0.521017
#
# Coordination Sequence:
#
# PCOD9299245 Si02
#       7
#     8   8   8   8   8   8   4
#     4  11  24  46  71 101 135 182 236 293 351 418
#     4  11  24  44  70 103 139 184 238 287 359 421
#     4  11  24  44  73 102 139 188 231 291 361 424
#     4  11  25  46  74 104 141 188 239 287 361 422
#     4  11  25  45  69 102 142 181 235 293 353 417
#     4  12  25  45  71 101 140 185 233 290 348 427
#     4  10  24  48  68 106 148 180 236 298 344 426
#
# _framework density 23.445253000000001
#
# number of rings (size 3 to 8) (size 9 to 14) (size 15 to 20)
#    0.000    0.923    3.077    3.231    3.231    3.692 
#   11.077    0.000    0.000    0.000    0.000    0.000 
#    0.000    0.000    0.000    0.000    0.000    0.000 
#
# Total GULP energy -145717.611522 kJ/mol
# GULP energy per Si atom -5604.523520 kJ/mol
# Density = 2.339189 g / cm^3
# Si number density = 23.445253 Si / 1000 Ang^3
#
#
#
# Elastic Constant Matrix: (Units=GPa)
#
#
# Indices 1 2 3 4 5 6 
#
# 1 110.6055 17.1079 1.2051 0.0000 -13.0800 0.0000
# 2 17.1079 90.5197 0.2523 0.0000 -2.8739 0.0000
# 3 1.2051 0.2523 88.7149 0.0000 0.2869 0.0000
# 4 0.0000 0.0000 0.0000 30.0685 0.0000 8.8600
# 5 -13.0800 -2.8739 0.2869 0.0000 33.1092 0.0000
# 6 0.0000 0.0000 0.0000 8.8600 0.0000 20.5796
#
#
#
# Elastic Compliance Matrix: (Units=1/GPa)
#
#
# Indices 1 2 3 4 5 6 
#
# 1 0.009747 -0.001724 -0.000139 0.000000 0.003702 0.000000
# 2 -0.001724 0.011383 -0.000010 0.000000 0.000307 0.000000
# 3 -0.000139 -0.000010 0.011274 0.000000 -0.000154 0.000000
# 4 0.000000 0.000000 0.000000 0.038089 0.000000 -0.016398
# 5 0.003702 0.000307 -0.000154 0.000000 0.031694 0.000000
# 6 0.000000 0.000000 0.000000 -0.016398 0.000000 0.055652
#
#
# Mechanical properties :
#
#
# Convention : Reuss Voigt Hill
#
# Bulk Modulus (GPa) = 34.89514 36.33008 35.61261
# Shear Modulus (GPa) = 29.21600 34.83644 32.02622
#
# Velocity S-wave (km/s) = 3.53390 3.85887 3.69995
# Velocity P-wave (km/s) = 5.61847 5.94843 5.78581
#
# Compressibility (1/GPa) = 0.02865729
#
# Stress axis : x y z
#
# Youngs Moduli (GPa) = 102.59373 87.85054 88.69582
#
# Poissons Ratio (x) = 0.15148 0.01237
# Poissons Ratio (y) = 0.17690 0.00088
# Poissons Ratio (z) = 0.01431 0.00087
#
# Static dielectric constant tensor:
#      x y z
#    x 1.856930 0.000000 0.026790 
#    y 0.000000 1.828810 0.000000 
#    z 0.026790 0.000000 1.853430 
# 
# From -- ./inp_files/65620.got.cif
#   From: 2010.05.17/outbox.cif.g08.bks.cpg/sg15_33_cif.got.tgz:65620.got - 2010.06.03 18:47:42.
