data_PCOD9299253
_publ_section_title
;
Structure prediction by ZEFSAII (Michael W. Deem and Ramdas Pophale) SiO2 
 PCOD9299253
Probable space group: C 2/C
;
_chemical_formula_sum "Si O2"
_cell_formula_units_Z 52
_cell_length_a 13.844847
_cell_length_b 9.141401
_cell_length_c 26.448331
_cell_angle_alpha 90.000000
_cell_angle_beta 129.364571
_cell_angle_gamma 90.000000
_cell_volume 2587.911511
_symmetry_space_group_name_H-M "C 2/C"
_symmetry_group_IT_number 15
_symmetry_cell_setting 'monoclinic'
loop_
_space_group_symop_operation_xyz
x,y,z
-x,y,1/2-z
-x,-y,-z
x,-y,1/2+z
1/2+x,1/2+y,z
1/2-x,1/2+y,1/2-z
1/2-x,1/2-y,-z
1/2+x,1/2-y,1/2+z
loop_
_atom_site_type_symbol
_atom_site_label
_atom_site_fract_x
_atom_site_fract_y
_atom_site_fract_z
Si Si1 0.435920 0.960832 0.832637
Si Si2 0.242798 0.296524 0.656802
Si Si3 0.309923 0.822215 0.569682
Si Si4 0.550058 0.148292 0.954192
Si Si5 0.000000 0.617821 0.750000
Si Si6 0.370319 0.584258 0.961241
Si Si7 0.312855 0.939812 0.435702
O O1 0.312356 0.872617 0.810162
O O2 0.544821 0.849962 0.884526
O O3 0.473627 0.105042 0.878752
O O4 0.458645 0.013895 0.783171
O O5 0.379018 0.222836 0.703187
O O6 0.158135 0.174564 0.599629
O O7 0.232868 0.432276 0.615491
O O8 0.250000 0.750000 0.500000
O O9 0.284451 0.689771 0.599409
O O10 0.237967 0.966636 0.564489
O O11 0.443849 0.131474 0.961909
O O12 0.614572 0.302357 0.986815
O O13 0.652130 0.023180 0.000671
O O14 0.500000 0.500000 0.000000
#
# Coordination Sequence:
#
# PCOD9299253 Si02
#       7
#     8   8   8   8   4   8   8
#     4  11  24  45  68  96 137 175 229 288 340 403
#     4  10  24  48  69  93 134 182 226 285 345 414
#     4  12  21  35  63 105 140 166 215 280 343 413
#     4   9  18  36  63  93 131 172 206 274 340 397
#     4  12  26  52  68  94 138 188 242 284 334 414
#     4  11  20  36  68 104 137 173 222 281 356 418
#     4   9  18  36  63  94 132 163 212 273 339 401
#
# _framework density 20.093423000000001
#
# number of rings (size 3 to 8) (size 9 to 14) (size 15 to 20)
#    0.000    1.538    4.615    1.846    0.000    1.846 
#   11.077    0.000    0.000    0.000    0.000    0.000 
#    0.000    0.000    0.000    0.000    0.000    0.000 
#
# Total GULP energy -144787.581570 kJ/mol
# GULP energy per Si atom -5568.753137 kJ/mol
# Density = 2.004769 g / cm^3
# Si number density = 20.093423 Si / 1000 Ang^3
#
#
#
# Elastic Constant Matrix: (Units=GPa)
#
#
# Indices 1 2 3 4 5 6 
#
# 1 83.1887 34.5029 33.6545 0.0000 1.6881 0.0000
# 2 34.5029 115.8281 27.5468 0.0000 0.3881 0.0000
# 3 33.6545 27.5468 61.4455 0.0000 2.0469 0.0000
# 4 0.0000 0.0000 0.0000 15.8478 0.0000 8.8283
# 5 1.6881 0.3881 2.0469 0.0000 36.7568 0.0000
# 6 0.0000 0.0000 0.0000 8.8283 0.0000 35.8514
#
#
#
# Elastic Compliance Matrix: (Units=1/GPa)
#
#
# Indices 1 2 3 4 5 6 
#
# 1 0.016366 -0.003072 -0.007577 0.000000 -0.000297 0.000000
# 2 -0.003072 0.010241 -0.002915 0.000000 0.000195 0.000000
# 3 -0.007577 -0.002915 0.021759 0.000000 -0.000833 0.000000
# 4 0.000000 0.000000 0.000000 0.073132 0.000000 -0.018009
# 5 -0.000297 0.000195 -0.000833 0.000000 0.027264 0.000000
# 6 0.000000 0.000000 0.000000 -0.018009 0.000000 0.032327
#
#
# Mechanical properties :
#
#
# Convention : Reuss Voigt Hill
#
# Bulk Modulus (GPa) = 47.08448 50.20784 48.64616
# Shear Modulus (GPa) = 23.22358 28.67505 25.94932
#
# Velocity S-wave (km/s) = 3.40336 3.78178 3.59755
# Velocity P-wave (km/s) = 6.23919 6.64158 6.44353
#
# Compressibility (1/GPa) = 0.02123842
#
# Stress axis : x y z
#
# Youngs Moduli (GPa) = 61.10079 97.64410 45.95766
#
# Poissons Ratio (x) = 0.29999 0.34821
# Poissons Ratio (y) = 0.18772 0.13397
# Poissons Ratio (z) = 0.46295 0.28464
#
# Static dielectric constant tensor:
#      x y z
#    x 1.851040 0.000000 -0.063920 
#    y 0.000000 1.758110 0.000000 
#    z -0.063920 0.000000 1.741570 
# 
# From -- ./inp_files/295281.got.cif
#   From: 2010.05.17/outbox.cif.g08.bks.cpg/sg15_148_cif.got.tgz:295281.got - 2010.06.03 18:47:42.
