data_PCOD9299471
_publ_section_title
;
Structure prediction by ZEFSAII (Michael W. Deem and Ramdas Pophale) SiO2 
 PCOD9299471
Probable space group: C 2/C
;
_chemical_formula_sum "Si O2"
_cell_formula_units_Z 56
_cell_length_a 6.003304
_cell_length_b 20.985521
_cell_length_c 20.088162
_cell_angle_alpha 90.000000
_cell_angle_beta 72.611569
_cell_angle_gamma 90.000000
_cell_volume 2415.102302
_symmetry_space_group_name_H-M "C 2/C"
_symmetry_group_IT_number 15
_symmetry_cell_setting 'monoclinic'
loop_
_space_group_symop_operation_xyz
x,y,z
-x,y,1/2-z
-x,-y,-z
x,-y,1/2+z
1/2+x,1/2+y,z
1/2-x,1/2+y,1/2-z
1/2-x,1/2-y,-z
1/2+x,1/2-y,1/2+z
loop_
_atom_site_type_symbol
_atom_site_label
_atom_site_fract_x
_atom_site_fract_y
_atom_site_fract_z
Si Si1 0.359557 0.045430 0.824788
Si Si2 0.366864 0.750003 0.383131
Si Si3 0.580175 0.124034 0.420499
Si Si4 0.706573 0.167583 0.180635
Si Si5 0.421176 0.124028 0.579500
Si Si6 0.067840 0.832425 0.319366
Si Si7 0.990875 0.954563 0.824785
O O1 0.500000 0.015202 0.750000
O O2 0.509088 0.068670 0.874392
O O3 0.251238 0.110156 0.805567
O O4 0.140346 0.999995 0.859658
O O5 0.244631 0.685924 0.421203
O O6 0.623355 0.727529 0.339308
O O7 0.412953 0.814084 0.421201
O O8 0.198024 0.772476 0.339307
O O9 0.394159 0.146584 0.381967
O O10 0.460620 0.104358 0.499999
O O11 0.742136 0.068679 0.374389
O O12 0.500000 0.176895 0.250000
O O13 0.862360 0.110163 0.194439
O O14 0.158099 0.146579 0.618032
O O15 0.000000 0.823117 0.250000
O O16 0.000000 0.984794 0.750000
#
# Coordination Sequence:
#
# PCOD9299471 Si02
#       7
#     8   8   8   8   8   8   8
#     4  11  24  44  73  99 132 179 233 288 348 416
#     4  10  25  41  66  98 142 184 230 280 342 416
#     4  11  25  44  67 101 140 179 226 284 353 413
#     4  11  23  43  66 101 137 183 238 284 342 412
#     4  11  25  44  67 101 140 179 226 284 353 413
#     4  11  23  43  66 101 137 183 238 284 342 412
#     4  11  24  44  73  99 132 179 233 288 348 416
#
# _framework density 23.187422000000002
#
# number of rings (size 3 to 8) (size 9 to 14) (size 15 to 20)
#    0.000    1.143    2.857    2.143    0.000   10.857 
#    0.000    1.429    0.000    0.000    0.000    0.000 
#    0.000    0.000    0.000    0.000    0.000    0.000 
#
# Total GULP energy -156740.415162 kJ/mol
# GULP energy per Si atom -5597.871970 kJ/mol
# Density = 2.313465 g / cm^3
# Si number density = 23.187422 Si / 1000 Ang^3
#
#
#
# Elastic Constant Matrix: (Units=GPa)
#
#
# Indices 1 2 3 4 5 6 
#
# 1 135.6454 23.8238 80.2962 0.0000 0.1847 0.0000
# 2 23.8238 80.3146 16.9101 0.0000 0.4109 0.0000
# 3 80.2962 16.9101 176.3160 0.0000 -2.5944 0.0000
# 4 0.0000 0.0000 0.0000 3.9402 0.0000 3.7732
# 5 0.1847 0.4109 -2.5944 0.0000 26.2904 0.0000
# 6 0.0000 0.0000 0.0000 3.7732 0.0000 67.5517
#
#
#
# Elastic Compliance Matrix: (Units=1/GPa)
#
#
# Indices 1 2 3 4 5 6 
#
# 1 0.010448 -0.002136 -0.004560 0.000000 -0.000490 0.000000
# 2 -0.002136 0.013147 -0.000291 0.000000 -0.000219 0.000000
# 3 -0.004560 -0.000291 0.007788 0.000000 0.000805 0.000000
# 4 0.000000 0.000000 0.000000 0.268139 0.000000 -0.014977
# 5 -0.000490 -0.000219 0.000805 0.000000 0.038123 0.000000
# 6 0.000000 0.000000 0.000000 -0.014977 0.000000 0.015640
#
#
# Mechanical properties :
#
#
# Convention : Reuss Voigt Hill
#
# Bulk Modulus (GPa) = 57.44741 70.48181 63.96461
# Shear Modulus (GPa) = 13.40256 37.63951 25.52103
#
# Velocity S-wave (km/s) = 2.40679 4.03336 3.32119
# Velocity P-wave (km/s) = 5.70549 7.22172 6.50791
#
# Compressibility (1/GPa) = 0.01740723
#
# Stress axis : x y z
#
# Youngs Moduli (GPa) = 95.71666 76.06185 128.39969
#
# Poissons Ratio (x) = 0.16250 0.58553
# Poissons Ratio (y) = 0.20449 0.03739
# Poissons Ratio (z) = 0.43649 0.02215
#
# Static dielectric constant tensor:
#      x y z
#    x 1.906010 0.000000 0.004650 
#    y 0.000000 1.904820 0.000000 
#    z 0.004650 0.000000 1.827600 
# 
# From -- ./inp_files/227862.got.cif
#   From: 2010.05.17/outbox.cif.g08.bks.cpg/sg15_114_cif.got.tgz:227862.got - 2010.06.03 18:47:42.
