data_PCOD9299674
_publ_section_title
;
Structure prediction by ZEFSAII (Michael W. Deem and Ramdas Pophale) SiO2 
 PCOD9299674
Probable space group: C 2/C
;
_chemical_formula_sum "Si O2"
_cell_formula_units_Z 56
_cell_length_a 29.512730
_cell_length_b 5.849772
_cell_length_c 15.396063
_cell_angle_alpha 90.000000
_cell_angle_beta 62.915078
_cell_angle_gamma 90.000000
_cell_volume 2366.520692
_symmetry_space_group_name_H-M "C 2/C"
_symmetry_group_IT_number 15
_symmetry_cell_setting 'monoclinic'
loop_
_space_group_symop_operation_xyz
x,y,z
-x,y,1/2-z
-x,-y,-z
x,-y,1/2+z
1/2+x,1/2+y,z
1/2-x,1/2+y,1/2-z
1/2-x,1/2-y,-z
1/2+x,1/2-y,1/2+z
loop_
_atom_site_type_symbol
_atom_site_label
_atom_site_fract_x
_atom_site_fract_y
_atom_site_fract_z
Si Si1 0.464018 0.570834 0.110571
Si Si2 0.608676 0.753031 0.209421
Si Si3 0.384315 0.940312 0.963503
Si Si4 0.200178 0.154357 0.385933
Si Si5 0.043811 0.900579 0.160900
Si Si6 0.798262 0.579455 0.788018
Si Si7 0.627349 0.272377 0.366017
O O1 0.426701 0.778527 0.173222
O O2 0.506679 0.581383 0.148314
O O3 0.421307 0.372081 0.140641
O O4 0.500000 0.500000 0.000000
O O5 0.607388 0.948611 0.137749
O O6 0.586399 0.529661 0.179817
O O7 0.666928 0.743320 0.189562
O O8 0.427967 0.751280 0.934076
O O9 0.388011 0.119196 0.037965
O O10 0.330139 0.814597 0.021249
O O11 0.218592 0.308261 0.288509
O O12 0.248479 0.015904 0.378164
O O13 0.159589 0.979300 0.379924
O O14 0.000000 0.758779 0.250000
O O15 0.836642 0.375259 0.728242
#
# Coordination Sequence:
#
# PCOD9299674 Si02
#       7
#     8   8   8   8   8   8   8
#     4  11  23  43  70  98 140 182 234 299 341 413
#     4  11  25  44  67 104 143 186 230 288 361 425
#     4  11  25  43  70 102 145 188 234 292 359 437
#     4  11  22  45  70 103 141 180 237 299 355 420
#     4  10  25  45  64  98 147 185 228 297 351 413
#     4  11  24  42  76 100 136 187 233 301 359 425
#     4  11  24  44  70 103 137 181 245 290 351 431
#
# _framework density 23.663433000000001
#
# number of rings (size 3 to 8) (size 9 to 14) (size 15 to 20)
#    0.000    1.143    2.857    2.571    6.000    4.000 
#    0.000    2.857    0.000    0.000    0.000    0.000 
#    0.000    0.000    0.000    0.000    0.000    0.000 
#
# Total GULP energy -156253.870654 kJ/mol
# GULP energy per Si atom -5580.495380 kJ/mol
# Density = 2.360957 g / cm^3
# Si number density = 23.663433 Si / 1000 Ang^3
#
#
#
# Elastic Constant Matrix: (Units=GPa)
#
#
# Indices 1 2 3 4 5 6 
#
# 1 129.5400 34.2678 48.9403 0.0000 -16.3940 0.0000
# 2 34.2678 73.9515 47.0135 0.0001 -15.8502 0.0001
# 3 48.9403 47.0135 101.3595 0.0000 -16.8256 0.0000
# 4 0.0000 0.0001 0.0000 46.5432 0.0000 -5.3759
# 5 -16.3940 -15.8502 -16.8256 0.0000 29.1513 0.0000
# 6 0.0000 0.0001 0.0000 -5.3759 0.0000 28.4670
#
#
#
# Elastic Compliance Matrix: (Units=1/GPa)
#
#
# Indices 1 2 3 4 5 6 
#
# 1 0.009836 -0.001790 -0.003497 0.000000 0.002540 0.000000
# 2 -0.001790 0.020451 -0.007678 0.000000 0.005681 0.000000
# 3 -0.003497 -0.007678 0.015590 0.000000 0.002857 0.000000
# 4 0.000000 0.000000 0.000000 0.021964 0.000000 0.004148
# 5 0.002540 0.005681 0.002857 0.000000 0.040470 0.000000
# 6 0.000000 0.000000 0.000000 0.004148 0.000000 0.035912
#
#
# Mechanical properties :
#
#
# Convention : Reuss Voigt Hill
#
# Bulk Modulus (GPa) = 50.13675 62.81047 56.47361
# Shear Modulus (GPa) = 28.28014 32.47428 30.37721
#
# Velocity S-wave (km/s) = 3.46077 3.70853 3.58679
# Velocity P-wave (km/s) = 6.09940 6.70362 6.40863
#
# Compressibility (1/GPa) = 0.01994545
#
# Stress axis : x y z
#
# Youngs Moduli (GPa) = 101.66913 48.89761 64.14322
#
# Poissons Ratio (x) = 0.08753 0.22432
# Poissons Ratio (y) = 0.18200 0.49251
# Poissons Ratio (z) = 0.35556 0.37545
#
# Static dielectric constant tensor:
#      x y z
#    x 1.876340 0.000000 0.044030 
#    y 0.000000 1.922230 0.000000 
#    z 0.044030 0.000000 2.021270 
# 
# From -- ./inp_files/223819.got.cif
#   From: 2010.05.17/outbox.cif.g08.bks.cpg/sg15_112_cif.got.tgz:223819.got - 2010.06.03 18:47:42.
