data_PCOD9299223
_publ_section_title
;
Structure prediction by ZEFSAII (Michael W. Deem and Ramdas Pophale) SiO2 
 PCOD9299223
Probable space group: C 2/C
;
_chemical_formula_sum "Si O2"
_cell_formula_units_Z 56
_cell_length_a 23.398175
_cell_length_b 8.365019
_cell_length_c 13.853497
_cell_angle_alpha 90.000000
_cell_angle_beta 107.817295
_cell_angle_gamma 90.000000
_cell_volume 2581.440934
_symmetry_space_group_name_H-M "C 2/C"
_symmetry_group_IT_number 15
_symmetry_cell_setting 'monoclinic'
loop_
_space_group_symop_operation_xyz
x,y,z
-x,y,1/2-z
-x,-y,-z
x,-y,1/2+z
1/2+x,1/2+y,z
1/2-x,1/2+y,1/2-z
1/2-x,1/2-y,-z
1/2+x,1/2-y,1/2+z
loop_
_atom_site_type_symbol
_atom_site_label
_atom_site_fract_x
_atom_site_fract_y
_atom_site_fract_z
Si Si1 0.402698 0.587108 0.742258
Si Si2 0.820198 0.067383 0.352078
Si Si3 0.178197 0.247309 0.957375
Si Si4 0.735651 0.230804 0.844739
Si Si5 0.000000 0.336457 0.750000
Si Si6 0.500000 0.332248 0.750000
Si Si7 0.162228 0.617358 0.983208
Si Si8 0.029109 0.414204 0.422607
O O1 0.372470 0.524689 0.823388
O O2 0.349522 0.657138 0.648366
O O3 0.451440 0.727023 0.778647
O O4 0.441200 0.443931 0.714408
O O5 0.843313 0.150856 0.460150
O O6 0.793159 0.200858 0.266666
O O7 0.767768 0.940128 0.348807
O O8 0.161438 0.431959 0.954885
O O9 0.250000 0.250000 0.000000
O O10 0.685530 0.215701 0.902331
O O11 0.788044 0.347958 0.909963
O O12 0.033112 0.446729 0.844221
O O13 0.505183 0.223505 0.656137
O O14 0.094820 0.654922 0.979948
O O15 0.000000 0.500000 0.500000
#
# Coordination Sequence:
#
# PCOD9299223 Si02
#       8
#     8   8   8   8   4   4   8   8
#     4  11  25  45  70  98 143 181 231 292 341 418
#     4  12  26  41  72 104 136 184 234 275 355 428
#     4  12  24  46  69 104 141 183 224 290 352 415
#     4  11  25  43  68 106 137 182 226 285 355 423
#     4  10  24  48  64 102 134 182 228 282 358 388
#     4  10  26  46  68 100 140 180 234 294 348 408
#     4  11  24  45  70  96 146 177 226 292 350 412
#     4  11  25  44  72 100 131 183 235 287 348 419
#
# _framework density 21.693308999999999
#
# number of rings (size 3 to 8) (size 9 to 14) (size 15 to 20)
#    0.000    0.857    2.857    3.429    8.000    0.000 
#    2.571    2.857    0.000    0.000    0.000    0.000 
#    0.000    0.000    0.000    0.000    0.000    0.000 
#
# Total GULP energy -156610.495193 kJ/mol
# GULP energy per Si atom -5593.231971 kJ/mol
# Density = 2.164393 g / cm^3
# Si number density = 21.693309 Si / 1000 Ang^3
#
#
#
# Elastic Constant Matrix: (Units=GPa)
#
#
# Indices 1 2 3 4 5 6 
#
# 1 59.7215 6.4363 13.0381 0.0000 16.9199 0.0000
# 2 6.4363 78.7827 11.6687 0.0000 11.3523 0.0000
# 3 13.0381 11.6687 46.2333 0.0000 2.3118 0.0000
# 4 0.0000 0.0000 0.0000 25.9247 0.0000 -6.2764
# 5 16.9199 11.3523 2.3118 0.0000 29.7421 0.0000
# 6 0.0000 0.0000 0.0000 -6.2764 0.0000 29.7823
#
#
#
# Elastic Compliance Matrix: (Units=1/GPa)
#
#
# Indices 1 2 3 4 5 6 
#
# 1 0.021274 0.000819 -0.005607 0.000000 -0.011979 0.000000
# 2 0.000819 0.013935 -0.003472 0.000000 -0.005515 0.000000
# 3 -0.005607 -0.003472 0.023954 0.000000 0.002653 0.000000
# 4 0.000000 0.000000 0.000000 0.040647 0.000000 0.008566
# 5 -0.011979 -0.005515 0.002653 0.000000 0.042336 0.000000
# 6 0.000000 0.000000 0.000000 0.008566 0.000000 0.035382
#
#
# Mechanical properties :
#
#
# Convention : Reuss Voigt Hill
#
# Bulk Modulus (GPa) = 23.45084 27.44710 25.44897
# Shear Modulus (GPa) = 24.00796 27.32945 25.66871
#
# Velocity S-wave (km/s) = 3.33032 3.55323 3.44358
# Velocity P-wave (km/s) = 5.06178 5.43265 5.25049
#
# Compressibility (1/GPa) = 0.04264240
#
# Stress axis : x y z
#
# Youngs Moduli (GPa) = 47.00541 71.76078 41.74611
#
# Poissons Ratio (x) = -0.05874 0.23407
# Poissons Ratio (y) = -0.03848 0.14495
# Poissons Ratio (z) = 0.26356 0.24917
#
# Static dielectric constant tensor:
#      x y z
#    x 1.808940 0.000000 0.018020 
#    y 0.000000 1.796180 0.000000 
#    z 0.018020 0.000000 1.745850 
# 
# From -- ./inp_files/172006.got.cif
#   From: 2010.05.17/outbox.cif.g08.bks.cpg/sg15_87_cif.got.tgz:172006.got - 2010.06.03 18:47:42.
