data_PCOD9299098
_publ_section_title
;
Structure prediction by ZEFSAII (Michael W. Deem and Ramdas Pophale) SiO2 
 PCOD9299098
Probable space group: C 2/C
;
_chemical_formula_sum "Si O2"
_cell_formula_units_Z 20
_cell_length_a 4.952218
_cell_length_b 21.595999
_cell_length_c 7.803660
_cell_angle_alpha 90.000000
_cell_angle_beta 69.729327
_cell_angle_gamma 90.000000
_cell_volume 782.897613
_symmetry_space_group_name_H-M "C 2/C"
_symmetry_group_IT_number 15
_symmetry_cell_setting 'monoclinic'
loop_
_space_group_symop_operation_xyz
x,y,z
-x,y,1/2-z
-x,-y,-z
x,-y,1/2+z
1/2+x,1/2+y,z
1/2-x,1/2+y,1/2-z
1/2-x,1/2-y,-z
1/2+x,1/2-y,1/2+z
loop_
_atom_site_type_symbol
_atom_site_label
_atom_site_fract_x
_atom_site_fract_y
_atom_site_fract_z
Si Si1 0.687055 0.804995 0.880434
Si Si2 0.765812 0.408907 0.085069
Si Si3 0.000000 0.521129 0.250000
O O1 0.500000 0.788435 0.750000
O O2 0.000000 0.825685 0.750000
O O3 0.750000 0.750000 0.000000
O O4 0.516038 0.858275 0.019445
O O5 0.500000 0.382324 0.250000
O O6 0.840992 0.472482 0.164298
O O7 0.764083 0.434905 0.891730
#
# Coordination Sequence:
#
# PCOD9299098 Si02
#       3
#     8   8   4
#     4  12  30  55  82 118 170 223 285 346 415 496
#     4  11  25  47  81 122 165 215 274 342 420 500
#     4  10  24  46  80 120 170 206 276 332 434 490
#
# _framework density 25.546125
#
# number of rings (size 3 to 8) (size 9 to 14) (size 15 to 20)
#    0.000    0.800    2.000    2.400    8.400    8.000 
#    0.000    0.000    0.000    0.000    0.000    0.000 
#    0.000    0.000    0.000    0.000    0.000    0.000 
#
# Total GULP energy -55928.297310 kJ/mol
# GULP energy per Si atom -5592.829731 kJ/mol
# Density = 2.548798 g / cm^3
# Si number density = 25.546125 Si / 1000 Ang^3
#
#
#
# Elastic Constant Matrix: (Units=GPa)
#
#
# Indices 1 2 3 4 5 6 
#
# 1 149.8220 74.3784 101.0010 0.0000 -17.7981 0.0000
# 2 74.3784 180.1924 100.9410 0.0000 -25.7293 0.0000
# 3 101.0010 100.9410 219.5921 0.0000 -58.8717 0.0000
# 4 0.0000 0.0000 0.0000 55.7513 0.0000 14.5679
# 5 -17.7981 -25.7293 -58.8717 0.0000 70.8496 0.0000
# 6 0.0000 0.0000 0.0000 14.5679 0.0000 44.5918
#
#
#
# Elastic Compliance Matrix: (Units=1/GPa)
#
#
# Indices 1 2 3 4 5 6 
#
# 1 0.010411 -0.002158 -0.004253 0.000000 -0.001702 0.000000
# 2 -0.002158 0.007923 -0.002604 0.000000 0.000172 0.000000
# 3 -0.004253 -0.002604 0.009221 0.000000 0.005648 0.000000
# 4 0.000000 0.000000 0.000000 0.019611 0.000000 -0.006407
# 5 -0.001702 0.000172 0.005648 0.000000 0.018443 0.000000
# 6 0.000000 0.000000 0.000000 -0.006407 0.000000 0.024519
#
#
# Mechanical properties :
#
#
# Convention : Reuss Voigt Hill
#
# Bulk Modulus (GPa) = 104.96992 122.47191 113.72092
# Shear Modulus (GPa) = 44.91104 52.45762 48.68433
#
# Velocity S-wave (km/s) = 4.19744 4.53641 4.37022
# Velocity P-wave (km/s) = 8.04182 8.68817 8.37124
#
# Compressibility (1/GPa) = 0.00952654
#
# Stress axis : x y z
#
# Youngs Moduli (GPa) = 96.05577 126.20876 108.44801
#
# Poissons Ratio (x) = 0.27235 0.46120
# Poissons Ratio (y) = 0.20728 0.28235
# Poissons Ratio (z) = 0.40850 0.32859
#
# Static dielectric constant tensor:
#      x y z
#    x 2.116880 0.000000 0.221310 
#    y 0.000000 1.943520 0.000000 
#    z 0.221310 0.000000 2.596320 
# 
# From -- ./inp_files/19140.got.cif
#   From: 2010.05.17/outbox.cif.g08.bks.cpg/sg15_10_cif.got.tgz:19140.got - 2010.06.03 18:47:42.
