data_PCOD9299522
_publ_section_title
;
Structure prediction by ZEFSAII (Michael W. Deem and Ramdas Pophale) SiO2 
 PCOD9299522
Probable space group: C 2/C
;
_chemical_formula_sum "Si O2"
_cell_formula_units_Z 64
_cell_length_a 23.536973
_cell_length_b 5.474657
_cell_length_c 22.949649
_cell_angle_alpha 90.000000
_cell_angle_beta 83.125362
_cell_angle_gamma 90.000000
_cell_volume 2935.958413
_symmetry_space_group_name_H-M "C 2/C"
_symmetry_group_IT_number 15
_symmetry_cell_setting 'monoclinic'
loop_
_space_group_symop_operation_xyz
x,y,z
-x,y,1/2-z
-x,-y,-z
x,-y,1/2+z
1/2+x,1/2+y,z
1/2-x,1/2+y,1/2-z
1/2-x,1/2-y,-z
1/2+x,1/2-y,1/2+z
loop_
_atom_site_type_symbol
_atom_site_label
_atom_site_fract_x
_atom_site_fract_y
_atom_site_fract_z
Si Si1 0.752828 0.245773 0.364699
Si Si2 0.933836 0.720781 0.385608
Si Si3 0.842879 0.945060 0.053513
Si Si4 0.393258 0.758989 0.761782
Si Si5 0.367784 0.279694 0.924458
Si Si6 0.674919 0.729044 0.247931
Si Si7 0.065249 0.706413 0.370482
Si Si8 0.343550 0.836602 0.121541
O O1 0.718760 0.443682 0.406872
O O2 0.813649 0.213052 0.387938
O O3 0.766290 0.271690 0.294566
O O4 0.707185 0.030441 0.376511
O O5 0.930177 0.719325 0.315575
O O6 0.901130 0.475215 0.410623
O O7 0.999820 0.713885 0.396370
O O8 0.905537 0.976604 0.408845
O O9 0.853071 0.232827 0.055382
O O10 0.892235 0.851432 0.091518
O O11 0.845233 0.810411 0.993006
O O12 0.352770 0.521200 0.772947
O O13 0.427153 0.713456 0.697520
O O14 0.359695 0.017532 0.759499
O O15 0.675045 0.694035 0.317347
O O16 0.094290 0.441037 0.369232
#
# Coordination Sequence:
#
# PCOD9299522 Si02
#       8
#     8   8   8   8   8   8   8   8
#     4  11  25  44  69 102 139 183 229 288 345 419
#     4  12  26  47  73 103 138 186 232 295 343 423
#     4  11  26  47  69  99 141 192 233 292 340 416
#     4  11  21  45  70 103 140 173 223 293 348 419
#     4  12  29  47  71 102 142 187 242 282 347 407
#     4  11  23  41  69 104 141 172 225 284 353 412
#     4  10  25  45  71 104 139 180 234 287 363 408
#     4  10  25  42  70 102 141 181 229 286 351 418
#
# _framework density 21.798672
#
# number of rings (size 3 to 8) (size 9 to 14) (size 15 to 20)
#    0.000    1.000    3.750    0.750   10.500    1.500 
#    0.000    2.500    0.000    0.000    0.000    0.000 
#    0.000    0.000    0.000    0.000    0.000    0.000 
#
# Total GULP energy -178409.713609 kJ/mol
# GULP energy per Si atom -5575.303550 kJ/mol
# Density = 2.174906 g / cm^3
# Si number density = 21.798672 Si / 1000 Ang^3
#
#
#
# Elastic Constant Matrix: (Units=GPa)
#
#
# Indices 1 2 3 4 5 6 
#
# 1 117.6867 37.6352 7.7644 0.0000 -19.0481 0.0000
# 2 37.6352 88.2849 12.6022 0.0000 -3.1162 0.0000
# 3 7.7644 12.6022 65.2529 0.0000 -2.9443 0.0000
# 4 0.0000 0.0000 0.0000 28.4480 0.0000 -1.4265
# 5 -19.0481 -3.1162 -2.9443 0.0000 11.7805 0.0000
# 6 0.0000 0.0000 0.0000 -1.4265 0.0000 6.4045
#
#
#
# Elastic Compliance Matrix: (Units=1/GPa)
#
#
# Indices 1 2 3 4 5 6 
#
# 1 0.013386 -0.005029 0.000298 0.000000 0.020388 0.000000
# 2 -0.005029 0.013614 -0.002261 0.000000 -0.005096 0.000000
# 3 0.000298 -0.002261 0.015900 0.000000 0.003859 0.000000
# 4 0.000000 0.000000 0.000000 0.035549 0.000000 0.007918
# 5 0.020388 -0.005096 0.003859 0.000000 0.117467 0.000000
# 6 0.000000 0.000000 0.000000 0.007918 0.000000 0.157905
#
#
# Mechanical properties :
#
#
# Convention : Reuss Voigt Hill
#
# Bulk Modulus (GPa) = 34.58217 43.02534 38.80375
# Shear Modulus (GPa) = 13.24706 23.54145 18.39426
#
# Velocity S-wave (km/s) = 2.46783 3.28982 2.90802
# Velocity P-wave (km/s) = 4.90092 5.84902 5.39583
#
# Compressibility (1/GPa) = 0.02891664
#
# Stress axis : x y z
#
# Youngs Moduli (GPa) = 74.70754 73.45549 62.89237
#
# Poissons Ratio (x) = 0.36942 -0.01877
# Poissons Ratio (y) = 0.37571 0.14218
# Poissons Ratio (z) = -0.02230 0.16606
#
# Static dielectric constant tensor:
#      x y z
#    x 1.763820 0.000000 -0.016250 
#    y 0.000000 2.009950 0.000000 
#    z -0.016250 0.000000 1.828360 
# 
# From -- ./inp_files/280964.got.cif
#   From: 2010.05.17/outbox.cif.g08.bks.cpg/sg15_141_cif.got.tgz:280964.got - 2010.06.03 18:47:42.
