data_PCOD9299989
_publ_section_title
;
Structure prediction by ZEFSAII (Michael W. Deem and Ramdas Pophale) SiO2 
 PCOD9299989
Probable space group: C 2/C
;
_chemical_formula_sum "Si O2"
_cell_formula_units_Z 32
_cell_length_a 7.617296
_cell_length_b 23.376641
_cell_length_c 8.626443
_cell_angle_alpha 90.000000
_cell_angle_beta 121.029182
_cell_angle_gamma 90.000000
_cell_volume 1316.277044
_symmetry_space_group_name_H-M "C 2/C"
_symmetry_group_IT_number 15
_symmetry_cell_setting 'monoclinic'
loop_
_space_group_symop_operation_xyz
x,y,z
-x,y,1/2-z
-x,-y,-z
x,-y,1/2+z
1/2+x,1/2+y,z
1/2-x,1/2+y,1/2-z
1/2-x,1/2-y,-z
1/2+x,1/2-y,1/2+z
loop_
_atom_site_type_symbol
_atom_site_label
_atom_site_fract_x
_atom_site_fract_y
_atom_site_fract_z
Si Si1 0.500000 0.778760 0.750000
Si Si2 0.159058 0.489389 0.935519
Si Si3 0.729659 0.119988 0.868273
Si Si4 0.000000 0.918279 0.250000
Si Si5 0.047094 0.790822 0.601208
O O1 0.282786 0.810086 0.680554
O O2 0.488772 0.744470 0.577373
O O3 0.220421 0.552687 0.905568
O O4 0.000000 0.457561 0.750000
O O5 0.365251 0.457270 0.074438
O O6 0.000000 0.500000 0.000000
O O7 0.500000 0.140023 0.750000
O O8 0.830623 0.121529 0.746656
O O9 0.884573 0.157395 0.036331
O O10 0.000000 0.762313 0.750000
#
# Coordination Sequence:
#
# PCOD9299989 Si02
#       5
#     4   8   8   4   8
#     4  10  25  52  72 110 138 186 240 292 379 446
#     4  11  23  43  66  96 140 193 239 289 351 417
#     4  11  25  43  66 107 143 181 244 293 350 425
#     4  12  23  44  70  96 148 202 234 304 347 426
#     4  11  25  45  78 105 145 186 234 302 364 442
#
# _framework density 24.310993
#
# number of rings (size 3 to 8) (size 9 to 14) (size 15 to 20)
#    0.000    1.000    5.000    2.250    1.750    7.000 
#    2.250    0.000    0.000    0.000    0.000    0.000 
#    0.000    0.000    0.000    0.000    0.000    0.000 
#
# Total GULP energy -89169.497015 kJ/mol
# GULP energy per Si atom -5573.093563 kJ/mol
# Density = 2.425566 g / cm^3
# Si number density = 24.310993 Si / 1000 Ang^3
#
#
#
# Elastic Constant Matrix: (Units=GPa)
#
#
# Indices 1 2 3 4 5 6 
#
# 1 241.8826 30.5447 65.6225 0.0000 29.4809 0.0000
# 2 30.5447 58.9395 34.8359 0.0000 23.8478 0.0000
# 3 65.6225 34.8359 141.3338 0.0000 26.9134 0.0000
# 4 0.0000 0.0000 0.0000 11.6896 0.0000 6.9312
# 5 29.4809 23.8478 26.9134 0.0000 73.8600 0.0000
# 6 0.0000 0.0000 0.0000 6.9312 0.0000 224.1636
#
#
#
# Elastic Compliance Matrix: (Units=1/GPa)
#
#
# Indices 1 2 3 4 5 6 
#
# 1 0.004878 -0.001072 -0.001822 0.000000 -0.000937 0.000000
# 2 -0.001072 0.021955 -0.003917 0.000000 -0.005234 0.000000
# 3 -0.001822 -0.003917 0.009142 0.000000 -0.001339 0.000000
# 4 0.000000 0.000000 0.000000 0.087144 0.000000 -0.002695
# 5 -0.000937 -0.005234 -0.001339 0.000000 0.016091 0.000000
# 6 0.000000 0.000000 0.000000 -0.002695 0.000000 0.004544
#
#
# Mechanical properties :
#
#
# Convention : Reuss Voigt Hill
#
# Bulk Modulus (GPa) = 44.73801 78.24024 61.48913
# Shear Modulus (GPa) = 30.33468 82.68615 56.51042
#
# Velocity S-wave (km/s) = 3.53622 5.83829 4.82652
# Velocity P-wave (km/s) = 5.92583 8.81479 7.51052
#
# Compressibility (1/GPa) = 0.02235236
#
# Stress axis : x y z
#
# Youngs Moduli (GPa) = 204.99367 45.54813 109.38430
#
# Poissons Ratio (x) = 0.04882 0.19934
# Poissons Ratio (y) = 0.21972 0.42847
# Poissons Ratio (z) = 0.37358 0.17842
#
# Static dielectric constant tensor:
#      x y z
#    x 1.808590 0.000000 0.078730 
#    y 0.000000 2.052060 0.000000 
#    z 0.078730 0.000000 1.862440 
# 
# From -- ./inp_files/24767.got.cif
#   From: 2010.05.17/outbox.cif.g08.bks.cpg/sg15_13_cif.got.tgz:24767.got - 2010.06.03 18:47:42.
