data_PCOD9299872
_publ_section_title
;
Structure prediction by ZEFSAII (Michael W. Deem and Ramdas Pophale) SiO2 
 PCOD9299872
Probable space group: C 2/C
;
_chemical_formula_sum "Si O2"
_cell_formula_units_Z 48
_cell_length_a 24.065050
_cell_length_b 14.230433
_cell_length_c 11.411517
_cell_angle_alpha 90.000000
_cell_angle_beta 146.551899
_cell_angle_gamma 90.000000
_cell_volume 2153.985784
_symmetry_space_group_name_H-M "C 2/C"
_symmetry_group_IT_number 15
_symmetry_cell_setting 'monoclinic'
loop_
_space_group_symop_operation_xyz
x,y,z
-x,y,1/2-z
-x,-y,-z
x,-y,1/2+z
1/2+x,1/2+y,z
1/2-x,1/2+y,1/2-z
1/2-x,1/2-y,-z
1/2+x,1/2-y,1/2+z
loop_
_atom_site_type_symbol
_atom_site_label
_atom_site_fract_x
_atom_site_fract_y
_atom_site_fract_z
Si Si1 0.596219 0.207884 0.214479
Si Si2 0.967622 0.122512 0.059137
Si Si3 0.458114 0.945835 0.545366
Si Si4 0.775827 0.525108 0.122843
Si Si5 0.155169 0.939190 0.730900
Si Si6 0.119557 0.850876 0.445356
O O1 0.492667 0.160129 0.078551
O O2 0.665938 0.121918 0.299045
O O3 0.641641 0.261018 0.406249
O O4 0.578539 0.284321 0.082658
O O5 0.067744 0.099186 0.161156
O O6 0.000000 0.135668 0.250000
O O7 0.891214 0.034624 0.907732
O O8 0.500000 0.970264 0.750000
O O9 0.500000 0.000000 0.500000
O O10 0.339727 0.968446 0.330593
O O11 0.758410 0.462855 0.978067
O O12 0.663717 0.558669 0.956597
O O13 0.170939 0.860237 0.660572
O O14 0.000000 0.859379 0.250000
#
# Coordination Sequence:
#
# PCOD9299872 Si02
#       6
#     8   8   8   8   8   8
#     4  11  24  46  70 102 143 189 234 289 358 428
#     4  11  23  42  66  99 142 186 233 293 351 414
#     4  10  25  47  74 103 144 190 236 290 360 428
#     4  11  25  44  73 105 138 187 236 287 358 429
#     4  11  22  41  67 103 136 184 235 289 351 419
#     4  12  22  42  72 100 138 182 237 289 343 427
#
# _framework density 22.284269999999999
#
# number of rings (size 3 to 8) (size 9 to 14) (size 15 to 20)
#    0.000    1.000    3.333    3.500    4.667    2.667 
#    0.000    2.500    0.000    0.000    0.000    0.000 
#    0.000    0.000    0.000    0.000    0.000    0.000 
#
# Total GULP energy -134038.262461 kJ/mol
# GULP energy per Si atom -5584.927603 kJ/mol
# Density = 2.223355 g / cm^3
# Si number density = 22.284270 Si / 1000 Ang^3
#
#
#
# Elastic Constant Matrix: (Units=GPa)
#
#
# Indices 1 2 3 4 5 6 
#
# 1 59.8581 24.8707 26.9252 0.0000 -32.6574 0.0000
# 2 24.8707 79.1781 63.2515 0.0000 -24.9413 0.0000
# 3 26.9252 63.2515 131.3496 0.0000 -40.0208 0.0000
# 4 0.0000 0.0000 0.0000 49.8779 0.0000 0.7194
# 5 -32.6574 -24.9413 -40.0208 0.0000 45.9440 0.0000
# 6 0.0000 0.0000 0.0000 0.7194 0.0000 13.6291
#
#
#
# Elastic Compliance Matrix: (Units=1/GPa)
#
#
# Indices 1 2 3 4 5 6 
#
# 1 0.028290 -0.004618 0.002434 0.000000 0.019722 0.000000
# 2 -0.004618 0.021689 -0.009407 0.000000 0.000297 0.000000
# 3 0.002434 -0.009407 0.014451 0.000000 0.009211 0.000000
# 4 0.000000 0.000000 0.000000 0.020064 0.000000 -0.001059
# 5 0.019722 0.000297 0.009211 0.000000 0.043969 0.000000
# 6 0.000000 0.000000 0.000000 -0.001059 0.000000 0.073428
#
#
# Mechanical properties :
#
#
# Convention : Reuss Voigt Hill
#
# Bulk Modulus (GPa) = 24.24418 55.60898 39.92658
# Shear Modulus (GPa) = 20.93604 32.24609 26.59106
#
# Velocity S-wave (km/s) = 3.06845 3.80812 3.45812
# Velocity P-wave (km/s) = 4.84324 6.65914 5.82242
#
# Compressibility (1/GPa) = 0.04124701
#
# Stress axis : x y z
#
# Youngs Moduli (GPa) = 35.34820 46.10686 69.20015
#
# Poissons Ratio (x) = 0.21292 -0.16841
# Poissons Ratio (y) = 0.16323 0.65097
# Poissons Ratio (z) = -0.08602 0.43373
#
# Static dielectric constant tensor:
#      x y z
#    x 1.997960 0.000000 -0.005790 
#    y 0.000000 1.799410 0.000000 
#    z -0.005790 0.000000 1.861300 
# 
# From -- ./inp_files/123586.got.cif
#   From: 2010.05.17/outbox.cif.g08.bks.cpg/sg15_62_cif.got.tgz:123586.got - 2010.06.03 18:47:42.
