data_PCOD9299815
_publ_section_title
;
Structure prediction by ZEFSAII (Michael W. Deem and Ramdas Pophale) SiO2 
 PCOD9299815
Probable space group: C 2/C
;
_chemical_formula_sum "Si O2"
_cell_formula_units_Z 40
_cell_length_a 31.196034
_cell_length_b 4.912368
_cell_length_c 22.292248
_cell_angle_alpha 90.000000
_cell_angle_beta 152.401727
_cell_angle_gamma 90.000000
_cell_volume 1582.623782
_symmetry_space_group_name_H-M "C 2/C"
_symmetry_group_IT_number 15
_symmetry_cell_setting 'monoclinic'
loop_
_space_group_symop_operation_xyz
x,y,z
-x,y,1/2-z
-x,-y,-z
x,-y,1/2+z
1/2+x,1/2+y,z
1/2-x,1/2+y,1/2-z
1/2-x,1/2-y,-z
1/2+x,1/2-y,1/2+z
loop_
_atom_site_type_symbol
_atom_site_label
_atom_site_fract_x
_atom_site_fract_y
_atom_site_fract_z
Si Si1 0.977979 0.745038 0.352820
Si Si2 0.102771 0.067584 0.587681
Si Si3 0.319797 0.499065 0.576379
Si Si4 0.342218 0.423502 0.971668
Si Si5 0.638283 0.942556 0.207227
O O1 0.925818 0.481976 0.313850
O O2 0.849705 0.145639 0.306984
O O3 0.906686 0.924015 0.226030
O O4 0.075532 0.704793 0.438840
O O5 0.096908 0.371727 0.603286
O O6 0.008822 0.922217 0.449109
O O7 0.153740 0.083663 0.586405
O O8 0.250000 0.750000 0.500000
O O9 0.361636 0.461044 0.561485
O O10 0.250000 0.250000 0.500000
O O11 0.231957 0.392473 0.839532
#
# Coordination Sequence:
#
# PCOD9299815 Si02
#       5
#     8   8   8   8   8
#     4  10  25  46  75 105 146 190 246 296 367 437
#     4  10  26  41  74 103 153 182 241 294 366 442
#     4  12  27  50  73 101 141 195 244 305 360 423
#     4  10  25  46  75 104 147 188 249 292 371 431
#     4  12  22  47  68 111 145 191 230 302 368 436
#
# _framework density 25.274483
#
# number of rings (size 3 to 8) (size 9 to 14) (size 15 to 20)
#    1.200    0.000    2.000    3.000    2.800    3.200 
#    0.000    2.000    0.000    0.000    0.000    0.000 
#    0.000    0.000    0.000    0.000    0.000    0.000 
#
# Total GULP energy -111465.147928 kJ/mol
# GULP energy per Si atom -5573.257396 kJ/mol
# Density = 2.521696 g / cm^3
# Si number density = 25.274483 Si / 1000 Ang^3
#
#
#
# Elastic Constant Matrix: (Units=GPa)
#
#
# Indices 1 2 3 4 5 6 
#
# 1 148.7316 37.2634 24.5379 0.0010 9.3054 -0.0009
# 2 37.2634 135.6635 24.6201 0.0040 -1.2881 -0.0048
# 3 24.5379 24.6201 155.2220 0.0003 -0.3719 -0.0004
# 4 0.0010 0.0040 0.0003 28.6436 0.0003 4.8730
# 5 9.3054 -1.2881 -0.3719 0.0003 49.8844 -0.0004
# 6 -0.0009 -0.0048 -0.0004 4.8730 -0.0004 22.1980
#
#
#
# Elastic Compliance Matrix: (Units=1/GPa)
#
#
# Indices 1 2 3 4 5 6 
#
# 1 0.007434 -0.001896 -0.000878 0.000000 -0.001442 0.000000
# 2 -0.001896 0.008075 -0.000980 -0.000001 0.000555 0.000002
# 3 -0.000878 -0.000980 0.006737 0.000000 0.000189 0.000000
# 4 0.000000 -0.000001 0.000000 0.036266 0.000000 -0.007961
# 5 -0.001442 0.000555 0.000189 0.000000 0.020331 0.000000
# 6 0.000000 0.000002 0.000000 -0.007961 0.000000 0.046797
#
#
# Mechanical properties :
#
#
# Convention : Reuss Voigt Hill
#
# Bulk Modulus (GPa) = 67.85083 68.05111 67.95097
# Shear Modulus (GPa) = 36.21614 43.69159 39.95386
#
# Velocity S-wave (km/s) = 3.78949 4.16226 3.98024
# Velocity P-wave (km/s) = 6.78608 7.07689 6.93301
#
# Compressibility (1/GPa) = 0.01473821
#
# Stress axis : x y z
#
# Youngs Moduli (GPa) = 134.52330 123.83762 148.43403
#
# Poissons Ratio (x) = 0.23482 0.13030
# Poissons Ratio (y) = 0.25509 0.14542
# Poissons Ratio (z) = 0.11809 0.12133
#
# Static dielectric constant tensor:
#      x y z
#    x 2.124130 0.000010 -0.013510 
#    y 0.000010 1.946270 -0.000020 
#    z -0.013510 -0.000020 2.196190 
# 
# From -- ./inp_files/283111.got.cif
#   From: 2010.05.17/outbox.cif.g08.bks.cpg/sg15_142_cif.got.tgz:283111.got - 2010.06.03 18:47:42.
