data_PCOD9299480
_publ_section_title
;
Structure prediction by ZEFSAII (Michael W. Deem and Ramdas Pophale) SiO2 
 PCOD9299480
Probable space group: C 2/C
;
_chemical_formula_sum "Si O2"
_cell_formula_units_Z 32
_cell_length_a 9.265352
_cell_length_b 5.215230
_cell_length_c 31.008193
_cell_angle_alpha 90.000000
_cell_angle_beta 68.336028
_cell_angle_gamma 90.000000
_cell_volume 1392.509312
_symmetry_space_group_name_H-M "C 2/C"
_symmetry_group_IT_number 15
_symmetry_cell_setting 'monoclinic'
loop_
_space_group_symop_operation_xyz
x,y,z
-x,y,1/2-z
-x,-y,-z
x,-y,1/2+z
1/2+x,1/2+y,z
1/2-x,1/2+y,1/2-z
1/2-x,1/2-y,-z
1/2+x,1/2-y,1/2+z
loop_
_atom_site_type_symbol
_atom_site_label
_atom_site_fract_x
_atom_site_fract_y
_atom_site_fract_z
Si Si1 0.187113 0.999853 0.982206
Si Si2 0.778935 0.574080 0.874184
Si Si3 0.276775 0.427503 0.327308
Si Si4 0.047770 0.409985 0.792288
O O1 0.249772 0.008006 0.926462
O O2 0.250000 0.750000 0.000000
O O3 0.250000 0.250000 0.000000
O O4 0.000000 0.000000 0.000000
O O5 0.726795 0.856358 0.866770
O O6 0.957613 0.563045 0.839800
O O7 0.714216 0.348877 0.850327
O O8 0.222280 0.535630 0.287082
O O9 0.461871 0.365413 0.305731
O O10 0.000000 0.497876 0.750000
#
# Coordination Sequence:
#
# PCOD9299480 Si02
#       4
#     8   8   8   8
#     4  12  28  46  76 107 144 186 240 292 358 422
#     4  10  26  44  72  98 144 178 234 287 351 414
#     4  10  25  41  69  96 140 177 232 279 352 406
#     4  10  26  43  71  98 140 180 235 284 351 415
#
# _framework density 22.980097000000001
#
# number of rings (size 3 to 8) (size 9 to 14) (size 15 to 20)
#    1.500    0.000    0.000    2.250   14.000    1.000 
#    0.000    0.000    0.000    0.000    0.000    0.000 
#    0.000    0.000    0.000    0.000    0.000    0.000 
#
# Total GULP energy -89172.895120 kJ/mol
# GULP energy per Si atom -5573.305945 kJ/mol
# Density = 2.292779 g / cm^3
# Si number density = 22.980097 Si / 1000 Ang^3
#
#
#
# Elastic Constant Matrix: (Units=GPa)
#
#
# Indices 1 2 3 4 5 6 
#
# 1 116.5606 78.6777 51.6533 0.0076 27.9917 -0.0005
# 2 78.6777 162.0644 35.8332 0.0230 19.3872 -0.0016
# 3 51.6533 35.8332 137.8815 -0.0026 -4.3651 0.0002
# 4 0.0076 0.0230 -0.0026********** 0.0065 2089.7924
# 5 27.9917 19.3872 -4.3651 0.0065 37.5940 -0.0005
# 6 -0.0005 -0.0016 0.0002 2089.7924 -0.0005 -109.4738
#
#
#
# Elastic Compliance Matrix: (Units=1/GPa)
#
#
# Indices 1 2 3 4 5 6 
#
# 1 0.017608 -0.006100 -0.005346 0.000000 -0.010585 0.000000
# 2 -0.006100 0.009180 -0.000107 0.000000 -0.000205 0.000000
# 3 -0.005346 -0.000107 0.009446 0.000000 0.005133 0.000000
# 4 0.000000 0.000000 0.000000 0.000095 0.000000 0.001806
# 5 -0.010585 -0.000205 0.005133 0.000000 0.035183 0.000000
# 6 0.000000 0.000000 0.000000 0.001806 0.000000 0.025338
#
#
# Mechanical properties :
#
#
# Convention : Reuss Voigt Hill
#
# Bulk Modulus (GPa) = 76.17673 83.20388 79.69031
# Shear Modulus (GPa) = 40.21541 -5862.10552 -2910.94505
#
# Velocity S-wave (km/s) = 4.18785 -50.56171 -35.62968
# Velocity P-wave (km/s) = 7.52364 58.07206 40.71706
#
# Compressibility (1/GPa) = 0.01312737
#
# Stress axis : x y z
#
# Youngs Moduli (GPa) = 56.79366 108.93511 105.86851
#
# Poissons Ratio (x) = 0.66447 0.56598
# Poissons Ratio (y) = 0.34642 0.01134
# Poissons Ratio (z) = 0.30362 0.01167
#
# Static dielectric constant tensor:
#      x y z
#    x 1.829280 0.000000 0.046670 
#    y 0.000000 1.879100 0.000000 
#    z 0.046670 0.000000 1.817730 
# 
# From -- ./inp_files/306171.got.cif
#   From: 2010.05.17/outbox.cif.g08.bks.cpg/sg15_154_cif.got.tgz:306171.got - 2010.06.03 18:47:42.
