data_PCOD9299557
_publ_section_title
;
Structure prediction by ZEFSAII (Michael W. Deem and Ramdas Pophale) SiO2 
 PCOD9299557
Probable space group: C 2/C
;
_chemical_formula_sum "Si O2"
_cell_formula_units_Z 44
_cell_length_a 14.414913
_cell_length_b 11.065305
_cell_length_c 12.416886
_cell_angle_alpha 90.000000
_cell_angle_beta 98.052478
_cell_angle_gamma 90.000000
_cell_volume 1961.032514
_symmetry_space_group_name_H-M "C 2/C"
_symmetry_group_IT_number 15
_symmetry_cell_setting 'monoclinic'
loop_
_space_group_symop_operation_xyz
x,y,z
-x,y,1/2-z
-x,-y,-z
x,-y,1/2+z
1/2+x,1/2+y,z
1/2-x,1/2+y,1/2-z
1/2-x,1/2-y,-z
1/2+x,1/2-y,1/2+z
loop_
_atom_site_type_symbol
_atom_site_label
_atom_site_fract_x
_atom_site_fract_y
_atom_site_fract_z
Si Si1 0.357258 0.081933 0.682649
Si Si2 0.470900 0.687157 0.124886
Si Si3 0.777710 0.888654 0.518509
Si Si4 0.595331 0.738757 0.949209
Si Si5 0.000000 0.628487 0.250000
Si Si6 0.274637 0.107620 0.887223
O O1 0.429021 0.174854 0.634228
O O2 0.266880 0.053035 0.595200
O O3 0.316583 0.148453 0.780951
O O4 0.412758 0.963657 0.729020
O O5 0.500000 0.648846 0.250000
O O6 0.386612 0.610329 0.061096
O O7 0.551273 0.680647 0.048793
O O8 0.750000 0.750000 0.500000
O O9 0.731031 0.962773 0.607726
O O10 0.514490 0.787586 0.856925
O O11 0.672125 0.660063 0.897729
O O12 0.654886 0.848518 0.009144
#
# Coordination Sequence:
#
# PCOD9299557 Si02
#       6
#     8   8   8   8   4   8
#     4  11  23  41  70 102 137 180 241 293 343 417
#     4  11  23  45  68 102 141 185 234 286 355 423
#     4  10  25  43  68 101 140 186 236 289 354 412
#     4  11  26  42  71 102 143 179 233 295 354 414
#     4  12  24  40  74 100 138 184 240 290 348 422
#     4  11  24  46  65 102 145 179 234 295 352 413
#
# _framework density 22.437159999999999
#
# number of rings (size 3 to 8) (size 9 to 14) (size 15 to 20)
#    0.000    1.091    4.545    0.000    7.636    5.091 
#    1.636    0.000    0.000    0.000    0.000    0.000 
#    0.000    0.000    0.000    0.000    0.000    0.000 
#
# Total GULP energy -122772.266465 kJ/mol
# GULP energy per Si atom -5580.557567 kJ/mol
# Density = 2.238609 g / cm^3
# Si number density = 22.437160 Si / 1000 Ang^3
#
#
#
# Elastic Constant Matrix: (Units=GPa)
#
#
# Indices 1 2 3 4 5 6 
#
# 1 84.3952 10.2974 64.2841 0.0000 14.4358 0.0000
# 2 10.2974 29.8346 7.0182 0.0000 2.9148 0.0000
# 3 64.2841 7.0182 134.6126 0.0000 18.7023 0.0000
# 4 0.0000 0.0000 0.0000 15.0187 0.0000 -1.3841
# 5 14.4358 2.9148 18.7023 0.0000 56.2521 0.0000
# 6 0.0000 0.0000 0.0000 -1.3841 0.0000 25.2831
#
#
#
# Elastic Compliance Matrix: (Units=1/GPa)
#
#
# Indices 1 2 3 4 5 6 
#
# 1 0.019386 -0.004449 -0.008772 0.000000 -0.001828 0.000000
# 2 -0.004449 0.035036 0.000411 0.000000 -0.000810 0.000000
# 3 -0.008772 0.000411 0.011833 0.000000 -0.001704 0.000000
# 4 0.000000 0.000000 0.000000 0.066921 0.000000 0.003663
# 5 -0.001828 -0.000810 -0.001704 0.000000 0.018855 0.000000
# 6 0.000000 0.000000 0.000000 0.003663 0.000000 0.039753
#
#
# Mechanical properties :
#
#
# Convention : Reuss Voigt Hill
#
# Bulk Modulus (GPa) = 24.60950 45.78242 35.19596
# Shear Modulus (GPa) = 21.64970 30.46029 26.05500
#
# Velocity S-wave (km/s) = 3.10966 3.68854 3.41140
# Velocity P-wave (km/s) = 4.88726 6.21204 5.58904
#
# Compressibility (1/GPa) = 0.04063472
#
# Stress axis : x y z
#
# Youngs Moduli (GPa) = 51.58331 28.54186 84.50857
#
# Poissons Ratio (x) = 0.12698 0.74130
# Poissons Ratio (y) = 0.22950 -0.03469
# Poissons Ratio (z) = 0.45248 -0.01172
#
# Static dielectric constant tensor:
#      x y z
#    x 1.754840 0.000000 -0.021170 
#    y 0.000000 1.894830 0.000000 
#    z -0.021170 0.000000 1.826350 
# 
# From -- ./inp_files/95017.got.cif
#   From: 2010.05.17/outbox.cif.g08.bks.cpg/sg15_48_cif.got.tgz:95017.got - 2010.06.03 18:47:42.
