data_PCOD9299159
_publ_section_title
;
Structure prediction by ZEFSAII (Michael W. Deem and Ramdas Pophale) SiO2 
 PCOD9299159
Probable space group: C 2/C
;
_chemical_formula_sum "Si O2"
_cell_formula_units_Z 60
_cell_length_a 11.088614
_cell_length_b 9.235914
_cell_length_c 27.820426
_cell_angle_alpha 90.000000
_cell_angle_beta 58.947276
_cell_angle_gamma 90.000000
_cell_volume 2440.878366
_symmetry_space_group_name_H-M "C 2/C"
_symmetry_group_IT_number 15
_symmetry_cell_setting 'monoclinic'
loop_
_space_group_symop_operation_xyz
x,y,z
-x,y,1/2-z
-x,-y,-z
x,-y,1/2+z
1/2+x,1/2+y,z
1/2-x,1/2+y,1/2-z
1/2-x,1/2-y,-z
1/2+x,1/2-y,1/2+z
loop_
_atom_site_type_symbol
_atom_site_label
_atom_site_fract_x
_atom_site_fract_y
_atom_site_fract_z
Si Si1 0.880425 0.508947 0.192145
Si Si2 0.760658 0.732624 0.440729
Si Si3 0.860875 0.802077 0.246327
Si Si4 0.259383 0.896799 0.434549
Si Si5 0.764080 0.817325 0.848193
Si Si6 0.500000 0.159537 0.750000
Si Si7 0.523671 0.525155 0.637018
Si Si8 0.481738 0.299544 0.943059
O O1 0.837401 0.635580 0.238479
O O2 0.770923 0.380867 0.203336
O O3 0.872157 0.600285 0.144631
O O4 0.996559 0.429293 0.200711
O O5 0.750000 0.750000 0.500000
O O6 0.788902 0.565422 0.421741
O O7 0.879404 0.842403 0.399524
O O8 0.612404 0.764959 0.445064
O O9 0.000000 0.809613 0.250000
O O10 0.899675 0.902946 0.192812
O O11 0.224946 0.806640 0.393816
O O12 0.393593 0.820882 0.432197
O O13 0.127842 0.874642 0.497602
O O14 0.860286 0.754679 0.785006
O O15 0.872700 0.925032 0.852380
O O16 0.473617 0.422956 0.604012
#
# Coordination Sequence:
#
# PCOD9299159 Si02
#       8
#     8   8   8   8   8   4   8   8
#     4  12  26  45  73 101 141 188 229 297 352 425
#     4  12  26  45  73 108 141 189 237 296 358 424
#     4  12  26  46  71 106 144 183 242 293 355 429
#     4  10  24  47  72 106 143 192 236 298 360 424
#     4  11  25  47  71 101 146 188 233 295 361 420
#     4  12  26  46  70 104 140 186 242 286 360 428
#     4  11  26  46  73 106 140 191 240 294 361 422
#     4  10  24  49  70 103 151 184 239 298 357 425
#
# _framework density 24.581316000000001
#
# number of rings (size 3 to 8) (size 9 to 14) (size 15 to 20)
#    0.000    0.800    4.667    1.200    3.733    3.733 
#    0.000    0.000    0.000    0.000    0.000    0.000 
#    0.000    0.000    0.000    0.000    0.000    0.000 
#
# Total GULP energy -167996.635481 kJ/mol
# GULP energy per Si atom -5599.887849 kJ/mol
# Density = 2.452537 g / cm^3
# Si number density = 24.581316 Si / 1000 Ang^3
#
#
#
# Elastic Constant Matrix: (Units=GPa)
#
#
# Indices 1 2 3 4 5 6 
#
# 1 116.9673 0.8030 12.5727 0.0000 21.6405 0.0000
# 2 0.8030 90.8483 13.2857 0.0000 0.0004 0.0000
# 3 12.5727 13.2857 60.0453 0.0000 19.0728 0.0000
# 4 0.0000 0.0000 0.0000 35.6875 0.0000 0.6991
# 5 21.6405 0.0004 19.0728 0.0000 26.8792 0.0000
# 6 0.0000 0.0000 0.0000 0.6991 0.0000 42.1463
#
#
#
# Elastic Compliance Matrix: (Units=1/GPa)
#
#
# Indices 1 2 3 4 5 6 
#
# 1 0.010066 -0.000185 0.000655 0.000000 -0.008569 0.000000
# 2 -0.000185 0.011491 -0.003293 0.000000 0.002485 0.000000
# 3 0.000655 -0.003293 0.022480 0.000000 -0.016478 0.000000
# 4 0.000000 0.000000 0.000000 0.028030 0.000000 -0.000465
# 5 -0.008569 0.002485 -0.016478 0.000000 0.055795 0.000000
# 6 0.000000 0.000000 0.000000 -0.000465 0.000000 0.023735
#
#
# Mechanical properties :
#
#
# Convention : Reuss Voigt Hill
#
# Bulk Modulus (GPa) = 26.04833 35.68709 30.86771
# Shear Modulus (GPa) = 29.40517 37.02255 33.21386
#
# Velocity S-wave (km/s) = 3.46242 3.88509 3.67983
# Velocity P-wave (km/s) = 5.15794 5.88853 5.53530
#
# Compressibility (1/GPa) = 0.03839018
#
# Stress axis : x y z
#
# Youngs Moduli (GPa) = 99.34863 87.02776 44.48431
#
# Poissons Ratio (x) = 0.01608 -0.02914
# Poissons Ratio (y) = 0.01835 0.14650
# Poissons Ratio (z) = -0.06507 0.28660
#
# Static dielectric constant tensor:
#      x y z
#    x 1.993740 0.000000 0.013630 
#    y 0.000000 1.906450 0.000000 
#    z 0.013630 0.000000 2.009580 
# 
# From -- ./inp_files/310285.got.cif
#   From: 2010.05.17/outbox.cif.g08.bks.cpg/sg15_156_cif.got.tgz:310285.got - 2010.06.03 18:47:42.
