data_PCOD9299864
_publ_section_title
;
Structure prediction by ZEFSAII (Michael W. Deem and Ramdas Pophale) SiO2 
 PCOD9299864
Probable space group: C 2/C
;
_chemical_formula_sum "Si O2"
_cell_formula_units_Z 56
_cell_length_a 19.128705
_cell_length_b 11.814820
_cell_length_c 9.877644
_cell_angle_alpha 90.000000
_cell_angle_beta 75.904460
_cell_angle_gamma 90.000000
_cell_volume 2165.154876
_symmetry_space_group_name_H-M "C 2/C"
_symmetry_group_IT_number 15
_symmetry_cell_setting 'monoclinic'
loop_
_space_group_symop_operation_xyz
x,y,z
-x,y,1/2-z
-x,-y,-z
x,-y,1/2+z
1/2+x,1/2+y,z
1/2-x,1/2+y,1/2-z
1/2-x,1/2-y,-z
1/2+x,1/2-y,1/2+z
loop_
_atom_site_type_symbol
_atom_site_label
_atom_site_fract_x
_atom_site_fract_y
_atom_site_fract_z
Si Si1 0.643889 0.799650 0.866641
Si Si2 0.379552 0.250605 0.538702
Si Si3 0.623724 0.000361 0.044395
Si Si4 0.738935 0.416483 0.867483
Si Si5 0.536038 0.549066 0.583352
Si Si6 0.384594 0.442556 0.216275
Si Si7 0.417998 0.786163 0.315528
O O1 0.717548 0.839898 0.761669
O O2 0.618835 0.693793 0.787692
O O3 0.613433 0.926929 0.911444
O O4 0.625985 0.752617 0.027633
O O5 0.393977 0.129907 0.468580
O O6 0.312773 0.503943 0.686066
O O7 0.310902 0.325697 0.529197
O O8 0.374009 0.240374 0.702601
O O9 0.705565 0.013710 0.063805
O O10 0.579838 0.922202 0.167842
O O11 0.500000 0.572926 0.750000
O O12 0.551262 0.674362 0.522173
O O13 0.447418 0.517854 0.574702
O O14 0.605435 0.501538 0.640082
O O15 0.500000 0.742040 0.250000
#
# Coordination Sequence:
#
# PCOD9299864 Si02
#       7
#     8   8   8   8   8   8   8
#     4  10  26  44  74 106 148 191 253 301 368 447
#     4  12  25  46  76 105 151 194 244 309 368 445
#     4  10  26  47  71 109 147 193 249 303 373 441
#     4  12  26  43  74 107 151 193 242 305 373 443
#     4  11  25  49  72 110 145 193 248 302 372 445
#     4  11  26  48  74 109 148 197 247 307 373 444
#     4  10  25  47  73 105 140 192 247 308 365 429
#
# _framework density 25.8642
#
# number of rings (size 3 to 8) (size 9 to 14) (size 15 to 20)
#    0.857    0.286    1.429    3.000    6.000    5.143 
#    5.143    0.000    0.000    0.000    0.000    0.000 
#    0.000    0.000    0.000    0.000    0.000    0.000 
#
# Total GULP energy -155980.770536 kJ/mol
# GULP energy per Si atom -5570.741805 kJ/mol
# Density = 2.580533 g / cm^3
# Si number density = 25.864200 Si / 1000 Ang^3
#
#
#
# Elastic Constant Matrix: (Units=GPa)
#
#
# Indices 1 2 3 4 5 6 
#
# 1 86.8506 50.4780 34.8848 0.0000 14.9250 0.0000
# 2 50.4780 155.7989 44.9712 0.0000 11.9970 0.0000
# 3 34.8848 44.9712 166.2692 0.0000 7.7453 0.0000
# 4 0.0000 0.0000 0.0000 46.5931 0.0000 -3.3295
# 5 14.9250 11.9970 7.7453 0.0000 49.5293 0.0000
# 6 0.0000 0.0000 0.0000 -3.3295 0.0000 34.5929
#
#
#
# Elastic Compliance Matrix: (Units=1/GPa)
#
#
# Indices 1 2 3 4 5 6 
#
# 1 0.015257 -0.004132 -0.001930 0.000000 -0.003295 0.000000
# 2 -0.004132 0.008179 -0.001321 0.000000 -0.000529 0.000000
# 3 -0.001930 -0.001321 0.006784 0.000000 -0.000159 0.000000
# 4 0.000000 0.000000 0.000000 0.021611 0.000000 0.002080
# 5 -0.003295 -0.000529 -0.000159 0.000000 0.021336 0.000000
# 6 0.000000 0.000000 0.000000 0.002080 0.000000 0.029108
#
#
# Mechanical properties :
#
#
# Convention : Reuss Voigt Hill
#
# Bulk Modulus (GPa) = 64.70602 74.39851 69.55226
# Shear Modulus (GPa) = 40.91890 44.71538 42.81714
#
# Velocity S-wave (km/s) = 3.98184 4.16246 4.07315
# Velocity P-wave (km/s) = 6.79794 7.20617 7.00503
#
# Compressibility (1/GPa) = 0.01545451
#
# Stress axis : x y z
#
# Youngs Moduli (GPa) = 65.54272 122.25850 147.40853
#
# Poissons Ratio (x) = 0.50523 0.28448
# Poissons Ratio (y) = 0.27085 0.19467
# Poissons Ratio (z) = 0.12649 0.16146
#
# Static dielectric constant tensor:
#      x y z
#    x 3.039780 0.000000 -0.071470 
#    y 0.000000 2.031140 0.000000 
#    z -0.071470 0.000000 2.090560 
# 
# From -- ./inp_files/172711.got.cif
#   From: 2010.05.17/outbox.cif.g08.bks.cpg/sg15_87_cif.got.tgz:172711.got - 2010.06.03 18:47:42.
