data_PCOD9299211
_publ_section_title
;
Structure prediction by ZEFSAII (Michael W. Deem and Ramdas Pophale) SiO2 
 PCOD9299211
Probable space group: C 2/C
;
_chemical_formula_sum "Si O2"
_cell_formula_units_Z 40
_cell_length_a 10.326223
_cell_length_b 10.093493
_cell_length_c 13.925129
_cell_angle_alpha 90.000000
_cell_angle_beta 101.439269
_cell_angle_gamma 90.000000
_cell_volume 1422.552559
_symmetry_space_group_name_H-M "C 2/C"
_symmetry_group_IT_number 15
_symmetry_cell_setting 'monoclinic'
loop_
_space_group_symop_operation_xyz
x,y,z
-x,y,1/2-z
-x,-y,-z
x,-y,1/2+z
1/2+x,1/2+y,z
1/2-x,1/2+y,1/2-z
1/2-x,1/2-y,-z
1/2+x,1/2-y,1/2+z
loop_
_atom_site_type_symbol
_atom_site_label
_atom_site_fract_x
_atom_site_fract_y
_atom_site_fract_z
Si Si1 0.244197 0.270307 0.640920
Si Si2 0.817769 0.971364 0.252454
Si Si3 0.344438 0.139098 0.929353
Si Si4 0.488926 0.899481 0.632295
Si Si5 0.494361 0.397012 0.583007
O O1 0.261840 0.123515 0.684457
O O2 0.261862 0.382278 0.725428
O O3 0.089204 0.291330 0.599143
O O4 0.646448 0.324596 0.916872
O O5 0.791048 0.894470 0.147092
O O6 0.953180 0.008749 0.324002
O O7 0.446300 0.038565 0.890743
O O8 0.100376 0.217798 0.084425
O O9 0.357982 0.112975 0.045899
O O10 0.500000 0.884177 0.750000
O O11 0.500000 0.500000 0.500000
#
# Coordination Sequence:
#
# PCOD9299211 Si02
#       5
#     8   8   8   8   8
#     4  11  26  48  81 121 166 226 289 350 436 512
#     4  11  24  47  79 117 171 221 281 360 424 513
#     4  10  24  47  78 121 162 224 285 353 436 516
#     4  10  24  48  81 118 168 221 286 361 434 521
#     4  12  27  49  83 122 177 228 294 363 432 523
#
# _framework density 28.118469000000001
#
# number of rings (size 3 to 8) (size 9 to 14) (size 15 to 20)
#    0.000    1.200    2.000    1.800    5.600    6.400 
#   14.400    5.000    0.000    1.200    0.000    0.000 
#    0.000    0.000    0.000    0.000    0.000    0.000 
#
# Total GULP energy -111756.113704 kJ/mol
# GULP energy per Si atom -5587.805685 kJ/mol
# Density = 2.805447 g / cm^3
# Si number density = 28.118469 Si / 1000 Ang^3
#
#
#
# Elastic Constant Matrix: (Units=GPa)
#
#
# Indices 1 2 3 4 5 6 
#
# 1 115.0470 19.0770 77.3534 0.0000 -6.7269 0.0000
# 2 19.0770 160.5554 61.0894 0.0000 -22.9207 0.0000
# 3 77.3534 61.0894 265.5834 0.0000 1.0757 0.0000
# 4 0.0000 0.0000 0.0000 62.8346 0.0000 -4.9093
# 5 -6.7269 -22.9207 1.0757 0.0000 52.5255 0.0000
# 6 0.0000 0.0000 0.0000 -4.9093 0.0000 22.4344
#
#
#
# Elastic Compliance Matrix: (Units=1/GPa)
#
#
# Indices 1 2 3 4 5 6 
#
# 1 0.010923 0.000146 -0.003221 0.000000 0.001529 0.000000
# 2 0.000146 0.007340 -0.001744 0.000000 0.003257 0.000000
# 3 -0.003221 -0.001744 0.005110 0.000000 -0.001278 0.000000
# 4 0.000000 0.000000 0.000000 0.016192 0.000000 0.003543
# 5 0.001529 0.003257 -0.001278 0.000000 0.020682 0.000000
# 6 0.000000 0.000000 0.000000 0.003543 0.000000 0.045350
#
#
# Mechanical properties :
#
#
# Convention : Reuss Voigt Hill
#
# Bulk Modulus (GPa) = 72.81135 95.13617 83.97376
# Shear Modulus (GPa) = 41.73206 53.13662 47.43434
#
# Velocity S-wave (km/s) = 3.85665 4.35183 4.11170
# Velocity P-wave (km/s) = 6.76627 7.69147 7.24366
#
# Compressibility (1/GPa) = 0.01373412
#
# Stress axis : x y z
#
# Youngs Moduli (GPa) = 91.54909 136.24742 195.70138
#
# Poissons Ratio (x) = -0.01989 0.63040
# Poissons Ratio (y) = -0.01336 0.34130
# Poissons Ratio (z) = 0.29490 0.23761
#
# Static dielectric constant tensor:
#      x y z
#    x 2.420780 0.000000 0.038690 
#    y 0.000000 2.095790 0.000000 
#    z 0.038690 0.000000 2.404860 
# 
# From -- ./inp_files/142364.got.cif
#   From: 2010.05.17/outbox.cif.g08.bks.cpg/sg15_72_cif.got.tgz:142364.got - 2010.06.03 18:47:42.
