data_PCOD9299246
_publ_section_title
;
Structure prediction by ZEFSAII (Michael W. Deem and Ramdas Pophale) SiO2 
 PCOD9299246
Probable space group: C 2/C
;
_chemical_formula_sum "Si O2"
_cell_formula_units_Z 52
_cell_length_a 18.011261
_cell_length_b 19.771421
_cell_length_c 10.777004
_cell_angle_alpha 90.000000
_cell_angle_beta 146.227421
_cell_angle_gamma 90.000000
_cell_volume 2133.413528
_symmetry_space_group_name_H-M "C 2/C"
_symmetry_group_IT_number 15
_symmetry_cell_setting 'monoclinic'
loop_
_space_group_symop_operation_xyz
x,y,z
-x,y,1/2-z
-x,-y,-z
x,-y,1/2+z
1/2+x,1/2+y,z
1/2-x,1/2+y,1/2-z
1/2-x,1/2-y,-z
1/2+x,1/2-y,1/2+z
loop_
_atom_site_type_symbol
_atom_site_label
_atom_site_fract_x
_atom_site_fract_y
_atom_site_fract_z
Si Si1 0.222694 0.711923 0.793855
Si Si2 0.909913 0.011575 0.498962
Si Si3 0.428929 0.353166 0.915825
Si Si4 0.910057 0.437492 0.743624
Si Si5 0.664656 0.069702 0.765961
Si Si6 0.726060 0.676778 0.910204
Si Si7 0.000000 0.176138 0.250000
O O1 0.144272 0.781075 0.691498
O O2 0.186097 0.647856 0.829195
O O3 0.211403 0.681330 0.640562
O O4 0.378207 0.722223 0.037242
O O5 0.857078 0.087029 0.390012
O O6 0.000000 0.013443 0.750000
O O7 0.786411 0.959188 0.347963
O O8 0.000000 0.000000 0.500000
O O9 0.460506 0.368462 0.814492
O O10 0.571083 0.340873 0.179563
O O11 0.841193 0.510909 0.640312
O O12 0.800488 0.379680 0.591701
O O13 0.000000 0.427423 0.750000
O O14 0.016710 0.431879 0.001848
O O15 0.750000 0.750000 0.000000
#
# Coordination Sequence:
#
# PCOD9299246 Si02
#       7
#     8   8   8   8   8   8   4
#     4  11  24  46  72 107 149 197 254 323 386 470
#     4  12  29  49  82 119 160 206 267 326 399 479
#     4  11  26  46  77 110 148 201 261 324 390 468
#     4  11  24  46  68 105 153 193 254 317 396 473
#     4  11  26  44  72 106 152 203 253 315 397 471
#     4  11  24  42  76 105 148 189 250 332 399 460
#     4  10  24  48  68 106 152 198 254 310 390 468
#
# _framework density 24.374084
#
# number of rings (size 3 to 8) (size 9 to 14) (size 15 to 20)
#    0.000    0.923    1.538    4.154   10.769    0.000 
#    4.154    0.000    0.000    0.000    0.000    0.000 
#    0.000    0.000    0.000    0.000    0.000    0.000 
#
# Total GULP energy -145481.540019 kJ/mol
# GULP energy per Si atom -5595.443847 kJ/mol
# Density = 2.431861 g / cm^3
# Si number density = 24.374084 Si / 1000 Ang^3
#
#
#
# Elastic Constant Matrix: (Units=GPa)
#
#
# Indices 1 2 3 4 5 6 
#
# 1 73.6854 35.4263 41.4610 0.0000 -0.9472 0.0000
# 2 35.4263 194.0010 66.4482 0.0000 5.2053 0.0000
# 3 41.4610 66.4482 121.8516 0.0000 -2.8838 0.0000
# 4 0.0000 0.0000 0.0000 39.8352 0.0000 8.0526
# 5 -0.9472 5.2053 -2.8838 0.0000 22.6376 0.0000
# 6 0.0000 0.0000 0.0000 8.0526 0.0000 36.4799
#
#
#
# Elastic Compliance Matrix: (Units=1/GPa)
#
#
# Indices 1 2 3 4 5 6 
#
# 1 0.017087 -0.001405 -0.005038 0.000000 0.000396 0.000000
# 2 -0.001405 0.006537 -0.003133 0.000000 -0.001961 0.000000
# 3 -0.005038 -0.003133 0.011677 0.000000 0.001997 0.000000
# 4 0.000000 0.000000 0.000000 0.026276 0.000000 -0.005800
# 5 0.000396 -0.001961 0.001997 0.000000 0.044896 0.000000
# 6 0.000000 0.000000 0.000000 -0.005800 0.000000 0.028693
#
#
# Mechanical properties :
#
#
# Convention : Reuss Voigt Hill
#
# Bulk Modulus (GPa) = 61.92869 75.13433 68.53151
# Shear Modulus (GPa) = 31.30855 36.20404 33.75629
#
# Velocity S-wave (km/s) = 3.58788 3.85820 3.72550
# Velocity P-wave (km/s) = 6.52891 7.12321 6.83252
#
# Compressibility (1/GPa) = 0.01614760
#
# Stress axis : x y z
#
# Youngs Moduli (GPa) = 58.52473 152.97717 85.64005
#
# Poissons Ratio (x) = 0.21496 0.43148
# Poissons Ratio (y) = 0.08224 0.26831
# Poissons Ratio (z) = 0.29486 0.47928
#
# Static dielectric constant tensor:
#      x y z
#    x 2.001290 0.000000 -0.034950 
#    y 0.000000 1.990320 0.000000 
#    z -0.034950 0.000000 1.863480 
# 
# From -- ./inp_files/114408.got.cif
#   From: 2010.05.17/outbox.cif.g08.bks.cpg/sg15_58_cif.got.tgz:114408.got - 2010.06.03 18:47:42.
