data_PCOD9299495
_publ_section_title
;
Structure prediction by ZEFSAII (Michael W. Deem and Ramdas Pophale) SiO2 
 PCOD9299495
Probable space group: C 2/C
;
_chemical_formula_sum "Si O2"
_cell_formula_units_Z 48
_cell_length_a 30.062740
_cell_length_b 8.103622
_cell_length_c 12.431689
_cell_angle_alpha 90.000000
_cell_angle_beta 42.274791
_cell_angle_gamma 90.000000
_cell_volume 2037.280948
_symmetry_space_group_name_H-M "C 2/C"
_symmetry_group_IT_number 15
_symmetry_cell_setting 'monoclinic'
loop_
_space_group_symop_operation_xyz
x,y,z
-x,y,1/2-z
-x,-y,-z
x,-y,1/2+z
1/2+x,1/2+y,z
1/2-x,1/2+y,1/2-z
1/2-x,1/2-y,-z
1/2+x,1/2-y,1/2+z
loop_
_atom_site_type_symbol
_atom_site_label
_atom_site_fract_x
_atom_site_fract_y
_atom_site_fract_z
Si Si1 0.716353 0.836018 0.163329
Si Si2 0.589872 0.729140 0.994212
Si Si3 0.788122 0.010395 0.726108
Si Si4 0.953225 0.266074 0.664362
Si Si5 0.190451 0.628949 0.071378
Si Si6 0.500000 0.477877 0.250000
Si Si7 0.000000 0.481973 0.250000
O O1 0.768583 0.942001 0.139921
O O2 0.690621 0.678156 0.280589
O O3 0.672262 0.984362 0.191398
O O4 0.750000 0.750000 0.000000
O O5 0.563920 0.585928 0.117721
O O6 0.568484 0.886095 0.102079
O O7 0.660767 0.657155 0.834402
O O8 0.546671 0.747242 0.963272
O O9 0.720698 0.037940 0.913552
O O10 0.875854 0.272482 0.834010
O O11 0.985999 0.419929 0.665642
O O12 0.989960 0.120747 0.659371
O O13 0.250000 0.750000 0.000000
#
# Coordination Sequence:
#
# PCOD9299495 Si02
#       7
#     8   8   8   8   8   4   4
#     4  10  25  42  65 105 142 185 226 279 362 420
#     4  11  24  46  70  99 139 184 238 292 346 424
#     4  11  24  42  69 103 139 182 229 288 361 415
#     4  11  24  47  70 100 141 182 235 293 352 423
#     4  11  23  43  69 105 137 178 231 287 357 418
#     4  10  26  44  68 100 134 188 236 282 346 418
#     4  10  26  46  72 102 136 190 244 290 350 420
#
# _framework density 23.560815000000002
#
# number of rings (size 3 to 8) (size 9 to 14) (size 15 to 20)
#    0.000    1.333    1.667    2.000    9.333    0.000 
#    9.000    0.000    0.000    0.000    0.000    0.000 
#    0.000    0.000    0.000    0.000    0.000    0.000 
#
# Total GULP energy -133778.027745 kJ/mol
# GULP energy per Si atom -5574.084489 kJ/mol
# Density = 2.350719 g / cm^3
# Si number density = 23.560815 Si / 1000 Ang^3
#
#
#
# Elastic Constant Matrix: (Units=GPa)
#
#
# Indices 1 2 3 4 5 6 
#
# 1 72.4614 20.9235 -16.4105 0.0000 18.6750 0.0000
# 2 20.9235 91.0087 15.3694 0.0000 10.4047 0.0000
# 3 -16.4105 15.3694 49.0482 0.0000 0.3226 0.0000
# 4 0.0000 0.0000 0.0000 -55.7476 0.0000 71.5577
# 5 18.6750 10.4047 0.3226 0.0000 43.2521 0.0000
# 6 0.0000 0.0000 0.0000 71.5577 0.0000 -60.8119
#
#
#
# Elastic Compliance Matrix: (Units=1/GPa)
#
#
# Indices 1 2 3 4 5 6 
#
# 1 0.018781 -0.004842 0.007847 0.000000 -0.007003 0.000000
# 2 -0.004842 0.013191 -0.005747 0.000000 -0.001039 0.000000
# 3 0.007847 -0.005747 0.024829 0.000000 -0.002191 0.000000
# 4 0.000000 0.000000 0.000000 0.035143 0.000000 0.041354
# 5 -0.007003 -0.001039 -0.002191 0.000000 0.026410 0.000000
# 6 0.000000 0.000000 0.000000 0.041354 0.000000 0.032217
#
#
# Mechanical properties :
#
#
# Convention : Reuss Voigt Hill
#
# Bulk Modulus (GPa) = 19.48717 28.03144 23.75931
# Shear Modulus (GPa) = 28.87512 -1.81908 13.52802
#
# Velocity S-wave (km/s) = 3.50459 -0.87963 2.39879
# Velocity P-wave (km/s) = 4.96641 3.30025 4.21645
#
# Compressibility (1/GPa) = 0.05131581
#
# Stress axis : x y z
#
# Youngs Moduli (GPa) = 53.24660 75.81174 40.27598
#
# Poissons Ratio (x) = 0.36711 -0.31605
# Poissons Ratio (y) = 0.25784 0.23145
# Poissons Ratio (z) = -0.41783 0.43566
#
# Static dielectric constant tensor:
#      x y z
#    x 1.866980 0.000000 0.089390 
#    y 0.000000 2.003940 0.000000 
#    z 0.089390 0.000000 1.394530 
# 
# From -- ./inp_files/180734.got.cif
#   From: 2010.05.17/outbox.cif.g08.bks.cpg/sg15_91_cif.got.tgz:180734.got - 2010.06.03 18:47:42.
