data_PCOD9299929
_publ_section_title
;
Structure prediction by ZEFSAII (Michael W. Deem and Ramdas Pophale) SiO2 
 PCOD9299929
Probable space group: C 2/C
;
_chemical_formula_sum "Si O2"
_cell_formula_units_Z 40
_cell_length_a 11.840363
_cell_length_b 15.668872
_cell_length_c 8.783532
_cell_angle_alpha 90.000000
_cell_angle_beta 78.844627
_cell_angle_gamma 90.000000
_cell_volume 1598.777153
_symmetry_space_group_name_H-M "C 2/C"
_symmetry_group_IT_number 15
_symmetry_cell_setting 'monoclinic'
loop_
_space_group_symop_operation_xyz
x,y,z
-x,y,1/2-z
-x,-y,-z
x,-y,1/2+z
1/2+x,1/2+y,z
1/2-x,1/2+y,1/2-z
1/2-x,1/2-y,-z
1/2+x,1/2-y,1/2+z
loop_
_atom_site_type_symbol
_atom_site_label
_atom_site_fract_x
_atom_site_fract_y
_atom_site_fract_z
Si Si1 0.191067 0.099749 0.003210
Si Si2 0.500000 0.987374 0.250000
Si Si3 0.884615 0.760707 0.498233
Si Si4 0.922348 0.621579 0.061634
Si Si5 0.374883 0.433237 0.319678
Si Si6 0.000000 0.813227 0.750000
O O1 0.075719 0.137540 0.106142
O O2 0.196463 0.002373 0.065818
O O3 0.297267 0.153040 0.044655
O O4 0.184887 0.093833 0.822705
O O5 0.591136 0.053640 0.298255
O O6 0.538905 0.930166 0.099445
O O7 0.750000 0.750000 0.500000
O O8 0.904765 0.850548 0.410515
O O9 0.979122 0.690118 0.424900
O O10 0.908467 0.763121 0.672086
O O11 0.500000 0.472728 0.250000
#
# Coordination Sequence:
#
# PCOD9299929 Si02
#       6
#     8   4   8   8   8   4
#     4  12  26  47  83 109 153 206 270 315 393 474
#     4  10  25  48  77 110 146 196 270 308 391 472
#     4  12  31  48  75 113 165 199 262 330 401 466
#     4  11  27  48  77 114 150 203 254 330 390 470
#     4  12  25  49  76 117 153 209 262 330 393 475
#     4  12  27  50  75 112 154 208 254 326 389 476
#
# _framework density 25.019120999999998
#
# number of rings (size 3 to 8) (size 9 to 14) (size 15 to 20)
#    0.000    0.400    3.000    3.600   15.400    0.800 
#    0.000    0.000    0.000    0.000    0.000    0.000 
#    0.000    0.000    0.000    0.000    0.000    0.000 
#
# Total GULP energy -111882.948581 kJ/mol
# GULP energy per Si atom -5594.147429 kJ/mol
# Density = 2.496218 g / cm^3
# Si number density = 25.019121 Si / 1000 Ang^3
#
#
#
# Elastic Constant Matrix: (Units=GPa)
#
#
# Indices 1 2 3 4 5 6 
#
# 1 179.9882 51.0532 40.4779 0.0000 41.9845 0.0000
# 2 51.0532 88.7262 42.4654 0.0000 6.6436 0.0000
# 3 40.4779 42.4654 137.7380 0.0000 36.0717 0.0000
# 4 0.0000 0.0000 0.0000 43.1907 0.0000 0.6707
# 5 41.9845 6.6436 36.0717 0.0000 41.6652 0.0000
# 6 0.0000 0.0000 0.0000 0.6707 0.0000 24.3034
#
#
#
# Elastic Compliance Matrix: (Units=1/GPa)
#
#
# Indices 1 2 3 4 5 6 
#
# 1 0.008854 -0.005068 0.001404 0.000000 -0.009329 0.000000
# 2 -0.005068 0.016232 -0.005399 0.000000 0.007192 0.000000
# 3 0.001404 -0.005399 0.011195 0.000000 -0.010246 0.000000
# 4 0.000000 0.000000 0.000000 0.023163 0.000000 -0.000639
# 5 -0.009329 0.007192 -0.010246 0.000000 0.041125 0.000000
# 6 0.000000 0.000000 0.000000 -0.000639 0.000000 0.041164
#
#
# Mechanical properties :
#
#
# Convention : Reuss Voigt Hill
#
# Bulk Modulus (GPa) = 55.07999 74.93838 65.00918
# Shear Modulus (GPa) = 30.13676 39.99557 35.06617
#
# Velocity S-wave (km/s) = 3.47443 4.00259 3.74782
# Velocity P-wave (km/s) = 6.17725 7.16787 6.69092
#
# Compressibility (1/GPa) = 0.01815542
#
# Stress axis : x y z
#
# Youngs Moduli (GPa) = 112.94658 61.60699 89.32246
#
# Poissons Ratio (x) = 0.31221 -0.12537
# Poissons Ratio (y) = 0.57238 0.48222
# Poissons Ratio (z) = -0.15853 0.33260
#
# Static dielectric constant tensor:
#      x y z
#    x 2.058240 0.000000 -0.016230 
#    y 0.000000 2.057010 0.000000 
#    z -0.016230 0.000000 1.966110 
# 
# From -- ./inp_files/29288.got.cif
#   From: 2010.05.17/outbox.cif.g08.bks.cpg/sg15_15_cif.got.tgz:29288.got - 2010.06.03 18:47:42.
