data_PCOD9299228
_publ_section_title
;
Structure prediction by ZEFSAII (Michael W. Deem and Ramdas Pophale) SiO2 
 PCOD9299228
Probable space group: C 2/C
;
_chemical_formula_sum "Si O2"
_cell_formula_units_Z 64
_cell_length_a 23.816026
_cell_length_b 20.865979
_cell_length_c 18.392413
_cell_angle_alpha 90.000000
_cell_angle_beta 159.648972
_cell_angle_gamma 90.000000
_cell_volume 3178.629367
_symmetry_space_group_name_H-M "C 2/C"
_symmetry_group_IT_number 15
_symmetry_cell_setting 'monoclinic'
loop_
_space_group_symop_operation_xyz
x,y,z
-x,y,1/2-z
-x,-y,-z
x,-y,1/2+z
1/2+x,1/2+y,z
1/2-x,1/2+y,1/2-z
1/2-x,1/2-y,-z
1/2+x,1/2-y,1/2+z
loop_
_atom_site_type_symbol
_atom_site_label
_atom_site_fract_x
_atom_site_fract_y
_atom_site_fract_z
Si Si1 0.427218 0.271874 0.734791
Si Si2 0.695562 0.630945 0.184609
Si Si3 0.360984 0.217463 0.884293
Si Si4 0.966938 0.349683 0.362077
Si Si5 0.884577 0.304204 0.679361
Si Si6 0.940681 0.870282 0.491003
Si Si7 0.166411 0.060787 0.497456
Si Si8 0.820544 0.913816 0.000315
O O1 0.500000 0.299421 0.750000
O O2 0.250000 0.250000 0.500000
O O3 0.511644 0.205250 0.858853
O O4 0.452155 0.322294 0.828917
O O5 0.687788 0.708473 0.180541
O O6 0.552578 0.605208 0.062074
O O7 0.872782 0.610353 0.426922
O O8 0.677368 0.612638 0.079002
O O9 0.417847 0.188913 0.875899
O O10 0.207255 0.173172 0.718118
O O11 0.503363 0.213210 0.115708
O O12 0.810761 0.390981 0.150621
O O13 0.750000 0.250000 0.500000
O O14 0.795490 0.369944 0.592092
O O15 0.000000 0.309810 0.750000
O O16 0.873934 0.922252 0.467239
O O17 0.000000 0.065440 0.250000
O O18 0.226248 0.988280 0.560136
O O19 0.000000 0.909072 0.250000
#
# Coordination Sequence:
#
# PCOD9299228 Si02
#       8
#     8   8   8   8   8   8   8   8
#     4  12  21  34  58  92 127 160 212 256 320 383
#     4  12  21  39  65  99 137 164 224 271 331 399
#     4  11  21  40  61  96 138 165 209 278 339 398
#     4  11  22  39  64  93 133 174 212 275 331 398
#     4  12  26  43  70 104 133 172 224 280 353 401
#     4  11  23  38  64  97 133 177 213 273 336 395
#     4  10  24  48  65  88 135 184 226 270 338 394
#     4  11  26  47  69  94 132 181 225 280 334 405
#
# _framework density 20.134464999999999
#
# number of rings (size 3 to 8) (size 9 to 14) (size 15 to 20)
#    0.000    0.750    3.750    5.250    3.500    1.000 
#    0.000    3.125    0.000    0.000    0.000    0.000 
#    0.000    0.000    0.000    0.000    0.000    0.000 
#
# Total GULP energy -178918.753125 kJ/mol
# GULP energy per Si atom -5591.211035 kJ/mol
# Density = 2.008864 g / cm^3
# Si number density = 20.134465 Si / 1000 Ang^3
#
#
#
# Elastic Constant Matrix: (Units=GPa)
#
#
# Indices 1 2 3 4 5 6 
#
# 1 85.0444 42.7308 6.9482 0.0000 6.3455 0.0000
# 2 42.7308 111.5981 33.0489 0.0000 1.6560 0.0000
# 3 6.9482 33.0489 106.9058 0.0000 -11.4973 0.0000
# 4 0.0000 0.0000 0.0000 24.8234 0.0000 5.6155
# 5 6.3455 1.6560 -11.4973 0.0000 30.1094 0.0000
# 6 0.0000 0.0000 0.0000 5.6155 0.0000 20.1217
#
#
#
# Elastic Compliance Matrix: (Units=1/GPa)
#
#
# Indices 1 2 3 4 5 6 
#
# 1 0.014821 -0.005800 0.000551 0.000000 -0.002594 0.000000
# 2 -0.005800 0.012225 -0.003486 0.000000 -0.000781 0.000000
# 3 0.000551 -0.003486 0.010850 0.000000 0.004219 0.000000
# 4 0.000000 0.000000 0.000000 0.042999 0.000000 -0.012000
# 5 -0.002594 -0.000781 0.004219 0.000000 0.035413 0.000000
# 6 0.000000 0.000000 0.000000 -0.012000 0.000000 0.053046
#
#
# Mechanical properties :
#
#
# Convention : Reuss Voigt Hill
#
# Bulk Modulus (GPa) = 48.95852 52.11156 50.53504
# Shear Modulus (GPa) = 25.82189 29.73227 27.77708
#
# Velocity S-wave (km/s) = 3.58505 3.84694 3.71830
# Velocity P-wave (km/s) = 6.44246 6.75795 6.60209
#
# Compressibility (1/GPa) = 0.02042546
#
# Stress axis : x y z
#
# Youngs Moduli (GPa) = 67.47110 81.79644 92.16785
#
# Poissons Ratio (x) = 0.47438 -0.05075
# Poissons Ratio (y) = 0.39130 0.32134
# Poissons Ratio (z) = -0.03715 0.28518
#
# Static dielectric constant tensor:
#      x y z
#    x 1.709270 0.000000 0.000390 
#    y 0.000000 1.717530 0.000000 
#    z 0.000390 0.000000 1.735750 
# 
# From -- ./inp_files/220293.got.cif
#   From: 2010.05.17/outbox.cif.g08.bks.cpg/sg15_111_cif.got.tgz:220293.got - 2010.06.03 18:47:42.
