data_PCOD9299077
_publ_section_title
;
Structure prediction by ZEFSAII (Michael W. Deem and Ramdas Pophale) SiO2 
 PCOD9299077
Probable space group: C 2/C
;
_chemical_formula_sum "Si O2"
_cell_formula_units_Z 24
_cell_length_a 6.692635
_cell_length_b 14.875283
_cell_length_c 9.640616
_cell_angle_alpha 90.000000
_cell_angle_beta 61.959718
_cell_angle_gamma 90.000000
_cell_volume 847.109599
_symmetry_space_group_name_H-M "C 2/C"
_symmetry_group_IT_number 15
_symmetry_cell_setting 'monoclinic'
loop_
_space_group_symop_operation_xyz
x,y,z
-x,y,1/2-z
-x,-y,-z
x,-y,1/2+z
1/2+x,1/2+y,z
1/2-x,1/2+y,1/2-z
1/2-x,1/2-y,-z
1/2+x,1/2-y,1/2+z
loop_
_atom_site_type_symbol
_atom_site_label
_atom_site_fract_x
_atom_site_fract_y
_atom_site_fract_z
Si Si1 0.177671 0.683000 0.899729
Si Si2 0.740068 0.931224 0.613586
Si Si3 0.698046 0.640704 0.936100
O O1 0.298652 0.691938 0.712658
O O2 0.909730 0.677831 0.953741
O O3 0.250000 0.750000 0.000000
O O4 0.237274 0.587416 0.949830
O O5 0.500000 0.899515 0.750000
O O6 0.959612 0.875103 0.592581
O O7 0.754694 0.037416 0.626215
#
# Coordination Sequence:
#
# PCOD9299077 Si02
#       3
#     8   8   8
#     4  11  24  46  76 111 162 208 266 330 396 476
#     4  11  23  43  77 115 158 200 255 332 406 483
#     4  10  24  46  77 115 157 202 268 323 396 486
#
# _framework density 28.331637000000001
#
# number of rings (size 3 to 8) (size 9 to 14) (size 15 to 20)
#    0.000    1.333    3.333    2.000    0.000    5.333 
#    0.000    3.333    0.000    2.000    0.000    0.000 
#    0.000    0.000    0.000    0.000    0.000    0.000 
#
# Total GULP energy -67203.471022 kJ/mol
# GULP energy per Si atom -5600.289252 kJ/mol
# Density = 2.826715 g / cm^3
# Si number density = 28.331637 Si / 1000 Ang^3
#
#
#
# Elastic Constant Matrix: (Units=GPa)
#
#
# Indices 1 2 3 4 5 6 
#
# 1 281.5874 74.5718 97.7089 0.0000 -33.5183 0.0000
# 2 74.5718 124.8501 70.6981 0.0000 7.8376 0.0000
# 3 97.7089 70.6981 183.0700 0.0000 13.0852 0.0000
# 4 0.0000 0.0000 0.0000 41.8443 0.0000 12.0995
# 5 -33.5183 7.8376 13.0852 0.0000 71.9968 0.0000
# 6 0.0000 0.0000 0.0000 12.0995 0.0000 64.2480
#
#
#
# Elastic Compliance Matrix: (Units=1/GPa)
#
#
# Indices 1 2 3 4 5 6 
#
# 1 0.005230 -0.002063 -0.002214 0.000000 0.003062 0.000000
# 2 -0.002063 0.011076 -0.003062 0.000000 -0.001610 0.000000
# 3 -0.002214 -0.003062 0.007980 0.000000 -0.002148 0.000000
# 4 0.000000 0.000000 0.000000 0.025274 0.000000 -0.004760
# 5 0.003062 -0.001610 -0.002148 0.000000 0.015880 0.000000
# 6 0.000000 0.000000 0.000000 -0.004760 0.000000 0.016461
#
#
# Mechanical properties :
#
#
# Convention : Reuss Voigt Hill
#
# Bulk Modulus (GPa) = 104.05420 119.49612 111.77516
# Shear Modulus (GPa) = 50.10958 58.71972 54.41465
#
# Velocity S-wave (km/s) = 4.21013 4.55750 4.38726
# Velocity P-wave (km/s) = 7.77435 8.36443 8.07478
#
# Compressibility (1/GPa) = 0.00961038
#
# Stress axis : x y z
#
# Youngs Moduli (GPa) = 191.19995 90.28344 125.31700
#
# Poissons Ratio (x) = 0.18621 0.27742
# Poissons Ratio (y) = 0.39435 0.38367
# Poissons Ratio (z) = 0.42327 0.27641
#
# Static dielectric constant tensor:
#      x y z
#    x 2.376500 0.000000 -0.032810 
#    y 0.000000 2.355820 0.000000 
#    z -0.032810 0.000000 2.059170 
# 
# From -- ./inp_files/21106.got.cif
#   From: 2010.05.17/outbox.cif.g08.bks.cpg/sg15_11_cif.got.tgz:21106.got - 2010.06.03 18:47:42.
