data_PCOD9299231
_publ_section_title
;
Structure prediction by ZEFSAII (Michael W. Deem and Ramdas Pophale) SiO2 
 PCOD9299231
Probable space group: C 2/C
;
_chemical_formula_sum "Si O2"
_cell_formula_units_Z 52
_cell_length_a 27.654112
_cell_length_b 11.349441
_cell_length_c 9.474851
_cell_angle_alpha 90.000000
_cell_angle_beta 128.777752
_cell_angle_gamma 90.000000
_cell_volume 2318.290976
_symmetry_space_group_name_H-M "C 2/C"
_symmetry_group_IT_number 15
_symmetry_cell_setting 'monoclinic'
loop_
_space_group_symop_operation_xyz
x,y,z
-x,y,1/2-z
-x,-y,-z
x,-y,1/2+z
1/2+x,1/2+y,z
1/2-x,1/2+y,1/2-z
1/2-x,1/2-y,-z
1/2+x,1/2-y,1/2+z
loop_
_atom_site_type_symbol
_atom_site_label
_atom_site_fract_x
_atom_site_fract_y
_atom_site_fract_z
Si Si1 0.045367 0.037863 0.459304
Si Si2 0.849213 0.144953 0.407316
Si Si3 0.847373 0.207230 0.727432
Si Si4 0.919837 0.569258 0.355235
Si Si5 0.244710 0.529679 0.631148
Si Si6 0.672861 0.112906 0.763342
Si Si7 0.000000 0.510501 0.250000
O O1 0.086805 0.923021 0.501398
O O2 0.000000 0.074872 0.250000
O O3 0.095581 0.135804 0.597335
O O4 0.000000 0.000000 0.500000
O O5 0.851450 0.193605 0.568023
O O6 0.795320 0.048428 0.303819
O O7 0.832635 0.247184 0.265224
O O8 0.862307 0.343885 0.779380
O O9 0.782920 0.147336 0.657091
O O10 0.892712 0.437635 0.306437
O O11 0.955055 0.586954 0.270891
O O12 0.964371 0.569960 0.571489
O O13 0.191024 0.564644 0.641563
O O14 0.220571 0.446240 0.460778
#
# Coordination Sequence:
#
# PCOD9299231 Si02
#       7
#     8   8   8   8   8   8   4
#     4  11  24  45  69  99 134 178 230 283 343 403
#     4  11  24  44  69 102 136 183 230 275 351 409
#     4  11  24  43  72 102 137 181 229 285 342 418
#     4  11  25  45  71 102 136 181 236 270 357 405
#     4  11  25  45  69 102 142 176 230 287 344 403
#     4  12  25  45  72 100 140 184 227 285 340 420
#     4  10  24  48  66 100 146 176 224 300 328 414
#
# _framework density 22.430316999999999
#
# number of rings (size 3 to 8) (size 9 to 14) (size 15 to 20)
#    0.000    0.923    3.077    3.231    3.231    4.923 
#    6.923    0.000    0.000    0.000    0.000    0.000 
#    0.000    0.000    0.000    0.000    0.000    0.000 
#
# Total GULP energy -145338.204127 kJ/mol
# GULP energy per Si atom -5589.930928 kJ/mol
# Density = 2.237926 g / cm^3
# Si number density = 22.430317 Si / 1000 Ang^3
#
#
#
# Elastic Constant Matrix: (Units=GPa)
#
#
# Indices 1 2 3 4 5 6 
#
# 1 82.1687 6.0122 27.4152 0.0000 4.4053 0.0000
# 2 6.0122 69.8543 9.1384 0.0000 10.7835 0.0000
# 3 27.4152 9.1384 123.7893 0.0000 2.9105 0.0000
# 4 0.0000 0.0000 0.0000 27.5314 0.0000 9.7421
# 5 4.4053 10.7835 2.9105 0.0000 25.5501 0.0000
# 6 0.0000 0.0000 0.0000 9.7421 0.0000 26.6120
#
#
#
# Elastic Compliance Matrix: (Units=1/GPa)
#
#
# Indices 1 2 3 4 5 6 
#
# 1 0.013254 -0.000497 -0.002857 0.000000 -0.001750 0.000000
# 2 -0.000497 0.015452 -0.000882 0.000000 -0.006335 0.000000
# 3 -0.002857 -0.000882 0.008779 0.000000 -0.000135 0.000000
# 4 0.000000 0.000000 0.000000 0.041728 0.000000 -0.015276
# 5 -0.001750 -0.006335 -0.000135 0.000000 0.042130 0.000000
# 6 0.000000 0.000000 0.000000 -0.015276 0.000000 0.043169
#
#
# Mechanical properties :
#
#
# Convention : Reuss Voigt Hill
#
# Bulk Modulus (GPa) = 34.46754 40.10489 37.28622
# Shear Modulus (GPa) = 27.37421 31.48846 29.43133
#
# Velocity S-wave (km/s) = 3.49723 3.75084 3.62625
# Velocity P-wave (km/s) = 5.63093 6.05616 5.84741
#
# Compressibility (1/GPa) = 0.02901280
#
# Stress axis : x y z
#
# Youngs Moduli (GPa) = 75.45115 64.71817 113.90385
#
# Poissons Ratio (x) = 0.03215 0.32547
# Poissons Ratio (y) = 0.03748 0.10043
# Poissons Ratio (z) = 0.21560 0.05706
#
# Static dielectric constant tensor:
#      x y z
#    x 1.803810 0.000000 0.008120 
#    y 0.000000 1.838360 0.000000 
#    z 0.008120 0.000000 1.918100 
# 
# From -- ./inp_files/65621.got.cif
#   From: 2010.05.17/outbox.cif.g08.bks.cpg/sg15_33_cif.got.tgz:65621.got - 2010.06.03 18:47:42.
