data_PCOD9299002
_publ_section_title
;
Structure prediction by ZEFSAII (Michael W. Deem and Ramdas Pophale) SiO2 
 PCOD9299002
Probable space group: C 2/C
;
_chemical_formula_sum "Si O2"
_cell_formula_units_Z 52
_cell_length_a 19.922348
_cell_length_b 12.713458
_cell_length_c 19.645049
_cell_angle_alpha 90.000000
_cell_angle_beta 27.680830
_cell_angle_gamma 90.000000
_cell_volume 2311.457193
_symmetry_space_group_name_H-M "C 2/C"
_symmetry_group_IT_number 15
_symmetry_cell_setting 'monoclinic'
loop_
_space_group_symop_operation_xyz
x,y,z
-x,y,1/2-z
-x,-y,-z
x,-y,1/2+z
1/2+x,1/2+y,z
1/2-x,1/2+y,1/2-z
1/2-x,1/2-y,-z
1/2+x,1/2-y,1/2+z
loop_
_atom_site_type_symbol
_atom_site_label
_atom_site_fract_x
_atom_site_fract_y
_atom_site_fract_z
Si Si1 0.000000 0.302695 0.250000
Si Si2 0.392415 0.403480 0.587694
Si Si3 0.165114 0.587445 0.498763
Si Si4 0.841556 0.759384 0.757577
Si Si5 0.213635 0.875964 0.086756
Si Si6 0.399899 0.970509 0.155554
Si Si7 0.437037 0.295542 0.405612
O O1 0.863287 0.368474 0.400646
O O2 0.942306 0.245720 0.234493
O O3 0.500000 0.500000 0.500000
O O4 0.403587 0.335253 0.645134
O O5 0.229630 0.447314 0.726088
O O6 0.429517 0.334160 0.488920
O O7 0.200655 0.681049 0.414310
O O8 0.282547 0.495573 0.391862
O O9 0.015502 0.532662 0.612247
O O10 0.829251 0.646330 0.730720
O O11 0.160207 0.868609 0.057075
O O12 0.098553 0.808229 0.232851
O O13 0.366378 0.818370 0.958715
O O14 0.500000 0.000000 0.000000
#
# Coordination Sequence:
#
# PCOD9299002 Si02
#       7
#     4   8   8   8   8   8   8
#     4  10  26  44  72 106 144 192 240 304 362 434
#     4  12  28  44  73 107 146 192 238 301 361 435
#     4  11  24  46  73 106 143 197 243 308 362 439
#     4  11  26  47  73 104 147 189 248 296 367 431
#     4  10  24  46  73 105 150 191 253 295 372 427
#     4  11  27  47  71 106 145 189 240 297 371 433
#     4  10  25  44  71 109 145 196 240 309 353 438
#
# _framework density 22.496632000000002
#
# number of rings (size 3 to 8) (size 9 to 14) (size 15 to 20)
#    0.000    1.231    1.538    1.385   12.923    3.692 
#    0.000    0.000    0.000    0.000    0.000    0.000 
#    0.000    0.000    0.000    0.000    0.000    0.000 
#
# Total GULP energy -145229.138322 kJ/mol
# GULP energy per Si atom -5585.736089 kJ/mol
# Density = 2.244543 g / cm^3
# Si number density = 22.496632 Si / 1000 Ang^3
#
#
#
# Elastic Constant Matrix: (Units=GPa)
#
#
# Indices 1 2 3 4 5 6 
#
# 1 108.7967 34.8834 35.3912 0.0002 28.5851 -0.0002
# 2 34.8834 94.6700 32.6170 0.0004 10.0448 -0.0004
# 3 35.3912 32.6170 106.4417 0.0003 20.1077 -0.0004
# 4 0.0002 0.0004 0.0003 16.1749 -0.0002 10.7944
# 5 28.5851 10.0448 20.1077 -0.0002 42.3137 0.0002
# 6 -0.0002 -0.0004 -0.0004 10.7944 0.0002 26.3037
#
#
#
# Elastic Compliance Matrix: (Units=1/GPa)
#
#
# Indices 1 2 3 4 5 6 
#
# 1 0.012671 -0.003282 -0.001909 0.000000 -0.006873 0.000000
# 2 -0.003282 0.012715 -0.002915 0.000000 0.000584 0.000000
# 3 -0.001909 -0.002915 0.011589 0.000000 -0.003526 0.000000
# 4 0.000000 0.000000 0.000000 0.085142 0.000001 -0.034940
# 5 -0.006873 0.000584 -0.003526 0.000001 0.029813 -0.000001
# 6 0.000000 0.000000 0.000000 -0.034940 -0.000001 0.052356
#
#
# Mechanical properties :
#
#
# Convention : Reuss Voigt Hill
#
# Bulk Modulus (GPa) = 48.16435 57.29907 52.73171
# Shear Modulus (GPa) = 21.98598 30.75956 26.37277
#
# Velocity S-wave (km/s) = 3.12957 3.70171 3.42760
# Velocity P-wave (km/s) = 5.87495 6.61782 6.25742
#
# Compressibility (1/GPa) = 0.02076224
#
# Stress axis : x y z
#
# Youngs Moduli (GPa) = 78.92317 78.64884 86.29005
#
# Poissons Ratio (x) = 0.25811 0.16471
# Poissons Ratio (y) = 0.25901 0.25157
# Poissons Ratio (z) = 0.15065 0.22929
#
# Static dielectric constant tensor:
#      x y z
#    x 1.814180 0.000000 -0.026890 
#    y 0.000000 1.927110 0.000000 
#    z -0.026890 0.000000 1.869240 
# 
# From -- ./inp_files/252727.got.cif
#   From: 2010.05.17/outbox.cif.g08.bks.cpg/sg15_127_cif.got.tgz:252727.got - 2010.06.03 18:47:42.
