data_PCOD9299263
_publ_section_title
;
Structure prediction by ZEFSAII (Michael W. Deem and Ramdas Pophale) SiO2 
 PCOD9299263
Probable space group: C 2/C
;
_chemical_formula_sum "Si O2"
_cell_formula_units_Z 60
_cell_length_a 16.696940
_cell_length_b 8.339646
_cell_length_c 21.455063
_cell_angle_alpha 90.000000
_cell_angle_beta 62.258444
_cell_angle_gamma 90.000000
_cell_volume 2644.144402
_symmetry_space_group_name_H-M "C 2/C"
_symmetry_group_IT_number 15
_symmetry_cell_setting 'monoclinic'
loop_
_space_group_symop_operation_xyz
x,y,z
-x,y,1/2-z
-x,-y,-z
x,-y,1/2+z
1/2+x,1/2+y,z
1/2-x,1/2+y,1/2-z
1/2-x,1/2-y,-z
1/2+x,1/2-y,1/2+z
loop_
_atom_site_type_symbol
_atom_site_label
_atom_site_fract_x
_atom_site_fract_y
_atom_site_fract_z
Si Si1 0.198254 0.668405 0.874578
Si Si2 0.606656 0.816342 0.076773
Si Si3 0.148520 0.324150 0.608011
Si Si4 0.587656 0.180175 0.790852
Si Si5 0.000000 0.608290 0.250000
Si Si6 0.789620 0.827460 0.854413
Si Si7 0.888099 0.167967 0.558546
Si Si8 0.085991 0.180579 0.511339
O O1 0.266373 0.800727 0.878038
O O2 0.161963 0.683846 0.818166
O O3 0.250535 0.502781 0.860996
O O4 0.113058 0.683349 0.951819
O O5 0.507438 0.779495 0.141325
O O6 0.675931 0.702658 0.088191
O O7 0.634962 0.996615 0.086023
O O8 0.608163 0.783329 0.003233
O O9 0.146418 0.205470 0.550311
O O10 0.060565 0.291534 0.681576
O O11 0.627289 0.290647 0.721796
O O12 0.566278 0.010008 0.765177
O O13 0.705536 0.705903 0.873301
O O14 0.979476 0.194635 0.564751
O O15 0.896195 0.989408 0.527826
#
# Coordination Sequence:
#
# PCOD9299263 Si02
#       8
#     8   8   8   8   4   8   8   8
#     4  12  27  43  70 108 140 181 237 289 355 411
#     4  11  22  48  74  97 140 191 230 283 350 422
#     4  11  24  44  73  99 145 175 239 285 349 411
#     4  11  24  46  72  97 144 182 233 282 352 419
#     4  10  24  48  70  98 132 198 220 288 356 420
#     4  12  25  42  72 103 137 188 236 287 349 422
#     4  11  25  43  73 102 142 187 244 284 356 412
#     4  11  25  45  67 107 145 183 229 307 343 414
#
# _framework density 22.691652000000001
#
# number of rings (size 3 to 8) (size 9 to 14) (size 15 to 20)
#    0.000    0.800    4.000    3.200    5.600    1.067 
#    4.800    0.000    0.000    0.000    0.000    0.000 
#    0.000    0.000    0.000    0.000    0.000    0.000 
#
# Total GULP energy -167844.972825 kJ/mol
# GULP energy per Si atom -5594.832428 kJ/mol
# Density = 2.264000 g / cm^3
# Si number density = 22.691652 Si / 1000 Ang^3
#
#
#
# Elastic Constant Matrix: (Units=GPa)
#
#
# Indices 1 2 3 4 5 6 
#
# 1 130.9092 34.1200 17.9405 0.0000 10.2470 0.0000
# 2 34.1200 51.7059 9.8084 0.0000 -8.1301 0.0000
# 3 17.9405 9.8084 63.7411 0.0000 2.9383 0.0000
# 4 0.0000 0.0000 0.0000 8.1592 0.0000 -2.9460
# 5 10.2470 -8.1301 2.9383 0.0000 43.6782 0.0000
# 6 0.0000 0.0000 0.0000 -2.9460 0.0000 12.7113
#
#
#
# Elastic Compliance Matrix: (Units=1/GPa)
#
#
# Indices 1 2 3 4 5 6 
#
# 1 0.009894 -0.006775 -0.001582 0.000000 -0.003476 0.000000
# 2 -0.006775 0.025256 -0.002276 0.000000 0.006444 0.000000
# 3 -0.001582 -0.002276 0.016538 0.000000 -0.001165 0.000000
# 4 0.000000 0.000000 0.000000 0.133753 0.000000 0.030999
# 5 -0.003476 0.006444 -0.001165 0.000000 0.024988 0.000000
# 6 0.000000 0.000000 0.000000 0.030999 0.000000 0.085854
#
#
# Mechanical properties :
#
#
# Convention : Reuss Voigt Hill
#
# Bulk Modulus (GPa) = 32.87271 41.12156 36.99714
# Shear Modulus (GPa) = 15.25833 25.20891 20.23362
#
# Velocity S-wave (km/s) = 2.59592 3.33668 2.98934
# Velocity P-wave (km/s) = 4.84801 5.74507 5.31550
#
# Compressibility (1/GPa) = 0.03042037
#
# Stress axis : x y z
#
# Youngs Moduli (GPa) = 101.07563 39.59466 60.46782
#
# Poissons Ratio (x) = 0.26826 0.09565
# Poissons Ratio (y) = 0.68479 0.13765
# Poissons Ratio (z) = 0.15989 0.09014
#
# Static dielectric constant tensor:
#      x y z
#    x 1.862660 0.000000 -0.038460 
#    y 0.000000 1.837200 0.000000 
#    z -0.038460 0.000000 1.846810 
# 
# From -- ./inp_files/273105.got.cif
#   From: 2010.05.17/outbox.cif.g08.bks.cpg/sg15_137_cif.got.tgz:273105.got - 2010.06.03 18:47:42.
