data_PCOD9299423
_publ_section_title
;
Structure prediction by ZEFSAII (Michael W. Deem and Ramdas Pophale) SiO2 
 PCOD9299423
Probable space group: C 2/C
;
_chemical_formula_sum "Si O2"
_cell_formula_units_Z 32
_cell_length_a 8.315533
_cell_length_b 22.268920
_cell_length_c 7.951352
_cell_angle_alpha 90.000000
_cell_angle_beta 111.950679
_cell_angle_gamma 90.000000
_cell_volume 1365.673692
_symmetry_space_group_name_H-M "C 2/C"
_symmetry_group_IT_number 15
_symmetry_cell_setting 'monoclinic'
loop_
_space_group_symop_operation_xyz
x,y,z
-x,y,1/2-z
-x,-y,-z
x,-y,1/2+z
1/2+x,1/2+y,z
1/2-x,1/2+y,1/2-z
1/2-x,1/2-y,-z
1/2+x,1/2-y,1/2+z
loop_
_atom_site_type_symbol
_atom_site_label
_atom_site_fract_x
_atom_site_fract_y
_atom_site_fract_z
Si Si1 0.656048 0.581502 0.702619
Si Si2 0.500000 0.760128 0.750000
Si Si3 0.366953 0.807752 0.346696
Si Si4 0.756458 0.459778 0.914948
Si Si5 0.500000 0.960051 0.750000
O O1 0.500000 0.608120 0.750000
O O2 0.822616 0.621986 0.803114
O O3 0.673358 0.514468 0.781027
O O4 0.634556 0.577050 0.492849
O O5 0.446132 0.795328 0.560278
O O6 0.322123 0.724569 0.731726
O O7 0.500000 0.789224 0.250000
O O8 0.868380 0.424989 0.819384
O O9 0.886843 0.495328 0.090290
#
# Coordination Sequence:
#
# PCOD9299423 Si02
#       5
#     8   4   8   8   4
#     4  11  22  39  59  94 133 182 223 269 329 405
#     4  10  24  51  72 102 134 170 222 301 344 412
#     4  11  24  44  78 102 134 174 227 281 356 405
#     4   9  19  33  57  80 135 170 214 271 318 385
#     4   8  16  31  52  82 110 164 220 259 316 368
#
# _framework density 23.431660000000001
#
# number of rings (size 3 to 8) (size 9 to 14) (size 15 to 20)
#    0.000    2.000    1.250    1.500   10.500    1.000 
#    4.500    0.000    0.000    0.000    0.000    0.000 
#    0.000    0.000    0.000    0.000    0.000    0.000 
#
# Total GULP energy -89260.651469 kJ/mol
# GULP energy per Si atom -5578.790717 kJ/mol
# Density = 2.337833 g / cm^3
# Si number density = 23.431660 Si / 1000 Ang^3
#
#
#
# Elastic Constant Matrix: (Units=GPa)
#
#
# Indices 1 2 3 4 5 6 
#
# 1 190.3144 47.1249 81.4554 0.0000 -49.8974 0.0000
# 2 47.1249 69.7843 33.6190 0.0000 -10.1956 0.0000
# 3 81.4554 33.6190 112.6690 0.0000 -39.9679 0.0000
# 4 0.0000 0.0000 0.0000 29.7479 0.0000 -4.5286
# 5 -49.8974 -10.1956 -39.9679 0.0000 54.7632 0.0000
# 6 0.0000 0.0000 0.0000 -4.5286 0.0000 31.9748
#
#
#
# Elastic Compliance Matrix: (Units=1/GPa)
#
#
# Indices 1 2 3 4 5 6 
#
# 1 0.008998 -0.003576 -0.003733 0.000000 0.004809 0.000000
# 2 -0.003576 0.018177 -0.003770 0.000000 -0.002625 0.000000
# 3 -0.003733 -0.003770 0.015171 0.000000 0.006970 0.000000
# 4 0.000000 0.000000 0.000000 0.034357 0.000000 0.004866
# 5 0.004809 -0.002625 0.006970 0.000000 0.027240 0.000000
# 6 0.000000 0.000000 0.000000 0.004866 0.000000 0.031964
#
#
# Mechanical properties :
#
#
# Convention : Reuss Voigt Hill
#
# Bulk Modulus (GPa) = 49.52881 77.46292 63.49587
# Shear Modulus (GPa) = 30.34093 37.33506 33.83799
#
# Velocity S-wave (km/s) = 3.60233 3.99602 3.80427
# Velocity P-wave (km/s) = 6.20370 7.37711 6.81570
#
# Compressibility (1/GPa) = 0.02019027
#
# Stress axis : x y z
#
# Youngs Moduli (GPa) = 111.13318 55.01405 65.91336
#
# Poissons Ratio (x) = 0.19671 0.24602
# Poissons Ratio (y) = 0.39738 0.24850
# Poissons Ratio (z) = 0.41481 0.20741
#
# Static dielectric constant tensor:
#      x y z
#    x 2.066150 0.000000 -0.042220 
#    y 0.000000 1.851320 0.000000 
#    z -0.042220 0.000000 1.900640 
# 
# From -- ./inp_files/22953.got.cif
#   From: 2010.05.17/outbox.cif.g08.bks.cpg/sg15_12_cif.got.tgz:22953.got - 2010.06.03 18:47:42.
