data_PCOD9299735
_publ_section_title
;
Structure prediction by ZEFSAII (Michael W. Deem and Ramdas Pophale) SiO2 
 PCOD9299735
Probable space group: C 2/C
;
_chemical_formula_sum "Si O2"
_cell_formula_units_Z 24
_cell_length_a 14.115210
_cell_length_b 7.465867
_cell_length_c 14.415936
_cell_angle_alpha 90.000000
_cell_angle_beta 144.912298
_cell_angle_gamma 90.000000
_cell_volume 873.272099
_symmetry_space_group_name_H-M "C 2/C"
_symmetry_group_IT_number 15
_symmetry_cell_setting 'monoclinic'
loop_
_space_group_symop_operation_xyz
x,y,z
-x,y,1/2-z
-x,-y,-z
x,-y,1/2+z
1/2+x,1/2+y,z
1/2-x,1/2+y,1/2-z
1/2-x,1/2-y,-z
1/2+x,1/2-y,1/2+z
loop_
_atom_site_type_symbol
_atom_site_label
_atom_site_fract_x
_atom_site_fract_y
_atom_site_fract_z
Si Si1 0.095501 0.349603 0.202900
Si Si2 0.681329 0.136136 0.573251
Si Si3 0.633949 0.489759 0.949488
O O1 0.197091 0.399493 0.375495
O O2 0.962236 0.497685 0.067620
O O3 0.216712 0.353384 0.210935
O O4 0.000272 0.163548 0.140134
O O5 0.616936 0.332466 0.496588
O O6 0.826528 0.073456 0.620663
#
# Coordination Sequence:
#
# PCOD9299735 Si02
#       3
#     8   8   8
#     4  11  25  46  78 109 148 199 251 313 383 451
#     4  10  25  45  73 108 151 200 244 307 384 453
#     4  11  25  49  75 112 149 197 253 315 379 456
#
# _framework density 27.482842999999999
#
# number of rings (size 3 to 8) (size 9 to 14) (size 15 to 20)
#    0.000    1.333    0.000    3.000    9.333    2.667 
#    6.000    6.667    0.000    0.000    0.000    0.000 
#    0.000    0.000    0.000    0.000    0.000    0.000 
#
# Total GULP energy -67362.475136 kJ/mol
# GULP energy per Si atom -5613.539595 kJ/mol
# Density = 2.742029 g / cm^3
# Si number density = 27.482843 Si / 1000 Ang^3
#
#
#
# Elastic Constant Matrix: (Units=GPa)
#
#
# Indices 1 2 3 4 5 6 
#
# 1 189.1524 48.3820 35.8666 0.0000 -28.8202 0.0000
# 2 48.3820 245.5606 50.4319 0.0000 2.9695 0.0000
# 3 35.8666 50.4319 58.8292 0.0000 -19.6308 0.0000
# 4 0.0000 0.0000 0.0000 37.2038 0.0000 -14.8851
# 5 -28.8202 2.9695 -19.6308 0.0000 45.5352 0.0000
# 6 0.0000 0.0000 0.0000 -14.8851 0.0000 -1.6097
#
#
#
# Elastic Compliance Matrix: (Units=1/GPa)
#
#
# Indices 1 2 3 4 5 6 
#
# 1 0.006393 -0.000871 -0.002081 0.000000 0.003206 0.000000
# 2 -0.000871 0.005320 -0.005056 0.000000 -0.003078 0.000000
# 3 -0.002081 -0.005056 0.026015 0.000000 0.010228 0.000000
# 4 0.000000 0.000000 0.000000 0.005719 0.000000 -0.052887
# 5 0.003206 -0.003078 0.010228 0.000000 0.028600 0.000000
# 6 0.000000 0.000000 0.000000 -0.052887 0.000000 -0.132185
#
#
# Mechanical properties :
#
#
# Convention : Reuss Voigt Hill
#
# Bulk Modulus (GPa) = 46.06158 84.76701 65.41430
# Shear Modulus (GPa) = -135.55344 40.14998 -47.70173
#
# Velocity S-wave (km/s) = -7.03065 3.82633 -4.17068
# Velocity P-wave (km/s) = 7.00786 7.10153 0.81286
#
# Compressibility (1/GPa) = 0.02171007
#
# Stress axis : x y z
#
# Youngs Moduli (GPa) = 156.43272 187.98484 38.43968
#
# Poissons Ratio (x) = 0.16371 0.08000
# Poissons Ratio (y) = 0.13623 0.19437
# Poissons Ratio (z) = 0.32556 0.95053
#
# Static dielectric constant tensor:
#      x y z
#    x 2.170150 0.000000 0.029730 
#    y 0.000000 2.038850 0.000000 
#    z 0.029730 0.000000 2.198410 
# 
# From -- ./inp_files/36119.got.cif
#   From: 2010.05.17/outbox.cif.g08.bks.cpg/sg15_19_cif.got.tgz:36119.got - 2010.06.03 18:47:42.
