data_PCOD9299650
_publ_section_title
;
Structure prediction by ZEFSAII (Michael W. Deem and Ramdas Pophale) SiO2 
 PCOD9299650
Probable space group: C 2/C
;
_chemical_formula_sum "Si O2"
_cell_formula_units_Z 56
_cell_length_a 14.998612
_cell_length_b 12.776373
_cell_length_c 13.636869
_cell_angle_alpha 90.000000
_cell_angle_beta 63.355658
_cell_angle_gamma 90.000000
_cell_volume 2335.701221
_symmetry_space_group_name_H-M "C 2/C"
_symmetry_group_IT_number 15
_symmetry_cell_setting 'monoclinic'
loop_
_space_group_symop_operation_xyz
x,y,z
-x,y,1/2-z
-x,-y,-z
x,-y,1/2+z
1/2+x,1/2+y,z
1/2-x,1/2+y,1/2-z
1/2-x,1/2-y,-z
1/2+x,1/2-y,1/2+z
loop_
_atom_site_type_symbol
_atom_site_label
_atom_site_fract_x
_atom_site_fract_y
_atom_site_fract_z
Si Si1 0.355775 0.286824 0.652703
Si Si2 0.114459 0.442288 0.324755
Si Si3 0.237627 0.129230 0.489274
Si Si4 0.796903 0.655522 0.126349
Si Si5 0.118818 0.447604 0.090217
Si Si6 0.557663 0.489773 0.125935
Si Si7 0.935357 0.151914 0.536491
O O1 0.337401 0.162244 0.652755
O O2 0.302449 0.366016 0.603100
O O3 0.313281 0.322534 0.778615
O O4 0.470936 0.297964 0.567779
O O5 0.158994 0.550913 0.342945
O O6 0.126835 0.430061 0.201669
O O7 0.993973 0.442046 0.393745
O O8 0.250000 0.250000 0.500000
O O9 0.152044 0.083255 0.601327
O O10 0.337029 0.062873 0.448201
O O11 0.813481 0.631956 0.004221
O O12 0.863073 0.759103 0.112930
O O13 0.500000 0.528411 0.250000
O O14 0.603661 0.574342 0.028367
O O15 0.479535 0.420041 0.101550
#
# Coordination Sequence:
#
# PCOD9299650 Si02
#       7
#     8   8   8   8   8   8   8
#     4  11  25  45  71  98 147 184 235 296 358 422
#     4  11  25  46  69 105 145 184 240 300 359 431
#     4  11  25  45  68 106 136 178 246 295 343 434
#     4  12  25  44  77  98 146 192 229 300 368 413
#     4  11  25  44  71 105 139 186 244 293 358 439
#     4  10  25  44  71  95 143 183 231 292 353 422
#     4  10  25  46  65 106 134 185 239 284 356 431
#
# _framework density 23.975667999999999
#
# number of rings (size 3 to 8) (size 9 to 14) (size 15 to 20)
#    0.000    1.143    2.857    1.286   10.000    2.857 
#    0.000    0.000    0.000    0.000    0.000    0.000 
#    0.000    0.000    0.000    0.000    0.000    0.000 
#
# Total GULP energy -156612.809370 kJ/mol
# GULP energy per Si atom -5593.314620 kJ/mol
# Density = 2.392110 g / cm^3
# Si number density = 23.975668 Si / 1000 Ang^3
#
#
#
# Elastic Constant Matrix: (Units=GPa)
#
#
# Indices 1 2 3 4 5 6 
#
# 1 62.4992 30.6888 29.3196 0.0000 -9.3164 0.0000
# 2 30.6888 109.5585 12.6377 0.0000 -1.5255 0.0000
# 3 29.3196 12.6377 118.4079 0.0000 -9.1555 0.0000
# 4 0.0000 0.0000 0.0000 35.2110 0.0000 -7.3094
# 5 -9.3164 -1.5255 -9.1555 0.0000 20.6680 0.0000
# 6 0.0000 0.0000 0.0000 -7.3094 0.0000 41.8474
#
#
#
# Elastic Compliance Matrix: (Units=1/GPa)
#
#
# Indices 1 2 3 4 5 6 
#
# 1 0.021821 -0.005519 -0.004230 0.000000 0.007555 0.000000
# 2 -0.005519 0.010639 0.000103 0.000000 -0.001657 0.000000
# 3 -0.004230 0.000103 0.009666 0.000000 0.002383 0.000000
# 4 0.000000 0.000000 0.000000 0.029469 0.000000 0.005147
# 5 0.007555 -0.001657 0.002383 0.000000 0.052723 0.000000
# 6 0.000000 0.000000 0.000000 0.005147 0.000000 0.024795
#
#
# Mechanical properties :
#
#
# Convention : Reuss Voigt Hill
#
# Bulk Modulus (GPa) = 43.79574 48.41754 46.10664
# Shear Modulus (GPa) = 28.40660 34.06658 31.23659
#
# Velocity S-wave (km/s) = 3.44584 3.77355 3.61341
# Velocity P-wave (km/s) = 5.84279 6.26295 6.05651
#
# Compressibility (1/GPa) = 0.02283327
#
# Stress axis : x y z
#
# Youngs Moduli (GPa) = 45.82783 93.99749 103.45521
#
# Poissons Ratio (x) = 0.51879 0.43761
# Poissons Ratio (y) = 0.25293 -0.01066
# Poissons Ratio (z) = 0.19385 -0.00969
#
# Static dielectric constant tensor:
#      x y z
#    x 1.995400 0.000000 0.043560 
#    y 0.000000 1.922030 0.000000 
#    z 0.043560 0.000000 1.950720 
# 
# From -- ./inp_files/161223.got.cif
#   From: 2010.05.17/outbox.cif.g08.bks.cpg/sg15_81_cif.got.tgz:161223.got - 2010.06.03 18:47:42.
