data_PCOD9299496
_publ_section_title
;
Structure prediction by ZEFSAII (Michael W. Deem and Ramdas Pophale) SiO2 
 PCOD9299496
Probable space group: C 2/C
;
_chemical_formula_sum "Si O2"
_cell_formula_units_Z 64
_cell_length_a 15.478959
_cell_length_b 20.659516
_cell_length_c 17.281234
_cell_angle_alpha 90.000000
_cell_angle_beta 147.779821
_cell_angle_gamma 90.000000
_cell_volume 2946.495768
_symmetry_space_group_name_H-M "C 2/C"
_symmetry_group_IT_number 15
_symmetry_cell_setting 'monoclinic'
loop_
_space_group_symop_operation_xyz
x,y,z
-x,y,1/2-z
-x,-y,-z
x,-y,1/2+z
1/2+x,1/2+y,z
1/2-x,1/2+y,1/2-z
1/2-x,1/2-y,-z
1/2+x,1/2-y,1/2+z
loop_
_atom_site_type_symbol
_atom_site_label
_atom_site_fract_x
_atom_site_fract_y
_atom_site_fract_z
Si Si1 0.100098 0.426452 0.898130
Si Si2 0.904444 0.121790 0.054962
Si Si3 0.748852 0.580906 0.827140
Si Si4 0.756145 0.176775 0.197152
Si Si5 0.795093 0.680918 0.730453
Si Si6 0.406957 0.473633 0.037032
Si Si7 0.141189 0.311798 0.442688
Si Si8 0.305879 0.041441 0.270929
O O1 0.000000 0.393281 0.750000
O O2 0.962719 0.469721 0.835721
O O3 0.185332 0.396836 0.039530
O O4 0.250073 0.460294 0.970373
O O5 0.849310 0.152154 0.931481
O O6 0.748221 0.129506 0.991065
O O7 0.063945 0.160888 0.198703
O O8 0.954011 0.047621 0.087646
O O9 0.814909 0.629726 0.813131
O O10 0.553909 0.573486 0.671864
O O11 0.804313 0.509326 0.839916
O O12 0.762221 0.247752 0.239131
O O13 0.647434 0.185943 0.040031
O O14 0.699898 0.115667 0.204649
O O15 0.947348 0.686924 0.786361
O O16 0.344524 0.467453 0.901646
O O17 0.250000 0.250000 0.500000
#
# Coordination Sequence:
#
# PCOD9299496 Si02
#       8
#     8   8   8   8   8   8   8   8
#     4  10  25  42  65  96 131 172 222 289 341 394
#     4  12  24  39  63  94 139 178 226 268 328 403
#     4  12  23  42  68  98 134 174 231 281 336 404
#     4  12  24  42  63  95 134 188 218 271 331 398
#     4  12  25  41  65  96 134 184 225 270 332 398
#     4  11  24  44  67 100 131 180 225 289 341 397
#     4  12  25  39  59  93 145 183 221 257 320 419
#     4  11  23  42  66  97 137 171 229 278 340 399
#
# _framework density 21.720717
#
# number of rings (size 3 to 8) (size 9 to 14) (size 15 to 20)
#    0.000    0.500    5.000    3.375    3.500    2.000 
#    0.000    0.000    0.000    8.250    0.000    0.000 
#    0.000    0.000    0.000    0.000    0.000    0.000 
#
# Total GULP energy -178615.547649 kJ/mol
# GULP energy per Si atom -5581.735864 kJ/mol
# Density = 2.167128 g / cm^3
# Si number density = 21.720717 Si / 1000 Ang^3
#
#
#
# Elastic Constant Matrix: (Units=GPa)
#
#
# Indices 1 2 3 4 5 6 
#
# 1 97.3025 31.9353 18.0483 0.0064 15.6205 0.0023
# 2 31.9353 111.6329 14.7398 0.0050 -0.7716 0.0027
# 3 18.0483 14.7398 93.3431 0.0146 2.1738 0.0069
# 4 0.0064 0.0050 0.0146 18.2871 0.0067 -2.6069
# 5 15.6205 -0.7716 2.1738 0.0067 45.4605 0.0026
# 6 0.0023 0.0027 0.0069 -2.6069 0.0026 24.2257
#
#
#
# Elastic Compliance Matrix: (Units=1/GPa)
#
#
# Indices 1 2 3 4 5 6 
#
# 1 0.012379 -0.003337 -0.001768 0.000000 -0.004225 0.000000
# 2 -0.003337 0.010051 -0.000974 -0.000001 0.001364 -0.000001
# 3 -0.001768 -0.000974 0.011208 -0.000009 0.000055 -0.000004
# 4 0.000000 -0.000001 -0.000009 0.055535 -0.000008 0.005976
# 5 -0.004225 0.001364 0.000055 -0.000008 0.023470 -0.000003
# 6 0.000000 -0.000001 -0.000004 0.005976 -0.000003 0.041921
#
#
# Mechanical properties :
#
#
# Convention : Reuss Voigt Hill
#
# Bulk Modulus (GPa) = 46.55642 47.96946 47.26294
# Shear Modulus (GPa) = 28.75539 33.43167 31.09353
#
# Velocity S-wave (km/s) = 3.64245 3.92747 3.78764
# Velocity P-wave (km/s) = 6.25864 6.53447 6.39804
#
# Compressibility (1/GPa) = 0.02147932
#
# Stress axis : x y z
#
# Youngs Moduli (GPa) = 80.78359 99.49710 89.22596
#
# Poissons Ratio (x) = 0.33202 0.15776
# Poissons Ratio (y) = 0.26957 0.08687
# Poissons Ratio (z) = 0.14284 0.09687
#
# Static dielectric constant tensor:
#      x y z
#    x 1.810350 0.000000 -0.000370 
#    y 0.000000 1.773100 0.000000 
#    z -0.000370 0.000000 1.902930 
# 
# From -- ./inp_files/211996.got.cif
#   From: 2010.05.17/outbox.cif.g08.bks.cpg/sg15_106_cif.got.tgz:211996.got - 2010.06.03 18:47:42.
