data_PCOD9299082
_publ_section_title
;
Structure prediction by ZEFSAII (Michael W. Deem and Ramdas Pophale) SiO2 
 PCOD9299082
Probable space group: C 2/C
;
_chemical_formula_sum "Si O2"
_cell_formula_units_Z 36
_cell_length_a 16.994331
_cell_length_b 6.350787
_cell_length_c 15.468269
_cell_angle_alpha 90.000000
_cell_angle_beta 63.366587
_cell_angle_gamma 90.000000
_cell_volume 1492.309336
_symmetry_space_group_name_H-M "C 2/C"
_symmetry_group_IT_number 15
_symmetry_cell_setting 'monoclinic'
loop_
_space_group_symop_operation_xyz
x,y,z
-x,y,1/2-z
-x,-y,-z
x,-y,1/2+z
1/2+x,1/2+y,z
1/2-x,1/2+y,1/2-z
1/2-x,1/2-y,-z
1/2+x,1/2-y,1/2+z
loop_
_atom_site_type_symbol
_atom_site_label
_atom_site_fract_x
_atom_site_fract_y
_atom_site_fract_z
Si Si1 0.599785 0.878772 0.927061
Si Si2 0.500000 0.517649 0.750000
Si Si3 0.234220 0.093431 0.926932
Si Si4 0.922796 0.770875 0.457621
Si Si5 0.910453 0.608161 0.748466
O O1 0.685315 0.737826 0.880425
O O2 0.513007 0.731603 0.971237
O O3 0.593954 0.025388 0.846207
O O4 0.603244 0.028218 0.009539
O O5 0.542580 0.645723 0.650998
O O6 0.424370 0.360639 0.749112
O O7 0.326353 0.026565 0.841512
O O8 0.250000 0.250000 0.000000
O O9 0.163562 0.910072 0.980460
O O10 0.000000 0.535226 0.750000
#
# Coordination Sequence:
#
# PCOD9299082 Si02
#       5
#     8   4   8   8   8
#     4  11  29  45  78 114 148 207 255 317 388 470
#     4  10  24  46  78 106 152 202 244 324 382 446
#     4  12  26  50  75 111 154 201 259 324 383 462
#     4  11  27  49  79 107 154 199 257 315 388 459
#     4  10  26  50  72 108 154 198 256 312 385 463
#
# _framework density 24.123685999999999
#
# number of rings (size 3 to 8) (size 9 to 14) (size 15 to 20)
#    0.667    0.444    2.222    0.667   20.222    0.889 
#    0.000    0.000    0.000    0.000    0.000    0.000 
#    0.000    0.000    0.000    0.000    0.000    0.000 
#
# Total GULP energy -100578.162696 kJ/mol
# GULP energy per Si atom -5587.675705 kJ/mol
# Density = 2.406878 g / cm^3
# Si number density = 24.123686 Si / 1000 Ang^3
#
#
#
# Elastic Constant Matrix: (Units=GPa)
#
#
# Indices 1 2 3 4 5 6 
#
# 1 179.6352 69.5352 76.2572 0.0000 -26.3539 -0.0001
# 2 69.5352 136.0759 75.7908 -0.0001 -5.3002 0.0000
# 3 76.2572 75.7908 161.2215 -0.0001 -27.0809 -0.0001
# 4 0.0000 -0.0001 -0.0001 44.3544 -0.0001 5.9043
# 5 -26.3539 -5.3002 -27.0809 -0.0001 42.0766 0.0000
# 6 -0.0001 0.0000 -0.0001 5.9043 0.0000 45.4112
#
#
#
# Elastic Compliance Matrix: (Units=1/GPa)
#
#
# Indices 1 2 3 4 5 6 
#
# 1 0.007980 -0.002932 -0.001815 0.000000 0.003461 0.000000
# 2 -0.002932 0.011181 -0.004419 0.000000 -0.003272 0.000000
# 3 -0.001815 -0.004419 0.009927 0.000000 0.004696 0.000000
# 4 0.000000 0.000000 0.000000 0.022943 0.000000 -0.002983
# 5 0.003461 -0.003272 0.004696 0.000000 0.028544 0.000000
# 6 0.000000 0.000000 0.000000 -0.002983 0.000000 0.022409
#
#
# Mechanical properties :
#
#
# Convention : Reuss Voigt Hill
#
# Bulk Modulus (GPa) = 92.96843 102.23322 97.60083
# Shear Modulus (GPa) = 40.03172 43.39173 41.71173
#
# Velocity S-wave (km/s) = 4.07804 4.24573 4.16273
# Velocity P-wave (km/s) = 7.79716 8.15511 7.97814
#
# Compressibility (1/GPa) = 0.01075634
#
# Stress axis : x y z
#
# Youngs Moduli (GPa) = 125.31361 89.43742 100.73376
#
# Poissons Ratio (x) = 0.26225 0.18280
# Poissons Ratio (y) = 0.36745 0.44514
# Poissons Ratio (z) = 0.22741 0.39522
#
# Static dielectric constant tensor:
#      x y z
#    x 1.942480 0.000000 0.027290 
#    y 0.000000 2.012790 0.000000 
#    z 0.027290 0.000000 1.897990 
# 
# From -- ./inp_files/271481.got.cif
#   From: 2010.05.17/outbox.cif.g08.bks.cpg/sg15_136_cif.got.tgz:271481.got - 2010.06.03 18:47:42.
