data_PCOD9299519
_publ_section_title
;
Structure prediction by ZEFSAII (Michael W. Deem and Ramdas Pophale) SiO2 
 PCOD9299519
Probable space group: C 2/C
;
_chemical_formula_sum "Si O2"
_cell_formula_units_Z 56
_cell_length_a 26.813346
_cell_length_b 8.589064
_cell_length_c 10.772297
_cell_angle_alpha 90.000000
_cell_angle_beta 78.303960
_cell_angle_gamma 90.000000
_cell_volume 2429.365762
_symmetry_space_group_name_H-M "C 2/C"
_symmetry_group_IT_number 15
_symmetry_cell_setting 'monoclinic'
loop_
_space_group_symop_operation_xyz
x,y,z
-x,y,1/2-z
-x,-y,-z
x,-y,1/2+z
1/2+x,1/2+y,z
1/2-x,1/2+y,1/2-z
1/2-x,1/2-y,-z
1/2+x,1/2-y,1/2+z
loop_
_atom_site_type_symbol
_atom_site_label
_atom_site_fract_x
_atom_site_fract_y
_atom_site_fract_z
Si Si1 0.892665 0.610166 0.292011
Si Si2 0.082779 0.900856 0.916746
Si Si3 0.262347 0.835006 0.622832
Si Si4 0.694923 0.526203 0.817993
Si Si5 0.439672 0.963447 0.023356
Si Si6 0.053769 0.924439 0.194062
Si Si7 0.781352 0.404965 0.953985
O O1 0.911371 0.560713 0.146068
O O2 0.922245 0.518170 0.388265
O O3 0.903970 0.793804 0.304603
O O4 0.834042 0.591531 0.355581
O O5 0.075176 0.716806 0.939925
O O6 0.140013 0.970078 0.890702
O O7 0.060621 0.945590 0.794387
O O8 0.056006 0.977000 0.050803
O O9 0.250000 0.750000 0.500000
O O10 0.293557 0.712262 0.692267
O O11 0.209552 0.910599 0.697961
O O12 0.292096 0.992931 0.571964
O O13 0.739748 0.482756 0.888258
O O14 0.500000 0.000000 0.000000
O O15 0.000000 0.844118 0.250000
O O16 0.750000 0.250000 0.000000
#
# Coordination Sequence:
#
# PCOD9299519 Si02
#       7
#     8   8   8   8   8   8   8
#     4  11  26  43  74 105 144 193 242 300 378 444
#     4  11  27  44  77 105 147 190 245 303 375 447
#     4  10  25  42  69  99 152 190 246 300 363 439
#     4  11  25  42  68 104 147 187 245 295 368 445
#     4  11  25  48  72 106 144 188 250 316 373 446
#     4  11  25  47  69 103 141 186 244 303 367 435
#     4  11  24  42  68 103 149 192 245 299 371 446
#
# _framework density 23.051282
#
# number of rings (size 3 to 8) (size 9 to 14) (size 15 to 20)
#    0.000    1.143    0.000    5.143   14.000    2.286 
#    0.000    0.000    0.000    0.000    0.000    0.000 
#    0.000    0.000    0.000    0.000    0.000    0.000 
#
# Total GULP energy -156204.493294 kJ/mol
# GULP energy per Si atom -5578.731903 kJ/mol
# Density = 2.299882 g / cm^3
# Si number density = 23.051282 Si / 1000 Ang^3
#
#
#
# Elastic Constant Matrix: (Units=GPa)
#
#
# Indices 1 2 3 4 5 6 
#
# 1 95.3260 28.2994 29.9681 0.0000 -14.1248 0.0000
# 2 28.2994 90.7136 30.9481 0.0000 -11.4867 0.0000
# 3 29.9681 30.9481 142.8745 0.0000 -19.3324 0.0000
# 4 0.0000 0.0000 0.0000 51.4537 0.0000 12.6212
# 5 -14.1248 -11.4867 -19.3324 0.0000 43.4405 0.0000
# 6 0.0000 0.0000 0.0000 12.6212 0.0000 23.2683
#
#
#
# Elastic Compliance Matrix: (Units=1/GPa)
#
#
# Indices 1 2 3 4 5 6 
#
# 1 0.012237 -0.002960 -0.001589 0.000000 0.002489 0.000000
# 2 -0.002960 0.012807 -0.001942 0.000000 0.001560 0.000000
# 3 -0.001589 -0.001942 0.008102 0.000000 0.002575 0.000000
# 4 0.000000 0.000000 0.000000 0.022418 0.000000 -0.012160
# 5 0.002489 0.001560 0.002575 0.000000 0.025388 0.000000
# 6 0.000000 0.000000 0.000000 -0.012160 0.000000 0.049573
#
#
# Mechanical properties :
#
#
# Convention : Reuss Voigt Hill
#
# Bulk Modulus (GPa) = 49.59435 56.37169 52.98302
# Shear Modulus (GPa) = 33.28264 39.61241 36.44752
#
# Velocity S-wave (km/s) = 3.80393 4.14991 3.98068
# Velocity P-wave (km/s) = 6.39176 6.88987 6.64549
#
# Compressibility (1/GPa) = 0.02016359
#
# Stress axis : x y z
#
# Youngs Moduli (GPa) = 81.71620 78.08010 123.43298
#
# Poissons Ratio (x) = 0.23115 0.19610
# Poissons Ratio (y) = 0.24192 0.23973
# Poissons Ratio (z) = 0.12983 0.15165
#
# Static dielectric constant tensor:
#      x y z
#    x 1.864230 0.000000 0.030270 
#    y 0.000000 2.087610 0.000000 
#    z 0.030270 0.000000 1.947330 
# 
# From -- ./inp_files/121860.got.cif
#   From: 2010.05.17/outbox.cif.g08.bks.cpg/sg15_61_cif.got.tgz:121860.got - 2010.06.03 18:47:42.
