data_PCOD9299766
_publ_section_title
;
Structure prediction by ZEFSAII (Michael W. Deem and Ramdas Pophale) SiO2 
 PCOD9299766
Probable space group: C 2/C
;
_chemical_formula_sum "Si O2"
_cell_formula_units_Z 36
_cell_length_a 16.753130
_cell_length_b 9.568697
_cell_length_c 16.146519
_cell_angle_alpha 90.000000
_cell_angle_beta 146.202218
_cell_angle_gamma 90.000000
_cell_volume 1439.819965
_symmetry_space_group_name_H-M "C 2/C"
_symmetry_group_IT_number 15
_symmetry_cell_setting 'monoclinic'
loop_
_space_group_symop_operation_xyz
x,y,z
-x,y,1/2-z
-x,-y,-z
x,-y,1/2+z
1/2+x,1/2+y,z
1/2-x,1/2+y,1/2-z
1/2-x,1/2-y,-z
1/2+x,1/2-y,1/2+z
loop_
_atom_site_type_symbol
_atom_site_label
_atom_site_fract_x
_atom_site_fract_y
_atom_site_fract_z
Si Si1 0.365110 0.862180 0.392859
Si Si2 0.117701 0.695394 0.234097
Si Si3 0.751181 0.066551 0.940841
Si Si4 0.500000 0.580815 0.750000
Si Si5 0.860307 0.359845 0.977798
O O1 0.232836 0.760343 0.271371
O O2 0.465552 0.821295 0.558194
O O3 0.476248 0.847517 0.413256
O O4 0.310229 0.017089 0.371105
O O5 0.179702 0.553889 0.324891
O O6 0.104334 0.813389 0.292436
O O7 0.781141 0.211153 0.919184
O O8 0.656511 0.086728 0.942148
O O9 0.905903 0.012650 0.107471
#
# Coordination Sequence:
#
# PCOD9299766 Si02
#       5
#     8   8   8   4   8
#     4  11  25  47  71 103 148 181 233 291 358 413
#     4  12  24  45  74 102 137 195 236 287 348 429
#     4  11  24  44  74 101 135 191 239 286 350 427
#     4  12  22  42  72 102 140 184 246 294 344 422
#     4  10  25  46  68 107 141 182 233 299 350 416
#
# _framework density 25.003126000000002
#
# number of rings (size 3 to 8) (size 9 to 14) (size 15 to 20)
#    0.000    0.889    4.444    2.000    0.000    9.778 
#    0.000    0.000    0.000    0.000    0.000    0.000 
#    0.000    0.000    0.000    0.000    0.000    0.000 
#
# Total GULP energy -100822.286661 kJ/mol
# GULP energy per Si atom -5601.238148 kJ/mol
# Density = 2.494622 g / cm^3
# Si number density = 25.003126 Si / 1000 Ang^3
#
#
#
# Elastic Constant Matrix: (Units=GPa)
#
#
# Indices 1 2 3 4 5 6 
#
# 1 182.1716 77.9272 -2.2456 0.0000 22.5478 0.0000
# 2 77.9272 153.4344 33.3365 0.0000 5.1688 0.0000
# 3 -2.2456 33.3365 74.0270 0.0000 -17.9855 0.0000
# 4 0.0000 0.0000 0.0000 37.4522 0.0000 9.3002
# 5 22.5478 5.1688 -17.9855 0.0000 32.5606 0.0000
# 6 0.0000 0.0000 0.0000 9.3002 0.0000 44.2357
#
#
#
# Elastic Compliance Matrix: (Units=1/GPa)
#
#
# Indices 1 2 3 4 5 6 
#
# 1 0.007731 -0.004012 0.001034 0.000000 -0.004146 0.000000
# 2 -0.004012 0.009647 -0.004808 0.000000 -0.001410 0.000000
# 3 0.001034 -0.004808 0.018153 0.000000 0.010075 0.000000
# 4 0.000000 0.000000 0.000000 0.028171 0.000000 -0.005923
# 5 -0.004146 -0.001410 0.010075 0.000000 0.039372 0.000000
# 6 0.000000 0.000000 0.000000 -0.005923 0.000000 0.023851
#
#
# Mechanical properties :
#
#
# Convention : Reuss Voigt Hill
#
# Bulk Modulus (GPa) = 50.10326 69.74100 59.92213
# Shear Modulus (GPa) = 33.52301 42.89072 38.20687
#
# Velocity S-wave (km/s) = 3.66560 4.14625 3.91331
# Velocity P-wave (km/s) = 6.16424 7.13269 6.66608
#
# Compressibility (1/GPa) = 0.01995878
#
# Stress axis : x y z
#
# Youngs Moduli (GPa) = 129.34558 103.65862 55.08717
#
# Poissons Ratio (x) = 0.41583 -0.05695
# Poissons Ratio (y) = 0.51887 0.26489
# Poissons Ratio (z) = -0.13371 0.49844
#
# Static dielectric constant tensor:
#      x y z
#    x 2.018220 0.000000 0.002680 
#    y 0.000000 1.967260 0.000000 
#    z 0.002680 0.000000 1.946290 
# 
# From -- ./inp_files/125381.got.cif
#   From: 2010.05.17/outbox.cif.g08.bks.cpg/sg15_63_cif.got.tgz:125381.got - 2010.06.03 18:47:42.
