data_PCOD9299379
_publ_section_title
;
Structure prediction by ZEFSAII (Michael W. Deem and Ramdas Pophale) SiO2 
 PCOD9299379
Probable space group: C 2/C
;
_chemical_formula_sum "Si O2"
_cell_formula_units_Z 44
_cell_length_a 9.307184
_cell_length_b 10.568963
_cell_length_c 25.149625
_cell_angle_alpha 90.000000
_cell_angle_beta 142.188340
_cell_angle_gamma 90.000000
_cell_volume 1516.668710
_symmetry_space_group_name_H-M "C 2/C"
_symmetry_group_IT_number 15
_symmetry_cell_setting 'monoclinic'
loop_
_space_group_symop_operation_xyz
x,y,z
-x,y,1/2-z
-x,-y,-z
x,-y,1/2+z
1/2+x,1/2+y,z
1/2-x,1/2+y,1/2-z
1/2-x,1/2-y,-z
1/2+x,1/2-y,1/2+z
loop_
_atom_site_type_symbol
_atom_site_label
_atom_site_fract_x
_atom_site_fract_y
_atom_site_fract_z
Si Si1 0.346925 0.964772 0.506448
Si Si2 0.000000 0.803774 0.250000
Si Si3 0.937796 0.167004 0.288660
Si Si4 0.336379 0.067954 0.771668
Si Si5 0.828759 0.285538 0.590088
Si Si6 0.284514 0.648371 0.941139
O O1 0.171965 0.859466 0.431134
O O2 0.460011 0.877498 0.586783
O O3 0.500000 0.000000 0.500000
O O4 0.254173 0.085679 0.512252
O O5 0.908119 0.724548 0.173631
O O6 0.774981 0.883558 0.204497
O O7 0.801061 0.058936 0.280761
O O8 0.804861 0.297657 0.233041
O O9 0.000000 0.111738 0.250000
O O10 0.148657 0.222254 0.385900
O O11 0.619079 0.055813 0.856472
O O12 0.557224 0.334134 0.510415
#
# Coordination Sequence:
#
# PCOD9299379 Si02
#       6
#     8   4   8   8   8   8
#     4  11  26  52  84 120 173 233 292 367 447 543
#     4  12  26  50  80 126 168 226 302 372 456 534
#     4  10  24  49  81 120 176 232 292 373 443 537
#     4  10  25  47  81 122 172 229 293 364 452 533
#     4  11  28  53  84 124 177 233 299 377 448 536
#     4  10  26  49  83 125 171 234 298 361 450 532
#
# _framework density 29.010949
#
# number of rings (size 3 to 8) (size 9 to 14) (size 15 to 20)
#    1.091    0.364    0.909    1.636    5.091    5.818 
#    9.818    0.000    0.000    0.000    0.000    0.000 
#    0.000    0.000    0.000    0.000    0.000    0.000 
#
# Total GULP energy -122947.467571 kJ/mol
# GULP energy per Si atom -5588.521253 kJ/mol
# Density = 2.894492 g / cm^3
# Si number density = 29.010949 Si / 1000 Ang^3
#
#
#
# Elastic Constant Matrix: (Units=GPa)
#
#
# Indices 1 2 3 4 5 6 
#
# 1 176.2265 82.3172 78.7535 0.0000 -1.8793 0.0000
# 2 82.3172 177.4797 95.5065 0.0000 -2.2707 0.0000
# 3 78.7535 95.5065 165.1516 0.0000 -3.9089 0.0000
# 4 0.0000 0.0000 0.0000 48.1780 0.0000 0.8894
# 5 -1.8793 -2.2707 -3.9089 0.0000 64.9417 0.0000
# 6 0.0000 0.0000 0.0000 0.8894 0.0000 72.4972
#
#
#
# Elastic Compliance Matrix: (Units=1/GPa)
#
#
# Indices 1 2 3 4 5 6 
#
# 1 0.007836 -0.002357 -0.002374 0.000000 0.000001 0.000000
# 2 -0.002357 0.008889 -0.004016 0.000000 0.000001 0.000000
# 3 -0.002374 -0.004016 0.009518 0.000000 0.000364 0.000000
# 4 0.000000 0.000000 0.000000 0.020761 0.000000 -0.000255
# 5 0.000001 0.000001 0.000364 0.000000 0.015420 0.000000
# 6 0.000000 0.000000 0.000000 -0.000255 0.000000 0.013797
#
#
# Mechanical properties :
#
#
# Convention : Reuss Voigt Hill
#
# Bulk Modulus (GPa) = 114.29763 114.66804 114.48284
# Shear Modulus (GPa) = 51.74219 54.60876 53.17547
#
# Velocity S-wave (km/s) = 4.22778 4.34331 4.28594
# Velocity P-wave (km/s) = 7.95712 8.04761 8.00250
#
# Compressibility (1/GPa) = 0.00874909
#
# Stress axis : x y z
#
# Youngs Moduli (GPa) = 127.61011 112.49652 105.06184
#
# Poissons Ratio (x) = 0.26519 0.24937
# Poissons Ratio (y) = 0.30082 0.42198
# Poissons Ratio (z) = 0.30289 0.45184
#
# Static dielectric constant tensor:
#      x y z
#    x 2.360230 0.000000 0.135570 
#    y 0.000000 2.326910 0.000000 
#    z 0.135570 0.000000 2.392560 
# 
# From -- ./inp_files/291729.got.cif
#   From: 2010.05.17/outbox.cif.g08.bks.cpg/sg15_146_cif.got.tgz:291729.got - 2010.06.03 18:47:42.
