data_PCOD9299310
_publ_section_title
;
Structure prediction by ZEFSAII (Michael W. Deem and Ramdas Pophale) SiO2 
 PCOD9299310
Probable space group: C 2/C
;
_chemical_formula_sum "Si O2"
_cell_formula_units_Z 40
_cell_length_a 4.990926
_cell_length_b 19.526329
_cell_length_c 17.517229
_cell_angle_alpha 90.000000
_cell_angle_beta 77.031343
_cell_angle_gamma 90.000000
_cell_volume 1663.588286
_symmetry_space_group_name_H-M "C 2/C"
_symmetry_group_IT_number 15
_symmetry_cell_setting 'monoclinic'
loop_
_space_group_symop_operation_xyz
x,y,z
-x,y,1/2-z
-x,-y,-z
x,-y,1/2+z
1/2+x,1/2+y,z
1/2-x,1/2+y,1/2-z
1/2-x,1/2-y,-z
1/2+x,1/2-y,1/2+z
loop_
_atom_site_type_symbol
_atom_site_label
_atom_site_fract_x
_atom_site_fract_y
_atom_site_fract_z
Si Si1 0.500000 0.719245 0.750000
Si Si2 0.486308 0.751182 0.919957
Si Si3 0.500000 0.120456 0.750000
Si Si4 0.448508 0.401039 0.044156
Si Si5 0.287640 0.518494 0.832710
Si Si6 0.448934 0.099766 0.058431
O O1 0.406587 0.755740 0.834876
O O2 0.743945 0.670451 0.760982
O O3 0.619426 0.676704 0.925245
O O4 0.647676 0.821467 0.924861
O O5 0.250000 0.750000 0.000000
O O6 0.554205 0.070465 0.817625
O O7 0.546419 0.445890 0.109210
O O8 0.199209 0.427400 0.008664
O O9 0.723614 0.399428 0.973614
O O10 0.500000 0.508598 0.750000
O O11 0.151076 0.448396 0.867856
#
# Coordination Sequence:
#
# PCOD9299310 Si02
#       6
#     4   8   4   8   8   8
#     4  12  26  47  78 105 146 194 254 306 362 442
#     4  10  24  48  76 107 145 194 244 302 370 443
#     4  12  26  45  74 107 140 196 254 300 356 450
#     4  11  24  46  74 103 139 195 245 290 358 447
#     4  12  27  45  75 106 149 189 246 301 370 437
#     4  11  27  45  71 106 148 183 239 305 372 430
#
# _framework density 24.044409999999999
#
# number of rings (size 3 to 8) (size 9 to 14) (size 15 to 20)
#    0.000    0.800    3.000    1.800    8.400    4.000 
#    5.400    0.000    0.000    0.000    0.000    0.000 
#    0.000    0.000    0.000    0.000    0.000    0.000 
#
# Total GULP energy -111920.359396 kJ/mol
# GULP energy per Si atom -5596.017970 kJ/mol
# Density = 2.398968 g / cm^3
# Si number density = 24.044410 Si / 1000 Ang^3
#
#
#
# Elastic Constant Matrix: (Units=GPa)
#
#
# Indices 1 2 3 4 5 6 
#
# 1 118.3549 17.6750 30.6925 0.0000 8.8731 0.0000
# 2 17.6750 123.2281 49.9473 0.0000 -8.5161 0.0000
# 3 30.6925 49.9473 179.0295 0.0000 -0.1132 0.0000
# 4 0.0000 0.0000 0.0000 53.7703 0.0000 -0.9003
# 5 8.8731 -8.5161 -0.1132 0.0000 29.9138 0.0000
# 6 0.0000 0.0000 0.0000 -0.9003 0.0000 22.4692
#
#
#
# Elastic Compliance Matrix: (Units=1/GPa)
#
#
# Indices 1 2 3 4 5 6 
#
# 1 0.009159 -0.000997 -0.001294 0.000000 -0.003005 0.000000
# 2 -0.000997 0.009464 -0.002468 0.000000 0.002981 0.000000
# 3 -0.001294 -0.002468 0.006496 0.000000 -0.000294 0.000000
# 4 0.000000 0.000000 0.000000 0.018610 0.000000 0.000746
# 5 -0.003005 0.002981 -0.000294 0.000000 0.035168 0.000000
# 6 0.000000 0.000000 0.000000 0.000746 0.000000 0.044535
#
#
# Mechanical properties :
#
#
# Convention : Reuss Voigt Hill
#
# Bulk Modulus (GPa) = 64.09480 68.58245 66.33863
# Shear Modulus (GPa) = 36.19247 42.71716 39.45482
#
# Velocity S-wave (km/s) = 3.88394 4.21954 4.05521
# Velocity P-wave (km/s) = 6.84310 7.23357 7.04104
#
# Compressibility (1/GPa) = 0.01560189
#
# Stress axis : x y z
#
# Youngs Moduli (GPa) = 109.18320 105.66129 153.94665
#
# Poissons Ratio (x) = 0.10534 0.19920
# Poissons Ratio (y) = 0.10885 0.37988
# Poissons Ratio (z) = 0.14128 0.26073
#
# Static dielectric constant tensor:
#      x y z
#    x 1.900520 0.000000 -0.048930 
#    y 0.000000 1.908160 0.000000 
#    z -0.048930 0.000000 2.003320 
# 
# From -- ./inp_files/185079.got.cif
#   From: 2010.05.17/outbox.cif.g08.bks.cpg/sg15_93_cif.got.tgz:185079.got - 2010.06.03 18:47:42.
