data_PCOD9299152
_publ_section_title
;
Structure prediction by ZEFSAII (Michael W. Deem and Ramdas Pophale) SiO2 
 PCOD9299152
Probable space group: C 2/C
;
_chemical_formula_sum "Si O2"
_cell_formula_units_Z 44
_cell_length_a 20.333494
_cell_length_b 17.407812
_cell_length_c 5.391399
_cell_angle_alpha 90.000000
_cell_angle_beta 63.402805
_cell_angle_gamma 90.000000
_cell_volume 1706.399670
_symmetry_space_group_name_H-M "C 2/C"
_symmetry_group_IT_number 15
_symmetry_cell_setting 'monoclinic'
loop_
_space_group_symop_operation_xyz
x,y,z
-x,y,1/2-z
-x,-y,-z
x,-y,1/2+z
1/2+x,1/2+y,z
1/2-x,1/2+y,1/2-z
1/2-x,1/2-y,-z
1/2+x,1/2-y,1/2+z
loop_
_atom_site_type_symbol
_atom_site_label
_atom_site_fract_x
_atom_site_fract_y
_atom_site_fract_z
Si Si1 0.712204 0.036851 0.359316
Si Si2 0.924912 0.664511 0.534569
Si Si3 0.500000 0.052967 0.750000
Si Si4 0.316780 0.806160 0.822828
Si Si5 0.584924 0.307580 0.643339
Si Si6 0.122482 0.025533 0.981566
O O1 0.797296 0.009878 0.208285
O O2 0.500000 0.000000 0.500000
O O3 0.679339 0.003898 0.669353
O O4 0.937825 0.614154 0.762857
O O5 0.853570 0.648628 0.489978
O O6 0.914356 0.754070 0.617504
O O7 0.000000 0.654388 0.250000
O O8 0.709893 0.128223 0.322081
O O9 0.379874 0.750014 0.614506
O O10 0.250000 0.750000 0.000000
O O11 0.500000 0.327182 0.750000
O O12 0.628131 0.386655 0.557857
O O13 0.085977 0.019753 0.771561
#
# Coordination Sequence:
#
# PCOD9299152 Si02
#       6
#     8   8   4   8   8   8
#     4  10  24  47  71 107 157 204 264 328 413 490
#     4  12  26  52  79 124 171 222 286 350 447 519
#     4  12  26  50  86 120 166 230 296 358 428 526
#     4  12  28  48  82 122 166 222 282 356 438 519
#     4  12  27  49  82 117 165 216 280 346 422 524
#     4  10  24  47  76 111 157 207 268 336 410 492
#
# _framework density 25.785283
#
# number of rings (size 3 to 8) (size 9 to 14) (size 15 to 20)
#    0.000    0.727    3.636    2.182   10.182    2.909 
#    0.000    0.000    0.000    0.000    0.000    0.000 
#    0.000    0.000    0.000    0.000    0.000    0.000 
#
# Total GULP energy -123003.677397 kJ/mol
# GULP energy per Si atom -5591.076245 kJ/mol
# Density = 2.572660 g / cm^3
# Si number density = 25.785283 Si / 1000 Ang^3
#
#
#
# Elastic Constant Matrix: (Units=GPa)
#
#
# Indices 1 2 3 4 5 6 
#
# 1 110.7910 28.1061 47.0767 0.0000 -4.8141 0.0000
# 2 28.1061 181.5256 46.3097 0.0000 3.3764 0.0000
# 3 47.0767 46.3097 125.8145 0.0000 25.7734 0.0000
# 4 0.0000 0.0000 0.0000 45.9299 0.0000 12.6886
# 5 -4.8141 3.3764 25.7734 0.0000 51.3336 0.0000
# 6 0.0000 0.0000 0.0000 12.6886 0.0000 6.4735
#
#
#
# Elastic Compliance Matrix: (Units=1/GPa)
#
#
# Indices 1 2 3 4 5 6 
#
# 1 0.011343 -0.000614 -0.004731 0.000000 0.003480 0.000000
# 2 -0.000614 0.006143 -0.002159 0.000000 0.000622 0.000000
# 3 -0.004731 -0.002159 0.011787 0.000000 -0.006220 0.000000
# 4 0.000000 0.000000 0.000000 0.047485 0.000000 -0.093075
# 5 0.003480 0.000622 -0.006220 0.000000 0.022889 0.000000
# 6 0.000000 0.000000 0.000000 -0.093075 0.000000 0.336910
#
#
# Mechanical properties :
#
#
# Convention : Reuss Voigt Hill
#
# Bulk Modulus (GPa) = 70.09903 73.45735 71.77819
# Shear Modulus (GPa) = 10.95720 40.52332 25.74026
#
# Velocity S-wave (km/s) = 2.06364 3.96860 3.16294
# Velocity P-wave (km/s) = 5.73784 7.03915 6.42155
#
# Compressibility (1/GPa) = 0.01426553
#
# Stress axis : x y z
#
# Youngs Moduli (GPa) = 88.15768 162.78366 84.83727
#
# Poissons Ratio (x) = 0.09996 0.40138
# Poissons Ratio (y) = 0.05413 0.18315
# Poissons Ratio (z) = 0.41709 0.35143
#
# Static dielectric constant tensor:
#      x y z
#    x 2.668650 0.000000 0.047300 
#    y 0.000000 1.995950 0.000000 
#    z 0.047300 0.000000 2.132440 
# 
# From -- ./inp_files/10859.got.cif
#   From: 2010.05.17/outbox.cif.g08.bks.cpg/sg15_6_cif.got.tgz:10859.got - 2010.06.03 18:47:42.
