data_PCOD9299193
_publ_section_title
;
Structure prediction by ZEFSAII (Michael W. Deem and Ramdas Pophale) SiO2 
 PCOD9299193
Probable space group: C 2/C
;
_chemical_formula_sum "Si O2"
_cell_formula_units_Z 28
_cell_length_a 9.911626
_cell_length_b 14.534320
_cell_length_c 7.745678
_cell_angle_alpha 90.000000
_cell_angle_beta 81.604978
_cell_angle_gamma 90.000000
_cell_volume 1103.876521
_symmetry_space_group_name_H-M "C 2/C"
_symmetry_group_IT_number 15
_symmetry_cell_setting 'monoclinic'
loop_
_space_group_symop_operation_xyz
x,y,z
-x,y,1/2-z
-x,-y,-z
x,-y,1/2+z
1/2+x,1/2+y,z
1/2-x,1/2+y,1/2-z
1/2-x,1/2-y,-z
1/2+x,1/2-y,1/2+z
loop_
_atom_site_type_symbol
_atom_site_label
_atom_site_fract_x
_atom_site_fract_y
_atom_site_fract_z
Si Si1 0.854458 0.200725 0.604699
Si Si2 0.194857 0.381372 0.701097
Si Si3 0.500000 0.645242 0.250000
Si Si4 0.639310 0.075023 0.815404
O O1 0.750000 0.250000 0.500000
O O2 0.858693 0.279075 0.749084
O O3 0.977794 0.186086 0.449384
O O4 0.774487 0.110786 0.688070
O O5 0.350631 0.395565 0.739225
O O6 0.124404 0.464944 0.815843
O O7 0.168326 0.395926 0.504707
O O8 0.500000 0.112685 0.750000
#
# Coordination Sequence:
#
# PCOD9299193 Si02
#       4
#     8   8   4   8
#     4  10  24  47  75 109 148 196 242 309 372 435
#     4  11  25  48  78 114 146 200 245 312 374 435
#     4  10  24  48  76 108 154 188 258 300 376 446
#     4  12  27  50  77 110 152 197 251 305 373 449
#
# _framework density 25.365155999999999
#
# number of rings (size 3 to 8) (size 9 to 14) (size 15 to 20)
#    0.000    1.143    0.000    5.143    8.000    5.714 
#   10.286    0.000    0.000    0.000    0.000    0.000 
#    0.000    0.000    0.000    0.000    0.000    0.000 
#
# Total GULP energy -78052.420931 kJ/mol
# GULP energy per Si atom -5575.172924 kJ/mol
# Density = 2.530742 g / cm^3
# Si number density = 25.365156 Si / 1000 Ang^3
#
#
#
# Elastic Constant Matrix: (Units=GPa)
#
#
# Indices 1 2 3 4 5 6 
#
# 1 151.1025 36.5068 50.2260 0.0000 25.5167 0.0000
# 2 36.5068 92.5264 31.4591 0.0000 -13.9562 0.0000
# 3 50.2260 31.4591 167.9151 0.0000 15.3016 0.0000
# 4 0.0000 0.0000 0.0000 36.7398 0.0000 0.0132
# 5 25.5167 -13.9562 15.3016 0.0000 57.1139 0.0000
# 6 0.0000 0.0000 0.0000 0.0132 0.0000 1.7077
#
#
#
# Elastic Compliance Matrix: (Units=1/GPa)
#
#
# Indices 1 2 3 4 5 6 
#
# 1 0.008732 -0.003578 -0.001544 0.000000 -0.004362 0.000000
# 2 -0.003578 0.013728 -0.002002 0.000000 0.005490 0.000000
# 3 -0.001544 -0.002002 0.006944 0.000000 -0.001660 0.000000
# 4 0.000000 0.000000 0.000000 0.027219 0.000000 -0.000210
# 5 -0.004362 0.005490 -0.001660 0.000000 0.021244 0.000000
# 6 0.000000 0.000000 0.000000 -0.000210 0.000000 0.585601
#
#
# Mechanical properties :
#
#
# Convention : Reuss Voigt Hill
#
# Bulk Modulus (GPa) = 65.98272 71.99198 68.98735
# Shear Modulus (GPa) = 7.32313 38.66908 22.99610
#
# Velocity S-wave (km/s) = 1.70098 3.90872 3.01425
# Velocity P-wave (km/s) = 5.47059 6.98674 6.27463
#
# Compressibility (1/GPa) = 0.01515548
#
# Stress axis : x y z
#
# Youngs Moduli (GPa) = 114.51532 72.84221 144.01859
#
# Poissons Ratio (x) = 0.26066 0.22238
# Poissons Ratio (y) = 0.40978 0.28831
# Poissons Ratio (z) = 0.17682 0.14582
#
# Static dielectric constant tensor:
#      x y z
#    x 1.655810 0.000000 0.149510 
#    y 0.000000 2.118460 0.000000 
#    z 0.149510 0.000000 2.068920 
# 
# From -- ./inp_files/27297.got.cif
#   From: 2010.05.17/outbox.cif.g08.bks.cpg/sg15_14_cif.got.tgz:27297.got - 2010.06.03 18:47:42.
