data_PCOD9299751
_publ_section_title
;
Structure prediction by ZEFSAII (Michael W. Deem and Ramdas Pophale) SiO2 
 PCOD9299751
Probable space group: C 2/C
;
_chemical_formula_sum "Si O2"
_cell_formula_units_Z 36
_cell_length_a 16.734251
_cell_length_b 9.714984
_cell_length_c 14.462195
_cell_angle_alpha 90.000000
_cell_angle_beta 35.286695
_cell_angle_gamma 90.000000
_cell_volume 1358.191344
_symmetry_space_group_name_H-M "C 2/C"
_symmetry_group_IT_number 15
_symmetry_cell_setting 'monoclinic'
loop_
_space_group_symop_operation_xyz
x,y,z
-x,y,1/2-z
-x,-y,-z
x,-y,1/2+z
1/2+x,1/2+y,z
1/2-x,1/2+y,1/2-z
1/2-x,1/2-y,-z
1/2+x,1/2-y,1/2+z
loop_
_atom_site_type_symbol
_atom_site_label
_atom_site_fract_x
_atom_site_fract_y
_atom_site_fract_z
Si Si1 0.458720 0.142513 0.083665
Si Si2 0.500000 0.217133 0.750000
Si Si3 0.718345 0.562101 0.044113
Si Si4 0.616674 0.595783 0.933348
Si Si5 0.742025 0.808689 0.374073
O O1 0.266659 0.395537 0.255820
O O2 0.441753 0.249078 0.015638
O O3 0.579380 0.203718 0.034320
O O4 0.500000 0.000000 0.000000
O O5 0.377835 0.113494 0.901991
O O6 0.390016 0.328656 0.807335
O O7 0.671699 0.566828 0.982019
O O8 0.177572 0.331197 0.725619
O O9 0.702755 0.409328 0.099334
O O10 0.500000 0.500000 0.000000
#
# Coordination Sequence:
#
# PCOD9299751 Si02
#       5
#     8   4   8   8   8
#     4  10  26  47  81 118 160 209 276 333 416 488
#     4  10  26  42  82 118 162 218 276 328 412 488
#     4  11  24  48  79 121 166 215 280 338 407 494
#     4  10  25  45  86 114 159 214 268 339 417 482
#     4  10  26  47  80 117 158 208 275 342 404 487
#
# _framework density 26.505839000000002
#
# number of rings (size 3 to 8) (size 9 to 14) (size 15 to 20)
#    1.333    0.444    0.000    1.333   12.444    0.000 
#    0.000    1.111    4.889    0.000    0.000    0.000 
#    0.000    0.000    0.000    0.000    0.000    0.000 
#
# Total GULP energy -100489.350119 kJ/mol
# GULP energy per Si atom -5582.741673 kJ/mol
# Density = 2.644551 g / cm^3
# Si number density = 26.505839 Si / 1000 Ang^3
#
#
#
# Elastic Constant Matrix: (Units=GPa)
#
#
# Indices 1 2 3 4 5 6 
#
# 1 160.6969 61.7962 11.9920 0.0000 7.0412 0.0000
# 2 61.7962 190.8710 57.0661 0.0000 -7.1458 0.0000
# 3 11.9920 57.0661 151.1329 0.0000 -29.4810 0.0000
# 4 0.0000 0.0000 0.0000 45.3375 0.0000 2.1738
# 5 7.0412 -7.1458 -29.4810 0.0000 29.6481 0.0000
# 6 0.0000 0.0000 0.0000 2.1738 0.0000 45.4377
#
#
#
# Elastic Compliance Matrix: (Units=1/GPa)
#
#
# Indices 1 2 3 4 5 6 
#
# 1 0.007264 -0.002399 -0.000149 0.000000 -0.002451 0.000000
# 2 -0.002399 0.006721 -0.002383 0.000000 -0.000179 0.000000
# 3 -0.000149 -0.002383 0.009209 0.000000 0.008618 0.000000
# 4 0.000000 0.000000 0.000000 0.022107 0.000000 -0.001058
# 5 -0.002451 -0.000179 0.008618 0.000000 0.042838 0.000000
# 6 0.000000 0.000000 0.000000 -0.001058 0.000000 0.022059
#
#
# Mechanical properties :
#
#
# Convention : Reuss Voigt Hill
#
# Bulk Modulus (GPa) = 74.99578 84.93437 79.96507
# Shear Modulus (GPa) = 40.15935 48.87445 44.51690
#
# Velocity S-wave (km/s) = 3.89667 4.29874 4.10263
# Velocity P-wave (km/s) = 6.97143 7.53340 7.25786
#
# Compressibility (1/GPa) = 0.01333408
#
# Stress axis : x y z
#
# Youngs Moduli (GPa) = 137.66583 148.77644 108.58594
#
# Poissons Ratio (x) = 0.35693 0.01614
# Poissons Ratio (y) = 0.33027 0.25872
# Poissons Ratio (z) = 0.02046 0.35447
#
# Static dielectric constant tensor:
#      x y z
#    x 2.102910 0.000000 0.031980 
#    y 0.000000 2.173130 0.000000 
#    z 0.031980 0.000000 2.167410 
# 
# From -- ./inp_files/243003.got.cif
#   From: 2010.05.17/outbox.cif.g08.bks.cpg/sg15_122_cif.got.tgz:243003.got - 2010.06.03 18:47:42.
