data_PCOD9299100
_publ_section_title
;
Structure prediction by ZEFSAII (Michael W. Deem and Ramdas Pophale) SiO2 
 PCOD9299100
Probable space group: C 2/C
;
_chemical_formula_sum "Si O2"
_cell_formula_units_Z 32
_cell_length_a 23.099727
_cell_length_b 5.036421
_cell_length_c 9.899341
_cell_angle_alpha 90.000000
_cell_angle_beta 101.432561
_cell_angle_gamma 90.000000
_cell_volume 1128.837821
_symmetry_space_group_name_H-M "C 2/C"
_symmetry_group_IT_number 15
_symmetry_cell_setting 'monoclinic'
loop_
_space_group_symop_operation_xyz
x,y,z
-x,y,1/2-z
-x,-y,-z
x,-y,1/2+z
1/2+x,1/2+y,z
1/2-x,1/2+y,1/2-z
1/2-x,1/2-y,-z
1/2+x,1/2-y,1/2+z
loop_
_atom_site_type_symbol
_atom_site_label
_atom_site_fract_x
_atom_site_fract_y
_atom_site_fract_z
Si Si1 0.249435 0.001421 0.100638
Si Si2 0.650985 0.195999 0.155966
Si Si3 0.055873 0.287835 0.116312
Si Si4 0.423837 0.637610 0.095920
O O1 0.301315 0.032868 0.234364
O O2 0.189223 0.968096 0.160610
O O3 0.250000 0.250000 0.000000
O O4 0.250000 0.750000 0.000000
O O5 0.589301 0.055974 0.171732
O O6 0.630228 0.193905 0.987219
O O7 0.077436 0.090883 0.246494
O O8 0.985144 0.292823 0.094758
O O9 0.072354 0.134004 0.987240
#
# Coordination Sequence:
#
# PCOD9299100 Si02
#       4
#     8   8   8   8
#     4  12  30  50  77 121 170 229 295 355 437 526
#     4  12  27  47  80 113 165 222 290 358 434 513
#     4  10  24  47  77 125 163 229 281 368 436 534
#     4  10  24  46  81 119 170 219 295 356 449 517
#
# _framework density 28.347736000000001
#
# number of rings (size 3 to 8) (size 9 to 14) (size 15 to 20)
#    0.000    1.000    0.000    3.750   14.000    2.000 
#    0.000    5.000    0.000    0.000    0.000    0.000 
#    0.000    0.000    0.000    0.000    0.000    0.000 
#
# Total GULP energy -89215.884977 kJ/mol
# GULP energy per Si atom -5575.992811 kJ/mol
# Density = 2.828322 g / cm^3
# Si number density = 28.347736 Si / 1000 Ang^3
#
#
#
# Elastic Constant Matrix: (Units=GPa)
#
#
# Indices 1 2 3 4 5 6 
#
# 1 166.8574 73.8435 61.9937 0.0000 59.4502 0.0000
# 2 73.8435 217.5492 69.7001 0.0000 -1.6641 0.0000
# 3 61.9937 69.7001 175.0344 0.0000 48.3429 0.0000
# 4 0.0000 0.0000 0.0000 56.5429 0.0000 -13.5923
# 5 59.4502 -1.6641 48.3429 0.0000 69.8724 0.0000
# 6 0.0000 0.0000 0.0000 -13.5923 0.0000 37.4575
#
#
#
# Elastic Compliance Matrix: (Units=1/GPa)
#
#
# Indices 1 2 3 4 5 6 
#
# 1 0.011096 -0.003951 0.000342 0.000000 -0.009772 0.000000
# 2 -0.003951 0.006899 -0.002870 0.000000 0.005512 0.000000
# 3 0.000342 -0.002870 0.008449 0.000000 -0.006205 0.000000
# 4 0.000000 0.000000 0.000000 0.019376 0.000000 0.007031
# 5 -0.009772 0.005512 -0.006205 0.000000 0.027050 0.000000
# 6 0.000000 0.000000 0.000000 0.007031 0.000000 0.029248
#
#
# Mechanical properties :
#
#
# Convention : Reuss Voigt Hill
#
# Bulk Modulus (GPa) = 74.15034 107.83507 90.99271
# Shear Modulus (GPa) = 41.81572 56.36814 49.09193
#
# Velocity S-wave (km/s) = 3.84487 4.46405 4.16598
# Velocity P-wave (km/s) = 6.77679 8.04319 7.43700
#
# Compressibility (1/GPa) = 0.01348611
#
# Stress axis : x y z
#
# Youngs Moduli (GPa) = 90.12213 144.93831 118.36009
#
# Poissons Ratio (x) = 0.57261 -0.04049
# Poissons Ratio (y) = 0.35605 0.33975
# Poissons Ratio (z) = -0.03083 0.41604
#
# Static dielectric constant tensor:
#      x y z
#    x 2.343680 0.000000 -0.115570 
#    y 0.000000 2.860810 0.000000 
#    z -0.115570 0.000000 2.227020 
# 
# From -- ./inp_files/115450.got.cif
#   From: 2010.05.17/outbox.cif.g08.bks.cpg/sg15_58_cif.got.tgz:115450.got - 2010.06.03 18:47:42.
