data_PCOD9299902
_publ_section_title
;
Structure prediction by ZEFSAII (Michael W. Deem and Ramdas Pophale) SiO2 
 PCOD9299902
Probable space group: C 2/C
;
_chemical_formula_sum "Si O2"
_cell_formula_units_Z 40
_cell_length_a 22.759085
_cell_length_b 5.120065
_cell_length_c 19.864260
_cell_angle_alpha 90.000000
_cell_angle_beta 141.719988
_cell_angle_gamma 90.000000
_cell_volume 1433.994987
_symmetry_space_group_name_H-M "C 2/C"
_symmetry_group_IT_number 15
_symmetry_cell_setting 'monoclinic'
loop_
_space_group_symop_operation_xyz
x,y,z
-x,y,1/2-z
-x,-y,-z
x,-y,1/2+z
1/2+x,1/2+y,z
1/2-x,1/2+y,1/2-z
1/2-x,1/2-y,-z
1/2+x,1/2-y,1/2+z
loop_
_atom_site_type_symbol
_atom_site_label
_atom_site_fract_x
_atom_site_fract_y
_atom_site_fract_z
Si Si1 0.349175 0.840224 0.850276
Si Si2 0.227713 0.694702 0.070217
Si Si3 0.041548 0.794091 0.566226
Si Si4 0.485433 0.836261 0.165177
Si Si5 0.341185 0.201942 0.184657
O O1 0.295082 0.800565 0.870977
O O2 0.355228 0.159712 0.852385
O O3 0.329794 0.781845 0.755084
O O4 0.431507 0.598983 0.935461
O O5 0.306046 0.476587 0.125316
O O6 0.271002 0.977103 0.094048
O O7 0.126101 0.623988 0.946791
O O8 0.000000 0.500000 0.500000
O O9 0.021666 0.801302 0.629137
O O10 0.551823 0.094994 0.228967
O O11 0.500000 0.700252 0.250000
#
# Coordination Sequence:
#
# PCOD9299902 Si02
#       5
#     8   8   8   8   8
#     4   9  20  36  62 103 138 178 228 303 360 421
#     4  11  25  43  71 105 142 188 240 297 357 433
#     4   9  19  36  69 100 135 182 240 292 357 436
#     4  10  25  48  70 103 146 197 241 302 362 425
#     4  11  25  43  71 105 142 188 240 297 357 433
#
# _framework density 27.894098
#
# number of rings (size 3 to 8) (size 9 to 14) (size 15 to 20)
#    0.000    2.000    0.000    2.400   11.200    3.200 
#    0.000    2.000    0.000    0.000    0.000    0.000 
#    0.000    0.000    0.000    0.000    0.000    0.000 
#
# Total GULP energy -111767.713631 kJ/mol
# GULP energy per Si atom -5588.385682 kJ/mol
# Density = 2.783061 g / cm^3
# Si number density = 27.894098 Si / 1000 Ang^3
#
#
#
# Elastic Constant Matrix: (Units=GPa)
#
#
# Indices 1 2 3 4 5 6 
#
# 1 187.2245 42.8991 53.5375 0.0004 -14.4057 -0.0014
# 2 42.8991 173.9711 48.3571 0.0001 3.4098 -0.0028
# 3 53.5375 48.3571 186.3643 -0.0001 4.0329 -0.0004
# 4 0.0004 0.0001 -0.0001 29.3127 0.0001 20.6904
# 5 -14.4057 3.4098 4.0329 0.0001 42.1760 -0.0005
# 6 -0.0014 -0.0028 -0.0004 20.6904 -0.0005 27.4820
#
#
#
# Elastic Compliance Matrix: (Units=1/GPa)
#
#
# Indices 1 2 3 4 5 6 
#
# 1 0.006228 -0.001154 -0.001541 -0.000001 0.002368 0.000001
# 2 -0.001154 0.006414 -0.001316 -0.000001 -0.000787 0.000001
# 3 -0.001541 -0.001316 0.006172 0.000000 -0.001010 0.000000
# 4 -0.000001 -0.000001 0.000000 0.072804 -0.000001 -0.054812
# 5 0.002368 -0.000787 -0.001010 -0.000001 0.024679 0.000001
# 6 0.000001 0.000001 0.000000 -0.054812 0.000001 0.077654
#
#
# Mechanical properties :
#
#
# Convention : Reuss Voigt Hill
#
# Bulk Modulus (GPa) = 92.65609 93.01635 92.83622
# Shear Modulus (GPa) = 24.32254 46.64523 35.48388
#
# Velocity S-wave (km/s) = 2.95610 4.09372 3.57051
# Velocity P-wave (km/s) = 6.70377 7.46749 7.09591
#
# Compressibility (1/GPa) = 0.01079260
#
# Stress axis : x y z
#
# Youngs Moduli (GPa) = 160.55314 155.91483 162.02708
#
# Poissons Ratio (x) = 0.17991 0.24970
# Poissons Ratio (y) = 0.18526 0.21318
# Poissons Ratio (z) = 0.24743 0.20514
#
# Static dielectric constant tensor:
#      x y z
#    x 1.951040 0.000000 -0.170630 
#    y 0.000000 2.174750 0.000000 
#    z -0.170630 0.000000 1.627640 
# 
# From -- ./inp_files/243170.got.cif
#   From: 2010.05.17/outbox.cif.g08.bks.cpg/sg15_122_cif.got.tgz:243170.got - 2010.06.03 18:47:42.
