data_PCOD9299897
_publ_section_title
;
Structure prediction by ZEFSAII (Michael W. Deem and Ramdas Pophale) SiO2 
 PCOD9299897
Probable space group: C 2/C
;
_chemical_formula_sum "Si O2"
_cell_formula_units_Z 56
_cell_length_a 25.900780
_cell_length_b 9.307262
_cell_length_c 12.364907
_cell_angle_alpha 90.000000
_cell_angle_beta 63.462179
_cell_angle_gamma 90.000000
_cell_volume 2666.697597
_symmetry_space_group_name_H-M "C 2/C"
_symmetry_group_IT_number 15
_symmetry_cell_setting 'monoclinic'
loop_
_space_group_symop_operation_xyz
x,y,z
-x,y,1/2-z
-x,-y,-z
x,-y,1/2+z
1/2+x,1/2+y,z
1/2-x,1/2+y,1/2-z
1/2-x,1/2-y,-z
1/2+x,1/2-y,1/2+z
loop_
_atom_site_type_symbol
_atom_site_label
_atom_site_fract_x
_atom_site_fract_y
_atom_site_fract_z
Si Si1 0.760524 0.526092 0.686320
Si Si2 0.272474 0.330104 0.591411
Si Si3 0.557896 0.972235 0.381444
Si Si4 0.433086 0.267411 0.782826
Si Si5 0.373701 0.029183 0.989039
Si Si6 0.063807 0.706539 0.200653
Si Si7 0.146415 0.955878 0.153332
O O1 0.761728 0.444895 0.800854
O O2 0.779449 0.694350 0.666131
O O3 0.804816 0.461166 0.555480
O O4 0.696309 0.520625 0.695552
O O5 0.250000 0.250000 0.500000
O O6 0.324908 0.419338 0.490152
O O7 0.567217 0.811535 0.333081
O O8 0.500000 0.000000 0.500000
O O9 0.609678 0.035341 0.401527
O O10 0.550411 0.069225 0.284809
O O11 0.500000 0.290826 0.750000
O O12 0.403772 0.155241 0.894074
O O13 0.395353 0.409169 0.816039
O O14 0.400682 0.873962 0.928411
O O15 0.107220 0.817330 0.214762
O O16 0.000000 0.775916 0.250000
#
# Coordination Sequence:
#
# PCOD9299897 Si02
#       7
#     8   8   8   8   8   8   8
#     4  11  26  45  71 100 136 183 234 281 352 412
#     4  10  25  48  67 102 139 180 232 284 341 416
#     4  11  21  40  67  96 128 176 240 276 335 412
#     4  11  24  43  66 101 135 177 226 285 345 408
#     4  11  23  41  71  97 131 178 233 287 336 415
#     4  11  22  42  67  97 135 182 228 288 346 410
#     4  11  26  44  65 101 143 179 222 287 354 414
#
# _framework density 20.999756000000001
#
# number of rings (size 3 to 8) (size 9 to 14) (size 15 to 20)
#    0.000    1.143    4.286    1.286    8.000    1.714 
#    0.000    0.714    0.000    0.000    0.000    0.000 
#    0.000    0.000    0.000    0.000    0.000    0.000 
#
# Total GULP energy -155980.378721 kJ/mol
# GULP energy per Si atom -5570.727811 kJ/mol
# Density = 2.095196 g / cm^3
# Si number density = 20.999756 Si / 1000 Ang^3
#
#
#
# Elastic Constant Matrix: (Units=GPa)
#
#
# Indices 1 2 3 4 5 6 
#
# 1 98.0851 24.9649 21.5690 0.0000 -26.2446 0.0000
# 2 24.9649 112.9085 47.4540 0.0000 -16.7099 0.0000
# 3 21.5690 47.4540 104.3451 0.0000 -20.9020 0.0000
# 4 0.0000 0.0000 0.0000 17.6251 0.0000 -15.4398
# 5 -26.2446 -16.7099 -20.9020 0.0000 35.7946 0.0000
# 6 0.0000 0.0000 0.0000 -15.4398 0.0000 31.7838
#
#
#
# Elastic Compliance Matrix: (Units=1/GPa)
#
#
# Indices 1 2 3 4 5 6 
#
# 1 0.012942 -0.001466 -0.000277 0.000000 0.008643 0.000000
# 2 -0.001466 0.011316 -0.004530 0.000000 0.001562 0.000000
# 3 -0.000277 -0.004530 0.012725 0.000000 0.005113 0.000000
# 4 0.000000 0.000000 0.000000 0.098767 0.000000 0.047979
# 5 0.008643 0.001562 0.005113 0.000000 0.037989 0.000000
# 6 0.000000 0.000000 0.000000 0.047979 0.000000 0.054770
#
#
# Mechanical properties :
#
#
# Convention : Reuss Voigt Hill
#
# Bulk Modulus (GPa) = 40.92274 55.92384 48.42329
# Shear Modulus (GPa) = 20.06410 31.79744 25.93077
#
# Velocity S-wave (km/s) = 3.09438 3.89547 3.51780
# Velocity P-wave (km/s) = 5.68300 6.84992 6.29356
#
# Compressibility (1/GPa) = 0.02443629
#
# Stress axis : x y z
#
# Youngs Moduli (GPa) = 77.26878 88.36947 78.58329
#
# Poissons Ratio (x) = 0.12954 0.02179
# Poissons Ratio (y) = 0.11327 0.35601
# Poissons Ratio (z) = 0.02142 0.40034
#
# Static dielectric constant tensor:
#      x y z
#    x 1.926810 0.000000 -0.016560 
#    y 0.000000 1.848960 0.000000 
#    z -0.016560 0.000000 1.842890 
# 
# From -- ./inp_files/121868.got.cif
#   From: 2010.05.17/outbox.cif.g08.bks.cpg/sg15_61_cif.got.tgz:121868.got - 2010.06.03 18:47:42.
