data_PCOD9299537
_publ_section_title
;
Structure prediction by ZEFSAII (Michael W. Deem and Ramdas Pophale) SiO2 
 PCOD9299537
Probable space group: C 2/C
;
_chemical_formula_sum "Si O2"
_cell_formula_units_Z 56
_cell_length_a 28.285451
_cell_length_b 9.824295
_cell_length_c 14.365628
_cell_angle_alpha 90.000000
_cell_angle_beta 131.881943
_cell_angle_gamma 90.000000
_cell_volume 2972.122066
_symmetry_space_group_name_H-M "C 2/C"
_symmetry_group_IT_number 15
_symmetry_cell_setting 'monoclinic'
loop_
_space_group_symop_operation_xyz
x,y,z
-x,y,1/2-z
-x,-y,-z
x,-y,1/2+z
1/2+x,1/2+y,z
1/2-x,1/2+y,1/2-z
1/2-x,1/2-y,-z
1/2+x,1/2-y,1/2+z
loop_
_atom_site_type_symbol
_atom_site_label
_atom_site_fract_x
_atom_site_fract_y
_atom_site_fract_z
Si Si1 0.623390 0.148959 0.254497
Si Si2 0.851038 0.057100 0.647475
Si Si3 0.030435 0.390269 0.472044
Si Si4 0.262661 0.386784 0.863243
Si Si5 0.606370 0.949670 0.393525
Si Si6 0.054180 0.815716 0.745656
Si Si7 0.762230 0.562986 0.852445
O O1 0.620066 0.294251 0.298643
O O2 0.696816 0.110097 0.334671
O O3 0.593353 0.039683 0.285108
O O4 0.590853 0.159449 0.111088
O O5 0.818335 0.059654 0.503187
O O6 0.794873 0.043298 0.649371
O O7 0.904322 0.943276 0.729243
O O8 0.055158 0.457140 0.408950
O O9 0.000000 0.500000 0.500000
O O10 0.983096 0.267837 0.383300
O O11 0.254798 0.482630 0.763796
O O12 0.271747 0.226084 0.851211
O O13 0.601916 0.793349 0.355562
O O14 0.673425 0.998925 0.521708
O O15 0.000000 0.852642 0.750000
#
# Coordination Sequence:
#
# PCOD9299537 Si02
#       7
#     8   8   8   8   8   8   8
#     4  11  21  42  67  91 127 169 205 270 317 376
#     4  11  24  43  63  93 136 164 209 264 327 384
#     4  11  23  40  66  92 125 165 221 263 305 380
#     4  11  23  40  64  99 134 161 209 264 324 379
#     4  11  21  41  65  92 126 163 215 265 315 372
#     4  10  25  43  61  92 129 172 212 262 321 377
#     4  11  23  39  66  98 124 170 209 263 329 378
#
# _framework density 18.841756
#
# number of rings (size 3 to 8) (size 9 to 14) (size 15 to 20)
#    0.000    1.143    5.714    0.857    2.000    4.571 
#    2.571    0.000    0.000    0.000    0.000    0.000 
#    0.000    0.000    0.000    0.000    0.000    0.000 
#
# Total GULP energy -156353.747210 kJ/mol
# GULP energy per Si atom -5584.062400 kJ/mol
# Density = 1.879887 g / cm^3
# Si number density = 18.841756 Si / 1000 Ang^3
#
#
#
# Elastic Constant Matrix: (Units=GPa)
#
#
# Indices 1 2 3 4 5 6 
#
# 1 57.2406 55.9257 21.1343 0.0000 -4.9944 0.0000
# 2 55.9257 79.5711 24.1449 0.0000 -1.3750 0.0000
# 3 21.1343 24.1449 81.1821 0.0000 -3.7345 0.0000
# 4 0.0000 0.0000 0.0000 23.7267 0.0000 6.2154
# 5 -4.9944 -1.3750 -3.7345 0.0000 31.8865 0.0000
# 6 0.0000 0.0000 0.0000 6.2154 0.0000 34.7182
#
#
#
# Elastic Compliance Matrix: (Units=1/GPa)
#
#
# Indices 1 2 3 4 5 6 
#
# 1 0.058026 -0.039764 -0.002956 0.000000 0.007028 0.000000
# 2 -0.039764 0.041064 -0.002078 0.000000 -0.004701 0.000000
# 3 -0.002956 -0.002078 0.013754 0.000000 0.001058 0.000000
# 4 0.000000 0.000000 0.000000 0.044220 0.000000 -0.007917
# 5 0.007028 -0.004701 0.001058 0.000000 0.032383 0.000000
# 6 0.000000 0.000000 0.000000 -0.007917 0.000000 0.030221
#
#
# Mechanical properties :
#
#
# Convention : Reuss Voigt Hill
#
# Bulk Modulus (GPa) = 43.01383 46.71152 44.86267
# Shear Modulus (GPa) = 15.77218 25.85219 20.81218
#
# Velocity S-wave (km/s) = 2.89638 3.70816 3.32712
# Velocity P-wave (km/s) = 5.83643 6.57109 6.21463
#
# Compressibility (1/GPa) = 0.02324834
#
# Stress axis : x y z
#
# Youngs Moduli (GPa) = 17.23378 24.35195 72.70537
#
# Poissons Ratio (x) = 0.96834 0.21492
# Poissons Ratio (y) = 0.68529 0.15105
# Poissons Ratio (z) = 0.05094 0.05059
#
# Static dielectric constant tensor:
#      x y z
#    x 1.639020 0.000000 0.004750 
#    y 0.000000 1.626380 0.000000 
#    z 0.004750 0.000000 1.694480 
# 
# From -- ./inp_files/180867.got.cif
#   From: 2010.05.17/outbox.cif.g08.bks.cpg/sg15_91_cif.got.tgz:180867.got - 2010.06.03 18:47:42.
