data_PCOD9299455
_publ_section_title
;
Structure prediction by ZEFSAII (Michael W. Deem and Ramdas Pophale) SiO2 
 PCOD9299455
Probable space group: C 2/C
;
_chemical_formula_sum "Si O2"
_cell_formula_units_Z 44
_cell_length_a 11.948125
_cell_length_b 8.491521
_cell_length_c 19.206691
_cell_angle_alpha 90.000000
_cell_angle_beta 68.247081
_cell_angle_gamma 90.000000
_cell_volume 1809.904420
_symmetry_space_group_name_H-M "C 2/C"
_symmetry_group_IT_number 15
_symmetry_cell_setting 'monoclinic'
loop_
_space_group_symop_operation_xyz
x,y,z
-x,y,1/2-z
-x,-y,-z
x,-y,1/2+z
1/2+x,1/2+y,z
1/2-x,1/2+y,1/2-z
1/2-x,1/2-y,-z
1/2+x,1/2-y,1/2+z
loop_
_atom_site_type_symbol
_atom_site_label
_atom_site_fract_x
_atom_site_fract_y
_atom_site_fract_z
Si Si1 0.727321 0.267402 0.121127
Si Si2 0.432751 0.014020 0.407432
Si Si3 0.836124 0.395036 0.569836
Si Si4 0.673888 0.835150 0.183044
Si Si5 0.862026 0.080781 0.191311
Si Si6 0.000000 0.867572 0.250000
O O1 0.758209 0.444902 0.093604
O O2 0.847511 0.188620 0.126384
O O3 0.621651 0.275321 0.204199
O O4 0.668508 0.149875 0.078739
O O5 0.398372 0.904245 0.480437
O O6 0.432069 0.915269 0.336449
O O7 0.559393 0.092075 0.396257
O O8 0.760498 0.240641 0.604022
O O9 0.646424 0.693895 0.240667
O O10 0.748416 0.964903 0.208125
O O11 0.973149 0.970212 0.186641
#
# Coordination Sequence:
#
# PCOD9299455 Si02
#       6
#     8   8   8   8   8   4
#     4  11  24  41  63  93 126 160 206 260 308 374
#     4  10  25  40  67  91 125 169 208 255 313 360
#     4  11  22  44  64  93 124 167 213 254 303 379
#     4  11  21  43  61  92 128 161 206 258 307 371
#     4  11  23  39  60  93 123 162 203 251 315 370
#     4  12  22  38  62  88 126 160 196 254 318 354
#
# _framework density 24.310676999999998
#
# number of rings (size 3 to 8) (size 9 to 14) (size 15 to 20)
#    0.000    1.091    3.636    2.182    2.545    0.000 
#    0.000    0.000    0.000   12.000    0.000    0.000 
#    0.000    0.000    0.000    0.000    0.000    0.000 
#
# Total GULP energy -123102.774464 kJ/mol
# GULP energy per Si atom -5595.580657 kJ/mol
# Density = 2.425534 g / cm^3
# Si number density = 24.310677 Si / 1000 Ang^3
#
#
#
# Elastic Constant Matrix: (Units=GPa)
#
#
# Indices 1 2 3 4 5 6 
#
# 1 114.5192 27.7176 30.1115 0.0000 34.3442 0.0000
# 2 27.7176 89.1519 23.7973 0.0000 13.9482 0.0000
# 3 30.1115 23.7973 51.7570 0.0000 12.4600 0.0000
# 4 0.0000 0.0000 0.0000 32.0383 0.0000 8.2701
# 5 34.3442 13.9482 12.4600 0.0000 33.0058 0.0000
# 6 0.0000 0.0000 0.0000 8.2701 0.0000 28.9850
#
#
#
# Elastic Compliance Matrix: (Units=1/GPa)
#
#
# Indices 1 2 3 4 5 6 
#
# 1 0.013892 -0.001180 -0.004597 0.000000 -0.012221 0.000000
# 2 -0.001180 0.013265 -0.004795 0.000000 -0.002568 0.000000
# 3 -0.004597 -0.004795 0.024816 0.000000 -0.002558 0.000000
# 4 0.000000 0.000000 0.000000 0.033694 0.000000 -0.009614
# 5 -0.012221 -0.002568 -0.002558 0.000000 0.045065 0.000000
# 6 0.000000 0.000000 0.000000 -0.009614 0.000000 0.037244
#
#
# Mechanical properties :
#
#
# Convention : Reuss Voigt Hill
#
# Bulk Modulus (GPa) = 32.43651 46.52008 39.47830
# Shear Modulus (GPa) = 25.07577 30.39261 27.73419
#
# Velocity S-wave (km/s) = 3.21514 3.53962 3.38127
# Velocity P-wave (km/s) = 5.21098 5.99019 5.61412
#
# Compressibility (1/GPa) = 0.03082945
#
# Stress axis : x y z
#
# Youngs Moduli (GPa) = 71.98636 75.38511 40.29638
#
# Poissons Ratio (x) = 0.08894 0.18526
# Poissons Ratio (y) = 0.08493 0.19320
# Poissons Ratio (z) = 0.33095 0.36144
#
# Static dielectric constant tensor:
#      x y z
#    x 1.902650 0.000000 0.005620 
#    y 0.000000 1.956120 0.000000 
#    z 0.005620 0.000000 1.955160 
# 
# From -- ./inp_files/236043.got.cif
#   From: 2010.05.17/outbox.cif.g08.bks.cpg/sg15_119_cif.got.tgz:236043.got - 2010.06.03 18:47:42.
