data_PCOD9299439
_publ_section_title
;
Structure prediction by ZEFSAII (Michael W. Deem and Ramdas Pophale) SiO2 
 PCOD9299439
Probable space group: C 2/C
;
_chemical_formula_sum "Si O2"
_cell_formula_units_Z 36
_cell_length_a 25.489196
_cell_length_b 4.747743
_cell_length_c 11.954971
_cell_angle_alpha 90.000000
_cell_angle_beta 119.815026
_cell_angle_gamma 90.000000
_cell_volume 1255.246370
_symmetry_space_group_name_H-M "C 2/C"
_symmetry_group_IT_number 15
_symmetry_cell_setting 'monoclinic'
loop_
_space_group_symop_operation_xyz
x,y,z
-x,y,1/2-z
-x,-y,-z
x,-y,1/2+z
1/2+x,1/2+y,z
1/2-x,1/2+y,1/2-z
1/2-x,1/2-y,-z
1/2+x,1/2-y,1/2+z
loop_
_atom_site_type_symbol
_atom_site_label
_atom_site_fract_x
_atom_site_fract_y
_atom_site_fract_z
Si Si1 0.383327 0.690323 0.023609
Si Si2 0.952387 0.719830 0.393699
Si Si3 0.824999 0.512720 0.272046
Si Si4 0.792338 0.022234 0.105217
Si Si5 0.000000 0.121884 0.250000
O O1 0.419376 0.578059 0.952308
O O2 0.335582 0.897845 0.911930
O O3 0.347626 0.504411 0.074766
O O4 0.442682 0.804416 0.150435
O O5 0.892552 0.549665 0.294907
O O6 0.977886 0.915202 0.324677
O O7 0.000000 0.500000 0.500000
O O8 0.807581 0.194403 0.234919
O O9 0.783067 0.716051 0.150082
O O10 0.750000 0.250000 0.000000
#
# Coordination Sequence:
#
# PCOD9299439 Si02
#       5
#     8   8   8   8   4
#     4  10  25  42  69 103 141 180 233 280 352 420
#     4  10  25  38  68 104 143 182 227 281 352 423
#     4  10  27  45  70 104 139 180 239 283 351 411
#     4  12  26  49  72 100 138 186 237 296 345 409
#     4  12  22  42  68 100 150 178 232 276 362 418
#
# _framework density 28.679625000000001
#
# number of rings (size 3 to 8) (size 9 to 14) (size 15 to 20)
#    1.333    0.000    2.222    1.333    9.333    3.556 
#    0.000    0.000    0.000    0.000    0.000    0.000 
#    0.000    0.000    0.000    0.000    0.000    0.000 
#
# Total GULP energy -100436.009350 kJ/mol
# GULP energy per Si atom -5579.778297 kJ/mol
# Density = 2.861435 g / cm^3
# Si number density = 28.679625 Si / 1000 Ang^3
#
#
#
# Elastic Constant Matrix: (Units=GPa)
#
#
# Indices 1 2 3 4 5 6 
#
# 1 130.1922 19.6436 48.5097 0.0000 -25.5972 0.0000
# 2 19.6436 132.9744 48.2709 0.0000 -0.1439 0.0000
# 3 48.5097 48.2709 109.9218 0.0000 -2.0238 0.0000
# 4 0.0000 0.0000 0.0000 56.4669 0.0000 8.2922
# 5 -25.5972 -0.1439 -2.0238 0.0000 81.2341 0.0000
# 6 0.0000 0.0000 0.0000 8.2922 0.0000 12.0217
#
#
#
# Elastic Compliance Matrix: (Units=1/GPa)
#
#
# Indices 1 2 3 4 5 6 
#
# 1 0.009877 0.000127 -0.004359 0.000000 0.003004 0.000000
# 2 0.000127 0.008949 -0.003986 0.000000 -0.000044 0.000000
# 3 -0.004359 -0.003986 0.012752 0.000000 -0.001063 0.000000
# 4 0.000000 0.000000 0.000000 0.019706 0.000000 -0.013592
# 5 0.003004 -0.000044 -0.001063 0.000000 0.013230 0.000000
# 6 0.000000 0.000000 0.000000 -0.013592 0.000000 0.092559
#
#
# Mechanical properties :
#
#
# Convention : Reuss Voigt Hill
#
# Bulk Modulus (GPa) = 66.05113 67.32632 66.68873
# Shear Modulus (GPa) = 28.00250 47.05549 37.52899
#
# Velocity S-wave (km/s) = 3.12811 4.05499 3.62133
# Velocity P-wave (km/s) = 6.01061 6.74167 6.38661
#
# Compressibility (1/GPa) = 0.01513979
#
# Stress axis : x y z
#
# Youngs Moduli (GPa) = 101.24979 111.74972 78.41910
#
# Poissons Ratio (x) = -0.01414 0.34182
# Poissons Ratio (y) = -0.01281 0.31260
# Poissons Ratio (z) = 0.44134 0.44547
#
# Static dielectric constant tensor:
#      x y z
#    x 2.257040 0.000000 0.077310 
#    y 0.000000 2.093550 0.000000 
#    z 0.077310 0.000000 2.384630 
# 
# From -- ./inp_files/120931.got.cif
#   From: 2010.05.17/outbox.cif.g08.bks.cpg/sg15_61_cif.got.tgz:120931.got - 2010.06.03 18:47:42.
