data_PCOD9299525
_publ_section_title
;
Structure prediction by ZEFSAII (Michael W. Deem and Ramdas Pophale) SiO2 
 PCOD9299525
Probable space group: C 2/C
;
_chemical_formula_sum "Si O2"
_cell_formula_units_Z 36
_cell_length_a 23.156874
_cell_length_b 7.318552
_cell_length_c 9.554512
_cell_angle_alpha 90.000000
_cell_angle_beta 113.976793
_cell_angle_gamma 90.000000
_cell_volume 1479.524101
_symmetry_space_group_name_H-M "C 2/C"
_symmetry_group_IT_number 15
_symmetry_cell_setting 'monoclinic'
loop_
_space_group_symop_operation_xyz
x,y,z
-x,y,1/2-z
-x,-y,-z
x,-y,1/2+z
1/2+x,1/2+y,z
1/2-x,1/2+y,1/2-z
1/2-x,1/2-y,-z
1/2+x,1/2-y,1/2+z
loop_
_atom_site_type_symbol
_atom_site_label
_atom_site_fract_x
_atom_site_fract_y
_atom_site_fract_z
Si Si1 0.239186 0.863695 0.309631
Si Si2 0.043791 0.436695 0.417816
Si Si3 0.250000 0.750000 0.000000
Si Si4 0.140195 0.251923 0.929238
Si Si5 0.359311 0.344392 0.520147
O O1 0.185308 0.746248 0.336542
O O2 0.307650 0.779845 0.398044
O O3 0.212006 0.870623 0.123467
O O4 0.243430 0.055151 0.393348
O O5 0.084868 0.604814 0.397400
O O6 0.089970 0.273240 0.510073
O O7 0.000000 0.363535 0.250000
O O8 0.000000 0.500000 0.500000
O O9 0.328957 0.785670 0.105638
O O10 0.116663 0.042166 0.916477
#
# Coordination Sequence:
#
# PCOD9299525 Si02
#       5
#     8   8   4   8   8
#     4   9  23  39  70 113 136 173 226 299 366 420
#     4  12  30  49  68  99 144 197 242 285 336 431
#     4   8  22  38  72 106 140 172 224 290 368 416
#     4  11  25  43  72 105 140 182 235 291 361 424
#     4  10  25  42  71 102 140 182 226 294 358 418
#
# _framework density 24.332149999999999
#
# number of rings (size 3 to 8) (size 9 to 14) (size 15 to 20)
#    1.333    0.444    0.000    1.333   15.556    1.778 
#    0.000    0.000    0.000    0.000    0.000    0.000 
#    0.000    0.000    0.000    0.000    0.000    0.000 
#
# Total GULP energy -100212.562366 kJ/mol
# GULP energy per Si atom -5567.364576 kJ/mol
# Density = 2.427677 g / cm^3
# Si number density = 24.332150 Si / 1000 Ang^3
#
#
#
# Elastic Constant Matrix: (Units=GPa)
#
#
# Indices 1 2 3 4 5 6 
#
# 1 102.8489 28.8689 6.7071 0.0000 3.2366 0.0000
# 2 28.8689 96.1820 -0.6457 0.0000 16.8620 0.0000
# 3 6.7071 -0.6457 116.8466 0.0000 -12.0089 0.0000
# 4 0.0000 0.0000 0.0000 20.8403 0.0000 1.1409
# 5 3.2366 16.8620 -12.0089 0.0000 39.5486 0.0000
# 6 0.0000 0.0000 0.0000 1.1409 0.0000 40.9037
#
#
#
# Elastic Compliance Matrix: (Units=1/GPa)
#
#
# Indices 1 2 3 4 5 6 
#
# 1 0.010668 -0.003265 -0.000596 0.000000 0.000338 0.000000
# 2 -0.003265 0.012259 -0.000263 0.000000 -0.005039 0.000000
# 3 -0.000596 -0.000263 0.008885 0.000000 0.002859 0.000000
# 4 0.000000 0.000000 0.000000 0.048057 0.000000 -0.001340
# 5 0.000338 -0.005039 0.002859 0.000000 0.028274 0.000000
# 6 0.000000 0.000000 0.000000 -0.001340 0.000000 0.024485
#
#
# Mechanical properties :
#
#
# Convention : Reuss Voigt Hill
#
# Bulk Modulus (GPa) = 42.43753 42.85979 42.64866
# Shear Modulus (GPa) = 33.61806 38.98834 36.30320
#
# Velocity S-wave (km/s) = 3.72106 4.00726 3.86681
# Velocity P-wave (km/s) = 5.99504 6.25009 6.12389
#
# Compressibility (1/GPa) = 0.02356405
#
# Stress axis : x y z
#
# Youngs Moduli (GPa) = 93.74084 81.57490 112.55227
#
# Poissons Ratio (x) = 0.26636 0.06704
# Poissons Ratio (y) = 0.30608 0.02957
# Poissons Ratio (z) = 0.05583 0.02143
#
# Static dielectric constant tensor:
#      x y z
#    x 2.291050 0.000000 -0.266240 
#    y 0.000000 2.038310 0.000000 
#    z -0.266240 0.000000 2.211530 
# 
# From -- ./inp_files/109829.got.cif
#   From: 2010.05.17/outbox.cif.g08.bks.cpg/sg15_55_cif.got.tgz:109829.got - 2010.06.03 18:47:42.
