data_PCOD9299032
_publ_section_title
;
Structure prediction by ZEFSAII (Michael W. Deem and Ramdas Pophale) SiO2 
 PCOD9299032
Probable space group: C 2/C
;
_chemical_formula_sum "Si O2"
_cell_formula_units_Z 52
_cell_length_a 25.484243
_cell_length_b 11.516632
_cell_length_c 9.107980
_cell_angle_alpha 90.000000
_cell_angle_beta 58.666764
_cell_angle_gamma 90.000000
_cell_volume 2283.269446
_symmetry_space_group_name_H-M "C 2/C"
_symmetry_group_IT_number 15
_symmetry_cell_setting 'monoclinic'
loop_
_space_group_symop_operation_xyz
x,y,z
-x,y,1/2-z
-x,-y,-z
x,-y,1/2+z
1/2+x,1/2+y,z
1/2-x,1/2+y,1/2-z
1/2-x,1/2-y,-z
1/2+x,1/2-y,1/2+z
loop_
_atom_site_type_symbol
_atom_site_label
_atom_site_fract_x
_atom_site_fract_y
_atom_site_fract_z
Si Si1 0.198821 0.844885 0.562383
Si Si2 0.334813 0.541638 0.689056
Si Si3 0.037730 0.083728 0.548934
Si Si4 0.824376 0.743028 0.399245
Si Si5 0.913524 0.438272 0.628416
Si Si6 0.889480 0.709480 0.617668
Si Si7 0.000000 0.523226 0.750000
O O1 0.250000 0.750000 0.500000
O O2 0.195203 0.897692 0.406613
O O3 0.138737 0.774541 0.700180
O O4 0.207205 0.947798 0.667540
O O5 0.394885 0.474418 0.545552
O O6 0.349462 0.638739 0.789329
O O7 0.047997 0.218478 0.494534
O O8 0.000000 0.081202 0.750000
O O9 0.000000 0.000000 0.500000
O O10 0.750000 0.750000 0.500000
O O11 0.855847 0.641033 0.256446
O O12 0.847634 0.729515 0.532855
O O13 0.894869 0.572825 0.632212
O O14 0.953291 0.407038 0.425051
O O15 0.959096 0.444752 0.701399
#
# Coordination Sequence:
#
# PCOD9299032 Si02
#       7
#     8   8   8   8   8   8   4
#     4  11  25  47  75 103 149 199 252 322 385 468
#     4  11  25  47  71 112 147 194 266 313 392 471
#     4  11  23  43  72 102 142 192 239 317 386 456
#     4  12  27  49  77 109 158 210 262 334 403 484
#     4  11  25  48  77 115 153 211 266 327 412 472
#     4  11  25  47  71 113 147 201 264 315 402 476
#     4  10  24  46  74 110 160 198 272 332 380 502
#
# _framework density 22.774362
#
# number of rings (size 3 to 8) (size 9 to 14) (size 15 to 20)
#    0.000    0.923    1.538    5.538    5.385    2.462 
#    8.308    0.000    0.000    0.000    0.000    0.000 
#    0.000    0.000    0.000    0.000    0.000    0.000 
#
# Total GULP energy -145467.363160 kJ/mol
# GULP energy per Si atom -5594.898583 kJ/mol
# Density = 2.272253 g / cm^3
# Si number density = 22.774362 Si / 1000 Ang^3
#
#
#
# Elastic Constant Matrix: (Units=GPa)
#
#
# Indices 1 2 3 4 5 6 
#
# 1 95.8086 58.1742 48.4510 0.0000 7.0165 0.0000
# 2 58.1742 180.5205 63.7400 0.0000 0.5767 0.0000
# 3 48.4510 63.7400 123.2790 0.0000 4.1926 0.0000
# 4 0.0000 0.0000 0.0000 50.9703 0.0000 -9.5519
# 5 7.0165 0.5767 4.1926 0.0000 30.0896 0.0000
# 6 0.0000 0.0000 0.0000 -9.5519 0.0000 38.1735
#
#
#
# Elastic Compliance Matrix: (Units=1/GPa)
#
#
# Indices 1 2 3 4 5 6 
#
# 1 0.014655 -0.003320 -0.003948 0.000000 -0.002804 0.000000
# 2 -0.003320 0.007533 -0.002624 0.000000 0.000995 0.000000
# 3 -0.003948 -0.002624 0.011039 0.000000 -0.000567 0.000000
# 4 0.000000 0.000000 0.000000 0.020585 0.000000 0.005151
# 5 -0.002804 0.000995 -0.000567 0.000000 0.033948 0.000000
# 6 0.000000 0.000000 0.000000 0.005151 0.000000 0.027485
#
#
# Mechanical properties :
#
#
# Convention : Reuss Voigt Hill
#
# Bulk Modulus (GPa) = 74.38313 82.25982 78.32148
# Shear Modulus (GPa) = 35.84014 39.12954 37.48484
#
# Velocity S-wave (km/s) = 3.97130 4.14954 4.06140
# Velocity P-wave (km/s) = 7.33213 7.69130 7.51386
#
# Compressibility (1/GPa) = 0.01344391
#
# Stress axis : x y z
#
# Youngs Moduli (GPa) = 68.23593 132.75613 90.58655
#
# Poissons Ratio (x) = 0.44072 0.35763
# Poissons Ratio (y) = 0.22653 0.23768
# Poissons Ratio (z) = 0.26939 0.34832
#
# Static dielectric constant tensor:
#      x y z
#    x 1.905250 0.000000 -0.090930 
#    y 0.000000 1.823670 0.000000 
#    z -0.090930 0.000000 1.930850 
# 
# From -- ./inp_files/65378.got.cif
#   From: 2010.05.17/outbox.cif.g08.bks.cpg/sg15_33_cif.got.tgz:65378.got - 2010.06.03 18:47:42.
