data_PCOD9299099
_publ_section_title
;
Structure prediction by ZEFSAII (Michael W. Deem and Ramdas Pophale) SiO2 
 PCOD9299099
Probable space group: C 2/C
;
_chemical_formula_sum "Si O2"
_cell_formula_units_Z 20
_cell_length_a 4.948362
_cell_length_b 18.452555
_cell_length_c 8.950458
_cell_angle_alpha 90.000000
_cell_angle_beta 79.152355
_cell_angle_gamma 90.000000
_cell_volume 802.661977
_symmetry_space_group_name_H-M "C 2/C"
_symmetry_group_IT_number 15
_symmetry_cell_setting 'monoclinic'
loop_
_space_group_symop_operation_xyz
x,y,z
-x,y,1/2-z
-x,-y,-z
x,-y,1/2+z
1/2+x,1/2+y,z
1/2-x,1/2+y,1/2-z
1/2-x,1/2-y,-z
1/2+x,1/2-y,1/2+z
loop_
_atom_site_type_symbol
_atom_site_label
_atom_site_fract_x
_atom_site_fract_y
_atom_site_fract_z
Si Si1 0.667238 0.933659 0.549624
Si Si2 0.000000 0.976032 0.250000
Si Si3 0.801376 0.707594 0.147380
O O1 0.479971 0.863811 0.589112
O O2 0.800922 0.967970 0.683568
O O3 0.500000 0.000000 0.500000
O O4 0.891784 0.925046 0.394921
O O5 0.500000 0.692998 0.250000
O O6 0.000000 0.745308 0.250000
O O7 0.750000 0.750000 0.000000
#
# Coordination Sequence:
#
# PCOD9299099 Si02
#       3
#     8   4   8
#     4  11  25  47  83 119 166 209 280 339 417 484
#     4  10  24  46  80 130 162 216 264 358 418 492
#     4  12  30  57  84 120 170 226 282 345 421 507
#
# _framework density 24.917086999999999
#
# number of rings (size 3 to 8) (size 9 to 14) (size 15 to 20)
#    0.000    0.800    0.000    4.800   16.800    3.200 
#    7.200    8.000    0.000    0.000    0.000    0.000 
#    0.000    0.000    0.000    0.000    0.000    0.000 
#
# Total GULP energy -55984.305109 kJ/mol
# GULP energy per Si atom -5598.430511 kJ/mol
# Density = 2.486037 g / cm^3
# Si number density = 24.917087 Si / 1000 Ang^3
#
#
#
# Elastic Constant Matrix: (Units=GPa)
#
#
# Indices 1 2 3 4 5 6 
#
# 1 194.0155 77.3404 105.4120 0.0000 29.2638 0.0000
# 2 77.3404 133.8413 98.1971 0.0000 7.6808 0.0000
# 3 105.4120 98.1971 228.2363 0.0000 12.6521 0.0000
# 4 0.0000 0.0000 0.0000 21.9034 0.0000 11.4673
# 5 29.2638 7.6808 12.6521 0.0000 82.1652 0.0000
# 6 0.0000 0.0000 0.0000 11.4673 0.0000 36.3801
#
#
#
# Elastic Compliance Matrix: (Units=1/GPa)
#
#
# Indices 1 2 3 4 5 6 
#
# 1 0.007821 -0.002678 -0.002339 0.000000 -0.002175 0.000000
# 2 -0.002678 0.011842 -0.003883 0.000000 0.000445 0.000000
# 3 -0.002339 -0.003883 0.007127 0.000000 0.000099 0.000000
# 4 0.000000 0.000000 0.000000 0.054678 0.000000 -0.017235
# 5 -0.002175 0.000445 0.000099 0.000000 0.012888 0.000000
# 6 0.000000 0.000000 0.000000 -0.017235 0.000000 0.032920
#
#
# Mechanical properties :
#
#
# Convention : Reuss Voigt Hill
#
# Bulk Modulus (GPa) = 111.23991 124.22134 117.73063
# Shear Modulus (GPa) = 33.76695 46.43265 40.09980
#
# Velocity S-wave (km/s) = 3.68526 4.32149 4.01600
# Velocity P-wave (km/s) = 7.92774 8.65231 8.29794
#
# Compressibility (1/GPa) = 0.00898958
#
# Stress axis : x y z
#
# Youngs Moduli (GPa) = 127.86355 84.44259 140.31347
#
# Poissons Ratio (x) = 0.22615 0.32823
# Poissons Ratio (y) = 0.34244 0.54481
# Poissons Ratio (z) = 0.29910 0.32787
#
# Static dielectric constant tensor:
#      x y z
#    x 2.067330 0.000000 -0.187490 
#    y 0.000000 1.926440 0.000000 
#    z -0.187490 0.000000 2.155440 
# 
# From -- ./inp_files/19118.got.cif
#   From: 2010.05.17/outbox.cif.g08.bks.cpg/sg15_10_cif.got.tgz:19118.got - 2010.06.03 18:47:42.
