data_PCOD9299908
_publ_section_title
;
Structure prediction by ZEFSAII (Michael W. Deem and Ramdas Pophale) SiO2 
 PCOD9299908
Probable space group: C 2/C
;
_chemical_formula_sum "Si O2"
_cell_formula_units_Z 52
_cell_length_a 12.366296
_cell_length_b 21.702438
_cell_length_c 14.651498
_cell_angle_alpha 90.000000
_cell_angle_beta 38.780125
_cell_angle_gamma 90.000000
_cell_volume 2462.837665
_symmetry_space_group_name_H-M "C 2/C"
_symmetry_group_IT_number 15
_symmetry_cell_setting 'monoclinic'
loop_
_space_group_symop_operation_xyz
x,y,z
-x,y,1/2-z
-x,-y,-z
x,-y,1/2+z
1/2+x,1/2+y,z
1/2-x,1/2+y,1/2-z
1/2-x,1/2-y,-z
1/2+x,1/2-y,1/2+z
loop_
_atom_site_type_symbol
_atom_site_label
_atom_site_fract_x
_atom_site_fract_y
_atom_site_fract_z
Si Si1 0.000000 0.785281 0.750000
Si Si2 0.044510 0.833580 0.399813
Si Si3 0.901388 0.730326 0.617769
Si Si4 0.000000 0.571888 0.750000
Si Si5 0.205574 0.499995 0.380586
Si Si6 0.664492 0.866052 0.968300
Si Si7 0.000000 0.915665 0.250000
Si Si8 0.160739 0.044853 0.896821
O O1 0.038263 0.749383 0.819262
O O2 0.170182 0.825253 0.617116
O O3 0.211074 0.796158 0.255576
O O4 0.986279 0.872597 0.349287
O O5 0.102422 0.884318 0.437420
O O6 0.918683 0.786676 0.535420
O O7 0.032846 0.676592 0.498226
O O8 0.047013 0.612399 0.631144
O O9 0.176516 0.533851 0.645137
O O10 0.238920 0.572327 0.372799
O O11 0.329599 0.460099 0.365639
O O12 0.261618 0.467449 0.252050
O O13 0.000000 0.500000 0.500000
O O14 0.000000 0.000000 0.000000
#
# Coordination Sequence:
#
# PCOD9299908 Si02
#       8
#     4   8   8   4   8   8   4   8
#     4  12  26  38  66 104 140 183 235 292 368 420
#     4  11  25  45  69  98 141 187 239 292 352 422
#     4  12  24  45  65 102 144 185 234 298 352 438
#     4  12  23  42  68  98 138 180 225 292 362 422
#     4  11  23  46  69 100 140 183 233 293 358 421
#     4  12  24  40  67  99 137 182 232 288 361 421
#     4  10  25  48  72 104 140 191 242 298 356 418
#     4  11  26  41  66 100 138 177 232 290 353 426
#
# _framework density 21.113855000000001
#
# number of rings (size 3 to 8) (size 9 to 14) (size 15 to 20)
#    0.000    0.615    4.615    3.231    8.615    0.615 
#    0.000    0.000    0.000    5.538    0.000    0.000 
#    0.000    0.000    0.000    0.000    0.000    0.000 
#
# Total GULP energy -144940.758279 kJ/mol
# GULP energy per Si atom -5574.644549 kJ/mol
# Density = 2.106580 g / cm^3
# Si number density = 21.113855 Si / 1000 Ang^3
#
#
#
# Elastic Constant Matrix: (Units=GPa)
#
#
# Indices 1 2 3 4 5 6 
#
# 1 91.5308 49.1942 23.4472 -0.0003 -22.5487 0.0003
# 2 49.1942 126.9687 39.9538 -0.0004 -14.8291 0.0001
# 3 23.4472 39.9538 74.0786 -0.0058 -34.6695 0.0023
# 4 -0.0003 -0.0004 -0.0058 47.4288 0.0011 -9.8028
# 5 -22.5487 -14.8291 -34.6695 0.0011 37.4998 -0.0005
# 6 0.0003 0.0001 0.0023 -9.8028 -0.0005 33.5715
#
#
#
# Elastic Compliance Matrix: (Units=1/GPa)
#
#
# Indices 1 2 3 4 5 6 
#
# 1 0.015737 -0.005809 0.002654 0.000000 0.009619 0.000000
# 2 -0.005809 0.011694 -0.006943 -0.000001 -0.005288 0.000000
# 3 0.002654 -0.006943 0.027966 0.000003 0.024706 -0.000001
# 4 0.000000 -0.000001 0.000003 0.022438 0.000002 0.006552
# 5 0.009619 -0.005288 0.024706 0.000002 0.053201 0.000000
# 6 0.000000 0.000000 -0.000001 0.006552 0.000000 0.031700
#
#
# Mechanical properties :
#
#
# Convention : Reuss Voigt Hill
#
# Bulk Modulus (GPa) = 28.40816 57.52984 42.96900
# Shear Modulus (GPa) = 25.68475 35.69888 30.69182
#
# Velocity S-wave (km/s) = 3.49160 4.11637 3.81679
# Velocity P-wave (km/s) = 5.45335 7.06394 6.31024
#
# Compressibility (1/GPa) = 0.03520115
#
# Stress axis : x y z
#
# Youngs Moduli (GPa) = 63.54313 85.51451 35.75709
#
# Poissons Ratio (x) = 0.49676 -0.09489
# Poissons Ratio (y) = 0.36913 0.24826
# Poissons Ratio (z) = -0.16863 0.59373
#
# Static dielectric constant tensor:
#      x y z
#    x 1.840250 0.000000 0.018040 
#    y 0.000000 1.832680 0.000000 
#    z 0.018040 0.000000 1.742640 
# 
# From -- ./inp_files/206812.got.cif
#   From: 2010.05.17/outbox.cif.g08.bks.cpg/sg15_104_cif.got.tgz:206812.got - 2010.06.03 18:47:42.
