data_PCOD9299587
_publ_section_title
;
Structure prediction by ZEFSAII (Michael W. Deem and Ramdas Pophale) SiO2 
 PCOD9299587
Probable space group: C 2/C
;
_chemical_formula_sum "Si O2"
_cell_formula_units_Z 48
_cell_length_a 12.915888
_cell_length_b 23.843952
_cell_length_c 11.709371
_cell_angle_alpha 90.000000
_cell_angle_beta 39.532279
_cell_angle_gamma 90.000000
_cell_volume 2295.319995
_symmetry_space_group_name_H-M "C 2/C"
_symmetry_group_IT_number 15
_symmetry_cell_setting 'monoclinic'
loop_
_space_group_symop_operation_xyz
x,y,z
-x,y,1/2-z
-x,-y,-z
x,-y,1/2+z
1/2+x,1/2+y,z
1/2-x,1/2+y,1/2-z
1/2-x,1/2-y,-z
1/2+x,1/2-y,1/2+z
loop_
_atom_site_type_symbol
_atom_site_label
_atom_site_fract_x
_atom_site_fract_y
_atom_site_fract_z
Si Si1 0.266254 0.323514 0.832456
Si Si2 0.152318 0.194870 0.674448
Si Si3 0.312847 0.892175 0.381208
Si Si4 0.104315 0.287545 0.342715
Si Si5 0.638811 0.625727 0.486197
Si Si6 0.410658 0.501798 0.451019
O O1 0.377516 0.268488 0.746725
O O2 0.316356 0.358658 0.679447
O O3 0.267763 0.363299 0.940063
O O4 0.082531 0.300455 0.974398
O O5 0.283796 0.222856 0.641950
O O6 0.233100 0.163204 0.499194
O O7 0.000000 0.229356 0.750000
O O8 0.047215 0.147152 0.832039
O O9 0.500000 0.907037 0.250000
O O10 0.324666 0.842227 0.279536
O O11 0.214597 0.947049 0.431800
O O12 0.660753 0.560936 0.494867
O O13 0.500000 0.509651 0.250000
O O14 0.500000 0.500000 0.500000
#
# Coordination Sequence:
#
# PCOD9299587 Si02
#       6
#     8   8   8   8   8   8
#     4  11  23  41  64  94 127 170 221 268 330 395
#     4   8  19  39  61  86 132 155 217 257 325 385
#     4  10  25  44  62  97 133 176 217 272 336 401
#     4  11  22  41  66  91 131 172 216 274 331 393
#     4   9  20  40  59  92 130 163 214 261 328 381
#     4  12  23  42  73 100 135 177 227 280 331 397
#
# _framework density 20.912118
#
# number of rings (size 3 to 8) (size 9 to 14) (size 15 to 20)
#    1.000    0.667    1.667    3.500    0.000    2.667 
#    3.000    2.500    0.000    0.000    0.000    0.000 
#    0.000    0.000    0.000    0.000    0.000    0.000 
#
# Total GULP energy -133873.647661 kJ/mol
# GULP energy per Si atom -5578.068653 kJ/mol
# Density = 2.086452 g / cm^3
# Si number density = 20.912118 Si / 1000 Ang^3
#
#
#
# Elastic Constant Matrix: (Units=GPa)
#
#
# Indices 1 2 3 4 5 6 
#
# 1 101.4446 29.7603 10.9599 0.0000 15.2747 0.0000
# 2 29.7603 118.8118 36.1411 0.0000 -7.7035 0.0000
# 3 10.9599 36.1411 71.9864 0.0000 21.8182 0.0000
# 4 0.0000 0.0000 0.0000 35.1711 0.0000 4.2118
# 5 15.2747 -7.7035 21.8182 0.0000 9.6387 0.0000
# 6 0.0000 0.0000 0.0000 4.2118 0.0000 -27.9080
#
#
#
# Elastic Compliance Matrix: (Units=1/GPa)
#
#
# Indices 1 2 3 4 5 6 
#
# 1 0.001389 0.009463 -0.020985 0.000000 0.052865 0.000000
# 2 0.009463 -0.005077 0.021927 0.000000 -0.068690 0.000000
# 3 -0.020985 0.021927 -0.029667 0.000000 0.117935 0.000000
# 4 0.000000 0.000000 0.000000 0.027928 0.000000 0.004215
# 5 0.052865 -0.068690 0.117935 0.000000 -0.301885 0.000000
# 6 0.000000 0.000000 0.000000 0.004215 0.000000 -0.035196
#
#
# Mechanical properties :
#
#
# Convention : Reuss Voigt Hill
#
# Bulk Modulus (GPa) = -79.71353 49.55170 -15.08091
# Shear Modulus (GPa) = -13.60539 17.73913 2.06687
#
# Velocity S-wave (km/s) = -2.55345 2.91567 0.99524
# Velocity P-wave (km/s) = 6.84796 5.92296 2.43034
#
# Compressibility (1/GPa) = -0.01254492
#
# Stress axis : x y z
#
# Youngs Moduli (GPa) = 720.11048 -196.94992 -33.70745
#
# Poissons Ratio (x) = 1.86379 -0.70736
# Poissons Ratio (y) = -6.81458 0.73912
# Poissons Ratio (z) = 15.11168 4.31860
#
# Static dielectric constant tensor:
#      x y z
#    x 1.807100 0.000000 0.034730 
#    y 0.000000 1.720130 0.000000 
#    z 0.034730 0.000000 1.774570 
# 
# From -- ./inp_files/99959.got.cif
#   From: 2010.05.17/outbox.cif.g08.bks.cpg/sg15_50_cif.got.tgz:99959.got - 2010.06.03 18:47:42.
