data_PCOD9299599
_publ_section_title
;
Structure prediction by ZEFSAII (Michael W. Deem and Ramdas Pophale) SiO2 
 PCOD9299599
Probable space group: C 2/C
;
_chemical_formula_sum "Si O2"
_cell_formula_units_Z 44
_cell_length_a 16.748167
_cell_length_b 21.120420
_cell_length_c 16.132917
_cell_angle_alpha 90.000000
_cell_angle_beta 159.750473
_cell_angle_gamma 90.000000
_cell_volume 1975.131505
_symmetry_space_group_name_H-M "C 2/C"
_symmetry_group_IT_number 15
_symmetry_cell_setting 'monoclinic'
loop_
_space_group_symop_operation_xyz
x,y,z
-x,y,1/2-z
-x,-y,-z
x,-y,1/2+z
1/2+x,1/2+y,z
1/2-x,1/2+y,1/2-z
1/2-x,1/2-y,-z
1/2+x,1/2-y,1/2+z
loop_
_atom_site_type_symbol
_atom_site_label
_atom_site_fract_x
_atom_site_fract_y
_atom_site_fract_z
Si Si1 0.762601 0.772101 0.917198
Si Si2 0.929070 0.106296 0.514199
Si Si3 0.527574 0.385717 0.926694
Si Si4 0.116077 0.486154 0.201603
Si Si5 0.500000 0.287038 0.750000
Si Si6 0.320398 0.485465 0.150760
O O1 0.520779 0.750578 0.639724
O O2 0.783555 0.847269 0.928891
O O3 0.750000 0.750000 0.000000
O O4 0.817692 0.037434 0.397814
O O5 0.951900 0.134219 0.444903
O O6 0.161392 0.082794 0.784674
O O7 0.782372 0.416160 0.187461
O O8 0.500913 0.332118 0.832190
O O9 0.384689 0.447438 0.758117
O O10 0.000000 0.500000 0.000000
O O11 0.951195 0.503785 0.116324
O O12 0.250000 0.250000 0.500000
O O13 0.500000 0.481816 0.250000
#
# Coordination Sequence:
#
# PCOD9299599 Si02
#       6
#     8   8   8   8   4   8
#     4  10  25  44  65  92 142 191 242 291 341 418
#     4  11  24  40  71 105 141 188 241 298 376 455
#     4  11  24  46  71 105 145 189 244 320 374 448
#     4  11  21  41  76 110 146 184 235 305 391 467
#     4  12  32  52  76 106 148 206 276 318 370 442
#     4  11  23  39  69 110 145 179 231 300 388 454
#
# _framework density 22.276997999999999
#
# number of rings (size 3 to 8) (size 9 to 14) (size 15 to 20)
#    0.000    1.091    4.545    1.091    7.636    5.818 
#    0.000    0.000    0.000    0.000    0.000    0.000 
#    0.000    0.000    0.000    0.000    0.000    0.000 
#
# Total GULP energy -122506.961826 kJ/mol
# GULP energy per Si atom -5568.498265 kJ/mol
# Density = 2.222629 g / cm^3
# Si number density = 22.276998 Si / 1000 Ang^3
#
#
#
# Elastic Constant Matrix: (Units=GPa)
#
#
# Indices 1 2 3 4 5 6 
#
# 1 153.3505 44.3805 27.6057 -0.0001 -7.9679 0.0000
# 2 44.3805 103.6648 31.5603 -0.0002 -8.0872 0.0001
# 3 27.6057 31.5603 99.2636 -0.0012 13.0797 0.0001
# 4 -0.0001 -0.0002 -0.0012 34.9161 -0.0002 1.7595
# 5 -7.9679 -8.0872 13.0797 -0.0002 30.6079 0.0001
# 6 0.0000 0.0001 0.0001 1.7595 0.0001 32.4073
#
#
#
# Elastic Compliance Matrix: (Units=1/GPa)
#
#
# Indices 1 2 3 4 5 6 
#
# 1 0.007671 -0.002661 -0.001545 0.000000 0.001954 0.000000
# 2 -0.002661 0.012231 -0.003691 0.000000 0.004116 0.000000
# 3 -0.001545 -0.003691 0.012566 0.000000 -0.006747 0.000000
# 4 0.000000 0.000000 0.000000 0.028719 0.000000 -0.001559
# 5 0.001954 0.004116 -0.006747 0.000000 0.037151 0.000000
# 6 0.000000 0.000000 0.000000 -0.001559 0.000000 0.030942
#
#
# Mechanical properties :
#
#
# Convention : Reuss Voigt Hill
#
# Bulk Modulus (GPa) = 59.97310 62.59688 61.28499
# Shear Modulus (GPa) = 33.19382 36.43510 34.81446
#
# Velocity S-wave (km/s) = 3.86430 4.04858 3.95751
# Velocity P-wave (km/s) = 6.84766 7.07213 6.96080
#
# Compressibility (1/GPa) = 0.01667414
#
# Stress axis : x y z
#
# Youngs Moduli (GPa) = 130.36493 81.76221 79.57802
#
# Poissons Ratio (x) = 0.21760 0.12291
# Poissons Ratio (y) = 0.34694 0.29371
# Poissons Ratio (z) = 0.20136 0.30177
#
# Static dielectric constant tensor:
#      x y z
#    x 1.900000 0.000000 -0.108600 
#    y 0.000000 1.812020 0.000000 
#    z -0.108600 0.000000 2.338610 
# 
# From -- ./inp_files/212004.got.cif
#   From: 2010.05.17/outbox.cif.g08.bks.cpg/sg15_107_cif.got.tgz:212004.got - 2010.06.03 18:47:42.
