data_PCOD9299916
_publ_section_title
;
Structure prediction by ZEFSAII (Michael W. Deem and Ramdas Pophale) SiO2 
 PCOD9299916
Probable space group: C 2/C
;
_chemical_formula_sum "Si O2"
_cell_formula_units_Z 40
_cell_length_a 18.020076
_cell_length_b 10.952223
_cell_length_c 7.775894
_cell_angle_alpha 90.000000
_cell_angle_beta 105.782217
_cell_angle_gamma 90.000000
_cell_volume 1476.797069
_symmetry_space_group_name_H-M "C 2/C"
_symmetry_group_IT_number 15
_symmetry_cell_setting 'monoclinic'
loop_
_space_group_symop_operation_xyz
x,y,z
-x,y,1/2-z
-x,-y,-z
x,-y,1/2+z
1/2+x,1/2+y,z
1/2-x,1/2+y,1/2-z
1/2-x,1/2-y,-z
1/2+x,1/2-y,1/2+z
loop_
_atom_site_type_symbol
_atom_site_label
_atom_site_fract_x
_atom_site_fract_y
_atom_site_fract_z
Si Si1 0.690229 0.387815 0.029905
Si Si2 0.964415 0.331573 0.414311
Si Si3 0.380740 0.197852 0.316918
Si Si4 0.194667 0.473788 0.156458
Si Si5 0.427848 0.601505 0.582710
O O1 0.647082 0.258211 0.018078
O O2 0.750177 0.375283 0.224183
O O3 0.746151 0.447010 0.923697
O O4 0.623301 0.488376 0.006204
O O5 0.887987 0.407065 0.416725
O O6 0.948645 0.186262 0.432727
O O7 0.000000 0.358535 0.250000
O O8 0.033969 0.351727 0.591990
O O9 0.328736 0.085045 0.229508
O O10 0.384023 0.303323 0.179205
O O11 0.500000 0.565440 0.750000
#
# Coordination Sequence:
#
# PCOD9299916 Si02
#       5
#     8   8   8   8   8
#     4  12  26  45  73 109 150 187 247 306 371 427
#     4  11  26  45  76 108 145 194 247 300 364 442
#     4  11  25  47  70 105 145 200 241 296 366 446
#     4  12  26  44  74 107 151 187 245 306 370 428
#     4  10  25  48  74 102 147 197 245 297 365 442
#
# _framework density 27.085646000000001
#
# number of rings (size 3 to 8) (size 9 to 14) (size 15 to 20)
#    0.000    0.800    2.000    3.600    5.600    8.000 
#    0.000    0.000    0.000    0.000    0.000    0.000 
#    0.000    0.000    0.000    0.000    0.000    0.000 
#
# Total GULP energy -111717.329735 kJ/mol
# GULP energy per Si atom -5585.866487 kJ/mol
# Density = 2.702400 g / cm^3
# Si number density = 27.085646 Si / 1000 Ang^3
#
#
#
# Elastic Constant Matrix: (Units=GPa)
#
#
# Indices 1 2 3 4 5 6 
#
# 1 181.9312 56.5364 41.4947 0.0000 -14.6662 0.0000
# 2 56.5364 98.7492 -0.4248 0.0000 11.2318 0.0000
# 3 41.4947 -0.4248 40.4389 0.0000 -28.8935 0.0000
# 4 0.0000 0.0000 0.0000 27.1870 0.0000 2.0667
# 5 -14.6662 11.2318 -28.8935 0.0000 48.5863 0.0000
# 6 0.0000 0.0000 0.0000 2.0667 0.0000 60.5378
#
#
#
# Elastic Compliance Matrix: (Units=1/GPa)
#
#
# Indices 1 2 3 4 5 6 
#
# 1 0.009646 -0.005219 -0.012190 0.000000 -0.003131 0.000000
# 2 -0.005219 0.013409 0.003749 0.000000 -0.002446 0.000000
# 3 -0.012190 0.003749 0.059169 0.000000 0.030640 0.000000
# 4 0.000000 0.000000 0.000000 0.036878 0.000000 -0.001259
# 5 -0.003131 -0.002446 0.030640 0.000000 0.038424 0.000000
# 6 0.000000 0.000000 0.000000 -0.001259 0.000000 0.016562
#
#
# Mechanical properties :
#
#
# Convention : Reuss Voigt Hill
#
# Bulk Modulus (GPa) = 18.21391 57.37021 37.79206
# Shear Modulus (GPa) = 22.75731 42.16309 32.46020
#
# Velocity S-wave (km/s) = 2.90176 3.94973 3.46559
# Velocity P-wave (km/s) = 4.23865 6.48286 5.47694
#
# Compressibility (1/GPa) = 0.05490308
#
# Stress axis : x y z
#
# Youngs Moduli (GPa) = 103.66612 74.57635 16.90081
#
# Poissons Ratio (x) = 0.38922 0.20602
# Poissons Ratio (y) = 0.54105 -0.06335
# Poissons Ratio (z) = 1.26369 -0.27955
#
# Static dielectric constant tensor:
#      x y z
#    x 2.113850 0.000000 -0.107950 
#    y 0.000000 2.065130 0.000000 
#    z -0.107950 0.000000 2.226480 
# 
# From -- ./inp_files/46262.got.cif
#   From: 2010.05.17/outbox.cif.g08.bks.cpg/sg15_24_cif.got.tgz:46262.got - 2010.06.03 18:47:42.
