data_PCOD9299448
_publ_section_title
;
Structure prediction by ZEFSAII (Michael W. Deem and Ramdas Pophale) SiO2 
 PCOD9299448
Probable space group: C 2/C
;
_chemical_formula_sum "Si O2"
_cell_formula_units_Z 40
_cell_length_a 9.784478
_cell_length_b 21.172186
_cell_length_c 11.707876
_cell_angle_alpha 90.000000
_cell_angle_beta 127.901148
_cell_angle_gamma 90.000000
_cell_volume 1913.806326
_symmetry_space_group_name_H-M "C 2/C"
_symmetry_group_IT_number 15
_symmetry_cell_setting 'monoclinic'
loop_
_space_group_symop_operation_xyz
x,y,z
-x,y,1/2-z
-x,-y,-z
x,-y,1/2+z
1/2+x,1/2+y,z
1/2-x,1/2+y,1/2-z
1/2-x,1/2-y,-z
1/2+x,1/2-y,1/2+z
loop_
_atom_site_type_symbol
_atom_site_label
_atom_site_fract_x
_atom_site_fract_y
_atom_site_fract_z
Si Si1 0.066009 0.713112 0.908501
Si Si2 0.059992 0.157536 0.147033
Si Si3 0.866198 0.407028 0.900866
Si Si4 0.548355 0.435219 0.088179
Si Si5 0.736137 0.040642 0.588796
O O1 0.000000 0.694486 0.750000
O O2 0.935697 0.768755 0.881867
O O3 0.250000 0.750000 0.000000
O O4 0.087370 0.652323 0.996607
O O5 0.241212 0.120613 0.239795
O O6 0.000000 0.154432 0.250000
O O7 0.938837 0.120514 0.996762
O O8 0.764937 0.464128 0.912652
O O9 0.046989 0.436970 0.955452
O O10 0.715071 0.442345 0.255003
O O11 0.383545 0.428087 0.087594
O O12 0.500000 0.500000 0.000000
#
# Coordination Sequence:
#
# PCOD9299448 Si02
#       5
#     8   8   8   8   8
#     4  11  23  38  65  94 126 171 220 266 316 372
#     4  11  22  40  64  95 128 168 211 264 322 374
#     4  11  22  42  59  94 134 156 220 266 311 385
#     4  11  22  40  66  89 131 171 208 261 325 387
#     4  10  25  40  62  98 127 172 210 260 325 386
#
# _framework density 20.900755
#
# number of rings (size 3 to 8) (size 9 to 14) (size 15 to 20)
#    0.000    1.200    6.000    1.200    2.800    0.800 
#    0.000    1.000    0.000    0.000    0.000    0.000 
#    0.000    0.000    0.000    0.000    0.000    0.000 
#
# Total GULP energy -111686.361799 kJ/mol
# GULP energy per Si atom -5584.318090 kJ/mol
# Density = 2.085318 g / cm^3
# Si number density = 20.900755 Si / 1000 Ang^3
#
#
#
# Elastic Constant Matrix: (Units=GPa)
#
#
# Indices 1 2 3 4 5 6 
#
# 1 31.9985 1.4367 6.8431 0.0000 11.0690 0.0000
# 2 1.4367 127.7098 30.4528 0.0000 -10.9756 0.0000
# 3 6.8431 30.4528 101.1224 0.0000 2.5606 0.0000
# 4 0.0000 0.0000 0.0000 49.1923 0.0000 10.1327
# 5 11.0690 -10.9756 2.5606 0.0000 34.2546 0.0000
# 6 0.0000 0.0000 0.0000 10.1327 0.0000 19.5117
#
#
#
# Elastic Compliance Matrix: (Units=1/GPa)
#
#
# Indices 1 2 3 4 5 6 
#
# 1 0.035742 -0.000974 -0.001829 0.000000 -0.011725 0.000000
# 2 -0.000974 0.008760 -0.002656 0.000000 0.003320 0.000000
# 3 -0.001829 -0.002656 0.010840 0.000000 -0.001070 0.000000
# 4 0.000000 0.000000 0.000000 0.022763 0.000000 -0.011821
# 5 -0.011725 0.003320 -0.001070 0.000000 0.034126 0.000000
# 6 0.000000 0.000000 0.000000 -0.011821 0.000000 0.057390
#
#
# Mechanical properties :
#
#
# Convention : Reuss Voigt Hill
#
# Bulk Modulus (GPa) = 22.50995 37.58844 30.04920
# Shear Modulus (GPa) = 25.59552 35.39826 30.49689
#
# Velocity S-wave (km/s) = 3.50326 4.11984 3.82400
# Velocity P-wave (km/s) = 5.21124 6.37606 5.82285
#
# Compressibility (1/GPa) = 0.04442479
#
# Stress axis : x y z
#
# Youngs Moduli (GPa) = 27.97815 114.15637 92.25287
#
# Poissons Ratio (x) = 0.11116 0.16869
# Poissons Ratio (y) = 0.02724 0.24504
# Poissons Ratio (z) = 0.05116 0.30322
#
# Static dielectric constant tensor:
#      x y z
#    x 1.813730 0.000000 0.022260 
#    y 0.000000 1.749310 0.000000 
#    z 0.022260 0.000000 1.772380 
# 
# From -- ./inp_files/88632.got.cif
#   From: 2010.05.17/outbox.cif.g08.bks.cpg/sg15_45_cif.got.tgz:88632.got - 2010.06.03 18:47:42.
