data_PCOD9299983
_publ_section_title
;
Structure prediction by ZEFSAII (Michael W. Deem and Ramdas Pophale) SiO2 
 PCOD9299983
Probable space group: C 2/C
;
_chemical_formula_sum "Si O2"
_cell_formula_units_Z 48
_cell_length_a 18.173200
_cell_length_b 27.481031
_cell_length_c 9.283733
_cell_angle_alpha 90.000000
_cell_angle_beta 151.839203
_cell_angle_gamma 90.000000
_cell_volume 2188.169174
_symmetry_space_group_name_H-M "C 2/C"
_symmetry_group_IT_number 15
_symmetry_cell_setting 'monoclinic'
loop_
_space_group_symop_operation_xyz
x,y,z
-x,y,1/2-z
-x,-y,-z
x,-y,1/2+z
1/2+x,1/2+y,z
1/2-x,1/2+y,1/2-z
1/2-x,1/2-y,-z
1/2+x,1/2-y,1/2+z
loop_
_atom_site_type_symbol
_atom_site_label
_atom_site_fract_x
_atom_site_fract_y
_atom_site_fract_z
Si Si1 0.315283 0.944822 0.173406
Si Si2 0.000000 0.502675 0.250000
Si Si3 0.500000 0.414846 0.750000
Si Si4 0.500000 0.680017 0.750000
Si Si5 0.500000 0.215788 0.750000
Si Si6 0.320505 0.350477 0.206036
Si Si7 0.718888 0.766812 0.215142
Si Si8 0.502871 0.847174 0.985068
O O1 0.379860 0.971960 0.142717
O O2 0.379013 0.889866 0.272042
O O3 0.399505 0.967266 0.460127
O O4 0.129695 0.944356 0.882389
O O5 0.397082 0.381116 0.465914
O O6 0.567420 0.648451 0.737210
O O7 0.369272 0.717483 0.471034
O O8 0.361755 0.251003 0.561998
O O9 0.446690 0.180992 0.529846
O O10 0.298743 0.294224 0.217647
O O11 0.146853 0.366737 0.859812
O O12 0.598986 0.806574 0.065029
#
# Coordination Sequence:
#
# PCOD9299983 Si02
#       8
#     8   4   4   4   4   8   8   8
#     4  11  25  47  76 110 135 182 224 287 357 434
#     4  10  25  51  80 103 144 170 223 286 366 438
#     4  12  27  44  76 104 140 176 235 277 352 425
#     4  12  24  39  62  87 141 191 242 291 341 378
#     4  12  26  38  62 106 139 191 248 290 325 399
#     4  12  25  44  61  97 137 189 234 294 338 402
#     4  12  23  41  62  94 140 191 241 289 334 396
#     4  12  24  43  70  96 142 187 235 283 349 409
#
# _framework density 21.936146000000001
#
# number of rings (size 3 to 8) (size 9 to 14) (size 15 to 20)
#    0.000    0.333    5.000    4.000    2.333    2.000 
#    0.000    0.000    0.000    0.000    0.000    0.000 
#    0.000    0.000    0.000    0.000    0.000    0.000 
#
# Total GULP energy -134235.167952 kJ/mol
# GULP energy per Si atom -5593.131998 kJ/mol
# Density = 2.188622 g / cm^3
# Si number density = 21.936146 Si / 1000 Ang^3
#
#
#
# Elastic Constant Matrix: (Units=GPa)
#
#
# Indices 1 2 3 4 5 6 
#
# 1 141.6281 35.6110 36.3070 0.0000 21.7262 0.0000
# 2 35.6110 37.3100 7.9521 0.0000 11.2213 0.0000
# 3 36.3070 7.9521 98.0853 0.0000 26.2277 0.0000
# 4 0.0000 0.0000 0.0000 19.8860 0.0000 7.9564
# 5 21.7262 11.2213 26.2277 0.0000 35.4187 0.0000
# 6 0.0000 0.0000 0.0000 7.9564 0.0000 22.5473
#
#
#
# Elastic Compliance Matrix: (Units=1/GPa)
#
#
# Indices 1 2 3 4 5 6 
#
# 1 0.010153 -0.008669 -0.002649 0.000000 -0.001520 0.000000
# 2 -0.008669 0.037028 0.002396 0.000000 -0.008188 0.000000
# 3 -0.002649 0.002396 0.013404 0.000000 -0.009060 0.000000
# 4 0.000000 0.000000 0.000000 0.058553 0.000000 -0.020662
# 5 -0.001520 -0.008188 -0.009060 0.000000 0.038469 0.000000
# 6 0.000000 0.000000 0.000000 -0.020662 0.000000 0.051642
#
#
# Mechanical properties :
#
#
# Convention : Reuss Voigt Hill
#
# Bulk Modulus (GPa) = 23.39589 48.52927 35.96258
# Shear Modulus (GPa) = 20.71767 28.71396 24.71582
#
# Velocity S-wave (km/s) = 3.07653 3.62191 3.36030
# Velocity P-wave (km/s) = 4.82790 6.29777 5.61118
#
# Compressibility (1/GPa) = 0.04274255
#
# Stress axis : x y z
#
# Youngs Moduli (GPa) = 98.49732 27.00640 74.60414
#
# Poissons Ratio (x) = 0.23411 0.19762
# Poissons Ratio (y) = 0.85383 -0.17877
# Poissons Ratio (z) = 0.26090 -0.06471
#
# Static dielectric constant tensor:
#      x y z
#    x 1.859600 0.000000 0.001380 
#    y 0.000000 1.754850 0.000000 
#    z 0.001380 0.000000 1.840660 
# 
# From -- ./inp_files/52775.got.cif
#   From: 2010.05.17/outbox.cif.g08.bks.cpg/sg15_27_cif.got.tgz:52775.got - 2010.06.03 18:47:42.
