data_PCOD9299814
_publ_section_title
;
Structure prediction by ZEFSAII (Michael W. Deem and Ramdas Pophale) SiO2 
 PCOD9299814
Probable space group: C 2/C
;
_chemical_formula_sum "Si O2"
_cell_formula_units_Z 40
_cell_length_a 20.052582
_cell_length_b 5.052940
_cell_length_c 25.698915
_cell_angle_alpha 90.000000
_cell_angle_beta 136.028245
_cell_angle_gamma 90.000000
_cell_volume 1807.917855
_symmetry_space_group_name_H-M "C 2/C"
_symmetry_group_IT_number 15
_symmetry_cell_setting 'monoclinic'
loop_
_space_group_symop_operation_xyz
x,y,z
-x,y,1/2-z
-x,-y,-z
x,-y,1/2+z
1/2+x,1/2+y,z
1/2-x,1/2+y,1/2-z
1/2-x,1/2-y,-z
1/2+x,1/2-y,1/2+z
loop_
_atom_site_type_symbol
_atom_site_label
_atom_site_fract_x
_atom_site_fract_y
_atom_site_fract_z
Si Si1 0.292273 0.159504 0.302977
Si Si2 0.898870 0.659119 0.166637
Si Si3 0.719915 0.327841 0.877801
Si Si4 0.999480 0.247653 0.961589
Si Si5 0.840474 0.600281 0.024642
O O1 0.232368 0.405340 0.245923
O O2 0.404754 0.234592 0.372031
O O3 0.260552 0.098754 0.344407
O O4 0.861415 0.958878 0.151787
O O5 0.905372 0.552475 0.111272
O O6 0.000000 0.631958 0.250000
O O7 0.820747 0.465806 0.148188
O O8 0.798086 0.357973 0.967668
O O9 0.094677 0.243113 0.979825
O O10 0.000000 0.500000 0.000000
O O11 0.000000 0.000000 0.000000
O O12 0.750000 0.750000 0.000000
#
# Coordination Sequence:
#
# PCOD9299814 Si02
#       5
#     8   8   8   8   8
#     4  12  27  46  73 105 149 189 241 305 370 429
#     4  11  25  44  70 104 139 185 240 299 359 427
#     4  11  24  45  70  98 144 186 237 298 358 426
#     4  12  27  48  76 107 144 193 247 298 365 441
#     4  10  25  46  75 103 142 189 243 291 360 430
#
# _framework density 22.124898999999999
#
# number of rings (size 3 to 8) (size 9 to 14) (size 15 to 20)
#    0.000    0.800    2.000    3.600   11.200    3.200 
#    0.000    0.000    0.000    0.000    0.000    0.000 
#    0.000    0.000    0.000    0.000    0.000    0.000 
#
# Total GULP energy -111866.347097 kJ/mol
# GULP energy per Si atom -5593.317355 kJ/mol
# Density = 2.207454 g / cm^3
# Si number density = 22.124899 Si / 1000 Ang^3
#
#
#
# Elastic Constant Matrix: (Units=GPa)
#
#
# Indices 1 2 3 4 5 6 
#
# 1 129.2679 16.7150 37.9621 0.0018 -6.3120 -0.0012
# 2 16.7150 107.3563 43.7265 0.0124 3.7518 -0.0092
# 3 37.9621 43.7265 163.6389 0.0011 1.0184 -0.0024
# 4 0.0018 0.0124 0.0011 50.8341 -0.0039 -12.7039
# 5 -6.3120 3.7518 1.0184 -0.0039 35.6467 0.0005
# 6 -0.0012 -0.0092 -0.0024 -12.7039 0.0005 35.0250
#
#
#
# Elastic Compliance Matrix: (Units=1/GPa)
#
#
# Indices 1 2 3 4 5 6 
#
# 1 0.008424 -0.000637 -0.001794 0.000000 0.001610 0.000000
# 2 -0.000637 0.010538 -0.002661 -0.000002 -0.001146 0.000002
# 3 -0.001794 -0.002661 0.007240 0.000001 -0.000244 0.000000
# 4 0.000000 -0.000002 0.000001 0.021633 0.000002 0.007846
# 5 0.001610 -0.001146 -0.000244 0.000002 0.028466 0.000000
# 6 0.000000 0.000002 0.000000 0.007846 0.000000 0.031397
#
#
# Mechanical properties :
#
#
# Convention : Reuss Voigt Hill
#
# Bulk Modulus (GPa) = 62.43257 66.34115 64.38686
# Shear Modulus (GPa) = 40.57790 44.42512 42.50151
#
# Velocity S-wave (km/s) = 4.28721 4.48585 4.38765
# Velocity P-wave (km/s) = 7.26543 7.54191 7.40496
#
# Compressibility (1/GPa) = 0.01601728
#
# Stress axis : x y z
#
# Youngs Moduli (GPa) = 118.71270 94.89626 138.12638
#
# Poissons Ratio (x) = 0.06046 0.24779
# Poissons Ratio (y) = 0.07563 0.36754
# Poissons Ratio (z) = 0.21297 0.25251
#
# Static dielectric constant tensor:
#      x y z
#    x 1.821030 0.000000 0.009810 
#    y 0.000000 1.771870 -0.000010 
#    z 0.009810 -0.000010 1.844030 
# 
# From -- ./inp_files/279099.got.cif
#   From: 2010.05.17/outbox.cif.g08.bks.cpg/sg15_140_cif.got.tgz:279099.got - 2010.06.03 18:47:42.
