data_PCOD9299570
_publ_section_title
;
Structure prediction by ZEFSAII (Michael W. Deem and Ramdas Pophale) SiO2 
 PCOD9299570
Probable space group: C 2/C
;
_chemical_formula_sum "Si O2"
_cell_formula_units_Z 56
_cell_length_a 8.435419
_cell_length_b 16.187738
_cell_length_c 18.307883
_cell_angle_alpha 90.000000
_cell_angle_beta 101.409601
_cell_angle_gamma 90.000000
_cell_volume 2450.544010
_symmetry_space_group_name_H-M "C 2/C"
_symmetry_group_IT_number 15
_symmetry_cell_setting 'monoclinic'
loop_
_space_group_symop_operation_xyz
x,y,z
-x,y,1/2-z
-x,-y,-z
x,-y,1/2+z
1/2+x,1/2+y,z
1/2-x,1/2+y,1/2-z
1/2-x,1/2-y,-z
1/2+x,1/2-y,1/2+z
loop_
_atom_site_type_symbol
_atom_site_label
_atom_site_fract_x
_atom_site_fract_y
_atom_site_fract_z
Si Si1 0.266314 0.599037 0.142705
Si Si2 0.808981 0.003310 0.506223
Si Si3 0.473166 0.247189 0.335896
Si Si4 0.781943 0.380931 0.130361
Si Si5 0.589944 0.261542 0.933917
Si Si6 0.764944 0.834205 0.927322
Si Si7 0.312208 0.954117 0.715094
O O1 0.391933 0.660944 0.118184
O O2 0.294780 0.560066 0.223428
O O3 0.119539 0.663525 0.145103
O O4 0.258050 0.527427 0.081632
O O5 0.742815 0.934108 0.445140
O O6 0.740046 0.094827 0.485630
O O7 0.000000 0.000000 0.500000
O O8 0.500000 0.250907 0.250000
O O9 0.365918 0.323457 0.355489
O O10 0.641707 0.236801 0.392271
O O11 0.920922 0.317264 0.119536
O O12 0.811512 0.450855 0.191999
O O13 0.429976 0.286637 0.961057
O O14 0.750000 0.250000 0.000000
O O15 0.754830 0.894716 0.854512
O O16 0.500000 0.935179 0.750000
#
# Coordination Sequence:
#
# PCOD9299570 Si02
#       7
#     8   8   8   8   8   8   8
#     4  11  21  42  75  92 152 181 234 296 365 418
#     4  11  22  43  67 103 130 185 237 286 345 433
#     4  11  23  45  66 105 142 182 233 301 357 429
#     4  10  25  43  70  94 142 176 237 290 352 427
#     4  11  22  44  71 102 142 191 229 294 365 430
#     4  11  22  43  76  98 143 184 240 293 357 429
#     4  11  23  47  69 105 138 187 241 300 354 436
#
# _framework density 22.852067999999999
#
# number of rings (size 3 to 8) (size 9 to 14) (size 15 to 20)
#    0.000    1.143    5.714    0.000    0.000    3.429 
#    0.000    6.429    0.000    0.000    0.000    0.000 
#    0.000    0.000    0.000    0.000    0.000    0.000 
#
# Total GULP energy -156191.973397 kJ/mol
# GULP energy per Si atom -5578.284764 kJ/mol
# Density = 2.280006 g / cm^3
# Si number density = 22.852068 Si / 1000 Ang^3
#
#
#
# Elastic Constant Matrix: (Units=GPa)
#
#
# Indices 1 2 3 4 5 6 
#
# 1 62.1967 33.2275 22.3626 0.0000 5.6957 0.0000
# 2 33.2275 122.3351 52.8725 0.0000 2.6666 0.0000
# 3 22.3626 52.8725 107.5507 0.0000 -26.8898 0.0000
# 4 0.0000 0.0000 0.0000 39.4341 0.0000 -14.1969
# 5 5.6957 2.6666 -26.8898 0.0000 30.5918 0.0000
# 6 0.0000 0.0000 0.0000 -14.1969 0.0000 20.0682
#
#
#
# Elastic Compliance Matrix: (Units=1/GPa)
#
#
# Indices 1 2 3 4 5 6 
#
# 1 0.020128 -0.003455 -0.004291 0.000000 -0.007218 0.000000
# 2 -0.003455 0.012252 -0.006935 0.000000 -0.006521 0.000000
# 3 -0.004291 -0.006935 0.017880 0.000000 0.017120 0.000000
# 4 0.000000 0.000000 0.000000 0.034024 0.000000 0.024070
# 5 -0.007218 -0.006521 0.017120 0.000000 0.049649 0.000000
# 6 0.000000 0.000000 0.000000 0.024070 0.000000 0.066858
#
#
# Mechanical properties :
#
#
# Convention : Reuss Voigt Hill
#
# Bulk Modulus (GPa) = 47.85401 56.55642 52.20522
# Shear Modulus (GPa) = 21.08649 30.26016 25.67332
#
# Velocity S-wave (km/s) = 3.04096 3.64287 3.35544
# Velocity P-wave (km/s) = 5.77201 6.51895 6.15682
#
# Compressibility (1/GPa) = 0.02089689
#
# Stress axis : x y z
#
# Youngs Moduli (GPa) = 49.68281 81.61858 55.92893
#
# Poissons Ratio (x) = 0.28198 0.24001
# Poissons Ratio (y) = 0.17165 0.38788
# Poissons Ratio (z) = 0.21321 0.56604
#
# Static dielectric constant tensor:
#      x y z
#    x 2.206750 0.000000 -0.095380 
#    y 0.000000 1.909490 0.000000 
#    z -0.095380 0.000000 1.934610 
# 
# From -- ./inp_files/232217.got.cif
#   From: 2010.05.17/outbox.cif.g08.bks.cpg/sg15_117_cif.got.tgz:232217.got - 2010.06.03 18:47:42.
