data_PCOD9299034
_publ_section_title
;
Structure prediction by ZEFSAII (Michael W. Deem and Ramdas Pophale) SiO2 
 PCOD9299034
Probable space group: C 2/C
;
_chemical_formula_sum "Si O2"
_cell_formula_units_Z 32
_cell_length_a 9.255202
_cell_length_b 18.137242
_cell_length_c 10.621515
_cell_angle_alpha 90.000000
_cell_angle_beta 137.638865
_cell_angle_gamma 90.000000
_cell_volume 1201.366382
_symmetry_space_group_name_H-M "C 2/C"
_symmetry_group_IT_number 15
_symmetry_cell_setting 'monoclinic'
loop_
_space_group_symop_operation_xyz
x,y,z
-x,y,1/2-z
-x,-y,-z
x,-y,1/2+z
1/2+x,1/2+y,z
1/2-x,1/2+y,1/2-z
1/2-x,1/2-y,-z
1/2+x,1/2-y,1/2+z
loop_
_atom_site_type_symbol
_atom_site_label
_atom_site_fract_x
_atom_site_fract_y
_atom_site_fract_z
Si Si1 0.734384 0.570431 0.857786
Si Si2 0.500000 0.500000 0.500000
Si Si3 0.111155 0.845016 0.658755
Si Si4 0.500000 0.095971 0.250000
Si Si5 0.546260 0.182508 0.927314
O O1 0.500000 0.596366 0.750000
O O2 0.687068 0.506222 0.730024
O O3 0.876287 0.633351 0.891726
O O4 0.853647 0.546119 0.063138
O O5 0.468130 0.413224 0.519799
O O6 0.323448 0.854080 0.705744
O O7 0.993341 0.767596 0.561789
O O8 0.222624 0.842258 0.869067
O O9 0.500000 0.174225 0.750000
#
# Coordination Sequence:
#
# PCOD9299034 Si02
#       5
#     8   4   8   4   8
#     4  11  25  48  78 111 154 205 263 323 390 463
#     4  12  26  48  72 114 154 210 254 328 390 460
#     4  11  25  46  77 111 157 202 262 325 390 469
#     4  10  24  46  74 116 144 204 260 316 392 458
#     4  11  26  48  77 118 155 206 262 327 395 465
#
# _framework density 26.636339
#
# number of rings (size 3 to 8) (size 9 to 14) (size 15 to 20)
#    0.000    1.000    2.500    2.250    1.750    9.000 
#    4.500    0.000    0.000    0.000    0.000    0.000 
#    0.000    0.000    0.000    0.000    0.000    0.000 
#
# Total GULP energy -89273.922050 kJ/mol
# GULP energy per Si atom -5579.620128 kJ/mol
# Density = 2.657571 g / cm^3
# Si number density = 26.636339 Si / 1000 Ang^3
#
#
#
# Elastic Constant Matrix: (Units=GPa)
#
#
# Indices 1 2 3 4 5 6 
#
# 1 84.4405 17.9469 31.1786 0.0000 12.0121 0.0000
# 2 17.9469 118.4069 57.7752 0.0000 -3.2542 0.0000
# 3 31.1786 57.7752 251.3288 0.0000 -1.5928 0.0000
# 4 0.0000 0.0000 0.0000 45.9869 0.0000 -1.4665
# 5 12.0121 -3.2542 -1.5928 0.0000 46.5913 0.0000
# 6 0.0000 0.0000 0.0000 -1.4665 0.0000 29.6912
#
#
#
# Elastic Compliance Matrix: (Units=1/GPa)
#
#
# Indices 1 2 3 4 5 6 
#
# 1 0.013140 -0.001444 -0.001320 0.000000 -0.003534 0.000000
# 2 -0.001444 0.009687 -0.002042 0.000000 0.000979 0.000000
# 3 -0.001320 -0.002042 0.004614 0.000000 0.000356 0.000000
# 4 0.000000 0.000000 0.000000 0.021780 0.000000 0.001076
# 5 -0.003534 0.000979 0.000356 0.000000 0.022455 0.000000
# 6 0.000000 0.000000 0.000000 0.001076 0.000000 0.033733
#
#
# Mechanical properties :
#
#
# Convention : Reuss Voigt Hill
#
# Bulk Modulus (GPa) = 56.08920 74.21974 65.15447
# Shear Modulus (GPa) = 41.33430 47.60559 44.46995
#
# Velocity S-wave (km/s) = 3.94356 4.23217 4.09041
# Velocity P-wave (km/s) = 6.46829 7.19765 6.84269
#
# Compressibility (1/GPa) = 0.01782875
#
# Stress axis : x y z
#
# Youngs Moduli (GPa) = 76.10410 103.22634 216.72149
#
# Poissons Ratio (x) = 0.14911 0.28616
# Poissons Ratio (y) = 0.10993 0.44245
# Poissons Ratio (z) = 0.10049 0.21074
#
# Static dielectric constant tensor:
#      x y z
#    x 1.532920 0.000000 -0.211830 
#    y 0.000000 1.956960 0.000000 
#    z -0.211830 0.000000 2.150450 
# 
# From -- ./inp_files/87662.got.cif
#   From: 2010.05.17/outbox.cif.g08.bks.cpg/sg15_44_cif.got.tgz:87662.got - 2010.06.03 18:47:42.
