data_PCOD9299900
_publ_section_title
;
Structure prediction by ZEFSAII (Michael W. Deem and Ramdas Pophale) SiO2 
 PCOD9299900
Probable space group: C 2/C
;
_chemical_formula_sum "Si O2"
_cell_formula_units_Z 40
_cell_length_a 27.253134
_cell_length_b 5.162795
_cell_length_c 14.884759
_cell_angle_alpha 90.000000
_cell_angle_beta 47.828220
_cell_angle_gamma 90.000000
_cell_volume 1552.174943
_symmetry_space_group_name_H-M "C 2/C"
_symmetry_group_IT_number 15
_symmetry_cell_setting 'monoclinic'
loop_
_space_group_symop_operation_xyz
x,y,z
-x,y,1/2-z
-x,-y,-z
x,-y,1/2+z
1/2+x,1/2+y,z
1/2-x,1/2+y,1/2-z
1/2-x,1/2-y,-z
1/2+x,1/2-y,1/2+z
loop_
_atom_site_type_symbol
_atom_site_label
_atom_site_fract_x
_atom_site_fract_y
_atom_site_fract_z
Si Si1 0.298589 0.494996 0.055331
Si Si2 0.426854 0.155667 0.349538
Si Si3 0.829357 0.376104 0.367373
Si Si4 0.152079 0.988317 0.816750
Si Si5 0.068927 0.483995 0.964355
O O1 0.363517 0.659428 0.947705
O O2 0.309529 0.221095 0.991298
O O3 0.226236 0.565710 0.105679
O O4 0.294718 0.489071 0.167899
O O5 0.500000 0.280924 0.250000
O O6 0.436388 0.960080 0.421513
O O7 0.401087 0.000537 0.294141
O O8 0.829181 0.125422 0.302971
O O9 0.112526 0.253936 0.870960
O O10 0.103912 0.758200 0.907889
O O11 0.000000 0.500000 0.000000
#
# Coordination Sequence:
#
# PCOD9299900 Si02
#       5
#     8   8   8   8   8
#     4  10  25  48  69 110 148 193 258 325 371 471
#     4  11  24  44  74 109 151 206 251 313 390 461
#     4  11  24  46  75 102 152 200 255 319 389 453
#     4  11  25  45  73 108 145 199 252 312 388 449
#     4  11  24  45  68 109 155 191 255 314 369 464
#
# _framework density 25.770291
#
# number of rings (size 3 to 8) (size 9 to 14) (size 15 to 20)
#    0.000    1.200    2.000    2.400    5.600    2.400 
#    3.600    0.000    0.000    0.000    0.000    0.000 
#    0.000    0.000    0.000    0.000    0.000    0.000 
#
# Total GULP energy -111859.782172 kJ/mol
# GULP energy per Si atom -5592.989109 kJ/mol
# Density = 2.571164 g / cm^3
# Si number density = 25.770291 Si / 1000 Ang^3
#
#
#
# Elastic Constant Matrix: (Units=GPa)
#
#
# Indices 1 2 3 4 5 6 
#
# 1 271.7919 39.0445 67.1154 -0.0042 6.3960 0.0027
# 2 39.0445 208.6541 18.1279 0.0380 -15.3168 -0.0302
# 3 67.1154 18.1279 81.8554 0.0057 2.9870 -0.0042
# 4 -0.0042 0.0380 0.0057 65.7995 -0.0017 -14.7200
# 5 6.3960 -15.3168 2.9870 -0.0017 53.7344 0.0005
# 6 0.0027 -0.0302 -0.0042 -14.7200 0.0005 49.5571
#
#
#
# Elastic Compliance Matrix: (Units=1/GPa)
#
#
# Indices 1 2 3 4 5 6 
#
# 1 0.004689 -0.000595 -0.003694 0.000001 -0.000522 -0.000001
# 2 -0.000595 0.005079 -0.000694 -0.000002 0.001557 0.000002
# 3 -0.003694 -0.000694 0.015422 -0.000001 -0.000615 0.000001
# 4 0.000001 -0.000002 -0.000001 0.016279 0.000000 0.004835
# 5 -0.000522 0.001557 -0.000615 0.000000 0.019150 0.000001
# 6 -0.000001 0.000002 0.000001 0.004835 0.000001 0.021615
#
#
# Mechanical properties :
#
#
# Convention : Reuss Voigt Hill
#
# Bulk Modulus (GPa) = 65.68573 90.09744 77.89158
# Shear Modulus (GPa) = 51.40122 63.01912 57.21017
#
# Velocity S-wave (km/s) = 4.47093 4.95048 4.71680
# Velocity P-wave (km/s) = 7.22472 8.22885 7.74308
#
# Compressibility (1/GPa) = 0.01522401
#
# Stress axis : x y z
#
# Youngs Moduli (GPa) = 213.25486 196.90827 64.84425
#
# Poissons Ratio (x) = 0.11714 0.23954
# Poissons Ratio (y) = 0.12686 0.04499
# Poissons Ratio (z) = 0.78777 0.13661
#
# Static dielectric constant tensor:
#      x y z
#    x 2.003120 0.000000 0.018850 
#    y 0.000000 1.992250 0.000000 
#    z 0.018850 0.000000 2.170120 
# 
# From -- ./inp_files/179417.got.cif
#   From: 2010.05.17/outbox.cif.g08.bks.cpg/sg15_90_cif.got.tgz:179417.got - 2010.06.03 18:47:42.
