data_PCOD9299339
_publ_section_title
;
Structure prediction by ZEFSAII (Michael W. Deem and Ramdas Pophale) SiO2 
 PCOD9299339
Probable space group: C 2/C
;
_chemical_formula_sum "Si O2"
_cell_formula_units_Z 28
_cell_length_a 10.153348
_cell_length_b 11.645799
_cell_length_c 9.234790
_cell_angle_alpha 90.000000
_cell_angle_beta 62.741253
_cell_angle_gamma 90.000000
_cell_volume 970.692260
_symmetry_space_group_name_H-M "C 2/C"
_symmetry_group_IT_number 15
_symmetry_cell_setting 'monoclinic'
loop_
_space_group_symop_operation_xyz
x,y,z
-x,y,1/2-z
-x,-y,-z
x,-y,1/2+z
1/2+x,1/2+y,z
1/2-x,1/2+y,1/2-z
1/2-x,1/2-y,-z
1/2+x,1/2-y,1/2+z
loop_
_atom_site_type_symbol
_atom_site_label
_atom_site_fract_x
_atom_site_fract_y
_atom_site_fract_z
Si Si1 0.768539 0.709163 0.155810
Si Si2 0.500000 0.011231 0.750000
Si Si3 0.807398 0.562562 0.596527
Si Si4 0.950077 0.868919 0.479285
O O1 0.789822 0.573670 0.121028
O O2 0.911098 0.786873 0.121102
O O3 0.750000 0.750000 0.000000
O O4 0.840342 0.111448 0.900218
O O5 0.381965 0.086136 0.716583
O O6 0.579559 0.930875 0.593925
O O7 0.854167 0.804418 0.653318
O O8 0.000000 0.000000 0.500000
#
# Coordination Sequence:
#
# PCOD9299339 Si02
#       4
#     8   4   8   8
#     4  12  27  51  93 141 191 262 324 392 505 592
#     4  10  24  48  86 124 176 260 306 406 466 584
#     4  11  24  51  88 129 195 244 329 396 498 562
#     4  12  28  54  95 142 194 255 326 410 488 587
#
# _framework density 28.845393999999999
#
# number of rings (size 3 to 8) (size 9 to 14) (size 15 to 20)
#    0.000    0.571    5.714    0.857    4.000    0.000 
#    0.000   11.429    0.000    0.000    0.000    0.000 
#    0.000    0.000    0.000    0.000    0.000    0.000 
#
# Total GULP energy -78340.502184 kJ/mol
# GULP energy per Si atom -5595.750156 kJ/mol
# Density = 2.877974 g / cm^3
# Si number density = 28.845394 Si / 1000 Ang^3
#
#
#
# Elastic Constant Matrix: (Units=GPa)
#
#
# Indices 1 2 3 4 5 6 
#
# 1 253.3170 84.7856 161.1659 0.0000 27.9072 0.0000
# 2 84.7856 191.4768 99.4282 0.0000 16.8840 0.0000
# 3 161.1659 99.4282 283.4064 0.0000 20.0935 0.0000
# 4 0.0000 0.0000 0.0000 11.8290 0.0000 3.9666
# 5 27.9072 16.8840 20.0935 0.0000 79.0259 0.0000
# 6 0.0000 0.0000 0.0000 3.9666 0.0000 76.2889
#
#
#
# Elastic Compliance Matrix: (Units=1/GPa)
#
#
# Indices 1 2 3 4 5 6 
#
# 1 0.006504 -0.001095 -0.003226 0.000000 -0.001242 0.000000
# 2 -0.001095 0.006622 -0.001657 0.000000 -0.000607 0.000000
# 3 -0.003226 -0.001657 0.005946 0.000000 -0.000018 0.000000
# 4 0.000000 0.000000 0.000000 0.086038 0.000000 -0.004474
# 5 -0.001242 -0.000607 -0.000018 0.000000 0.013227 0.000000
# 6 0.000000 0.000000 0.000000 -0.004474 0.000000 0.013341
#
#
# Mechanical properties :
#
#
# Convention : Reuss Voigt Hill
#
# Bulk Modulus (GPa) = 140.56787 157.66219 149.11503
# Shear Modulus (GPa) = 34.24543 58.95014 46.59778
#
# Velocity S-wave (km/s) = 3.44932 4.52559 4.02360
# Velocity P-wave (km/s) = 8.04370 9.06004 8.56695
#
# Compressibility (1/GPa) = 0.00711400
#
# Stress axis : x y z
#
# Youngs Moduli (GPa) = 153.76256 151.02277 168.18309
#
# Poissons Ratio (x) = 0.16536 0.54259
# Poissons Ratio (y) = 0.16836 0.27874
# Poissons Ratio (z) = 0.49606 0.25030
#
# Static dielectric constant tensor:
#      x y z
#    x 2.389590 0.000000 0.021630 
#    y 0.000000 2.411580 0.000000 
#    z 0.021630 0.000000 1.825180 
# 
# From -- ./inp_files/36390.got.cif
#   From: 2010.05.17/outbox.cif.g08.bks.cpg/sg15_19_cif.got.tgz:36390.got - 2010.06.03 18:47:42.
