data_PCOD9299071
_publ_section_title
;
Structure prediction by ZEFSAII (Michael W. Deem and Ramdas Pophale) SiO2 
 PCOD9299071
Probable space group: C 2/C
;
_chemical_formula_sum "Si O2"
_cell_formula_units_Z 52
_cell_length_a 9.908273
_cell_length_b 23.814289
_cell_length_c 12.153963
_cell_angle_alpha 90.000000
_cell_angle_beta 55.434646
_cell_angle_gamma 90.000000
_cell_volume 2361.599950
_symmetry_space_group_name_H-M "C 2/C"
_symmetry_group_IT_number 15
_symmetry_cell_setting 'monoclinic'
loop_
_space_group_symop_operation_xyz
x,y,z
-x,y,1/2-z
-x,-y,-z
x,-y,1/2+z
1/2+x,1/2+y,z
1/2-x,1/2+y,1/2-z
1/2-x,1/2-y,-z
1/2+x,1/2-y,1/2+z
loop_
_atom_site_type_symbol
_atom_site_label
_atom_site_fract_x
_atom_site_fract_y
_atom_site_fract_z
Si Si1 0.000000 0.480376 0.250000
Si Si2 0.976071 0.890696 0.132702
Si Si3 0.000000 0.099267 0.250000
Si Si4 0.731134 0.571789 0.342788
Si Si5 0.715776 0.888727 0.062292
Si Si6 0.430661 0.229806 0.893254
Si Si7 0.065101 0.239128 0.555495
Si Si8 0.000000 0.332186 0.750000
O O1 0.857154 0.521022 0.273569
O O2 0.904873 0.442283 0.383914
O O3 0.015181 0.823816 0.108405
O O4 0.000000 0.906325 0.250000
O O5 0.806945 0.893479 0.139874
O O6 0.104006 0.927911 0.003107
O O7 0.876492 0.072957 0.217643
O O8 0.859776 0.120586 0.404483
O O9 0.842795 0.626946 0.316744
O O10 0.593931 0.836404 0.106614
O O11 0.500000 0.254600 0.750000
O O12 0.250000 0.250000 0.000000
O O13 0.543466 0.250292 0.937918
O O14 0.250000 0.250000 0.500000
O O15 0.973642 0.289065 0.661476
#
# Coordination Sequence:
#
# PCOD9299071 Si02
#       8
#     4   8   4   8   8   8   8   4
#     4  11  26  52  73 106 142 183 253 296 360 414
#     4  11  24  44  70 105 147 190 236 291 362 431
#     4  10  24  46  77 101 141 183 240 298 364 420
#     4  10  24  48  71 103 141 188 239 297 356 427
#     4  11  25  49  73 106 144 187 244 295 356 436
#     4  12  28  44  71 103 147 193 234 289 360 431
#     4  12  25  39  70 105 147 187 238 293 356 430
#     4  11  22  40  70 103 143 184 233 294 350 424
#
# _framework density 22.018971000000001
#
# number of rings (size 3 to 8) (size 9 to 14) (size 15 to 20)
#    0.000    0.923    4.615    0.923    5.385    3.077 
#   11.077    0.000    0.000    0.000    0.000    0.000 
#    0.000    0.000    0.000    0.000    0.000    0.000 
#
# Total GULP energy -145004.572344 kJ/mol
# GULP energy per Si atom -5577.098936 kJ/mol
# Density = 2.196885 g / cm^3
# Si number density = 22.018971 Si / 1000 Ang^3
#
#
#
# Elastic Constant Matrix: (Units=GPa)
#
#
# Indices 1 2 3 4 5 6 
#
# 1 139.5211 19.7663 57.7639 0.0000 23.1811 0.0000
# 2 19.7663 72.8094 25.6512 0.0000 -7.7540 0.0000
# 3 57.7639 25.6512 133.4516 0.0000 25.6797 0.0000
# 4 0.0000 0.0000 0.0000 17.7023 0.0000 -12.7905
# 5 23.1811 -7.7540 25.6797 0.0000 48.8008 0.0000
# 6 0.0000 0.0000 0.0000 -12.7905 0.0000 27.0842
#
#
#
# Elastic Compliance Matrix: (Units=1/GPa)
#
#
# Indices 1 2 3 4 5 6 
#
# 1 0.009183 -0.001738 -0.003058 0.000000 -0.003029 0.000000
# 2 -0.001738 0.015904 -0.003282 0.000000 0.005080 0.000000
# 3 -0.003058 -0.003282 0.010313 0.000000 -0.004496 0.000000
# 4 0.000000 0.000000 0.000000 0.085748 0.000000 0.040494
# 5 -0.003029 0.005080 -0.004496 0.000000 0.025103 0.000000
# 6 0.000000 0.000000 0.000000 0.040494 0.000000 0.056045
#
#
# Mechanical properties :
#
#
# Convention : Reuss Voigt Hill
#
# Bulk Modulus (GPa) = 51.96604 61.34946 56.65775
# Shear Modulus (GPa) = 22.23543 34.89084 28.56313
#
# Velocity S-wave (km/s) = 3.18123 3.98500 3.60558
# Velocity P-wave (km/s) = 6.09471 7.00687 6.56664
#
# Compressibility (1/GPa) = 0.01924334
#
# Stress axis : x y z
#
# Youngs Moduli (GPa) = 108.89806 62.87873 96.96652
#
# Poissons Ratio (x) = 0.10930 0.29650
# Poissons Ratio (y) = 0.18930 0.31824
# Poissons Ratio (z) = 0.33298 0.20636
#
# Static dielectric constant tensor:
#      x y z
#    x 1.782340 0.000000 0.018260 
#    y 0.000000 1.888460 0.000000 
#    z 0.018260 0.000000 1.785870 
# 
# From -- ./inp_files/81206.got.cif
#   From: 2010.05.17/outbox.cif.g08.bks.cpg/sg15_41_cif.got.tgz:81206.got - 2010.06.03 18:47:42.
