data_PCOD9299521
_publ_section_title
;
Structure prediction by ZEFSAII (Michael W. Deem and Ramdas Pophale) SiO2 
 PCOD9299521
Probable space group: C 2/C
;
_chemical_formula_sum "Si O2"
_cell_formula_units_Z 48
_cell_length_a 23.858100
_cell_length_b 10.646789
_cell_length_c 9.507919
_cell_angle_alpha 90.000000
_cell_angle_beta 63.928664
_cell_angle_gamma 90.000000
_cell_volume 2169.381936
_symmetry_space_group_name_H-M "C 2/C"
_symmetry_group_IT_number 15
_symmetry_cell_setting 'monoclinic'
loop_
_space_group_symop_operation_xyz
x,y,z
-x,y,1/2-z
-x,-y,-z
x,-y,1/2+z
1/2+x,1/2+y,z
1/2-x,1/2+y,1/2-z
1/2-x,1/2-y,-z
1/2+x,1/2-y,1/2+z
loop_
_atom_site_type_symbol
_atom_site_label
_atom_site_fract_x
_atom_site_fract_y
_atom_site_fract_z
Si Si1 0.000000 0.273752 0.750000
Si Si2 0.250000 0.250000 0.000000
Si Si3 0.138209 0.075843 0.149606
Si Si4 0.881930 0.377273 0.741380
Si Si5 0.708840 0.338084 0.144086
Si Si6 0.689596 0.002321 0.418401
Si Si7 0.560529 0.551240 0.511980
O O1 0.046939 0.353730 0.794669
O O2 0.043020 0.179994 0.610529
O O3 0.321243 0.302832 0.921527
O O4 0.227191 0.374711 0.927219
O O5 0.112507 0.072982 0.336275
O O6 0.180481 0.951025 0.085517
O O7 0.083161 0.050943 0.100163
O O8 0.848838 0.244061 0.740903
O O9 0.863535 0.466484 0.634200
O O10 0.844609 0.435908 0.914122
O O11 0.757589 0.403149 0.198560
O O12 0.750000 0.250000 0.000000
O O13 0.500000 0.500000 0.500000
#
# Coordination Sequence:
#
# PCOD9299521 Si02
#       7
#     4   4   8   8   8   8   8
#     4  12  26  46  74  98 146 196 244 304 364 430
#     4  10  26  40  66 114 148 180 226 300 366 442
#     4  11  24  43  70 106 146 179 239 295 367 430
#     4  11  24  46  70 100 140 185 241 288 364 430
#     4   9  20  42  67  99 139 180 222 287 362 421
#     4  10  25  42  70 100 143 184 232 295 357 437
#     4  12  23  44  71 103 136 191 244 303 352 425
#
# _framework density 22.126118999999999
#
# number of rings (size 3 to 8) (size 9 to 14) (size 15 to 20)
#    0.000    1.333    3.333    0.000    7.000    8.667 
#    0.000    0.000    0.000    0.000    0.000    0.000 
#    0.000    0.000    0.000    0.000    0.000    0.000 
#
# Total GULP energy -133698.763745 kJ/mol
# GULP energy per Si atom -5570.781823 kJ/mol
# Density = 2.207576 g / cm^3
# Si number density = 22.126119 Si / 1000 Ang^3
#
#
#
# Elastic Constant Matrix: (Units=GPa)
#
#
# Indices 1 2 3 4 5 6 
#
# 1 143.8462 39.1182 27.9113 0.0000 17.6221 0.0000
# 2 39.1182 65.8205 25.6127 0.0000 -0.9980 0.0000
# 3 27.9113 25.6127 83.1415 0.0000 5.9159 0.0000
# 4 0.0000 0.0000 0.0000 22.9810 0.0000 -5.7062
# 5 17.6221 -0.9980 5.9159 0.0000 31.1762 0.0000
# 6 0.0000 0.0000 0.0000 -5.7062 0.0000 53.6328
#
#
#
# Elastic Compliance Matrix: (Units=1/GPa)
#
#
# Indices 1 2 3 4 5 6 
#
# 1 0.009189 -0.005091 -0.001151 0.000000 -0.005139 0.000000
# 2 -0.005091 0.020161 -0.004817 0.000000 0.004437 0.000000
# 3 -0.001151 -0.004817 0.014052 0.000000 -0.002170 0.000000
# 4 0.000000 0.000000 0.000000 0.044695 0.000000 0.004755
# 5 -0.005139 0.004437 -0.002170 0.000000 0.035534 0.000000
# 6 0.000000 0.000000 0.000000 0.004755 0.000000 0.019151
#
#
# Mechanical properties :
#
#
# Convention : Reuss Voigt Hill
#
# Bulk Modulus (GPa) = 46.98494 53.12140 50.05317
# Shear Modulus (GPa) = 29.07041 34.90238 31.98640
#
# Velocity S-wave (km/s) = 3.62864 3.97599 3.80628
# Velocity P-wave (km/s) = 6.23195 6.71853 6.47981
#
# Compressibility (1/GPa) = 0.02128341
#
# Stress axis : x y z
#
# Youngs Moduli (GPa) = 108.82230 49.60176 71.16200
#
# Poissons Ratio (x) = 0.25255 0.08189
# Poissons Ratio (y) = 0.55406 0.34280
# Poissons Ratio (z) = 0.12523 0.23894
#
# Static dielectric constant tensor:
#      x y z
#    x 1.900150 0.000000 0.121360 
#    y 0.000000 1.881670 0.000000 
#    z 0.121360 0.000000 2.025070 
# 
# From -- ./inp_files/60871.got.cif
#   From: 2010.05.17/outbox.cif.g08.bks.cpg/sg15_31_cif.got.tgz:60871.got - 2010.06.03 18:47:42.
