data_PCOD9299555
_publ_section_title
;
Structure prediction by ZEFSAII (Michael W. Deem and Ramdas Pophale) SiO2 
 PCOD9299555
Probable space group: C 2/C
;
_chemical_formula_sum "Si O2"
_cell_formula_units_Z 64
_cell_length_a 11.886860
_cell_length_b 28.214803
_cell_length_c 15.443582
_cell_angle_alpha 90.000000
_cell_angle_beta 146.883300
_cell_angle_gamma 90.000000
_cell_volume 2829.828146
_symmetry_space_group_name_H-M "C 2/C"
_symmetry_group_IT_number 15
_symmetry_cell_setting 'monoclinic'
loop_
_space_group_symop_operation_xyz
x,y,z
-x,y,1/2-z
-x,-y,-z
x,-y,1/2+z
1/2+x,1/2+y,z
1/2-x,1/2+y,1/2-z
1/2-x,1/2-y,-z
1/2+x,1/2-y,1/2+z
loop_
_atom_site_type_symbol
_atom_site_label
_atom_site_fract_x
_atom_site_fract_y
_atom_site_fract_z
Si Si1 0.286769 0.196935 0.058582
Si Si2 0.854267 0.133184 0.382550
Si Si3 0.375092 0.989398 0.047953
Si Si4 0.875788 0.961113 0.975522
Si Si5 0.517685 0.158392 0.481341
Si Si6 0.157090 0.110420 0.432068
Si Si7 0.247473 0.206809 0.432989
Si Si8 0.283815 0.940448 0.329457
O O1 0.500000 0.196836 0.250000
O O2 0.137680 0.170153 0.031983
O O3 0.319498 0.168886 0.989987
O O4 0.250000 0.250000 0.000000
O O5 0.774641 0.082098 0.359971
O O6 0.696597 0.149351 0.207144
O O7 0.060155 0.119528 0.463655
O O8 0.600090 0.970361 0.170519
O O9 0.253970 0.940206 0.980778
O O10 0.303104 0.015998 0.085528
O O11 0.307767 0.024645 0.927090
O O12 0.047591 0.937056 0.149030
O O13 0.000000 0.000000 0.000000
O O14 0.437123 0.204278 0.485517
O O15 0.603675 0.110259 0.582042
O O16 0.295577 0.156373 0.508157
O O17 0.000000 0.112118 0.250000
O O18 0.250000 0.250000 0.500000
O O19 0.000000 0.205943 0.250000
#
# Coordination Sequence:
#
# PCOD9299555 Si02
#       8
#     8   8   8   8   8   8   8   8
#     4  10  25  43  68 100 128 175 223 276 344 415
#     4  11  23  44  65  93 135 176 219 277 341 396
#     4  11  23  42  68  97 139 179 230 269 336 402
#     4  12  26  41  63 100 141 176 225 280 337 392
#     4  11  23  46  70  94 134 179 226 273 347 413
#     4  11  19  40  69  90 130 177 216 270 338 402
#     4  11  24  43  69 100 131 171 221 286 347 409
#     4  11  25  42  68 101 131 185 233 274 331 414
#
# _framework density 22.616215
#
# number of rings (size 3 to 8) (size 9 to 14) (size 15 to 20)
#    0.000    1.000    5.000    1.875    5.250    1.500 
#    2.250    0.000    0.000    0.000    0.000    0.000 
#    0.000    0.000    0.000    0.000    0.000    0.000 
#
# Total GULP energy -178317.294737 kJ/mol
# GULP energy per Si atom -5572.415461 kJ/mol
# Density = 2.256474 g / cm^3
# Si number density = 22.616215 Si / 1000 Ang^3
#
#
#
# Elastic Constant Matrix: (Units=GPa)
#
#
# Indices 1 2 3 4 5 6 
#
# 1 146.2338 44.7504 30.7935 0.0000 -9.2937 0.0000
# 2 44.7504 110.5388 20.3650 -0.0001 -12.6132 0.0000
# 3 30.7935 20.3650 38.0995 0.0001 0.5613 0.0000
# 4 0.0000 -0.0001 0.0001 72.6110 0.0001 -3.7724
# 5 -9.2937 -12.6132 0.5613 0.0001 17.4746 0.0000
# 6 0.0000 0.0000 0.0000 -3.7724 0.0000 58.1737
#
#
#
# Elastic Compliance Matrix: (Units=1/GPa)
#
#
# Indices 1 2 3 4 5 6 
#
# 1 0.009011 -0.002109 -0.006207 0.000000 0.003470 0.000000
# 2 -0.002109 0.011591 -0.004601 0.000000 0.007393 0.000000
# 3 -0.006207 -0.004601 0.033837 0.000000 -0.007709 0.000000
# 4 0.000000 0.000000 0.000000 0.013819 0.000000 0.000896
# 5 0.003470 0.007393 -0.007709 0.000000 0.064655 0.000000
# 6 0.000000 0.000000 0.000000 0.000896 0.000000 0.017248
#
#
# Mechanical properties :
#
#
# Convention : Reuss Voigt Hill
#
# Bulk Modulus (GPa) = 34.95702 54.07666 44.51684
# Shear Modulus (GPa) = 26.94985 42.91608 34.93296
#
# Velocity S-wave (km/s) = 3.45572 4.36085 3.93440
# Velocity P-wave (km/s) = 5.60472 7.02271 6.35340
#
# Compressibility (1/GPa) = 0.02860656
#
# Stress axis : x y z
#
# Youngs Moduli (GPa) = 110.97198 86.27085 29.55365
#
# Poissons Ratio (x) = 0.18191 0.18345
# Poissons Ratio (y) = 0.23399 0.13596
# Poissons Ratio (z) = 0.68884 0.39689
#
# Static dielectric constant tensor:
#      x y z
#    x 1.603730 0.000000 0.034180 
#    y 0.000000 2.966690 0.000000 
#    z 0.034180 0.000000 1.855590 
# 
# From -- ./inp_files/148810.got.cif
#   From: 2010.05.17/outbox.cif.g08.bks.cpg/sg15_75_cif.got.tgz:148810.got - 2010.06.03 18:47:42.
