data_PCOD9299580
_publ_section_title
;
Structure prediction by ZEFSAII (Michael W. Deem and Ramdas Pophale) SiO2 
 PCOD9299580
Probable space group: C 2/C
;
_chemical_formula_sum "Si O2"
_cell_formula_units_Z 44
_cell_length_a 10.638294
_cell_length_b 22.194845
_cell_length_c 8.158783
_cell_angle_alpha 90.000000
_cell_angle_beta 74.317182
_cell_angle_gamma 90.000000
_cell_volume 1854.698507
_symmetry_space_group_name_H-M "C 2/C"
_symmetry_group_IT_number 15
_symmetry_cell_setting 'monoclinic'
loop_
_space_group_symop_operation_xyz
x,y,z
-x,y,1/2-z
-x,-y,-z
x,-y,1/2+z
1/2+x,1/2+y,z
1/2-x,1/2+y,1/2-z
1/2-x,1/2-y,-z
1/2+x,1/2-y,1/2+z
loop_
_atom_site_type_symbol
_atom_site_label
_atom_site_fract_x
_atom_site_fract_y
_atom_site_fract_z
Si Si1 0.841280 0.874542 0.583876
Si Si2 0.121480 0.563475 0.606618
Si Si3 0.500000 0.178065 0.750000
Si Si4 0.757374 0.757068 0.801043
Si Si5 0.248444 0.962953 0.119802
Si Si6 0.000000 0.805445 0.250000
Si Si7 0.000000 0.966837 0.750000
O O1 0.785221 0.823361 0.722375
O O2 0.731531 0.909555 0.516628
O O3 0.940603 0.844994 0.418441
O O4 0.918390 0.923015 0.663291
O O5 0.161343 0.520726 0.446711
O O6 0.235778 0.562131 0.702825
O O7 0.000000 0.536402 0.750000
O O8 0.072232 0.631645 0.599209
O O9 0.386581 0.217704 0.709433
O O10 0.623681 0.732196 0.772091
O O11 0.750000 0.750000 0.000000
O O12 0.105657 0.988771 0.136096
#
# Coordination Sequence:
#
# PCOD9299580 Si02
#       7
#     8   8   4   8   8   4   4
#     4  12  27  44  75 109 152 194 259 313 391 451
#     4  10  25  43  72  99 149 194 247 308 376 457
#     4  10  25  44  73 103 148 191 252 308 396 438
#     4  12  27  51  76 110 151 205 262 325 389 465
#     4  12  24  46  68 113 146 195 253 310 386 457
#     4  12  27  48  77 111 152 201 264 326 384 468
#     4  12  26  44  72 112 150 202 248 322 386 462
#
# _framework density 23.723531999999999
#
# number of rings (size 3 to 8) (size 9 to 14) (size 15 to 20)
#    0.545    0.000    1.818    6.000    7.636    1.455 
#    1.636    0.000    0.000    0.000    0.000    0.000 
#    0.000    0.000    0.000    0.000    0.000    0.000 
#
# Total GULP energy -123044.070095 kJ/mol
# GULP energy per Si atom -5592.912277 kJ/mol
# Density = 2.366954 g / cm^3
# Si number density = 23.723532 Si / 1000 Ang^3
#
#
#
# Elastic Constant Matrix: (Units=GPa)
#
#
# Indices 1 2 3 4 5 6 
#
# 1 109.3025 58.7383 5.7477 0.0000 11.3499 0.0000
# 2 58.7383 136.3329 47.0379 0.0000 9.3193 0.0000
# 3 5.7477 47.0379 82.1320 0.0000 9.9695 0.0000
# 4 0.0000 0.0000 0.0000 30.2721 0.0000 -14.8249
# 5 11.3499 9.3193 9.9695 0.0000 44.7030 0.0000
# 6 0.0000 0.0000 0.0000 -14.8249 0.0000 1.8566
#
#
#
# Elastic Compliance Matrix: (Units=1/GPa)
#
#
# Indices 1 2 3 4 5 6 
#
# 1 0.012658 -0.006331 0.003052 0.000000 -0.002575 0.000000
# 2 -0.006331 0.012333 -0.006684 0.000000 0.000527 0.000000
# 3 0.003052 -0.006684 0.016152 0.000000 -0.002984 0.000000
# 4 0.000000 0.000000 0.000000 -0.011350 0.000000 -0.090631
# 5 -0.002575 0.000527 -0.002984 0.000000 0.023579 0.000000
# 6 0.000000 0.000000 0.000000 -0.090631 0.000000 -0.185066
#
#
# Mechanical properties :
#
#
# Convention : Reuss Voigt Hill
#
# Bulk Modulus (GPa) = 47.12988 61.20169 54.16579
# Shear Modulus (GPa) = -47.75695 29.78256 -8.98720
#
# Velocity S-wave (km/s) = -4.49158 3.54701 -1.94847
# Velocity P-wave (km/s) = 2.64380 6.52908 4.22133
#
# Compressibility (1/GPa) = 0.02121796
#
# Stress axis : x y z
#
# Youngs Moduli (GPa) = 79.00245 81.08573 61.91159
#
# Poissons Ratio (x) = 0.51333 -0.18898
# Poissons Ratio (y) = 0.50014 0.41381
# Poissons Ratio (z) = -0.24115 0.54197
#
# Static dielectric constant tensor:
#      x y z
#    x 1.952150 0.000000 0.012530 
#    y 0.000000 1.893320 0.000000 
#    z 0.012530 0.000000 1.939860 
# 
# From -- ./inp_files/30801.got.cif
#   From: 2010.05.17/outbox.cif.g08.bks.cpg/sg15_16_cif.got.tgz:30801.got - 2010.06.03 18:47:42.
