data_PCOD9299043
_publ_section_title
;
Structure prediction by ZEFSAII (Michael W. Deem and Ramdas Pophale) SiO2 
 PCOD9299043
Probable space group: C 2/C
;
_chemical_formula_sum "Si O2"
_cell_formula_units_Z 52
_cell_length_a 17.260109
_cell_length_b 4.938432
_cell_length_c 26.376195
_cell_angle_alpha 90.000000
_cell_angle_beta 118.403310
_cell_angle_gamma 90.000000
_cell_volume 1977.608831
_symmetry_space_group_name_H-M "C 2/C"
_symmetry_group_IT_number 15
_symmetry_cell_setting 'monoclinic'
loop_
_space_group_symop_operation_xyz
x,y,z
-x,y,1/2-z
-x,-y,-z
x,-y,1/2+z
1/2+x,1/2+y,z
1/2-x,1/2+y,1/2-z
1/2-x,1/2-y,-z
1/2+x,1/2-y,1/2+z
loop_
_atom_site_type_symbol
_atom_site_label
_atom_site_fract_x
_atom_site_fract_y
_atom_site_fract_z
Si Si1 0.182404 0.080103 0.838248
Si Si2 0.000000 0.079723 0.250000
Si Si3 0.401062 0.803830 0.314360
Si Si4 0.185865 0.622843 0.058588
Si Si5 0.749072 0.431791 0.197348
Si Si6 0.342779 0.367476 0.007766
Si Si7 0.475010 0.110080 0.434493
O O1 0.211007 0.923914 0.898234
O O2 0.227756 0.868809 0.813841
O O3 0.080612 0.093040 0.795933
O O4 0.223589 0.369589 0.840409
O O5 0.033543 0.245980 0.211831
O O6 0.324594 0.985518 0.263794
O O7 0.450046 0.917316 0.379391
O O8 0.345091 0.537872 0.313115
O O9 0.157931 0.310780 0.043902
O O10 0.120012 0.740146 0.080898
O O11 0.166498 0.816170 0.005624
O O12 0.250000 0.250000 0.000000
O O13 0.440702 0.288355 0.057561
O O14 0.500000 0.000000 0.500000
#
# Coordination Sequence:
#
# PCOD9299043 Si02
#       7
#     8   4   8   8   8   8   8
#     4  11  24  46  70 103 142 185 237 294 361 425
#     4  10  26  42  68 108 148 180 236 296 378 422
#     4  11  23  47  73 109 147 187 244 302 365 441
#     4  11  23  46  72  98 144 187 240 295 349 435
#     4  11  24  45  71 103 136 192 238 291 355 431
#     4  11  25  46  69 105 143 185 240 291 369 422
#     4  10  24  46  75 107 142 195 248 301 353 434
#
# _framework density 26.294381000000001
#
# number of rings (size 3 to 8) (size 9 to 14) (size 15 to 20)
#    0.000    1.231    1.538    3.692    4.308    2.462 
#    2.769    0.000    0.000    0.000    0.000    0.000 
#    0.000    0.000    0.000    0.000    0.000    0.000 
#
# Total GULP energy -144881.956220 kJ/mol
# GULP energy per Si atom -5572.382932 kJ/mol
# Density = 2.623453 g / cm^3
# Si number density = 26.294381 Si / 1000 Ang^3
#
#
#
# Elastic Constant Matrix: (Units=GPa)
#
#
# Indices 1 2 3 4 5 6 
#
# 1 143.6162 -5.6794 -0.0723 -0.0005 8.9854 0.0005
# 2 -5.6794 67.7665 -9.6176 -0.0013 -1.6967 0.0010
# 3 -0.0723 -9.6176 87.8990 -0.0005 4.6672 0.0003
# 4 -0.0005 -0.0013 -0.0005 39.3111 -0.0001 0.7795
# 5 8.9854 -1.6967 4.6672 -0.0001 52.2141 -0.0001
# 6 0.0005 0.0010 0.0003 0.7795 -0.0001 34.2494
#
#
#
# Elastic Compliance Matrix: (Units=1/GPa)
#
#
# Indices 1 2 3 4 5 6 
#
# 1 0.007062 0.000581 0.000133 0.000000 -0.001208 0.000000
# 2 0.000581 0.015043 0.001634 0.000001 0.000243 0.000000
# 3 0.000133 0.001634 0.011609 0.000000 -0.001008 0.000000
# 4 0.000000 0.000001 0.000000 0.025450 0.000000 -0.000579
# 5 -0.001208 0.000243 -0.001008 0.000000 0.019458 0.000000
# 6 0.000000 0.000000 0.000000 -0.000579 0.000000 0.029211
#
#
# Mechanical properties :
#
#
# Convention : Reuss Voigt Hill
#
# Bulk Modulus (GPa) = 26.03563 29.83810 27.93686
# Shear Modulus (GPa) = 43.12580 46.13164 44.62872
#
# Velocity S-wave (km/s) = 4.05423 4.19314 4.12427
# Velocity P-wave (km/s) = 5.64258 5.90047 5.77297
#
# Compressibility (1/GPa) = 0.03840891
#
# Stress axis : x y z
#
# Youngs Moduli (GPa) = 141.61045 66.47551 86.13976
#
# Poissons Ratio (x) = -0.03859 -0.01150
# Poissons Ratio (y) = -0.08221 -0.14071
# Poissons Ratio (z) = -0.01890 -0.10859
#
# Static dielectric constant tensor:
#      x y z
#    x 2.151890 0.000000 -0.009150 
#    y 0.000000 2.056170 0.000000 
#    z -0.009150 0.000000 2.426170 
# 
# From -- ./inp_files/297842.got.cif
#   From: 2010.05.17/outbox.cif.g08.bks.cpg/sg15_149_cif.got.tgz:297842.got - 2010.06.03 18:47:42.
