data_PCOD9299693
_publ_section_title
;
Structure prediction by ZEFSAII (Michael W. Deem and Ramdas Pophale) SiO2 
 PCOD9299693
Probable space group: C 2/C
;
_chemical_formula_sum "Si O2"
_cell_formula_units_Z 64
_cell_length_a 17.442118
_cell_length_b 7.554061
_cell_length_c 28.336840
_cell_angle_alpha 90.000000
_cell_angle_beta 48.646405
_cell_angle_gamma 90.000000
_cell_volume 2802.635064
_symmetry_space_group_name_H-M "C 2/C"
_symmetry_group_IT_number 15
_symmetry_cell_setting 'monoclinic'
loop_
_space_group_symop_operation_xyz
x,y,z
-x,y,1/2-z
-x,-y,-z
x,-y,1/2+z
1/2+x,1/2+y,z
1/2-x,1/2+y,1/2-z
1/2-x,1/2-y,-z
1/2+x,1/2-y,1/2+z
loop_
_atom_site_type_symbol
_atom_site_label
_atom_site_fract_x
_atom_site_fract_y
_atom_site_fract_z
Si Si1 0.889451 0.230205 0.250587
Si Si2 0.320016 0.159220 0.216475
Si Si3 0.281171 0.432996 0.403028
Si Si4 0.712092 0.846813 0.122625
Si Si5 0.014448 0.144822 0.793992
Si Si6 0.042560 0.352990 0.373000
Si Si7 0.685453 0.933661 0.030243
Si Si8 0.195169 0.857350 0.864399
O O1 0.775528 0.230608 0.274271
O O2 0.880174 0.338775 0.302178
O O3 0.921525 0.029265 0.246937
O O4 0.963846 0.294226 0.179059
O O5 0.417954 0.273173 0.191919
O O6 0.368488 0.999906 0.166830
O O7 0.269481 0.125186 0.288526
O O8 0.264035 0.639563 0.395258
O O9 0.402038 0.401022 0.357334
O O10 0.233425 0.426948 0.474771
O O11 0.234525 0.296222 0.384046
O O12 0.686856 0.957495 0.085974
O O13 0.802543 0.956859 0.109906
O O14 0.000000 0.247920 0.750000
O O15 0.087145 0.197453 0.386767
O O16 0.932806 0.411066 0.434967
O O17 0.750000 0.750000 0.000000
#
# Coordination Sequence:
#
# PCOD9299693 Si02
#       8
#     8   8   8   8   8   8   8   8
#     4  11  21  40  65  98 142 171 223 294 356 420
#     4  11  23  40  64 106 137 172 224 292 363 424
#     4  11  24  47  67  97 147 176 240 296 340 420
#     4  11  22  43  69  96 134 186 222 290 351 412
#     4  12  23  39  71 101 136 187 226 293 369 416
#     4  11  24  41  67 101 137 181 230 291 357 425
#     4  10  25  45  68  95 138 191 241 289 343 424
#     4  11  24  43  70 103 140 176 231 292 359 431
#
# _framework density 22.835650999999999
#
# number of rings (size 3 to 8) (size 9 to 14) (size 15 to 20)
#    0.000    1.000    3.750    3.750    3.500    1.000 
#    0.000    2.500    0.000    0.000    0.000    0.000 
#    0.000    0.000    0.000    0.000    0.000    0.000 
#
# Total GULP energy -178799.160024 kJ/mol
# GULP energy per Si atom -5587.473751 kJ/mol
# Density = 2.278368 g / cm^3
# Si number density = 22.835651 Si / 1000 Ang^3
#
#
#
# Elastic Constant Matrix: (Units=GPa)
#
#
# Indices 1 2 3 4 5 6 
#
# 1 115.2025 25.8477 38.3421 0.0008 0.8390 -0.0009
# 2 25.8477 65.2855 13.2633 -0.0009 3.3915 0.0075
# 3 38.3421 13.2633 55.7985 -0.0022 -12.8228 0.0007
# 4 0.0008 -0.0009 -0.0022 8.5434 0.0006 3.3355
# 5 0.8390 3.3915 -12.8228 0.0006 28.8317 -0.0006
# 6 -0.0009 0.0075 0.0007 3.3355 -0.0006 31.0753
#
#
#
# Elastic Compliance Matrix: (Units=1/GPa)
#
#
# Indices 1 2 3 4 5 6 
#
# 1 0.012215 -0.002892 -0.008587 -0.000004 -0.003834 0.000002
# 2 -0.002892 0.017205 -0.002838 0.000003 -0.003202 -0.000005
# 3 -0.008587 -0.002838 0.027435 0.000007 0.012785 -0.000001
# 4 -0.000004 0.000003 0.000007 0.122168 0.000000 -0.013113
# 5 -0.003834 -0.003202 0.012785 0.000000 0.040859 0.000001
# 6 0.000002 -0.000005 -0.000001 -0.013113 0.000001 0.033587
#
#
# Mechanical properties :
#
#
# Convention : Reuss Voigt Hill
#
# Bulk Modulus (GPa) = 35.43555 43.46585 39.45070
# Shear Modulus (GPa) = 17.15190 24.27898 20.71544
#
# Velocity S-wave (km/s) = 2.74360 3.26422 3.01517
# Velocity P-wave (km/s) = 5.05843 5.76909 5.42541
#
# Compressibility (1/GPa) = 0.02822025
#
# Stress axis : x y z
#
# Youngs Moduli (GPa) = 81.86395 58.12128 36.44941
#
# Poissons Ratio (x) = 0.16811 0.31301
# Poissons Ratio (y) = 0.23679 0.10344
# Poissons Ratio (z) = 0.70301 0.16495
#
# Static dielectric constant tensor:
#      x y z
#    x 1.898820 0.000000 0.057530 
#    y 0.000000 1.939500 0.000000 
#    z 0.057530 0.000000 1.848710 
# 
# From -- ./inp_files/315689.got.cif
#   From: 2010.05.17/outbox.cif.g08.bks.cpg/sg15_158_cif.got.tgz:315689.got - 2010.06.03 18:47:42.
