data_PCOD9299880
_publ_section_title
;
Structure prediction by ZEFSAII (Michael W. Deem and Ramdas Pophale) SiO2 
 PCOD9299880
Probable space group: C 2/C
;
_chemical_formula_sum "Si O2"
_cell_formula_units_Z 36
_cell_length_a 27.992626
_cell_length_b 5.022436
_cell_length_c 13.633893
_cell_angle_alpha 90.000000
_cell_angle_beta 50.381320
_cell_angle_gamma 90.000000
_cell_volume 1476.525214
_symmetry_space_group_name_H-M "C 2/C"
_symmetry_group_IT_number 15
_symmetry_cell_setting 'monoclinic'
loop_
_space_group_symop_operation_xyz
x,y,z
-x,y,1/2-z
-x,-y,-z
x,-y,1/2+z
1/2+x,1/2+y,z
1/2-x,1/2+y,1/2-z
1/2-x,1/2-y,-z
1/2+x,1/2-y,1/2+z
loop_
_atom_site_type_symbol
_atom_site_label
_atom_site_fract_x
_atom_site_fract_y
_atom_site_fract_z
Si Si1 0.185032 0.580507 0.921961
Si Si2 0.015172 0.251470 0.412540
Si Si3 0.500000 0.493776 0.250000
Si Si4 0.106032 0.354962 0.714765
Si Si5 0.330121 0.416859 0.185814
O O1 0.259508 0.595125 0.818424
O O2 0.166806 0.292500 0.906516
O O3 0.158791 0.796290 0.877863
O O4 0.159502 0.625047 0.063808
O O5 0.080609 0.354709 0.280978
O O6 0.000000 0.500000 0.500000
O O7 0.000000 0.000000 0.500000
O O8 0.975395 0.186260 0.367781
O O9 0.449611 0.305729 0.264934
O O10 0.127759 0.191753 0.781624
#
# Coordination Sequence:
#
# PCOD9299880 Si02
#       5
#     8   8   4   8   8
#     4  10  25  48  76 112 151 187 259 313 392 457
#     4  12  29  50  71 105 150 198 255 312 373 445
#     4  12  30  50  70 116 146 206 262 312 368 466
#     4  12  28  47  79 107 152 207 254 314 388 455
#     4  10  25  47  76 113 147 197 246 326 382 461
#
# _framework density 24.381567
#
# number of rings (size 3 to 8) (size 9 to 14) (size 15 to 20)
#    0.000    0.889    2.222    1.333   12.444    0.000 
#    0.000    6.667    0.000    0.000    0.000    0.000 
#    0.000    0.000    0.000    0.000    0.000    0.000 
#
# Total GULP energy -100783.699743 kJ/mol
# GULP energy per Si atom -5599.094430 kJ/mol
# Density = 2.432607 g / cm^3
# Si number density = 24.381567 Si / 1000 Ang^3
#
#
#
# Elastic Constant Matrix: (Units=GPa)
#
#
# Indices 1 2 3 4 5 6 
#
# 1 96.8428 19.0284 12.8095 0.0004 12.6593 -0.0103
# 2 19.0284 142.1578 32.5943 0.0097 -1.4625 0.0098
# 3 12.8095 32.5943 147.3573 0.0006 4.5369 0.0034
# 4 0.0004 0.0097 0.0006 49.2123 -0.0006 7.6552
# 5 12.6593 -1.4625 4.5369 -0.0006 41.8484 -0.0031
# 6 -0.0103 0.0098 0.0034 7.6552 -0.0031 26.3224
#
#
#
# Elastic Compliance Matrix: (Units=1/GPa)
#
#
# Indices 1 2 3 4 5 6 
#
# 1 0.011111 -0.001395 -0.000554 -0.000001 -0.003350 0.000005
# 2 -0.001395 0.007593 -0.001585 -0.000001 0.000859 -0.000003
# 3 -0.000554 -0.001585 0.007206 0.000000 -0.000669 -0.000001
# 4 -0.000001 -0.000001 0.000000 0.021283 0.000000 -0.006190
# 5 -0.003350 0.000859 -0.000669 0.000000 0.025012 0.000001
# 6 0.000005 -0.000003 -0.000001 -0.006190 0.000001 0.039791
#
#
# Mechanical properties :
#
#
# Convention : Reuss Voigt Hill
#
# Bulk Modulus (GPa) = 53.07101 57.24693 55.15897
# Shear Modulus (GPa) = 39.89034 44.93833 42.41434
#
# Velocity S-wave (km/s) = 4.04924 4.29782 4.17538
# Velocity P-wave (km/s) = 6.60878 6.93966 6.77624
#
# Compressibility (1/GPa) = 0.01884268
#
# Stress axis : x y z
#
# Youngs Moduli (GPa) = 89.99881 131.69465 138.78199
#
# Poissons Ratio (x) = 0.18367 0.07692
# Poissons Ratio (y) = 0.12552 0.21994
# Poissons Ratio (z) = 0.04988 0.20871
#
# Static dielectric constant tensor:
#      x y z
#    x 2.027560 0.000010 -0.141120 
#    y 0.000010 1.986190 0.000000 
#    z -0.141120 0.000000 2.068000 
# 
# From -- ./inp_files/124699.got.cif
#   From: 2010.05.17/outbox.cif.g08.bks.cpg/sg15_63_cif.got.tgz:124699.got - 2010.06.03 18:47:42.
