data_PCOD9299057
_publ_section_title
;
Structure prediction by ZEFSAII (Michael W. Deem and Ramdas Pophale) SiO2 
 PCOD9299057
Probable space group: C 2/C
;
_chemical_formula_sum "Si O2"
_cell_formula_units_Z 48
_cell_length_a 23.383801
_cell_length_b 11.929241
_cell_length_c 8.592060
_cell_angle_alpha 90.000000
_cell_angle_beta 121.322725
_cell_angle_gamma 90.000000
_cell_volume 2047.441889
_symmetry_space_group_name_H-M "C 2/C"
_symmetry_group_IT_number 15
_symmetry_cell_setting 'monoclinic'
loop_
_space_group_symop_operation_xyz
x,y,z
-x,y,1/2-z
-x,-y,-z
x,-y,1/2+z
1/2+x,1/2+y,z
1/2-x,1/2+y,1/2-z
1/2-x,1/2-y,-z
1/2+x,1/2-y,1/2+z
loop_
_atom_site_type_symbol
_atom_site_label
_atom_site_fract_x
_atom_site_fract_y
_atom_site_fract_z
Si Si1 0.750000 0.750000 0.000000
Si Si2 0.610945 0.407285 0.085417
Si Si3 0.000000 0.234974 0.250000
Si Si4 0.605167 0.089407 0.788638
Si Si5 0.787788 0.729227 0.393160
Si Si6 0.422216 0.628302 0.615314
Si Si7 0.874140 0.626970 0.029973
O O1 0.747319 0.704186 0.179748
O O2 0.807732 0.656450 0.033855
O O3 0.545567 0.344082 0.923819
O O4 0.605647 0.538295 0.044662
O O5 0.672349 0.343266 0.094032
O O6 0.616330 0.388059 0.276281
O O7 0.046613 0.318323 0.216747
O O8 0.636356 0.086969 0.661412
O O9 0.585263 0.966175 0.816405
O O10 0.659004 0.133465 0.990279
O O11 0.750000 0.750000 0.500000
O O12 0.500000 0.601211 0.750000
O O13 0.413838 0.757170 0.566267
#
# Coordination Sequence:
#
# PCOD9299057 Si02
#       7
#     4   8   4   8   8   8   8
#     4  12  24  50  70 106 144 188 256 306 358 444
#     4  11  25  45  71 110 145 193 242 307 372 440
#     4  10  24  46  76 104 152 190 244 306 374 444
#     4  11  26  47  75 109 153 196 246 308 375 444
#     4  11  24  48  76 105 144 195 250 306 370 436
#     4  12  26  44  74 110 151 191 246 303 370 450
#     4  12  27  46  74 109 148 200 248 305 375 440
#
# _framework density 23.443888999999999
#
# number of rings (size 3 to 8) (size 9 to 14) (size 15 to 20)
#    0.000    0.667    4.167    2.500    8.167    2.000 
#    3.000    0.000    0.000    0.000    0.000    0.000 
#    0.000    0.000    0.000    0.000    0.000    0.000 
#
# Total GULP energy -133841.169413 kJ/mol
# GULP energy per Si atom -5576.715392 kJ/mol
# Density = 2.339053 g / cm^3
# Si number density = 23.443889 Si / 1000 Ang^3
#
#
#
# Elastic Constant Matrix: (Units=GPa)
#
#
# Indices 1 2 3 4 5 6 
#
# 1 74.1206 10.7666 21.8078 0.0000 -27.7716 0.0000
# 2 10.7666 146.7650 24.6265 0.0000 -9.5591 0.0000
# 3 21.8078 24.6265 100.2023 0.0000 -37.5874 0.0000
# 4 0.0000 0.0000 0.0000 26.2900 0.0000 -13.0151
# 5 -27.7716 -9.5591 -37.5874 0.0000 40.2284 0.0000
# 6 0.0000 0.0000 0.0000 -13.0151 0.0000 15.3222
#
#
#
# Elastic Compliance Matrix: (Units=1/GPa)
#
#
# Indices 1 2 3 4 5 6 
#
# 1 0.018350 -0.000674 0.001330 0.000000 0.013751 0.000000
# 2 -0.000674 0.007132 -0.001763 0.000000 -0.000417 0.000000
# 3 0.001330 -0.001763 0.015875 0.000000 0.015332 0.000000
# 4 0.000000 0.000000 0.000000 0.065640 0.000000 0.055757
# 5 0.013751 -0.000417 0.015332 0.000000 0.048577 0.000000
# 6 0.000000 0.000000 0.000000 0.055757 0.000000 0.112626
#
#
# Mechanical properties :
#
#
# Convention : Reuss Voigt Hill
#
# Bulk Modulus (GPa) = 25.54691 48.38776 36.96734
# Shear Modulus (GPa) = 17.63913 33.96058 25.79985
#
# Velocity S-wave (km/s) = 2.74596 3.81016 3.32097
# Velocity P-wave (km/s) = 4.57979 6.32780 5.52338
#
# Compressibility (1/GPa) = 0.03914368
#
# Stress axis : x y z
#
# Youngs Moduli (GPa) = 54.49534 140.22064 62.99283
#
# Poissons Ratio (x) = 0.09447 -0.08378
# Poissons Ratio (y) = 0.03671 0.11104
# Poissons Ratio (z) = -0.07248 0.24717
#
# Static dielectric constant tensor:
#      x y z
#    x 1.972720 0.000000 0.075370 
#    y 0.000000 1.893500 0.000000 
#    z 0.075370 0.000000 1.824900 
# 
# From -- ./inp_files/60915.got.cif
#   From: 2010.05.17/outbox.cif.g08.bks.cpg/sg15_31_cif.got.tgz:60915.got - 2010.06.03 18:47:42.
