data_PCOD9299431
_publ_section_title
;
Structure prediction by ZEFSAII (Michael W. Deem and Ramdas Pophale) SiO2 
 PCOD9299431
Probable space group: C 2/C
;
_chemical_formula_sum "Si O2"
_cell_formula_units_Z 40
_cell_length_a 10.724776
_cell_length_b 18.749154
_cell_length_c 9.206147
_cell_angle_alpha 90.000000
_cell_angle_beta 55.551212
_cell_angle_gamma 90.000000
_cell_volume 1526.539549
_symmetry_space_group_name_H-M "C 2/C"
_symmetry_group_IT_number 15
_symmetry_cell_setting 'monoclinic'
loop_
_space_group_symop_operation_xyz
x,y,z
-x,y,1/2-z
-x,-y,-z
x,-y,1/2+z
1/2+x,1/2+y,z
1/2-x,1/2+y,1/2-z
1/2-x,1/2-y,-z
1/2+x,1/2-y,1/2+z
loop_
_atom_site_type_symbol
_atom_site_label
_atom_site_fract_x
_atom_site_fract_y
_atom_site_fract_z
Si Si1 0.170226 0.351573 0.120077
Si Si2 0.154199 0.540738 0.861882
Si Si3 0.647745 0.593992 0.250236
Si Si4 0.123294 0.688880 0.043978
Si Si5 0.022749 0.819295 0.411389
O O1 0.156766 0.431496 0.195128
O O2 0.000000 0.323024 0.250000
O O3 0.229559 0.358152 0.916547
O O4 0.309198 0.323714 0.129381
O O5 0.289300 0.485353 0.785976
O O6 0.000000 0.500000 0.000000
O O7 0.500000 0.596411 0.250000
O O8 0.591784 0.624668 0.439870
O O9 0.000000 0.673164 0.250000
O O10 0.029214 0.741356 0.003510
O O11 0.250000 0.750000 0.000000
O O12 0.166176 0.612298 0.951771
O O13 0.000000 0.826237 0.250000
#
# Coordination Sequence:
#
# PCOD9299431 Si02
#       5
#     8   8   8   8   8
#     4  11  24  47  75 119 157 211 262 330 421 493
#     4  12  26  43  76 115 165 206 274 334 419 491
#     4  10  25  48  82 115 160 213 267 343 419 494
#     4  11  27  48  80 114 159 218 279 344 413 498
#     4  10  24  52  81 119 156 216 285 338 406 500
#
# _framework density 26.203054999999999
#
# number of rings (size 3 to 8) (size 9 to 14) (size 15 to 20)
#    0.000    1.200    2.000    2.400    5.600    8.000 
#    0.000    6.000    0.000    0.000    0.000    0.000 
#    0.000    0.000    0.000    0.000    0.000    0.000 
#
# Total GULP energy -111724.835321 kJ/mol
# GULP energy per Si atom -5586.241766 kJ/mol
# Density = 2.614342 g / cm^3
# Si number density = 26.203055 Si / 1000 Ang^3
#
#
#
# Elastic Constant Matrix: (Units=GPa)
#
#
# Indices 1 2 3 4 5 6 
#
# 1 134.9300 79.4262 91.0959 0.0000 -14.7165 0.0000
# 2 79.4262 179.9984 88.4742 0.0000 -6.2201 0.0000
# 3 91.0959 88.4742 198.3481 0.0000 -4.1127 0.0000
# 4 0.0000 0.0000 0.0000 61.8440 0.0000 -2.2779
# 5 -14.7165 -6.2201 -4.1127 0.0000 50.9776 0.0000
# 6 0.0000 0.0000 0.0000 -2.2779 0.0000 41.6507
#
#
#
# Elastic Compliance Matrix: (Units=1/GPa)
#
#
# Indices 1 2 3 4 5 6 
#
# 1 0.012543 -0.003373 -0.004197 0.000000 0.002871 0.000000
# 2 -0.003373 0.008042 -0.002041 0.000000 -0.000157 0.000000
# 3 -0.004197 -0.002041 0.007863 0.000000 -0.000826 0.000000
# 4 0.000000 0.000000 0.000000 0.016202 0.000000 0.000886
# 5 0.002871 -0.000157 -0.000826 0.000000 0.020359 0.000000
# 6 0.000000 0.000000 0.000000 0.000886 0.000000 0.024058
#
#
# Mechanical properties :
#
#
# Convention : Reuss Voigt Hill
#
# Bulk Modulus (GPa) = 108.39222 114.58546 111.48884
# Shear Modulus (GPa) = 44.89790 47.84647 46.37218
#
# Velocity S-wave (km/s) = 4.14389 4.27779 4.21137
# Velocity P-wave (km/s) = 8.02196 8.25979 8.14174
#
# Compressibility (1/GPa) = 0.00922575
#
# Stress axis : x y z
#
# Youngs Moduli (GPa) = 79.72504 124.35003 127.18577
#
# Poissons Ratio (x) = 0.41940 0.53377
# Poissons Ratio (y) = 0.26889 0.25963
# Poissons Ratio (z) = 0.33459 0.25384
#
# Static dielectric constant tensor:
#      x y z
#    x 2.199610 0.000000 -0.053230 
#    y 0.000000 2.014060 0.000000 
#    z -0.053230 0.000000 2.236720 
# 
# From -- ./inp_files/90574.got.cif
#   From: 2010.05.17/outbox.cif.g08.bks.cpg/sg15_46_cif.got.tgz:90574.got - 2010.06.03 18:47:42.
