data_PCOD9299554
_publ_section_title
;
Structure prediction by ZEFSAII (Michael W. Deem and Ramdas Pophale) SiO2 
 PCOD9299554
Probable space group: C 2/C
;
_chemical_formula_sum "Si O2"
_cell_formula_units_Z 48
_cell_length_a 9.366474
_cell_length_b 21.987440
_cell_length_c 10.893719
_cell_angle_alpha 90.000000
_cell_angle_beta 88.629831
_cell_angle_gamma 90.000000
_cell_volume 2242.863144
_symmetry_space_group_name_H-M "C 2/C"
_symmetry_group_IT_number 15
_symmetry_cell_setting 'monoclinic'
loop_
_space_group_symop_operation_xyz
x,y,z
-x,y,1/2-z
-x,-y,-z
x,-y,1/2+z
1/2+x,1/2+y,z
1/2-x,1/2+y,1/2-z
1/2-x,1/2-y,-z
1/2+x,1/2-y,1/2+z
loop_
_atom_site_type_symbol
_atom_site_label
_atom_site_fract_x
_atom_site_fract_y
_atom_site_fract_z
Si Si1 0.972458 0.308186 0.395407
Si Si2 0.089622 0.499235 0.624012
Si Si3 0.543380 0.537660 0.622844
Si Si4 0.222019 0.391941 0.505942
Si Si5 0.502847 0.329313 0.605139
Si Si6 0.205131 0.888946 0.436430
O O1 0.093289 0.351530 0.454283
O O2 0.976800 0.239396 0.444386
O O3 0.000000 0.307804 0.250000
O O4 0.814527 0.335170 0.411569
O O5 0.164111 0.433715 0.617595
O O6 0.203993 0.551650 0.597053
O O7 0.000000 0.508849 0.750000
O O8 0.000000 0.500000 0.500000
O O9 0.500000 0.503630 0.750000
O O10 0.500000 0.500000 0.500000
O O11 0.703815 0.562056 0.595847
O O12 0.440238 0.596908 0.632748
O O13 0.354012 0.353275 0.553897
O O14 0.500000 0.325794 0.750000
O O15 0.634182 0.373720 0.568311
#
# Coordination Sequence:
#
# PCOD9299554 Si02
#       6
#     8   8   8   8   8   8
#     4  11  22  43  69  95 134 176 230 280 334 395
#     4  12  27  42  67 103 139 176 219 276 342 408
#     4  11  24  39  62  95 135 176 219 266 332 400
#     4  11  24  42  66  99 134 176 224 275 334 402
#     4  10  25  43  67  98 132 180 226 282 335 394
#     4  11  23  42  65  95 133 175 223 272 336 401
#
# _framework density 21.401215000000001
#
# number of rings (size 3 to 8) (size 9 to 14) (size 15 to 20)
#    0.000    1.000    3.333    2.500    4.667    2.667 
#    0.000    0.000    0.000    8.000    0.000    0.000 
#    0.000    0.000    0.000    0.000    0.000    0.000 
#
# Total GULP energy -133855.797704 kJ/mol
# GULP energy per Si atom -5577.324904 kJ/mol
# Density = 2.135251 g / cm^3
# Si number density = 21.401215 Si / 1000 Ang^3
#
#
#
# Elastic Constant Matrix: (Units=GPa)
#
#
# Indices 1 2 3 4 5 6 
#
# 1 100.7987 42.5448 49.8483 0.0000 -23.9127 0.0000
# 2 42.5448 117.7358 44.7812 0.0000 -12.1061 0.0000
# 3 49.8483 44.7812 124.7632 0.0000 -15.2493 0.0000
# 4 0.0000 0.0000 0.0000 117.9156 0.0000 -519.7441
# 5 -23.9127 -12.1061 -15.2493 0.0000 29.6597 0.0000
# 6 0.0000 0.0000 0.0000 -519.7441 0.0000 2904.1976
#
#
#
# Elastic Compliance Matrix: (Units=1/GPa)
#
#
# Indices 1 2 3 4 5 6 
#
# 1 0.015314 -0.003122 -0.003889 0.000000 0.009073 0.000000
# 2 -0.003122 0.010628 -0.002502 0.000000 0.000535 0.000000
# 3 -0.003889 -0.002502 0.010627 0.000000 0.001307 0.000000
# 4 0.000000 0.000000 0.000000 0.040160 0.000000 0.007187
# 5 0.009073 0.000535 0.001307 0.000000 0.041921 0.000000
# 6 0.000000 0.000000 0.000000 0.007187 0.000000 0.001631
#
#
# Mechanical properties :
#
#
# Convention : Reuss Voigt Hill
#
# Bulk Modulus (GPa) = 57.00225 68.62737 62.81481
# Shear Modulus (GPa) = 34.44606 624.09615 329.27110
#
# Velocity S-wave (km/s) = 4.01626 17.09533 12.41734
# Velocity P-wave (km/s) = 6.94262 20.53786 15.32977
#
# Compressibility (1/GPa) = 0.01754317
#
# Stress axis : x y z
#
# Youngs Moduli (GPa) = 65.29926 94.08791 94.10034
#
# Poissons Ratio (x) = 0.29371 0.36598
# Poissons Ratio (y) = 0.20384 0.23546
# Poissons Ratio (z) = 0.25396 0.23543
#
# Static dielectric constant tensor:
#      x y z
#    x 1.806990 0.000000 -0.011880 
#    y 0.000000 1.852380 0.000000 
#    z -0.011880 0.000000 1.854080 
# 
# From -- ./inp_files/79796.got.cif
#   From: 2010.05.17/outbox.cif.g08.bks.cpg/sg15_40_cif.got.tgz:79796.got - 2010.06.03 18:47:42.
