data_PCOD9299534
_publ_section_title
;
Structure prediction by ZEFSAII (Michael W. Deem and Ramdas Pophale) SiO2 
 PCOD9299534
Probable space group: C 2/C
;
_chemical_formula_sum "Si O2"
_cell_formula_units_Z 24
_cell_length_a 7.235435
_cell_length_b 24.999394
_cell_length_c 5.174854
_cell_angle_alpha 90.000000
_cell_angle_beta 89.326120
_cell_angle_gamma 90.000000
_cell_volume 935.970563
_symmetry_space_group_name_H-M "C 2/C"
_symmetry_group_IT_number 15
_symmetry_cell_setting 'monoclinic'
loop_
_space_group_symop_operation_xyz
x,y,z
-x,y,1/2-z
-x,-y,-z
x,-y,1/2+z
1/2+x,1/2+y,z
1/2-x,1/2+y,1/2-z
1/2-x,1/2-y,-z
1/2+x,1/2-y,1/2+z
loop_
_atom_site_type_symbol
_atom_site_label
_atom_site_fract_x
_atom_site_fract_y
_atom_site_fract_z
Si Si1 0.254930 0.536854 0.506590
Si Si2 0.000000 0.115082 0.250000
Si Si3 0.811696 0.191945 0.590317
Si Si4 0.500000 0.117941 0.750000
O O1 0.248409 0.500145 0.256067
O O2 0.441799 0.572672 0.474036
O O3 0.080426 0.577087 0.535131
O O4 0.841363 0.157668 0.326760
O O5 0.750000 0.250000 0.500000
O O6 0.670010 0.158873 0.772377
O O7 0.000000 0.194778 0.750000
#
# Coordination Sequence:
#
# PCOD9299534 Si02
#       4
#     8   4   8   4
#     4  11  24  45  74 113 157 207 256 310 380 466
#     4  10  25  42  74 112 150 208 247 324 378 464
#     4  11  26  50  77 113 152 200 260 327 393 463
#     4  10  25  46  74 114 152 208 251 320 382 466
#
# _framework density 25.641835
#
# number of rings (size 3 to 8) (size 9 to 14) (size 15 to 20)
#    0.000    1.333    0.000    3.000    9.333    5.333 
#   12.000    0.000    0.000    0.000    0.000    0.000 
#    0.000    0.000    0.000    0.000    0.000    0.000 
#
# Total GULP energy -66863.904086 kJ/mol
# GULP energy per Si atom -5571.992007 kJ/mol
# Density = 2.558347 g / cm^3
# Si number density = 25.641835 Si / 1000 Ang^3
#
#
#
# Elastic Constant Matrix: (Units=GPa)
#
#
# Indices 1 2 3 4 5 6 
#
# 1 151.2773 96.6619 84.6925 0.0000 -19.6184 0.0000
# 2 96.6619 248.4763 120.9697 0.0000 -17.4115 0.0000
# 3 84.6925 120.9697 197.1609 0.0000 -15.2187 0.0000
# 4 0.0000 0.0000 0.0000 0.2401 0.0000 -36.2209
# 5 -19.6184 -17.4115 -15.2187 0.0000 43.1692 0.0000
# 6 0.0000 0.0000 0.0000 -36.2209 0.0000 45.6249
#
#
#
# Elastic Compliance Matrix: (Units=1/GPa)
#
#
# Indices 1 2 3 4 5 6 
#
# 1 0.009948 -0.002430 -0.002579 0.000000 0.002632 0.000000
# 2 -0.002430 0.006384 -0.002837 0.000000 0.000470 0.000000
# 3 -0.002579 -0.002837 0.007958 0.000000 0.000489 0.000000
# 4 0.000000 0.000000 0.000000 -0.035069 0.000000 -0.027841
# 5 0.002632 0.000470 0.000489 0.000000 0.024723 0.000000
# 6 0.000000 0.000000 0.000000 -0.027841 0.000000 -0.000185
#
#
# Mechanical properties :
#
#
# Convention : Reuss Voigt Hill
#
# Bulk Modulus (GPa) = 116.30103 133.50696 124.90400
# Shear Modulus (GPa) = 154.71256 37.44620 96.07938
#
# Velocity S-wave (km/s) = 7.77605 3.82561 6.12790
# Velocity P-wave (km/s) = 11.22840 8.46716 9.94409
#
# Compressibility (1/GPa) = 0.00859838
#
# Stress axis : x y z
#
# Youngs Moduli (GPa) = 100.51872 156.64546 125.65539
#
# Poissons Ratio (x) = 0.38064 0.32411
# Poissons Ratio (y) = 0.24425 0.35645
# Poissons Ratio (z) = 0.25928 0.44436
#
# Static dielectric constant tensor:
#      x y z
#    x 2.010420 0.000000 -0.005530 
#    y 0.000000 2.000100 0.000000 
#    z -0.005530 0.000000 1.993270 
# 
# From -- ./inp_files/1595.got.cif
#   From: 2010.05.17/outbox.cif.g08.bks.cpg/sg15_1_cif.got.tgz:1595.got - 2010.06.03 18:47:42.
