data_PCOD9299490
_publ_section_title
;
Structure prediction by ZEFSAII (Michael W. Deem and Ramdas Pophale) SiO2 
 PCOD9299490
Probable space group: C 2/C
;
_chemical_formula_sum "Si O2"
_cell_formula_units_Z 60
_cell_length_a 12.083359
_cell_length_b 14.515933
_cell_length_c 16.547955
_cell_angle_alpha 90.000000
_cell_angle_beta 98.268231
_cell_angle_gamma 90.000000
_cell_volume 2872.361809
_symmetry_space_group_name_H-M "C 2/C"
_symmetry_group_IT_number 15
_symmetry_cell_setting 'monoclinic'
loop_
_space_group_symop_operation_xyz
x,y,z
-x,y,1/2-z
-x,-y,-z
x,-y,1/2+z
1/2+x,1/2+y,z
1/2-x,1/2+y,1/2-z
1/2-x,1/2-y,-z
1/2+x,1/2-y,1/2+z
loop_
_atom_site_type_symbol
_atom_site_label
_atom_site_fract_x
_atom_site_fract_y
_atom_site_fract_z
Si Si1 0.500000 0.236811 0.750000
Si Si2 0.143968 0.316510 0.508915
Si Si3 0.157658 0.949285 0.186544
Si Si4 0.581657 0.991294 0.586081
Si Si5 0.501380 0.653780 0.955561
Si Si6 0.393416 0.923980 0.162131
Si Si7 0.685848 0.426749 0.369791
Si Si8 0.981550 0.906382 0.632330
O O1 0.596439 0.159875 0.772062
O O2 0.482235 0.306024 0.673194
O O3 0.250000 0.250000 0.500000
O O4 0.143135 0.392688 0.580382
O O5 0.039093 0.253616 0.521800
O O6 0.126708 0.371984 0.424596
O O7 0.095130 0.887322 0.113206
O O8 0.281312 0.977079 0.172261
O O9 0.164725 0.901790 0.274299
O O10 0.081112 0.038797 0.185684
O O11 0.500000 0.000000 0.500000
O O12 0.502022 0.012803 0.654791
O O13 0.683699 0.063506 0.597234
O O14 0.616751 0.640781 0.920325
O O15 0.507315 0.599927 0.040366
O O16 0.626417 0.527576 0.373283
#
# Coordination Sequence:
#
# PCOD9299490 Si02
#       8
#     4   8   8   8   8   8   8   8
#     4  12  22  42  64  98 132 172 234 278 328 398
#     4  11  21  40  68 100 125 171 231 269 328 416
#     4  11  22  40  67  97 138 172 221 281 353 406
#     4  10  25  42  63  93 134 178 221 269 336 415
#     4  11  22  38  69 104 127 174 224 286 336 399
#     4  11  24  41  64  89 137 180 213 271 345 406
#     4  11  22  40  66  97 135 172 222 289 343 392
#     4  11  22  38  67 104 130 167 231 287 328 402
#
# _framework density 20.888732999999998
#
# number of rings (size 3 to 8) (size 9 to 14) (size 15 to 20)
#    0.000    1.067    4.000    4.400    5.600    0.000 
#    0.000    5.333    5.867    0.000    0.000    0.000 
#    0.000    0.000    0.000    0.000    0.000    0.000 
#
# Total GULP energy -167195.290839 kJ/mol
# GULP energy per Si atom -5573.176361 kJ/mol
# Density = 2.084119 g / cm^3
# Si number density = 20.888733 Si / 1000 Ang^3
#
#
#
# Elastic Constant Matrix: (Units=GPa)
#
#
# Indices 1 2 3 4 5 6 
#
# 1 147.7374 21.0635 21.8702 0.0000 -16.7762 0.0000
# 2 21.0635 55.4680 0.7794 0.0000 -11.7656 0.0000
# 3 21.8702 0.7794 98.4746 0.0000 -13.2693 0.0000
# 4 0.0000 0.0000 0.0000 33.0764 0.0000 -3.8370
# 5 -16.7762 -11.7656 -13.2693 0.0000 29.9200 0.0000
# 6 0.0000 0.0000 0.0000 -3.8370 0.0000 21.7977
#
#
#
# Elastic Compliance Matrix: (Units=1/GPa)
#
#
# Indices 1 2 3 4 5 6 
#
# 1 0.007602 -0.002276 -0.001294 0.000000 0.002794 0.000000
# 2 -0.002276 0.020433 0.001334 0.000000 0.007351 0.000000
# 3 -0.001294 0.001334 0.011066 0.000000 0.004707 0.000000
# 4 0.000000 0.000000 0.000000 0.030863 0.000000 0.005433
# 5 0.002794 0.007351 0.004707 0.000000 0.039967 0.000000
# 6 0.000000 0.000000 0.000000 0.005433 0.000000 0.046833
#
#
# Mechanical properties :
#
#
# Convention : Reuss Voigt Hill
#
# Bulk Modulus (GPa) = 28.87692 43.23402 36.05547
# Shear Modulus (GPa) = 28.93881 34.15663 31.54772
#
# Velocity S-wave (km/s) = 3.72611 4.04811 3.89044
# Velocity P-wave (km/s) = 5.68911 6.52624 6.12200
#
# Compressibility (1/GPa) = 0.03462974
#
# Stress axis : x y z
#
# Youngs Moduli (GPa) = 131.54361 48.94009 90.36735
#
# Poissons Ratio (x) = 0.11139 0.11693
# Poissons Ratio (y) = 0.29940 -0.12057
# Poissons Ratio (z) = 0.17020 -0.06530
#
# Static dielectric constant tensor:
#      x y z
#    x 1.755090 0.000000 0.042780 
#    y 0.000000 1.793870 0.000000 
#    z 0.042780 0.000000 1.796870 
# 
# From -- ./inp_files/197880.got.cif
#   From: 2010.05.17/outbox.cif.g08.bks.cpg/sg15_99_cif.got.tgz:197880.got - 2010.06.03 18:47:42.
