data_PCOD9299375
_publ_section_title
;
Structure prediction by ZEFSAII (Michael W. Deem and Ramdas Pophale) SiO2 
 PCOD9299375
Probable space group: C 2/C
;
_chemical_formula_sum "Si O2"
_cell_formula_units_Z 32
_cell_length_a 5.241517
_cell_length_b 26.541179
_cell_length_c 9.764109
_cell_angle_alpha 90.000000
_cell_angle_beta 59.374265
_cell_angle_gamma 90.000000
_cell_volume 1168.873238
_symmetry_space_group_name_H-M "C 2/C"
_symmetry_group_IT_number 15
_symmetry_cell_setting 'monoclinic'
loop_
_space_group_symop_operation_xyz
x,y,z
-x,y,1/2-z
-x,-y,-z
x,-y,1/2+z
1/2+x,1/2+y,z
1/2-x,1/2+y,1/2-z
1/2-x,1/2-y,-z
1/2+x,1/2-y,1/2+z
loop_
_atom_site_type_symbol
_atom_site_label
_atom_site_fract_x
_atom_site_fract_y
_atom_site_fract_z
Si Si1 0.349830 0.234300 0.642563
Si Si2 0.828548 0.164160 0.433232
Si Si3 0.500000 0.928780 0.750000
Si Si4 0.500000 0.497284 0.750000
Si Si5 0.448652 0.402944 0.416696
O O1 0.500000 0.226360 0.750000
O O2 0.458580 0.290192 0.572109
O O3 0.519435 0.193569 0.503650
O O4 0.000000 0.231200 0.750000
O O5 0.338938 0.103967 0.410263
O O6 0.803147 0.119573 0.550539
O O7 0.000000 0.146860 0.250000
O O8 0.266996 0.963326 0.730999
O O9 0.559879 0.537196 0.611219
O O10 0.500000 0.381560 0.250000
#
# Coordination Sequence:
#
# PCOD9299375 Si02
#       5
#     8   8   4   4   8
#     4  10  24  50  79 111 159 218 272 339 405 483
#     4  10  24  49  80 116 162 213 277 337 409 479
#     4  12  24  54  82 118 161 211 268 336 408 494
#     4  10  26  52  82 116 163 211 262 334 418 482
#     4  10  26  49  83 119 160 210 266 337 400 496
#
# _framework density 27.376792999999999
#
# number of rings (size 3 to 8) (size 9 to 14) (size 15 to 20)
#    0.750    1.000    0.000    1.500    3.500   10.000 
#    6.750    5.000    0.000    0.000    0.000    0.000 
#    0.000    0.000    0.000    0.000    0.000    0.000 
#
# Total GULP energy -89606.424855 kJ/mol
# GULP energy per Si atom -5600.401553 kJ/mol
# Density = 2.731448 g / cm^3
# Si number density = 27.376793 Si / 1000 Ang^3
#
#
#
# Elastic Constant Matrix: (Units=GPa)
#
#
# Indices 1 2 3 4 5 6 
#
# 1 205.2471 61.3012 55.8362 0.0000 -8.4878 0.0000
# 2 61.3012 139.3283 62.4566 0.0000 13.8610 0.0000
# 3 55.8362 62.4566 197.6981 0.0000 -1.6753 0.0000
# 4 0.0000 0.0000 0.0000 47.9104 0.0000 9.8766
# 5 -8.4878 13.8610 -1.6753 0.0000 58.2592 0.0000
# 6 0.0000 0.0000 0.0000 9.8766 0.0000 37.8263
#
#
#
# Elastic Compliance Matrix: (Units=1/GPa)
#
#
# Indices 1 2 3 4 5 6 
#
# 1 0.005868 -0.002308 -0.000916 0.000000 0.001378 0.000000
# 2 -0.002308 0.009525 -0.002380 0.000000 -0.002671 0.000000
# 3 -0.000916 -0.002380 0.006074 0.000000 0.000607 0.000000
# 4 0.000000 0.000000 0.000000 0.022060 0.000000 -0.005760
# 5 0.001378 -0.002671 0.000607 0.000000 0.018018 0.000000
# 6 0.000000 0.000000 0.000000 -0.005760 0.000000 0.027941
#
#
# Mechanical properties :
#
#
# Convention : Reuss Voigt Hill
#
# Bulk Modulus (GPa) = 97.48123 100.16240 98.82181
# Shear Modulus (GPa) = 48.02425 52.97780 50.50102
#
# Velocity S-wave (km/s) = 4.19286 4.40379 4.29962
# Velocity P-wave (km/s) = 7.68925 7.90720 7.79899
#
# Compressibility (1/GPa) = 0.01025839
#
# Stress axis : x y z
#
# Youngs Moduli (GPa) = 170.42263 104.98313 164.63337
#
# Poissons Ratio (x) = 0.24229 0.15088
# Poissons Ratio (y) = 0.39332 0.39183
# Poissons Ratio (z) = 0.15618 0.24986
#
# Static dielectric constant tensor:
#      x y z
#    x 2.215820 0.000000 0.065890 
#    y 0.000000 2.089710 0.000000 
#    z 0.065890 0.000000 2.204370 
# 
# From -- ./inp_files/72258.got.cif
#   From: 2010.05.17/outbox.cif.g08.bks.cpg/sg15_37_cif.got.tgz:72258.got - 2010.06.03 18:47:42.
