data_PCOD9299802
_publ_section_title
;
Structure prediction by ZEFSAII (Michael W. Deem and Ramdas Pophale) SiO2 
 PCOD9299802
Probable space group: C 2/C
;
_chemical_formula_sum "Si O2"
_cell_formula_units_Z 40
_cell_length_a 21.017763
_cell_length_b 7.664725
_cell_length_c 10.733747
_cell_angle_alpha 90.000000
_cell_angle_beta 116.126962
_cell_angle_gamma 90.000000
_cell_volume 1552.472503
_symmetry_space_group_name_H-M "C 2/C"
_symmetry_group_IT_number 15
_symmetry_cell_setting 'monoclinic'
loop_
_space_group_symop_operation_xyz
x,y,z
-x,y,1/2-z
-x,-y,-z
x,-y,1/2+z
1/2+x,1/2+y,z
1/2-x,1/2+y,1/2-z
1/2-x,1/2-y,-z
1/2+x,1/2-y,1/2+z
loop_
_atom_site_type_symbol
_atom_site_label
_atom_site_fract_x
_atom_site_fract_y
_atom_site_fract_z
Si Si1 0.860599 0.458479 0.564617
Si Si2 0.486174 0.802555 0.529543
Si Si3 0.734861 0.215274 0.134426
Si Si4 0.362636 0.323637 0.245457
Si Si5 0.613077 0.697481 0.260828
O O1 0.922531 0.332745 0.570623
O O2 0.807626 0.533023 0.415405
O O3 0.826437 0.337521 0.641214
O O4 0.892992 0.636780 0.652865
O O5 0.558692 0.730487 0.644890
O O6 0.454777 0.696435 0.386435
O O7 0.500000 0.000000 0.500000
O O8 0.683336 0.339539 0.167606
O O9 0.814182 0.224320 0.254189
O O10 0.750000 0.250000 0.000000
O O11 0.371732 0.502792 0.176979
#
# Coordination Sequence:
#
# PCOD9299802 Si02
#       5
#     8   8   8   8   8
#     4  11  24  48  72 105 144 191 244 313 374 426
#     4  12  24  47  73 101 148 196 239 308 376 440
#     4  10  25  46  72 107 146 196 241 303 371 439
#     4  12  26  45  76 110 144 196 256 297 375 450
#     4  11  27  46  73 106 149 190 248 306 368 454
#
# _framework density 25.765350999999999
#
# number of rings (size 3 to 8) (size 9 to 14) (size 15 to 20)
#    0.000    0.800    4.000    1.200    8.400    4.000 
#    7.200    0.000    0.000    0.000    0.000    0.000 
#    0.000    0.000    0.000    0.000    0.000    0.000 
#
# Total GULP energy -111771.443508 kJ/mol
# GULP energy per Si atom -5588.572175 kJ/mol
# Density = 2.570671 g / cm^3
# Si number density = 25.765351 Si / 1000 Ang^3
#
#
#
# Elastic Constant Matrix: (Units=GPa)
#
#
# Indices 1 2 3 4 5 6 
#
# 1 79.4769 -17.6578 -1.0745 0.0000 10.9771 0.0000
# 2 -17.6578 136.7512 22.1198 0.0000 -11.2483 0.0000
# 3 -1.0745 22.1198 59.6877 0.0000 13.6609 0.0000
# 4 0.0000 0.0000 0.0000 39.0783 0.0000 3.2876
# 5 10.9771 -11.2483 13.6609 0.0000 44.0237 0.0000
# 6 0.0000 0.0000 0.0000 3.2876 0.0000 22.7625
#
#
#
# Elastic Compliance Matrix: (Units=1/GPa)
#
#
# Indices 1 2 3 4 5 6 
#
# 1 0.013326 0.001396 0.000432 0.000000 -0.003100 0.000000
# 2 0.001396 0.008340 -0.003739 0.000000 0.002943 0.000000
# 3 0.000432 -0.003739 0.019797 0.000000 -0.007206 0.000000
# 4 0.000000 0.000000 0.000000 0.025904 0.000000 -0.003741
# 5 -0.003100 0.002943 -0.007206 0.000000 0.026476 0.000000
# 6 0.000000 0.000000 0.000000 -0.003741 0.000000 0.044472
#
#
# Mechanical properties :
#
#
# Convention : Reuss Voigt Hill
#
# Bulk Modulus (GPa) = 26.56701 31.41009 28.98855
# Shear Modulus (GPa) = 32.32386 39.34147 35.83266
#
# Velocity S-wave (km/s) = 3.54580 3.91181 3.73330
# Velocity P-wave (km/s) = 5.20549 5.71142 5.46431
#
# Compressibility (1/GPa) = 0.03764067
#
# Stress axis : x y z
#
# Youngs Moduli (GPa) = 75.03878 119.90890 50.51363
#
# Poissons Ratio (x) = -0.16737 -0.02183
# Poissons Ratio (y) = -0.10474 0.18887
# Poissons Ratio (z) = -0.03243 0.44835
#
# Static dielectric constant tensor:
#      x y z
#    x 2.268670 0.000000 -0.145280 
#    y 0.000000 2.035710 0.000000 
#    z -0.145280 0.000000 2.172710 
# 
# From -- ./inp_files/109764.got.cif
#   From: 2010.05.17/outbox.cif.g08.bks.cpg/sg15_55_cif.got.tgz:109764.got - 2010.06.03 18:47:42.
