data_PCOD9299615
_publ_section_title
;
Structure prediction by ZEFSAII (Michael W. Deem and Ramdas Pophale) SiO2 
 PCOD9299615
Probable space group: C 2/C
;
_chemical_formula_sum "Si O2"
_cell_formula_units_Z 40
_cell_length_a 11.492245
_cell_length_b 6.918612
_cell_length_c 21.526376
_cell_angle_alpha 90.000000
_cell_angle_beta 103.863678
_cell_angle_gamma 90.000000
_cell_volume 1661.709942
_symmetry_space_group_name_H-M "C 2/C"
_symmetry_group_IT_number 15
_symmetry_cell_setting 'monoclinic'
loop_
_space_group_symop_operation_xyz
x,y,z
-x,y,1/2-z
-x,-y,-z
x,-y,1/2+z
1/2+x,1/2+y,z
1/2-x,1/2+y,1/2-z
1/2-x,1/2-y,-z
1/2+x,1/2-y,1/2+z
loop_
_atom_site_type_symbol
_atom_site_label
_atom_site_fract_x
_atom_site_fract_y
_atom_site_fract_z
Si Si1 0.881987 0.839525 0.770800
Si Si2 0.331262 0.591063 0.885660
Si Si3 0.667880 0.018905 0.159016
Si Si4 0.382808 0.224697 0.956370
Si Si5 0.152235 0.394358 0.455932
O O1 0.891712 0.300092 0.884606
O O2 0.771896 0.874483 0.710354
O O3 0.893204 0.621946 0.798874
O O4 0.000000 0.899033 0.750000
O O5 0.375119 0.453904 0.947531
O O6 0.192471 0.610175 0.889249
O O7 0.357181 0.474776 0.826747
O O8 0.702041 0.874417 0.107422
O O9 0.517957 0.176612 0.951445
O O10 0.350095 0.108616 0.014125
O O11 0.250000 0.250000 0.500000
#
# Coordination Sequence:
#
# PCOD9299615 Si02
#       5
#     8   8   8   8   8
#     4  11  26  45  66  97 138 175 229 283 338 408
#     4  11  24  44  69 102 134 180 226 276 342 402
#     4  11  23  45  65 100 133 175 229 277 338 408
#     4  10  25  44  68 103 141 178 222 285 340 406
#     4  11  23  47  70 101 143 177 229 283 339 413
#
# _framework density 24.07159
#
# number of rings (size 3 to 8) (size 9 to 14) (size 15 to 20)
#    0.000    1.200    4.000    0.600    5.600    1.600 
#   10.800    0.000    0.000    0.000    0.000    0.000 
#    0.000    0.000    0.000    0.000    0.000    0.000 
#
# Total GULP energy -111642.830565 kJ/mol
# GULP energy per Si atom -5582.141528 kJ/mol
# Density = 2.401680 g / cm^3
# Si number density = 24.071590 Si / 1000 Ang^3
#
#
#
# Elastic Constant Matrix: (Units=GPa)
#
#
# Indices 1 2 3 4 5 6 
#
# 1 91.1390 34.8954 42.7786 0.0000 -30.4385 0.0000
# 2 34.8954 163.9597 44.8217 0.0000 -9.4464 0.0000
# 3 42.7786 44.8217 110.1583 0.0000 -37.2444 0.0000
# 4 0.0000 0.0000 0.0000 62.3370 0.0000 -5.3836
# 5 -30.4385 -9.4464 -37.2444 0.0000 44.6185 0.0000
# 6 0.0000 0.0000 0.0000 -5.3836 0.0000 18.9377
#
#
#
# Elastic Compliance Matrix: (Units=1/GPa)
#
#
# Indices 1 2 3 4 5 6 
#
# 1 0.015699 -0.002206 -0.002418 0.000000 0.008224 0.000000
# 2 -0.002206 0.007221 -0.002888 0.000000 -0.002387 0.000000
# 3 -0.002418 -0.002888 0.014528 0.000000 0.009866 0.000000
# 4 0.000000 0.000000 0.000000 0.016446 0.000000 0.004675
# 5 0.008224 -0.002387 0.009866 0.000000 0.035752 0.000000
# 6 0.000000 0.000000 0.000000 0.004675 0.000000 0.054134
#
#
# Mechanical properties :
#
#
# Convention : Reuss Voigt Hill
#
# Bulk Modulus (GPa) = 44.60034 67.80536 56.20285
# Shear Modulus (GPa) = 30.07013 41.36272 35.71643
#
# Velocity S-wave (km/s) = 3.53823 4.14976 3.85614
# Velocity P-wave (km/s) = 5.93806 7.15472 6.57459
#
# Compressibility (1/GPa) = 0.02242135
#
# Stress axis : x y z
#
# Youngs Moduli (GPa) = 63.69976 138.49137 68.83415
#
# Poissons Ratio (x) = 0.30555 0.16645
# Poissons Ratio (y) = 0.14054 0.19882
# Poissons Ratio (z) = 0.15404 0.40002
#
# Static dielectric constant tensor:
#      x y z
#    x 1.958710 0.000000 0.052090 
#    y 0.000000 2.000120 0.000000 
#    z 0.052090 0.000000 1.982670 
# 
# From -- ./inp_files/235846.got.cif
#   From: 2010.05.17/outbox.cif.g08.bks.cpg/sg15_118_cif.got.tgz:235846.got - 2010.06.03 18:47:42.
