data_PCOD9299826
_publ_section_title
;
Structure prediction by ZEFSAII (Michael W. Deem and Ramdas Pophale) SiO2 
 PCOD9299826
Probable space group: C 2/C
;
_chemical_formula_sum "Si O2"
_cell_formula_units_Z 56
_cell_length_a 9.598976
_cell_length_b 10.637351
_cell_length_c 29.329142
_cell_angle_alpha 90.000000
_cell_angle_beta 43.677460
_cell_angle_gamma 90.000000
_cell_volume 2068.154766
_symmetry_space_group_name_H-M "C 2/C"
_symmetry_group_IT_number 15
_symmetry_cell_setting 'monoclinic'
loop_
_space_group_symop_operation_xyz
x,y,z
-x,y,1/2-z
-x,-y,-z
x,-y,1/2+z
1/2+x,1/2+y,z
1/2-x,1/2+y,1/2-z
1/2-x,1/2-y,-z
1/2+x,1/2-y,1/2+z
loop_
_atom_site_type_symbol
_atom_site_label
_atom_site_fract_x
_atom_site_fract_y
_atom_site_fract_z
Si Si1 0.333512 0.213584 0.827717
Si Si2 0.297232 0.416867 0.009585
Si Si3 0.631457 0.547196 0.606810
Si Si4 0.728384 0.038833 0.180512
Si Si5 0.766658 0.034159 0.321697
Si Si6 0.054560 0.287669 0.365083
Si Si7 0.791573 0.810750 0.540546
O O1 0.500000 0.188582 0.750000
O O2 0.252850 0.075988 0.859865
O O3 0.196028 0.320504 0.837234
O O4 0.439149 0.263077 0.847871
O O5 0.336921 0.470569 0.948579
O O6 0.389568 0.176461 0.941197
O O7 0.483594 0.349395 0.992882
O O8 0.217762 0.545303 0.053410
O O9 0.395937 0.520675 0.674748
O O10 0.756552 0.496037 0.619325
O O11 0.693963 0.693332 0.590357
O O12 0.500000 0.054764 0.250000
O O13 0.800875 0.177766 0.152199
O O14 0.666115 0.914158 0.322606
O O15 0.000000 0.039058 0.250000
O O16 0.750000 0.750000 0.500000
#
# Coordination Sequence:
#
# PCOD9299826 Si02
#       7
#     8   8   8   8   8   8   8
#     4  10  26  47  74 105 152 204 264 319 396 476
#     4  10  25  46  77 118 162 212 269 329 399 498
#     4  11  25  48  79 115 157 212 266 331 408 478
#     4  11  27  51  76 110 158 206 264 334 404 473
#     4  11  27  50  75 114 156 206 271 336 403 480
#     4  12  27  48  77 116 156 203 266 332 404 483
#     4   9  22  46  75 115 161 207 261 322 402 473
#
# _framework density 27.077276000000001
#
# number of rings (size 3 to 8) (size 9 to 14) (size 15 to 20)
#    0.000    1.429    1.429    0.429   14.000    2.286 
#    0.000    0.000    0.000    0.000    0.000    0.000 
#    0.000    0.000    0.000    0.000    0.000    0.000 
#
# Total GULP energy -156212.174181 kJ/mol
# GULP energy per Si atom -5579.006221 kJ/mol
# Density = 2.701565 g / cm^3
# Si number density = 27.077276 Si / 1000 Ang^3
#
#
#
# Elastic Constant Matrix: (Units=GPa)
#
#
# Indices 1 2 3 4 5 6 
#
# 1 92.6350 79.4525 33.8404 0.0000 -12.6859 0.0000
# 2 79.4525 240.8650 67.6841 0.0000 -23.3031 0.0000
# 3 33.8404 67.6841 111.0507 0.0000 -9.8414 0.0000
# 4 0.0000 0.0000 0.0000 36.7392 -0.0001 -6.3824
# 5 -12.6859 -23.3031 -9.8414 -0.0001 45.8961 0.0000
# 6 0.0000 0.0000 0.0000 -6.3824 0.0000 48.0555
#
#
#
# Elastic Compliance Matrix: (Units=1/GPa)
#
#
# Indices 1 2 3 4 5 6 
#
# 1 0.015503 -0.004427 -0.001881 0.000000 0.001634 0.000000
# 2 -0.004427 0.006447 -0.002445 0.000000 0.001525 0.000000
# 3 -0.001881 -0.002445 0.011124 0.000000 0.000624 0.000000
# 4 0.000000 0.000000 0.000000 0.027862 0.000000 0.003700
# 5 0.001634 0.001525 0.000624 0.000000 0.023148 0.000000
# 6 0.000000 0.000000 0.000000 0.003700 0.000000 0.021301
#
#
# Mechanical properties :
#
#
# Convention : Reuss Voigt Hill
#
# Bulk Modulus (GPa) = 64.23886 89.61164 76.92525
# Shear Modulus (GPa) = 39.03821 43.70974 41.37397
#
# Velocity S-wave (km/s) = 3.80114 4.02214 3.91320
# Velocity P-wave (km/s) = 6.56053 7.39843 6.99205
#
# Compressibility (1/GPa) = 0.01556690
#
# Stress axis : x y z
#
# Youngs Moduli (GPa) = 64.50266 155.11849 89.89935
#
# Poissons Ratio (x) = 0.68675 0.16911
# Poissons Ratio (y) = 0.28557 0.21979
# Poissons Ratio (z) = 0.12134 0.37925
#
# Static dielectric constant tensor:
#      x y z
#    x 2.200050 0.000000 -0.010710 
#    y 0.000000 2.207100 0.000000 
#    z -0.010710 0.000000 2.194220 
# 
# From -- ./inp_files/307392.got.cif
#   From: 2010.05.17/outbox.cif.g08.bks.cpg/sg15_154_cif.got.tgz:307392.got - 2010.06.03 18:47:42.
