data_PCOD9299795
_publ_section_title
;
Structure prediction by ZEFSAII (Michael W. Deem and Ramdas Pophale) SiO2 
 PCOD9299795
Probable space group: C 2/C
;
_chemical_formula_sum "Si O2"
_cell_formula_units_Z 56
_cell_length_a 17.443360
_cell_length_b 25.872640
_cell_length_c 8.537516
_cell_angle_alpha 90.000000
_cell_angle_beta 137.438221
_cell_angle_gamma 90.000000
_cell_volume 2606.131034
_symmetry_space_group_name_H-M "C 2/C"
_symmetry_group_IT_number 15
_symmetry_cell_setting 'monoclinic'
loop_
_space_group_symop_operation_xyz
x,y,z
-x,y,1/2-z
-x,-y,-z
x,-y,1/2+z
1/2+x,1/2+y,z
1/2-x,1/2+y,1/2-z
1/2-x,1/2-y,-z
1/2+x,1/2-y,1/2+z
loop_
_atom_site_type_symbol
_atom_site_label
_atom_site_fract_x
_atom_site_fract_y
_atom_site_fract_z
Si Si1 0.583469 0.272704 0.137629
Si Si2 0.875180 0.430588 0.623425
Si Si3 0.744902 0.389857 0.892558
Si Si4 0.922026 0.971234 0.009209
Si Si5 0.147369 0.789369 0.869967
Si Si6 0.708470 0.022693 0.816513
Si Si7 0.224354 0.669836 0.383892
O O1 0.654929 0.309121 0.365656
O O2 0.632292 0.216020 0.253142
O O3 0.614229 0.281922 0.001245
O O4 0.447376 0.278915 0.909508
O O5 0.861633 0.471346 0.744624
O O6 0.817003 0.460468 0.395758
O O7 0.812477 0.377891 0.565340
O O8 0.000000 0.419999 0.750000
O O9 0.656186 0.429826 0.689285
O O10 0.687149 0.348313 0.917548
O O11 0.782842 0.354300 0.802781
O O12 0.819789 0.429545 0.109470
O O13 0.841193 0.007462 0.996095
O O14 0.000000 0.942062 0.250000
O O15 0.000000 0.000000 0.000000
O O16 0.250000 0.750000 0.000000
#
# Coordination Sequence:
#
# PCOD9299795 Si02
#       7
#     8   8   8   8   8   8   8
#     4  10  25  46  71  97 145 178 241 305 347 427
#     4  12  25  45  71 102 139 192 238 290 352 422
#     4  12  25  42  73  99 142 187 227 290 356 424
#     4  12  24  41  67 102 141 182 224 282 350 420
#     4  11  24  46  69 104 136 184 239 292 358 420
#     4  12  24  46  66 102 150 177 239 289 340 436
#     4  11  24  47  68 103 135 190 238 293 364 413
#
# _framework density 21.487791999999999
#
# number of rings (size 3 to 8) (size 9 to 14) (size 15 to 20)
#    0.000    0.571    5.714    1.286    2.000    4.571 
#    0.000    0.000    0.000    0.000    0.000    0.000 
#    0.000    0.000    0.000    0.000    0.000    0.000 
#
# Total GULP energy -156119.890095 kJ/mol
# GULP energy per Si atom -5575.710361 kJ/mol
# Density = 2.143888 g / cm^3
# Si number density = 21.487792 Si / 1000 Ang^3
#
#
#
# Elastic Constant Matrix: (Units=GPa)
#
#
# Indices 1 2 3 4 5 6 
#
# 1 63.0917 26.8288 -5.3462 0.0000 -2.1548 0.0000
# 2 26.8288 141.2456 21.3423 0.0000 -3.8268 0.0000
# 3 -5.3462 21.3423 37.5003 0.0000 4.5763 0.0000
# 4 0.0000 0.0000 0.0000 33.7879 0.0000 -19.0597
# 5 -2.1548 -3.8268 4.5763 0.0000 28.2712 0.0000
# 6 0.0000 0.0000 0.0000 -19.0597 0.0000 46.6659
#
#
#
# Elastic Compliance Matrix: (Units=1/GPa)
#
#
# Indices 1 2 3 4 5 6 
#
# 1 0.018045 -0.004175 0.004947 0.000000 0.000009 0.000000
# 2 -0.004175 0.008802 -0.005827 0.000000 0.001816 0.000000
# 3 0.004947 -0.005827 0.031357 0.000000 -0.005488 0.000000
# 4 0.000000 0.000000 0.000000 0.038457 0.000000 0.015707
# 5 0.000009 0.001816 -0.005488 0.000000 0.036507 0.000000
# 6 0.000000 0.000000 0.000000 0.015707 0.000000 0.027844
#
#
# Mechanical properties :
#
#
# Convention : Reuss Voigt Hill
#
# Bulk Modulus (GPa) = 20.79145 36.38749 28.58947
# Shear Modulus (GPa) = 26.71627 35.01251 30.86439
#
# Velocity S-wave (km/s) = 3.52990 4.04098 3.79406
# Velocity P-wave (km/s) = 5.12938 6.22443 5.70325
#
# Compressibility (1/GPa) = 0.04809670
#
# Stress axis : x y z
#
# Youngs Moduli (GPa) = 55.41775 113.60479 31.89038
#
# Poissons Ratio (x) = 0.47428 -0.15777
# Poissons Ratio (y) = 0.23136 0.18581
# Poissons Ratio (z) = -0.27417 0.66192
#
# Static dielectric constant tensor:
#      x y z
#    x 1.901050 0.000000 0.146460 
#    y 0.000000 1.752130 0.000000 
#    z 0.146460 0.000000 2.273030 
# 
# From -- ./inp_files/52387.got.cif
#   From: 2010.05.17/outbox.cif.g08.bks.cpg/sg15_27_cif.got.tgz:52387.got - 2010.06.03 18:47:42.
