data_PCOD9299226
_publ_section_title
;
Structure prediction by ZEFSAII (Michael W. Deem and Ramdas Pophale) SiO2 
 PCOD9299226
Probable space group: C 2/C
;
_chemical_formula_sum "Si O2"
_cell_formula_units_Z 44
_cell_length_a 11.547696
_cell_length_b 20.584429
_cell_length_c 11.512106
_cell_angle_alpha 90.000000
_cell_angle_beta 131.899958
_cell_angle_gamma 90.000000
_cell_volume 2036.779374
_symmetry_space_group_name_H-M "C 2/C"
_symmetry_group_IT_number 15
_symmetry_cell_setting 'monoclinic'
loop_
_space_group_symop_operation_xyz
x,y,z
-x,y,1/2-z
-x,-y,-z
x,-y,1/2+z
1/2+x,1/2+y,z
1/2-x,1/2+y,1/2-z
1/2-x,1/2-y,-z
1/2+x,1/2-y,1/2+z
loop_
_atom_site_type_symbol
_atom_site_label
_atom_site_fract_x
_atom_site_fract_y
_atom_site_fract_z
Si Si1 0.000000 0.979739 0.750000
Si Si2 0.655268 0.396132 0.410272
Si Si3 0.413581 0.153671 0.928091
Si Si4 0.231324 0.124003 0.346653
Si Si5 0.905569 0.798899 0.941516
Si Si6 0.752721 0.811516 0.411468
O O1 0.117225 0.936710 0.751254
O O2 0.102874 0.029867 0.895602
O O3 0.500000 0.364895 0.250000
O O4 0.791163 0.393157 0.407373
O O5 0.681831 0.352360 0.540160
O O6 0.383191 0.224819 0.963619
O O7 0.380951 0.170001 0.770356
O O8 0.586834 0.126778 0.062096
O O9 0.154955 0.185216 0.228720
O O10 0.226554 0.131162 0.482293
O O11 0.091018 0.806977 0.059751
O O12 0.750000 0.750000 0.500000
#
# Coordination Sequence:
#
# PCOD9299226 Si02
#       6
#     4   8   8   8   8   8
#     4  10  24  48  64  94 138 182 236 262 334 410
#     4  10  25  47  65  90 132 191 224 261 339 403
#     4  12  24  42  70 104 134 167 225 288 336 403
#     4  12  25  37  69 105 131 172 222 283 332 392
#     4  12  22  42  71  98 137 174 215 284 344 407
#     4  12  21  40  65 102 140 167 212 278 356 394
#
# _framework density 21.602730999999999
#
# number of rings (size 3 to 8) (size 9 to 14) (size 15 to 20)
#    0.545    0.000    7.273    1.091    0.000    2.182 
#    3.273    0.000    4.000    0.000    0.000    0.000 
#    0.000    0.000    0.000    0.000    0.000    0.000 
#
# Total GULP energy -122617.854652 kJ/mol
# GULP energy per Si atom -5573.538848 kJ/mol
# Density = 2.155356 g / cm^3
# Si number density = 21.602731 Si / 1000 Ang^3
#
#
#
# Elastic Constant Matrix: (Units=GPa)
#
#
# Indices 1 2 3 4 5 6 
#
# 1 92.4640 49.5527 31.4152 0.0000 19.8267 0.0000
# 2 49.5527 102.6086 28.0438 0.0000 9.5950 0.0000
# 3 31.4152 28.0438 72.6810 0.0000 19.5655 0.0000
# 4 0.0000 0.0000 0.0000 17.0169 0.0000 0.5084
# 5 19.8267 9.5950 19.5655 0.0000 35.7714 0.0000
# 6 0.0000 0.0000 0.0000 0.5084 0.0000 26.7111
#
#
#
# Elastic Compliance Matrix: (Units=1/GPa)
#
#
# Indices 1 2 3 4 5 6 
#
# 1 0.016673 -0.006671 -0.003080 0.000000 -0.005767 0.000000
# 2 -0.006671 0.013580 -0.002781 0.000000 0.001576 0.000000
# 3 -0.003080 -0.002781 0.018179 0.000000 -0.007490 0.000000
# 4 0.000000 0.000000 0.000000 0.058799 0.000000 -0.001119
# 5 -0.005767 0.001576 -0.007490 0.000000 0.034826 0.000000
# 6 0.000000 0.000000 0.000000 -0.001119 0.000000 0.037459
#
#
# Mechanical properties :
#
#
# Convention : Reuss Voigt Hill
#
# Bulk Modulus (GPa) = 42.79152 53.97521 48.38336
# Shear Modulus (GPa) = 23.54390 26.48267 25.01328
#
# Velocity S-wave (km/s) = 3.30488 3.50508 3.40645
# Velocity P-wave (km/s) = 5.86638 6.43586 6.15771
#
# Compressibility (1/GPa) = 0.02336912
#
# Stress axis : x y z
#
# Youngs Moduli (GPa) = 59.97662 73.63818 55.00726
#
# Poissons Ratio (x) = 0.49123 0.16944
# Poissons Ratio (y) = 0.40009 0.15295
# Poissons Ratio (z) = 0.18475 0.20476
#
# Static dielectric constant tensor:
#      x y z
#    x 1.791580 0.000000 -0.023410 
#    y 0.000000 1.824430 0.000000 
#    z -0.023410 0.000000 1.858890 
# 
# From -- ./inp_files/91390.got.cif
#   From: 2010.05.17/outbox.cif.g08.bks.cpg/sg15_46_cif.got.tgz:91390.got - 2010.06.03 18:47:42.
