data_PCOD9299669
_publ_section_title
;
Structure prediction by ZEFSAII (Michael W. Deem and Ramdas Pophale) SiO2 
 PCOD9299669
Probable space group: C 2/C
;
_chemical_formula_sum "Si O2"
_cell_formula_units_Z 40
_cell_length_a 25.016440
_cell_length_b 6.727268
_cell_length_c 15.854828
_cell_angle_alpha 90.000000
_cell_angle_beta 34.035165
_cell_angle_gamma 90.000000
_cell_volume 1493.421268
_symmetry_space_group_name_H-M "C 2/C"
_symmetry_group_IT_number 15
_symmetry_cell_setting 'monoclinic'
loop_
_space_group_symop_operation_xyz
x,y,z
-x,y,1/2-z
-x,-y,-z
x,-y,1/2+z
1/2+x,1/2+y,z
1/2-x,1/2+y,1/2-z
1/2-x,1/2-y,-z
1/2+x,1/2-y,1/2+z
loop_
_atom_site_type_symbol
_atom_site_label
_atom_site_fract_x
_atom_site_fract_y
_atom_site_fract_z
Si Si1 0.371326 0.191176 0.332983
Si Si2 0.543126 0.975862 0.035478
Si Si3 0.201418 0.001819 0.461345
Si Si4 0.583143 0.546218 0.957889
Si Si5 0.225326 0.537997 0.385562
O O1 0.326721 0.457788 0.223801
O O2 0.477647 0.119676 0.176290
O O3 0.302621 0.109438 0.348187
O O4 0.328534 0.072820 0.468584
O O5 0.655905 0.004362 0.896682
O O6 0.540022 0.742369 0.059546
O O7 0.500000 0.000000 0.000000
O O8 0.134644 0.062989 0.469553
O O9 0.224523 0.769541 0.415126
O O10 0.141986 0.079077 0.621806
O O11 0.500000 0.500000 0.000000
#
# Coordination Sequence:
#
# PCOD9299669 Si02
#       5
#     8   8   8   8   8
#     4  11  24  47  78 113 155 216 265 345 413 495
#     4  11  26  47  76 112 163 212 278 337 420 498
#     4  10  25  44  77 113 163 201 274 330 419 489
#     4  11  26  47  78 116 162 217 271 345 413 500
#     4  11  25  47  76 113 164 207 271 345 411 493
#
# _framework density 26.784134999999999
#
# number of rings (size 3 to 8) (size 9 to 14) (size 15 to 20)
#    0.000    1.200    0.000    3.600   14.000    0.000 
#    0.000    5.000    0.000    0.000    0.000    0.000 
#    0.000    0.000    0.000    0.000    0.000    0.000 
#
# Total GULP energy -111663.821980 kJ/mol
# GULP energy per Si atom -5583.191099 kJ/mol
# Density = 2.672317 g / cm^3
# Si number density = 26.784135 Si / 1000 Ang^3
#
#
#
# Elastic Constant Matrix: (Units=GPa)
#
#
# Indices 1 2 3 4 5 6 
#
# 1 207.4579 4.5718 61.4401 -0.0019 -28.8587 0.0010
# 2 4.5718 134.1035 33.7361 -0.0060 -0.1385 0.0029
# 3 61.4401 33.7361 171.2789 -0.0033 -33.2260 0.0013
# 4 -0.0019 -0.0060 -0.0033 31.9752 0.0007 4.3380
# 5 -28.8587 -0.1385 -33.2260 0.0007 66.9192 0.0000
# 6 0.0010 0.0029 0.0013 4.3380 0.0000 41.5568
#
#
#
# Elastic Compliance Matrix: (Units=1/GPa)
#
#
# Indices 1 2 3 4 5 6 
#
# 1 0.005543 0.000251 -0.001742 0.000000 0.001526 0.000000
# 2 0.000251 0.007899 -0.001794 0.000001 -0.000766 -0.000001
# 3 -0.001742 -0.001794 0.007381 0.000000 0.002910 0.000000
# 4 0.000000 0.000001 0.000000 0.031724 0.000000 -0.003312
# 5 0.001526 -0.000766 0.002910 0.000000 0.017045 0.000000
# 6 0.000000 -0.000001 0.000000 -0.003312 0.000000 0.024409
#
#
# Mechanical properties :
#
#
# Convention : Reuss Voigt Hill
#
# Bulk Modulus (GPa) = 70.16431 79.14850 74.65640
# Shear Modulus (GPa) = 47.47351 55.62971 51.55161
#
# Velocity S-wave (km/s) = 4.21461 4.56232 4.39191
# Velocity P-wave (km/s) = 7.06661 7.57414 7.32478
#
# Compressibility (1/GPa) = 0.01425226
#
# Stress axis : x y z
#
# Youngs Moduli (GPa) = 180.41375 126.59804 135.48062
#
# Poissons Ratio (x) = -0.03174 0.23596
# Poissons Ratio (y) = -0.04524 0.24312
# Poissons Ratio (z) = 0.31421 0.22718
#
# Static dielectric constant tensor:
#      x y z
#    x 2.204030 0.000000 -0.010160 
#    y 0.000000 2.407710 0.000010 
#    z -0.010160 0.000010 2.078370 
# 
# From -- ./inp_files/218108.got.cif
#   From: 2010.05.17/outbox.cif.g08.bks.cpg/sg15_110_cif.got.tgz:218108.got - 2010.06.03 18:47:42.
