data_PCOD9299567
_publ_section_title
;
Structure prediction by ZEFSAII (Michael W. Deem and Ramdas Pophale) SiO2 
 PCOD9299567
Probable space group: C 2/C
;
_chemical_formula_sum "Si O2"
_cell_formula_units_Z 52
_cell_length_a 17.075167
_cell_length_b 15.230724
_cell_length_c 14.699158
_cell_angle_alpha 90.000000
_cell_angle_beta 140.381895
_cell_angle_gamma 90.000000
_cell_volume 2437.654797
_symmetry_space_group_name_H-M "C 2/C"
_symmetry_group_IT_number 15
_symmetry_cell_setting 'monoclinic'
loop_
_space_group_symop_operation_xyz
x,y,z
-x,y,1/2-z
-x,-y,-z
x,-y,1/2+z
1/2+x,1/2+y,z
1/2-x,1/2+y,1/2-z
1/2-x,1/2-y,-z
1/2+x,1/2-y,1/2+z
loop_
_atom_site_type_symbol
_atom_site_label
_atom_site_fract_x
_atom_site_fract_y
_atom_site_fract_z
Si Si1 0.000000 0.535632 0.750000
Si Si2 0.115254 0.222820 0.419500
Si Si3 0.820484 0.727850 0.918379
Si Si4 0.231158 0.065991 0.462888
Si Si5 0.722693 0.173945 0.169121
Si Si6 0.525151 0.923821 0.595529
Si Si7 0.142653 0.130910 0.888765
O O1 0.969620 0.473830 0.806169
O O2 0.874102 0.585658 0.614768
O O3 0.250000 0.250000 0.500000
O O4 0.136538 0.117853 0.442601
O O5 0.120374 0.270855 0.520723
O O6 0.000000 0.239643 0.250000
O O7 0.806778 0.761140 0.802557
O O8 0.698111 0.683996 0.852238
O O9 0.923829 0.652449 0.011788
O O10 0.845373 0.807770 0.010970
O O11 0.214359 0.107587 0.346598
O O12 0.212295 0.962334 0.453301
O O13 0.652528 0.118683 0.181643
O O14 0.500000 0.000000 0.500000
O O15 0.000000 0.111895 0.750000
#
# Coordination Sequence:
#
# PCOD9299567 Si02
#       7
#     4   8   8   8   8   8   8
#     4  12  24  44  74 102 136 188 244 304 340 432
#     4  10  25  43  70 101 143 189 237 295 365 432
#     4  11  25  43  66 105 136 184 235 304 358 428
#     4  11  24  44  70 100 143 183 240 290 369 428
#     4  11  25  41  69 103 141 181 238 300 364 425
#     4  12  25  43  72 101 142 183 252 293 361 434
#     4  11  23  46  69  94 138 189 232 284 370 434
#
# _framework density 21.331977999999999
#
# number of rings (size 3 to 8) (size 9 to 14) (size 15 to 20)
#    0.000    0.923    3.077    2.308   14.000    0.000 
#    2.769    0.769    0.000    0.000    0.000    0.000 
#    0.000    0.000    0.000    0.000    0.000    0.000 
#
# Total GULP energy -145170.196066 kJ/mol
# GULP energy per Si atom -5583.469079 kJ/mol
# Density = 2.128343 g / cm^3
# Si number density = 21.331978 Si / 1000 Ang^3
#
#
#
# Elastic Constant Matrix: (Units=GPa)
#
#
# Indices 1 2 3 4 5 6 
#
# 1 68.4865 29.5399 24.8296 0.0000 -11.0932 0.0000
# 2 29.5399 117.9480 39.1604 0.0000 -10.7122 0.0000
# 3 24.8296 39.1604 96.8640 0.0000 -6.0689 0.0000
# 4 0.0000 0.0000 0.0000 21.5802 0.0000 15.4545
# 5 -11.0932 -10.7122 -6.0689 0.0000 44.5498 0.0000
# 6 0.0000 0.0000 0.0000 15.4545 0.0000 36.6634
#
#
#
# Elastic Compliance Matrix: (Units=1/GPa)
#
#
# Indices 1 2 3 4 5 6 
#
# 1 0.017562 -0.003094 -0.003050 0.000000 0.003214 0.000000
# 2 -0.003094 0.010488 -0.003366 0.000000 0.001293 0.000000
# 3 -0.003050 -0.003366 0.012474 0.000000 0.000131 0.000000
# 4 0.000000 0.000000 0.000000 0.066376 0.000000 -0.027979
# 5 0.003214 0.001293 0.000131 0.000000 0.023576 0.000000
# 6 0.000000 0.000000 0.000000 -0.027979 0.000000 0.039069
#
#
# Mechanical properties :
#
#
# Convention : Reuss Voigt Hill
#
# Bulk Modulus (GPa) = 46.49983 52.26203 49.38093
# Shear Modulus (GPa) = 25.54504 33.20994 29.37749
#
# Velocity S-wave (km/s) = 3.46424 3.94993 3.71503
# Velocity P-wave (km/s) = 6.15198 6.73462 6.44988
#
# Compressibility (1/GPa) = 0.02150546
#
# Stress axis : x y z
#
# Youngs Moduli (GPa) = 56.94085 95.34510 80.16365
#
# Poissons Ratio (x) = 0.29500 0.24446
# Poissons Ratio (y) = 0.17618 0.26984
# Poissons Ratio (z) = 0.17364 0.32094
#
# Static dielectric constant tensor:
#      x y z
#    x 1.810520 0.000000 -0.046160 
#    y 0.000000 1.846270 0.000000 
#    z -0.046160 0.000000 1.883530 
# 
# From -- ./inp_files/162631.got.cif
#   From: 2010.05.17/outbox.cif.g08.bks.cpg/sg15_82_cif.got.tgz:162631.got - 2010.06.03 18:47:42.
