data_PCOD9299532
_publ_section_title
;
Structure prediction by ZEFSAII (Michael W. Deem and Ramdas Pophale) SiO2 
 PCOD9299532
Probable space group: C 2/C
;
_chemical_formula_sum "Si O2"
_cell_formula_units_Z 40
_cell_length_a 13.937286
_cell_length_b 26.262040
_cell_length_c 8.548940
_cell_angle_alpha 90.000000
_cell_angle_beta 146.733082
_cell_angle_gamma 90.000000
_cell_volume 1716.434964
_symmetry_space_group_name_H-M "C 2/C"
_symmetry_group_IT_number 15
_symmetry_cell_setting 'monoclinic'
loop_
_space_group_symop_operation_xyz
x,y,z
-x,y,1/2-z
-x,-y,-z
x,-y,1/2+z
1/2+x,1/2+y,z
1/2-x,1/2+y,1/2-z
1/2-x,1/2-y,-z
1/2+x,1/2-y,1/2+z
loop_
_atom_site_type_symbol
_atom_site_label
_atom_site_fract_x
_atom_site_fract_y
_atom_site_fract_z
Si Si1 0.641665 0.844255 0.172839
Si Si2 0.186517 0.971543 0.939689
Si Si3 0.443705 0.740514 0.826394
Si Si4 0.807383 0.556983 0.926221
Si Si5 0.500000 0.693378 0.250000
Si Si6 0.000000 0.592137 0.750000
O O1 0.706322 0.882975 0.126278
O O2 0.508047 0.873461 0.104891
O O3 0.814231 0.834380 0.512847
O O4 0.553808 0.793263 0.989465
O O5 0.000000 0.951181 0.750000
O O6 0.168580 0.027783 0.844288
O O7 0.297056 0.971068 0.247373
O O8 0.316697 0.939336 0.005364
O O9 0.500000 0.707628 0.750000
O O10 0.250000 0.750000 0.500000
O O11 0.466352 0.720352 0.034878
O O12 0.000000 0.548310 0.250000
#
# Coordination Sequence:
#
# PCOD9299532 Si02
#       6
#     8   8   8   8   4   4
#     4  11  26  46  73 110 150 199 258 319 385 467
#     4  11  24  46  72 105 146 202 256 307 389 463
#     4  12  26  49  77 112 152 202 259 322 404 477
#     4  11  24  44  71 102 150 193 252 314 381 453
#     4  12  27  50  78 108 156 204 264 324 401 480
#     4  10  25  42  74 104 156 198 250 312 391 438
#
# _framework density 23.304117000000002
#
# number of rings (size 3 to 8) (size 9 to 14) (size 15 to 20)
#    0.000    0.800    3.000    3.000   11.200    0.000 
#    0.000    1.000    0.000    0.000    0.000    0.000 
#    0.000    0.000    0.000    0.000    0.000    0.000 
#
# Total GULP energy -111380.474431 kJ/mol
# GULP energy per Si atom -5569.023722 kJ/mol
# Density = 2.325108 g / cm^3
# Si number density = 23.304117 Si / 1000 Ang^3
#
#
#
# Elastic Constant Matrix: (Units=GPa)
#
#
# Indices 1 2 3 4 5 6 
#
# 1 130.1655 46.2480 63.6163 0.0000 3.1006 0.0000
# 2 46.2480 86.9557 36.7493 0.0000 -1.6545 0.0000
# 3 63.6163 36.7493 153.6330 0.0000 1.6190 0.0000
# 4 0.0000 0.0000 0.0000 33.6309 0.0000 -2.6951
# 5 3.1006 -1.6545 1.6190 0.0000 47.9737 0.0000
# 6 0.0000 0.0000 0.0000 -2.6951 0.0000 43.0878
#
#
#
# Elastic Compliance Matrix: (Units=1/GPa)
#
#
# Indices 1 2 3 4 5 6 
#
# 1 0.010955 -0.004368 -0.003483 0.000000 -0.000741 0.000000
# 2 -0.004368 0.014550 -0.001680 0.000000 0.000841 0.000000
# 3 -0.003483 -0.001680 0.008355 0.000000 -0.000115 0.000000
# 4 0.000000 0.000000 0.000000 0.029884 0.000000 0.001869
# 5 -0.000741 0.000841 -0.000115 0.000000 0.020926 0.000000
# 6 0.000000 0.000000 0.000000 0.001869 0.000000 0.023325
#
#
# Mechanical properties :
#
#
# Convention : Reuss Voigt Hill
#
# Bulk Modulus (GPa) = 67.59133 73.77573 70.68353
# Shear Modulus (GPa) = 37.88178 39.88120 38.88149
#
# Velocity S-wave (km/s) = 4.03617 4.14132 4.08908
# Velocity P-wave (km/s) = 7.12656 7.38877 7.25885
#
# Compressibility (1/GPa) = 0.01479480
#
# Stress axis : x y z
#
# Youngs Moduli (GPa) = 91.28512 68.73072 119.69494
#
# Poissons Ratio (x) = 0.30023 0.41695
# Poissons Ratio (y) = 0.39876 0.20113
# Poissons Ratio (z) = 0.31798 0.11549
#
# Static dielectric constant tensor:
#      x y z
#    x 2.109180 0.000000 0.056390 
#    y 0.000000 1.968340 0.000000 
#    z 0.056390 0.000000 1.886980 
# 
# From -- ./inp_files/44981.got.cif
#   From: 2010.05.17/outbox.cif.g08.bks.cpg/sg15_23_cif.got.tgz:44981.got - 2010.06.03 18:47:42.
