data_PCOD9299851
_publ_section_title
;
Structure prediction by ZEFSAII (Michael W. Deem and Ramdas Pophale) SiO2 
 PCOD9299851
Probable space group: C 2/C
;
_chemical_formula_sum "Si O2"
_cell_formula_units_Z 48
_cell_length_a 8.707393
_cell_length_b 27.387179
_cell_length_c 14.428361
_cell_angle_alpha 90.000000
_cell_angle_beta 137.684661
_cell_angle_gamma 90.000000
_cell_volume 2316.345446
_symmetry_space_group_name_H-M "C 2/C"
_symmetry_group_IT_number 15
_symmetry_cell_setting 'monoclinic'
loop_
_space_group_symop_operation_xyz
x,y,z
-x,y,1/2-z
-x,-y,-z
x,-y,1/2+z
1/2+x,1/2+y,z
1/2-x,1/2+y,1/2-z
1/2-x,1/2-y,-z
1/2+x,1/2-y,1/2+z
loop_
_atom_site_type_symbol
_atom_site_label
_atom_site_fract_x
_atom_site_fract_y
_atom_site_fract_z
Si Si1 0.238844 0.945651 0.634977
Si Si2 0.563350 0.535274 0.670469
Si Si3 0.067120 0.223283 0.984340
Si Si4 0.686260 0.356917 0.250882
Si Si5 0.150443 0.678977 0.048874
Si Si6 0.627297 0.345725 0.667246
O O1 0.500000 0.930881 0.750000
O O2 0.103886 0.898754 0.611825
O O3 0.154388 0.960016 0.494847
O O4 0.202695 0.990726 0.688571
O O5 0.500000 0.527384 0.750000
O O6 0.689448 0.587360 0.717688
O O7 0.911089 0.183066 0.863597
O O8 0.906206 0.264873 0.955057
O O9 0.250000 0.250000 0.000000
O O10 0.198501 0.193974 0.123072
O O11 0.500000 0.356590 0.250000
O O12 0.931873 0.342324 0.399289
O O13 0.198154 0.653502 0.169250
O O14 0.382020 0.671587 0.095571
#
# Coordination Sequence:
#
# PCOD9299851 Si02
#       6
#     8   8   8   8   8   8
#     4  11  26  47  74 104 139 184 232 295 356 419
#     4  10  25  47  71 104 138 176 238 286 361 417
#     4  12  24  44  71 102 142 185 235 290 343 412
#     4  11  23  44  69 105 133 185 230 285 343 412
#     4  11  26  43  69  98 147 183 237 279 345 414
#     4  11  27  46  66 104 140 185 231 290 348 412
#
# _framework density 20.722297000000001
#
# number of rings (size 3 to 8) (size 9 to 14) (size 15 to 20)
#    0.000    1.000    3.333    1.500    9.333    5.333 
#    0.000    0.000    0.000    0.000    0.000    0.000 
#    0.000    0.000    0.000    0.000    0.000    0.000 
#
# Total GULP energy -134226.024826 kJ/mol
# GULP energy per Si atom -5592.751034 kJ/mol
# Density = 2.067513 g / cm^3
# Si number density = 20.722297 Si / 1000 Ang^3
#
#
#
# Elastic Constant Matrix: (Units=GPa)
#
#
# Indices 1 2 3 4 5 6 
#
# 1 88.0730 66.3033 50.2238 0.0000 -12.2145 0.0000
# 2 66.3033 142.5673 27.5590 0.0000 -11.1412 0.0000
# 3 50.2238 27.5590 103.4270 0.0000 -12.9666 0.0000
# 4 0.0000 0.0000 0.0000 45.2440 0.0000 -17.2149
# 5 -12.2145 -11.1412 -12.9666 0.0000 33.7134 0.0000
# 6 0.0000 0.0000 0.0000 -17.2149 0.0000 21.3862
#
#
#
# Elastic Compliance Matrix: (Units=1/GPa)
#
#
# Indices 1 2 3 4 5 6 
#
# 1 0.023416 -0.009042 -0.008692 0.000000 0.002153 0.000000
# 2 -0.009042 0.010988 0.001584 0.000000 0.000965 0.000000
# 3 -0.008692 0.001584 0.013804 0.000000 0.002683 0.000000
# 4 0.000000 0.000000 0.000000 0.031861 0.000000 0.025646
# 5 0.002153 0.000965 0.002683 0.000000 0.031793 0.000000
# 6 0.000000 0.000000 0.000000 0.025646 0.000000 0.067403
#
#
# Mechanical properties :
#
#
# Convention : Reuss Voigt Hill
#
# Bulk Modulus (GPa) = 62.85833 69.13774 65.99803
# Shear Modulus (GPa) = 23.05565 32.73414 27.89490
#
# Velocity S-wave (km/s) = 3.33919 3.97880 3.67294
# Velocity P-wave (km/s) = 6.72803 7.38540 7.06437
#
# Compressibility (1/GPa) = 0.01590879
#
# Stress axis : x y z
#
# Youngs Moduli (GPa) = 42.70602 91.00462 72.44422
#
# Poissons Ratio (x) = 0.82283 0.62965
# Poissons Ratio (y) = 0.38613 -0.11472
# Poissons Ratio (z) = 0.37118 -0.14411
#
# Static dielectric constant tensor:
#      x y z
#    x 1.734250 0.000000 -0.038000 
#    y 0.000000 1.724910 0.000000 
#    z -0.038000 0.000000 1.742050 
# 
# From -- ./inp_files/139052.got.cif
#   From: 2010.05.17/outbox.cif.g08.bks.cpg/sg15_70_cif.got.tgz:139052.got - 2010.06.03 18:47:42.
