data_PCOD9299405
_publ_section_title
;
Structure prediction by ZEFSAII (Michael W. Deem and Ramdas Pophale) SiO2 
 PCOD9299405
Probable space group: C 2/C
;
_chemical_formula_sum "Si O2"
_cell_formula_units_Z 44
_cell_length_a 18.913530
_cell_length_b 8.569006
_cell_length_c 11.996226
_cell_angle_alpha 90.000000
_cell_angle_beta 123.753777
_cell_angle_gamma 90.000000
_cell_volume 1616.497099
_symmetry_space_group_name_H-M "C 2/C"
_symmetry_group_IT_number 15
_symmetry_cell_setting 'monoclinic'
loop_
_space_group_symop_operation_xyz
x,y,z
-x,y,1/2-z
-x,-y,-z
x,-y,1/2+z
1/2+x,1/2+y,z
1/2-x,1/2+y,1/2-z
1/2-x,1/2-y,-z
1/2+x,1/2-y,1/2+z
loop_
_atom_site_type_symbol
_atom_site_label
_atom_site_fract_x
_atom_site_fract_y
_atom_site_fract_z
Si Si1 0.106611 0.598968 0.242400
Si Si2 0.500000 0.640435 0.750000
Si Si3 0.250000 0.750000 0.500000
Si Si4 0.234039 0.268944 0.616574
Si Si5 0.500000 0.848853 0.250000
Si Si6 0.833228 0.590544 0.884293
Si Si7 0.057568 0.904331 0.962575
O O1 0.200751 0.662158 0.351752
O O2 0.097013 0.519517 0.112743
O O3 0.044708 0.745840 0.201353
O O4 0.078598 0.466143 0.305908
O O5 0.567295 0.525779 0.867814
O O6 0.168916 0.699967 0.510627
O O7 0.250000 0.250000 0.500000
O O8 0.232413 0.454430 0.635913
O O9 0.304789 0.191728 0.754433
O O10 0.148368 0.170443 0.571838
O O11 0.493408 0.738444 0.137655
O O12 0.000000 0.000000 0.000000
#
# Coordination Sequence:
#
# PCOD9299405 Si02
#       7
#     8   4   4   8   4   8   8
#     4  11  25  49  74 114 148 206 256 327 383 471
#     4  10  26  44  78 106 162 194 266 304 394 470
#     4  12  26  46  78 108 154 198 262 318 388 460
#     4  12  28  46  75 115 155 203 259 325 392 463
#     4  10  24  50  76 108 156 198 256 316 386 470
#     4  12  26  47  75 108 154 198 256 322 390 460
#     4  11  25  46  74 110 152 208 254 317 388 476
#
# _framework density 27.219351
#
# number of rings (size 3 to 8) (size 9 to 14) (size 15 to 20)
#    0.000    0.727    1.818    4.364    5.091    4.364 
#    0.000    4.545    0.000    0.000    0.000    0.000 
#    0.000    0.000    0.000    0.000    0.000    0.000 
#
# Total GULP energy -122675.421825 kJ/mol
# GULP energy per Si atom -5576.155537 kJ/mol
# Density = 2.715740 g / cm^3
# Si number density = 27.219351 Si / 1000 Ang^3
#
#
#
# Elastic Constant Matrix: (Units=GPa)
#
#
# Indices 1 2 3 4 5 6 
#
# 1 93.6288 23.6092 20.6410 0.0000 -11.9092 0.0000
# 2 23.6092 135.5871 25.5819 0.0000 11.3249 0.0000
# 3 20.6410 25.5819 77.9452 0.0000 -15.7966 0.0000
# 4 0.0000 0.0000 0.0000 64.1324 0.0000 -3.5482
# 5 -11.9092 11.3249 -15.7966 0.0000 52.6173 0.0000
# 6 0.0000 0.0000 0.0000 -3.5482 0.0000 55.6857
#
#
#
# Elastic Compliance Matrix: (Units=1/GPa)
#
#
# Indices 1 2 3 4 5 6 
#
# 1 0.011925 -0.001903 -0.002027 0.000000 0.002500 0.000000
# 2 -0.001903 0.008522 -0.002930 0.000000 -0.003145 0.000000
# 3 -0.002027 -0.002930 0.015293 0.000000 0.004763 0.000000
# 4 0.000000 0.000000 0.000000 0.015648 0.000000 0.000997
# 5 0.002500 -0.003145 0.004763 0.000000 0.021678 0.000000
# 6 0.000000 0.000000 0.000000 0.000997 0.000000 0.018021
#
#
# Mechanical properties :
#
#
# Convention : Reuss Voigt Hill
#
# Bulk Modulus (GPa) = 45.41194 49.64724 47.52959
# Shear Modulus (GPa) = 44.58383 50.30901 47.44642
#
# Velocity S-wave (km/s) = 4.05155 4.30383 4.17959
# Velocity P-wave (km/s) = 6.21342 6.55565 6.38683
#
# Compressibility (1/GPa) = 0.02202064
#
# Stress axis : x y z
#
# Youngs Moduli (GPa) = 83.85656 117.34007 65.38789
#
# Poissons Ratio (x) = 0.22329 0.13252
# Poissons Ratio (y) = 0.15957 0.19161
# Poissons Ratio (z) = 0.16995 0.34386
#
# Static dielectric constant tensor:
#      x y z
#    x 2.102700 0.000000 -0.086580 
#    y 0.000000 2.125560 0.000000 
#    z -0.086580 0.000000 2.166180 
# 
# From -- ./inp_files/110203.got.cif
#   From: 2010.05.17/outbox.cif.g08.bks.cpg/sg15_56_cif.got.tgz:110203.got - 2010.06.03 18:47:42.
