data_PCOD9299350
_publ_section_title
;
Structure prediction by ZEFSAII (Michael W. Deem and Ramdas Pophale) SiO2 
 PCOD9299350
Probable space group: C 2/C
;
_chemical_formula_sum "Si O2"
_cell_formula_units_Z 56
_cell_length_a 22.574052
_cell_length_b 9.211178
_cell_length_c 11.295249
_cell_angle_alpha 90.000000
_cell_angle_beta 77.665787
_cell_angle_gamma 90.000000
_cell_volume 2294.450554
_symmetry_space_group_name_H-M "C 2/C"
_symmetry_group_IT_number 15
_symmetry_cell_setting 'monoclinic'
loop_
_space_group_symop_operation_xyz
x,y,z
-x,y,1/2-z
-x,-y,-z
x,-y,1/2+z
1/2+x,1/2+y,z
1/2-x,1/2+y,1/2-z
1/2-x,1/2-y,-z
1/2+x,1/2-y,1/2+z
loop_
_atom_site_type_symbol
_atom_site_label
_atom_site_fract_x
_atom_site_fract_y
_atom_site_fract_z
Si Si1 0.169352 0.744359 0.458159
Si Si2 0.435416 0.951775 0.474652
Si Si3 0.000000 0.675046 0.750000
Si Si4 0.500000 0.653445 0.750000
Si Si5 0.548496 0.571800 0.391310
Si Si6 0.756497 0.997288 0.000973
Si Si7 0.396302 0.751914 0.953644
Si Si8 0.783970 0.244856 0.826305
O O1 0.100239 0.692057 0.468053
O O2 0.202235 0.619619 0.521294
O O3 0.183706 0.896088 0.516318
O O4 0.202125 0.751811 0.317323
O O5 0.448040 0.921455 0.330536
O O6 0.500000 0.000000 0.500000
O O7 0.393378 0.090430 0.513290
O O8 0.023464 0.781779 0.842044
O O9 0.449490 0.546652 0.713057
O O10 0.462332 0.742363 0.861897
O O11 0.500000 0.500000 0.500000
O O12 0.603605 0.626795 0.447423
O O13 0.752888 0.097235 0.885433
O O14 0.654241 0.257774 0.123617
O O15 0.750475 0.112688 0.110268
#
# Coordination Sequence:
#
# PCOD9299350 Si02
#       8
#     8   8   4   4   8   8   8   8
#     4  11  25  46  75 101 137 188 230 290 355 416
#     4  12  26  42  66 101 141 180 232 279 349 429
#     4  11  23  40  62  90 137 183 222 280 340 416
#     4   9  21  36  62  86 139 185 228 274 354 420
#     4   9  20  39  58  86 127 181 228 277 333 414
#     4  10  24  49  70 105 138 174 245 290 346 423
#     4  11  22  39  61  98 133 177 227 282 341 424
#     4  11  24  43  74 104 138 180 230 299 356 403
#
# _framework density 24.406714000000001
#
# number of rings (size 3 to 8) (size 9 to 14) (size 15 to 20)
#    0.000    1.429    2.857    1.286    4.000    4.571 
#    0.000    1.429    0.000    0.000    0.000    0.000 
#    0.000    0.000    0.000    0.000    0.000    0.000 
#
# Total GULP energy -156496.629513 kJ/mol
# GULP energy per Si atom -5589.165340 kJ/mol
# Density = 2.435116 g / cm^3
# Si number density = 24.406714 Si / 1000 Ang^3
#
#
#
# Elastic Constant Matrix: (Units=GPa)
#
#
# Indices 1 2 3 4 5 6 
#
# 1 103.1688 47.3421 0.5407 0.0000 0.6545 0.0000
# 2 47.3421 151.5942 29.1341 0.0000 2.3197 0.0000
# 3 0.5407 29.1341 84.3477 0.0000 -0.7779 0.0000
# 4 0.0000 0.0000 0.0000 38.0977 0.0000 -2.3143
# 5 0.6545 2.3197 -0.7779 0.0000 32.0401 0.0000
# 6 0.0000 0.0000 0.0000 -2.3143 0.0000 47.0531
#
#
#
# Elastic Compliance Matrix: (Units=1/GPa)
#
#
# Indices 1 2 3 4 5 6 
#
# 1 0.011435 -0.003811 0.001244 0.000000 0.000073 0.000000
# 2 -0.003811 0.008346 -0.002864 0.000000 -0.000596 0.000000
# 3 0.001244 -0.002864 0.012841 0.000000 0.000494 0.000000
# 4 0.000000 0.000000 0.000000 0.026327 0.000000 0.001295
# 5 0.000073 -0.000596 0.000494 0.000000 0.031265 0.000000
# 6 0.000000 0.000000 0.000000 0.001295 0.000000 0.021316
#
#
# Mechanical properties :
#
#
# Convention : Reuss Voigt Hill
#
# Bulk Modulus (GPa) = 45.95610 54.79382 50.37496
# Shear Modulus (GPa) = 38.56649 40.91109 39.73879
#
# Velocity S-wave (km/s) = 3.97943 4.09861 4.03946
# Velocity P-wave (km/s) = 6.32334 6.70054 6.51467
#
# Compressibility (1/GPa) = 0.02175990
#
# Stress axis : x y z
#
# Youngs Moduli (GPa) = 87.45277 119.81386 77.87265
#
# Poissons Ratio (x) = 0.45663 -0.09686
# Poissons Ratio (y) = 0.33330 0.22302
# Poissons Ratio (z) = -0.10877 0.34314
#
# Static dielectric constant tensor:
#      x y z
#    x 1.986430 0.000000 -0.018780 
#    y 0.000000 1.955790 0.000000 
#    z -0.018780 0.000000 1.935410 
# 
# From -- ./inp_files/122407.got.cif
#   From: 2010.05.17/outbox.cif.g08.bks.cpg/sg15_62_cif.got.tgz:122407.got - 2010.06.03 18:47:42.
