data_PCOD9299824
_publ_section_title
;
Structure prediction by ZEFSAII (Michael W. Deem and Ramdas Pophale) SiO2 
 PCOD9299824
Probable space group: C 2/C
;
_chemical_formula_sum "Si O2"
_cell_formula_units_Z 44
_cell_length_a 29.853984
_cell_length_b 7.951844
_cell_length_c 23.630342
_cell_angle_alpha 90.000000
_cell_angle_beta 18.350108
_cell_angle_gamma 90.000000
_cell_volume 1766.062757
_symmetry_space_group_name_H-M "C 2/C"
_symmetry_group_IT_number 15
_symmetry_cell_setting 'monoclinic'
loop_
_space_group_symop_operation_xyz
x,y,z
-x,y,1/2-z
-x,-y,-z
x,-y,1/2+z
1/2+x,1/2+y,z
1/2-x,1/2+y,1/2-z
1/2-x,1/2-y,-z
1/2+x,1/2-y,1/2+z
loop_
_atom_site_type_symbol
_atom_site_label
_atom_site_fract_x
_atom_site_fract_y
_atom_site_fract_z
Si Si1 0.000000 0.879439 0.750000
Si Si2 0.667027 0.132767 0.467625
Si Si3 0.922525 0.939271 0.536653
Si Si4 0.953805 0.610364 0.159790
Si Si5 0.341590 0.922310 0.200836
Si Si6 0.133070 0.940277 0.189453
O O1 0.086177 0.762914 0.604008
O O2 0.110671 0.985419 0.654931
O O3 0.552033 0.033904 0.567691
O O4 0.736485 0.998721 0.427991
O O5 0.784787 0.238072 0.289456
O O6 0.765326 0.005202 0.717477
O O7 0.004434 0.011298 0.383543
O O8 0.000000 0.000000 0.500000
O O9 0.824199 0.533468 0.279820
O O10 0.890566 0.740331 0.281159
O O11 0.052063 0.740188 0.003748
O O12 0.500000 0.000000 0.000000
#
# Coordination Sequence:
#
# PCOD9299824 Si02
#       6
#     4   8   8   8   8   8
#     4  12  24  50  80 110 158 210 270 344 394 488
#     4  12  25  50  75 116 155 210 271 332 408 482
#     4  10  25  50  75 113 162 207 261 325 408 486
#     4  10  26  47  76 113 157 205 265 330 402 481
#     4  12  28  44  77 116 160 207 259 324 403 485
#     4  10  25  46  77 107 156 204 273 323 400 475
#
# _framework density 24.914178
#
# number of rings (size 3 to 8) (size 9 to 14) (size 15 to 20)
#    1.091    0.000    1.818    2.727    5.091    0.727 
#    0.000    3.636    0.000    0.000    0.000    0.000 
#    0.000    0.000    0.000    0.000    0.000    0.000 
#
# Total GULP energy -122884.914170 kJ/mol
# GULP energy per Si atom -5585.677917 kJ/mol
# Density = 2.485747 g / cm^3
# Si number density = 24.914178 Si / 1000 Ang^3
#
#
#
# Elastic Constant Matrix: (Units=GPa)
#
#
# Indices 1 2 3 4 5 6 
#
# 1 189.2724 79.5573 38.3304 -0.0052 -13.1586 0.0023
# 2 79.5573 162.1151 42.5435 -0.0037 -1.1596 0.0015
# 3 38.3304 42.5435 72.1825 0.0012 -1.6882 -0.0025
# 4 -0.0052 -0.0037 0.0012 -19.0395 0.0007 -1.4146
# 5 -13.1586 -1.1596 -1.6882 0.0007 31.8505 0.0003
# 6 0.0023 0.0015 -0.0025 -1.4146 0.0003 36.9310
#
#
#
# Elastic Compliance Matrix: (Units=1/GPa)
#
#
# Indices 1 2 3 4 5 6 
#
# 1 0.007114 -0.002954 -0.001973 -0.000001 0.002727 -0.000001
# 2 -0.002954 0.008524 -0.003481 -0.000001 -0.001095 0.000000
# 3 -0.001973 -0.003481 0.016952 0.000002 -0.000043 0.000002
# 4 -0.000001 -0.000001 0.000002 -0.052373 0.000001 -0.002006
# 5 0.002727 -0.001095 -0.000043 0.000001 0.032481 0.000000
# 6 -0.000001 0.000000 0.000002 -0.002006 0.000000 0.027001
#
#
# Mechanical properties :
#
#
# Convention : Reuss Voigt Hill
#
# Bulk Modulus (GPa) = 63.39353 82.71470 73.05412
# Shear Modulus (GPa) = 80.94286 27.49099 54.21692
#
# Velocity S-wave (km/s) = 5.70607 3.32539 4.66998
# Velocity P-wave (km/s) = 8.30134 6.92937 7.64619
#
# Compressibility (1/GPa) = 0.01577448
#
# Stress axis : x y z
#
# Youngs Moduli (GPa) = 140.56414 117.31954 58.99021
#
# Poissons Ratio (x) = 0.34656 0.11639
# Poissons Ratio (y) = 0.41523 0.20533
# Poissons Ratio (z) = 0.27733 0.40836
#
# Static dielectric constant tensor:
#      x y z
#    x 2.031070 0.000000 0.113240 
#    y 0.000000 2.035690 0.000000 
#    z 0.113240 0.000000 2.252680 
# 
# From -- ./inp_files/223021.got.cif
#   From: 2010.05.17/outbox.cif.g08.bks.cpg/sg15_112_cif.got.tgz:223021.got - 2010.06.03 18:47:42.
