data_PCOD9299710
_publ_section_title
;
Structure prediction by ZEFSAII (Michael W. Deem and Ramdas Pophale) SiO2 
 PCOD9299710
Probable space group: C 2/C
;
_chemical_formula_sum "Si O2"
_cell_formula_units_Z 28
_cell_length_a 9.755412
_cell_length_b 25.912752
_cell_length_c 9.429161
_cell_angle_alpha 90.000000
_cell_angle_beta 29.766784
_cell_angle_gamma 90.000000
_cell_volume 1183.384629
_symmetry_space_group_name_H-M "C 2/C"
_symmetry_group_IT_number 15
_symmetry_cell_setting 'monoclinic'
loop_
_space_group_symop_operation_xyz
x,y,z
-x,y,1/2-z
-x,-y,-z
x,-y,1/2+z
1/2+x,1/2+y,z
1/2-x,1/2+y,1/2-z
1/2-x,1/2-y,-z
1/2+x,1/2-y,1/2+z
loop_
_atom_site_type_symbol
_atom_site_label
_atom_site_fract_x
_atom_site_fract_y
_atom_site_fract_z
Si Si1 0.500000 0.211935 0.250000
Si Si2 0.748484 0.135398 0.246319
Si Si3 0.500000 0.490211 0.750000
Si Si4 0.000000 0.788856 0.750000
Si Si5 0.761421 0.934865 0.241082
O O1 0.567021 0.174092 0.317615
O O2 0.250000 0.250000 0.500000
O O3 0.911103 0.172117 0.207282
O O4 0.531101 0.093914 0.502537
O O5 0.987844 0.104634 0.950376
O O6 0.657438 0.458353 0.485438
O O7 0.714475 0.523988 0.652494
O O8 0.250000 0.750000 0.500000
#
# Coordination Sequence:
#
# PCOD9299710 Si02
#       5
#     4   8   4   4   8
#     4  12  24  43  70 102 138 180 230 287 348 414
#     4  12  25  44  70 101 139 181 231 287 349 416
#     4  10  25  45  70 102 140 186 236 291 351 416
#     4  12  25  44  68  98 136 178 224 278 343 414
#     4  11  25  44  70 101 140 184 234 289 349 415
#
# _framework density 23.660947
#
# number of rings (size 3 to 8) (size 9 to 14) (size 15 to 20)
#    0.000    0.571    0.000    7.714    0.000   10.286 
#    0.000    0.000    0.000    0.000    0.000    0.000 
#    0.000    0.000    0.000    0.000    0.000    0.000 
#
# Total GULP energy -78459.289475 kJ/mol
# GULP energy per Si atom -5604.234962 kJ/mol
# Density = 2.360709 g / cm^3
# Si number density = 23.660947 Si / 1000 Ang^3
#
#
#
# Elastic Constant Matrix: (Units=GPa)
#
#
# Indices 1 2 3 4 5 6 
#
# 1 147.2497 60.5224 33.4135 0.0000 9.9611 0.0000
# 2 60.5224 133.5013 51.4905 0.0000 -3.5038 0.0000
# 3 33.4135 51.4905 121.2198 0.0000 -32.1743 0.0000
# 4 0.0000 0.0000 0.0000 53.7509 0.0000 -19.8246
# 5 9.9611 -3.5038 -32.1743 0.0000 43.4941 0.0000
# 6 0.0000 0.0000 0.0000 -19.8246 0.0000 63.7888
#
#
#
# Elastic Compliance Matrix: (Units=1/GPa)
#
#
# Indices 1 2 3 4 5 6 
#
# 1 0.008886 -0.003341 -0.002043 0.000000 -0.003816 0.000000
# 2 -0.003341 0.010458 -0.003851 0.000000 -0.001241 0.000000
# 3 -0.002043 -0.003851 0.013053 0.000000 0.009814 0.000000
# 4 0.000000 0.000000 0.000000 0.021013 0.000000 0.006531
# 5 -0.003816 -0.001241 0.009814 0.000000 0.031025 0.000000
# 6 0.000000 0.000000 0.000000 0.006531 0.000000 0.017706
#
#
# Mechanical properties :
#
#
# Convention : Reuss Voigt Hill
#
# Bulk Modulus (GPa) = 71.79826 76.98040 74.38933
# Shear Modulus (GPa) = 39.91952 49.30972 44.61462
#
# Velocity S-wave (km/s) = 4.11195 4.57005 4.34704
# Velocity P-wave (km/s) = 7.27699 7.77513 7.53018
#
# Compressibility (1/GPa) = 0.01392791
#
# Stress axis : x y z
#
# Youngs Moduli (GPa) = 112.53721 95.62440 76.61073
#
# Poissons Ratio (x) = 0.31944 0.15653
# Poissons Ratio (y) = 0.37594 0.29500
# Poissons Ratio (z) = 0.22993 0.36821
#
# Static dielectric constant tensor:
#      x y z
#    x 1.863670 0.000000 0.017570 
#    y 0.000000 1.951860 0.000000 
#    z 0.017570 0.000000 1.865640 
# 
# From -- ./inp_files/24222.got.cif
#   From: 2010.05.17/outbox.cif.g08.bks.cpg/sg15_13_cif.got.tgz:24222.got - 2010.06.03 18:47:42.
