data_PCOD9299620
_publ_section_title
;
Structure prediction by ZEFSAII (Michael W. Deem and Ramdas Pophale) SiO2 
 PCOD9299620
Probable space group: C 2/C
;
_chemical_formula_sum "Si O2"
_cell_formula_units_Z 60
_cell_length_a 20.574050
_cell_length_b 17.469277
_cell_length_c 11.843236
_cell_angle_alpha 90.000000
_cell_angle_beta 38.408371
_cell_angle_gamma 90.000000
_cell_volume 2644.478781
_symmetry_space_group_name_H-M "C 2/C"
_symmetry_group_IT_number 15
_symmetry_cell_setting 'monoclinic'
loop_
_space_group_symop_operation_xyz
x,y,z
-x,y,1/2-z
-x,-y,-z
x,-y,1/2+z
1/2+x,1/2+y,z
1/2-x,1/2+y,1/2-z
1/2-x,1/2-y,-z
1/2+x,1/2-y,1/2+z
loop_
_atom_site_type_symbol
_atom_site_label
_atom_site_fract_x
_atom_site_fract_y
_atom_site_fract_z
Si Si1 0.548079 0.197050 0.937572
Si Si2 0.802734 0.167833 0.191017
Si Si3 0.376654 0.264722 0.022442
Si Si4 0.000000 0.114941 0.250000
Si Si5 0.692331 0.946405 0.191321
Si Si6 0.215572 0.107737 0.702926
Si Si7 0.347728 0.115714 0.304289
Si Si8 0.627098 0.463127 0.743878
O O1 0.613766 0.262802 0.912706
O O2 0.620739 0.129144 0.791343
O O3 0.486175 0.232695 0.916194
O O4 0.454355 0.161812 0.139779
O O5 0.704632 0.199713 0.398700
O O6 0.745912 0.147581 0.149810
O O7 0.850605 0.092365 0.181693
O O8 0.326892 0.312042 0.194620
O O9 0.401182 0.329784 0.899436
O O10 0.978838 0.063372 0.171613
O O11 0.744383 0.940107 0.243901
O O12 0.633716 0.027454 0.257312
O O13 0.778517 0.950343 0.974923
O O14 0.306635 0.119243 0.487761
O O15 0.129682 0.053005 0.764025
#
# Coordination Sequence:
#
# PCOD9299620 Si02
#       8
#     8   8   8   4   8   8   8   8
#     4  11  23  42  68  98 131 170 219 271 325 394
#     4  11  22  43  67  98 134 168 215 270 331 384
#     4  11  25  41  65  99 135 169 212 276 324 392
#     4  12  22  40  64 100 128 172 222 264 332 378
#     4  11  22  45  68  97 127 171 219 276 326 378
#     4  11  23  47  65  91 138 172 216 267 324 385
#     4  10  25  44  68  95 132 176 219 266 321 395
#     4  11  24  41  72  93 129 174 215 277 322 381
#
# _framework density 22.688780999999999
#
# number of rings (size 3 to 8) (size 9 to 14) (size 15 to 20)
#    0.000    1.067    5.333    0.400    1.867    4.267 
#    7.200    0.000    0.000    0.000    0.000    0.000 
#    0.000    0.000    0.000    0.000    0.000    0.000 
#
# Total GULP energy -167672.008691 kJ/mol
# GULP energy per Si atom -5589.066956 kJ/mol
# Density = 2.263714 g / cm^3
# Si number density = 22.688781 Si / 1000 Ang^3
#
#
#
# Elastic Constant Matrix: (Units=GPa)
#
#
# Indices 1 2 3 4 5 6 
#
# 1 53.4243 15.8389 14.8828 0.0000 -6.7107 0.0000
# 2 15.8389 88.0066 9.7180 0.0000 -9.4678 0.0000
# 3 14.8828 9.7180 84.7842 0.0000 7.8808 0.0000
# 4 0.0000 0.0000 0.0000 30.3795 0.0000 -8.5121
# 5 -6.7107 -9.4678 7.8808 0.0000 22.9273 0.0000
# 6 0.0000 0.0000 0.0000 -8.5121 0.0000 34.1818
#
#
#
# Elastic Compliance Matrix: (Units=1/GPa)
#
#
# Indices 1 2 3 4 5 6 
#
# 1 0.021480 -0.002710 -0.004070 0.000000 0.006567 0.000000
# 2 -0.002710 0.012530 -0.001413 0.000000 0.004867 0.000000
# 3 -0.004070 -0.001413 0.013260 0.000000 -0.006333 0.000000
# 4 0.000000 0.000000 0.000000 0.035386 0.000000 0.008812
# 5 0.006567 0.004867 -0.006333 0.000000 0.049725 0.000000
# 6 0.000000 0.000000 0.000000 0.008812 0.000000 0.031450
#
#
# Mechanical properties :
#
#
# Convention : Reuss Voigt Hill
#
# Bulk Modulus (GPa) = 32.37954 34.12160 33.25057
# Shear Modulus (GPa) = 26.24511 29.88275 28.06393
#
# Velocity S-wave (km/s) = 3.40478 3.63309 3.52079
# Velocity P-wave (km/s) = 5.45517 5.71583 5.58702
#
# Compressibility (1/GPa) = 0.03088370
#
# Stress axis : x y z
#
# Youngs Moduli (GPa) = 46.55424 79.80794 75.41630
#
# Poissons Ratio (x) = 0.21627 0.30698
# Poissons Ratio (y) = 0.12616 0.10655
# Poissons Ratio (z) = 0.18950 0.11276
#
# Static dielectric constant tensor:
#      x y z
#    x 1.846710 0.000000 -0.011290 
#    y 0.000000 1.843030 0.000000 
#    z -0.011290 0.000000 1.872820 
# 
# From -- ./inp_files/113779.got.cif
#   From: 2010.05.17/outbox.cif.g08.bks.cpg/sg15_57_cif.got.tgz:113779.got - 2010.06.03 18:47:42.
