data_PCOD9299162
_publ_section_title
;
Structure prediction by ZEFSAII (Michael W. Deem and Ramdas Pophale) SiO2 
 PCOD9299162
Probable space group: C 2/C
;
_chemical_formula_sum "Si O2"
_cell_formula_units_Z 52
_cell_length_a 26.707065
_cell_length_b 9.497054
_cell_length_c 15.060813
_cell_angle_alpha 90.000000
_cell_angle_beta 35.915626
_cell_angle_gamma 90.000000
_cell_volume 2240.786869
_symmetry_space_group_name_H-M "C 2/C"
_symmetry_group_IT_number 15
_symmetry_cell_setting 'monoclinic'
loop_
_space_group_symop_operation_xyz
x,y,z
-x,y,1/2-z
-x,-y,-z
x,-y,1/2+z
1/2+x,1/2+y,z
1/2-x,1/2+y,1/2-z
1/2-x,1/2-y,-z
1/2+x,1/2-y,1/2+z
loop_
_atom_site_type_symbol
_atom_site_label
_atom_site_fract_x
_atom_site_fract_y
_atom_site_fract_z
Si Si1 0.904160 0.683689 0.377205
Si Si2 0.000000 0.408946 0.250000
Si Si3 0.722454 0.600036 0.352897
Si Si4 0.441657 0.802445 0.151070
Si Si5 0.262611 0.908433 0.444864
Si Si6 0.604798 0.787030 0.817516
Si Si7 0.157980 0.020818 0.253846
O O1 0.839160 0.772005 0.529376
O O2 0.879599 0.696025 0.309495
O O3 0.000000 0.747255 0.250000
O O4 0.921563 0.519697 0.376280
O O5 0.014850 0.316871 0.315380
O O6 0.709965 0.465076 0.436057
O O7 0.818215 0.650994 0.235161
O O8 0.703372 0.560525 0.280046
O O9 0.360618 0.905981 0.273327
O O10 0.402615 0.649371 0.188002
O O11 0.488713 0.159501 0.022260
O O12 0.250000 0.750000 0.500000
O O13 0.229361 0.000352 0.574872
O O14 0.605334 0.621054 0.837751
#
# Coordination Sequence:
#
# PCOD9299162 Si02
#       7
#     8   4   8   8   8   8   8
#     4  10  24  47  72 107 145 198 251 308 376 451
#     4  10  26  44  78 102 146 198 248 312 378 436
#     4  12  26  46  79 108 150 199 251 312 383 452
#     4  11  26  48  71 109 149 192 255 314 373 458
#     4  10  25  49  73 105 152 195 249 316 371 456
#     4  12  26  46  74 111 148 197 254 315 380 463
#     4  11  27  47  76 107 152 202 252 309 395 454
#
# _framework density 23.206135
#
# number of rings (size 3 to 8) (size 9 to 14) (size 15 to 20)
#    0.462    0.615    1.538    2.769    8.615    3.692 
#    1.385    0.000    0.000    0.000    0.000    0.000 
#    0.000    0.000    0.000    0.000    0.000    0.000 
#
# Total GULP energy -145462.327160 kJ/mol
# GULP energy per Si atom -5594.704891 kJ/mol
# Density = 2.315332 g / cm^3
# Si number density = 23.206135 Si / 1000 Ang^3
#
#
#
# Elastic Constant Matrix: (Units=GPa)
#
#
# Indices 1 2 3 4 5 6 
#
# 1 133.2358 53.3036 44.6137 -0.0001 20.9137 0.0003
# 2 53.3036 109.5757 17.3786 -0.0005 4.2603 0.0004
# 3 44.6137 17.3786 130.5307 -0.0002 -13.6130 0.0002
# 4 -0.0001 -0.0005 -0.0002 8.9995 0.0001 -7.0768
# 5 20.9137 4.2603 -13.6130 0.0001 47.7560 -0.0001
# 6 0.0003 0.0004 0.0002 -7.0768 -0.0001 20.6026
#
#
#
# Elastic Compliance Matrix: (Units=1/GPa)
#
#
# Indices 1 2 3 4 5 6 
#
# 1 0.011671 -0.004825 -0.003952 0.000000 -0.005807 0.000000
# 2 -0.004825 0.011387 0.000255 0.000001 0.001170 0.000000
# 3 -0.003952 0.000255 0.009437 0.000000 0.004398 0.000000
# 4 0.000000 0.000001 0.000000 0.152239 0.000000 0.052293
# 5 -0.005807 0.001170 0.004398 0.000000 0.024632 0.000000
# 6 0.000000 0.000000 0.000000 0.052293 0.000000 0.066500
#
#
# Mechanical properties :
#
#
# Convention : Reuss Voigt Hill
#
# Bulk Modulus (GPa) = 64.72241 67.10379 65.91310
# Shear Modulus (GPa) = 16.77520 32.67470 24.72495
#
# Velocity S-wave (km/s) = 2.69156 3.75643 3.26766
# Velocity P-wave (km/s) = 6.13270 6.91329 6.53466
#
# Compressibility (1/GPa) = 0.01545060
#
# Stress axis : x y z
#
# Youngs Moduli (GPa) = 85.68591 87.81829 105.97115
#
# Poissons Ratio (x) = 0.42369 0.41881
# Poissons Ratio (y) = 0.41340 -0.02701
# Poissons Ratio (z) = 0.33864 -0.02239
#
# Static dielectric constant tensor:
#      x y z
#    x 1.844060 0.000000 -0.046880 
#    y 0.000000 1.974820 0.000000 
#    z -0.046880 0.000000 1.893030 
# 
# From -- ./inp_files/176135.got.cif
#   From: 2010.05.17/outbox.cif.g08.bks.cpg/sg15_89_cif.got.tgz:176135.got - 2010.06.03 18:47:42.
