data_PCOD9299787
_publ_section_title
;
Structure prediction by ZEFSAII (Michael W. Deem and Ramdas Pophale) SiO2 
 PCOD9299787
Probable space group: C 2/C
;
_chemical_formula_sum "Si O2"
_cell_formula_units_Z 48
_cell_length_a 20.308617
_cell_length_b 7.783393
_cell_length_c 17.216034
_cell_angle_alpha 90.000000
_cell_angle_beta 127.917758
_cell_angle_gamma 90.000000
_cell_volume 2146.845965
_symmetry_space_group_name_H-M "C 2/C"
_symmetry_group_IT_number 15
_symmetry_cell_setting 'monoclinic'
loop_
_space_group_symop_operation_xyz
x,y,z
-x,y,1/2-z
-x,-y,-z
x,-y,1/2+z
1/2+x,1/2+y,z
1/2-x,1/2+y,1/2-z
1/2-x,1/2-y,-z
1/2+x,1/2-y,1/2+z
loop_
_atom_site_type_symbol
_atom_site_label
_atom_site_fract_x
_atom_site_fract_y
_atom_site_fract_z
Si Si1 0.406132 0.504096 0.965394
Si Si2 0.981093 0.197915 0.656853
Si Si3 0.679013 0.106277 0.437478
Si Si4 0.782212 0.299174 0.936167
Si Si5 0.691474 0.752501 0.217690
Si Si6 0.847939 0.383384 0.756637
O O1 0.435549 0.782939 0.816809
O O2 0.354171 0.674720 0.952390
O O3 0.357443 0.386146 0.868640
O O4 0.422924 0.409601 0.058474
O O5 0.000000 0.096488 0.750000
O O6 0.000000 0.000000 0.500000
O O7 0.750000 0.250000 0.500000
O O8 0.581992 0.154494 0.363421
O O9 0.684944 0.986205 0.517007
O O10 0.688736 0.053527 0.353699
O O11 0.709696 0.307999 0.819169
O O12 0.750000 0.250000 0.000000
O O13 0.781897 0.751065 0.242849
O O14 0.651312 0.941820 0.192406
#
# Coordination Sequence:
#
# PCOD9299787 Si02
#       6
#     8   8   8   8   8   8
#     4  12  28  47  68 112 150 192 253 314 390 462
#     4  10  25  46  71 102 144 196 245 311 381 455
#     4  11  24  46  77 104 147 190 253 310 383 468
#     4  12  25  47  74 111 143 198 256 312 385 467
#     4  12  25  45  70 104 149 187 253 311 382 464
#     4  11  25  46  69 109 141 198 250 311 394 452
#
# _framework density 22.358381000000001
#
# number of rings (size 3 to 8) (size 9 to 14) (size 15 to 20)
#    0.000    0.667    3.333    3.000    7.000    3.333 
#    0.000    0.000    0.000    0.000    0.000    0.000 
#    0.000    0.000    0.000    0.000    0.000    0.000 
#
# Total GULP energy -133823.751197 kJ/mol
# GULP energy per Si atom -5575.989633 kJ/mol
# Density = 2.230749 g / cm^3
# Si number density = 22.358381 Si / 1000 Ang^3
#
#
#
# Elastic Constant Matrix: (Units=GPa)
#
#
# Indices 1 2 3 4 5 6 
#
# 1 142.3694 37.6853 27.4076 0.0000 8.5856 0.0000
# 2 37.6853 103.6022 55.4299 0.0000 5.3384 0.0000
# 3 27.4076 55.4299 167.0011 0.0000 4.7187 0.0000
# 4 0.0000 0.0000 0.0000 37.4596 0.0000 -5.4675
# 5 8.5856 5.3384 4.7187 0.0000 33.8971 0.0000
# 6 0.0000 0.0000 0.0000 -5.4675 0.0000 27.2908
#
#
#
# Elastic Compliance Matrix: (Units=1/GPa)
#
#
# Indices 1 2 3 4 5 6 
#
# 1 0.007874 -0.002574 -0.000395 0.000000 -0.001534 0.000000
# 2 -0.002574 0.012636 -0.003749 0.000000 -0.000816 0.000000
# 3 -0.000395 -0.003749 0.007306 0.000000 -0.000327 0.000000
# 4 0.000000 0.000000 0.000000 0.027500 0.000000 0.005509
# 5 -0.001534 -0.000816 -0.000327 0.000000 0.030064 0.000000
# 6 0.000000 0.000000 0.000000 0.005509 0.000000 0.037746
#
#
# Mechanical properties :
#
#
# Convention : Reuss Voigt Hill
#
# Bulk Modulus (GPa) = 69.53161 72.66867 71.10014
# Shear Modulus (GPa) = 35.37224 39.22617 37.29920
#
# Velocity S-wave (km/s) = 3.98182 4.19313 4.08884
# Velocity P-wave (km/s) = 7.23229 7.48435 7.35940
#
# Compressibility (1/GPa) = 0.01438195
#
# Stress axis : x y z
#
# Youngs Moduli (GPa) = 127.00396 79.13728 136.87012
#
# Poissons Ratio (x) = 0.20370 0.05400
# Poissons Ratio (y) = 0.32690 0.51308
# Poissons Ratio (z) = 0.05011 0.29666
#
# Static dielectric constant tensor:
#      x y z
#    x 1.913210 0.000000 -0.044940 
#    y 0.000000 2.016520 0.000000 
#    z -0.044940 0.000000 1.783580 
# 
# From -- ./inp_files/175943.got.cif
#   From: 2010.05.17/outbox.cif.g08.bks.cpg/sg15_88_cif.got.tgz:175943.got - 2010.06.03 18:47:42.
