data_PCOD9299170
_publ_section_title
;
Structure prediction by ZEFSAII (Michael W. Deem and Ramdas Pophale) SiO2 
 PCOD9299170
Probable space group: C 2/C
;
_chemical_formula_sum "Si O2"
_cell_formula_units_Z 56
_cell_length_a 14.244990
_cell_length_b 16.082808
_cell_length_c 17.563723
_cell_angle_alpha 90.000000
_cell_angle_beta 144.799508
_cell_angle_gamma 90.000000
_cell_volume 2319.499120
_symmetry_space_group_name_H-M "C 2/C"
_symmetry_group_IT_number 15
_symmetry_cell_setting 'monoclinic'
loop_
_space_group_symop_operation_xyz
x,y,z
-x,y,1/2-z
-x,-y,-z
x,-y,1/2+z
1/2+x,1/2+y,z
1/2-x,1/2+y,1/2-z
1/2-x,1/2-y,-z
1/2+x,1/2-y,1/2+z
loop_
_atom_site_type_symbol
_atom_site_label
_atom_site_fract_x
_atom_site_fract_y
_atom_site_fract_z
Si Si1 0.099391 0.330336 0.474956
Si Si2 0.701607 0.906856 0.143758
Si Si3 0.206637 0.634295 0.327478
Si Si4 0.130833 0.673897 0.435220
Si Si5 0.731449 0.584472 0.292383
Si Si6 0.869878 0.140795 0.039307
Si Si7 0.944203 0.907155 0.435439
O O1 0.195800 0.334119 0.619552
O O2 0.082608 0.238149 0.430512
O O3 0.223384 0.374888 0.499230
O O4 0.931779 0.373965 0.384983
O O5 0.671749 0.859366 0.045437
O O6 0.869972 0.902023 0.302744
O O7 0.695406 0.004102 0.119124
O O8 0.169983 0.610451 0.390601
O O9 0.204933 0.575092 0.252329
O O10 0.059693 0.695550 0.206207
O O11 0.250000 0.750000 0.500000
O O12 0.101194 0.845862 0.544948
O O13 0.536781 0.591870 0.168345
O O14 0.823169 0.119348 0.922017
O O15 0.000000 0.000000 0.500000
#
# Coordination Sequence:
#
# PCOD9299170 Si02
#       7
#     8   8   8   8   8   8   8
#     4  11  25  44  78 109 144 198 261 313 392 465
#     4  12  26  47  80 113 152 204 264 316 395 481
#     4  10  24  47  73 103 157 192 253 322 379 456
#     4  11  27  47  75 114 152 207 266 316 391 474
#     4  11  23  48  76 109 152 197 254 326 392 458
#     4  10  25  46  72 109 151 193 250 327 386 458
#     4  11  24  47  73 110 157 200 247 319 397 458
#
# _framework density 24.143142999999998
#
# number of rings (size 3 to 8) (size 9 to 14) (size 15 to 20)
#    0.000    1.143    4.286    0.857    6.000    4.571 
#    5.143    0.000    0.000    0.000    0.000    0.000 
#    0.000    0.000    0.000    0.000    0.000    0.000 
#
# Total GULP energy -156140.242036 kJ/mol
# GULP energy per Si atom -5576.437216 kJ/mol
# Density = 2.408819 g / cm^3
# Si number density = 24.143143 Si / 1000 Ang^3
#
#
#
# Elastic Constant Matrix: (Units=GPa)
#
#
# Indices 1 2 3 4 5 6 
#
# 1 167.5426 52.7566 60.1961 0.0002 -1.4384 -0.0001
# 2 52.7566 85.1991 36.5730 0.0009 9.2641 0.0003
# 3 60.1961 36.5730 164.6539 0.0018 -10.1871 0.0007
# 4 0.0002 0.0009 0.0018 31.4736 0.0009 -1.1386
# 5 -1.4384 9.2641 -10.1871 0.0009 29.2011 0.0003
# 6 -0.0001 0.0003 0.0007 -1.1386 0.0003 20.5029
#
#
#
# Elastic Compliance Matrix: (Units=1/GPa)
#
#
# Indices 1 2 3 4 5 6 
#
# 1 0.008005 -0.004251 -0.001916 0.000000 0.001075 0.000000
# 2 -0.004251 0.016065 -0.002394 0.000000 -0.006141 0.000000
# 3 -0.001916 -0.002394 0.007509 0.000000 0.003285 0.000000
# 4 0.000000 0.000000 0.000000 0.031837 -0.000001 0.001768
# 5 0.001075 -0.006141 0.003285 -0.000001 0.037392 -0.000001
# 6 0.000000 0.000000 0.000000 0.001768 -0.000001 0.048872
#
#
# Mechanical properties :
#
#
# Convention : Reuss Voigt Hill
#
# Bulk Modulus (GPa) = 69.17301 79.60522 74.38912
# Shear Modulus (GPa) = 29.13407 34.09352 31.61380
#
# Velocity S-wave (km/s) = 3.47756 3.76192 3.62253
# Velocity P-wave (km/s) = 6.69612 7.20508 6.95526
#
# Compressibility (1/GPa) = 0.01445651
#
# Stress axis : x y z
#
# Youngs Moduli (GPa) = 124.92529 62.24670 133.17834
#
# Poissons Ratio (x) = 0.26462 0.25513
# Poissons Ratio (y) = 0.53108 0.31885
# Poissons Ratio (z) = 0.23932 0.14903
#
# Static dielectric constant tensor:
#      x y z
#    x 1.963150 0.000000 -0.004780 
#    y 0.000000 2.010600 0.000000 
#    z -0.004780 0.000000 1.983530 
# 
# From -- ./inp_files/244552.got.cif
#   From: 2010.05.17/outbox.cif.g08.bks.cpg/sg15_123_cif.got.tgz:244552.got - 2010.06.03 18:47:42.
