data_PCOD9299466
_publ_section_title
;
Structure prediction by ZEFSAII (Michael W. Deem and Ramdas Pophale) SiO2 
 PCOD9299466
Probable space group: C 2/C
;
_chemical_formula_sum "Si O2"
_cell_formula_units_Z 64
_cell_length_a 23.525876
_cell_length_b 14.047417
_cell_length_c 14.635677
_cell_angle_alpha 90.000000
_cell_angle_beta 36.858754
_cell_angle_gamma 90.000000
_cell_volume 2901.307088
_symmetry_space_group_name_H-M "C 2/C"
_symmetry_group_IT_number 15
_symmetry_cell_setting 'monoclinic'
loop_
_space_group_symop_operation_xyz
x,y,z
-x,y,1/2-z
-x,-y,-z
x,-y,1/2+z
1/2+x,1/2+y,z
1/2-x,1/2+y,1/2-z
1/2-x,1/2-y,-z
1/2+x,1/2-y,1/2+z
loop_
_atom_site_type_symbol
_atom_site_label
_atom_site_fract_x
_atom_site_fract_y
_atom_site_fract_z
Si Si1 0.409749 0.433594 0.726330
Si Si2 0.989145 0.119375 0.941676
Si Si3 0.795904 0.030887 0.117333
Si Si4 0.512639 0.828610 0.841296
Si Si5 0.322039 0.340260 0.001198
Si Si6 0.300682 0.129765 0.007033
Si Si7 0.222811 0.362006 0.535892
Si Si8 0.155925 0.533435 0.948196
O O1 0.436721 0.544665 0.697475
O O2 0.483094 0.395499 0.557878
O O3 0.404279 0.374231 0.826190
O O4 0.302390 0.412095 0.830281
O O5 0.008481 0.227901 0.895866
O O6 0.885690 0.089072 0.038054
O O7 0.778329 0.072704 0.037960
O O8 0.706185 0.022636 0.300358
O O9 0.822205 0.919292 0.077286
O O10 0.500000 0.807613 0.750000
O O11 0.616957 0.870116 0.712343
O O12 0.429754 0.900971 0.975161
O O13 0.223166 0.351885 0.069171
O O14 0.325395 0.230196 0.019871
O O15 0.373815 0.049531 0.942015
O O16 0.250000 0.250000 0.500000
O O17 0.218915 0.399457 0.435860
#
# Coordination Sequence:
#
# PCOD9299466 Si02
#       8
#     8   8   8   8   8   8   8   8
#     4   9  20  38  60  90 136 166 206 283 332 381
#     4  11  23  38  63 101 134 164 223 277 332 395
#     4  12  23  38  72  95 127 186 217 273 338 405
#     4  10  25  41  64  96 134 176 216 285 330 395
#     4   9  20  35  65  91 119 171 218 259 333 393
#     4   9  18  39  62  86 125 169 208 266 327 387
#     4  11  25  44  69 100 133 179 222 277 346 405
#     4  11  23  42  65  96 136 168 228 269 333 407
#
# _framework density 22.059021999999999
#
# number of rings (size 3 to 8) (size 9 to 14) (size 15 to 20)
#    0.750    1.000    2.500    1.500    7.000    1.500 
#    0.000    0.000   11.000    0.000    0.000    0.000 
#    0.000    0.000    0.000    0.000    0.000    0.000 
#
# Total GULP energy -178319.106760 kJ/mol
# GULP energy per Si atom -5572.472086 kJ/mol
# Density = 2.200881 g / cm^3
# Si number density = 22.059022 Si / 1000 Ang^3
#
#
#
# Elastic Constant Matrix: (Units=GPa)
#
#
# Indices 1 2 3 4 5 6 
#
# 1 37.7483 3.2994 15.9148 0.0000 -13.7003 0.0000
# 2 3.2994 129.2237 18.7835 0.0000 -9.8319 0.0000
# 3 15.9148 18.7835 76.2491 0.0000 -9.6018 0.0000
# 4 0.0000 0.0000 0.0000 21.0775 0.0000 -7.9239
# 5 -13.7003 -9.8319 -9.6018 0.0000 13.7637 0.0000
# 6 0.0000 0.0000 0.0000 -7.9239 0.0000 31.5487
#
#
#
# Elastic Compliance Matrix: (Units=1/GPa)
#
#
# Indices 1 2 3 4 5 6 
#
# 1 0.043380 0.002736 -0.004434 0.000000 0.042041 0.000000
# 2 0.002736 0.008495 -0.001707 0.000000 0.007601 0.000000
# 3 -0.004434 -0.001707 0.015076 0.000000 0.004884 0.000000
# 4 0.000000 0.000000 0.000000 0.052391 0.000000 0.013159
# 5 0.042041 0.007601 0.004884 0.000000 0.123340 0.000000
# 6 0.000000 0.000000 0.000000 0.013159 0.000000 0.035002
#
#
# Mechanical properties :
#
#
# Convention : Reuss Voigt Hill
#
# Bulk Modulus (GPa) = 16.62761 35.46849 26.04805
# Shear Modulus (GPa) = 16.41814 26.95952 21.68883
#
# Velocity S-wave (km/s) = 2.73111 3.49972 3.13903
# Velocity P-wave (km/s) = 4.18324 5.69601 4.99720
#
# Compressibility (1/GPa) = 0.06014092
#
# Stress axis : x y z
#
# Youngs Moduli (GPa) = 23.05205 117.71579 66.33115
#
# Poissons Ratio (x) = -0.32203 0.29412
# Poissons Ratio (y) = -0.06306 0.11320
# Poissons Ratio (z) = 0.10222 0.20089
#
# Static dielectric constant tensor:
#      x y z
#    x 1.975290 0.000000 0.019410 
#    y 0.000000 1.821120 0.000000 
#    z 0.019410 0.000000 1.875290 
# 
# From -- ./inp_files/173659.got.cif
#   From: 2010.05.17/outbox.cif.g08.bks.cpg/sg15_87_cif.got.tgz:173659.got - 2010.06.03 18:47:42.
