data_PCOD9299018
_publ_section_title
;
Structure prediction by ZEFSAII (Michael W. Deem and Ramdas Pophale) SiO2 
 PCOD9299018
Probable space group: C 2/C
;
_chemical_formula_sum "Si O2"
_cell_formula_units_Z 44
_cell_length_a 22.876154
_cell_length_b 11.657176
_cell_length_c 8.340093
_cell_angle_alpha 90.000000
_cell_angle_beta 125.200429
_cell_angle_gamma 90.000000
_cell_volume 1817.372860
_symmetry_space_group_name_H-M "C 2/C"
_symmetry_group_IT_number 15
_symmetry_cell_setting 'monoclinic'
loop_
_space_group_symop_operation_xyz
x,y,z
-x,y,1/2-z
-x,-y,-z
x,-y,1/2+z
1/2+x,1/2+y,z
1/2-x,1/2+y,1/2-z
1/2-x,1/2-y,-z
1/2+x,1/2-y,1/2+z
loop_
_atom_site_type_symbol
_atom_site_label
_atom_site_fract_x
_atom_site_fract_y
_atom_site_fract_z
Si Si1 0.631963 0.546738 0.373835
Si Si2 0.655503 0.204514 0.026500
Si Si3 0.407919 0.805233 0.726178
Si Si4 0.553687 0.048859 0.718272
Si Si5 0.500000 0.379117 0.250000
Si Si6 0.312094 0.360015 0.861959
O O1 0.635816 0.662943 0.478665
O O2 0.562916 0.469696 0.305019
O O3 0.697731 0.464211 0.527998
O O4 0.639032 0.586708 0.202071
O O5 0.624956 0.168880 0.152145
O O6 0.739908 0.184500 0.170018
O O7 0.621382 0.132262 0.825411
O O8 0.420627 0.928301 0.666377
O O9 0.477652 0.720822 0.847071
O O10 0.353114 0.736719 0.526709
O O11 0.500000 0.115877 0.750000
O O12 0.500000 0.000000 0.500000
#
# Coordination Sequence:
#
# PCOD9299018 Si02
#       6
#     8   8   8   8   4   8
#     4  11  26  45  72 109 147 199 256 309 381 449
#     4  12  28  45  77 105 155 199 253 319 371 466
#     4  11  25  46  74 106 147 198 249 315 378 454
#     4  12  27  46  71 108 145 197 249 306 385 448
#     4  10  24  46  74 104 150 196 254 312 368 444
#     4  11  27  47  75 109 149 200 251 314 384 450
#
# _framework density 24.210771000000001
#
# number of rings (size 3 to 8) (size 9 to 14) (size 15 to 20)
#    0.000    0.727    2.727    3.273    8.909    6.545 
#    0.000    0.000    0.000    0.000    0.000    0.000 
#    0.000    0.000    0.000    0.000    0.000    0.000 
#
# Total GULP energy -122628.258213 kJ/mol
# GULP energy per Si atom -5574.011737 kJ/mol
# Density = 2.415567 g / cm^3
# Si number density = 24.210771 Si / 1000 Ang^3
#
#
#
# Elastic Constant Matrix: (Units=GPa)
#
#
# Indices 1 2 3 4 5 6 
#
# 1 71.9992 6.4130 14.4458 0.0000 -0.0542 0.0000
# 2 6.4130 144.0565 17.6720 0.0000 35.8858 0.0000
# 3 14.4458 17.6720 97.6017 0.0000 15.2869 0.0000
# 4 0.0000 0.0000 0.0000 41.2058 0.0000 -0.2315
# 5 -0.0542 35.8858 15.2869 0.0000 30.3453 0.0000
# 6 0.0000 0.0000 0.0000 -0.2315 0.0000 22.8881
#
#
#
# Elastic Compliance Matrix: (Units=1/GPa)
#
#
# Indices 1 2 3 4 5 6 
#
# 1 0.014441 -0.000930 -0.002329 0.000000 0.002299 0.000000
# 2 -0.000930 0.009901 0.000194 0.000000 -0.011808 0.000000
# 3 -0.002329 0.000194 0.011499 0.000000 -0.006027 0.000000
# 4 0.000000 0.000000 0.000000 0.024270 0.000000 0.000245
# 5 0.002299 -0.011808 -0.006027 0.000000 0.049958 0.000000
# 6 0.000000 0.000000 0.000000 0.000245 0.000000 0.043693
#
#
# Mechanical properties :
#
#
# Convention : Reuss Voigt Hill
#
# Bulk Modulus (GPa) = 33.65636 43.41320 38.53478
# Shear Modulus (GPa) = 29.44725 37.22961 33.33843
#
# Velocity S-wave (km/s) = 3.49131 3.92564 3.71483
# Velocity P-wave (km/s) = 5.49399 6.20628 5.86096
#
# Compressibility (1/GPa) = 0.02971206
#
# Stress axis : x y z
#
# Youngs Moduli (GPa) = 69.24781 101.00237 86.96253
#
# Poissons Ratio (x) = 0.09391 0.20254
# Poissons Ratio (y) = 0.06438 -0.01691
# Poissons Ratio (z) = 0.16128 -0.01963
#
# Static dielectric constant tensor:
#      x y z
#    x 2.014300 0.000000 -0.006580 
#    y 0.000000 1.894820 0.000000 
#    z -0.006580 0.000000 2.120770 
# 
# From -- ./inp_files/65640.got.cif
#   From: 2010.05.17/outbox.cif.g08.bks.cpg/sg15_33_cif.got.tgz:65640.got - 2010.06.03 18:47:42.
