data_PCOD9299753
_publ_section_title
;
Structure prediction by ZEFSAII (Michael W. Deem and Ramdas Pophale) SiO2 
 PCOD9299753
Probable space group: C 2/C
;
_chemical_formula_sum "Si O2"
_cell_formula_units_Z 48
_cell_length_a 16.609665
_cell_length_b 15.540203
_cell_length_c 16.353837
_cell_angle_alpha 90.000000
_cell_angle_beta 34.167976
_cell_angle_gamma 90.000000
_cell_volume 2370.721703
_symmetry_space_group_name_H-M "C 2/C"
_symmetry_group_IT_number 15
_symmetry_cell_setting 'monoclinic'
loop_
_space_group_symop_operation_xyz
x,y,z
-x,y,1/2-z
-x,-y,-z
x,-y,1/2+z
1/2+x,1/2+y,z
1/2-x,1/2+y,1/2-z
1/2-x,1/2-y,-z
1/2+x,1/2-y,1/2+z
loop_
_atom_site_type_symbol
_atom_site_label
_atom_site_fract_x
_atom_site_fract_y
_atom_site_fract_z
Si Si1 0.892044 0.568892 0.551344
Si Si2 0.069206 0.062679 0.870768
Si Si3 0.500000 0.488051 0.750000
Si Si4 0.979318 0.241519 0.010504
Si Si5 0.794616 0.434677 0.521687
Si Si6 0.271984 0.283036 0.826122
Si Si7 0.500000 0.810626 0.250000
O O1 0.743388 0.570399 0.728410
O O2 0.852969 0.527798 0.496171
O O3 0.000000 0.500000 0.500000
O O4 0.962588 0.663195 0.487054
O O5 0.039896 0.035028 0.801256
O O6 0.003426 0.158054 0.935787
O O7 0.000000 0.000000 0.000000
O O8 0.643778 0.438080 0.602619
O O9 0.837991 0.230296 0.182503
O O10 0.115537 0.241186 0.957691
O O11 0.750185 0.383926 0.641042
O O12 0.911041 0.374268 0.382924
O O13 0.382201 0.244678 0.799701
#
# Coordination Sequence:
#
# PCOD9299753 Si02
#       7
#     8   8   4   8   8   8   4
#     4  11  22  43  64  97 134 172 229 279 328 406
#     4  11  26  44  73  99 134 182 226 280 342 403
#     4  10  25  46  65  98 136 170 234 277 333 404
#     4  12  24  42  68  98 129 177 228 275 334 405
#     4  11  24  41  63  93 135 177 212 285 342 400
#     4  12  23  40  64  96 134 172 228 277 339 407
#     4  12  25  38  59  98 140 178 216 281 353 402
#
# _framework density 20.246998000000001
#
# number of rings (size 3 to 8) (size 9 to 14) (size 15 to 20)
#    0.000    0.667    5.000    3.000    4.667    0.000 
#    0.000    4.167    0.000    0.000    0.000    0.000 
#    0.000    0.000    0.000    0.000    0.000    0.000 
#
# Total GULP energy -133819.851828 kJ/mol
# GULP energy per Si atom -5575.827159 kJ/mol
# Density = 2.020092 g / cm^3
# Si number density = 20.246998 Si / 1000 Ang^3
#
#
#
# Elastic Constant Matrix: (Units=GPa)
#
#
# Indices 1 2 3 4 5 6 
#
# 1 63.2670 35.2103 29.4791 0.0000 -9.3522 0.0000
# 2 35.2103 145.5884 51.4847 0.0001 2.1040 0.0000
# 3 29.4791 51.4847 93.0165 0.0001 -12.6343 0.0000
# 4 0.0000 0.0001 0.0001 34.9803 -0.0001 -5.5079
# 5 -9.3522 2.1040 -12.6343 -0.0001 31.3721 0.0000
# 6 0.0000 0.0000 0.0000 -5.5079 0.0000 29.3457
#
#
#
# Elastic Compliance Matrix: (Units=1/GPa)
#
#
# Indices 1 2 3 4 5 6 
#
# 1 0.020296 -0.003646 -0.003765 0.000000 0.004779 0.000000
# 2 -0.003646 0.009404 -0.004531 0.000000 -0.003542 0.000000
# 3 -0.003765 -0.004531 0.015170 0.000000 0.005291 0.000000
# 4 0.000000 0.000000 0.000000 0.029458 0.000000 0.005529
# 5 0.004779 -0.003542 0.005291 0.000000 0.035668 0.000000
# 6 0.000000 0.000000 0.000000 0.005529 0.000000 0.035114
#
#
# Mechanical properties :
#
#
# Convention : Reuss Voigt Hill
#
# Bulk Modulus (GPa) = 47.64961 59.35779 53.50370
# Shear Modulus (GPa) = 28.41072 31.51949 29.96511
#
# Velocity S-wave (km/s) = 3.75000 3.94985 3.85122
# Velocity P-wave (km/s) = 6.50656 7.08394 6.80138
#
# Compressibility (1/GPa) = 0.02098653
#
# Stress axis : x y z
#
# Youngs Moduli (GPa) = 49.27098 106.33931 65.91798
#
# Poissons Ratio (x) = 0.38773 0.24818
# Poissons Ratio (y) = 0.17965 0.29865
# Poissons Ratio (z) = 0.18551 0.48178
#
# Static dielectric constant tensor:
#      x y z
#    x 1.783930 0.000000 -0.022830 
#    y 0.000000 1.763430 0.000000 
#    z -0.022830 0.000000 1.744610 
# 
# From -- ./inp_files/56447.got.cif
#   From: 2010.05.17/outbox.cif.g08.bks.cpg/sg15_29_cif.got.tgz:56447.got - 2010.06.03 18:47:42.
