data_PCOD9299725
_publ_section_title
;
Structure prediction by ZEFSAII (Michael W. Deem and Ramdas Pophale) SiO2 
 PCOD9299725
Probable space group: C 2/C
;
_chemical_formula_sum "Si O2"
_cell_formula_units_Z 32
_cell_length_a 31.724797
_cell_length_b 5.433454
_cell_length_c 8.975260
_cell_angle_alpha 90.000000
_cell_angle_beta 116.151353
_cell_angle_gamma 90.000000
_cell_volume 1388.739058
_symmetry_space_group_name_H-M "C 2/C"
_symmetry_group_IT_number 15
_symmetry_cell_setting 'monoclinic'
loop_
_space_group_symop_operation_xyz
x,y,z
-x,y,1/2-z
-x,-y,-z
x,-y,1/2+z
1/2+x,1/2+y,z
1/2-x,1/2+y,1/2-z
1/2-x,1/2-y,-z
1/2+x,1/2-y,1/2+z
loop_
_atom_site_type_symbol
_atom_site_label
_atom_site_fract_x
_atom_site_fract_y
_atom_site_fract_z
Si Si1 0.876003 0.804859 0.323606
Si Si2 0.956285 0.177844 0.446158
Si Si3 0.766644 0.803312 0.194917
Si Si4 0.923499 0.511836 0.155402
O O1 0.822445 0.851447 0.277499
O O2 0.882216 0.627703 0.191069
O O3 0.902088 0.676005 0.503009
O O4 0.907094 0.041917 0.335000
O O5 0.958995 0.389566 0.327068
O O6 0.949055 0.281504 0.599082
O O7 0.000000 0.000000 0.500000
O O8 0.756294 0.552644 0.272706
O O9 0.750000 0.750000 0.000000
#
# Coordination Sequence:
#
# PCOD9299725 Si02
#       4
#     8   8   8   8
#     4  11  25  44  75 102 148 192 247 311 377 455
#     4  11  26  46  73 108 145 195 247 308 379 456
#     4  12  29  49  79 116 158 206 268 327 402 472
#     4  10  25  45  72 104 145 189 248 303 380 446
#
# _framework density 23.042484000000002
#
# number of rings (size 3 to 8) (size 9 to 14) (size 15 to 20)
#    0.000    1.000    0.000    3.750   14.000   10.000 
#    0.000    3.750    0.000    0.000    0.000    0.000 
#    0.000    0.000    0.000    0.000    0.000    0.000 
#
# Total GULP energy -89691.910993 kJ/mol
# GULP energy per Si atom -5605.744437 kJ/mol
# Density = 2.299004 g / cm^3
# Si number density = 23.042484 Si / 1000 Ang^3
#
#
#
# Elastic Constant Matrix: (Units=GPa)
#
#
# Indices 1 2 3 4 5 6 
#
# 1 162.5171 54.7077 40.4610 0.0000 5.8153 0.0000
# 2 54.7077 101.7627 25.3768 0.0000 -14.4780 0.0000
# 3 40.4610 25.3768 99.5548 0.0000 -22.2755 0.0000
# 4 0.0000 0.0000 0.0000 41.7122 0.0000 -11.7998
# 5 5.8153 -14.4780 -22.2755 0.0000 43.7719 0.0000
# 6 0.0000 0.0000 0.0000 -11.7998 0.0000 44.3515
#
#
#
# Elastic Compliance Matrix: (Units=1/GPa)
#
#
# Indices 1 2 3 4 5 6 
#
# 1 0.008627 -0.004417 -0.003344 0.000000 -0.004309 0.000000
# 2 -0.004417 0.012980 -0.000476 0.000000 0.004638 0.000000
# 3 -0.003344 -0.000476 0.013079 0.000000 0.006943 0.000000
# 4 0.000000 0.000000 0.000000 0.025925 0.000000 0.006897
# 5 -0.004309 0.004638 0.006943 0.000000 0.028485 0.000000
# 6 0.000000 0.000000 0.000000 0.006897 0.000000 0.024382
#
#
# Mechanical properties :
#
#
# Convention : Reuss Voigt Hill
#
# Bulk Modulus (GPa) = 54.91105 67.21395 61.06250
# Shear Modulus (GPa) = 36.75870 42.18640 39.47255
#
# Velocity S-wave (km/s) = 3.99840 4.28344 4.14337
# Velocity P-wave (km/s) = 6.72297 7.32780 7.03189
#
# Compressibility (1/GPa) = 0.01821127
#
# Stress axis : x y z
#
# Youngs Moduli (GPa) = 115.91704 77.04292 76.46042
#
# Poissons Ratio (x) = 0.34029 0.25571
# Poissons Ratio (y) = 0.51199 0.03638
# Poissons Ratio (z) = 0.38767 0.03665
#
# Static dielectric constant tensor:
#      x y z
#    x 1.814510 0.000000 0.004350 
#    y 0.000000 1.938750 0.000000 
#    z 0.004350 0.000000 1.832690 
# 
# From -- ./inp_files/67876.got.cif
#   From: 2010.05.17/outbox.cif.g08.bks.cpg/sg15_34_cif.got.tgz:67876.got - 2010.06.03 18:47:42.
