data_PCOD9299244
_publ_section_title
;
Structure prediction by ZEFSAII (Michael W. Deem and Ramdas Pophale) SiO2 
 PCOD9299244
Probable space group: C 2/C
;
_chemical_formula_sum "Si O2"
_cell_formula_units_Z 60
_cell_length_a 8.867351
_cell_length_b 30.074613
_cell_length_c 11.673905
_cell_angle_alpha 90.000000
_cell_angle_beta 64.509205
_cell_angle_gamma 90.000000
_cell_volume 2810.163726
_symmetry_space_group_name_H-M "C 2/C"
_symmetry_group_IT_number 15
_symmetry_cell_setting 'monoclinic'
loop_
_space_group_symop_operation_xyz
x,y,z
-x,y,1/2-z
-x,-y,-z
x,-y,1/2+z
1/2+x,1/2+y,z
1/2-x,1/2+y,1/2-z
1/2-x,1/2-y,-z
1/2+x,1/2-y,1/2+z
loop_
_atom_site_type_symbol
_atom_site_label
_atom_site_fract_x
_atom_site_fract_y
_atom_site_fract_z
Si Si1 0.640934 0.462668 0.301422
Si Si2 0.119720 0.116584 0.948616
Si Si3 0.794313 0.301047 0.009952
Si Si4 0.286673 0.641905 0.184985
Si Si5 0.083499 0.450990 0.461420
Si Si6 0.810542 0.544802 0.333963
Si Si7 0.500000 0.342911 0.250000
Si Si8 0.390405 0.142985 0.026921
O O1 0.500000 0.458151 0.250000
O O2 0.622989 0.436436 0.427258
O O3 0.814308 0.445794 0.188073
O O4 0.677830 0.513905 0.316306
O O5 0.074513 0.130934 0.834134
O O6 0.288411 0.137802 0.942353
O O7 0.975473 0.131786 0.083371
O O8 0.649629 0.316360 0.143403
O O9 0.750000 0.250000 0.000000
O O10 0.783329 0.325796 0.890460
O O11 0.965775 0.319616 0.009849
O O12 0.197360 0.594639 0.204954
O O13 0.240531 0.655311 0.328724
O O14 0.215475 0.452277 0.522110
O O15 0.000000 0.500000 0.500000
O O16 0.971119 0.406872 0.515413
O O17 0.000000 0.528121 0.250000
#
# Coordination Sequence:
#
# PCOD9299244 Si02
#       8
#     8   8   8   8   8   8   4   8
#     4  12  26  41  62  97 144 193 249 303 360 436
#     4  11  25  44  70 103 146 190 236 299 368 431
#     4  11  25  45  78 107 139 189 238 297 374 445
#     4  11  23  46  69 102 145 185 239 306 370 439
#     4  12  23  39  63  99 139 186 247 297 358 435
#     4  12  22  40  62  94 137 190 243 303 364 428
#     4  10  24  48  68 102 146 178 230 296 368 432
#     4  12  24  42  76 106 140 191 241 297 365 441
#
# _framework density 21.35107
#
# number of rings (size 3 to 8) (size 9 to 14) (size 15 to 20)
#    0.000    0.533    4.667    3.200    1.867    5.867 
#    0.000    2.667    5.867    0.000    0.000    0.000 
#    0.000    0.000    0.000    0.000    0.000    0.000 
#
# Total GULP energy -167438.101210 kJ/mol
# GULP energy per Si atom -5581.270040 kJ/mol
# Density = 2.130247 g / cm^3
# Si number density = 21.351070 Si / 1000 Ang^3
#
#
#
# Elastic Constant Matrix: (Units=GPa)
#
#
# Indices 1 2 3 4 5 6 
#
# 1 127.4300 59.8528 42.6890 0.0000 11.7955 0.0000
# 2 59.8528 106.8928 32.7799 0.0000 -4.3963 0.0000
# 3 42.6890 32.7799 108.1839 0.0000 -3.2127 0.0000
# 4 0.0000 0.0000 0.0000 10.8561 0.0000 3.7878
# 5 11.7955 -4.3963 -3.2127 0.0000 26.5183 0.0000
# 6 0.0000 0.0000 0.0000 3.7878 0.0000 22.2261
#
#
#
# Elastic Compliance Matrix: (Units=1/GPa)
#
#
# Indices 1 2 3 4 5 6 
#
# 1 0.012556 -0.006324 -0.003247 0.000000 -0.007027 0.000000
# 2 -0.006324 0.013546 -0.001464 0.000000 0.004881 0.000000
# 3 -0.003247 -0.001464 0.011044 0.000000 0.002540 0.000000
# 4 0.000000 0.000000 0.000000 0.097938 0.000000 -0.016691
# 5 -0.007027 0.004881 0.002540 0.000000 0.041952 0.000000
# 6 0.000000 0.000000 0.000000 -0.016691 0.000000 0.047837
#
#
# Mechanical properties :
#
#
# Convention : Reuss Voigt Hill
#
# Bulk Modulus (GPa) = 66.33201 68.12779 67.22990
# Shear Modulus (GPa) = 19.84388 25.73243 22.78816
#
# Velocity S-wave (km/s) = 3.05193 3.47537 3.27051
# Velocity P-wave (km/s) = 6.59953 6.93411 6.76889
#
# Compressibility (1/GPa) = 0.01507568
#
# Stress axis : x y z
#
# Youngs Moduli (GPa) = 79.64450 73.82400 90.54811
#
# Poissons Ratio (x) = 0.46684 0.29402
# Poissons Ratio (y) = 0.50364 0.13257
# Poissons Ratio (z) = 0.25861 0.10809
#
# Static dielectric constant tensor:
#      x y z
#    x 1.861490 0.000000 0.004870 
#    y 0.000000 1.840140 0.000000 
#    z 0.004870 0.000000 1.846520 
# 
# From -- ./inp_files/82557.got.cif
#   From: 2010.05.17/outbox.cif.g08.bks.cpg/sg15_42_cif.got.tgz:82557.got - 2010.06.03 18:47:42.
