data_PCOD9299166
_publ_section_title
;
Structure prediction by ZEFSAII (Michael W. Deem and Ramdas Pophale) SiO2 
 PCOD9299166
Probable space group: C 2/C
;
_chemical_formula_sum "Si O2"
_cell_formula_units_Z 48
_cell_length_a 17.565615
_cell_length_b 18.047772
_cell_length_c 11.873383
_cell_angle_alpha 90.000000
_cell_angle_beta 32.038543
_cell_angle_gamma 90.000000
_cell_volume 1996.817296
_symmetry_space_group_name_H-M "C 2/C"
_symmetry_group_IT_number 15
_symmetry_cell_setting 'monoclinic'
loop_
_space_group_symop_operation_xyz
x,y,z
-x,y,1/2-z
-x,-y,-z
x,-y,1/2+z
1/2+x,1/2+y,z
1/2-x,1/2+y,1/2-z
1/2-x,1/2-y,-z
1/2+x,1/2-y,1/2+z
loop_
_atom_site_type_symbol
_atom_site_label
_atom_site_fract_x
_atom_site_fract_y
_atom_site_fract_z
Si Si1 0.315472 0.983345 0.787498
Si Si2 0.710822 0.778604 0.424321
Si Si3 0.500000 0.453136 0.250000
Si Si4 0.093721 0.773172 0.736693
Si Si5 0.986302 0.837046 0.460342
Si Si6 0.508291 0.890897 0.102994
Si Si7 0.500000 0.904584 0.750000
O O1 0.353713 0.929663 0.632515
O O2 0.406713 0.948669 0.776435
O O3 0.382216 0.064677 0.696972
O O4 0.149743 0.989903 0.027982
O O5 0.750000 0.750000 0.500000
O O6 0.616279 0.715773 0.484914
O O7 0.611669 0.850128 0.550507
O O8 0.864563 0.801194 0.184968
O O9 0.528471 0.403091 0.325404
O O10 0.250000 0.750000 0.500000
O O11 0.101816 0.840687 0.814137
O O12 0.021773 0.696454 0.874143
O O13 0.000000 0.797421 0.750000
O O14 0.500000 0.901746 0.250000
#
# Coordination Sequence:
#
# PCOD9299166 Si02
#       7
#     8   8   4   8   8   8   4
#     4  11  24  44  72 101 132 179 227 284 340 408
#     4  12  20  33  54  98 139 169 202 269 346 405
#     4  12  25  40  72 110 141 160 220 304 356 386
#     4  11  26  46  68  95 135 187 231 273 330 412
#     4  12  23  37  63  99 138 170 218 281 344 397
#     4  10  24  47  72  93 134 187 235 266 331 423
#     4  12  19  36  62  96 135 172 220 264 340 408
#
# _framework density 24.038253999999998
#
# number of rings (size 3 to 8) (size 9 to 14) (size 15 to 20)
#    0.000    0.667    5.833    2.000    7.000    0.000 
#    1.500    0.833    0.000    0.000    0.000    0.000 
#    0.000    0.000    0.000    0.000    0.000    0.000 
#
# Total GULP energy -134123.840508 kJ/mol
# GULP energy per Si atom -5588.493354 kJ/mol
# Density = 2.398354 g / cm^3
# Si number density = 24.038254 Si / 1000 Ang^3
#
#
#
# Elastic Constant Matrix: (Units=GPa)
#
#
# Indices 1 2 3 4 5 6 
#
# 1 96.1638 17.7053 42.1552 -0.0003 -5.3425 0.0002
# 2 17.7053 48.5442 7.5043 -0.0002 5.2798 0.0002
# 3 42.1552 7.5043 137.5275 -0.0006 -10.5179 0.0004
# 4 -0.0003 -0.0002 -0.0006 23.8782 0.0004 -7.1486
# 5 -5.3425 5.2798 -10.5179 0.0004 49.5514 -0.0003
# 6 0.0002 0.0002 0.0004 -7.1486 -0.0003 10.7764
#
#
#
# Elastic Compliance Matrix: (Units=1/GPa)
#
#
# Indices 1 2 3 4 5 6 
#
# 1 0.012824 -0.004234 -0.003618 0.000000 0.001066 0.000000
# 2 -0.004234 0.022481 -0.000149 0.000000 -0.002884 0.000000
# 3 -0.003618 -0.000149 0.008498 0.000000 0.001430 0.000000
# 4 0.000000 0.000000 0.000000 0.052257 0.000000 0.034665
# 5 0.001066 -0.002884 0.001430 0.000000 0.020907 0.000000
# 6 0.000000 0.000000 0.000000 0.034665 0.000000 0.115791
#
#
# Mechanical properties :
#
#
# Convention : Reuss Voigt Hill
#
# Bulk Modulus (GPa) = 35.97204 46.32945 41.15074
# Shear Modulus (GPa) = 19.37787 31.16592 25.27189
#
# Velocity S-wave (km/s) = 2.84232 3.60462 3.24592
# Velocity P-wave (km/s) = 5.07628 6.05305 5.58606
#
# Compressibility (1/GPa) = 0.02779937
#
# Stress axis : x y z
#
# Youngs Moduli (GPa) = 77.98032 44.48266 117.67703
#
# Poissons Ratio (x) = 0.18833 0.42578
# Poissons Ratio (y) = 0.33015 0.01759
# Poissons Ratio (z) = 0.28215 0.00665
#
# Static dielectric constant tensor:
#      x y z
#    x -0.677820 -0.000010 2.910020 
#    y -0.000010 1.971790 0.000010 
#    z 2.910020 0.000010 -1.012210 
# 
# From -- ./inp_files/108080.got.cif
#   From: 2010.05.17/outbox.cif.g08.bks.cpg/sg15_55_cif.got.tgz:108080.got - 2010.06.03 18:47:42.
