data_PCOD9299011
_publ_section_title
;
Structure prediction by ZEFSAII (Michael W. Deem and Ramdas Pophale) SiO2 
 PCOD9299011
Probable space group: C 2/C
;
_chemical_formula_sum "Si O2"
_cell_formula_units_Z 48
_cell_length_a 17.655091
_cell_length_b 7.842959
_cell_length_c 17.216972
_cell_angle_alpha 90.000000
_cell_angle_beta 71.096567
_cell_angle_gamma 90.000000
_cell_volume 2255.423441
_symmetry_space_group_name_H-M "C 2/C"
_symmetry_group_IT_number 15
_symmetry_cell_setting 'monoclinic'
loop_
_space_group_symop_operation_xyz
x,y,z
-x,y,1/2-z
-x,-y,-z
x,-y,1/2+z
1/2+x,1/2+y,z
1/2-x,1/2+y,1/2-z
1/2-x,1/2-y,-z
1/2+x,1/2-y,1/2+z
loop_
_atom_site_type_symbol
_atom_site_label
_atom_site_fract_x
_atom_site_fract_y
_atom_site_fract_z
Si Si1 0.327641 0.151871 0.947317
Si Si2 0.160777 0.700109 0.002926
Si Si3 0.359289 0.323611 0.662442
Si Si4 0.803962 0.500585 0.782206
Si Si5 0.030628 0.854932 0.664934
Si Si6 0.085351 0.779559 0.190142
O O1 0.407172 0.261770 0.910416
O O2 0.341528 0.002488 0.004183
O O3 0.309200 0.077748 0.867545
O O4 0.250000 0.250000 0.000000
O O5 0.102811 0.736603 0.094486
O O6 0.250000 0.750000 0.000000
O O7 0.144399 0.791799 0.928318
O O8 0.286976 0.450754 0.708739
O O9 0.447795 0.394968 0.649810
O O10 0.341513 0.142969 0.712557
O O11 0.850466 0.319612 0.778120
O O12 0.000000 0.747322 0.750000
O O13 0.077604 0.015265 0.687189
O O14 0.000000 0.718956 0.250000
#
# Coordination Sequence:
#
# PCOD9299011 Si02
#       6
#     8   8   8   8   8   8
#     4  11  24  44  72 100 143 192 233 292 364 423
#     4  11  23  45  71 101 143 189 238 293 355 429
#     4  12  27  45  72 111 143 184 248 294 356 435
#     4  11  27  44  73 101 144 189 236 296 361 428
#     4  11  25  45  71 104 144 183 243 295 351 425
#     4  10  24  46  73  94 140 191 231 287 368 411
#
# _framework density 21.282032999999998
#
# number of rings (size 3 to 8) (size 9 to 14) (size 15 to 20)
#    0.000    1.000    5.000    1.000   11.667    1.333 
#    0.000    0.000    0.000    0.000    0.000    0.000 
#    0.000    0.000    0.000    0.000    0.000    0.000 
#
# Total GULP energy -133955.458666 kJ/mol
# GULP energy per Si atom -5581.477444 kJ/mol
# Density = 2.123359 g / cm^3
# Si number density = 21.282033 Si / 1000 Ang^3
#
#
#
# Elastic Constant Matrix: (Units=GPa)
#
#
# Indices 1 2 3 4 5 6 
#
# 1 121.6796 25.6811 20.5995 0.0000 -18.7831 0.0000
# 2 25.6811 73.3060 8.8831 0.0000 -16.8649 0.0001
# 3 20.5995 8.8831 93.0584 0.0000 -15.2533 0.0000
# 4 0.0000 0.0000 0.0000 34.6710 0.0000 -7.6367
# 5 -18.7831 -16.8649 -15.2533 0.0000 45.4455 0.0000
# 6 0.0000 0.0001 0.0000 -7.6367 0.0000 22.9188
#
#
#
# Elastic Compliance Matrix: (Units=1/GPa)
#
#
# Indices 1 2 3 4 5 6 
#
# 1 0.009376 -0.002548 -0.001431 0.000000 0.002450 0.000000
# 2 -0.002548 0.015633 -0.000159 0.000000 0.004695 0.000000
# 3 -0.001431 -0.000159 0.011610 0.000000 0.003246 0.000000
# 4 0.000000 0.000000 0.000000 0.031127 0.000000 0.010372
# 5 0.002450 0.004695 0.003246 0.000000 0.025849 0.000000
# 6 0.000000 0.000000 0.000000 0.010372 0.000000 0.047088
#
#
# Mechanical properties :
#
#
# Convention : Reuss Voigt Hill
#
# Bulk Modulus (GPa) = 35.27959 44.26346 39.77153
# Shear Modulus (GPa) = 31.56420 36.13241 33.84830
#
# Velocity S-wave (km/s) = 3.85533 4.12489 3.99239
# Velocity P-wave (km/s) = 6.03583 6.59773 6.32302
#
# Compressibility (1/GPa) = 0.02834500
#
# Stress axis : x y z
#
# Youngs Moduli (GPa) = 106.65057 63.96529 86.13295
#
# Poissons Ratio (x) = 0.16298 0.12324
# Poissons Ratio (y) = 0.27173 0.01367
# Poissons Ratio (z) = 0.15260 0.01015
#
# Static dielectric constant tensor:
#      x y z
#    x 1.781340 0.000000 -0.041750 
#    y 0.000000 0.985860 0.000000 
#    z -0.041750 0.000000 1.836860 
# 
# From -- ./inp_files/208922.got.cif
#   From: 2010.05.17/outbox.cif.g08.bks.cpg/sg15_105_cif.got.tgz:208922.got - 2010.06.03 18:47:42.
