data_PCOD9299248
_publ_section_title
;
Structure prediction by ZEFSAII (Michael W. Deem and Ramdas Pophale) SiO2 
 PCOD9299248
Probable space group: C 2/C
;
_chemical_formula_sum "Si O2"
_cell_formula_units_Z 60
_cell_length_a 9.835092
_cell_length_b 12.056681
_cell_length_c 25.200714
_cell_angle_alpha 90.000000
_cell_angle_beta 66.288087
_cell_angle_gamma 90.000000
_cell_volume 2735.992269
_symmetry_space_group_name_H-M "C 2/C"
_symmetry_group_IT_number 15
_symmetry_cell_setting 'monoclinic'
loop_
_space_group_symop_operation_xyz
x,y,z
-x,y,1/2-z
-x,-y,-z
x,-y,1/2+z
1/2+x,1/2+y,z
1/2-x,1/2+y,1/2-z
1/2-x,1/2-y,-z
1/2+x,1/2-y,1/2+z
loop_
_atom_site_type_symbol
_atom_site_label
_atom_site_fract_x
_atom_site_fract_y
_atom_site_fract_z
Si Si1 0.819384 0.486352 0.890742
Si Si2 0.043190 0.125479 0.913724
Si Si3 0.146938 0.077877 0.087443
Si Si4 0.930758 0.175170 0.044148
Si Si5 0.964349 0.301225 0.670809
Si Si6 0.500000 0.382909 0.250000
Si Si7 0.063460 0.401326 0.024033
Si Si8 0.658886 0.597493 0.211017
O O1 0.699805 0.562787 0.878633
O O2 0.721140 0.391399 0.935565
O O3 0.900879 0.560681 0.921934
O O4 0.935498 0.410791 0.840916
O O5 0.037408 0.245383 0.887448
O O6 0.906446 0.047993 0.916225
O O7 0.029184 0.133094 0.979368
O O8 0.176136 0.091209 0.144754
O O9 0.004884 0.144817 0.088535
O O10 0.281640 0.123239 0.030464
O O11 0.940814 0.305938 0.040269
O O12 0.798321 0.338085 0.711728
O O13 0.017330 0.199217 0.698303
O O14 0.635454 0.470544 0.234805
O O15 0.000000 0.500000 0.000000
O O16 0.500000 0.651345 0.250000
#
# Coordination Sequence:
#
# PCOD9299248 Si02
#       8
#     8   8   8   8   8   4   8   8
#     4  11  25  41  62 105 135 175 228 264 328 416
#     4  11  21  43  67  98 142 185 210 272 331 397
#     4  11  20  41  69  92 137 180 220 275 327 400
#     4  11  23  39  66  95 146 187 213 261 336 389
#     4  12  26  45  74  96 132 177 222 285 345 399
#     4  10  26  50  70  92 132 164 228 292 346 392
#     4  12  24  36  61 101 139 182 224 266 318 412
#     4  10  24  48  68  98 127 171 232 284 340 395
#
# _framework density 21.929886
#
# number of rings (size 3 to 8) (size 9 to 14) (size 15 to 20)
#    0.400    0.533    4.000    3.600    3.733    5.333 
#    2.400    0.000    0.000    0.000    0.000    0.000 
#    0.000    0.000    0.000    0.000    0.000    0.000 
#
# Total GULP energy -167493.759670 kJ/mol
# GULP energy per Si atom -5583.125322 kJ/mol
# Density = 2.187997 g / cm^3
# Si number density = 21.929886 Si / 1000 Ang^3
#
#
#
# Elastic Constant Matrix: (Units=GPa)
#
#
# Indices 1 2 3 4 5 6 
#
# 1 37.2622 3.9562 -10.0042 0.0000 -13.2344 0.0000
# 2 3.9562 69.6916 -6.8606 0.0000 -5.7105 0.0000
# 3 -10.0042 -6.8606 24.3532 0.0000 -2.9601 0.0000
# 4 0.0000 0.0000 0.0000 19.7755 0.0000 -17.3794
# 5 -13.2344 -5.7105 -2.9601 0.0000 28.6860 0.0000
# 6 0.0000 0.0000 0.0000 -17.3794 0.0000 13.8782
#
#
#
# Elastic Compliance Matrix: (Units=1/GPa)
#
#
# Indices 1 2 3 4 5 6 
#
# 1 0.038899 0.001292 0.018792 0.000000 0.020142 0.000000
# 2 0.001292 0.015138 0.005301 0.000000 0.004157 0.000000
# 3 0.018792 0.005301 0.052111 0.000000 0.015102 0.000000
# 4 0.000000 0.000000 0.000000 -0.502908 0.000000 -0.629785
# 5 0.020142 0.004157 0.015102 0.000000 0.046539 0.000000
# 6 0.000000 0.000000 0.000000 -0.629785 0.000000 -0.716614
#
#
# Mechanical properties :
#
#
# Convention : Reuss Voigt Hill
#
# Bulk Modulus (GPa) = 6.37280 11.72110 9.04695
# Shear Modulus (GPa) = -4.69352 22.08231 8.69440
#
# Velocity S-wave (km/s) = -1.46454 3.17669 1.99330
# Velocity P-wave (km/s) = 0.22902 4.33723 3.07116
#
# Compressibility (1/GPa) = 0.15691693
#
# Stress axis : x y z
#
# Youngs Moduli (GPa) = 25.70770 66.05898 19.18984
#
# Poissons Ratio (x) = -0.08536 -0.36061
# Poissons Ratio (y) = -0.03322 -0.10172
# Poissons Ratio (z) = -0.48309 -0.35016
#
# Static dielectric constant tensor:
#      x y z
#    x 1.840810 0.000000 -0.000740 
#    y 0.000000 1.820930 0.000000 
#    z -0.000740 0.000000 1.836580 
# 
# From -- ./inp_files/307452.got.cif
#   From: 2010.05.17/outbox.cif.g08.bks.cpg/sg15_154_cif.got.tgz:307452.got - 2010.06.03 18:47:42.
