data_PCOD9299940
_publ_section_title
;
Structure prediction by ZEFSAII (Michael W. Deem and Ramdas Pophale) SiO2 
 PCOD9299940
Probable space group: C 2/C
;
_chemical_formula_sum "Si O2"
_cell_formula_units_Z 52
_cell_length_a 11.118911
_cell_length_b 28.253436
_cell_length_c 8.806389
_cell_angle_alpha 90.000000
_cell_angle_beta 58.141153
_cell_angle_gamma 90.000000
_cell_volume 2349.733479
_symmetry_space_group_name_H-M "C 2/C"
_symmetry_group_IT_number 15
_symmetry_cell_setting 'monoclinic'
loop_
_space_group_symop_operation_xyz
x,y,z
-x,y,1/2-z
-x,-y,-z
x,-y,1/2+z
1/2+x,1/2+y,z
1/2-x,1/2+y,1/2-z
1/2-x,1/2-y,-z
1/2+x,1/2-y,1/2+z
loop_
_atom_site_type_symbol
_atom_site_label
_atom_site_fract_x
_atom_site_fract_y
_atom_site_fract_z
Si Si1 0.367129 0.535068 0.083483
Si Si2 0.000000 0.104015 0.750000
Si Si3 0.710268 0.798616 0.722859
Si Si4 0.239045 0.375857 0.233030
Si Si5 0.599916 0.971359 0.319016
Si Si6 0.658225 0.618471 0.175258
Si Si7 0.094414 0.711716 0.959294
O O1 0.223795 0.504969 0.170629
O O2 0.355145 0.566724 0.242456
O O3 0.500000 0.500000 0.000000
O O4 0.406570 0.571067 0.922783
O O5 0.111175 0.132421 0.780006
O O6 0.763137 0.847616 0.758292
O O7 0.831757 0.759280 0.646962
O O8 0.660712 0.801438 0.580674
O O9 0.572145 0.782407 0.907501
O O10 0.171804 0.424591 0.339596
O O11 0.135960 0.332179 0.327259
O O12 0.267808 0.383293 0.036494
O O13 0.500000 0.954812 0.250000
O O14 0.500000 0.000000 0.500000
O O15 0.500000 0.636828 0.250000
#
# Coordination Sequence:
#
# PCOD9299940 Si02
#       7
#     8   4   8   8   8   8   8
#     4  12  26  46  73 101 143 191 251 295 361 434
#     4  12  24  44  72 102 136 196 248 300 352 440
#     4  10  25  49  76 107 148 182 244 293 357 435
#     4  12  27  44  72 106 147 191 242 300 365 435
#     4  12  27  46  69 104 144 189 238 306 366 429
#     4  12  26  46  70 109 147 188 240 305 361 423
#     4  10  25  48  79 109 141 194 234 294 358 436
#
# _framework density 22.130168999999999
#
# number of rings (size 3 to 8) (size 9 to 14) (size 15 to 20)
#    0.000    0.615    3.077    2.769    9.692    1.846 
#    0.000    0.000    0.000    0.000    0.000    0.000 
#    0.000    0.000    0.000    0.000    0.000    0.000 
#
# Total GULP energy -145624.399694 kJ/mol
# GULP energy per Si atom -5600.938450 kJ/mol
# Density = 2.207980 g / cm^3
# Si number density = 22.130169 Si / 1000 Ang^3
#
#
#
# Elastic Constant Matrix: (Units=GPa)
#
#
# Indices 1 2 3 4 5 6 
#
# 1 91.3556 16.3926 17.4902 0.0000 -20.2640 0.0000
# 2 16.3926 73.7211 44.5152 0.0000 -13.9853 0.0000
# 3 17.4902 44.5152 119.6350 0.0000 -21.7905 0.0000
# 4 0.0000 0.0000 0.0000 39.2093 0.0000 -4.5476
# 5 -20.2640 -13.9853 -21.7905 0.0000 39.2415 0.0000
# 6 0.0000 0.0000 0.0000 -4.5476 0.0000 26.1934
#
#
#
# Elastic Compliance Matrix: (Units=1/GPa)
#
#
# Indices 1 2 3 4 5 6 
#
# 1 0.012555 -0.001573 -0.000191 0.000000 0.005817 0.000000
# 2 -0.001573 0.017998 -0.006059 0.000000 0.002237 0.000000
# 3 -0.000191 -0.006059 0.011381 0.000000 0.004062 0.000000
# 4 0.000000 0.000000 0.000000 0.026028 0.000000 0.004519
# 5 0.005817 0.002237 0.004062 0.000000 0.031540 0.000000
# 6 0.000000 0.000000 0.000000 0.004519 0.000000 0.038962
#
#
# Mechanical properties :
#
#
# Convention : Reuss Voigt Hill
#
# Bulk Modulus (GPa) = 38.04047 49.05641 43.54844
# Shear Modulus (GPa) = 30.69873 34.68310 32.69091
#
# Velocity S-wave (km/s) = 3.72854 3.96312 3.84762
# Velocity P-wave (km/s) = 5.98020 6.56941 6.28171
#
# Compressibility (1/GPa) = 0.02628779
#
# Stress axis : x y z
#
# Youngs Moduli (GPa) = 79.64754 55.56280 87.86503
#
# Poissons Ratio (x) = 0.08741 0.01675
# Poissons Ratio (y) = 0.12530 0.53240
# Poissons Ratio (z) = 0.01519 0.33667
#
# Static dielectric constant tensor:
#      x y z
#    x 1.814390 0.000000 0.018950 
#    y 0.000000 1.781450 0.000000 
#    z 0.018950 0.000000 1.791750 
# 
# From -- ./inp_files/34088.got.cif
#   From: 2010.05.17/outbox.cif.g08.bks.cpg/sg15_18_cif.got.tgz:34088.got - 2010.06.03 18:47:42.
