data_PCOD9299660
_publ_section_title
;
Structure prediction by ZEFSAII (Michael W. Deem and Ramdas Pophale) SiO2 
 PCOD9299660
Probable space group: C 2/C
;
_chemical_formula_sum "Si O2"
_cell_formula_units_Z 64
_cell_length_a 14.798866
_cell_length_b 8.237089
_cell_length_c 30.018042
_cell_angle_alpha 90.000000
_cell_angle_beta 137.875076
_cell_angle_gamma 90.000000
_cell_volume 2454.396923
_symmetry_space_group_name_H-M "C 2/C"
_symmetry_group_IT_number 15
_symmetry_cell_setting 'monoclinic'
loop_
_space_group_symop_operation_xyz
x,y,z
-x,y,1/2-z
-x,-y,-z
x,-y,1/2+z
1/2+x,1/2+y,z
1/2-x,1/2+y,1/2-z
1/2-x,1/2-y,-z
1/2+x,1/2-y,1/2+z
loop_
_atom_site_type_symbol
_atom_site_label
_atom_site_fract_x
_atom_site_fract_y
_atom_site_fract_z
Si Si1 0.595465 0.618435 0.134154
Si Si2 0.234749 0.582749 0.080182
Si Si3 0.034706 0.678076 0.195932
Si Si4 0.709730 0.560326 0.491294
Si Si5 0.989443 0.701088 0.816277
Si Si6 0.209455 0.801794 0.343544
Si Si7 0.865062 0.097629 0.945377
Si Si8 0.707988 0.304570 0.182013
O O1 0.450258 0.540863 0.073333
O O2 0.669881 0.675369 0.116920
O O3 0.687548 0.488713 0.194472
O O4 0.565147 0.774676 0.153401
O O5 0.230563 0.483849 0.031834
O O6 0.229396 0.474856 0.122157
O O7 0.117790 0.714770 0.032446
O O8 0.377179 0.686312 0.136715
O O9 0.003416 0.488277 0.193669
O O10 0.132099 0.761646 0.268978
O O11 0.895820 0.769954 0.155470
O O12 0.101910 0.703122 0.172234
O O13 0.750000 0.750000 0.500000
O O14 0.734897 0.524771 0.552480
O O15 0.859886 0.759914 0.740618
O O16 0.821302 0.144851 0.879405
O O17 0.000000 0.000000 0.000000
#
# Coordination Sequence:
#
# PCOD9299660 Si02
#       8
#     8   8   8   8   8   8   8   8
#     4  11  22  42  71  96 144 180 231 283 353 428
#     4  10  25  44  75  98 142 185 236 293 361 424
#     4  11  25  40  66 101 153 172 231 291 354 433
#     4   9  20  45  68  98 131 185 231 294 335 412
#     4  11  23  43  69 106 136 183 225 291 373 417
#     4  11  24  42  64 105 139 182 222 288 351 427
#     4  11  24  40  74  99 134 184 250 277 355 404
#     4  12  23  41  70 100 140 188 225 298 349 434
#
# _framework density 26.075652000000002
#
# number of rings (size 3 to 8) (size 9 to 14) (size 15 to 20)
#    0.000    1.250    3.750    1.500    3.500    3.500 
#    0.000    2.500    2.750    2.250    0.000    0.000 
#    0.000    0.000    0.000    0.000    0.000    0.000 
#
# Total GULP energy -178433.240294 kJ/mol
# GULP energy per Si atom -5576.038759 kJ/mol
# Density = 2.601630 g / cm^3
# Si number density = 26.075652 Si / 1000 Ang^3
#
#
#
# Elastic Constant Matrix: (Units=GPa)
#
#
# Indices 1 2 3 4 5 6 
#
# 1 87.2876 0.5165 31.8649 0.0000 -20.5717 0.0000
# 2 0.5165 42.8082 -5.6494 0.0000 -9.8820 0.0000
# 3 31.8649 -5.6494 113.2018 0.0000 -24.5969 0.0000
# 4 0.0000 0.0000 0.0000 39.5223 0.0000 -3.7378
# 5 -20.5717 -9.8820 -24.5969 0.0000 55.6236 0.0000
# 6 0.0000 0.0000 0.0000 -3.7378 0.0000 40.3045
#
#
#
# Elastic Compliance Matrix: (Units=1/GPa)
#
#
# Indices 1 2 3 4 5 6 
#
# 1 0.013406 0.000304 -0.002953 0.000000 0.003706 0.000000
# 2 0.000304 0.024962 0.002377 0.000000 0.005598 0.000000
# 3 -0.002953 0.002377 0.010663 0.000000 0.004045 0.000000
# 4 0.000000 0.000000 0.000000 0.025526 0.000000 0.002367
# 5 0.003706 0.005598 0.004045 0.000000 0.022132 0.000000
# 6 0.000000 0.000000 0.000000 0.002367 0.000000 0.025031
#
#
# Mechanical properties :
#
#
# Convention : Reuss Voigt Hill
#
# Bulk Modulus (GPa) = 20.62454 32.97350 26.79902
# Shear Modulus (GPa) = 36.12018 41.52779 38.82398
#
# Velocity S-wave (km/s) = 3.72587 3.99505 3.86281
# Velocity P-wave (km/s) = 5.14161 5.82695 5.49498
#
# Compressibility (1/GPa) = 0.04848592
#
# Stress axis : x y z
#
# Youngs Moduli (GPa) = 74.59278 40.06041 93.78574
#
# Poissons Ratio (x) = -0.01218 0.27697
# Poissons Ratio (y) = -0.02268 -0.22289
# Poissons Ratio (z) = 0.22029 -0.09521
#
# Static dielectric constant tensor:
#      x y z
#    x 2.176990 0.000000 -0.040270 
#    y 0.000000 2.182020 0.000000 
#    z -0.040270 0.000000 2.165910 
# 
# From -- ./inp_files/313156.got.cif
#   From: 2010.05.17/outbox.cif.g08.bks.cpg/sg15_157_cif.got.tgz:313156.got - 2010.06.03 18:47:42.
