data_PCOD9299520
_publ_section_title
;
Structure prediction by ZEFSAII (Michael W. Deem and Ramdas Pophale) SiO2 
 PCOD9299520
Probable space group: C 2/C
;
_chemical_formula_sum "Si O2"
_cell_formula_units_Z 60
_cell_length_a 9.961456
_cell_length_b 21.145357
_cell_length_c 14.259322
_cell_angle_alpha 90.000000
_cell_angle_beta 102.342754
_cell_angle_gamma 90.000000
_cell_volume 2934.139484
_symmetry_space_group_name_H-M "C 2/C"
_symmetry_group_IT_number 15
_symmetry_cell_setting 'monoclinic'
loop_
_space_group_symop_operation_xyz
x,y,z
-x,y,1/2-z
-x,-y,-z
x,-y,1/2+z
1/2+x,1/2+y,z
1/2-x,1/2+y,1/2-z
1/2-x,1/2-y,-z
1/2+x,1/2-y,1/2+z
loop_
_atom_site_type_symbol
_atom_site_label
_atom_site_fract_x
_atom_site_fract_y
_atom_site_fract_z
Si Si1 0.655308 0.230390 0.277316
Si Si2 0.687296 0.544209 0.198161
Si Si3 0.878822 0.153046 0.585023
Si Si4 0.000000 0.938837 0.250000
Si Si5 0.437206 0.666005 0.381433
Si Si6 0.824504 0.449660 0.519281
Si Si7 0.644875 0.926499 0.598258
Si Si8 0.768100 0.210754 0.096539
O O1 0.500000 0.202637 0.250000
O O2 0.648205 0.288805 0.348963
O O3 0.784474 0.189758 0.332478
O O4 0.695809 0.243419 0.175247
O O5 0.624408 0.483283 0.237799
O O6 0.565951 0.594460 0.157681
O O7 0.753894 0.533875 0.107181
O O8 0.800442 0.569653 0.287478
O O9 0.945400 0.170753 0.495433
O O10 0.745339 0.111946 0.537068
O O11 0.970564 0.104930 0.657199
O O12 0.569254 0.701318 0.360591
O O13 0.806379 0.511354 0.451445
O O14 0.981593 0.431712 0.563165
O O15 0.703126 0.859180 0.572581
O O16 0.750000 0.250000 0.000000
#
# Coordination Sequence:
#
# PCOD9299520 Si02
#       8
#     8   8   8   4   8   8   8   8
#     4  12  26  45  71  99 137 184 236 287 343 418
#     4  11  23  42  72  96 134 173 231 284 345 408
#     4  11  25  43  70  99 138 175 237 284 355 411
#     4  12  24  42  70 104 136 178 226 294 352 414
#     4  11  26  45  70 101 137 186 234 285 346 417
#     4  10  25  42  70 100 132 185 220 296 340 418
#     4  11  23  45  66 101 140 171 238 273 356 411
#     4  12  28  44  69 101 142 188 230 288 347 417
#
# _framework density 20.448924999999999
#
# number of rings (size 3 to 8) (size 9 to 14) (size 15 to 20)
#    0.000    0.800    3.333    2.800    7.467    1.067 
#    0.000    0.000    0.000    0.000    0.000    0.000 
#    0.000    0.000    0.000    0.000    0.000    0.000 
#
# Total GULP energy -167637.994516 kJ/mol
# GULP energy per Si atom -5587.933151 kJ/mol
# Density = 2.040238 g / cm^3
# Si number density = 20.448925 Si / 1000 Ang^3
#
#
#
# Elastic Constant Matrix: (Units=GPa)
#
#
# Indices 1 2 3 4 5 6 
#
# 1 102.5752 21.4087 50.1305 0.0000 -6.2940 0.0000
# 2 21.4087 59.6826 26.3970 0.0000 -5.6101 0.0000
# 3 50.1305 26.3970 140.0405 0.0000 -9.2810 0.0000
# 4 0.0000 0.0000 0.0000 34.4321 0.0000 9.4444
# 5 -6.2940 -5.6101 -9.2810 0.0000 32.1736 0.0000
# 6 0.0000 0.0000 0.0000 9.4444 0.0000 14.8504
#
#
#
# Elastic Compliance Matrix: (Units=1/GPa)
#
#
# Indices 1 2 3 4 5 6 
#
# 1 0.012214 -0.002612 -0.003825 0.000000 0.000831 0.000000
# 2 -0.002612 0.018997 -0.002508 0.000000 0.002078 0.000000
# 3 -0.003825 -0.002508 0.009078 0.000000 0.001433 0.000000
# 4 0.000000 0.000000 0.000000 0.035179 0.000000 -0.022373
# 5 0.000831 0.002078 0.001433 0.000000 0.032020 0.000000
# 6 0.000000 0.000000 0.000000 -0.022373 0.000000 0.081567
#
#
# Mechanical properties :
#
#
# Convention : Reuss Voigt Hill
#
# Bulk Modulus (GPa) = 44.64429 55.35228 49.99829
# Shear Modulus (GPa) = 23.31974 29.91537 26.61755
#
# Velocity S-wave (km/s) = 3.38063 3.82898 3.61177
# Velocity P-wave (km/s) = 6.09243 6.83194 6.47275
#
# Compressibility (1/GPa) = 0.02239928
#
# Stress axis : x y z
#
# Youngs Moduli (GPa) = 81.87085 52.64052 110.15864
#
# Poissons Ratio (x) = 0.13747 0.42137
# Poissons Ratio (y) = 0.21381 0.27630
# Poissons Ratio (z) = 0.31316 0.13203
#
# Static dielectric constant tensor:
#      x y z
#    x 1.722830 0.000000 0.006910 
#    y 0.000000 1.752410 0.000000 
#    z 0.006910 0.000000 1.718620 
# 
# From -- ./inp_files/137895.got.cif
#   From: 2010.05.17/outbox.cif.g08.bks.cpg/sg15_69_cif.got.tgz:137895.got - 2010.06.03 18:47:42.
