data_PCOD9299015
_publ_section_title
;
Structure prediction by ZEFSAII (Michael W. Deem and Ramdas Pophale) SiO2 
 PCOD9299015
Probable space group: C 2/C
;
_chemical_formula_sum "Si O2"
_cell_formula_units_Z 56
_cell_length_a 20.270377
_cell_length_b 18.903319
_cell_length_c 21.609213
_cell_angle_alpha 90.000000
_cell_angle_beta 19.241472
_cell_angle_gamma 90.000000
_cell_volume 2728.728432
_symmetry_space_group_name_H-M "C 2/C"
_symmetry_group_IT_number 15
_symmetry_cell_setting 'monoclinic'
loop_
_space_group_symop_operation_xyz
x,y,z
-x,y,1/2-z
-x,-y,-z
x,-y,1/2+z
1/2+x,1/2+y,z
1/2-x,1/2+y,1/2-z
1/2-x,1/2-y,-z
1/2+x,1/2-y,1/2+z
loop_
_atom_site_type_symbol
_atom_site_label
_atom_site_fract_x
_atom_site_fract_y
_atom_site_fract_z
Si Si1 0.000000 0.495538 0.250000
Si Si2 0.640532 0.962047 0.926431
Si Si3 0.443239 0.709032 0.733872
Si Si4 0.345193 0.920037 0.989505
Si Si5 0.877597 0.615896 0.757696
Si Si6 0.479264 0.417399 0.539310
Si Si7 0.243001 0.843044 0.871582
Si Si8 0.000000 0.273774 0.250000
O O1 0.162080 0.541726 0.069874
O O2 0.110115 0.446366 0.202090
O O3 0.804258 0.920129 0.743984
O O4 0.534172 0.907761 0.066733
O O5 0.500000 0.000000 0.000000
O O6 0.718323 0.025695 0.900899
O O7 0.500000 0.742726 0.750000
O O8 0.355148 0.767635 0.765485
O O9 0.625881 0.669524 0.539204
O O10 0.278976 0.650763 0.895292
O O11 0.580202 0.900493 0.787017
O O12 0.929657 0.684720 0.751509
O O13 0.671066 0.612732 0.904136
O O14 0.500000 0.500000 0.500000
O O15 0.415077 0.368455 0.539053
O O16 0.750000 0.250000 0.500000
#
# Coordination Sequence:
#
# PCOD9299015 Si02
#       8
#     4   8   8   8   8   8   8   4
#     4   9  20  42  68 100 128 169 226 290 348 415
#     4  11  21  40  68 101 140 180 221 303 372 433
#     4  12  26  42  61  88 129 183 224 274 333 415
#     4  11  22  40  65  94 133 173 225 280 344 417
#     4  10  24  46  74 104 143 183 243 308 374 449
#     4  12  23  42  69 103 140 180 233 299 379 444
#     4  12  25  41  62  91 134 179 227 279 339 426
#     4  11  28  56  80 114 152 207 268 330 392 465
#
# _framework density 20.522379999999998
#
# number of rings (size 3 to 8) (size 9 to 14) (size 15 to 20)
#    0.000    0.857    4.286    3.000    3.000    1.143 
#    2.571    0.000    0.000    0.000    0.000    0.000 
#    0.000    0.000    0.000    0.000    0.000    0.000 
#
# Total GULP energy -155919.736490 kJ/mol
# GULP energy per Si atom -5568.562017 kJ/mol
# Density = 2.047567 g / cm^3
# Si number density = 20.522380 Si / 1000 Ang^3
#
#
#
# Elastic Constant Matrix: (Units=GPa)
#
#
# Indices 1 2 3 4 5 6 
#
# 1 115.2313 42.1256 50.2815 -0.0223 2.6305 0.0077
# 2 42.1256 64.6105 26.4362 -0.0116 -0.2328 0.0254
# 3 50.2815 26.4362 66.6070 -0.0446 -0.9175 0.0260
# 4 -0.0223 -0.0116 -0.0446 21.9615 0.0222 2.6761
# 5 2.6305 -0.2328 -0.9175 0.0222 37.1084 -0.0035
# 6 0.0077 0.0254 0.0260 2.6761 -0.0035 15.5226
#
#
#
# Elastic Compliance Matrix: (Units=1/GPa)
#
#
# Indices 1 2 3 4 5 6 
#
# 1 0.014727 -0.006029 -0.008742 -0.000007 -0.001298 0.000018
# 2 -0.006029 0.020947 -0.003756 0.000000 0.000466 -0.000025
# 3 -0.008742 -0.003756 0.023119 0.000039 0.001168 -0.000035
# 4 -0.000007 0.000000 0.000039 0.046512 -0.000027 -0.008019
# 5 -0.001298 0.000466 0.001168 -0.000027 0.027072 0.000009
# 6 0.000018 -0.000025 -0.000035 -0.008019 0.000009 0.065805
#
#
# Mechanical properties :
#
#
# Convention : Reuss Voigt Hill
#
# Bulk Modulus (GPa) = 46.00072 53.79282 49.89677
# Shear Modulus (GPa) = 20.62014 23.42552 22.02283
#
# Velocity S-wave (km/s) = 3.17324 3.38222 3.27939
# Velocity P-wave (km/s) = 5.99078 6.44370 6.22136
#
# Compressibility (1/GPa) = 0.02173879
#
# Stress axis : x y z
#
# Youngs Moduli (GPa) = 67.90448 47.73967 43.25371
#
# Poissons Ratio (x) = 0.28785 0.37812
# Poissons Ratio (y) = 0.40943 0.16245
# Poissons Ratio (z) = 0.59361 0.17930
#
# Static dielectric constant tensor:
#      x y z
#    x 1.738260 -0.000040 -0.094620 
#    y -0.000040 1.773320 0.000150 
#    z -0.094620 0.000150 2.435650 
# 
# From -- ./inp_files/253358.got.cif
#   From: 2010.05.17/outbox.cif.g08.bks.cpg/sg15_127_cif.got.tgz:253358.got - 2010.06.03 18:47:42.
