data_PCOD9299544
_publ_section_title
;
Structure prediction by ZEFSAII (Michael W. Deem and Ramdas Pophale) SiO2 
 PCOD9299544
Probable space group: C 2/C
;
_chemical_formula_sum "Si O2"
_cell_formula_units_Z 44
_cell_length_a 7.243530
_cell_length_b 25.723081
_cell_length_c 18.354848
_cell_angle_alpha 90.000000
_cell_angle_beta 139.892975
_cell_angle_gamma 90.000000
_cell_volume 2203.213070
_symmetry_space_group_name_H-M "C 2/C"
_symmetry_group_IT_number 15
_symmetry_cell_setting 'monoclinic'
loop_
_space_group_symop_operation_xyz
x,y,z
-x,y,1/2-z
-x,-y,-z
x,-y,1/2+z
1/2+x,1/2+y,z
1/2-x,1/2+y,1/2-z
1/2-x,1/2-y,-z
1/2+x,1/2-y,1/2+z
loop_
_atom_site_type_symbol
_atom_site_label
_atom_site_fract_x
_atom_site_fract_y
_atom_site_fract_z
Si Si1 0.615680 0.534415 0.364059
Si Si2 0.469718 0.285610 0.521981
Si Si3 0.319239 0.664420 0.826980
Si Si4 0.732346 0.072917 0.513879
Si Si5 0.500000 0.270664 0.250000
Si Si6 0.293041 0.609544 0.368141
O O1 0.500000 0.519044 0.250000
O O2 0.662152 0.483007 0.426120
O O3 0.389136 0.568871 0.337592
O O4 0.901964 0.569521 0.440043
O O5 0.402455 0.294676 0.416431
O O6 0.780800 0.261455 0.633357
O O7 0.478236 0.344629 0.553988
O O8 0.250000 0.250000 0.500000
O O9 0.561002 0.619319 0.895782
O O10 0.316769 0.693906 0.749662
O O11 0.000000 0.644115 0.750000
O O12 0.746878 0.081512 0.431501
O O13 0.000000 0.633352 0.250000
#
# Coordination Sequence:
#
# PCOD9299544 Si02
#       6
#     8   8   8   8   4   8
#     4  11  23  43  67  98 129 173 215 265 336 392
#     4  11  24  45  66  98 132 177 222 269 330 392
#     4  11  25  44  69 101 130 175 223 273 335 392
#     4  10  25  43  65  96 134 167 220 269 326 400
#     4  12  24  44  68  96 136 174 220 274 328 396
#     4  11  22  43  67  95 130 172 217 270 326 387
#
# _framework density 19.970834
#
# number of rings (size 3 to 8) (size 9 to 14) (size 15 to 20)
#    0.000    1.091    4.545    1.091    3.818    0.727 
#    9.818    0.000    0.000    0.000    0.000    0.000 
#    0.000    0.000    0.000    0.000    0.000    0.000 
#
# Total GULP energy -122751.738298 kJ/mol
# GULP energy per Si atom -5579.624468 kJ/mol
# Density = 1.992538 g / cm^3
# Si number density = 19.970834 Si / 1000 Ang^3
#
#
#
# Elastic Constant Matrix: (Units=GPa)
#
#
# Indices 1 2 3 4 5 6 
#
# 1 67.2986 56.9336 30.3525 0.0000 -8.5852 -0.0003
# 2 56.9336 72.9541 31.3431 0.0000 -9.7383 0.0003
# 3 30.3525 31.3431 89.0424 -0.0006 -2.8945 -0.0007
# 4 0.0000 0.0000 -0.0006 31.6034 -0.0001 8.4664
# 5 -8.5852 -9.7383 -2.8945 -0.0001 36.8932 -0.0003
# 6 -0.0003 0.0003 -0.0007 8.4664 -0.0003 44.4892
#
#
#
# Elastic Compliance Matrix: (Units=1/GPa)
#
#
# Indices 1 2 3 4 5 6 
#
# 1 0.044693 -0.033189 -0.003508 0.000000 0.001364 0.000001
# 2 -0.033189 0.041354 -0.003147 0.000000 0.002946 -0.000001
# 3 -0.003508 -0.003147 0.013515 0.000000 -0.000587 0.000000
# 4 0.000000 0.000000 0.000000 0.033342 0.000000 -0.006345
# 5 0.001364 0.002946 -0.000587 0.000000 0.028154 0.000000
# 6 0.000001 -0.000001 0.000000 -0.006345 0.000000 0.023685
#
#
# Mechanical properties :
#
#
# Convention : Reuss Voigt Hill
#
# Bulk Modulus (GPa) = 50.31983 51.83927 51.07955
# Shear Modulus (GPa) = 18.44637 29.97488 24.21063
#
# Velocity S-wave (km/s) = 3.04248 3.87839 3.48559
# Velocity P-wave (km/s) = 6.13137 6.78747 6.46774
#
# Compressibility (1/GPa) = 0.01987288
#
# Stress axis : x y z
#
# Youngs Moduli (GPa) = 22.37490 24.18163 73.99122
#
# Poissons Ratio (x) = 0.80257 0.25954
# Poissons Ratio (y) = 0.74261 0.23287
# Poissons Ratio (z) = 0.07849 0.07611
#
# Static dielectric constant tensor:
#      x y z
#    x 1.677000 0.000000 0.026840 
#    y 0.000000 1.671580 0.000000 
#    z 0.026840 0.000000 1.729150 
# 
# From -- ./inp_files/130136.got.cif
#   From: 2010.05.17/outbox.cif.g08.bks.cpg/sg15_66_cif.got.tgz:130136.got - 2010.06.03 18:47:42.
