data_PCOD9299363
_publ_section_title
;
Structure prediction by ZEFSAII (Michael W. Deem and Ramdas Pophale) SiO2 
 PCOD9299363
Probable space group: C 2/C
;
_chemical_formula_sum "Si O2"
_cell_formula_units_Z 40
_cell_length_a 19.641841
_cell_length_b 18.828606
_cell_length_c 11.744357
_cell_angle_alpha 90.000000
_cell_angle_beta 23.388240
_cell_angle_gamma 90.000000
_cell_volume 1724.153057
_symmetry_space_group_name_H-M "C 2/C"
_symmetry_group_IT_number 15
_symmetry_cell_setting 'monoclinic'
loop_
_space_group_symop_operation_xyz
x,y,z
-x,y,1/2-z
-x,-y,-z
x,-y,1/2+z
1/2+x,1/2+y,z
1/2-x,1/2+y,1/2-z
1/2-x,1/2-y,-z
1/2+x,1/2-y,1/2+z
loop_
_atom_site_type_symbol
_atom_site_label
_atom_site_fract_x
_atom_site_fract_y
_atom_site_fract_z
Si Si1 0.841153 0.576584 0.906907
Si Si2 0.851091 0.058842 0.754459
Si Si3 0.298691 0.362693 0.098640
Si Si4 0.676237 0.688228 0.534922
Si Si5 0.809471 0.299068 0.592692
O O1 0.825777 0.598957 0.799882
O O2 0.000000 0.580167 0.750000
O O3 0.793312 0.495047 0.983219
O O4 0.723969 0.639594 0.146206
O O5 0.799347 0.099782 0.719535
O O6 0.870989 0.117916 0.821424
O O7 0.000000 0.000000 0.500000
O O8 0.238986 0.280682 0.194966
O O9 0.500000 0.367733 0.750000
O O10 0.500000 0.714017 0.750000
O O11 0.750000 0.750000 0.500000
O O12 0.801280 0.675806 0.235446
O O13 0.000000 0.288244 0.250000
#
# Coordination Sequence:
#
# PCOD9299363 Si02
#       5
#     8   8   8   8   8
#     4  11  26  43  70 106 145 193 251 324 385 453
#     4  12  26  47  74 113 151 208 254 316 395 471
#     4  11  23  44  75 101 144 200 261 305 379 485
#     4  12  28  49  78 115 159 202 262 327 387 466
#     4  10  24  49  75 108 150 204 260 319 395 469
#
# _framework density 23.199797
#
# number of rings (size 3 to 8) (size 9 to 14) (size 15 to 20)
#    0.000    0.800    4.000    1.800    5.600    4.800 
#    3.600    0.000    0.000    0.000    0.000    0.000 
#    0.000    0.000    0.000    0.000    0.000    0.000 
#
# Total GULP energy -111606.361997 kJ/mol
# GULP energy per Si atom -5580.318100 kJ/mol
# Density = 2.314699 g / cm^3
# Si number density = 23.199797 Si / 1000 Ang^3
#
#
#
# Elastic Constant Matrix: (Units=GPa)
#
#
# Indices 1 2 3 4 5 6 
#
# 1 152.9039 28.6728 49.1039 -0.0059 5.9162 0.0015
# 2 28.6728 117.5262 18.9511 -0.0068 -2.5719 -0.0049
# 3 49.1039 18.9511 66.1806 0.0013 8.5674 -0.0119
# 4 -0.0059 -0.0068 0.0013 16.7168 0.0034 -3.3379
# 5 5.9162 -2.5719 8.5674 0.0034 47.5085 0.0029
# 6 0.0015 -0.0049 -0.0119 -3.3379 0.0029 9.1156
#
#
#
# Elastic Compliance Matrix: (Units=1/GPa)
#
#
# Indices 1 2 3 4 5 6 
#
# 1 0.008729 -0.001140 -0.006145 0.000001 -0.000041 -0.000010
# 2 -0.001140 0.009113 -0.001890 0.000004 0.000976 0.000004
# 3 -0.006145 -0.001890 0.020606 0.000002 -0.003053 0.000028
# 4 0.000001 0.000004 0.000002 0.064539 -0.000006 0.023633
# 5 -0.000041 0.000976 -0.003053 -0.000006 0.021657 -0.000013
# 6 -0.000010 0.000004 0.000028 0.023633 -0.000013 0.118356
#
#
# Mechanical properties :
#
#
# Convention : Reuss Voigt Hill
#
# Bulk Modulus (GPa) = 49.75602 58.89625 54.32613
# Shear Modulus (GPa) = 18.65330 30.66038 24.65684
#
# Velocity S-wave (km/s) = 2.83862 3.63930 3.26360
# Velocity P-wave (km/s) = 5.67776 6.56513 6.13750
#
# Compressibility (1/GPa) = 0.02009807
#
# Stress axis : x y z
#
# Youngs Moduli (GPa) = 114.56477 109.73398 48.52957
#
# Poissons Ratio (x) = 0.12505 0.29821
# Poissons Ratio (y) = 0.13055 0.09174
# Poissons Ratio (z) = 0.70398 0.20744
#
# Static dielectric constant tensor:
#      x y z
#    x 1.698850 -0.000010 0.062100 
#    y -0.000010 1.933930 0.000020 
#    z 0.062100 0.000020 2.015640 
# 
# From -- ./inp_files/106804.got.cif
#   From: 2010.05.17/outbox.cif.g08.bks.cpg/sg15_54_cif.got.tgz:106804.got - 2010.06.03 18:47:42.
