data_PCOD9299435
_publ_section_title
;
Structure prediction by ZEFSAII (Michael W. Deem and Ramdas Pophale) SiO2 
 PCOD9299435
Probable space group: C 2/C
;
_chemical_formula_sum "Si O2"
_cell_formula_units_Z 52
_cell_length_a 4.943577
_cell_length_b 14.484984
_cell_length_c 29.171514
_cell_angle_alpha 90.000000
_cell_angle_beta 109.811823
_cell_angle_gamma 90.000000
_cell_volume 1965.262693
_symmetry_space_group_name_H-M "C 2/C"
_symmetry_group_IT_number 15
_symmetry_cell_setting 'monoclinic'
loop_
_space_group_symop_operation_xyz
x,y,z
-x,y,1/2-z
-x,-y,-z
x,-y,1/2+z
1/2+x,1/2+y,z
1/2-x,1/2+y,1/2-z
1/2-x,1/2-y,-z
1/2+x,1/2-y,1/2+z
loop_
_atom_site_type_symbol
_atom_site_label
_atom_site_fract_x
_atom_site_fract_y
_atom_site_fract_z
Si Si1 0.942037 0.157777 0.168190
Si Si2 0.064472 1.000000 0.407236
Si Si3 0.730722 0.657778 0.668190
Si Si4 0.000000 0.750000 0.250000
Si Si5 0.500000 0.442540 0.750000
Si Si6 0.500000 0.057460 0.750000
Si Si7 0.371991 0.648400 0.467209
Si Si8 0.496845 0.851600 0.467209
O O1 0.914914 0.082311 0.128107
O O2 0.787623 0.250000 0.143811
O O3 0.237406 0.191630 0.210757
O O4 0.792541 0.112294 0.203925
O O5 0.906706 0.056868 0.438684
O O6 0.348029 0.943132 0.438684
O O7 0.902484 0.917689 0.371893
O O8 0.605621 0.691630 0.710757
O O9 0.023161 0.612294 0.703925
O O10 0.290169 0.500000 0.770084
O O11 0.387644 0.750000 0.443822
O O12 0.098066 0.647163 0.484590
O O13 0.659707 0.647163 0.515410
#
# Coordination Sequence:
#
# PCOD9299435 Si02
#       8
#     8   8   8   4   4   4   8   8
#     4  12  27  45  73 107 156 211 265 325 377 461
#     4  12  28  46  76 124 148 200 268 330 376 468
#     4  12  27  45  73 107 156 211 265 325 377 461
#     4  12  24  52  70 102 166 218 262 318 402 438
#     4  12  24  48  72 102 146 212 260 310 392 446
#     4  12  24  48  72 102 146 212 260 310 392 446
#     4  10  24  53  83 112 158 204 245 314 407 480
#     4  10  24  53  83 112 158 204 245 314 407 480
#
# _framework density 26.459567
#
# number of rings (size 3 to 8) (size 9 to 14) (size 15 to 20)
#    0.000    0.615    4.615    1.846    2.154    3.692 
#   11.077    0.000    0.000    0.000    0.000    0.000 
#    0.000    0.000    0.000    0.000    0.000    0.000 
#
# Total GULP energy -145234.621491 kJ/mol
# GULP energy per Si atom -5585.946980 kJ/mol
# Density = 2.639934 g / cm^3
# Si number density = 26.459567 Si / 1000 Ang^3
#
#
#
# Elastic Constant Matrix: (Units=GPa)
#
#
# Indices 1 2 3 4 5 6 
#
# 1 64.9901 30.6084 22.1212 0.0000 -0.6888 0.0000
# 2 30.6084 255.3422 72.6888 0.0000 1.1914 0.0000
# 3 22.1212 72.6888 92.4770 0.0000 1.4669 0.0000
# 4 0.0000 0.0000 0.0000 46.0262 0.0000 0.0579
# 5 -0.6888 1.1914 1.4669 0.0000 9.3283 0.0000
# 6 0.0000 0.0000 0.0000 0.0579 0.0000 43.9722
#
#
#
# Elastic Compliance Matrix: (Units=1/GPa)
#
#
# Indices 1 2 3 4 5 6 
#
# 1 0.017036 -0.001137 -0.003212 0.000000 0.001908 0.000000
# 2 -0.001137 0.005121 -0.003751 0.000000 -0.000148 0.000000
# 3 -0.003212 -0.003751 0.014563 0.000000 -0.002048 0.000000
# 4 0.000000 0.000000 0.000000 0.021727 0.000000 -0.000029
# 5 0.001908 -0.000148 -0.002048 0.000000 0.107682 0.000000
# 6 0.000000 0.000000 0.000000 -0.000029 0.000000 0.022742
#
#
# Mechanical properties :
#
#
# Convention : Reuss Voigt Hill
#
# Bulk Modulus (GPa) = 48.73212 73.73845 61.23528
# Shear Modulus (GPa) = 23.59495 39.02473 31.30984
#
# Velocity S-wave (km/s) = 2.98943 3.84458 3.44366
# Velocity P-wave (km/s) = 5.51119 6.90193 6.24539
#
# Compressibility (1/GPa) = 0.02052035
#
# Stress axis : x y z
#
# Youngs Moduli (GPa) = 58.69992 195.27163 68.66869
#
# Poissons Ratio (x) = 0.22196 0.22056
# Poissons Ratio (y) = 0.06672 0.25758
# Poissons Ratio (z) = 0.18854 0.73247
#
# Static dielectric constant tensor:
#      x y z
#    x 2.246050 0.000000 -0.006220 
#    y 0.000000 2.395010 0.000000 
#    z -0.006220 0.000000 2.026140 
# 
# From -- ./inp_files/305475.got.cif
#   From: 2010.05.17/outbox.cif.g08.bks.cpg/sg15_153_cif.got.tgz:305475.got - 2010.06.03 18:47:42.
