data_PCOD9299366
_publ_section_title
;
Structure prediction by ZEFSAII (Michael W. Deem and Ramdas Pophale) SiO2 
 PCOD9299366
Probable space group: C 2/C
;
_chemical_formula_sum "Si O2"
_cell_formula_units_Z 52
_cell_length_a 26.076559
_cell_length_b 5.417900
_cell_length_c 19.377666
_cell_angle_alpha 90.000000
_cell_angle_beta 129.953124
_cell_angle_gamma 90.000000
_cell_volume 2098.623811
_symmetry_space_group_name_H-M "C 2/C"
_symmetry_group_IT_number 15
_symmetry_cell_setting 'monoclinic'
loop_
_space_group_symop_operation_xyz
x,y,z
-x,y,1/2-z
-x,-y,-z
x,-y,1/2+z
1/2+x,1/2+y,z
1/2-x,1/2+y,1/2-z
1/2-x,1/2-y,-z
1/2+x,1/2-y,1/2+z
loop_
_atom_site_type_symbol
_atom_site_label
_atom_site_fract_x
_atom_site_fract_y
_atom_site_fract_z
Si Si1 0.012499 0.684532 0.946986
Si Si2 0.862050 0.699385 0.619439
Si Si3 0.925707 0.658079 0.281843
Si Si4 0.275511 0.259115 0.807115
Si Si5 0.599128 0.555615 0.611005
Si Si6 0.254343 0.058715 0.940852
Si Si7 0.500000 0.458326 0.750000
O O1 0.981958 0.533686 0.857478
O O2 0.085362 0.791774 0.029077
O O3 0.966656 0.924327 0.916121
O O4 0.000000 0.500000 0.000000
O O5 0.878386 0.479323 0.686686
O O6 0.819009 0.606357 0.517220
O O7 0.812766 0.893187 0.614729
O O8 0.934974 0.811664 0.666059
O O9 0.884182 0.762469 0.311224
O O10 0.966620 0.869195 0.278469
O O11 0.242743 0.517354 0.753193
O O12 0.147748 0.831711 0.638305
O O13 0.263191 0.190766 0.875744
O O14 0.250000 0.250000 0.000000
#
# Coordination Sequence:
#
# PCOD9299366 Si02
#       7
#     8   8   8   8   8   8   4
#     4   9  21  44  73 107 153 209 253 332 422 490
#     4  11  27  52  84 114 170 223 289 353 439 518
#     4  11  24  46  80 116 165 217 275 348 430 516
#     4  12  33  53  86 126 169 224 299 355 431 522
#     4  10  24  49  75 113 161 210 269 345 419 501
#     4  11  29  57  84 117 165 231 282 365 436 525
#     4  12  26  46  76 132 156 220 286 362 426 526
#
# _framework density 24.778144000000001
#
# number of rings (size 3 to 8) (size 9 to 14) (size 15 to 20)
#    0.000    1.231    0.000    2.308   15.077    0.000 
#   36.000    0.000    0.000    0.000    0.000    0.000 
#    0.000    0.000    0.000    0.000    0.000    0.000 
#
# Total GULP energy -145525.021871 kJ/mol
# GULP energy per Si atom -5597.116226 kJ/mol
# Density = 2.472175 g / cm^3
# Si number density = 24.778144 Si / 1000 Ang^3
#
#
#
# Elastic Constant Matrix: (Units=GPa)
#
#
# Indices 1 2 3 4 5 6 
#
# 1 110.9522 56.2881 69.3642 -0.0001 -6.1835 0.0000
# 2 56.2881 125.9888 59.6896 -0.0016 -1.0883 -0.0007
# 3 69.3642 59.6896 137.9067 -0.0006 5.3113 -0.0002
# 4 -0.0001 -0.0016 -0.0006 65.2955 0.0000 6.2201
# 5 -6.1835 -1.0883 5.3113 0.0000 33.9644 0.0001
# 6 0.0000 -0.0007 -0.0002 6.2201 0.0001 57.4748
#
#
#
# Elastic Compliance Matrix: (Units=1/GPa)
#
#
# Indices 1 2 3 4 5 6 
#
# 1 0.014861 -0.003778 -0.005975 0.000000 0.003519 0.000000
# 2 -0.003778 0.010979 -0.002856 0.000000 0.000111 0.000000
# 3 -0.005975 -0.002856 0.011608 0.000000 -0.002995 0.000000
# 4 0.000000 0.000000 0.000000 0.015475 0.000000 -0.001675
# 5 0.003519 0.000111 -0.002995 0.000000 0.030555 0.000000
# 6 0.000000 0.000000 0.000000 -0.001675 0.000000 0.017580
#
#
# Mechanical properties :
#
#
# Convention : Reuss Voigt Hill
#
# Bulk Modulus (GPa) = 81.76694 82.83686 82.30190
# Shear Modulus (GPa) = 38.35714 43.98065 41.16889
#
# Velocity S-wave (km/s) = 3.93876 4.21762 4.08057
# Velocity P-wave (km/s) = 7.33187 7.56451 7.44910
#
# Compressibility (1/GPa) = 0.01222988
#
# Stress axis : x y z
#
# Youngs Moduli (GPa) = 67.28890 91.08055 86.14699
#
# Poissons Ratio (x) = 0.34414 0.51473
# Poissons Ratio (y) = 0.25424 0.24603
# Poissons Ratio (z) = 0.40206 0.26012
#
# Static dielectric constant tensor:
#      x y z
#    x 2.003530 0.000000 0.016260 
#    y 0.000000 1.958120 0.000000 
#    z 0.016260 0.000000 2.096220 
# 
# From -- ./inp_files/256810.got.cif
#   From: 2010.05.17/outbox.cif.g08.bks.cpg/sg15_129_cif.got.tgz:256810.got - 2010.06.03 18:47:42.
