data_PCOD9299510
_publ_section_title
;
Structure prediction by ZEFSAII (Michael W. Deem and Ramdas Pophale) SiO2 
 PCOD9299510
Probable space group: C 2/C
;
_chemical_formula_sum "Si O2"
_cell_formula_units_Z 48
_cell_length_a 17.159941
_cell_length_b 11.346849
_cell_length_c 11.940106
_cell_angle_alpha 90.000000
_cell_angle_beta 111.346355
_cell_angle_gamma 90.000000
_cell_volume 2165.379891
_symmetry_space_group_name_H-M "C 2/C"
_symmetry_group_IT_number 15
_symmetry_cell_setting 'monoclinic'
loop_
_space_group_symop_operation_xyz
x,y,z
-x,y,1/2-z
-x,-y,-z
x,-y,1/2+z
1/2+x,1/2+y,z
1/2-x,1/2+y,1/2-z
1/2-x,1/2-y,-z
1/2+x,1/2-y,1/2+z
loop_
_atom_site_type_symbol
_atom_site_label
_atom_site_fract_x
_atom_site_fract_y
_atom_site_fract_z
Si Si1 0.373724 0.254956 0.978361
Si Si2 0.064250 0.157755 0.566154
Si Si3 0.597568 0.169976 0.270388
Si Si4 0.826093 0.962834 0.803944
Si Si5 0.165381 0.798590 0.899588
Si Si6 0.154427 0.413086 0.233430
O O1 0.319478 0.356173 0.889625
O O2 0.368909 0.137068 0.900666
O O3 0.467792 0.306561 0.020056
O O4 0.355198 0.222418 0.096802
O O5 0.112537 0.253715 0.667717
O O6 0.100997 0.163014 0.461150
O O7 0.087257 0.032285 0.632625
O O8 0.500000 0.182315 0.250000
O O9 0.613705 0.034903 0.249694
O O10 0.818457 0.905258 0.677915
O O11 0.752833 0.056403 0.786030
O O12 0.131832 0.690698 0.807235
O O13 0.250000 0.750000 0.000000
#
# Coordination Sequence:
#
# PCOD9299510 Si02
#       6
#     8   8   8   8   8   8
#     4  10  26  46  66  99 134 175 227 273 335 397
#     4  11  24  45  70  98 133 175 224 276 333 395
#     4  10  25  42  68  97 133 174 223 273 332 399
#     4  11  25  43  68  98 134 178 223 275 333 394
#     4  11  24  43  67 100 135 177 223 274 331 395
#     4  11  25  41  68  98 133 177 221 271 340 395
#
# _framework density 22.167012
#
# number of rings (size 3 to 8) (size 9 to 14) (size 15 to 20)
#    0.000    1.333    1.667    1.500   11.667    4.000 
#    3.000    0.000    0.000    0.000    0.000    0.000 
#    0.000    0.000    0.000    0.000    0.000    0.000 
#
# Total GULP energy -134277.887109 kJ/mol
# GULP energy per Si atom -5594.911963 kJ/mol
# Density = 2.211656 g / cm^3
# Si number density = 22.167012 Si / 1000 Ang^3
#
#
#
# Elastic Constant Matrix: (Units=GPa)
#
#
# Indices 1 2 3 4 5 6 
#
# 1 70.1831 15.2940 23.4125 0.0000 -1.6589 0.0000
# 2 15.2940 88.9349 28.3755 0.0000 -5.2740 0.0000
# 3 23.4125 28.3755 105.6070 0.0000 -4.4197 0.0000
# 4 0.0000 0.0000 0.0000 55.1996 0.0000 5.3509
# 5 -1.6589 -5.2740 -4.4197 0.0000 18.3976 0.0000
# 6 0.0000 0.0000 0.0000 5.3509 0.0000 25.4945
#
#
#
# Elastic Compliance Matrix: (Units=1/GPa)
#
#
# Indices 1 2 3 4 5 6 
#
# 1 0.015627 -0.001720 -0.002994 0.000000 0.000197 0.000000
# 2 -0.001720 0.012628 -0.002896 0.000000 0.002769 0.000000
# 3 -0.002994 -0.002896 0.010975 0.000000 0.001536 0.000000
# 4 0.000000 0.000000 0.000000 0.018492 0.000000 -0.003881
# 5 0.000197 0.002769 0.001536 0.000000 0.055536 0.000000
# 6 0.000000 0.000000 0.000000 -0.003881 0.000000 0.040039
#
#
# Mechanical properties :
#
#
# Convention : Reuss Voigt Hill
#
# Bulk Modulus (GPa) = 41.64936 44.32100 42.98518
# Shear Modulus (GPa) = 28.32540 32.99456 30.65998
#
# Velocity S-wave (km/s) = 3.57854 3.86223 3.72309
# Velocity P-wave (km/s) = 5.99201 6.31875 6.15755
#
# Compressibility (1/GPa) = 0.02400998
#
# Stress axis : x y z
#
# Youngs Moduli (GPa) = 63.99290 79.18793 91.11482
#
# Poissons Ratio (x) = 0.13624 0.27279
# Poissons Ratio (y) = 0.11009 0.26385
# Poissons Ratio (z) = 0.19159 0.22931
#
# Static dielectric constant tensor:
#      x y z
#    x 1.818780 0.000000 0.044230 
#    y 0.000000 1.786750 0.000000 
#    z 0.044230 0.000000 1.833680 
# 
# From -- ./inp_files/104286.got.cif
#   From: 2010.05.17/outbox.cif.g08.bks.cpg/sg15_53_cif.got.tgz:104286.got - 2010.06.03 18:47:42.
