data_PCOD9299265
_publ_section_title
;
Structure prediction by ZEFSAII (Michael W. Deem and Ramdas Pophale) SiO2 
 PCOD9299265
Probable space group: C 2/C
;
_chemical_formula_sum "Si O2"
_cell_formula_units_Z 28
_cell_length_a 5.944247
_cell_length_b 18.326573
_cell_length_c 11.873946
_cell_angle_alpha 90.000000
_cell_angle_beta 115.309701
_cell_angle_gamma 90.000000
_cell_volume 1169.355327
_symmetry_space_group_name_H-M "C 2/C"
_symmetry_group_IT_number 15
_symmetry_cell_setting 'monoclinic'
loop_
_space_group_symop_operation_xyz
x,y,z
-x,y,1/2-z
-x,-y,-z
x,-y,1/2+z
1/2+x,1/2+y,z
1/2-x,1/2+y,1/2-z
1/2-x,1/2-y,-z
1/2+x,1/2-y,1/2+z
loop_
_atom_site_type_symbol
_atom_site_label
_atom_site_fract_x
_atom_site_fract_y
_atom_site_fract_z
Si Si1 0.740916 0.572645 0.358645
Si Si2 0.984540 0.569082 0.617661
Si Si3 0.753178 0.793490 0.118345
Si Si4 0.500000 0.289320 0.750000
O O1 0.500000 0.537127 0.250000
O O2 0.956436 0.516780 0.375506
O O3 0.731403 0.654187 0.308443
O O4 0.733825 0.579688 0.492200
O O5 0.179915 0.621112 0.593368
O O6 0.000000 0.591029 0.750000
O O7 0.534760 0.758087 0.147462
O O8 0.000000 0.788506 0.250000
O O9 0.750000 0.750000 0.000000
#
# Coordination Sequence:
#
# PCOD9299265 Si02
#       4
#     8   8   8   4
#     4   9  23  43  65  95 137 183 220 282 351 399
#     4  11  23  42  70 100 137 181 234 284 342 413
#     4  12  27  43  72 104 140 185 235 284 352 413
#     4  10  24  48  70  98 148 178 228 294 344 406
#
# _framework density 23.944817
#
# number of rings (size 3 to 8) (size 9 to 14) (size 15 to 20)
#    0.857    0.571    1.429    2.571    4.000    9.143 
#    0.000    0.000    0.000    0.000    0.000    0.000 
#    0.000    0.000    0.000    0.000    0.000    0.000 
#
# Total GULP energy -78039.272655 kJ/mol
# GULP energy per Si atom -5574.233761 kJ/mol
# Density = 2.389032 g / cm^3
# Si number density = 23.944817 Si / 1000 Ang^3
#
#
#
# Elastic Constant Matrix: (Units=GPa)
#
#
# Indices 1 2 3 4 5 6 
#
# 1 24.6233 24.4736 29.0804 0.0000 -7.0387 0.0000
# 2 24.4736 140.5622 35.0136 0.0000 -10.3756 0.0000
# 3 29.0804 35.0136 210.5786 0.0000 1.6256 0.0000
# 4 0.0000 0.0000 0.0000 34.3407 0.0000 -2.9753
# 5 -7.0387 -10.3756 1.6256 0.0000 46.2698 0.0000
# 6 0.0000 0.0000 0.0000 -2.9753 0.0000 19.4721
#
#
#
# Elastic Compliance Matrix: (Units=1/GPa)
#
#
# Indices 1 2 3 4 5 6 
#
# 1 0.058731 -0.007976 -0.006841 0.000000 0.007386 0.000000
# 2 -0.007976 0.008642 -0.000341 0.000000 0.000737 0.000000
# 3 -0.006841 -0.000341 0.005761 0.000000 -0.001320 0.000000
# 4 0.000000 0.000000 0.000000 0.029511 0.000000 0.004509
# 5 0.007386 0.000737 -0.001320 0.000000 0.022948 0.000000
# 6 0.000000 0.000000 0.000000 0.004509 0.000000 0.052044
#
#
# Mechanical properties :
#
#
# Convention : Reuss Voigt Hill
#
# Bulk Modulus (GPa) = 23.35578 61.43324 42.39451
# Shear Modulus (GPa) = 22.49960 39.16295 30.83128
#
# Velocity S-wave (km/s) = 3.06869 4.04858 3.59220
# Velocity P-wave (km/s) = 4.72556 6.89685 5.91175
#
# Compressibility (1/GPa) = 0.04281596
#
# Stress axis : x y z
#
# Youngs Moduli (GPa) = 17.02683 115.70823 173.59580
#
# Poissons Ratio (x) = 0.92293 1.18763
# Poissons Ratio (y) = 0.13581 0.05923
# Poissons Ratio (z) = 0.11649 0.03948
#
# Static dielectric constant tensor:
#      x y z
#    x 1.952920 0.000000 0.042520 
#    y 0.000000 1.878160 0.000000 
#    z 0.042520 0.000000 2.034150 
# 
# From -- ./inp_files/71577.got.cif
#   From: 2010.05.17/outbox.cif.g08.bks.cpg/sg15_36_cif.got.tgz:71577.got - 2010.06.03 18:47:42.
