data_PCOD9299963
_publ_section_title
;
Structure prediction by ZEFSAII (Michael W. Deem and Ramdas Pophale) SiO2 
 PCOD9299963
Probable space group: C 2/C
;
_chemical_formula_sum "Si O2"
_cell_formula_units_Z 28
_cell_length_a 22.300083
_cell_length_b 5.373064
_cell_length_c 9.235677
_cell_angle_alpha 90.000000
_cell_angle_beta 62.267477
_cell_angle_gamma 90.000000
_cell_volume 979.499243
_symmetry_space_group_name_H-M "C 2/C"
_symmetry_group_IT_number 15
_symmetry_cell_setting 'monoclinic'
loop_
_space_group_symop_operation_xyz
x,y,z
-x,y,1/2-z
-x,-y,-z
x,-y,1/2+z
1/2+x,1/2+y,z
1/2-x,1/2+y,1/2-z
1/2-x,1/2-y,-z
1/2+x,1/2-y,1/2+z
loop_
_atom_site_type_symbol
_atom_site_label
_atom_site_fract_x
_atom_site_fract_y
_atom_site_fract_z
Si Si1 0.246308 0.944959 0.666225
Si Si2 0.401165 0.489723 0.654819
Si Si3 0.383776 0.154295 0.400406
Si Si4 0.500000 0.214783 0.750000
O O1 0.265144 0.677205 0.710591
O O2 0.170792 0.904007 0.691239
O O3 0.307754 0.053619 0.503320
O O4 0.394830 0.384067 0.500053
O O5 0.399735 0.770385 0.717055
O O6 0.465450 0.369899 0.661146
O O7 0.439804 0.954081 0.377866
#
# Coordination Sequence:
#
# PCOD9299963 Si02
#       4
#     8   8   8   4
#     4  10  25  49  84 116 153 200 264 329 387 454
#     4  11  27  50  77 113 155 201 265 320 392 460
#     4  11  27  49  79 113 155 203 261 323 392 462
#     4  12  28  44  78 112 162 206 256 314 392 474
#
# _framework density 28.586034000000001
#
# number of rings (size 3 to 8) (size 9 to 14) (size 15 to 20)
#    0.000    1.143    0.000    2.571   16.000    5.714 
#    0.000    0.000    0.000    0.000    0.000    0.000 
#    0.000    0.000    0.000    0.000    0.000    0.000 
#
# Total GULP energy -78479.859239 kJ/mol
# GULP energy per Si atom -5605.704231 kJ/mol
# Density = 2.852097 g / cm^3
# Si number density = 28.586034 Si / 1000 Ang^3
#
#
#
# Elastic Constant Matrix: (Units=GPa)
#
#
# Indices 1 2 3 4 5 6 
#
# 1 181.8214 25.8102 43.3587 0.0000 -14.7790 0.0000
# 2 25.8102 114.2951 60.3871 0.0000 9.5211 0.0000
# 3 43.3587 60.3871 145.5244 0.0000 13.0171 0.0000
# 4 0.0000 0.0000 0.0000 69.8547 0.0000 -11.6099
# 5 -14.7790 9.5211 13.0171 0.0000 53.5133 0.0000
# 6 0.0000 0.0000 0.0000 -11.6099 0.0000 48.4372
#
#
#
# Elastic Compliance Matrix: (Units=1/GPa)
#
#
# Indices 1 2 3 4 5 6 
#
# 1 0.006200 -0.000648 -0.001781 0.000000 0.002261 0.000000
# 2 -0.000648 0.011315 -0.004402 0.000000 -0.001121 0.000000
# 3 -0.001781 -0.004402 0.009408 0.000000 -0.001997 0.000000
# 4 0.000000 0.000000 0.000000 0.014909 0.000000 0.003574
# 5 0.002261 -0.001121 -0.001997 0.000000 0.019997 0.000000
# 6 0.000000 0.000000 0.000000 0.003574 0.000000 0.021502
#
#
# Mechanical properties :
#
#
# Convention : Reuss Voigt Hill
#
# Bulk Modulus (GPa) = 75.40470 77.86144 76.63307
# Shear Modulus (GPa) = 49.30402 55.16668 52.23535
#
# Velocity S-wave (km/s) = 4.15753 4.39777 4.27933
# Velocity P-wave (km/s) = 7.03435 7.28587 7.16122
#
# Compressibility (1/GPa) = 0.01326177
#
# Stress axis : x y z
#
# Youngs Moduli (GPa) = 161.28328 88.38106 106.29733
#
# Poissons Ratio (x) = 0.05723 0.18930
# Poissons Ratio (y) = 0.10444 0.46791
# Poissons Ratio (z) = 0.28722 0.38905
#
# Static dielectric constant tensor:
#      x y z
#    x 2.183090 0.000000 0.015060 
#    y 0.000000 2.261350 0.000000 
#    z 0.015060 0.000000 2.188510 
# 
# From -- ./inp_files/108807.got.cif
#   From: 2010.05.17/outbox.cif.g08.bks.cpg/sg15_55_cif.got.tgz:108807.got - 2010.06.03 18:47:42.
