data_PCOD9299349
_publ_section_title
;
Structure prediction by ZEFSAII (Michael W. Deem and Ramdas Pophale) SiO2 
 PCOD9299349
Probable space group: C 2/C
;
_chemical_formula_sum "Si O2"
_cell_formula_units_Z 48
_cell_length_a 4.949323
_cell_length_b 22.725515
_cell_length_c 17.971151
_cell_angle_alpha 90.000000
_cell_angle_beta 104.622081
_cell_angle_gamma 90.000000
_cell_volume 1955.854979
_symmetry_space_group_name_H-M "C 2/C"
_symmetry_group_IT_number 15
_symmetry_cell_setting 'monoclinic'
loop_
_space_group_symop_operation_xyz
x,y,z
-x,y,1/2-z
-x,-y,-z
x,-y,1/2+z
1/2+x,1/2+y,z
1/2-x,1/2+y,1/2-z
1/2-x,1/2-y,-z
1/2+x,1/2-y,1/2+z
loop_
_atom_site_type_symbol
_atom_site_label
_atom_site_fract_x
_atom_site_fract_y
_atom_site_fract_z
Si Si1 0.501115 0.382196 0.020929
Si Si2 0.283427 0.886436 0.803595
Si Si3 0.414526 0.090637 0.879933
Si Si4 0.104426 0.256549 0.672468
Si Si5 0.401878 0.970669 0.571070
Si Si6 0.000000 0.661044 0.750000
Si Si7 0.750000 0.750000 0.000000
O O1 0.833755 0.379272 0.054443
O O2 0.357017 0.403999 0.087739
O O3 0.381218 0.317896 0.993728
O O4 0.387362 0.434852 0.959086
O O5 0.500000 0.886849 0.750000
O O6 0.246087 0.819191 0.827795
O O7 0.395219 0.922223 0.880830
O O8 0.000000 0.910496 0.750000
O O9 0.342918 0.121224 0.797941
O O10 0.553290 0.027085 0.873569
O O11 0.316853 0.203075 0.685604
O O12 0.000000 0.256187 0.750000
O O13 0.874925 0.248377 0.593570
O O14 0.500000 0.000000 0.500000
#
# Coordination Sequence:
#
# PCOD9299349 Si02
#       7
#     8   8   8   8   8   4   4
#     4  11  24  45  69 103 136 185 238 292 355 425
#     4  11  25  45  72 104 141 188 238 298 366 427
#     4  11  26  43  69 100 143 187 230 290 359 427
#     4  11  24  46  70 106 146 188 240 305 364 438
#     4  10  24  49  70 103 142 188 240 297 353 436
#     4  12  24  44  70 102 150 180 240 296 370 426
#     4  12  22  46  74 106 144 188 248 296 374 426
#
# _framework density 24.541695000000001
#
# number of rings (size 3 to 8) (size 9 to 14) (size 15 to 20)
#    0.000    1.000    4.167    1.500    1.167    6.000 
#    3.000    0.000    0.000    0.000    0.000    0.000 
#    0.000    0.000    0.000    0.000    0.000    0.000 
#
# Total GULP energy -133726.624118 kJ/mol
# GULP energy per Si atom -5571.942672 kJ/mol
# Density = 2.448584 g / cm^3
# Si number density = 24.541695 Si / 1000 Ang^3
#
#
#
# Elastic Constant Matrix: (Units=GPa)
#
#
# Indices 1 2 3 4 5 6 
#
# 1 69.4886 -9.9364 21.8305 0.0000 7.4364 0.0000
# 2 -9.9364 126.3734 25.8749 0.0000 5.9659 0.0000
# 3 21.8305 25.8749 149.9938 0.0000 18.3485 0.0000
# 4 0.0000 0.0000 0.0000 44.7183 0.0000 3.8117
# 5 7.4364 5.9659 18.3485 0.0000 23.6901 0.0000
# 6 0.0000 0.0000 0.0000 3.8117 0.0000 4.2315
#
#
#
# Elastic Compliance Matrix: (Units=1/GPa)
#
#
# Indices 1 2 3 4 5 6 
#
# 1 0.015732 0.001854 -0.002152 0.000000 -0.003738 0.000000
# 2 0.001854 0.008446 -0.001542 0.000000 -0.001515 0.000000
# 3 -0.002152 -0.001542 0.007861 0.000000 -0.005025 0.000000
# 4 0.000000 0.000000 0.000000 0.024222 0.000000 -0.021819
# 5 -0.003738 -0.001515 -0.005025 0.000000 0.047658 0.000000
# 6 0.000000 0.000000 0.000000 -0.021819 0.000000 0.255975
#
#
# Mechanical properties :
#
#
# Convention : Reuss Voigt Hill
#
# Bulk Modulus (GPa) = 35.26131 46.82153 41.04142
# Shear Modulus (GPa) = 13.40386 35.06710 24.23548
#
# Velocity S-wave (km/s) = 2.33956 3.78415 3.14590
# Velocity P-wave (km/s) = 4.65802 6.18165 5.47312
#
# Compressibility (1/GPa) = 0.02835969
#
# Stress axis : x y z
#
# Youngs Moduli (GPa) = 63.56392 118.39937 127.21444
#
# Poissons Ratio (x) = -0.21953 0.27380
# Poissons Ratio (y) = -0.11786 0.19610
# Poissons Ratio (z) = 0.13681 0.18251
#
# Static dielectric constant tensor:
#      x y z
#    x 1.976370 0.000000 0.001020 
#    y 0.000000 2.041820 0.000000 
#    z 0.001020 0.000000 1.884020 
# 
# From -- ./inp_files/185562.got.cif
#   From: 2010.05.17/outbox.cif.g08.bks.cpg/sg15_93_cif.got.tgz:185562.got - 2010.06.03 18:47:42.
