data_PCOD9299877
_publ_section_title
;
Structure prediction by ZEFSAII (Michael W. Deem and Ramdas Pophale) SiO2 
 PCOD9299877
Probable space group: C 2/C
;
_chemical_formula_sum "Si O2"
_cell_formula_units_Z 56
_cell_length_a 9.766828
_cell_length_b 9.589088
_cell_length_c 27.114449
_cell_angle_alpha 90.000000
_cell_angle_beta 101.933441
_cell_angle_gamma 90.000000
_cell_volume 2484.522600
_symmetry_space_group_name_H-M "C 2/C"
_symmetry_group_IT_number 15
_symmetry_cell_setting 'monoclinic'
loop_
_space_group_symop_operation_xyz
x,y,z
-x,y,1/2-z
-x,-y,-z
x,-y,1/2+z
1/2+x,1/2+y,z
1/2-x,1/2+y,1/2-z
1/2-x,1/2-y,-z
1/2+x,1/2-y,1/2+z
loop_
_atom_site_type_symbol
_atom_site_label
_atom_site_fract_x
_atom_site_fract_y
_atom_site_fract_z
Si Si1 0.363411 0.282664 0.274039
Si Si2 0.761434 0.492657 0.309212
Si Si3 0.958016 0.910349 0.447510
Si Si4 0.843693 0.670571 0.045921
Si Si5 0.166328 0.645973 0.957120
Si Si6 0.517291 0.518728 0.153070
Si Si7 0.372408 0.771261 0.387824
O O1 0.500000 0.267620 0.250000
O O2 0.255923 0.371958 0.232999
O O3 0.324156 0.131418 0.290790
O O4 0.399178 0.384995 0.321852
O O5 0.609774 0.534093 0.319054
O O6 0.838542 0.420121 0.361087
O O7 0.791469 0.894867 0.428307
O O8 0.012951 0.753678 0.447954
O O9 0.000000 0.000000 0.500000
O O10 0.027742 0.986779 0.406361
O O11 0.864266 0.512950 0.029528
O O12 0.755674 0.707001 0.089339
O O13 0.750000 0.750000 0.000000
O O14 0.020326 0.710573 0.927750
O O15 0.250000 0.750000 0.000000
O O16 0.603593 0.659673 0.153916
#
# Coordination Sequence:
#
# PCOD9299877 Si02
#       7
#     8   8   8   8   8   8   8
#     4  10  25  47  75 107 146 188 234 308 373 446
#     4  11  25  47  76 108 145 185 247 299 375 448
#     4  12  24  48  71 100 150 196 242 309 360 431
#     4  12  25  46  71  95 148 195 245 303 363 427
#     4  12  28  44  68 105 144 195 252 304 365 431
#     4  11  24  45  73 104 148 192 239 292 375 432
#     4  12  27  43  72 109 141 192 246 298 364 439
#
# _framework density 22.539539999999999
#
# number of rings (size 3 to 8) (size 9 to 14) (size 15 to 20)
#    0.000    0.571    4.286    2.571    4.000    3.429 
#    0.000    0.000    0.000    0.000    0.000    0.000 
#    0.000    0.000    0.000    0.000    0.000    0.000 
#
# Total GULP energy -156296.964408 kJ/mol
# GULP energy per Si atom -5582.034443 kJ/mol
# Density = 2.248824 g / cm^3
# Si number density = 22.539540 Si / 1000 Ang^3
#
#
#
# Elastic Constant Matrix: (Units=GPa)
#
#
# Indices 1 2 3 4 5 6 
#
# 1 77.8019 52.4839 27.5417 0.0000 -3.6429 0.0000
# 2 52.4839 207.7099 57.4585 0.0000 -4.3880 0.0000
# 3 27.5417 57.4585 101.9854 0.0000 -7.9313 0.0000
# 4 0.0000 0.0000 0.0000 43.4298 0.0000 -3.6467
# 5 -3.6429 -4.3880 -7.9313 0.0000 27.5375 0.0000
# 6 0.0000 0.0000 0.0000 -3.6467 0.0000 38.3101
#
#
#
# Elastic Compliance Matrix: (Units=1/GPa)
#
#
# Indices 1 2 3 4 5 6 
#
# 1 0.016004 -0.003375 -0.002351 0.000000 0.000902 0.000000
# 2 -0.003375 0.006415 -0.002719 0.000000 -0.000207 0.000000
# 3 -0.002351 -0.002719 0.012187 0.000000 0.002766 0.000000
# 4 0.000000 0.000000 0.000000 0.023211 0.000000 0.002209
# 5 0.000902 -0.000207 0.002766 0.000000 0.037197 0.000000
# 6 0.000000 0.000000 0.000000 0.002209 0.000000 0.026313
#
#
# Mechanical properties :
#
#
# Convention : Reuss Voigt Hill
#
# Bulk Modulus (GPa) = 56.44057 73.60727 65.02392
# Shear Modulus (GPa) = 34.69305 38.52303 36.60804
#
# Velocity S-wave (km/s) = 3.92753 4.13865 4.03447
# Velocity P-wave (km/s) = 6.75739 7.45424 7.11436
#
# Compressibility (1/GPa) = 0.01771775
#
# Stress axis : x y z
#
# Youngs Moduli (GPa) = 62.48469 155.88859 82.05434
#
# Poissons Ratio (x) = 0.52606 0.19287
# Poissons Ratio (y) = 0.21086 0.22310
# Poissons Ratio (z) = 0.14687 0.42385
#
# Static dielectric constant tensor:
#      x y z
#    x 1.871410 0.000000 -0.006470 
#    y 0.000000 1.875080 0.000000 
#    z -0.006470 0.000000 1.888390 
# 
# From -- ./inp_files/291614.got.cif
#   From: 2010.05.17/outbox.cif.g08.bks.cpg/sg15_146_cif.got.tgz:291614.got - 2010.06.03 18:47:42.
