data_PCOD9299954
_publ_section_title
;
Structure prediction by ZEFSAII (Michael W. Deem and Ramdas Pophale) SiO2 
 PCOD9299954
Probable space group: C 2/C
;
_chemical_formula_sum "Si O2"
_cell_formula_units_Z 40
_cell_length_a 14.464780
_cell_length_b 12.161190
_cell_length_c 9.722759
_cell_angle_alpha 90.000000
_cell_angle_beta 86.739008
_cell_angle_gamma 90.000000
_cell_volume 1707.550817
_symmetry_space_group_name_H-M "C 2/C"
_symmetry_group_IT_number 15
_symmetry_cell_setting 'monoclinic'
loop_
_space_group_symop_operation_xyz
x,y,z
-x,y,1/2-z
-x,-y,-z
x,-y,1/2+z
1/2+x,1/2+y,z
1/2-x,1/2+y,1/2-z
1/2-x,1/2-y,-z
1/2+x,1/2-y,1/2+z
loop_
_atom_site_type_symbol
_atom_site_label
_atom_site_fract_x
_atom_site_fract_y
_atom_site_fract_z
Si Si1 0.368234 0.275606 0.220524
Si Si2 0.900407 0.440635 0.536413
Si Si3 0.063939 0.984744 0.865506
Si Si4 0.145134 0.218877 0.472118
Si Si5 0.833908 0.624185 0.740497
O O1 0.397553 0.173828 0.122886
O O2 0.403444 0.395216 0.176064
O O3 0.401366 0.262033 0.376022
O O4 0.257622 0.301020 0.228653
O O5 0.833841 0.520897 0.634192
O O6 0.864054 0.417023 0.386179
O O7 0.000000 0.500000 0.500000
O O8 0.142683 0.903066 0.911426
O O9 0.000000 0.937769 0.750000
O O10 0.000000 0.000000 0.000000
O O11 0.250000 0.250000 0.500000
O O12 0.102764 0.293630 0.355513
#
# Coordination Sequence:
#
# PCOD9299954 Si02
#       5
#     8   8   8   8   8
#     4  11  27  48  76 108 153 203 261 314 384 470
#     4  12  28  48  73 115 155 203 259 328 392 449
#     4  12  27  45  75 112 155 199 253 324 387 448
#     4  10  25  49  75 108 150 202 259 312 381 458
#     4  11  27  46  80 104 152 204 263 313 381 469
#
# _framework density 23.425363999999998
#
# number of rings (size 3 to 8) (size 9 to 14) (size 15 to 20)
#    0.000    0.800    2.000    2.400   16.800    1.600 
#    0.000    0.000    0.000    0.000    0.000    0.000 
#    0.000    0.000    0.000    0.000    0.000    0.000 
#
# Total GULP energy -111632.982257 kJ/mol
# GULP energy per Si atom -5581.649113 kJ/mol
# Density = 2.337205 g / cm^3
# Si number density = 23.425364 Si / 1000 Ang^3
#
#
#
# Elastic Constant Matrix: (Units=GPa)
#
#
# Indices 1 2 3 4 5 6 
#
# 1 79.1794 54.4929 43.4465 0.0000 3.7282 0.0000
# 2 54.4929 169.5654 88.2896 0.0000 6.7982 0.0000
# 3 43.4465 88.2896 233.3320 0.0000 14.5379 0.0000
# 4 0.0000 0.0000 0.0000 58.3366 0.0000 -12.4403
# 5 3.7282 6.7982 14.5379 0.0000 20.9440 0.0000
# 6 0.0000 0.0000 0.0000 -12.4403 0.0000 38.7477
#
#
#
# Elastic Compliance Matrix: (Units=1/GPa)
#
#
# Indices 1 2 3 4 5 6 
#
# 1 0.016547 -0.004619 -0.001299 0.000000 -0.000544 0.000000
# 2 -0.004619 0.008639 -0.002388 0.000000 -0.000324 0.000000
# 3 -0.001299 -0.002388 0.005611 0.000000 -0.002889 0.000000
# 4 0.000000 0.000000 0.000000 0.018402 0.000000 0.005908
# 5 -0.000544 -0.000324 -0.002889 0.000000 0.049953 0.000000
# 6 0.000000 0.000000 0.000000 0.005908 0.000000 0.027705
#
#
# Mechanical properties :
#
#
# Convention : Reuss Voigt Hill
#
# Bulk Modulus (GPa) = 70.50689 94.94832 82.72761
# Shear Modulus (GPa) = 33.73842 43.32885 38.53364
#
# Velocity S-wave (km/s) = 3.79918 4.30543 4.06020
# Velocity P-wave (km/s) = 7.02915 8.08306 7.57446
#
# Compressibility (1/GPa) = 0.01418301
#
# Stress axis : x y z
#
# Youngs Moduli (GPa) = 60.43278 115.76016 178.20974
#
# Poissons Ratio (x) = 0.53475 0.23154
# Poissons Ratio (y) = 0.27917 0.42563
# Poissons Ratio (z) = 0.07852 0.27648
#
# Static dielectric constant tensor:
#      x y z
#    x 2.003740 0.000000 -0.044080 
#    y 0.000000 1.875380 0.000000 
#    z -0.044080 0.000000 1.884110 
# 
# From -- ./inp_files/46100.got.cif
#   From: 2010.05.17/outbox.cif.g08.bks.cpg/sg15_24_cif.got.tgz:46100.got - 2010.06.03 18:47:42.
