data_PCOD9299477
_publ_section_title
;
Structure prediction by ZEFSAII (Michael W. Deem and Ramdas Pophale) SiO2 
 PCOD9299477
Probable space group: C 2/C
;
_chemical_formula_sum "Si O2"
_cell_formula_units_Z 52
_cell_length_a 11.687983
_cell_length_b 25.710881
_cell_length_c 10.227073
_cell_angle_alpha 90.000000
_cell_angle_beta 50.434279
_cell_angle_gamma 90.000000
_cell_volume 2369.205937
_symmetry_space_group_name_H-M "C 2/C"
_symmetry_group_IT_number 15
_symmetry_cell_setting 'monoclinic'
loop_
_space_group_symop_operation_xyz
x,y,z
-x,y,1/2-z
-x,-y,-z
x,-y,1/2+z
1/2+x,1/2+y,z
1/2-x,1/2+y,1/2-z
1/2-x,1/2-y,-z
1/2+x,1/2-y,1/2+z
loop_
_atom_site_type_symbol
_atom_site_label
_atom_site_fract_x
_atom_site_fract_y
_atom_site_fract_z
Si Si1 0.731870 0.312059 0.030541
Si Si2 0.500000 0.882769 0.750000
Si Si3 0.581507 0.309414 0.874753
Si Si4 0.500000 0.867478 0.250000
Si Si5 0.500000 0.605820 0.250000
Si Si6 0.244731 0.204217 0.812454
Si Si7 0.365897 0.975278 0.682509
Si Si8 0.232979 0.549643 0.508230
O O1 0.624389 0.326340 0.990078
O O2 0.880835 0.344743 0.901617
O O3 0.750000 0.250000 0.000000
O O4 0.693064 0.318042 0.209735
O O5 0.420122 0.920980 0.704818
O O6 0.602655 0.357105 0.762645
O O7 0.685454 0.261260 0.759219
O O8 0.407300 0.293685 0.994707
O O9 0.621640 0.831595 0.232730
O O10 0.396270 0.906845 0.407724
O O11 0.391040 0.574819 0.424520
O O12 0.245549 0.971703 0.654679
O O13 0.500000 0.000000 0.500000
O O14 0.317153 0.010085 0.842011
#
# Coordination Sequence:
#
# PCOD9299477 Si02
#       8
#     8   4   8   4   4   8   8   8
#     4  10  25  41  69 104 149 187 243 294 359 448
#     4  12  23  42  76 106 138 204 235 306 374 430
#     4  11  25  44  65 102 145 193 240 299 364 442
#     4  12  22  42  70 104 136 188 242 296 362 440
#     4  12  27  46  68 102 146 182 239 300 394 424
#     4  11  25  40  69 100 144 192 241 299 358 441
#     4  12  23  46  74 109 135 184 253 311 364 441
#     4  12  26  45  73 102 142 181 241 315 362 449
#
# _framework density 21.948281999999999
#
# number of rings (size 3 to 8) (size 9 to 14) (size 15 to 20)
#    0.000    0.615    4.615    2.769   10.769    1.846 
#    0.000    0.000    0.000    0.000    0.000    0.000 
#    0.000    0.000    0.000    0.000    0.000    0.000 
#
# Total GULP energy -145206.850181 kJ/mol
# GULP energy per Si atom -5584.878853 kJ/mol
# Density = 2.189833 g / cm^3
# Si number density = 21.948282 Si / 1000 Ang^3
#
#
#
# Elastic Constant Matrix: (Units=GPa)
#
#
# Indices 1 2 3 4 5 6 
#
# 1 78.7969 21.1756 19.3850 0.0000 23.0017 0.0000
# 2 21.1756 99.7397 49.7253 0.0000 0.8741 0.0000
# 3 19.3850 49.7253 108.7648 0.0000 -11.6891 0.0000
# 4 0.0000 0.0000 0.0000 34.7077 0.0000 -1.9855
# 5 23.0017 0.8741 -11.6891 0.0000 46.5934 0.0000
# 6 0.0000 0.0000 0.0000 -1.9855 0.0000 21.2016
#
#
#
# Elastic Compliance Matrix: (Units=1/GPa)
#
#
# Indices 1 2 3 4 5 6 
#
# 1 0.016548 -0.001928 -0.003024 0.000000 -0.008892 0.000000
# 2 -0.001928 0.013356 -0.005845 0.000000 -0.000765 0.000000
# 3 -0.003024 -0.005845 0.012926 0.000000 0.004845 0.000000
# 4 0.000000 0.000000 0.000000 0.028967 0.000000 0.002713
# 5 -0.008892 -0.000765 0.004845 0.000000 0.027082 0.000000
# 6 0.000000 0.000000 0.000000 0.002713 0.000000 0.047420
#
#
# Mechanical properties :
#
#
# Convention : Reuss Voigt Hill
#
# Bulk Modulus (GPa) = 47.08616 51.98590 49.53603
# Shear Modulus (GPa) = 28.57612 33.63492 31.10552
#
# Velocity S-wave (km/s) = 3.61220 3.91891 3.76868
# Velocity P-wave (km/s) = 6.23676 6.64938 6.44637
#
# Compressibility (1/GPa) = 0.02123766
#
# Stress axis : x y z
#
# Youngs Moduli (GPa) = 60.42867 74.87256 77.36442
#
# Poissons Ratio (x) = 0.14436 0.23392
# Poissons Ratio (y) = 0.11651 0.45217
# Poissons Ratio (z) = 0.18271 0.43761
#
# Static dielectric constant tensor:
#      x y z
#    x 1.881040 0.000000 0.082180 
#    y 0.000000 1.894030 0.000000 
#    z 0.082180 0.000000 1.643960 
# 
# From -- ./inp_files/34131.got.cif
#   From: 2010.05.17/outbox.cif.g08.bks.cpg/sg15_18_cif.got.tgz:34131.got - 2010.06.03 18:47:42.
