data_PCOD9299630
_publ_section_title
;
Structure prediction by ZEFSAII (Michael W. Deem and Ramdas Pophale) SiO2 
 PCOD9299630
Probable space group: C 2/C
;
_chemical_formula_sum "Si O2"
_cell_formula_units_Z 36
_cell_length_a 15.900412
_cell_length_b 16.697657
_cell_length_c 11.559728
_cell_angle_alpha 90.000000
_cell_angle_beta 148.802519
_cell_angle_gamma 90.000000
_cell_volume 1589.763067
_symmetry_space_group_name_H-M "C 2/C"
_symmetry_group_IT_number 15
_symmetry_cell_setting 'monoclinic'
loop_
_space_group_symop_operation_xyz
x,y,z
-x,y,1/2-z
-x,-y,-z
x,-y,1/2+z
1/2+x,1/2+y,z
1/2-x,1/2+y,1/2-z
1/2-x,1/2-y,-z
1/2+x,1/2-y,1/2+z
loop_
_atom_site_type_symbol
_atom_site_label
_atom_site_fract_x
_atom_site_fract_y
_atom_site_fract_z
Si Si1 0.500000 0.580672 0.250000
Si Si2 0.132913 0.656229 0.117318
Si Si3 0.827365 0.993179 0.738204
Si Si4 0.981572 0.447457 0.597083
Si Si5 0.763013 0.701291 0.636575
O O1 0.630185 0.523358 0.343502
O O2 0.614067 0.638757 0.459251
O O3 0.233459 0.586388 0.170841
O O4 0.228704 0.736561 0.199745
O O5 0.101282 0.625680 0.211084
O O6 0.945874 0.666591 0.853675
O O7 0.711265 0.067382 0.627542
O O8 0.000000 0.000000 0.000000
O O9 0.000000 0.481226 0.750000
O O10 0.000000 0.500000 0.500000
O O11 0.750000 0.750000 0.500000
#
# Coordination Sequence:
#
# PCOD9299630 Si02
#       5
#     4   8   8   8   8
#     4  12  24  36  70  98 144 176 250 290 364 420
#     4  11  23  41  66  97 145 178 240 292 368 421
#     4  11  25  40  62 102 143 187 236 300 365 427
#     4  10  25  44  70 101 141 193 242 296 366 433
#     4  12  21  38  65 108 136 186 233 306 354 424
#
# _framework density 22.644883
#
# number of rings (size 3 to 8) (size 9 to 14) (size 15 to 20)
#    0.000    0.889    4.444    1.333   12.444    0.000 
#    0.000    1.111    0.000    0.000    0.000    0.000 
#    0.000    0.000    0.000    0.000    0.000    0.000 
#
# Total GULP energy -100253.662051 kJ/mol
# GULP energy per Si atom -5569.647892 kJ/mol
# Density = 2.259334 g / cm^3
# Si number density = 22.644883 Si / 1000 Ang^3
#
#
#
# Elastic Constant Matrix: (Units=GPa)
#
#
# Indices 1 2 3 4 5 6 
#
# 1 146.9741 50.0960 29.8605 0.0000 22.4063 0.0000
# 2 50.0960 62.8948 22.3397 0.0000 10.0816 0.0000
# 3 29.8605 22.3397 105.6270 0.0000 22.8072 0.0000
# 4 0.0000 0.0000 0.0000 42.7854 0.0000 18.4711
# 5 22.4063 10.0816 22.8072 0.0000 51.9563 0.0000
# 6 0.0000 0.0000 0.0000 18.4711 0.0000 49.0665
#
#
#
# Elastic Compliance Matrix: (Units=1/GPa)
#
#
# Indices 1 2 3 4 5 6 
#
# 1 0.009757 -0.007116 -0.000710 0.000000 -0.002515 0.000000
# 2 -0.007116 0.022557 -0.002736 0.000000 -0.000107 0.000000
# 3 -0.000710 -0.002736 0.011120 0.000000 -0.004044 0.000000
# 4 0.000000 0.000000 0.000000 0.027908 0.000000 -0.010506
# 5 -0.002515 -0.000107 -0.004044 0.000000 0.022128 0.000000
# 6 0.000000 0.000000 0.000000 -0.010506 0.000000 0.024336
#
#
# Mechanical properties :
#
#
# Convention : Reuss Voigt Hill
#
# Bulk Modulus (GPa) = 44.82441 57.78757 51.30599
# Shear Modulus (GPa) = 34.16099 42.97493 38.56796
#
# Velocity S-wave (km/s) = 3.88822 4.36107 4.13142
# Velocity P-wave (km/s) = 6.32417 7.13674 6.74271
#
# Compressibility (1/GPa) = 0.02230927
#
# Stress axis : x y z
#
# Youngs Moduli (GPa) = 102.48814 44.33303 89.92909
#
# Poissons Ratio (x) = 0.31548 0.06387
# Poissons Ratio (y) = 0.72933 0.24602
# Poissons Ratio (z) = 0.07279 0.12128
#
# Static dielectric constant tensor:
#      x y z
#    x 2.060760 0.000000 -0.208700 
#    y 0.000000 2.109240 0.000000 
#    z -0.208700 0.000000 2.051860 
# 
# From -- ./inp_files/38872.got.cif
#   From: 2010.05.17/outbox.cif.g08.bks.cpg/sg15_20_cif.got.tgz:38872.got - 2010.06.03 18:47:42.
