data_PCOD9299307
_publ_section_title
;
Structure prediction by ZEFSAII (Michael W. Deem and Ramdas Pophale) SiO2 
 PCOD9299307
Probable space group: C 2/C
;
_chemical_formula_sum "Si O2"
_cell_formula_units_Z 36
_cell_length_a 10.167273
_cell_length_b 18.418070
_cell_length_c 12.668627
_cell_angle_alpha 90.000000
_cell_angle_beta 36.055963
_cell_angle_gamma 90.000000
_cell_volume 1396.304348
_symmetry_space_group_name_H-M "C 2/C"
_symmetry_group_IT_number 15
_symmetry_cell_setting 'monoclinic'
loop_
_space_group_symop_operation_xyz
x,y,z
-x,y,1/2-z
-x,-y,-z
x,-y,1/2+z
1/2+x,1/2+y,z
1/2-x,1/2+y,1/2-z
1/2-x,1/2-y,-z
1/2+x,1/2-y,1/2+z
loop_
_atom_site_type_symbol
_atom_site_label
_atom_site_fract_x
_atom_site_fract_y
_atom_site_fract_z
Si Si1 0.803046 0.001065 0.718024
Si Si2 0.176697 0.806847 0.933608
Si Si3 0.000000 0.567901 0.250000
Si Si4 0.779446 0.338776 0.176890
Si Si5 0.218170 0.849741 0.665596
O O1 0.584154 0.981925 0.790197
O O2 0.822162 0.935125 0.786719
O O3 0.775325 0.076112 0.798154
O O4 0.000000 0.000000 0.500000
O O5 0.303987 0.874543 0.904484
O O6 0.245579 0.722072 0.899835
O O7 0.230905 0.820345 0.775869
O O8 0.913885 0.816509 0.116939
O O9 0.039170 0.335856 0.042218
O O10 0.000000 0.819663 0.750000
#
# Coordination Sequence:
#
# PCOD9299307 Si02
#       5
#     8   8   4   8   8
#     4  11  24  48  72 107 143 193 244 299 359 435
#     4  11  25  48  69 109 141 191 241 301 363 437
#     4  10  24  48  76 100 150 192 236 300 372 422
#     4  12  24  47  72 103 150 184 245 302 363 432
#     4  11  26  46  71 106 140 191 245 295 368 433
#
# _framework density 25.782343999999998
#
# number of rings (size 3 to 8) (size 9 to 14) (size 15 to 20)
#    0.000    0.889    6.667    0.667    3.111    2.667 
#    4.000    0.000    0.000    0.000    0.000    0.000 
#    0.000    0.000    0.000    0.000    0.000    0.000 
#
# Total GULP energy -100588.160898 kJ/mol
# GULP energy per Si atom -5588.231161 kJ/mol
# Density = 2.572366 g / cm^3
# Si number density = 25.782344 Si / 1000 Ang^3
#
#
#
# Elastic Constant Matrix: (Units=GPa)
#
#
# Indices 1 2 3 4 5 6 
#
# 1 71.4920 10.4475 37.0838 -0.0063 -21.9716 0.0025
# 2 10.4475 185.5613 44.9937 -0.0029 6.3588 -0.0006
# 3 37.0838 44.9937 182.7641 0.0130 -46.4025 -0.0037
# 4 -0.0063 -0.0029 0.0130 47.9981 0.0037 8.6940
# 5 -21.9716 6.3588 -46.4025 0.0037 37.6573 -0.0017
# 6 0.0025 -0.0006 -0.0037 8.6940 -0.0017 25.0748
#
#
#
# Elastic Compliance Matrix: (Units=1/GPa)
#
#
# Indices 1 2 3 4 5 6 
#
# 1 0.017463 -0.001070 -0.000942 0.000002 0.009209 -0.000002
# 2 -0.001070 0.006228 -0.002535 0.000001 -0.004800 -0.000001
# 3 -0.000942 -0.002535 0.009104 -0.000004 0.011097 0.000004
# 4 0.000002 0.000001 -0.000004 0.022230 -0.000007 -0.007708
# 5 0.009209 -0.004800 0.011097 -0.000007 0.046413 0.000006
# 6 -0.000002 -0.000001 0.000004 -0.007708 0.000006 0.042553
#
#
# Mechanical properties :
#
#
# Convention : Reuss Voigt Hill
#
# Bulk Modulus (GPa) = 42.19117 69.42971 55.81044
# Shear Modulus (GPa) = 31.05865 45.29888 38.17877
#
# Velocity S-wave (km/s) = 3.47457 4.19617 3.85230
# Velocity P-wave (km/s) = 5.70059 7.10386 6.44056
#
# Compressibility (1/GPa) = 0.02370164
#
# Stress axis : x y z
#
# Youngs Moduli (GPa) = 57.26481 160.55463 109.84153
#
# Poissons Ratio (x) = 0.17187 0.10342
# Poissons Ratio (y) = 0.06130 0.27842
# Poissons Ratio (z) = 0.05392 0.40696
#
# Static dielectric constant tensor:
#      x y z
#    x 2.061520 0.000000 -0.000580 
#    y 0.000000 2.145290 0.000000 
#    z -0.000580 0.000000 2.009500 
# 
# From -- ./inp_files/146951.got.cif
#   From: 2010.05.17/outbox.cif.g08.bks.cpg/sg15_74_cif.got.tgz:146951.got - 2010.06.03 18:47:42.
