data_PCOD9299640
_publ_section_title
;
Structure prediction by ZEFSAII (Michael W. Deem and Ramdas Pophale) SiO2 
 PCOD9299640
Probable space group: C 2/C
;
_chemical_formula_sum "Si O2"
_cell_formula_units_Z 60
_cell_length_a 9.891322
_cell_length_b 22.131527
_cell_length_c 21.153399
_cell_angle_alpha 90.000000
_cell_angle_beta 39.459219
_cell_angle_gamma 90.000000
_cell_volume 2942.938241
_symmetry_space_group_name_H-M "C 2/C"
_symmetry_group_IT_number 15
_symmetry_cell_setting 'monoclinic'
loop_
_space_group_symop_operation_xyz
x,y,z
-x,y,1/2-z
-x,-y,-z
x,-y,1/2+z
1/2+x,1/2+y,z
1/2-x,1/2+y,1/2-z
1/2-x,1/2-y,-z
1/2+x,1/2-y,1/2+z
loop_
_atom_site_type_symbol
_atom_site_label
_atom_site_fract_x
_atom_site_fract_y
_atom_site_fract_z
Si Si1 0.524527 0.036558 0.089563
Si Si2 0.500000 0.370713 0.250000
Si Si3 0.270911 0.350779 0.205583
Si Si4 0.927131 0.944166 0.705171
Si Si5 0.486135 0.535883 0.938534
Si Si6 0.307077 0.195777 0.891670
Si Si7 0.536444 0.913870 0.446349
Si Si8 0.840079 0.170830 0.428536
O O1 0.327278 0.053464 0.203877
O O2 0.534245 0.963670 0.079608
O O3 0.478991 0.059839 0.035461
O O4 0.750076 0.063558 0.026677
O O5 0.410615 0.340089 0.217951
O O6 0.288870 0.406426 0.347864
O O7 0.344269 0.413125 0.144472
O O8 0.290403 0.302232 0.142734
O O9 0.020148 0.345728 0.313268
O O10 0.000000 0.961156 0.750000
O O11 0.015559 0.878269 0.657278
O O12 0.011356 0.989223 0.621202
O O13 0.500000 0.500000 0.000000
O O14 0.371323 0.262544 0.890703
O O15 0.138450 0.171683 0.003460
O O16 0.403994 0.852126 0.490713
#
# Coordination Sequence:
#
# PCOD9299640 Si02
#       8
#     8   4   8   8   8   8   8   8
#     4  11  23  36  60 100 132 169 219 279 345 413
#     4  12  22  38  68  98 132 178 218 292 338 412
#     4  11  24  40  70  98 136 178 233 280 343 422
#     4  12  24  38  69 100 127 174 226 288 337 407
#     4  12  26  42  63  96 145 182 221 285 357 419
#     4  10  25  44  71 101 129 186 239 283 333 416
#     4  11  21  38  65  98 133 168 223 279 346 406
#     4  11  22  45  72  96 136 177 240 288 335 411
#
# _framework density 20.387788
#
# number of rings (size 3 to 8) (size 9 to 14) (size 15 to 20)
#    0.000    0.800    5.333    2.400    3.733    1.600 
#    0.000    0.667    2.933    0.000    0.000    0.000 
#    0.000    0.000    0.000    0.000    0.000    0.000 
#
# Total GULP energy -167375.957349 kJ/mol
# GULP energy per Si atom -5579.198578 kJ/mol
# Density = 2.034138 g / cm^3
# Si number density = 20.387788 Si / 1000 Ang^3
#
#
#
# Elastic Constant Matrix: (Units=GPa)
#
#
# Indices 1 2 3 4 5 6 
#
# 1 94.2364 23.0814 45.7925 0.0012 26.6669 -0.0014
# 2 23.0814 64.7086 48.5167 -0.0001 -4.6851 0.0002
# 3 45.7925 48.5167 143.0398 0.0002 -4.4521 -0.0010
# 4 0.0012 -0.0001 0.0002 29.7596 -0.0008 3.4939
# 5 26.6669 -4.6851 -4.4521 -0.0008 44.8087 0.0013
# 6 -0.0014 0.0002 -0.0010 3.4939 0.0013 15.8297
#
#
#
# Elastic Compliance Matrix: (Units=1/GPa)
#
#
# Indices 1 2 3 4 5 6 
#
# 1 0.016663 -0.003312 -0.004545 -0.000001 -0.010715 0.000002
# 2 -0.003312 0.021480 -0.006113 0.000001 0.003610 -0.000001
# 3 -0.004545 -0.006113 0.010617 0.000000 0.003120 0.000000
# 4 -0.000001 0.000001 0.000000 0.034497 0.000002 -0.007614
# 5 -0.010715 0.003610 0.003120 0.000002 0.029381 -0.000004
# 6 0.000002 -0.000001 0.000000 -0.007614 -0.000004 0.064853
#
#
# Mechanical properties :
#
#
# Convention : Reuss Voigt Hill
#
# Bulk Modulus (GPa) = 48.02986 59.64065 53.83526
# Shear Modulus (GPa) = 23.54381 30.38586 26.96484
#
# Velocity S-wave (km/s) = 3.40192 3.86475 3.64070
# Velocity P-wave (km/s) = 6.24820 7.01653 6.64348
#
# Compressibility (1/GPa) = 0.02082038
#
# Stress axis : x y z
#
# Youngs Moduli (GPa) = 60.01232 46.55493 94.19291
#
# Poissons Ratio (x) = 0.15419 0.42807
# Poissons Ratio (y) = 0.19877 0.57580
# Poissons Ratio (z) = 0.27273 0.28459
#
# Static dielectric constant tensor:
#      x y z
#    x 1.783470 0.000000 0.024220 
#    y 0.000000 1.729460 0.000000 
#    z 0.024220 0.000000 1.749430 
# 
# From -- ./inp_files/234554.got.cif
#   From: 2010.05.17/outbox.cif.g08.bks.cpg/sg15_118_cif.got.tgz:234554.got - 2010.06.03 18:47:42.
