data_PCOD9299165
_publ_section_title
;
Structure prediction by ZEFSAII (Michael W. Deem and Ramdas Pophale) SiO2 
 PCOD9299165
Probable space group: C 2/C
;
_chemical_formula_sum "Si O2"
_cell_formula_units_Z 36
_cell_length_a 16.623429
_cell_length_b 9.637827
_cell_length_c 8.415711
_cell_angle_alpha 90.000000
_cell_angle_beta 98.587975
_cell_angle_gamma 90.000000
_cell_volume 1333.194848
_symmetry_space_group_name_H-M "C 2/C"
_symmetry_group_IT_number 15
_symmetry_cell_setting 'monoclinic'
loop_
_space_group_symop_operation_xyz
x,y,z
-x,y,1/2-z
-x,-y,-z
x,-y,1/2+z
1/2+x,1/2+y,z
1/2-x,1/2+y,1/2-z
1/2-x,1/2-y,-z
1/2+x,1/2-y,1/2+z
loop_
_atom_site_type_symbol
_atom_site_label
_atom_site_fract_x
_atom_site_fract_y
_atom_site_fract_z
Si Si1 0.160254 0.206931 0.027988
Si Si2 0.446217 0.725440 0.895464
Si Si3 0.818233 0.019923 0.743886
Si Si4 0.123860 0.468394 0.154755
Si Si5 0.500000 0.227522 0.750000
O O1 0.116732 0.356146 0.006827
O O2 0.159344 0.135947 0.200396
O O3 0.250000 0.250000 0.000000
O O4 0.147626 0.074643 0.912900
O O5 0.500000 0.698921 0.750000
O O6 0.363859 0.635189 0.863145
O O7 0.417657 0.885142 0.881627
O O8 0.491181 0.694090 0.077537
O O9 0.719992 0.022876 0.719858
O O10 0.075460 0.379598 0.269370
#
# Coordination Sequence:
#
# PCOD9299165 Si02
#       5
#     8   8   8   8   4
#     4  10  24  47  72 117 152 198 263 329 396 474
#     4  12  28  53  80 120 163 216 268 341 402 484
#     4  11  26  47  82 111 160 206 267 338 402 475
#     4  11  24  47  79 116 156 206 275 331 395 483
#     4  12  28  42  82 114 166 208 274 320 422 464
#
# _framework density 27.002804999999999
#
# number of rings (size 3 to 8) (size 9 to 14) (size 15 to 20)
#    0.000    0.889    1.111    4.667   12.444    0.889 
#    2.000    2.222    0.000    0.000    0.000    0.000 
#    0.000    0.000    0.000    0.000    0.000    0.000 
#
# Total GULP energy -100506.005383 kJ/mol
# GULP energy per Si atom -5583.666966 kJ/mol
# Density = 2.694135 g / cm^3
# Si number density = 27.002805 Si / 1000 Ang^3
#
#
#
# Elastic Constant Matrix: (Units=GPa)
#
#
# Indices 1 2 3 4 5 6 
#
# 1 137.9990 38.5766 43.2884 0.0000 15.3762 0.0000
# 2 38.5766 152.3293 42.2092 0.0000 -12.4583 0.0000
# 3 43.2884 42.2092 158.1460 0.0000 0.6655 0.0000
# 4 0.0000 0.0000 0.0000 43.6813 0.0000 5.0027
# 5 15.3762 -12.4583 0.6655 0.0000 22.9532 0.0000
# 6 0.0000 0.0000 0.0000 5.0027 0.0000 47.2980
#
#
#
# Elastic Compliance Matrix: (Units=1/GPa)
#
#
# Indices 1 2 3 4 5 6 
#
# 1 0.009367 -0.002472 -0.001873 0.000000 -0.007563 0.000000
# 2 -0.002472 0.008109 -0.001513 0.000000 0.006101 0.000000
# 3 -0.001873 -0.001513 0.007239 0.000000 0.000223 0.000000
# 4 0.000000 0.000000 0.000000 0.023174 0.000000 -0.002451
# 5 -0.007563 0.006101 0.000223 0.000000 0.051938 0.000000
# 6 0.000000 0.000000 0.000000 -0.002451 0.000000 0.021402
#
#
# Mechanical properties :
#
#
# Convention : Reuss Voigt Hill
#
# Bulk Modulus (GPa) = 76.92469 77.40252 77.16360
# Shear Modulus (GPa) = 36.42251 44.41319 40.41785
#
# Velocity S-wave (km/s) = 3.67664 4.05997 3.87305
# Velocity P-wave (km/s) = 6.82445 7.12072 6.97416
#
# Compressibility (1/GPa) = 0.01299973
#
# Stress axis : x y z
#
# Youngs Moduli (GPa) = 106.75252 123.31920 138.14444
#
# Poissons Ratio (x) = 0.30483 0.25868
# Poissons Ratio (y) = 0.26388 0.20906
# Poissons Ratio (z) = 0.19990 0.18663
#
# Static dielectric constant tensor:
#      x y z
#    x 2.204860 0.000000 0.019970 
#    y 0.000000 2.066160 0.000000 
#    z 0.019970 0.000000 2.721620 
# 
# From -- ./inp_files/45925.got.cif
#   From: 2010.05.17/outbox.cif.g08.bks.cpg/sg15_23_cif.got.tgz:45925.got - 2010.06.03 18:47:42.
