data_PCOD9299321
_publ_section_title
;
Structure prediction by ZEFSAII (Michael W. Deem and Ramdas Pophale) SiO2 
 PCOD9299321
Probable space group: C 2/C
;
_chemical_formula_sum "Si O2"
_cell_formula_units_Z 32
_cell_length_a 11.300963
_cell_length_b 13.811952
_cell_length_c 11.108905
_cell_angle_alpha 90.000000
_cell_angle_beta 126.773875
_cell_angle_gamma 90.000000
_cell_volume 1388.918237
_symmetry_space_group_name_H-M "C 2/C"
_symmetry_group_IT_number 15
_symmetry_cell_setting 'monoclinic'
loop_
_space_group_symop_operation_xyz
x,y,z
-x,y,1/2-z
-x,-y,-z
x,-y,1/2+z
1/2+x,1/2+y,z
1/2-x,1/2+y,1/2-z
1/2-x,1/2-y,-z
1/2+x,1/2-y,1/2+z
loop_
_atom_site_type_symbol
_atom_site_label
_atom_site_fract_x
_atom_site_fract_y
_atom_site_fract_z
Si Si1 0.161774 0.250043 0.321426
Si Si2 0.391527 0.418704 0.880003
Si Si3 0.048970 0.224011 0.646669
Si Si4 0.561246 0.955156 0.659724
O O1 0.250000 0.250000 0.500000
O O2 0.123743 0.140525 0.254691
O O3 0.282435 0.292922 0.299084
O O4 0.000000 0.294968 0.250000
O O5 0.234186 0.468575 0.784543
O O6 0.500000 0.500000 0.000000
O O7 0.432602 0.328183 0.989766
O O8 0.032365 0.339717 0.631897
O O9 0.000000 0.191694 0.750000
O O10 0.500000 0.988994 0.750000
O O11 0.500000 0.000000 0.500000
#
# Coordination Sequence:
#
# PCOD9299321 Si02
#       4
#     8   8   8   8
#     4  11  23  47  74 109 143 193 249 309 374 442
#     4  11  26  47  72 106 147 196 246 305 370 448
#     4  10  24  48  77 103 146 196 246 296 378 443
#     4  10  25  48  72 109 145 190 247 311 373 445
#
# _framework density 23.039512999999999
#
# number of rings (size 3 to 8) (size 9 to 14) (size 15 to 20)
#    0.000    1.500    2.500    0.000    0.000   20.000 
#    9.000    0.000    0.000    0.000    0.000    0.000 
#    0.000    0.000    0.000    0.000    0.000    0.000 
#
# Total GULP energy -89137.030686 kJ/mol
# GULP energy per Si atom -5571.064418 kJ/mol
# Density = 2.298707 g / cm^3
# Si number density = 23.039513 Si / 1000 Ang^3
#
#
#
# Elastic Constant Matrix: (Units=GPa)
#
#
# Indices 1 2 3 4 5 6 
#
# 1 214.8516 20.4924 111.7468 0.0000 4.1911 0.0000
# 2 20.4924 101.6737 66.5709 0.0000 0.9872 0.0000
# 3 111.7468 66.5709 237.9262 0.0000 26.8646 0.0000
# 4 0.0000 0.0000 0.0000 63.5399 0.0000 -3.4078
# 5 4.1911 0.9872 26.8646 0.0000 30.3701 0.0000
# 6 0.0000 0.0000 0.0000 -3.4078 0.0000 26.9375
#
#
#
# Elastic Compliance Matrix: (Units=1/GPa)
#
#
# Indices 1 2 3 4 5 6 
#
# 1 0.006339 0.000995 -0.003503 0.000000 0.002191 0.000000
# 2 0.000995 0.012428 -0.004314 0.000000 0.003275 0.000000
# 3 -0.003503 -0.004314 0.007760 0.000000 -0.006241 0.000000
# 4 0.000000 0.000000 0.000000 0.015846 0.000000 0.002005
# 5 0.002191 0.003275 -0.006241 0.000000 0.038039 0.000000
# 6 0.000000 0.000000 0.000000 0.002005 0.000000 0.037376
#
#
# Mechanical properties :
#
#
# Convention : Reuss Voigt Hill
#
# Bulk Modulus (GPa) = 77.63011 105.78574 91.70792
# Shear Modulus (GPa) = 36.83905 47.87894 42.35899
#
# Velocity S-wave (km/s) = 4.00303 4.56359 4.29247
# Velocity P-wave (km/s) = 7.42517 8.58971 8.02858
#
# Compressibility (1/GPa) = 0.01288160
#
# Stress axis : x y z
#
# Youngs Moduli (GPa) = 157.76372 80.46446 128.86829
#
# Poissons Ratio (x) = -0.08003 0.45140
# Poissons Ratio (y) = -0.15692 0.55596
# Poissons Ratio (z) = 0.55261 0.34714
#
# Static dielectric constant tensor:
#      x y z
#    x 2.047760 0.000000 -0.099470 
#    y 0.000000 1.933600 0.000000 
#    z -0.099470 0.000000 2.009710 
# 
# From -- ./inp_files/85896.got.cif
#   From: 2010.05.17/outbox.cif.g08.bks.cpg/sg15_43_cif.got.tgz:85896.got - 2010.06.03 18:47:42.
