data_PCOD9299976
_publ_section_title
;
Structure prediction by ZEFSAII (Michael W. Deem and Ramdas Pophale) SiO2 
 PCOD9299976
Probable space group: C 2/C
;
_chemical_formula_sum "Si O2"
_cell_formula_units_Z 40
_cell_length_a 19.155238
_cell_length_b 11.544340
_cell_length_c 13.111922
_cell_angle_alpha 90.000000
_cell_angle_beta 150.030295
_cell_angle_gamma 90.000000
_cell_volume 1448.421775
_symmetry_space_group_name_H-M "C 2/C"
_symmetry_group_IT_number 15
_symmetry_cell_setting 'monoclinic'
loop_
_space_group_symop_operation_xyz
x,y,z
-x,y,1/2-z
-x,-y,-z
x,-y,1/2+z
1/2+x,1/2+y,z
1/2-x,1/2+y,1/2-z
1/2-x,1/2-y,-z
1/2+x,1/2-y,1/2+z
loop_
_atom_site_type_symbol
_atom_site_label
_atom_site_fract_x
_atom_site_fract_y
_atom_site_fract_z
Si Si1 0.641629 0.753349 0.524206
Si Si2 0.853361 0.553162 0.610989
Si Si3 0.531067 0.517768 0.171846
Si Si4 0.401074 0.285403 0.971616
Si Si5 0.357614 0.130717 0.270364
O O1 0.636314 0.811355 0.406523
O O2 0.551280 0.640355 0.432840
O O3 0.606109 0.852989 0.563821
O O4 0.802903 0.733990 0.758441
O O5 0.699229 0.521043 0.370831
O O6 0.844635 0.497382 0.711642
O O7 0.000000 0.506876 0.750000
O O8 0.500000 0.480779 0.250000
O O9 0.458539 0.413591 0.017764
O O10 0.528983 0.201863 0.147883
O O11 0.290494 0.303266 0.922037
#
# Coordination Sequence:
#
# PCOD9299976 Si02
#       5
#     8   8   8   8   8
#     4  10  26  48  81 113 155 210 268 324 396 477
#     4  12  28  47  79 118 157 209 263 332 395 473
#     4  12  25  51  78 114 165 210 265 330 405 467
#     4  10  25  50  81 115 159 211 264 333 396 478
#     4  10  25  51  77 117 160 202 273 325 399 472
#
# _framework density 27.616266
#
# number of rings (size 3 to 8) (size 9 to 14) (size 15 to 20)
#    1.200    0.000    2.000    1.800    2.800   12.000 
#    0.000    0.000    0.000    0.000    5.200    0.000 
#    0.000    0.000    0.000    0.000    0.000    0.000 
#
# Total GULP energy -111750.560106 kJ/mol
# GULP energy per Si atom -5587.528005 kJ/mol
# Density = 2.755341 g / cm^3
# Si number density = 27.616266 Si / 1000 Ang^3
#
#
#
# Elastic Constant Matrix: (Units=GPa)
#
#
# Indices 1 2 3 4 5 6 
#
# 1 130.9912 74.3493 69.2182 0.0000 28.4979 0.0000
# 2 74.3493 178.3848 105.3945 0.0000 -1.2331 0.0000
# 3 69.2182 105.3945 169.5818 0.0000 54.4280 0.0000
# 4 0.0000 0.0000 0.0000 37.9009 0.0000 2.1420
# 5 28.4979 -1.2331 54.4280 0.0000 73.2445 0.0000
# 6 0.0000 0.0000 0.0000 2.1420 0.0000 61.9926
#
#
#
# Elastic Compliance Matrix: (Units=1/GPa)
#
#
# Indices 1 2 3 4 5 6 
#
# 1 0.011321 -0.004397 -0.000592 0.000000 -0.004039 0.000000
# 2 -0.004397 0.012715 -0.008832 0.000000 0.008488 0.000000
# 3 -0.000592 -0.008832 0.015235 0.000000 -0.011239 0.000000
# 4 0.000000 0.000000 0.000000 0.026436 0.000000 -0.000913
# 5 -0.004039 0.008488 -0.011239 0.000000 0.023719 0.000000
# 6 0.000000 0.000000 0.000000 -0.000913 0.000000 0.016163
#
#
# Mechanical properties :
#
#
# Convention : Reuss Voigt Hill
#
# Bulk Modulus (GPa) = 85.98766 108.54240 97.26503
# Shear Modulus (GPa) = 36.46761 49.96065 43.21413
#
# Velocity S-wave (km/s) = 3.63783 4.25797 3.96006
# Velocity P-wave (km/s) = 6.98922 7.97263 7.49707
#
# Compressibility (1/GPa) = 0.01162958
#
# Stress axis : x y z
#
# Youngs Moduli (GPa) = 88.33024 78.64571 65.63784
#
# Poissons Ratio (x) = 0.34577 0.03887
# Poissons Ratio (y) = 0.38835 0.57972
# Poissons Ratio (z) = 0.05231 0.69461
#
# Static dielectric constant tensor:
#      x y z
#    x 2.219080 0.000000 -0.062220 
#    y 0.000000 2.054230 0.000000 
#    z -0.062220 0.000000 2.238100 
# 
# From -- ./inp_files/168340.got.cif
#   From: 2010.05.17/outbox.cif.g08.bks.cpg/sg15_85_cif.got.tgz:168340.got - 2010.06.03 18:47:42.
