data_PCOD9299950
_publ_section_title
;
Structure prediction by ZEFSAII (Michael W. Deem and Ramdas Pophale) SiO2 
 PCOD9299950
Probable space group: C 2/C
;
_chemical_formula_sum "Si O2"
_cell_formula_units_Z 44
_cell_length_a 7.631732
_cell_length_b 9.810503
_cell_length_c 27.593130
_cell_angle_alpha 90.000000
_cell_angle_beta 113.539465
_cell_angle_gamma 90.000000
_cell_volume 1894.012963
_symmetry_space_group_name_H-M "C 2/C"
_symmetry_group_IT_number 15
_symmetry_cell_setting 'monoclinic'
loop_
_space_group_symop_operation_xyz
x,y,z
-x,y,1/2-z
-x,-y,-z
x,-y,1/2+z
1/2+x,1/2+y,z
1/2-x,1/2+y,1/2-z
1/2-x,1/2-y,-z
1/2+x,1/2-y,1/2+z
loop_
_atom_site_type_symbol
_atom_site_label
_atom_site_fract_x
_atom_site_fract_y
_atom_site_fract_z
Si Si1 0.117183 0.143949 0.184554
Si Si2 0.217263 0.902464 0.255823
Si Si3 0.261274 0.844261 0.591860
Si Si4 0.500000 0.500000 0.500000
Si Si5 0.683492 0.081107 0.145149
Si Si6 0.684659 0.066389 0.543819
O O1 0.203920 0.250877 0.232578
O O2 0.179354 0.174425 0.136653
O O3 0.889702 0.152318 0.166892
O O4 0.200306 0.993909 0.206227
O O5 0.000000 0.894467 0.250000
O O6 0.331693 0.990073 0.308352
O O7 0.191118 0.980696 0.557636
O O8 0.490375 0.831985 0.618945
O O9 0.172193 0.729580 0.546484
O O10 0.364758 0.519015 0.532769
O O11 0.697313 0.984518 0.100026
O O12 0.500000 0.000000 0.500000
#
# Coordination Sequence:
#
# PCOD9299950 Si02
#       6
#     8   8   8   4   8   8
#     4  11  25  51  76 107 156 192 244 314 372 439
#     4  10  25  49  73 112 146 193 247 309 369 448
#     4  12  27  47  75 108 145 197 249 299 371 450
#     4  12  26  46  74 108 138 202 238 302 374 426
#     4  11  25  47  71 109 146 191 247 304 364 447
#     4  12  26  47  71 109 151 186 248 310 361 439
#
# _framework density 23.231096999999998
#
# number of rings (size 3 to 8) (size 9 to 14) (size 15 to 20)
#    0.000    0.727    5.455    0.545    2.545    3.636 
#    9.818    0.000    0.000    0.000    0.000    0.000 
#    0.000    0.000    0.000    0.000    0.000    0.000 
#
# Total GULP energy -122558.642302 kJ/mol
# GULP energy per Si atom -5570.847377 kJ/mol
# Density = 2.317822 g / cm^3
# Si number density = 23.231097 Si / 1000 Ang^3
#
#
#
# Elastic Constant Matrix: (Units=GPa)
#
#
# Indices 1 2 3 4 5 6 
#
# 1 105.2736 13.4968 33.6433 0.0000 -11.6844 0.0000
# 2 13.4968 39.1609 19.4370 0.0000 6.7510 0.0000
# 3 33.6433 19.4370 95.1135 0.0000 4.2954 0.0000
# 4 0.0000 0.0000 0.0000 46.0561 0.0000 7.8188
# 5 -11.6844 6.7510 4.2954 0.0000 43.4799 0.0000
# 6 0.0000 0.0000 0.0000 7.8188 0.0000 19.0501
#
#
#
# Elastic Compliance Matrix: (Units=1/GPa)
#
#
# Indices 1 2 3 4 5 6 
#
# 1 0.011456 -0.002802 -0.003655 0.000000 0.003875 0.000000
# 2 -0.002802 0.029762 -0.004870 0.000000 -0.004893 0.000000
# 3 -0.003655 -0.004870 0.012869 0.000000 -0.001497 0.000000
# 4 0.000000 0.000000 0.000000 0.023339 0.000000 -0.009579
# 5 0.003875 -0.004893 -0.001497 0.000000 0.024948 0.000000
# 6 0.000000 0.000000 0.000000 -0.009579 0.000000 0.056425
#
#
# Mechanical properties :
#
#
# Convention : Reuss Voigt Hill
#
# Bulk Modulus (GPa) = 31.81274 41.41136 36.61205
# Shear Modulus (GPa) = 26.05100 33.24862 29.64981
#
# Velocity S-wave (km/s) = 3.35234 3.78724 3.57641
# Velocity P-wave (km/s) = 5.35799 6.08184 5.73135
#
# Compressibility (1/GPa) = 0.03143395
#
# Stress axis : x y z
#
# Youngs Moduli (GPa) = 87.28768 33.59972 77.70459
#
# Poissons Ratio (x) = 0.09416 0.28398
# Poissons Ratio (y) = 0.24462 0.37841
# Poissons Ratio (z) = 0.31900 0.16362
#
# Static dielectric constant tensor:
#      x y z
#    x 1.481870 0.000000 0.188010 
#    y 0.000000 1.950850 0.000000 
#    z 0.188010 0.000000 1.802660 
# 
# From -- ./inp_files/306733.got.cif
#   From: 2010.05.17/outbox.cif.g08.bks.cpg/sg15_154_cif.got.tgz:306733.got - 2010.06.03 18:47:42.
