data_PCOD9299293
_publ_section_title
;
Structure prediction by ZEFSAII (Michael W. Deem and Ramdas Pophale) SiO2 
 PCOD9299293
Probable space group: C 2/C
;
_chemical_formula_sum "Si O2"
_cell_formula_units_Z 60
_cell_length_a 22.749834
_cell_length_b 9.179930
_cell_length_c 21.666647
_cell_angle_alpha 90.000000
_cell_angle_beta 146.278547
_cell_angle_gamma 90.000000
_cell_volume 2512.026774
_symmetry_space_group_name_H-M "C 2/C"
_symmetry_group_IT_number 15
_symmetry_cell_setting 'monoclinic'
loop_
_space_group_symop_operation_xyz
x,y,z
-x,y,1/2-z
-x,-y,-z
x,-y,1/2+z
1/2+x,1/2+y,z
1/2-x,1/2+y,1/2-z
1/2-x,1/2-y,-z
1/2+x,1/2-y,1/2+z
loop_
_atom_site_type_symbol
_atom_site_label
_atom_site_fract_x
_atom_site_fract_y
_atom_site_fract_z
Si Si1 0.552123 0.860179 0.010078
Si Si2 0.120094 0.945871 0.910549
Si Si3 0.665748 0.715157 0.870950
Si Si4 0.697053 0.766981 0.380722
Si Si5 0.000000 0.461504 0.750000
Si Si6 0.936410 0.900136 0.335758
Si Si7 0.910734 0.216096 0.341745
Si Si8 0.405152 0.908180 0.046346
O O1 0.481727 0.728702 0.919250
O O2 0.603729 0.940476 0.997649
O O3 0.624525 0.789475 0.125599
O O4 0.500000 0.000000 0.000000
O O5 0.118672 0.799961 0.864747
O O6 0.120074 0.069292 0.860018
O O7 0.032457 0.014636 0.881062
O O8 0.233008 0.910792 0.042663
O O9 0.592490 0.855254 0.810374
O O10 0.653091 0.670062 0.787213
O O11 0.750000 0.750000 0.000000
O O12 0.647440 0.770747 0.270225
O O13 0.788342 0.645730 0.456352
O O14 0.033036 0.551451 0.838073
O O15 0.895971 0.043494 0.335636
O O16 0.030369 0.280538 0.433569
#
# Coordination Sequence:
#
# PCOD9299293 Si02
#       8
#     8   8   8   8   4   8   8   8
#     4  10  24  48  73  98 136 195 246 290 357 420
#     4  11  23  41  66 102 150 180 224 288 369 437
#     4  12  24  38  65 103 141 181 224 281 361 436
#     4  11  25  41  68 110 140 183 237 292 364 440
#     4  12  24  38  66  98 138 182 222 292 374 424
#     4  12  22  46  71 102 144 187 232 300 358 430
#     4  11  25  44  73  99 138 192 241 293 346 425
#     4  11  24  44  68 100 143 181 232 297 362 425
#
# _framework density 23.885095
#
# number of rings (size 3 to 8) (size 9 to 14) (size 15 to 20)
#    0.000    0.800    5.333    1.200    5.600    0.000 
#    2.400    0.000    0.000    0.000    0.000    0.000 
#    0.000    0.000    0.000    0.000    0.000    0.000 
#
# Total GULP energy -167025.453822 kJ/mol
# GULP energy per Si atom -5567.515127 kJ/mol
# Density = 2.383073 g / cm^3
# Si number density = 23.885095 Si / 1000 Ang^3
#
#
#
# Elastic Constant Matrix: (Units=GPa)
#
#
# Indices 1 2 3 4 5 6 
#
# 1 45.6678 40.5357 45.2029 0.0000 -14.1881 0.0000
# 2 40.5357 149.3292 77.6602 0.0000 -16.9283 0.0000
# 3 45.2029 77.6602 151.7490 0.0000 -21.5987 0.0000
# 4 0.0000 0.0000 0.0000 11.8357 0.0000 4.6395
# 5 -14.1881 -16.9283 -21.5987 0.0000 40.3011 0.0000
# 6 0.0000 0.0000 0.0000 4.6395 0.0000 42.3684
#
#
#
# Elastic Compliance Matrix: (Units=1/GPa)
#
#
# Indices 1 2 3 4 5 6 
#
# 1 0.035488 -0.005284 -0.006934 0.000000 0.006558 0.000000
# 2 -0.005284 0.009990 -0.003471 0.000000 0.000476 0.000000
# 3 -0.006934 -0.003471 0.010692 0.000000 0.001831 0.000000
# 4 0.000000 0.000000 0.000000 0.088279 0.000000 -0.009667
# 5 0.006558 0.000476 0.001831 0.000000 0.028303 0.000000
# 6 0.000000 0.000000 0.000000 -0.009667 0.000000 0.024661
#
#
# Mechanical properties :
#
#
# Convention : Reuss Voigt Hill
#
# Bulk Modulus (GPa) = 40.33342 74.83818 57.58580
# Shear Modulus (GPa) = 21.09217 31.12419 26.10818
#
# Velocity S-wave (km/s) = 2.97487 3.61374 3.30975
# Velocity P-wave (km/s) = 5.35937 6.98661 6.22638
#
# Compressibility (1/GPa) = 0.02479334
#
# Stress axis : x y z
#
# Youngs Moduli (GPa) = 28.17866 100.10088 93.52711
#
# Poissons Ratio (x) = 0.52893 0.64847
# Poissons Ratio (y) = 0.14889 0.32461
# Poissons Ratio (z) = 0.19538 0.34743
#
# Static dielectric constant tensor:
#      x y z
#    x 2.065970 0.000000 0.033480 
#    y 0.000000 1.942280 0.000000 
#    z 0.033480 0.000000 1.990100 
# 
# From -- ./inp_files/284311.got.cif
#   From: 2010.05.17/outbox.cif.g08.bks.cpg/sg15_143_cif.got.tgz:284311.got - 2010.06.03 18:47:42.
