data_PCOD9299061
_publ_section_title
;
Structure prediction by ZEFSAII (Michael W. Deem and Ramdas Pophale) SiO2 
 PCOD9299061
Probable space group: C 2/C
;
_chemical_formula_sum "Si O2"
_cell_formula_units_Z 40
_cell_length_a 11.669730
_cell_length_b 16.252601
_cell_length_c 10.380793
_cell_angle_alpha 90.000000
_cell_angle_beta 53.697527
_cell_angle_gamma 90.000000
_cell_volume 1586.707370
_symmetry_space_group_name_H-M "C 2/C"
_symmetry_group_IT_number 15
_symmetry_cell_setting 'monoclinic'
loop_
_space_group_symop_operation_xyz
x,y,z
-x,y,1/2-z
-x,-y,-z
x,-y,1/2+z
1/2+x,1/2+y,z
1/2-x,1/2+y,1/2-z
1/2-x,1/2-y,-z
1/2+x,1/2-y,1/2+z
loop_
_atom_site_type_symbol
_atom_site_label
_atom_site_fract_x
_atom_site_fract_y
_atom_site_fract_z
Si Si1 0.904744 0.474419 0.186718
Si Si2 0.755694 0.197278 0.716904
Si Si3 0.000000 0.979691 0.750000
Si Si4 0.766966 0.905683 0.532554
Si Si5 0.041412 0.828092 0.901991
Si Si6 0.250000 0.250000 0.500000
O O1 0.809692 0.393618 0.233110
O O2 0.801184 0.546774 0.303954
O O3 0.000000 0.459416 0.250000
O O4 0.000000 0.500000 0.000000
O O5 0.633560 0.262724 0.764485
O O6 0.819798 0.225641 0.810322
O O7 0.882500 0.197990 0.531724
O O8 0.962419 0.917930 0.658822
O O9 0.135311 0.034394 0.617029
O O10 0.874661 0.833772 0.515511
O O11 0.657883 0.840792 0.547840
#
# Coordination Sequence:
#
# PCOD9299061 Si02
#       6
#     8   8   4   8   8   4
#     4  12  29  48  78 115 164 211 267 336 409 488
#     4  11  26  48  73 113 153 204 265 330 402 484
#     4  12  24  44  76 102 152 196 258 320 394 492
#     4  11  25  46  74 107 149 203 264 323 402 479
#     4  11  27  45  75 109 148 201 260 326 403 480
#     4  10  24  46  76 106 150 198 262 328 396 470
#
# _framework density 25.209439
#
# number of rings (size 3 to 8) (size 9 to 14) (size 15 to 20)
#    0.000    0.800    2.000    3.000   12.600    3.200 
#    1.800    0.000    0.000    0.000    0.000    0.000 
#    0.000    0.000    0.000    0.000    0.000    0.000 
#
# Total GULP energy -111493.498380 kJ/mol
# GULP energy per Si atom -5574.674919 kJ/mol
# Density = 2.515206 g / cm^3
# Si number density = 25.209439 Si / 1000 Ang^3
#
#
#
# Elastic Constant Matrix: (Units=GPa)
#
#
# Indices 1 2 3 4 5 6 
#
# 1 79.6103 22.2001 46.3372 0.0000 0.7602 0.0000
# 2 22.2001 188.7514 92.6964 0.0000 -22.1163 0.0000
# 3 46.3372 92.6964 216.2149 0.0000 -20.2979 0.0000
# 4 0.0000 0.0000 0.0000 49.3144 0.0000 0.8476
# 5 0.7602 -22.1163 -20.2979 0.0000 44.1370 0.0000
# 6 0.0000 0.0000 0.0000 0.8476 0.0000 35.7551
#
#
#
# Elastic Compliance Matrix: (Units=1/GPa)
#
#
# Indices 1 2 3 4 5 6 
#
# 1 0.014503 -0.000396 -0.003115 0.000000 -0.001881 0.000000
# 2 -0.000396 0.006919 -0.002671 0.000000 0.002246 0.000000
# 3 -0.003115 -0.002671 0.006602 0.000000 0.001752 0.000000
# 4 0.000000 0.000000 0.000000 0.020286 0.000000 -0.000481
# 5 -0.001881 0.002246 0.001752 0.000000 0.024620 0.000000
# 6 0.000000 0.000000 0.000000 -0.000481 0.000000 0.027979
#
#
# Mechanical properties :
#
#
# Convention : Reuss Voigt Hill
#
# Bulk Modulus (GPa) = 63.85604 89.67155 76.76380
# Shear Modulus (GPa) = 42.19649 47.39750 44.79699
#
# Velocity S-wave (km/s) = 4.09569 4.34077 4.22001
# Velocity P-wave (km/s) = 6.91024 7.79557 7.36622
#
# Compressibility (1/GPa) = 0.01566023
#
# Stress axis : x y z
#
# Youngs Moduli (GPa) = 68.95319 144.52278 151.47049
#
# Poissons Ratio (x) = 0.05730 0.47178
# Poissons Ratio (y) = 0.02734 0.40453
# Poissons Ratio (z) = 0.21477 0.38597
#
# Static dielectric constant tensor:
#      x y z
#    x -3.496250 0.000000 0.071510 
#    y 0.000000 1.391400 0.000000 
#    z 0.071510 0.000000 2.096590 
# 
# From -- ./inp_files/98118.got.cif
#   From: 2010.05.17/outbox.cif.g08.bks.cpg/sg15_50_cif.got.tgz:98118.got - 2010.06.03 18:47:42.
