data_PCOD9299955
_publ_section_title
;
Structure prediction by ZEFSAII (Michael W. Deem and Ramdas Pophale) SiO2 
 PCOD9299955
Probable space group: C 2/C
;
_chemical_formula_sum "Si O2"
_cell_formula_units_Z 48
_cell_length_a 14.768755
_cell_length_b 26.844085
_cell_length_c 12.104385
_cell_angle_alpha 90.000000
_cell_angle_beta 29.139427
_cell_angle_gamma 90.000000
_cell_volume 2336.724871
_symmetry_space_group_name_H-M "C 2/C"
_symmetry_group_IT_number 15
_symmetry_cell_setting 'monoclinic'
loop_
_space_group_symop_operation_xyz
x,y,z
-x,y,1/2-z
-x,-y,-z
x,-y,1/2+z
1/2+x,1/2+y,z
1/2-x,1/2+y,1/2-z
1/2-x,1/2-y,-z
1/2+x,1/2-y,1/2+z
loop_
_atom_site_type_symbol
_atom_site_label
_atom_site_fract_x
_atom_site_fract_y
_atom_site_fract_z
Si Si1 0.391680 0.302520 0.475126
Si Si2 0.940423 0.626120 0.199852
Si Si3 0.743795 0.199731 0.793945
Si Si4 0.222184 0.083404 0.039940
Si Si5 0.281990 0.307213 0.998382
Si Si6 0.975654 0.551312 0.960386
O O1 0.500000 0.284508 0.250000
O O2 0.259513 0.347680 0.583165
O O3 0.275398 0.257754 0.653653
O O4 0.550689 0.317484 0.391904
O O5 0.000000 0.599538 0.250000
O O6 0.952560 0.592302 0.079946
O O7 0.090581 0.670118 0.025094
O O8 0.715593 0.190362 0.695264
O O9 0.282267 0.141922 0.992523
O O10 0.000000 0.079559 0.250000
O O11 0.298731 0.054441 0.065860
O O12 0.343579 0.063419 0.807409
O O13 0.500000 0.311902 0.750000
O O14 0.250000 0.250000 0.000000
O O15 0.000000 0.500000 0.000000
#
# Coordination Sequence:
#
# PCOD9299955 Si02
#       6
#     8   8   8   8   8   8
#     4  12  24  39  62  96 137 189 228 276 340 415
#     4  12  26  43  67  98 139 180 237 294 342 417
#     4  12  23  40  63  95 141 184 229 277 344 417
#     4  10  25  49  75 112 148 180 237 302 361 429
#     4  11  25  39  65 103 144 189 228 276 356 432
#     4  11  27  49  79 102 137 188 240 298 364 413
#
# _framework density 20.541571000000001
#
# number of rings (size 3 to 8) (size 9 to 14) (size 15 to 20)
#    0.000    0.667    5.000    2.000   11.667    0.667 
#    0.000    0.833    0.000    0.000    0.000    0.000 
#    0.000    0.000    0.000    0.000    0.000    0.000 
#
# Total GULP energy -134036.662061 kJ/mol
# GULP energy per Si atom -5584.860919 kJ/mol
# Density = 2.049482 g / cm^3
# Si number density = 20.541571 Si / 1000 Ang^3
#
#
#
# Elastic Constant Matrix: (Units=GPa)
#
#
# Indices 1 2 3 4 5 6 
#
# 1 126.3264 41.0481 42.3043 -0.0004 -4.1001 0.0003
# 2 41.0481 96.3747 21.4475 0.0001 -4.4927 0.0001
# 3 42.3043 21.4475 87.1611 0.0045 -10.8902 -0.0005
# 4 -0.0004 0.0001 0.0045 23.5162 -0.0009 -0.6018
# 5 -4.1001 -4.4927 -10.8902 -0.0009 45.6014 -0.0005
# 6 0.0003 0.0001 -0.0005 -0.6018 -0.0005 37.0625
#
#
#
# Elastic Compliance Matrix: (Units=1/GPa)
#
#
# Indices 1 2 3 4 5 6 
#
# 1 0.010480 -0.003533 -0.004270 0.000001 -0.000426 0.000000
# 2 -0.003533 0.012177 -0.001207 0.000000 0.000594 0.000000
# 3 -0.004270 -0.001207 0.014204 -0.000003 0.002889 0.000000
# 4 0.000001 0.000000 -0.000003 0.042541 0.000000 0.000691
# 5 -0.000426 0.000594 0.002889 0.000000 0.022639 0.000000
# 6 0.000000 0.000000 0.000000 0.000691 0.000000 0.026993
#
#
# Mechanical properties :
#
#
# Convention : Reuss Voigt Hill
#
# Bulk Modulus (GPa) = 53.08054 57.71801 55.39927
# Shear Modulus (GPa) = 32.60786 34.90683 33.75734
#
# Velocity S-wave (km/s) = 3.98855 4.12676 4.05824
# Velocity P-wave (km/s) = 6.86353 7.13204 6.99907
#
# Compressibility (1/GPa) = 0.01883930
#
# Stress axis : x y z
#
# Youngs Moduli (GPa) = 95.41629 82.11898 70.40369
#
# Poissons Ratio (x) = 0.29015 0.30066
# Poissons Ratio (y) = 0.33713 0.08500
# Poissons Ratio (z) = 0.40747 0.09915
#
# Static dielectric constant tensor:
#      x y z
#    x 1.779600 0.000000 -0.006450 
#    y 0.000000 1.768090 0.000000 
#    z -0.006450 0.000000 1.712320 
# 
# From -- ./inp_files/101257.got.cif
#   From: 2010.05.17/outbox.cif.g08.bks.cpg/sg15_51_cif.got.tgz:101257.got - 2010.06.03 18:47:42.
