data_PCOD9299021
_publ_section_title
;
Structure prediction by ZEFSAII (Michael W. Deem and Ramdas Pophale) SiO2 
 PCOD9299021
Probable space group: C 2/C
;
_chemical_formula_sum "Si O2"
_cell_formula_units_Z 52
_cell_length_a 13.597960
_cell_length_b 4.838106
_cell_length_c 31.183777
_cell_angle_alpha 90.000000
_cell_angle_beta 66.614523
_cell_angle_gamma 90.000000
_cell_volume 1883.007532
_symmetry_space_group_name_H-M "C 2/C"
_symmetry_group_IT_number 15
_symmetry_cell_setting 'monoclinic'
loop_
_space_group_symop_operation_xyz
x,y,z
-x,y,1/2-z
-x,-y,-z
x,-y,1/2+z
1/2+x,1/2+y,z
1/2-x,1/2+y,1/2-z
1/2-x,1/2-y,-z
1/2+x,1/2-y,1/2+z
loop_
_atom_site_type_symbol
_atom_site_label
_atom_site_fract_x
_atom_site_fract_y
_atom_site_fract_z
Si Si1 0.318894 0.523385 0.997346
Si Si2 0.121261 0.543884 0.463879
Si Si3 0.600577 0.913491 0.149212
Si Si4 0.682759 0.272417 0.869127
Si Si5 0.968242 0.087021 0.889877
Si Si6 0.284632 0.513507 0.768403
Si Si7 0.500000 0.831222 0.750000
O O1 0.410319 0.545278 0.945266
O O2 0.250000 0.250000 0.000000
O O3 0.301993 0.834052 0.019819
O O4 0.365708 0.372023 0.033140
O O5 0.142978 0.431714 0.413175
O O6 0.000000 0.500000 0.500000
O O7 0.718910 0.035376 0.132965
O O8 0.543749 0.097464 0.122213
O O9 0.540367 0.981787 0.203644
O O10 0.594693 0.599298 0.134609
O O11 0.586411 0.467075 0.870402
O O12 0.725423 0.089808 0.822307
O O13 0.274199 0.194023 0.758327
O O14 0.403923 0.633021 0.750974
#
# Coordination Sequence:
#
# PCOD9299021 Si02
#       7
#     8   8   8   8   8   8   4
#     4  12  27  48  73 104 149 193 252 313 374 445
#     4  12  26  48  72 106 147 196 252 308 380 446
#     4  11  27  46  73 111 142 194 248 305 380 456
#     4  11  27  46  78 104 150 196 248 309 379 452
#     4  12  26  48  72 106 147 194 248 308 370 445
#     4  11  25  46  73 111 144 193 244 306 377 453
#     4  10  24  46  74 106 152 184 242 316 372 448
#
# _framework density 27.615396
#
# number of rings (size 3 to 8) (size 9 to 14) (size 15 to 20)
#    0.000    0.615    1.538    4.615    0.000   12.308 
#    0.000    0.000    0.000    0.000    0.000    0.000 
#    0.000    0.000    0.000    0.000    0.000    0.000 
#
# Total GULP energy -146116.105878 kJ/mol
# GULP energy per Si atom -5619.850226 kJ/mol
# Density = 2.755254 g / cm^3
# Si number density = 27.615396 Si / 1000 Ang^3
#
#
#
# Elastic Constant Matrix: (Units=GPa)
#
#
# Indices 1 2 3 4 5 6 
#
# 1 120.0754 41.1941 47.2267 0.0002 -10.3590 -0.0020
# 2 41.1941 160.8282 9.7449 0.0044 3.5182 0.0076
# 3 47.2267 9.7449 160.7175 0.0029 -19.8738 0.0006
# 4 0.0002 0.0044 0.0029 34.3477 0.0002 9.5323
# 5 -10.3590 3.5182 -19.8738 0.0002 40.9669 0.0013
# 6 -0.0020 0.0076 0.0006 9.5323 0.0013 35.5898
#
#
#
# Elastic Compliance Matrix: (Units=1/GPa)
#
#
# Indices 1 2 3 4 5 6 
#
# 1 0.010395 -0.002532 -0.002712 0.000000 0.001530 0.000001
# 2 -0.002532 0.006880 0.000186 0.000000 -0.001141 -0.000001
# 3 -0.002712 0.000186 0.007363 -0.000001 0.002870 0.000000
# 4 0.000000 0.000000 -0.000001 0.031452 0.000000 -0.008424
# 5 0.001530 -0.001141 0.002870 0.000000 0.026287 -0.000001
# 6 0.000001 -0.000001 0.000000 -0.008424 -0.000001 0.030354
#
#
# Mechanical properties :
#
#
# Convention : Reuss Voigt Hill
#
# Bulk Modulus (GPa) = 68.86093 70.88359 69.87226
# Shear Modulus (GPa) = 39.15795 45.07789 42.11792
#
# Velocity S-wave (km/s) = 3.76969 4.04461 3.90957
# Velocity P-wave (km/s) = 6.62852 6.89462 6.76287
#
# Compressibility (1/GPa) = 0.01452202
#
# Stress axis : x y z
#
# Youngs Moduli (GPa) = 96.19716 145.34870 135.82104
#
# Poissons Ratio (x) = 0.36799 0.36833
# Poissons Ratio (y) = 0.24355 -0.02522
# Poissons Ratio (z) = 0.26088 -0.02699
#
# Static dielectric constant tensor:
#      x y z
#    x 2.381750 0.000000 0.178280 
#    y 0.000000 1.981090 0.000000 
#    z 0.178280 0.000000 2.120920 
# 
# From -- ./inp_files/312301.got.cif
#   From: 2010.05.17/outbox.cif.g08.bks.cpg/sg15_157_cif.got.tgz:312301.got - 2010.06.03 18:47:42.
