data_PCOD9299701
_publ_section_title
;
Structure prediction by ZEFSAII (Michael W. Deem and Ramdas Pophale) SiO2 
 PCOD9299701
Probable space group: C 2/C
;
_chemical_formula_sum "Si O2"
_cell_formula_units_Z 40
_cell_length_a 10.462815
_cell_length_b 19.371015
_cell_length_c 9.483211
_cell_angle_alpha 90.000000
_cell_angle_beta 84.377927
_cell_angle_gamma 90.000000
_cell_volume 1912.767677
_symmetry_space_group_name_H-M "C 2/C"
_symmetry_group_IT_number 15
_symmetry_cell_setting 'monoclinic'
loop_
_space_group_symop_operation_xyz
x,y,z
-x,y,1/2-z
-x,-y,-z
x,-y,1/2+z
1/2+x,1/2+y,z
1/2-x,1/2+y,1/2-z
1/2-x,1/2-y,-z
1/2+x,1/2-y,1/2+z
loop_
_atom_site_type_symbol
_atom_site_label
_atom_site_fract_x
_atom_site_fract_y
_atom_site_fract_z
Si Si1 0.336101 0.284036 0.607166
Si Si2 0.232654 0.320187 0.915138
Si Si3 0.143538 0.954071 0.675559
Si Si4 0.768889 0.075202 0.036272
Si Si5 0.975768 0.644454 0.592978
O O1 0.250000 0.250000 0.500000
O O2 0.246906 0.295750 0.752713
O O3 0.366298 0.359965 0.546017
O O4 0.442517 0.226105 0.617822
O O5 0.336875 0.381585 0.908270
O O6 0.250000 0.250000 0.000000
O O7 0.101951 0.355388 0.982666
O O8 0.000000 0.960430 0.750000
O O9 0.176552 0.016440 0.569490
O O10 0.238832 0.952538 0.801964
O O11 0.639582 0.105534 0.977102
O O12 0.000000 0.617127 0.750000
#
# Coordination Sequence:
#
# PCOD9299701 Si02
#       5
#     8   8   8   8   8
#     4   9  21  41  63 101 137 172 232 286 343 421
#     4  11  24  40  72 100 137 190 229 290 368 406
#     4  11  26  47  71 101 146 185 236 297 358 429
#     4  10  25  45  69 102 139 186 239 283 358 421
#     4  11  23  44  71 105 142 182 241 296 350 425
#
# _framework density 20.912105
#
# number of rings (size 3 to 8) (size 9 to 14) (size 15 to 20)
#    0.000    1.600    2.000    0.600    8.400    8.000 
#    7.200    0.000    0.000    0.000    0.000    0.000 
#    0.000    0.000    0.000    0.000    0.000    0.000 
#
# Total GULP energy -111496.032406 kJ/mol
# GULP energy per Si atom -5574.801620 kJ/mol
# Density = 2.086451 g / cm^3
# Si number density = 20.912105 Si / 1000 Ang^3
#
#
#
# Elastic Constant Matrix: (Units=GPa)
#
#
# Indices 1 2 3 4 5 6 
#
# 1 97.5920 32.0338 53.0181 0.0000 -5.7739 0.0000
# 2 32.0338 128.6061 90.1514 0.0000 -2.3785 0.0000
# 3 53.0181 90.1514 123.6608 0.0000 0.3271 0.0000
# 4 0.0000 0.0000 0.0000 47.4671 0.0000 5.3543
# 5 -5.7739 -2.3785 0.3271 0.0000 40.1540 0.0000
# 6 0.0000 0.0000 0.0000 5.3543 0.0000 16.5115
#
#
#
# Elastic Compliance Matrix: (Units=1/GPa)
#
#
# Indices 1 2 3 4 5 6 
#
# 1 0.013660 0.001525 -0.006974 0.000000 0.002111 0.000000
# 2 0.001525 0.016116 -0.012406 0.000000 0.001275 0.000000
# 3 -0.006974 -0.012406 0.020126 0.000000 -0.001902 0.000000
# 4 0.000000 0.000000 0.000000 0.021867 0.000000 -0.007091
# 5 0.002111 0.001275 -0.001902 0.000000 0.025299 0.000000
# 6 0.000000 0.000000 0.000000 -0.007091 0.000000 0.062863
#
#
# Mechanical properties :
#
#
# Convention : Reuss Voigt Hill
#
# Bulk Modulus (GPa) = 70.46252 77.80728 74.13490
# Shear Modulus (GPa) = 24.95367 32.47023 28.71195
#
# Velocity S-wave (km/s) = 3.45811 3.94471 3.70940
# Velocity P-wave (km/s) = 7.05071 7.61808 7.33988
#
# Compressibility (1/GPa) = 0.01419194
#
# Stress axis : x y z
#
# Youngs Moduli (GPa) = 73.20793 62.05040 49.68670
#
# Poissons Ratio (x) = -0.09465 0.34652
# Poissons Ratio (y) = -0.11167 0.61642
# Poissons Ratio (z) = 0.51056 0.76981
#
# Static dielectric constant tensor:
#      x y z
#    x 1.751680 0.000000 0.031800 
#    y 0.000000 1.793310 0.000000 
#    z 0.031800 0.000000 1.742440 
# 
# From -- ./inp_files/30296.got.cif
#   From: 2010.05.17/outbox.cif.g08.bks.cpg/sg15_16_cif.got.tgz:30296.got - 2010.06.03 18:47:42.
