data_PCOD9299633
_publ_section_title
;
Structure prediction by ZEFSAII (Michael W. Deem and Ramdas Pophale) SiO2 
 PCOD9299633
Probable space group: C 2/C
;
_chemical_formula_sum "Si O2"
_cell_formula_units_Z 60
_cell_length_a 19.393968
_cell_length_b 13.221920
_cell_length_c 11.425336
_cell_angle_alpha 90.000000
_cell_angle_beta 105.406847
_cell_angle_gamma 90.000000
_cell_volume 2824.463029
_symmetry_space_group_name_H-M "C 2/C"
_symmetry_group_IT_number 15
_symmetry_cell_setting 'monoclinic'
loop_
_space_group_symop_operation_xyz
x,y,z
-x,y,1/2-z
-x,-y,-z
x,-y,1/2+z
1/2+x,1/2+y,z
1/2-x,1/2+y,1/2-z
1/2-x,1/2-y,-z
1/2+x,1/2-y,1/2+z
loop_
_atom_site_type_symbol
_atom_site_label
_atom_site_fract_x
_atom_site_fract_y
_atom_site_fract_z
Si Si1 0.687366 0.439644 0.138050
Si Si2 0.390967 0.735592 0.784669
Si Si3 0.829705 0.544799 0.298482
Si Si4 0.882223 0.128848 0.301192
Si Si5 0.500000 0.758140 0.250000
Si Si6 0.447618 0.272858 0.060920
Si Si7 0.454993 0.909778 0.427262
Si Si8 0.734673 0.644766 0.428067
O O1 0.671552 0.330815 0.187025
O O2 0.762334 0.493703 0.202955
O O3 0.628273 0.511085 0.173647
O O4 0.688316 0.422240 0.998605
O O5 0.365246 0.851924 0.766832
O O6 0.465869 0.722913 0.889762
O O7 0.411737 0.697032 0.665644
O O8 0.889171 0.458446 0.330225
O O9 0.802839 0.579985 0.416102
O O10 0.911839 0.169905 0.437074
O O11 0.806811 0.163544 0.212613
O O12 0.934625 0.180160 0.230660
O O13 0.496794 0.833068 0.359827
O O14 0.430063 0.156571 0.025364
O O15 0.500000 0.000000 0.500000
O O16 0.750000 0.750000 0.500000
#
# Coordination Sequence:
#
# PCOD9299633 Si02
#       8
#     8   8   8   8   4   8   8   8
#     4  11  27  45  72  99 143 196 237 286 360 427
#     4  11  24  47  70 105 144 183 236 299 355 423
#     4  11  26  43  67 107 140 190 237 291 361 423
#     4  10  26  47  70 107 133 191 239 290 365 415
#     4  10  26  42  72 102 142 176 240 300 344 430
#     4  10  25  44  70 103 142 179 236 303 351 427
#     4  11  24  40  71 105 140 183 229 290 366 418
#     4  11  25  45  70  98 147 187 240 298 344 430
#
# _framework density 21.242977
#
# number of rings (size 3 to 8) (size 9 to 14) (size 15 to 20)
#    0.000    1.333    2.667    0.000   16.800    1.600 
#    0.000    3.333    0.000    0.000    0.000    0.000 
#    0.000    0.000    0.000    0.000    0.000    0.000 
#
# Total GULP energy -167186.916793 kJ/mol
# GULP energy per Si atom -5572.897226 kJ/mol
# Density = 2.119463 g / cm^3
# Si number density = 21.242977 Si / 1000 Ang^3
#
#
#
# Elastic Constant Matrix: (Units=GPa)
#
#
# Indices 1 2 3 4 5 6 
#
# 1 82.5061 31.6779 36.8211 0.0000 -6.0966 0.0000
# 2 31.6779 83.3690 35.2107 0.0000 6.7680 0.0000
# 3 36.8211 35.2107 106.6285 0.0000 6.5191 0.0000
# 4 0.0000 0.0000 0.0000 29.3348 0.0000 -7.8027
# 5 -6.0966 6.7680 6.5191 0.0000 35.5725 0.0000
# 6 0.0000 0.0000 0.0000 -7.8027 0.0000 36.6216
#
#
#
# Elastic Compliance Matrix: (Units=1/GPa)
#
#
# Indices 1 2 3 4 5 6 
#
# 1 0.016172 -0.004686 -0.004309 0.000000 0.004453 0.000000
# 2 -0.004686 0.015416 -0.003281 0.000000 -0.003135 0.000000
# 3 -0.004309 -0.003281 0.012092 0.000000 -0.002330 0.000000
# 4 0.000000 0.000000 0.000000 0.036137 0.000000 0.007700
# 5 0.004453 -0.003135 -0.002330 0.000000 0.029898 0.000000
# 6 0.000000 0.000000 0.000000 0.007700 0.000000 0.028947
#
#
# Mechanical properties :
#
#
# Convention : Reuss Voigt Hill
#
# Bulk Modulus (GPa) = 52.28108 53.32477 52.80293
# Shear Modulus (GPa) = 29.48292 31.55872 30.52082
#
# Velocity S-wave (km/s) = 3.72948 3.85854 3.79456
# Velocity P-wave (km/s) = 6.57342 6.70879 6.64145
#
# Compressibility (1/GPa) = 0.01912738
#
# Stress axis : x y z
#
# Youngs Moduli (GPa) = 61.83614 64.86949 82.69800
#
# Poissons Ratio (x) = 0.30400 0.35636
# Poissons Ratio (y) = 0.28978 0.27130
# Poissons Ratio (z) = 0.26646 0.21281
#
# Static dielectric constant tensor:
#      x y z
#    x 1.810880 0.000000 0.036570 
#    y 0.000000 -8.596770 0.000000 
#    z 0.036570 0.000000 1.788000 
# 
# From -- ./inp_files/105770.got.cif
#   From: 2010.05.17/outbox.cif.g08.bks.cpg/sg15_53_cif.got.tgz:105770.got - 2010.06.03 18:47:42.
