data_PCOD9299053
_publ_section_title
;
Structure prediction by ZEFSAII (Michael W. Deem and Ramdas Pophale) SiO2 
 PCOD9299053
Probable space group: C 2/C
;
_chemical_formula_sum "Si O2"
_cell_formula_units_Z 36
_cell_length_a 29.440547
_cell_length_b 7.787516
_cell_length_c 9.287165
_cell_angle_alpha 90.000000
_cell_angle_beta 43.035408
_cell_angle_gamma 90.000000
_cell_volume 1453.111538
_symmetry_space_group_name_H-M "C 2/C"
_symmetry_group_IT_number 15
_symmetry_cell_setting 'monoclinic'
loop_
_space_group_symop_operation_xyz
x,y,z
-x,y,1/2-z
-x,-y,-z
x,-y,1/2+z
1/2+x,1/2+y,z
1/2-x,1/2+y,1/2-z
1/2-x,1/2-y,-z
1/2+x,1/2-y,1/2+z
loop_
_atom_site_type_symbol
_atom_site_label
_atom_site_fract_x
_atom_site_fract_y
_atom_site_fract_z
Si Si1 0.898121 0.637429 0.201769
Si Si2 0.325864 0.943253 0.598117
Si Si3 0.000000 0.734082 0.750000
Si Si4 0.570303 0.571921 0.642631
Si Si5 0.300451 0.684805 0.261871
O O1 0.875764 0.469017 0.345666
O O2 0.844226 0.662022 0.198059
O O3 0.908947 0.811096 0.269708
O O4 0.963983 0.619656 0.952099
O O5 0.250783 0.904611 0.727404
O O6 0.327883 0.137992 0.641472
O O7 0.050462 0.871632 0.709426
O O8 0.500000 0.647502 0.750000
O O9 0.631630 0.577040 0.387272
O O10 0.250000 0.750000 0.500000
#
# Coordination Sequence:
#
# PCOD9299053 Si02
#       5
#     8   8   4   8   8
#     4  11  24  49  68 113 141 198 248 306 375 438
#     4  11  26  45  75 108 149 191 249 312 372 437
#     4  10  24  46  76 102 150 196 254 300 366 448
#     4   9  24  45  74 106 143 197 245 299 365 445
#     4  11  24  46  73 109 148 189 243 302 374 439
#
# _framework density 24.774422000000001
#
# number of rings (size 3 to 8) (size 9 to 14) (size 15 to 20)
#    0.667    0.889    2.222    0.667    3.111    9.778 
#    8.000    0.000    0.000    0.000    0.000    0.000 
#    0.000    0.000    0.000    0.000    0.000    0.000 
#
# Total GULP energy -100228.895893 kJ/mol
# GULP energy per Si atom -5568.271994 kJ/mol
# Density = 2.471803 g / cm^3
# Si number density = 24.774422 Si / 1000 Ang^3
#
#
#
# Elastic Constant Matrix: (Units=GPa)
#
#
# Indices 1 2 3 4 5 6 
#
# 1 132.1354 32.1837 61.6014 0.0000 -15.7632 0.0000
# 2 32.1837 55.4488 12.2492 0.0000 0.6230 0.0000
# 3 61.6014 12.2492 150.8047 0.0000 -21.0171 0.0000
# 4 0.0000 0.0000 0.0000 126.1675 0.0000 2.4052
# 5 -15.7632 0.6230 -21.0171 0.0000 37.8636 0.0000
# 6 0.0000 0.0000 0.0000 2.4052 0.0000 33.6234
#
#
#
# Elastic Compliance Matrix: (Units=1/GPa)
#
#
# Indices 1 2 3 4 5 6 
#
# 1 0.010940 -0.005573 -0.003651 0.000000 0.002620 0.000000
# 2 -0.005573 0.021255 0.000193 0.000000 -0.002563 0.000000
# 3 -0.003651 0.000193 0.008556 0.000000 0.003226 0.000000
# 4 0.000000 0.000000 0.000000 0.007937 0.000000 -0.000568
# 5 0.002620 -0.002563 0.003226 0.000000 0.029334 0.000000
# 6 0.000000 0.000000 0.000000 -0.000568 0.000000 0.029782
#
#
# Mechanical properties :
#
#
# Convention : Reuss Voigt Hill
#
# Bulk Modulus (GPa) = 44.07280 61.16195 52.61738
# Shear Modulus (GPa) = 37.47286 55.02119 46.24703
#
# Velocity S-wave (km/s) = 3.89339 4.71774 4.32525
# Velocity P-wave (km/s) = 6.16762 7.37680 6.79915
#
# Compressibility (1/GPa) = 0.02268973
#
# Stress axis : x y z
#
# Youngs Moduli (GPa) = 91.40826 47.04695 116.87045
#
# Poissons Ratio (x) = 0.26218 0.42670
# Poissons Ratio (y) = 0.50939 -0.02252
# Poissons Ratio (z) = 0.33374 -0.00907
#
# Static dielectric constant tensor:
#      x y z
#    x 2.011480 0.000000 -0.053040 
#    y 0.000000 1.949730 0.000000 
#    z -0.053040 0.000000 2.442270 
# 
# From -- ./inp_files/68230.got.cif
#   From: 2010.05.17/outbox.cif.g08.bks.cpg/sg15_35_cif.got.tgz:68230.got - 2010.06.03 18:47:42.
