data_PCOD9299788
_publ_section_title
;
Structure prediction by ZEFSAII (Michael W. Deem and Ramdas Pophale) SiO2 
 PCOD9299788
Probable space group: C 2/C
;
_chemical_formula_sum "Si O2"
_cell_formula_units_Z 44
_cell_length_a 27.293074
_cell_length_b 9.560616
_cell_length_c 21.398308
_cell_angle_alpha 90.000000
_cell_angle_beta 162.335107
_cell_angle_gamma 90.000000
_cell_volume 1694.352896
_symmetry_space_group_name_H-M "C 2/C"
_symmetry_group_IT_number 15
_symmetry_cell_setting 'monoclinic'
loop_
_space_group_symop_operation_xyz
x,y,z
-x,y,1/2-z
-x,-y,-z
x,-y,1/2+z
1/2+x,1/2+y,z
1/2-x,1/2+y,1/2-z
1/2-x,1/2-y,-z
1/2+x,1/2-y,1/2+z
loop_
_atom_site_type_symbol
_atom_site_label
_atom_site_fract_x
_atom_site_fract_y
_atom_site_fract_z
Si Si1 0.230046 0.634280 0.269416
Si Si2 0.000000 0.679799 0.750000
Si Si3 0.767776 0.978281 0.029623
Si Si4 0.167899 0.753816 0.488984
Si Si5 0.944770 0.839222 0.918371
Si Si6 0.578835 0.621346 0.448871
O O1 0.349142 0.722114 0.459104
O O2 0.060878 0.709220 0.080209
O O3 0.280729 0.664341 0.259585
O O4 0.275715 0.475879 0.347027
O O5 0.873164 0.590386 0.636140
O O6 0.109898 0.762735 0.934043
O O7 0.758136 0.886650 0.081006
O O8 0.744797 0.881034 0.941040
O O9 0.948996 0.030997 0.252013
O O10 0.000000 0.738089 0.250000
O O11 0.969778 0.829466 0.874651
O O12 0.000000 0.000000 0.000000
#
# Coordination Sequence:
#
# PCOD9299788 Si02
#       6
#     8   4   8   8   8   8
#     4  11  23  46  73 102 144 196 249 303 363 437
#     4  12  26  44  74 106 150 190 234 310 366 444
#     4  11  24  42  71 106 143 186 236 305 368 434
#     4  11  21  41  71 105 135 183 238 301 362 425
#     4  10  25  46  71 103 147 197 246 305 361 441
#     4  11  24  46  68 102 150 190 241 296 373 438
#
# _framework density 25.968616000000001
#
# number of rings (size 3 to 8) (size 9 to 14) (size 15 to 20)
#    0.000    1.091    2.727    3.818    5.091    0.000 
#    3.273    3.636    0.000    0.000    0.000    0.000 
#    0.000    0.000    0.000    0.000    0.000    0.000 
#
# Total GULP energy -122870.079513 kJ/mol
# GULP energy per Si atom -5585.003614 kJ/mol
# Density = 2.590951 g / cm^3
# Si number density = 25.968616 Si / 1000 Ang^3
#
#
#
# Elastic Constant Matrix: (Units=GPa)
#
#
# Indices 1 2 3 4 5 6 
#
# 1 136.1678 34.7583 11.9842 -0.0001 -9.4679 -0.0001
# 2 34.7583 100.7285 44.4254 -0.0002 14.0857 -0.0002
# 3 11.9842 44.4254 74.0614 -0.0001 12.4355 -0.0002
# 4 -0.0001 -0.0002 -0.0001 32.1705 -0.0001 9.2482
# 5 -9.4679 14.0857 12.4355 -0.0001 42.2025 -0.0002
# 6 -0.0001 -0.0002 -0.0002 9.2482 -0.0002 35.6360
#
#
#
# Elastic Compliance Matrix: (Units=1/GPa)
#
#
# Indices 1 2 3 4 5 6 
#
# 1 0.008400 -0.003391 0.000177 0.000000 0.002964 0.000000
# 2 -0.003391 0.015070 -0.007910 0.000000 -0.003460 0.000000
# 3 0.000177 -0.007910 0.018693 0.000000 -0.002828 0.000000
# 4 0.000000 0.000000 0.000000 0.033590 0.000000 -0.008717
# 5 0.002964 -0.003460 -0.002828 0.000000 0.026348 0.000000
# 6 0.000000 0.000000 0.000000 -0.008717 0.000000 0.030324
#
#
# Mechanical properties :
#
#
# Convention : Reuss Voigt Hill
#
# Bulk Modulus (GPa) = 50.21216 54.81037 52.51127
# Shear Modulus (GPa) = 30.99553 36.65446 33.82499
#
# Velocity S-wave (km/s) = 3.45857 3.76106 3.61298
# Velocity P-wave (km/s) = 5.94362 6.32558 6.13757
#
# Compressibility (1/GPa) = 0.01991549
#
# Stress axis : x y z
#
# Youngs Moduli (GPa) = 119.04706 66.35487 53.49467
#
# Poissons Ratio (x) = 0.22503 -0.00948
# Poissons Ratio (y) = 0.40372 0.42316
# Poissons Ratio (z) = -0.02111 0.52488
#
# Static dielectric constant tensor:
#      x y z
#    x 1.989610 0.000000 0.007840 
#    y 0.000000 2.239470 0.000000 
#    z 0.007840 0.000000 2.089190 
# 
# From -- ./inp_files/284476.got.cif
#   From: 2010.05.17/outbox.cif.g08.bks.cpg/sg15_143_cif.got.tgz:284476.got - 2010.06.03 18:47:42.
