data_PCOD9299128
_publ_section_title
;
Structure prediction by ZEFSAII (Michael W. Deem and Ramdas Pophale) SiO2 
 PCOD9299128
Probable space group: C 2/C
;
_chemical_formula_sum "Si O2"
_cell_formula_units_Z 44
_cell_length_a 18.161087
_cell_length_b 12.450003
_cell_length_c 29.361197
_cell_angle_alpha 90.000000
_cell_angle_beta 161.385986
_cell_angle_gamma 90.000000
_cell_volume 2119.023854
_symmetry_space_group_name_H-M "C 2/C"
_symmetry_group_IT_number 15
_symmetry_cell_setting 'monoclinic'
loop_
_space_group_symop_operation_xyz
x,y,z
-x,y,1/2-z
-x,-y,-z
x,-y,1/2+z
1/2+x,1/2+y,z
1/2-x,1/2+y,1/2-z
1/2-x,1/2-y,-z
1/2+x,1/2-y,1/2+z
loop_
_atom_site_type_symbol
_atom_site_label
_atom_site_fract_x
_atom_site_fract_y
_atom_site_fract_z
Si Si1 0.572313 0.533513 0.843127
Si Si2 0.761215 0.988370 0.832516
Si Si3 0.037613 0.324098 0.891990
Si Si4 0.273639 0.374805 0.250863
Si Si5 0.757777 0.696350 0.454878
Si Si6 0.500000 0.132159 0.750000
O O1 0.500000 0.565526 0.750000
O O2 0.397608 0.581749 0.778135
O O3 0.584076 0.404553 0.852850
O O4 0.827101 0.580519 0.003584
O O5 0.808962 0.040161 0.811487
O O6 0.581527 0.059153 0.756093
O O7 0.630930 0.875903 0.745103
O O8 0.000000 0.000000 0.000000
O O9 0.885077 0.239748 0.830453
O O10 0.250000 0.250000 0.000000
O O11 0.005754 0.351310 0.088284
O O12 0.750000 0.750000 0.500000
O O13 0.697012 0.788639 0.383413
#
# Coordination Sequence:
#
# PCOD9299128 Si02
#       6
#     8   8   8   8   8   4
#     4  11  25  46  70 101 141 183 235 291 358 432
#     4  12  27  44  72 106 140 191 239 295 364 438
#     4  10  24  47  69 104 144 188 234 300 360 431
#     4  11  26  44  73 100 142 188 232 299 357 424
#     4  12  24  45  69 103 139 181 234 296 350 422
#     4  12  26  44  74 102 138 184 238 290 358 432
#
# _framework density 20.764278999999998
#
# number of rings (size 3 to 8) (size 9 to 14) (size 15 to 20)
#    0.000    0.727    4.545    1.091   10.182    5.091 
#    1.636    0.000    0.000    0.000    0.000    0.000 
#    0.000    0.000    0.000    0.000    0.000    0.000 
#
# Total GULP energy -122849.943773 kJ/mol
# GULP energy per Si atom -5584.088353 kJ/mol
# Density = 2.071702 g / cm^3
# Si number density = 20.764279 Si / 1000 Ang^3
#
#
#
# Elastic Constant Matrix: (Units=GPa)
#
#
# Indices 1 2 3 4 5 6 
#
# 1 123.0166 26.8883 31.9676 0.0160 1.0692 -0.0177
# 2 26.8883 95.7889 24.4239 0.0275 6.8447 -0.0098
# 3 31.9676 24.4239 112.2814 0.1389 0.7036 -0.0655
# 4 0.0160 0.0275 0.1389 34.6870 -0.0191 5.6539
# 5 1.0692 6.8447 0.7036 -0.0191 30.3376 0.0183
# 6 -0.0177 -0.0098 -0.0655 5.6539 0.0183 24.4251
#
#
#
# Elastic Compliance Matrix: (Units=1/GPa)
#
#
# Indices 1 2 3 4 5 6 
#
# 1 0.009132 -0.002026 -0.002160 0.000006 0.000185 -0.000002
# 2 -0.002026 0.011685 -0.001949 -0.000002 -0.002520 0.000000
# 3 -0.002160 -0.001949 0.009944 -0.000043 0.000285 0.000034
# 4 0.000006 -0.000002 -0.000043 0.029960 0.000024 -0.006935
# 5 0.000185 -0.002520 0.000285 0.000024 0.033518 -0.000031
# 6 -0.000002 0.000000 0.000034 -0.006935 -0.000031 0.042547
#
#
# Mechanical properties :
#
#
# Convention : Reuss Voigt Hill
#
# Bulk Modulus (GPa) = 54.08409 55.29408 54.68908
# Shear Modulus (GPa) = 32.21252 34.41040 33.31146
#
# Velocity S-wave (km/s) = 3.94298 4.07528 4.00968
# Velocity P-wave (km/s) = 6.84344 6.98792 6.91606
#
# Compressibility (1/GPa) = 0.01848973
#
# Stress axis : x y z
#
# Youngs Moduli (GPa) = 109.51066 85.57744 100.56740
#
# Poissons Ratio (x) = 0.17335 0.21726
# Poissons Ratio (y) = 0.22183 0.19604
# Poissons Ratio (z) = 0.23658 0.16682
#
# Static dielectric constant tensor:
#      x y z
#    x 1.691080 0.000060 -0.014790 
#    y 0.000060 1.794110 0.000050 
#    z -0.014790 0.000050 1.755460 
# 
# From -- ./inp_files/316256.got.cif
#   From: 2010.05.17/outbox.cif.g08.bks.cpg/sg15_159_cif.got.tgz:316256.got - 2010.06.03 18:47:42.
