data_PCOD9299005
_publ_section_title
;
Structure prediction by ZEFSAII (Michael W. Deem and Ramdas Pophale) SiO2 
 PCOD9299005
Probable space group: C 2/C
;
_chemical_formula_sum "Si O2"
_cell_formula_units_Z 32
_cell_length_a 24.002901
_cell_length_b 5.180522
_cell_length_c 11.820527
_cell_angle_alpha 90.000000
_cell_angle_beta 128.586077
_cell_angle_gamma 90.000000
_cell_volume 1148.943522
_symmetry_space_group_name_H-M "C 2/C"
_symmetry_group_IT_number 15
_symmetry_cell_setting 'monoclinic'
loop_
_space_group_symop_operation_xyz
x,y,z
-x,y,1/2-z
-x,-y,-z
x,-y,1/2+z
1/2+x,1/2+y,z
1/2-x,1/2+y,1/2-z
1/2-x,1/2-y,-z
1/2+x,1/2-y,1/2+z
loop_
_atom_site_type_symbol
_atom_site_label
_atom_site_fract_x
_atom_site_fract_y
_atom_site_fract_z
Si Si1 0.776232 0.965182 0.226975
Si Si2 0.647766 0.955891 0.431775
Si Si3 0.474276 0.112538 0.088753
Si Si4 0.594803 0.543881 0.738212
O O1 0.746485 0.173144 0.277506
O O2 0.860601 0.001894 0.318927
O O3 0.731530 0.044676 0.059761
O O4 0.617609 0.686443 0.348750
O O5 0.607732 0.040262 0.497202
O O6 0.627755 0.185575 0.321818
O O7 0.500000 0.023433 0.250000
O O8 0.510677 0.397178 0.130857
O O9 0.500000 0.000000 0.000000
#
# Coordination Sequence:
#
# PCOD9299005 Si02
#       4
#     8   8   8   8
#     4  12  24  42  70 108 148 198 253 318 387 462
#     4  11  24  45  70 105 147 201 255 318 384 458
#     4  10  24  46  73 108 149 198 253 310 374 450
#     4  11  24  45  71 105 150 201 254 318 385 458
#
# _framework density 27.851673000000002
#
# number of rings (size 3 to 8) (size 9 to 14) (size 15 to 20)
#    0.000    1.000    0.000    6.000    0.000   11.000 
#    0.000   16.250    0.000    0.000    0.000    0.000 
#    0.000    0.000    0.000    0.000    0.000    0.000 
#
# Total GULP energy -89408.679079 kJ/mol
# GULP energy per Si atom -5588.042442 kJ/mol
# Density = 2.778828 g / cm^3
# Si number density = 27.851673 Si / 1000 Ang^3
#
#
#
# Elastic Constant Matrix: (Units=GPa)
#
#
# Indices 1 2 3 4 5 6 
#
# 1 186.2406 39.6371 16.9718 0.0000 -13.0144 0.0000
# 2 39.6371 124.4434 54.2124 0.0000 4.3456 0.0000
# 3 16.9718 54.2124 107.0754 0.0000 -5.4234 0.0000
# 4 0.0000 0.0000 0.0000 77.2385 0.0000 -11.0935
# 5 -13.0144 4.3456 -5.4234 0.0000 56.5905 0.0000
# 6 0.0000 0.0000 0.0000 -11.0935 0.0000 43.7646
#
#
#
# Elastic Compliance Matrix: (Units=1/GPa)
#
#
# Indices 1 2 3 4 5 6 
#
# 1 0.005886 -0.001995 0.000154 0.000000 0.001522 0.000000
# 2 -0.001995 0.011082 -0.005387 0.000000 -0.001826 0.000000
# 3 0.000154 -0.005387 0.012124 0.000000 0.001611 0.000000
# 4 0.000000 0.000000 0.000000 0.013436 0.000000 0.003406
# 5 0.001522 -0.001826 0.001611 0.000000 0.018315 0.000000
# 6 0.000000 0.000000 0.000000 0.003406 0.000000 0.023713
#
#
# Mechanical properties :
#
#
# Convention : Reuss Voigt Hill
#
# Bulk Modulus (GPa) = 68.32446 71.04466 69.68456
# Shear Modulus (GPa) = 48.12748 55.98128 52.05438
#
# Velocity S-wave (km/s) = 4.16142 4.48814 4.32787
# Velocity P-wave (km/s) = 6.90469 7.24027 7.07447
#
# Compressibility (1/GPa) = 0.01463605
#
# Stress axis : x y z
#
# Youngs Moduli (GPa) = 169.88561 90.23781 82.48247
#
# Poissons Ratio (x) = 0.18004 -0.01272
# Poissons Ratio (y) = 0.33896 0.44433
# Poissons Ratio (z) = -0.02620 0.48611
#
# Static dielectric constant tensor:
#      x y z
#    x 2.312700 0.000000 0.050690 
#    y 0.000000 2.092170 0.000000 
#    z 0.050690 0.000000 2.233110 
# 
# From -- ./inp_files/115488.got.cif
#   From: 2010.05.17/outbox.cif.g08.bks.cpg/sg15_58_cif.got.tgz:115488.got - 2010.06.03 18:47:42.
