data_PCOD9299441
_publ_section_title
;
Structure prediction by ZEFSAII (Michael W. Deem and Ramdas Pophale) SiO2 
 PCOD9299441
Probable space group: C 2/C
;
_chemical_formula_sum "Si O2"
_cell_formula_units_Z 52
_cell_length_a 14.097354
_cell_length_b 20.203809
_cell_length_c 9.011282
_cell_angle_alpha 90.000000
_cell_angle_beta 103.776464
_cell_angle_gamma 90.000000
_cell_volume 2492.760219
_symmetry_space_group_name_H-M "C 2/C"
_symmetry_group_IT_number 15
_symmetry_cell_setting 'monoclinic'
loop_
_space_group_symop_operation_xyz
x,y,z
-x,y,1/2-z
-x,-y,-z
x,-y,1/2+z
1/2+x,1/2+y,z
1/2-x,1/2+y,1/2-z
1/2-x,1/2-y,-z
1/2+x,1/2-y,1/2+z
loop_
_atom_site_type_symbol
_atom_site_label
_atom_site_fract_x
_atom_site_fract_y
_atom_site_fract_z
Si Si1 0.000000 0.222510 0.250000
Si Si2 0.366031 0.206242 0.451945
Si Si3 0.253298 0.833926 0.161361
Si Si4 0.120492 0.182187 0.026564
Si Si5 0.500000 0.530274 0.250000
Si Si6 0.663300 0.165166 0.491411
Si Si7 0.000000 0.355693 0.750000
Si Si8 0.557636 0.412392 0.073258
O O1 0.061341 0.260945 0.399339
O O2 0.082834 0.187161 0.181745
O O3 0.307747 0.152658 0.527274
O O4 0.286687 0.258667 0.363265
O O5 0.429758 0.181778 0.340083
O O6 0.321816 0.843441 0.327806
O O7 0.154994 0.873892 0.144836
O O8 0.127060 0.257473 0.964345
O O9 0.230536 0.157099 0.043993
O O10 0.038446 0.132788 0.928344
O O11 0.559476 0.480013 0.166795
O O12 0.555310 0.572121 0.395878
O O13 0.583067 0.116647 0.390983
#
# Coordination Sequence:
#
# PCOD9299441 Si02
#       8
#     4   8   8   8   4   8   4   8
#     4  12  19  36  50  82 123 165 192 239 268 366
#     4  11  22  32  52  85 117 164 198 228 280 381
#     4  11  22  35  57  82 118 156 206 236 299 360
#     4  11  21  33  59  80 120 166 201 235 302 354
#     4  10  25  39  58  88 116 160 222 246 294 360
#     4  11  23  35  51  86 118 164 211 231 286 388
#     4  12  22  35  48  70 127 159 188 247 270 320
#     4  11  22  41  62  85 125 163 196 259 302 343
#
# _framework density 20.860410999999999
#
# number of rings (size 3 to 8) (size 9 to 14) (size 15 to 20)
#    0.000    0.923    4.615    3.231    2.154    1.231 
#    0.000    0.000    0.000    0.000    0.000    0.000 
#    0.000  103.385    0.000    0.000    0.000    0.000 
#
# Total GULP energy -145013.495624 kJ/mol
# GULP energy per Si atom -5577.442139 kJ/mol
# Density = 2.081293 g / cm^3
# Si number density = 20.860411 Si / 1000 Ang^3
#
#
#
# Elastic Constant Matrix: (Units=GPa)
#
#
# Indices 1 2 3 4 5 6 
#
# 1 116.6112 11.6510 39.3088 0.0000 -5.7266 0.0000
# 2 11.6510 24.6181 9.6183 0.0000 8.2104 0.0000
# 3 39.3088 9.6183 131.6768 0.0000 1.1860 0.0000
# 4 0.0000 0.0000 0.0000 14.4165 0.0000 -7.7159
# 5 -5.7266 8.2104 1.1860 0.0000 56.7007 0.0000
# 6 0.0000 0.0000 0.0000 -7.7159 0.0000 0.9688
#
#
#
# Elastic Compliance Matrix: (Units=1/GPa)
#
#
# Indices 1 2 3 4 5 6 
#
# 1 0.009987 -0.004236 -0.002687 0.000000 0.001678 0.000000
# 2 -0.004236 0.045751 -0.002014 0.000000 -0.007011 0.000000
# 3 -0.002687 -0.002014 0.008545 0.000000 -0.000158 0.000000
# 4 0.000000 0.000000 0.000000 -0.021261 0.000000 -0.169328
# 5 0.001678 -0.007011 -0.000158 0.000000 0.018824 0.000000
# 6 0.000000 0.000000 0.000000 -0.169328 0.000000 -0.316375
#
#
# Mechanical properties :
#
#
# Convention : Reuss Voigt Hill
#
# Bulk Modulus (GPa) = 21.54823 43.78472 32.66647
# Shear Modulus (GPa) = -22.60548 28.57241 2.98346
#
# Velocity S-wave (km/s) = -3.29546 3.70495 1.19721
# Velocity P-wave (km/s) = 2.03173 6.27194 4.19579
#
# Compressibility (1/GPa) = 0.04640753
#
# Stress axis : x y z
#
# Youngs Moduli (GPa) = 100.13036 21.85768 117.02703
#
# Poissons Ratio (x) = 0.09260 0.31445
# Poissons Ratio (y) = 0.42420 0.23569
# Poissons Ratio (z) = 0.26905 0.04402
#
# Static dielectric constant tensor:
#      x y z
#    x 1.785190 0.000000 0.013910 
#    y 0.000000 1.784420 0.000000 
#    z 0.013910 0.000000 1.822690 
# 
# From -- ./inp_files/40911.got.cif
#   From: 2010.05.17/outbox.cif.g08.bks.cpg/sg15_21_cif.got.tgz:40911.got - 2010.06.03 18:47:42.
