data_PCOD9299380
_publ_section_title
;
Structure prediction by ZEFSAII (Michael W. Deem and Ramdas Pophale) SiO2 
 PCOD9299380
Probable space group: C 2/C
;
_chemical_formula_sum "Si O2"
_cell_formula_units_Z 32
_cell_length_a 10.282584
_cell_length_b 13.229408
_cell_length_c 8.069651
_cell_angle_alpha 90.000000
_cell_angle_beta 82.055453
_cell_angle_gamma 90.000000
_cell_volume 1087.199065
_symmetry_space_group_name_H-M "C 2/C"
_symmetry_group_IT_number 15
_symmetry_cell_setting 'monoclinic'
loop_
_space_group_symop_operation_xyz
x,y,z
-x,y,1/2-z
-x,-y,-z
x,-y,1/2+z
1/2+x,1/2+y,z
1/2-x,1/2+y,1/2-z
1/2-x,1/2-y,-z
1/2+x,1/2-y,1/2+z
loop_
_atom_site_type_symbol
_atom_site_label
_atom_site_fract_x
_atom_site_fract_y
_atom_site_fract_z
Si Si1 0.321658 0.068812 0.063137
Si Si2 0.371450 0.702305 0.072813
Si Si3 0.500000 0.201369 0.250000
Si Si4 0.362406 0.532064 0.682179
Si Si5 0.000000 0.640158 0.750000
O O1 0.442322 0.074197 0.910933
O O2 0.195721 0.092341 0.965814
O O3 0.377522 0.133067 0.208836
O O4 0.259145 0.970876 0.164875
O O5 0.376692 0.585724 0.121850
O O6 0.390280 0.776901 0.223065
O O7 0.250000 0.750000 0.000000
O O8 0.479230 0.732382 0.916709
O O9 0.500000 0.552222 0.750000
#
# Coordination Sequence:
#
# PCOD9299380 Si02
#       5
#     8   8   4   8   4
#     4  11  27  48  75 111 149 195 252 307 379 439
#     4  11  23  47  74 109 145 192 251 305 371 440
#     4  10  24  49  82 107 144 198 254 314 363 446
#     4  12  27  49  73 113 155 198 245 308 380 451
#     4  10  26  49  80 105 146 198 258 312 359 448
#
# _framework density 29.433430999999999
#
# number of rings (size 3 to 8) (size 9 to 14) (size 15 to 20)
#    0.000    1.000    3.750    0.750    3.500    6.000 
#    2.250    0.000    0.000    0.000    0.000    0.000 
#    0.000    0.000    0.000    0.000    0.000    0.000 
#
# Total GULP energy -89411.550468 kJ/mol
# GULP energy per Si atom -5588.221904 kJ/mol
# Density = 2.936644 g / cm^3
# Si number density = 29.433431 Si / 1000 Ang^3
#
#
#
# Elastic Constant Matrix: (Units=GPa)
#
#
# Indices 1 2 3 4 5 6 
#
# 1 158.8901 68.9400 39.5016 0.0000 54.6898 0.0000
# 2 68.9400 158.1074 59.1263 0.0000 37.1761 0.0000
# 3 39.5016 59.1263 153.4248 0.0000 26.2015 0.0000
# 4 0.0000 0.0000 0.0000 67.0345 0.0000 11.2853
# 5 54.6898 37.1761 26.2015 0.0000 84.5793 0.0000
# 6 0.0000 0.0000 0.0000 11.2853 0.0000 26.4720
#
#
#
# Elastic Compliance Matrix: (Units=1/GPa)
#
#
# Indices 1 2 3 4 5 6 
#
# 1 0.009185 -0.002731 -0.000531 0.000000 -0.004574 0.000000
# 2 -0.002731 0.008738 -0.002439 0.000000 -0.001319 0.000000
# 3 -0.000531 -0.002439 0.007764 0.000000 -0.000989 0.000000
# 4 0.000000 0.000000 0.000000 0.016071 0.000000 -0.006851
# 5 -0.004574 -0.001319 -0.000989 0.000000 0.015667 0.000000
# 6 0.000000 0.000000 0.000000 -0.006851 0.000000 0.040697
#
#
# Mechanical properties :
#
#
# Convention : Reuss Voigt Hill
#
# Bulk Modulus (GPa) = 70.00637 89.50646 79.75642
# Shear Modulus (GPa) = 43.75031 55.80744 49.77887
#
# Velocity S-wave (km/s) = 3.85959 4.35910 4.11693
# Velocity P-wave (km/s) = 6.61046 7.47071 7.05371
#
# Compressibility (1/GPa) = 0.01428441
#
# Stress axis : x y z
#
# Youngs Moduli (GPa) = 108.87280 114.44524 128.80729
#
# Poissons Ratio (x) = 0.31252 0.06843
# Poissons Ratio (y) = 0.29730 0.31416
# Poissons Ratio (z) = 0.05784 0.27913
#
# Static dielectric constant tensor:
#      x y z
#    x 2.611310 0.000000 -0.167950 
#    y 0.000000 2.242710 0.000000 
#    z -0.167950 0.000000 2.384160 
# 
# From -- ./inp_files/27680.got.cif
#   From: 2010.05.17/outbox.cif.g08.bks.cpg/sg15_14_cif.got.tgz:27680.got - 2010.06.03 18:47:42.
