data_PCOD9299809
_publ_section_title
;
Structure prediction by ZEFSAII (Michael W. Deem and Ramdas Pophale) SiO2 
 PCOD9299809
Probable space group: C 2/C
;
_chemical_formula_sum "Si O2"
_cell_formula_units_Z 20
_cell_length_a 7.742802
_cell_length_b 18.835109
_cell_length_c 5.002423
_cell_angle_alpha 90.000000
_cell_angle_beta 84.526155
_cell_angle_gamma 90.000000
_cell_volume 726.209165
_symmetry_space_group_name_H-M "C 2/C"
_symmetry_group_IT_number 15
_symmetry_cell_setting 'monoclinic'
loop_
_space_group_symop_operation_xyz
x,y,z
-x,y,1/2-z
-x,-y,-z
x,-y,1/2+z
1/2+x,1/2+y,z
1/2-x,1/2+y,1/2-z
1/2-x,1/2-y,-z
1/2+x,1/2-y,1/2+z
loop_
_atom_site_type_symbol
_atom_site_label
_atom_site_fract_x
_atom_site_fract_y
_atom_site_fract_z
Si Si1 0.795452 0.951418 0.789041
Si Si2 0.646377 0.843371 0.410359
Si Si3 0.000000 0.784872 0.250000
O O1 0.693718 0.886389 0.670850
O O2 0.000000 0.933664 0.750000
O O3 0.762578 0.015442 0.582770
O O4 0.500000 0.878044 0.250000
O O5 0.827560 0.830687 0.226842
O O6 0.563257 0.768062 0.509412
#
# Coordination Sequence:
#
# PCOD9299809 Si02
#       3
#     8   8   4
#     4  10  25  46  74 108 148 194 242 307 373 434
#     4  11  25  45  77 105 149 190 252 300 368 440
#     4  10  26  46  68 112 148 194 240 308 370 432
#
# _framework density 27.540275999999999
#
# number of rings (size 3 to 8) (size 9 to 14) (size 15 to 20)
#    0.000    1.600    0.000    1.200   14.000    8.000 
#    0.000    0.000    0.000    0.000    0.000    0.000 
#    0.000    0.000    0.000    0.000    0.000    0.000 
#
# Total GULP energy -56114.463269 kJ/mol
# GULP energy per Si atom -5611.446327 kJ/mol
# Density = 2.747759 g / cm^3
# Si number density = 27.540276 Si / 1000 Ang^3
#
#
#
# Elastic Constant Matrix: (Units=GPa)
#
#
# Indices 1 2 3 4 5 6 
#
# 1 248.8162 72.6415 84.9867 0.0000 23.7527 0.0000
# 2 72.6415 105.1518 32.5311 0.0000 19.8769 0.0000
# 3 84.9867 32.5311 117.1448 0.0000 39.7935 0.0000
# 4 0.0000 0.0000 0.0000 25.7641 0.0000 -20.0123
# 5 23.7527 19.8769 39.7935 0.0000 58.1784 0.0000
# 6 0.0000 0.0000 0.0000 -20.0123 0.0000 26.6762
#
#
#
# Elastic Compliance Matrix: (Units=1/GPa)
#
#
# Indices 1 2 3 4 5 6 
#
# 1 0.006249 -0.003314 -0.004079 0.000000 0.001371 0.000000
# 2 -0.003314 0.012354 -0.000068 0.000000 -0.002821 0.000000
# 3 -0.004079 -0.000068 0.014252 0.000000 -0.008060 0.000000
# 4 0.000000 0.000000 0.000000 0.093015 0.000000 0.069779
# 5 0.001371 -0.002821 -0.008060 0.000000 0.023106 0.000000
# 6 0.000000 0.000000 0.000000 0.069779 0.000000 0.089834
#
#
# Mechanical properties :
#
#
# Convention : Reuss Voigt Hill
#
# Bulk Modulus (GPa) = 55.76223 94.60349 75.18286
# Shear Modulus (GPa) = 19.25226 40.85397 30.05311
#
# Velocity S-wave (km/s) = 2.64684 3.85571 3.30698
# Velocity P-wave (km/s) = 5.44357 7.36529 6.47611
#
# Compressibility (1/GPa) = 0.01793329
#
# Stress axis : x y z
#
# Youngs Moduli (GPa) = 160.02784 80.94614 70.16367
#
# Poissons Ratio (x) = 0.26827 0.28619
# Poissons Ratio (y) = 0.53036 0.00477
# Poissons Ratio (z) = 0.65273 0.00550
#
# Static dielectric constant tensor:
#      x y z
#    x 2.116950 0.000000 -0.070270 
#    y 0.000000 2.163120 0.000000 
#    z -0.070270 0.000000 2.144810 
# 
# From -- ./inp_files/1017.got.cif
#   From: 2010.05.17/outbox.cif.g08.bks.cpg/sg15_1_cif.got.tgz:1017.got - 2010.06.03 18:47:42.
