data_PCOD9299191
_publ_section_title
;
Structure prediction by ZEFSAII (Michael W. Deem and Ramdas Pophale) SiO2 
 PCOD9299191
Probable space group: C 2/C
;
_chemical_formula_sum "Si O2"
_cell_formula_units_Z 64
_cell_length_a 10.450011
_cell_length_b 27.421904
_cell_length_c 14.339967
_cell_angle_alpha 90.000000
_cell_angle_beta 134.895174
_cell_angle_gamma 90.000000
_cell_volume 2910.989394
_symmetry_space_group_name_H-M "C 2/C"
_symmetry_group_IT_number 15
_symmetry_cell_setting 'monoclinic'
loop_
_space_group_symop_operation_xyz
x,y,z
-x,y,1/2-z
-x,-y,-z
x,-y,1/2+z
1/2+x,1/2+y,z
1/2-x,1/2+y,1/2-z
1/2-x,1/2-y,-z
1/2+x,1/2-y,1/2+z
loop_
_atom_site_type_symbol
_atom_site_label
_atom_site_fract_x
_atom_site_fract_y
_atom_site_fract_z
Si Si1 0.215667 0.489066 0.374226
Si Si2 0.690993 0.319579 0.392213
Si Si3 0.479605 0.900201 0.492240
Si Si4 0.285235 0.793963 0.642571
Si Si5 0.515723 0.662485 0.148534
Si Si6 0.707597 0.437895 0.745670
Si Si7 0.806911 0.977645 0.125150
Si Si8 0.824082 0.621000 0.599560
O O1 0.306250 0.521354 0.340527
O O2 0.273422 0.514850 0.499503
O O3 0.246960 0.430585 0.393405
O O4 0.000000 0.493614 0.250000
O O5 0.500000 0.334158 0.250000
O O6 0.848687 0.354991 0.440619
O O7 0.728228 0.264197 0.378997
O O8 0.692054 0.319107 0.505119
O O9 0.598605 0.911492 0.644999
O O10 0.353536 0.946998 0.411984
O O11 0.603992 0.890834 0.467303
O O12 0.500000 0.805681 0.750000
O O13 0.176287 0.809449 0.678366
O O14 0.500000 0.676006 0.250000
O O15 0.567127 0.605329 0.170640
O O16 0.328281 0.662214 0.994103
O O17 0.694473 0.468997 0.832243
O O18 0.000000 0.955068 0.250000
O O19 0.000000 0.635960 0.750000
#
# Coordination Sequence:
#
# PCOD9299191 Si02
#       8
#     8   8   8   8   8   8   8   8
#     4  11  22  39  62  90 131 191 237 282 348 415
#     4  10  24  47  75 105 141 180 232 304 365 434
#     4  12  23  42  67  96 139 187 229 297 358 421
#     4  10  24  48  78 108 142 181 237 297 367 440
#     4  12  25  45  74 107 142 189 239 294 359 436
#     4  12  24  41  67  94 142 186 241 290 356 417
#     4  12  24  39  60  96 135 181 243 297 340 414
#     4  11  25  42  64  97 147 188 231 293 359 415
#
# _framework density 21.985651000000001
#
# number of rings (size 3 to 8) (size 9 to 14) (size 15 to 20)
#    0.000    0.750    3.750    4.125    3.500    3.500 
#    0.000    1.250    0.000    0.000    0.000    0.000 
#    0.000    0.000    0.000    0.000    0.000    0.000 
#
# Total GULP energy -179000.389755 kJ/mol
# GULP energy per Si atom -5593.762180 kJ/mol
# Density = 2.193561 g / cm^3
# Si number density = 21.985651 Si / 1000 Ang^3
#
#
#
# Elastic Constant Matrix: (Units=GPa)
#
#
# Indices 1 2 3 4 5 6 
#
# 1 109.9796 32.6677 41.6277 0.0000 -9.2774 0.0000
# 2 32.6677 43.3963 21.9722 0.0000 -2.1935 0.0000
# 3 41.6277 21.9722 128.5629 0.0000 -0.2680 0.0000
# 4 0.0000 0.0000 0.0000 13.3086 0.0000 10.3953
# 5 -9.2774 -2.1935 -0.2680 0.0000 36.7189 0.0000
# 6 0.0000 0.0000 0.0000 10.3953 0.0000 21.0715
#
#
#
# Elastic Compliance Matrix: (Units=1/GPa)
#
#
# Indices 1 2 3 4 5 6 
#
# 1 0.012761 -0.008078 -0.002746 0.000000 0.002722 0.000000
# 2 -0.008078 0.030421 -0.002584 0.000000 -0.000243 0.000000
# 3 -0.002746 -0.002584 0.009107 0.000000 -0.000782 0.000000
# 4 0.000000 0.000000 0.000000 0.122247 0.000000 -0.060309
# 5 0.002722 -0.000243 -0.000782 0.000000 0.027901 0.000000
# 6 0.000000 0.000000 0.000000 -0.060309 0.000000 0.077210
#
#
# Mechanical properties :
#
#
# Convention : Reuss Voigt Hill
#
# Bulk Modulus (GPa) = 39.25702 52.71934 45.98818
# Shear Modulus (GPa) = 15.87535 26.59788 21.23662
#
# Velocity S-wave (km/s) = 2.69007 3.48197 3.11131
# Velocity P-wave (km/s) = 5.24815 6.34007 5.81978
#
# Compressibility (1/GPa) = 0.02547315
#
# Stress axis : x y z
#
# Youngs Moduli (GPa) = 78.36404 32.87234 109.80261
#
# Poissons Ratio (x) = 0.26556 0.30147
# Poissons Ratio (y) = 0.63306 0.28371
# Poissons Ratio (z) = 0.21515 0.08494
#
# Static dielectric constant tensor:
#      x y z
#    x 1.833750 0.000000 0.052010 
#    y 0.000000 1.769990 0.000000 
#    z 0.052010 0.000000 1.930120 
# 
# From -- ./inp_files/148781.got.cif
#   From: 2010.05.17/outbox.cif.g08.bks.cpg/sg15_75_cif.got.tgz:148781.got - 2010.06.03 18:47:42.
