data_PCOD9299201
_publ_section_title
;
Structure prediction by ZEFSAII (Michael W. Deem and Ramdas Pophale) SiO2 
 PCOD9299201
Probable space group: C 2/C
;
_chemical_formula_sum "Si O2"
_cell_formula_units_Z 40
_cell_length_a 5.208837
_cell_length_b 21.846973
_cell_length_c 13.966419
_cell_angle_alpha 90.000000
_cell_angle_beta 79.331682
_cell_angle_gamma 90.000000
_cell_volume 1561.869805
_symmetry_space_group_name_H-M "C 2/C"
_symmetry_group_IT_number 15
_symmetry_cell_setting 'monoclinic'
loop_
_space_group_symop_operation_xyz
x,y,z
-x,y,1/2-z
-x,-y,-z
x,-y,1/2+z
1/2+x,1/2+y,z
1/2-x,1/2+y,1/2-z
1/2-x,1/2-y,-z
1/2+x,1/2-y,1/2+z
loop_
_atom_site_type_symbol
_atom_site_label
_atom_site_fract_x
_atom_site_fract_y
_atom_site_fract_z
Si Si1 0.000000 0.438194 0.250000
Si Si2 0.146797 0.035324 0.325552
Si Si3 0.162668 0.882355 0.513558
Si Si4 0.713450 0.862500 0.399874
Si Si5 0.000000 0.356175 0.750000
Si Si6 0.599110 0.724539 0.353585
O O1 0.132903 0.486011 0.165715
O O2 0.820245 0.393728 0.200345
O O3 0.968119 0.061005 0.421209
O O4 0.267443 0.094699 0.262318
O O5 0.000000 0.002289 0.250000
O O6 0.992922 0.874381 0.428526
O O7 0.094884 0.820154 0.576499
O O8 0.471892 0.888249 0.480126
O O9 0.646381 0.790938 0.392944
O O10 0.879194 0.310288 0.835536
O O11 0.500000 0.728679 0.250000
#
# Coordination Sequence:
#
# PCOD9299201 Si02
#       6
#     4   8   8   8   4   8
#     4  11  28  48  74 100 148 199 242 294 374 429
#     4  10  24  47  77 100 141 194 253 300 353 434
#     4  11  27  45  74 106 145 188 248 299 356 422
#     4  12  28  47  68 111 151 189 234 304 366 433
#     4   9  20  38  72 102 132 187 238 290 344 429
#     4  11  24  42  74 104 151 194 233 290 367 441
#
# _framework density 25.610330000000001
#
# number of rings (size 3 to 8) (size 9 to 14) (size 15 to 20)
#    0.000    1.200    1.000    3.600   19.600    1.600 
#    0.000    0.000    0.000    0.000    0.000    0.000 
#    0.000    0.000    0.000    0.000    0.000    0.000 
#
# Total GULP energy -111839.824352 kJ/mol
# GULP energy per Si atom -5591.991218 kJ/mol
# Density = 2.555204 g / cm^3
# Si number density = 25.610330 Si / 1000 Ang^3
#
#
#
# Elastic Constant Matrix: (Units=GPa)
#
#
# Indices 1 2 3 4 5 6 
#
# 1 82.0695 4.2011 9.8785 0.0000 -8.8841 0.0000
# 2 4.2011 110.1211 13.9015 0.0000 -11.7993 0.0000
# 3 9.8785 13.9015 77.2311 0.0000 13.8307 0.0000
# 4 0.0000 0.0000 0.0000 33.2093 0.0000 -2.2829
# 5 -8.8841 -11.7993 13.8307 0.0000 49.8467 0.0000
# 6 0.0000 0.0000 0.0000 -2.2829 0.0000 9.9767
#
#
#
# Elastic Compliance Matrix: (Units=1/GPa)
#
#
# Indices 1 2 3 4 5 6 
#
# 1 0.012754 0.000098 -0.002168 0.000000 0.002898 0.000000
# 2 0.000098 0.009680 -0.002282 0.000000 0.002942 0.000000
# 3 -0.002168 -0.002282 0.014524 0.000000 -0.004956 0.000000
# 4 0.000000 0.000000 0.000000 0.030593 0.000000 0.007001
# 5 0.002898 0.002942 -0.004956 0.000000 0.022650 0.000000
# 6 0.000000 0.000000 0.000000 0.007001 0.000000 0.101836
#
#
# Mechanical properties :
#
#
# Convention : Reuss Voigt Hill
#
# Bulk Modulus (GPa) = 35.39272 36.15377 35.77324
# Shear Modulus (GPa) = 23.79143 34.70258 29.24701
#
# Velocity S-wave (km/s) = 3.05122 3.68506 3.38302
# Velocity P-wave (km/s) = 5.12474 5.67923 5.40910
#
# Compressibility (1/GPa) = 0.02825440
#
# Stress axis : x y z
#
# Youngs Moduli (GPa) = 78.40415 103.30076 68.85268
#
# Poissons Ratio (x) = -0.01008 0.14927
# Poissons Ratio (y) = -0.00765 0.15711
# Poissons Ratio (z) = 0.16997 0.23571
#
# Static dielectric constant tensor:
#      x y z
#    x 2.132920 0.000000 -0.005900 
#    y 0.000000 1.944580 0.000000 
#    z -0.005900 0.000000 2.074790 
# 
# From -- ./inp_files/129145.got.cif
#   From: 2010.05.17/outbox.cif.g08.bks.cpg/sg15_65_cif.got.tgz:129145.got - 2010.06.03 18:47:42.
