data_PCOD9299184
_publ_section_title
;
Structure prediction by ZEFSAII (Michael W. Deem and Ramdas Pophale) SiO2 
 PCOD9299184
Probable space group: C 2/C
;
_chemical_formula_sum "Si O2"
_cell_formula_units_Z 40
_cell_length_a 15.341988
_cell_length_b 23.018556
_cell_length_c 8.096182
_cell_angle_alpha 90.000000
_cell_angle_beta 34.225758
_cell_angle_gamma 90.000000
_cell_volume 1608.154872
_symmetry_space_group_name_H-M "C 2/C"
_symmetry_group_IT_number 15
_symmetry_cell_setting 'monoclinic'
loop_
_space_group_symop_operation_xyz
x,y,z
-x,y,1/2-z
-x,-y,-z
x,-y,1/2+z
1/2+x,1/2+y,z
1/2-x,1/2+y,1/2-z
1/2-x,1/2-y,-z
1/2+x,1/2-y,1/2+z
loop_
_atom_site_type_symbol
_atom_site_label
_atom_site_fract_x
_atom_site_fract_y
_atom_site_fract_z
Si Si1 0.206562 0.281800 0.810522
Si Si2 0.610133 0.816742 0.310852
Si Si3 0.500000 0.651849 0.750000
Si Si4 0.322149 0.009566 0.326747
Si Si5 0.386698 0.554160 0.140975
Si Si6 0.000000 0.592030 0.250000
O O1 0.263984 0.220263 0.787472
O O2 0.343976 0.310555 0.491593
O O3 0.173900 0.322656 0.023835
O O4 0.044564 0.277879 0.971526
O O5 0.547517 0.869347 0.518586
O O6 0.518875 0.610731 0.558768
O O7 0.219972 0.041438 0.351340
O O8 0.351496 0.052781 0.434922
O O9 0.233683 0.951323 0.520126
O O10 0.500000 0.000000 0.000000
O O11 0.500000 0.500000 0.000000
#
# Coordination Sequence:
#
# PCOD9299184 Si02
#       6
#     8   8   4   8   8   4
#     4  10  24  47  74 108 141 189 231 305 362 441
#     4  10  24  47  75 106 145 180 246 294 368 436
#     4  12  25  40  74 102 146 190 237 292 368 422
#     4  12  25  45  68  97 139 188 245 295 347 416
#     4  12  25  46  65  99 142 188 238 298 350 417
#     4  12  25  42  74 108 136 188 243 296 354 428
#
# _framework density 24.873227
#
# number of rings (size 3 to 8) (size 9 to 14) (size 15 to 20)
#    0.000    0.800    4.000    1.800    2.800    4.800 
#    0.000    0.000    4.400    0.000    0.000    0.000 
#    0.000    0.000    0.000    0.000    0.000    0.000 
#
# Total GULP energy -111924.040480 kJ/mol
# GULP energy per Si atom -5596.202024 kJ/mol
# Density = 2.481661 g / cm^3
# Si number density = 24.873227 Si / 1000 Ang^3
#
#
#
# Elastic Constant Matrix: (Units=GPa)
#
#
# Indices 1 2 3 4 5 6 
#
# 1 96.4904 -7.9500 1.8461 0.0000 -24.5736 0.0000
# 2 -7.9500 28.1395 12.2374 0.0000 6.0501 0.0000
# 3 1.8461 12.2374 163.9085 0.0000 -1.3087 0.0000
# 4 0.0000 0.0000 0.0000 56.1788 0.0000 7.0683
# 5 -24.5736 6.0501 -1.3087 0.0000 43.3196 0.0000
# 6 0.0000 0.0000 0.0000 7.0683 0.0000 32.4557
#
#
#
# Elastic Compliance Matrix: (Units=1/GPa)
#
#
# Indices 1 2 3 4 5 6 
#
# 1 0.012234 0.002136 -0.000244 0.000000 0.006634 0.000000
# 2 0.002136 0.038319 -0.002919 0.000000 -0.004228 0.000000
# 3 -0.000244 -0.002919 0.006325 0.000000 0.000460 0.000000
# 4 0.000000 0.000000 0.000000 0.018302 0.000000 -0.003986
# 5 0.006634 -0.004228 0.000460 0.000000 0.027452 0.000000
# 6 0.000000 0.000000 0.000000 -0.003986 0.000000 0.031679
#
#
# Mechanical properties :
#
#
# Convention : Reuss Voigt Hill
#
# Bulk Modulus (GPa) = 18.23991 33.42283 25.83137
# Shear Modulus (GPa) = 32.33319 45.21784 38.77552
#
# Velocity S-wave (km/s) = 3.60935 4.26835 3.95261
# Velocity P-wave (km/s) = 4.97182 6.14477 5.58915
#
# Compressibility (1/GPa) = 0.05482482
#
# Stress axis : x y z
#
# Youngs Moduli (GPa) = 81.73974 26.09661 158.09523
#
# Poissons Ratio (x) = -0.05575 0.03863
# Poissons Ratio (y) = -0.17462 0.46144
# Poissons Ratio (z) = 0.01997 0.07617
#
# Static dielectric constant tensor:
#      x y z
#    x 1.930470 0.000000 0.087520 
#    y 0.000000 2.015240 0.000000 
#    z 0.087520 0.000000 2.059510 
# 
# From -- ./inp_files/51679.got.cif
#   From: 2010.05.17/outbox.cif.g08.bks.cpg/sg15_26_cif.got.tgz:51679.got - 2010.06.03 18:47:42.
