data_PCOD9299093
_publ_section_title
;
Structure prediction by ZEFSAII (Michael W. Deem and Ramdas Pophale) SiO2 
 PCOD9299093
Probable space group: C 2/C
;
_chemical_formula_sum "Si O2"
_cell_formula_units_Z 28
_cell_length_a 15.004174
_cell_length_b 12.311931
_cell_length_c 7.235245
_cell_angle_alpha 90.000000
_cell_angle_beta 129.565840
_cell_angle_gamma 90.000000
_cell_volume 1030.352165
_symmetry_space_group_name_H-M "C 2/C"
_symmetry_group_IT_number 15
_symmetry_cell_setting 'monoclinic'
loop_
_space_group_symop_operation_xyz
x,y,z
-x,y,1/2-z
-x,-y,-z
x,-y,1/2+z
1/2+x,1/2+y,z
1/2-x,1/2+y,1/2-z
1/2-x,1/2-y,-z
1/2+x,1/2-y,1/2+z
loop_
_atom_site_type_symbol
_atom_site_label
_atom_site_fract_x
_atom_site_fract_y
_atom_site_fract_z
Si Si1 0.734896 0.086791 0.695114
Si Si2 0.381609 0.395532 0.055466
Si Si3 0.000000 0.493215 0.250000
Si Si4 0.568828 0.213240 0.671810
O O1 0.617847 0.058893 0.428233
O O2 0.697528 0.158704 0.822806
O O3 0.821386 0.142146 0.665216
O O4 0.794655 0.976250 0.838859
O O5 0.500000 0.459566 0.250000
O O6 0.577907 0.703806 0.017108
O O7 0.997607 0.400974 0.081794
O O8 0.500000 0.269328 0.750000
#
# Coordination Sequence:
#
# PCOD9299093 Si02
#       4
#     8   8   4   8
#     4  12  25  50  78 109 147 196 246 307 361 439
#     4  12  28  47  74 111 152 194 241 301 374 438
#     4  10  24  46  80 104 148 186 258 300 364 416
#     4  10  25  47  77 108 147 190 249 306 360 435
#
# _framework density 27.175173999999998
#
# number of rings (size 3 to 8) (size 9 to 14) (size 15 to 20)
#    0.857    0.000    2.857    2.571    2.000    6.857 
#    0.000    0.000    0.000    0.000    0.000    0.000 
#    0.000    0.000    0.000    0.000    0.000    0.000 
#
# Total GULP energy -78140.609176 kJ/mol
# GULP energy per Si atom -5581.472084 kJ/mol
# Density = 2.711332 g / cm^3
# Si number density = 27.175174 Si / 1000 Ang^3
#
#
#
# Elastic Constant Matrix: (Units=GPa)
#
#
# Indices 1 2 3 4 5 6 
#
# 1 295.0456 62.8118 29.7592 0.0000 23.6943 0.0000
# 2 62.8118 128.5519 37.3779 0.0000 -0.7872 0.0000
# 3 29.7592 37.3779 138.9303 0.0000 25.8690 0.0000
# 4 0.0000 0.0000 0.0000 25.7264 0.0000 -0.5732
# 5 23.6943 -0.7872 25.8690 0.0000 35.9976 0.0000
# 6 0.0000 0.0000 0.0000 -0.5732 0.0000 40.5963
#
#
#
# Elastic Compliance Matrix: (Units=1/GPa)
#
#
# Indices 1 2 3 4 5 6 
#
# 1 0.004034 -0.002052 0.000220 0.000000 -0.002858 0.000000
# 2 -0.002052 0.009623 -0.002817 0.000000 0.003586 0.000000
# 3 0.000220 -0.002817 0.009175 0.000000 -0.006800 0.000000
# 4 0.000000 0.000000 0.000000 0.038883 0.000000 0.000549
# 5 -0.002858 0.003586 -0.006800 0.000000 0.034626 0.000000
# 6 0.000000 0.000000 0.000000 0.000549 0.000000 0.024641
#
#
# Mechanical properties :
#
#
# Convention : Reuss Voigt Hill
#
# Bulk Modulus (GPa) = 73.89314 91.38061 82.63688
# Shear Modulus (GPa) = 37.09492 49.30266 43.19879
#
# Velocity S-wave (km/s) = 3.69864 4.26403 3.99136
# Velocity P-wave (km/s) = 6.74465 7.61197 7.19140
#
# Compressibility (1/GPa) = 0.01353306
#
# Stress axis : x y z
#
# Youngs Moduli (GPa) = 247.92069 103.91976 108.99575
#
# Poissons Ratio (x) = 0.21329 -0.02402
# Poissons Ratio (y) = 0.50884 0.30704
# Poissons Ratio (z) = -0.05464 0.29274
#
# Static dielectric constant tensor:
#      x y z
#    x 2.529360 0.000000 -0.232760 
#    y 0.000000 2.105160 0.000000 
#    z -0.232760 0.000000 2.185110 
# 
# From -- ./inp_files/103448.got.cif
#   From: 2010.05.17/outbox.cif.g08.bks.cpg/sg15_52_cif.got.tgz:103448.got - 2010.06.03 18:47:42.
