data_PCOD9299648
_publ_section_title
;
Structure prediction by ZEFSAII (Michael W. Deem and Ramdas Pophale) SiO2 
 PCOD9299648
Probable space group: C 2/C
;
_chemical_formula_sum "Si O2"
_cell_formula_units_Z 36
_cell_length_a 17.802897
_cell_length_b 7.993318
_cell_length_c 19.244030
_cell_angle_alpha 90.000000
_cell_angle_beta 148.251562
_cell_angle_gamma 90.000000
_cell_volume 1440.976829
_symmetry_space_group_name_H-M "C 2/C"
_symmetry_group_IT_number 15
_symmetry_cell_setting 'monoclinic'
loop_
_space_group_symop_operation_xyz
x,y,z
-x,y,1/2-z
-x,-y,-z
x,-y,1/2+z
1/2+x,1/2+y,z
1/2-x,1/2+y,1/2-z
1/2-x,1/2-y,-z
1/2+x,1/2-y,1/2+z
loop_
_atom_site_type_symbol
_atom_site_label
_atom_site_fract_x
_atom_site_fract_y
_atom_site_fract_z
Si Si1 0.000000 0.366520 0.750000
Si Si2 0.282911 0.074582 0.489567
Si Si3 0.716677 0.318985 0.795552
Si Si4 0.973023 0.077875 0.639839
Si Si5 0.335433 0.546218 0.391800
O O1 0.137625 0.026098 0.887614
O O2 0.948035 0.244286 0.771856
O O3 0.250000 0.250000 0.500000
O O4 0.316190 0.098990 0.434141
O O5 0.103559 0.516120 0.374093
O O6 0.568004 0.415323 0.695599
O O7 0.733065 0.353221 0.726407
O O8 0.740974 0.122016 0.825783
O O9 0.870421 0.125048 0.493946
O O10 0.500000 0.500000 0.500000
#
# Coordination Sequence:
#
# PCOD9299648 Si02
#       5
#     4   8   8   8   8
#     4  12  28  40  76 112 144 196 236 318 372 442
#     4  12  26  45  75 110 146 190 255 308 378 435
#     4  11  24  47  75 103 153 196 244 309 369 439
#     4  11  24  47  70 110 147 189 254 304 372 442
#     4  10  25  44  71 107 151 196 245 303 367 448
#
# _framework density 24.983053999999999
#
# number of rings (size 3 to 8) (size 9 to 14) (size 15 to 20)
#    0.000    0.889    4.444    0.667    6.222    1.778 
#    0.000    4.444    0.000    0.000    0.000    0.000 
#    0.000    0.000    0.000    0.000    0.000    0.000 
#
# Total GULP energy -100443.600372 kJ/mol
# GULP energy per Si atom -5580.200021 kJ/mol
# Density = 2.492619 g / cm^3
# Si number density = 24.983054 Si / 1000 Ang^3
#
#
#
# Elastic Constant Matrix: (Units=GPa)
#
#
# Indices 1 2 3 4 5 6 
#
# 1 70.0712 21.0051 30.8603 0.0000 -41.8010 0.0000
# 2 21.0051 108.4703 85.5755 0.0000 -19.3578 0.0000
# 3 30.8603 85.5755 172.9931 0.0000 -45.1223 0.0000
# 4 0.0000 0.0000 0.0000 63.5161 0.0000 -10.0238
# 5 -41.8010 -19.3578 -45.1223 0.0000 60.8982 0.0000
# 6 0.0000 0.0000 0.0000 -10.0238 0.0000 27.2002
#
#
#
# Elastic Compliance Matrix: (Units=1/GPa)
#
#
# Indices 1 2 3 4 5 6 
#
# 1 0.024714 -0.002913 0.001507 0.000000 0.017155 0.000000
# 2 -0.002913 0.015504 -0.007916 0.000000 -0.002936 0.000000
# 3 0.001507 -0.007916 0.011207 0.000000 0.006822 0.000000
# 4 0.000000 0.000000 0.000000 0.016716 0.000000 0.006160
# 5 0.017155 -0.002936 0.006822 0.000000 0.032317 0.000000
# 6 0.000000 0.000000 0.000000 0.006160 0.000000 0.039035
#
#
# Mechanical properties :
#
#
# Convention : Reuss Voigt Hill
#
# Bulk Modulus (GPa) = 30.50548 69.60182 50.05365
# Shear Modulus (GPa) = 29.57444 44.59581 37.08513
#
# Velocity S-wave (km/s) = 3.44434 4.22956 3.85699
# Velocity P-wave (km/s) = 5.29670 7.19530 6.31773
#
# Compressibility (1/GPa) = 0.03278099
#
# Stress axis : x y z
#
# Youngs Moduli (GPa) = 40.46220 64.49848 89.23082
#
# Poissons Ratio (x) = 0.18790 -0.13445
# Poissons Ratio (y) = 0.11787 0.70634
# Poissons Ratio (z) = -0.06097 0.51056
#
# Static dielectric constant tensor:
#      x y z
#    x 1.906180 0.000000 0.008860 
#    y 0.000000 2.066470 0.000000 
#    z 0.008860 0.000000 2.073190 
# 
# From -- ./inp_files/281416.got.cif
#   From: 2010.05.17/outbox.cif.g08.bks.cpg/sg15_141_cif.got.tgz:281416.got - 2010.06.03 18:47:42.
