data_PCOD9299383
_publ_section_title
;
Structure prediction by ZEFSAII (Michael W. Deem and Ramdas Pophale) SiO2 
 PCOD9299383
Probable space group: C 2/C
;
_chemical_formula_sum "Si O2"
_cell_formula_units_Z 32
_cell_length_a 29.997501
_cell_length_b 8.889988
_cell_length_c 17.397302
_cell_angle_alpha 90.000000
_cell_angle_beta 15.503529
_cell_angle_gamma 90.000000
_cell_volume 1240.119171
_symmetry_space_group_name_H-M "C 2/C"
_symmetry_group_IT_number 15
_symmetry_cell_setting 'monoclinic'
loop_
_space_group_symop_operation_xyz
x,y,z
-x,y,1/2-z
-x,-y,-z
x,-y,1/2+z
1/2+x,1/2+y,z
1/2-x,1/2+y,1/2-z
1/2-x,1/2-y,-z
1/2+x,1/2-y,1/2+z
loop_
_atom_site_type_symbol
_atom_site_label
_atom_site_fract_x
_atom_site_fract_y
_atom_site_fract_z
Si Si1 0.500000 0.019632 0.250000
Si Si2 0.042225 0.593589 0.852067
Si Si3 0.655229 0.401463 0.133655
Si Si4 0.371207 0.398920 0.117119
Si Si5 0.000000 0.012385 0.250000
O O1 0.519135 0.945853 0.132792
O O2 0.395579 0.608661 0.484081
O O3 0.236377 0.547990 0.524557
O O4 0.000000 0.500000 0.000000
O O5 0.970635 0.758256 0.984991
O O6 0.624716 0.413423 0.093108
O O7 0.750000 0.250000 0.000000
O O8 0.679688 0.098874 0.957623
O O9 0.468199 0.556925 0.973145
#
# Coordination Sequence:
#
# PCOD9299383 Si02
#       5
#     4   8   8   8   4
#     4  12  29  51  90 130 174 234 300 354 456 530
#     4  12  28  51  85 129 173 229 298 369 437 531
#     4  10  24  49  87 122 171 227 294 362 443 523
#     4  10  25  54  86 122 177 234 290 365 443 528
#     4   8  21  49  88 120 180 226 294 358 444 530
#
# _framework density 25.803972000000002
#
# number of rings (size 3 to 8) (size 9 to 14) (size 15 to 20)
#    1.500    0.000    0.000    3.000    3.500    4.000 
#    9.000    0.000    0.000    1.500    0.000    0.000 
#    0.000    0.000    0.000    0.000    0.000    0.000 
#
# Total GULP energy -89159.830034 kJ/mol
# GULP energy per Si atom -5572.489377 kJ/mol
# Density = 2.574524 g / cm^3
# Si number density = 25.803972 Si / 1000 Ang^3
#
#
#
# Elastic Constant Matrix: (Units=GPa)
#
#
# Indices 1 2 3 4 5 6 
#
# 1 200.5201 86.4045 38.4714 0.0000 19.3475 0.0000
# 2 86.4045 171.7419 89.3833 0.0000 -24.3660 0.0000
# 3 38.4714 89.3833 168.3240 0.0000 -8.9551 0.0000
# 4 0.0000 0.0000 0.0000 16.0563 0.0000 -2.3597
# 5 19.3475 -24.3660 -8.9551 0.0000 75.2468 0.0000
# 6 0.0000 0.0000 0.0000 -2.3597 0.0000 36.9687
#
#
#
# Elastic Compliance Matrix: (Units=1/GPa)
#
#
# Indices 1 2 3 4 5 6 
#
# 1 0.007013 -0.004214 0.000469 0.000000 -0.003112 0.000000
# 2 -0.004214 0.010926 -0.004622 0.000000 0.004071 0.000000
# 3 0.000469 -0.004622 0.008254 0.000000 -0.000635 0.000000
# 4 0.000000 0.000000 0.000000 0.062871 0.000000 0.004013
# 5 -0.003112 0.004071 -0.000635 0.000000 0.015333 0.000000
# 6 0.000000 0.000000 0.000000 0.004013 0.000000 0.027306
#
#
# Mechanical properties :
#
#
# Convention : Reuss Voigt Hill
#
# Bulk Modulus (GPa) = 105.71283 107.67828 106.69555
# Shear Modulus (GPa) = 32.98365 47.40946 40.19655
#
# Velocity S-wave (km/s) = 3.57913 4.29102 3.95114
# Velocity P-wave (km/s) = 7.62475 8.14680 7.89009
#
# Compressibility (1/GPa) = 0.00945959
#
# Stress axis : x y z
#
# Youngs Moduli (GPa) = 142.58982 91.52373 121.14819
#
# Poissons Ratio (x) = 0.38569 -0.05686
# Poissons Ratio (y) = 0.60089 0.55997
# Poissons Ratio (z) = -0.06692 0.42304
#
# Static dielectric constant tensor:
#      x y z
#    x 2.145020 0.000000 0.087780 
#    y 0.000000 2.014900 0.000000 
#    z 0.087780 0.000000 2.145830 
# 
# From -- ./inp_files/141204.got.cif
#   From: 2010.05.17/outbox.cif.g08.bks.cpg/sg15_71_cif.got.tgz:141204.got - 2010.06.03 18:47:42.
