data_PCOD9299110
_publ_section_title
;
Structure prediction by ZEFSAII (Michael W. Deem and Ramdas Pophale) SiO2 
 PCOD9299110
Probable space group: C 2/C
;
_chemical_formula_sum "Si O2"
_cell_formula_units_Z 56
_cell_length_a 30.949874
_cell_length_b 9.228583
_cell_length_c 11.775042
_cell_angle_alpha 90.000000
_cell_angle_beta 58.139282
_cell_angle_gamma 90.000000
_cell_volume 2856.503581
_symmetry_space_group_name_H-M "C 2/C"
_symmetry_group_IT_number 15
_symmetry_cell_setting 'monoclinic'
loop_
_space_group_symop_operation_xyz
x,y,z
-x,y,1/2-z
-x,-y,-z
x,-y,1/2+z
1/2+x,1/2+y,z
1/2-x,1/2+y,1/2-z
1/2-x,1/2-y,-z
1/2+x,1/2-y,1/2+z
loop_
_atom_site_type_symbol
_atom_site_label
_atom_site_fract_x
_atom_site_fract_y
_atom_site_fract_z
Si Si1 0.556989 0.219919 0.704958
Si Si2 0.309117 0.601217 0.398726
Si Si3 0.268332 0.863623 0.066965
Si Si4 0.382012 0.478674 0.983572
Si Si5 0.701440 0.733185 0.851122
Si Si6 0.863525 0.499133 0.015320
Si Si7 0.393920 0.258194 0.628409
O O1 0.500000 0.182819 0.750000
O O2 0.574952 0.365750 0.614870
O O3 0.565004 0.247235 0.827796
O O4 0.596306 0.095853 0.609194
O O5 0.264854 0.507500 0.406664
O O6 0.348468 0.496262 0.415453
O O7 0.209738 0.796773 0.472509
O O8 0.342311 0.694429 0.265769
O O9 0.251297 0.795305 0.210238
O O10 0.250000 0.750000 0.000000
O O11 0.327361 0.902551 0.985143
O O12 0.341917 0.387767 0.117297
O O13 0.401580 0.617101 0.023346
O O14 0.675669 0.888391 0.871003
O O15 0.888327 0.393540 0.072258
#
# Coordination Sequence:
#
# PCOD9299110 Si02
#       7
#     8   8   8   8   8   8   8
#     4  10  24  47  65  90 126 165 214 272 329 371
#     4   9  19  39  59  85 129 176 192 258 311 371
#     4  12  25  34  62  94 131 170 211 255 308 379
#     4   8  18  40  64  94 115 161 209 253 313 389
#     4   9  22  38  55  88 127 167 209 246 304 387
#     4  11  26  39  60  97 126 169 218 246 315 387
#     4  11  20  41  67  87 129 161 206 273 316 369
#
# _framework density 19.604386000000002
#
# number of rings (size 3 to 8) (size 9 to 14) (size 15 to 20)
#    0.857    1.143    2.857    0.857    6.000    1.714 
#    0.000    0.714    0.000    0.000    0.000    0.000 
#    0.000    0.000    0.000    0.000    0.000    0.000 
#
# Total GULP energy -156227.958753 kJ/mol
# GULP energy per Si atom -5579.569955 kJ/mol
# Density = 1.955977 g / cm^3
# Si number density = 19.604386 Si / 1000 Ang^3
#
#
#
# Elastic Constant Matrix: (Units=GPa)
#
#
# Indices 1 2 3 4 5 6 
#
# 1 118.3985 41.5522 30.8772 0.0000 -1.8150 0.0000
# 2 41.5522 96.1195 25.3427 0.0000 11.6009 0.0000
# 3 30.8772 25.3427 51.4149 0.0000 4.0781 0.0000
# 4 0.0000 0.0000 0.0000 21.0685 0.0000 10.7140
# 5 -1.8150 11.6009 4.0781 0.0000 23.1451 0.0000
# 6 0.0000 0.0000 0.0000 10.7140 0.0000 27.7873
#
#
#
# Elastic Compliance Matrix: (Units=1/GPa)
#
#
# Indices 1 2 3 4 5 6 
#
# 1 0.011221 -0.003965 -0.005083 0.000000 0.003763 0.000000
# 2 -0.003965 0.013964 -0.003978 0.000000 -0.006609 0.000000
# 3 -0.005083 -0.003978 0.024681 0.000000 -0.002754 0.000000
# 4 0.000000 0.000000 0.000000 0.059041 0.000000 -0.022764
# 5 0.003763 -0.006609 -0.002754 0.000000 0.047299 0.000000
# 6 0.000000 0.000000 0.000000 -0.022764 0.000000 0.044765
#
#
# Mechanical properties :
#
#
# Convention : Reuss Voigt Hill
#
# Bulk Modulus (GPa) = 41.98961 51.27522 46.63242
# Shear Modulus (GPa) = 21.28030 25.61090 23.44560
#
# Velocity S-wave (km/s) = 3.29825 3.61832 3.46198
# Velocity P-wave (km/s) = 5.99746 6.60818 6.31021
#
# Compressibility (1/GPa) = 0.02381542
#
# Stress axis : x y z
#
# Youngs Moduli (GPa) = 89.12106 71.61233 40.51675
#
# Poissons Ratio (x) = 0.28392 0.20594
# Poissons Ratio (y) = 0.35334 0.16117
# Poissons Ratio (z) = 0.45299 0.28486
#
# Static dielectric constant tensor:
#      x y z
#    x 1.709770 0.000000 0.010410 
#    y 0.000000 1.738130 0.000000 
#    z 0.010410 0.000000 1.674570 
# 
# From -- ./inp_files/125833.got.cif
#   From: 2010.05.17/outbox.cif.g08.bks.cpg/sg15_63_cif.got.tgz:125833.got - 2010.06.03 18:47:42.
