data_PCOD9299781
_publ_section_title
;
Structure prediction by ZEFSAII (Michael W. Deem and Ramdas Pophale) SiO2 
 PCOD9299781
Probable space group: C 2/C
;
_chemical_formula_sum "Si O2"
_cell_formula_units_Z 36
_cell_length_a 8.644184
_cell_length_b 19.294630
_cell_length_c 14.457332
_cell_angle_alpha 90.000000
_cell_angle_beta 41.331413
_cell_angle_gamma 90.000000
_cell_volume 1592.445310
_symmetry_space_group_name_H-M "C 2/C"
_symmetry_group_IT_number 15
_symmetry_cell_setting 'monoclinic'
loop_
_space_group_symop_operation_xyz
x,y,z
-x,y,1/2-z
-x,-y,-z
x,-y,1/2+z
1/2+x,1/2+y,z
1/2-x,1/2+y,1/2-z
1/2-x,1/2-y,-z
1/2+x,1/2-y,1/2+z
loop_
_atom_site_type_symbol
_atom_site_label
_atom_site_fract_x
_atom_site_fract_y
_atom_site_fract_z
Si Si1 0.500000 0.124833 0.750000
Si Si2 0.641279 0.039013 0.855191
Si Si3 0.334319 0.602594 0.236349
Si Si4 0.155718 0.661933 0.971903
Si Si5 0.500419 0.311104 0.013058
O O1 0.487018 0.073218 0.843804
O O2 0.728982 0.172691 0.652026
O O3 0.812363 0.980849 0.737372
O O4 0.743164 0.105455 0.860511
O O5 0.500000 0.000000 0.000000
O O6 0.500000 0.617160 0.250000
O O7 0.076271 0.632249 0.373614
O O8 0.423392 0.639158 0.104409
O O9 0.068945 0.731815 0.960473
O O10 0.350606 0.674763 0.961458
#
# Coordination Sequence:
#
# PCOD9299781 Si02
#       5
#     4   8   8   8   8
#     4  12  28  44  74 110 146 192 240 294 364 432
#     4  10  25  46  70 106 145 190 237 295 355 430
#     4  11  25  45  74 105 145 192 240 298 361 428
#     4  10  25  48  72 104 146 188 244 301 362 425
#     4  11  26  46  75 108 143 192 240 302 361 433
#
# _framework density 22.606742000000001
#
# number of rings (size 3 to 8) (size 9 to 14) (size 15 to 20)
#    0.000    1.333    0.000    3.333   14.000    2.667 
#    0.000    0.000    0.000    0.000    0.000    0.000 
#    0.000    0.000    0.000    0.000    0.000    0.000 
#
# Total GULP energy -100719.825920 kJ/mol
# GULP energy per Si atom -5595.545884 kJ/mol
# Density = 2.255529 g / cm^3
# Si number density = 22.606742 Si / 1000 Ang^3
#
#
#
# Elastic Constant Matrix: (Units=GPa)
#
#
# Indices 1 2 3 4 5 6 
#
# 1 126.5529 68.0192 54.9637 0.0000 -17.1593 -0.0002
# 2 68.0192 194.1999 66.3160 0.0000 7.2986 0.0000
# 3 54.9637 66.3160 97.9995 0.0003 -18.4034 -0.0009
# 4 0.0000 0.0000 0.0003 15.2658 -0.0001 0.0107
# 5 -17.1593 7.2986 -18.4034 -0.0001 42.5541 0.0002
# 6 -0.0002 0.0000 -0.0009 0.0107 0.0002 5.7593
#
#
#
# Elastic Compliance Matrix: (Units=1/GPa)
#
#
# Indices 1 2 3 4 5 6 
#
# 1 0.011615 -0.002857 -0.003928 0.000000 0.003475 0.000000
# 2 -0.002857 0.007879 -0.004571 0.000000 -0.004480 -0.000001
# 3 -0.003928 -0.004571 0.016707 0.000000 0.006425 0.000002
# 4 0.000000 0.000000 0.000000 0.065506 0.000000 -0.000122
# 5 0.003475 -0.004480 0.006425 0.000000 0.028448 0.000000
# 6 0.000000 -0.000001 0.000002 -0.000122 0.000000 0.173633
#
#
# Mechanical properties :
#
#
# Convention : Reuss Voigt Hill
#
# Bulk Modulus (GPa) = 74.13701 88.59445 81.36573
# Shear Modulus (GPa) = 15.10589 28.01272 21.55930
#
# Velocity S-wave (km/s) = 2.58777 3.52395 3.09150
# Velocity P-wave (km/s) = 6.46484 7.47209 6.98664
#
# Compressibility (1/GPa) = 0.01348854
#
# Stress axis : x y z
#
# Youngs Moduli (GPa) = 86.09736 126.91452 59.85558
#
# Poissons Ratio (x) = 0.36263 0.23512
# Poissons Ratio (y) = 0.24600 0.27358
# Poissons Ratio (z) = 0.33821 0.58009
#
# Static dielectric constant tensor:
#      x y z
#    x 1.813410 0.000000 -0.001560 
#    y 0.000000 1.860080 0.000000 
#    z -0.001560 0.000000 1.844920 
# 
# From -- ./inp_files/136385.got.cif
#   From: 2010.05.17/outbox.cif.g08.bks.cpg/sg15_69_cif.got.tgz:136385.got - 2010.06.03 18:47:42.
