data_PCOD9299501
_publ_section_title
;
Structure prediction by ZEFSAII (Michael W. Deem and Ramdas Pophale) SiO2 
 PCOD9299501
Probable space group: C 2/C
;
_chemical_formula_sum "Si O2"
_cell_formula_units_Z 32
_cell_length_a 6.574266
_cell_length_b 29.490167
_cell_length_c 8.191952
_cell_angle_alpha 90.000000
_cell_angle_beta 67.530419
_cell_angle_gamma 90.000000
_cell_volume 1467.650623
_symmetry_space_group_name_H-M "C 2/C"
_symmetry_group_IT_number 15
_symmetry_cell_setting 'monoclinic'
loop_
_space_group_symop_operation_xyz
x,y,z
-x,y,1/2-z
-x,-y,-z
x,-y,1/2+z
1/2+x,1/2+y,z
1/2-x,1/2+y,1/2-z
1/2-x,1/2-y,-z
1/2+x,1/2-y,1/2+z
loop_
_atom_site_type_symbol
_atom_site_label
_atom_site_fract_x
_atom_site_fract_y
_atom_site_fract_z
Si Si1 0.294129 0.134925 0.428984
Si Si2 0.540682 0.050746 0.431172
Si Si3 0.017355 0.215550 0.917362
Si Si4 0.500000 0.587912 0.250000
Si Si5 0.500000 0.775045 0.250000
O O1 0.500000 0.148355 0.250000
O O2 0.387108 0.094773 0.519532
O O3 0.167341 0.177039 0.543512
O O4 0.112410 0.115780 0.359468
O O5 0.500000 0.049691 0.250000
O O6 0.795768 0.060574 0.386860
O O7 0.500000 0.000000 0.500000
O O8 0.271446 0.198888 0.850248
O O9 0.000000 0.242033 0.750000
O O10 0.979827 0.243819 0.093843
#
# Coordination Sequence:
#
# PCOD9299501 Si02
#       5
#     8   8   8   4   4
#     4   9  20  37  62  86 121 162 204 253 309 363
#     4   9  19  36  57  86 115 162 198 245 309 364
#     4  11  23  42  63  95 126 162 212 259 308 385
#     4   8  17  36  58  78 118 160 192 244 302 366
#     4  10  25  42  66  90 126 172 202 258 330 370
#
# _framework density 21.803553000000001
#
# number of rings (size 3 to 8) (size 9 to 14) (size 15 to 20)
#    0.000    3.000    0.000    1.500    0.000   13.000 
#    6.750    0.000    0.000    0.000    0.000    0.000 
#    0.000    0.000    0.000    0.000    0.000    0.000 
#
# Total GULP energy -89098.789491 kJ/mol
# GULP energy per Si atom -5568.674343 kJ/mol
# Density = 2.175393 g / cm^3
# Si number density = 21.803553 Si / 1000 Ang^3
#
#
#
# Elastic Constant Matrix: (Units=GPa)
#
#
# Indices 1 2 3 4 5 6 
#
# 1 168.4810 61.2140 42.5939 0.0000 -35.7683 0.0000
# 2 61.2140 117.7259 45.6016 0.0000 -16.2296 0.0000
# 3 42.5939 45.6016 79.7939 0.0000 -0.3919 0.0000
# 4 0.0000 0.0000 0.0000 200.6716 0.0000 -35.1644
# 5 -35.7683 -16.2296 -0.3919 0.0000 41.8368 0.0000
# 6 0.0000 0.0000 0.0000 -35.1644 0.0000 17.2275
#
#
#
# Elastic Compliance Matrix: (Units=1/GPa)
#
#
# Indices 1 2 3 4 5 6 
#
# 1 0.009158 -0.002491 -0.003432 0.000000 0.006831 0.000000
# 2 -0.002491 0.012368 -0.005726 0.000000 0.002614 0.000000
# 3 -0.003432 -0.005726 0.017612 0.000000 -0.004990 0.000000
# 4 0.000000 0.000000 0.000000 0.007758 0.000000 0.015836
# 5 0.006831 0.002614 -0.004990 0.000000 0.030710 0.000000
# 6 0.000000 0.000000 0.000000 0.015836 0.000000 0.090371
#
#
# Mechanical properties :
#
#
# Convention : Reuss Voigt Hill
#
# Bulk Modulus (GPa) = 63.12539 73.86887 68.49713
# Shear Modulus (GPa) = 25.43830 66.38659 45.91244
#
# Velocity S-wave (km/s) = 3.41941 5.52392 4.59380
# Velocity P-wave (km/s) = 6.67866 8.63931 7.72147
#
# Compressibility (1/GPa) = 0.01584149
#
# Stress axis : x y z
#
# Youngs Moduli (GPa) = 109.19093 80.85495 56.78061
#
# Poissons Ratio (x) = 0.20141 0.19484
# Poissons Ratio (y) = 0.27200 0.32510
# Poissons Ratio (z) = 0.37469 0.46294
#
# Static dielectric constant tensor:
#      x y z
#    x 1.464750 0.000000 0.059440 
#    y 0.000000 1.918350 0.000000 
#    z 0.059440 0.000000 1.844860 
# 
# From -- ./inp_files/20192.got.cif
#   From: 2010.05.17/outbox.cif.g08.bks.cpg/sg15_11_cif.got.tgz:20192.got - 2010.06.03 18:47:42.
