data_PCOD9299901
_publ_section_title
;
Structure prediction by ZEFSAII (Michael W. Deem and Ramdas Pophale) SiO2 
 PCOD9299901
Probable space group: C 2/C
;
_chemical_formula_sum "Si O2"
_cell_formula_units_Z 52
_cell_length_a 19.067612
_cell_length_b 13.336841
_cell_length_c 14.006658
_cell_angle_alpha 90.000000
_cell_angle_beta 144.777176
_cell_angle_gamma 90.000000
_cell_volume 2054.363396
_symmetry_space_group_name_H-M "C 2/C"
_symmetry_group_IT_number 15
_symmetry_cell_setting 'monoclinic'
loop_
_space_group_symop_operation_xyz
x,y,z
-x,y,1/2-z
-x,-y,-z
x,-y,1/2+z
1/2+x,1/2+y,z
1/2-x,1/2+y,1/2-z
1/2-x,1/2-y,-z
1/2+x,1/2-y,1/2+z
loop_
_atom_site_type_symbol
_atom_site_label
_atom_site_fract_x
_atom_site_fract_y
_atom_site_fract_z
Si Si1 0.857272 0.739583 0.269831
Si Si2 0.762948 0.148050 0.957008
Si Si3 0.330127 0.594798 0.346566
Si Si4 0.154620 0.485063 0.494008
Si Si5 0.473422 0.103477 0.914609
Si Si6 0.000000 0.669282 0.250000
Si Si7 0.562001 0.389932 0.000621
O O1 0.734186 0.676183 0.156257
O O2 0.861345 0.848435 0.322553
O O3 0.957201 0.683767 0.445932
O O4 0.914786 0.730985 0.228499
O O5 0.736088 0.054271 0.997079
O O6 0.663541 0.131391 0.762475
O O7 0.889178 0.155998 0.041891
O O8 0.750000 0.250000 0.000000
O O9 0.411585 0.508308 0.485192
O O10 0.423601 0.635366 0.371490
O O11 0.229477 0.536781 0.173432
O O12 0.095427 0.593803 0.409199
O O13 0.040033 0.413112 0.388152
O O14 0.500000 0.000000 0.000000
#
# Coordination Sequence:
#
# PCOD9299901 Si02
#       7
#     8   8   8   8   8   4   8
#     4  11  25  43  74 103 133 184 243 298 346 432
#     4  12  24  39  66 108 144 174 237 313 356 429
#     4  10  25  48  69  98 142 198 230 284 372 447
#     4  11  21  40  67 104 135 174 235 298 356 413
#     4  11  20  40  69 100 141 184 229 294 374 425
#     4  12  22  42  72 112 128 174 252 302 342 410
#     4  11  26  47  69  96 150 195 233 279 378 442
#
# _framework density 25.311979000000001
#
# number of rings (size 3 to 8) (size 9 to 14) (size 15 to 20)
#    0.000    0.923    3.077    4.615    4.308    0.615 
#    0.000    6.154    0.000    0.000    0.000    0.000 
#    0.000    0.000    0.000    0.000    0.000    0.000 
#
# Total GULP energy -145331.054182 kJ/mol
# GULP energy per Si atom -5589.655930 kJ/mol
# Density = 2.525437 g / cm^3
# Si number density = 25.311979 Si / 1000 Ang^3
#
#
#
# Elastic Constant Matrix: (Units=GPa)
#
#
# Indices 1 2 3 4 5 6 
#
# 1 227.1925 35.6006 22.5375 0.0000 33.2899 0.0000
# 2 35.6006 87.4242 11.3021 0.0000 17.0899 0.0000
# 3 22.5375 11.3021 63.8272 0.0000 11.2705 0.0000
# 4 0.0000 0.0000 0.0000 25.2620 0.0000 -7.1082
# 5 33.2899 17.0899 11.2705 0.0000 33.7959 0.0000
# 6 0.0000 0.0000 0.0000 -7.1082 0.0000 38.7868
#
#
#
# Elastic Compliance Matrix: (Units=1/GPa)
#
#
# Indices 1 2 3 4 5 6 
#
# 1 0.005313 -0.001202 -0.000899 0.000000 -0.004326 0.000000
# 2 -0.001202 0.013050 -0.000988 0.000000 -0.005086 0.000000
# 3 -0.000899 -0.000988 0.016911 0.000000 -0.004254 0.000000
# 4 0.000000 0.000000 0.000000 0.041737 0.000000 0.007649
# 5 -0.004326 -0.005086 -0.004254 0.000000 0.037841 0.000000
# 6 0.000000 0.000000 0.000000 0.007649 0.000000 0.027184
#
#
# Mechanical properties :
#
#
# Convention : Reuss Voigt Hill
#
# Bulk Modulus (GPa) = 34.37040 57.48048 45.92544
# Shear Modulus (GPa) = 31.66304 40.16919 35.91612
#
# Velocity S-wave (km/s) = 3.54066 3.98799 3.77097
# Velocity P-wave (km/s) = 5.50665 6.63050 6.09454
#
# Compressibility (1/GPa) = 0.02909480
#
# Stress axis : x y z
#
# Youngs Moduli (GPa) = 188.22067 76.62982 59.13299
#
# Poissons Ratio (x) = 0.09208 0.05318
# Poissons Ratio (y) = 0.22617 0.05845
# Poissons Ratio (z) = 0.16928 0.07574
#
# Static dielectric constant tensor:
#      x y z
#    x 2.054060 0.000000 0.013610 
#    y 0.000000 2.106040 0.000000 
#    z 0.013610 0.000000 2.137360 
# 
# From -- ./inp_files/162630.got.cif
#   From: 2010.05.17/outbox.cif.g08.bks.cpg/sg15_82_cif.got.tgz:162630.got - 2010.06.03 18:47:42.
