data_PCOD9299621
_publ_section_title
;
Structure prediction by ZEFSAII (Michael W. Deem and Ramdas Pophale) SiO2 
 PCOD9299621
Probable space group: C 2/C
;
_chemical_formula_sum "Si O2"
_cell_formula_units_Z 56
_cell_length_a 19.196826
_cell_length_b 19.042675
_cell_length_c 16.101507
_cell_angle_alpha 90.000000
_cell_angle_beta 154.993141
_cell_angle_gamma 90.000000
_cell_volume 2488.190597
_symmetry_space_group_name_H-M "C 2/C"
_symmetry_group_IT_number 15
_symmetry_cell_setting 'monoclinic'
loop_
_space_group_symop_operation_xyz
x,y,z
-x,y,1/2-z
-x,-y,-z
x,-y,1/2+z
1/2+x,1/2+y,z
1/2-x,1/2+y,1/2-z
1/2-x,1/2-y,-z
1/2+x,1/2-y,1/2+z
loop_
_atom_site_type_symbol
_atom_site_label
_atom_site_fract_x
_atom_site_fract_y
_atom_site_fract_z
Si Si1 0.604671 0.170313 0.447612
Si Si2 0.198406 0.329485 0.456850
Si Si3 0.388666 0.447900 0.051421
Si Si4 0.194944 0.393968 0.627179
Si Si5 0.725828 0.813784 0.825822
Si Si6 0.814293 0.946733 0.249093
Si Si7 0.802029 0.580386 0.699509
O O1 0.500000 0.175412 0.250000
O O2 0.467041 0.176289 0.369444
O O3 0.724150 0.236093 0.592881
O O4 0.701440 0.097805 0.563545
O O5 0.250000 0.250000 0.500000
O O6 0.254620 0.363133 0.603965
O O7 0.258624 0.371877 0.441672
O O8 0.000000 0.333716 0.250000
O O9 0.500000 0.468696 0.250000
O O10 0.507588 0.449019 0.099986
O O11 0.321184 0.369218 0.987333
O O12 0.237500 0.500713 0.872246
O O13 0.256968 0.341579 0.766314
O O14 0.254244 0.474006 0.695551
O O15 0.995598 0.402517 0.417900
O O16 0.792172 0.910163 0.314958
#
# Coordination Sequence:
#
# PCOD9299621 Si02
#       7
#     8   8   8   8   8   8   8
#     4  12  26  45  71 102 142 185 233 291 363 427
#     4  10  25  44  68  99 138 180 232 291 350 421
#     4  12  25  43  70 104 143 185 237 297 356 422
#     4  11  24  45  72 103 138 188 236 297 361 418
#     4  12  25  45  69 100 142 184 235 292 350 440
#     4  12  24  44  71 105 136 187 238 291 356 425
#     4  11  23  45  66 102 139 180 241 288 362 420
#
# _framework density 22.506314
#
# number of rings (size 3 to 8) (size 9 to 14) (size 15 to 20)
#    0.000    0.571    2.857    5.143    2.000    3.429 
#    0.000    0.000    0.000    0.000    0.000    0.000 
#    0.000    0.000    0.000    0.000    0.000    0.000 
#
# Total GULP energy -156678.768521 kJ/mol
# GULP energy per Si atom -5595.670304 kJ/mol
# Density = 2.245509 g / cm^3
# Si number density = 22.506314 Si / 1000 Ang^3
#
#
#
# Elastic Constant Matrix: (Units=GPa)
#
#
# Indices 1 2 3 4 5 6 
#
# 1 124.7085 42.0486 20.1369 0.0000 -21.3421 0.0000
# 2 42.0486 98.8545 28.8977 0.0000 -21.0925 0.0000
# 3 20.1369 28.8977 75.2983 0.0000 -24.5809 0.0000
# 4 0.0000 0.0000 0.0000 31.2914 0.0000 4.0356
# 5 -21.3421 -21.0925 -24.5809 0.0000 34.0137 0.0000
# 6 0.0000 0.0000 0.0000 4.0356 0.0000 34.6150
#
#
#
# Elastic Compliance Matrix: (Units=1/GPa)
#
#
# Indices 1 2 3 4 5 6 
#
# 1 0.009839 -0.003302 -0.000022 0.000000 0.004110 0.000000
# 2 -0.003302 0.013224 -0.002868 0.000000 0.004056 0.000000
# 3 -0.000022 -0.002868 0.018063 0.000000 0.011261 0.000000
# 4 0.000000 0.000000 0.000000 0.032445 0.000000 -0.003783
# 5 0.004110 0.004056 0.011261 0.000000 0.042632 0.000000
# 6 0.000000 0.000000 0.000000 -0.003783 0.000000 0.029330
#
#
# Mechanical properties :
#
#
# Convention : Reuss Voigt Hill
#
# Bulk Modulus (GPa) = 34.79191 53.44754 44.11972
# Shear Modulus (GPa) = 29.85085 33.83589 31.84337
#
# Velocity S-wave (km/s) = 3.64584 3.88157 3.76555
# Velocity P-wave (km/s) = 5.76326 6.62481 6.20900
#
# Compressibility (1/GPa) = 0.02874231
#
# Stress axis : x y z
#
# Youngs Moduli (GPa) = 101.63762 75.61952 55.36036
#
# Poissons Ratio (x) = 0.24966 0.00125
# Poissons Ratio (y) = 0.33556 0.15877
# Poissons Ratio (z) = 0.00229 0.21688
#
# Static dielectric constant tensor:
#      x y z
#    x 1.853280 0.000000 -0.020750 
#    y 0.000000 1.810500 0.000000 
#    z -0.020750 0.000000 1.868790 
# 
# From -- ./inp_files/163819.got.cif
#   From: 2010.05.17/outbox.cif.g08.bks.cpg/sg15_82_cif.got.tgz:163819.got - 2010.06.03 18:47:42.
