data_PCOD9299552
_publ_section_title
;
Structure prediction by ZEFSAII (Michael W. Deem and Ramdas Pophale) SiO2 
 PCOD9299552
Probable space group: C 2/C
;
_chemical_formula_sum "Si O2"
_cell_formula_units_Z 32
_cell_length_a 8.942449
_cell_length_b 15.970689
_cell_length_c 11.553673
_cell_angle_alpha 90.000000
_cell_angle_beta 123.181489
_cell_angle_gamma 90.000000
_cell_volume 1381.004618
_symmetry_space_group_name_H-M "C 2/C"
_symmetry_group_IT_number 15
_symmetry_cell_setting 'monoclinic'
loop_
_space_group_symop_operation_xyz
x,y,z
-x,y,1/2-z
-x,-y,-z
x,-y,1/2+z
1/2+x,1/2+y,z
1/2-x,1/2+y,1/2-z
1/2-x,1/2-y,-z
1/2+x,1/2-y,1/2+z
loop_
_atom_site_type_symbol
_atom_site_label
_atom_site_fract_x
_atom_site_fract_y
_atom_site_fract_z
Si Si1 0.906721 0.743906 0.391858
Si Si2 0.809517 0.505211 0.983182
Si Si3 0.500000 0.891879 0.750000
Si Si4 0.388984 0.837209 0.101729
Si Si5 0.500000 0.614766 0.750000
O O1 0.903433 0.668843 0.300287
O O2 0.721254 0.769357 0.372433
O O3 0.003798 0.705851 0.547667
O O4 0.978241 0.823974 0.352177
O O5 0.668005 0.555117 0.846808
O O6 0.852803 0.555444 0.118759
O O7 0.764362 0.409032 0.993966
O O8 0.000000 0.500000 0.000000
O O9 0.500000 0.881394 0.250000
#
# Coordination Sequence:
#
# PCOD9299552 Si02
#       5
#     8   8   4   8   4
#     4  10  25  43  67 107 139 188 236 299 357 430
#     4  12  25  48  72 105 144 190 240 297 363 427
#     4  11  24  44  76  99 144 190 236 297 362 430
#     4  11  23  45  71 102 145 188 240 295 361 423
#     4  11  28  46  72 107 142 188 246 295 362 428
#
# _framework density 23.171537000000001
#
# number of rings (size 3 to 8) (size 9 to 14) (size 15 to 20)
#    0.000    1.000    3.750    1.500    3.500    3.000 
#    9.000    0.000    0.000    0.000    0.000    0.000 
#    0.000    0.000    0.000    0.000    0.000    0.000 
#
# Total GULP energy -89353.706556 kJ/mol
# GULP energy per Si atom -5584.606660 kJ/mol
# Density = 2.311880 g / cm^3
# Si number density = 23.171537 Si / 1000 Ang^3
#
#
#
# Elastic Constant Matrix: (Units=GPa)
#
#
# Indices 1 2 3 4 5 6 
#
# 1 80.0717 45.2376 52.2899 0.0000 -23.7752 0.0000
# 2 45.2376 154.7355 71.9323 0.0000 -8.5862 0.0000
# 3 52.2899 71.9323 136.8024 0.0000 -20.0869 0.0000
# 4 0.0000 0.0000 0.0000 38.5050 0.0000 -2.9395
# 5 -23.7752 -8.5862 -20.0869 0.0000 45.7898 0.0000
# 6 0.0000 0.0000 0.0000 -2.9395 0.0000 26.6484
#
#
#
# Elastic Compliance Matrix: (Units=1/GPa)
#
#
# Indices 1 2 3 4 5 6 
#
# 1 0.019565 -0.003096 -0.004750 0.000000 0.007494 0.000000
# 2 -0.003096 0.009050 -0.003807 0.000000 -0.001581 0.000000
# 3 -0.004750 -0.003807 0.011394 0.000000 0.001818 0.000000
# 4 0.000000 0.000000 0.000000 0.026191 0.000000 0.002889
# 5 0.007494 -0.001581 0.001818 0.000000 0.026231 0.000000
# 6 0.000000 0.000000 0.000000 0.002889 0.000000 0.037844
#
#
# Mechanical properties :
#
#
# Convention : Reuss Voigt Hill
#
# Bulk Modulus (GPa) = 59.87019 78.94767 69.40893
# Shear Modulus (GPa) = 31.41680 35.66532 33.54106
#
# Velocity S-wave (km/s) = 3.68616 3.92750 3.80874
# Velocity P-wave (km/s) = 6.63408 7.39675 7.02577
#
# Compressibility (1/GPa) = 0.01670280
#
# Stress axis : x y z
#
# Youngs Moduli (GPa) = 51.11132 110.49783 87.76297
#
# Poissons Ratio (x) = 0.34209 0.41688
# Poissons Ratio (y) = 0.15824 0.33414
# Poissons Ratio (z) = 0.24278 0.42070
#
# Static dielectric constant tensor:
#      x y z
#    x 1.882680 0.000000 0.035860 
#    y 0.000000 1.937570 0.000000 
#    z 0.035860 0.000000 2.020380 
# 
# From -- ./inp_files/75696.got.cif
#   From: 2010.05.17/outbox.cif.g08.bks.cpg/sg15_38_cif.got.tgz:75696.got - 2010.06.03 18:47:42.
