data_PCOD9299271
_publ_section_title
;
Structure prediction by ZEFSAII (Michael W. Deem and Ramdas Pophale) SiO2 
 PCOD9299271
Probable space group: C 2/C
;
_chemical_formula_sum "Si O2"
_cell_formula_units_Z 60
_cell_length_a 8.746068
_cell_length_b 22.171858
_cell_length_c 21.256761
_cell_angle_alpha 90.000000
_cell_angle_beta 40.468119
_cell_angle_gamma 90.000000
_cell_volume 2675.305264
_symmetry_space_group_name_H-M "C 2/C"
_symmetry_group_IT_number 15
_symmetry_cell_setting 'monoclinic'
loop_
_space_group_symop_operation_xyz
x,y,z
-x,y,1/2-z
-x,-y,-z
x,-y,1/2+z
1/2+x,1/2+y,z
1/2-x,1/2+y,1/2-z
1/2-x,1/2-y,-z
1/2+x,1/2-y,1/2+z
loop_
_atom_site_type_symbol
_atom_site_label
_atom_site_fract_x
_atom_site_fract_y
_atom_site_fract_z
Si Si1 0.720598 0.775723 0.840844
Si Si2 0.967859 0.500355 0.187375
Si Si3 0.907764 0.376186 0.900484
Si Si4 0.122019 0.565589 0.961278
Si Si5 0.000000 0.024163 0.750000
Si Si6 0.872975 0.384935 0.430236
Si Si7 0.528145 0.287567 0.964463
Si Si8 0.768010 0.203507 0.784470
O O1 0.647326 0.843227 0.845590
O O2 0.599653 0.754472 0.943513
O O3 0.645198 0.731796 0.807666
O O4 0.000000 0.770378 0.750000
O O5 0.713383 0.503518 0.228633
O O6 0.000000 0.480603 0.250000
O O7 0.059561 0.568862 0.156849
O O8 0.126165 0.452259 0.098513
O O9 0.811516 0.408274 0.992849
O O10 0.746315 0.322463 0.926857
O O11 0.349409 0.560344 0.847236
O O12 0.941277 0.608578 0.981690
O O13 0.000000 0.500000 0.000000
O O14 0.651380 0.341790 0.494436
O O15 0.091872 0.351558 0.328087
O O16 0.619005 0.250511 0.875225
O O17 0.000000 0.186755 0.750000
#
# Coordination Sequence:
#
# PCOD9299271 Si02
#       8
#     8   8   8   8   4   8   8   8
#     4  12  28  49  76 109 146 199 250 309 379 447
#     4  11  28  48  74 118 148 200 257 305 388 453
#     4  12  27  48  75 110 154 191 248 315 377 455
#     4  11  24  47  70 109 147 193 250 296 382 451
#     4  10  24  48  72 102 154 202 248 306 368 458
#     4  11  26  46  76 107 149 194 245 317 374 457
#     4  12  28  49  73 111 149 194 253 312 378 457
#     4  12  27  49  74 108 147 193 255 311 378 441
#
# _framework density 22.427347000000001
#
# number of rings (size 3 to 8) (size 9 to 14) (size 15 to 20)
#    0.000    0.533    5.333    1.600   14.000    1.600 
#    0.000    0.000    0.000    0.000    0.000    0.000 
#    0.000    0.000    0.000    0.000    0.000    0.000 
#
# Total GULP energy -167584.774439 kJ/mol
# GULP energy per Si atom -5586.159148 kJ/mol
# Density = 2.237630 g / cm^3
# Si number density = 22.427347 Si / 1000 Ang^3
#
#
#
# Elastic Constant Matrix: (Units=GPa)
#
#
# Indices 1 2 3 4 5 6 
#
# 1 67.1173 5.1972 24.8628 0.0008 -0.4023 -0.0005
# 2 5.1972 100.0690 13.5241 0.0000 -5.7488 0.0000
# 3 24.8628 13.5241 47.2361 0.0001 5.0683 -0.0002
# 4 0.0008 0.0000 0.0001 21.9570 -0.0002 4.6746
# 5 -0.4023 -5.7488 5.0683 -0.0002 43.0827 0.0002
# 6 -0.0005 0.0000 -0.0002 4.6746 0.0002 36.0832
#
#
#
# Elastic Compliance Matrix: (Units=1/GPa)
#
#
# Indices 1 2 3 4 5 6 
#
# 1 0.018606 0.000478 -0.010083 -0.000001 0.001424 0.000000
# 2 0.000478 0.010541 -0.003465 0.000000 0.001819 0.000000
# 3 -0.010083 -0.003465 0.027881 0.000000 -0.003836 0.000000
# 4 -0.000001 0.000000 0.000000 0.046835 0.000000 -0.006068
# 5 0.001424 0.001819 -0.003836 0.000000 0.023918 0.000000
# 6 0.000000 0.000000 0.000000 -0.006068 0.000000 0.028500
#
#
# Mechanical properties :
#
#
# Convention : Reuss Voigt Hill
#
# Bulk Modulus (GPa) = 32.37414 33.51008 32.94211
# Shear Modulus (GPa) = 25.94479 31.61380 28.77930
#
# Velocity S-wave (km/s) = 3.40492 3.75855 3.58610
# Velocity P-wave (km/s) = 5.47032 5.81461 5.64509
#
# Compressibility (1/GPa) = 0.03088885
#
# Stress axis : x y z
#
# Youngs Moduli (GPa) = 53.74642 94.86760 35.86663
#
# Poissons Ratio (x) = -0.04536 0.36164
# Poissons Ratio (y) = -0.02570 0.12427
# Poissons Ratio (z) = 0.54192 0.32870
#
# Static dielectric constant tensor:
#      x y z
#    x 1.917550 0.000000 -0.007510 
#    y 0.000000 1.846720 0.000000 
#    z -0.007510 0.000000 1.837870 
# 
# From -- ./inp_files/234545.got.cif
#   From: 2010.05.17/outbox.cif.g08.bks.cpg/sg15_118_cif.got.tgz:234545.got - 2010.06.03 18:47:42.
