data_PCOD9299539
_publ_section_title
;
Structure prediction by ZEFSAII (Michael W. Deem and Ramdas Pophale) SiO2 
 PCOD9299539
Probable space group: C 2/C
;
_chemical_formula_sum "Si O2"
_cell_formula_units_Z 56
_cell_length_a 8.879953
_cell_length_b 21.519394
_cell_length_c 14.025838
_cell_angle_alpha 90.000000
_cell_angle_beta 88.445630
_cell_angle_gamma 90.000000
_cell_volume 2679.228091
_symmetry_space_group_name_H-M "C 2/C"
_symmetry_group_IT_number 15
_symmetry_cell_setting 'monoclinic'
loop_
_space_group_symop_operation_xyz
x,y,z
-x,y,1/2-z
-x,-y,-z
x,-y,1/2+z
1/2+x,1/2+y,z
1/2-x,1/2+y,1/2-z
1/2-x,1/2-y,-z
1/2+x,1/2-y,1/2+z
loop_
_atom_site_type_symbol
_atom_site_label
_atom_site_fract_x
_atom_site_fract_y
_atom_site_fract_z
Si Si1 0.237810 0.160962 0.901484
Si Si2 0.640216 0.546437 0.005094
Si Si3 0.723179 0.008726 0.317178
Si Si4 0.446725 0.846003 0.002339
Si Si5 0.733696 0.367909 0.184918
Si Si6 0.111297 0.471313 0.613525
Si Si7 0.485962 0.254202 0.353683
O O1 0.123632 0.110579 0.949472
O O2 0.381174 0.160700 0.967034
O O3 0.285232 0.141062 0.793572
O O4 0.148858 0.224915 0.889402
O O5 0.785467 0.514170 0.954047
O O6 0.500000 0.500000 0.000000
O O7 0.685478 0.553608 0.114596
O O8 0.802024 0.941257 0.319946
O O9 0.551873 0.000098 0.358860
O O10 0.701224 0.033977 0.211384
O O11 0.352574 0.852440 0.100612
O O12 0.418799 0.907007 0.939253
O O13 0.409031 0.788024 0.934608
O O14 0.603209 0.317798 0.167975
O O15 0.500000 0.221333 0.250000
#
# Coordination Sequence:
#
# PCOD9299539 Si02
#       7
#     8   8   8   8   8   8   8
#     4  11  23  41  63  94 126 168 218 262 312 380
#     4  12  23  38  62  95 132 169 208 265 329 380
#     4  11  22  40  64  94 132 162 215 264 313 383
#     4  12  23  41  67  93 130 165 213 264 322 377
#     4  11  22  40  66  93 123 166 219 265 306 379
#     4  11  24  38  64  98 127 165 208 262 325 375
#     4  10  25  43  63  91 126 170 211 259 319 380
#
# _framework density 20.901543
#
# number of rings (size 3 to 8) (size 9 to 14) (size 15 to 20)
#    0.000    0.857    4.286    3.429    4.000    0.571 
#    0.000    0.000    0.000    0.000    0.000    0.000 
#    0.000    0.000    0.000    0.000    0.000    0.000 
#
# Total GULP energy -156471.152081 kJ/mol
# GULP energy per Si atom -5588.255431 kJ/mol
# Density = 2.085397 g / cm^3
# Si number density = 20.901543 Si / 1000 Ang^3
#
#
#
# Elastic Constant Matrix: (Units=GPa)
#
#
# Indices 1 2 3 4 5 6 
#
# 1 25.1431 0.5618 19.7506 0.0000 12.5178 0.0000
# 2 0.5618 63.6663 48.7405 0.0000 3.1054 0.0000
# 3 19.7506 48.7405 155.7111 0.0000 20.1287 0.0000
# 4 0.0000 0.0000 0.0000 33.4273 0.0000 -5.4640
# 5 12.5178 3.1054 20.1287 0.0000 34.6981 0.0000
# 6 0.0000 0.0000 0.0000 -5.4640 0.0000 19.4528
#
#
#
# Elastic Compliance Matrix: (Units=1/GPa)
#
#
# Indices 1 2 3 4 5 6 
#
# 1 0.052359 0.005039 -0.006182 0.000000 -0.015754 0.000000
# 2 0.005039 0.021279 -0.007371 0.000000 0.000554 0.000000
# 3 -0.006182 -0.007371 0.009881 0.000000 -0.002842 0.000000
# 4 0.000000 0.000000 0.000000 0.031355 0.000000 0.008807
# 5 -0.015754 0.000554 -0.002842 0.000000 0.036103 0.000000
# 6 0.000000 0.000000 0.000000 0.008807 0.000000 0.053880
#
#
# Mechanical properties :
#
#
# Convention : Reuss Voigt Hill
#
# Bulk Modulus (GPa) = 15.03976 42.51404 28.77690
# Shear Modulus (GPa) = 20.48763 29.21348 24.85055
#
# Velocity S-wave (km/s) = 3.13421 3.74260 3.45183
# Velocity P-wave (km/s) = 4.50653 6.24983 5.44836
#
# Compressibility (1/GPa) = 0.06649042
#
# Stress axis : x y z
#
# Youngs Moduli (GPa) = 19.09878 46.99537 101.20338
#
# Poissons Ratio (x) = -0.23682 0.62566
# Poissons Ratio (y) = -0.09624 0.74601
# Poissons Ratio (z) = 0.11807 0.34642
#
# Static dielectric constant tensor:
#      x y z
#    x 1.757170 0.000000 0.008250 
#    y 0.000000 1.754660 0.000000 
#    z 0.008250 0.000000 1.783690 
# 
# From -- ./inp_files/136453.got.cif
#   From: 2010.05.17/outbox.cif.g08.bks.cpg/sg15_69_cif.got.tgz:136453.got - 2010.06.03 18:47:42.
