data_PCOD9299176
_publ_section_title
;
Structure prediction by ZEFSAII (Michael W. Deem and Ramdas Pophale) SiO2 
 PCOD9299176
Probable space group: C 2/C
;
_chemical_formula_sum "Si O2"
_cell_formula_units_Z 56
_cell_length_a 5.594050
_cell_length_b 21.973703
_cell_length_c 19.119345
_cell_angle_alpha 90.000000
_cell_angle_beta 102.251839
_cell_angle_gamma 90.000000
_cell_volume 2296.660811
_symmetry_space_group_name_H-M "C 2/C"
_symmetry_group_IT_number 15
_symmetry_cell_setting 'monoclinic'
loop_
_space_group_symop_operation_xyz
x,y,z
-x,y,1/2-z
-x,-y,-z
x,-y,1/2+z
1/2+x,1/2+y,z
1/2-x,1/2+y,1/2-z
1/2-x,1/2-y,-z
1/2+x,1/2-y,1/2+z
loop_
_atom_site_type_symbol
_atom_site_label
_atom_site_fract_x
_atom_site_fract_y
_atom_site_fract_z
Si Si1 0.440424 0.388679 0.927170
Si Si2 0.791572 0.004161 0.860215
Si Si3 0.244712 0.129099 0.578432
Si Si4 0.500000 0.415637 0.250000
Si Si5 0.609581 0.216962 0.425576
Si Si6 0.660362 0.682688 0.319337
Si Si7 0.000000 0.407465 0.750000
Si Si8 0.270517 0.674044 0.641940
O O1 0.436111 0.460938 0.921976
O O2 0.196666 0.352689 0.935159
O O3 0.496700 0.362447 0.854775
O O4 0.643746 0.369065 0.994481
O O5 0.682381 0.060601 0.895008
O O6 0.941265 0.038735 0.809221
O O7 0.618808 0.955393 0.811836
O O8 0.498329 0.163840 0.598022
O O9 0.009672 0.151185 0.611066
O O10 0.706695 0.367224 0.287169
O O11 0.750000 0.250000 0.500000
O O12 0.321935 0.217771 0.388044
O O13 0.703641 0.253358 0.362277
O O14 0.500000 0.717036 0.250000
O O15 0.834559 0.637778 0.285671
#
# Coordination Sequence:
#
# PCOD9299176 Si02
#       8
#     8   8   8   4   8   8   4   8
#     4  12  25  44  74 110 148 197 254 313 394 457
#     4  11  22  44  74 105 149 195 256 319 384 462
#     4  11  26  47  71 112 146 205 249 316 379 468
#     4  10  24  47  74 102 145 198 244 322 378 460
#     4  12  26  48  75 107 152 202 252 325 383 471
#     4  12  25  45  73 111 150 193 256 324 393 463
#     4  12  22  45  68 106 147 190 250 316 386 458
#     4  11  26  48  74 105 151 197 258 301 393 458
#
# _framework density 24.383227000000002
#
# number of rings (size 3 to 8) (size 9 to 14) (size 15 to 20)
#    0.000    0.571    4.286    3.000    2.000    5.714 
#    0.000    4.286    0.000    0.000    0.000    0.000 
#    0.000    0.000    0.000    0.000    0.000    0.000 
#
# Total GULP energy -156180.949221 kJ/mol
# GULP energy per Si atom -5577.891044 kJ/mol
# Density = 2.432773 g / cm^3
# Si number density = 24.383227 Si / 1000 Ang^3
#
#
#
# Elastic Constant Matrix: (Units=GPa)
#
#
# Indices 1 2 3 4 5 6 
#
# 1 73.2489 25.5009 28.7818 0.0000 12.2488 0.0000
# 2 25.5009 119.7740 15.7405 0.0000 0.7718 0.0000
# 3 28.7818 15.7405 97.6670 0.0000 29.3517 0.0000
# 4 0.0000 0.0000 0.0000 41.0949 0.0000 3.9359
# 5 12.2488 0.7718 29.3517 0.0000 49.7566 0.0000
# 6 0.0000 0.0000 0.0000 3.9359 0.0000 32.3694
#
#
#
# Elastic Compliance Matrix: (Units=1/GPa)
#
#
# Indices 1 2 3 4 5 6 
#
# 1 0.016501 -0.002995 -0.003857 0.000000 -0.001740 0.000000
# 2 -0.002995 0.009101 -0.000928 0.000000 0.001143 0.000000
# 3 -0.003857 -0.000928 0.013656 0.000000 -0.007092 0.000000
# 4 0.000000 0.000000 0.000000 0.024621 0.000000 -0.002994
# 5 -0.001740 0.001143 -0.007092 0.000000 0.024692 0.000000
# 6 0.000000 0.000000 0.000000 -0.002994 0.000000 0.031257
#
#
# Mechanical properties :
#
#
# Convention : Reuss Voigt Hill
#
# Bulk Modulus (GPa) = 42.19580 47.85959 45.02769
# Shear Modulus (GPa) = 34.89447 39.35532 37.12489
#
# Velocity S-wave (km/s) = 3.78707 4.02186 3.90623
# Velocity P-wave (km/s) = 6.03866 6.42167 6.23311
#
# Compressibility (1/GPa) = 0.02369904
#
# Stress axis : x y z
#
# Youngs Moduli (GPa) = 60.60083 109.87413 73.22556
#
# Poissons Ratio (x) = 0.32909 0.28244
# Poissons Ratio (y) = 0.18151 0.06794
# Poissons Ratio (z) = 0.23374 0.10194
#
# Static dielectric constant tensor:
#      x y z
#    x 1.994340 0.000000 0.034830 
#    y 0.000000 1.907500 0.000000 
#    z 0.034830 0.000000 2.019740 
# 
# From -- ./inp_files/228186.got.cif
#   From: 2010.05.17/outbox.cif.g08.bks.cpg/sg15_115_cif.got.tgz:228186.got - 2010.06.03 18:47:42.
