data_PCOD9299936
_publ_section_title
;
Structure prediction by ZEFSAII (Michael W. Deem and Ramdas Pophale) SiO2 
 PCOD9299936
Probable space group: C 2/C
;
_chemical_formula_sum "Si O2"
_cell_formula_units_Z 28
_cell_length_a 6.998043
_cell_length_b 12.109285
_cell_length_c 13.790671
_cell_angle_alpha 90.000000
_cell_angle_beta 64.697747
_cell_angle_gamma 90.000000
_cell_volume 1056.526803
_symmetry_space_group_name_H-M "C 2/C"
_symmetry_group_IT_number 15
_symmetry_cell_setting 'monoclinic'
loop_
_space_group_symop_operation_xyz
x,y,z
-x,y,1/2-z
-x,-y,-z
x,-y,1/2+z
1/2+x,1/2+y,z
1/2-x,1/2+y,1/2-z
1/2-x,1/2-y,-z
1/2+x,1/2-y,1/2+z
loop_
_atom_site_type_symbol
_atom_site_label
_atom_site_fract_x
_atom_site_fract_y
_atom_site_fract_z
Si Si1 0.500000 0.216987 0.250000
Si Si2 0.672482 0.840642 0.441211
Si Si3 0.234420 0.076568 0.977851
Si Si4 0.642419 0.549929 0.312424
O O1 0.659126 0.125368 0.264419
O O2 0.323720 0.303362 0.322900
O O3 0.750000 0.750000 0.500000
O O4 0.719477 0.958374 0.480590
O O5 0.216597 0.050892 0.866586
O O6 0.430529 0.152319 0.961794
O O7 0.015474 0.110762 0.076531
O O8 0.500000 0.527805 0.250000
#
# Coordination Sequence:
#
# PCOD9299936 Si02
#       4
#     4   8   8   8
#     4  12  26  44  78 114 156 202 270 326 398 478
#     4  11  23  48  77 113 158 207 264 334 397 475
#     4  10  25  48  78 107 163 209 261 332 400 468
#     4  11  25  48  73 113 156 206 260 328 392 480
#
# _framework density 26.501930000000002
#
# number of rings (size 3 to 8) (size 9 to 14) (size 15 to 20)
#    0.000    1.143    2.857    1.714    6.000    1.143 
#   10.286    0.000    0.000    0.000    0.000    0.000 
#    0.000    0.000    0.000    0.000    0.000    0.000 
#
# Total GULP energy -78179.556798 kJ/mol
# GULP energy per Si atom -5584.254057 kJ/mol
# Density = 2.644161 g / cm^3
# Si number density = 26.501930 Si / 1000 Ang^3
#
#
#
# Elastic Constant Matrix: (Units=GPa)
#
#
# Indices 1 2 3 4 5 6 
#
# 1 234.9995 59.8700 57.5767 0.0000 3.8041 0.0000
# 2 59.8700 121.2539 15.9882 0.0000 7.6526 0.0000
# 3 57.5767 15.9882 83.1412 0.0000 14.5830 0.0000
# 4 0.0000 0.0000 0.0000 32.7710 0.0000 -11.2540
# 5 3.8041 7.6526 14.5830 0.0000 57.7631 0.0000
# 6 0.0000 0.0000 0.0000 -11.2540 0.0000 55.4105
#
#
#
# Elastic Compliance Matrix: (Units=1/GPa)
#
#
# Indices 1 2 3 4 5 6 
#
# 1 0.005756 -0.002412 -0.003675 0.000000 0.000868 0.000000
# 2 -0.002412 0.009503 0.000038 0.000000 -0.001110 0.000000
# 3 -0.003675 0.000038 0.015197 0.000000 -0.003600 0.000000
# 4 0.000000 0.000000 0.000000 0.032803 0.000000 0.006662
# 5 0.000868 -0.001110 -0.003600 0.000000 0.018311 0.000000
# 6 0.000000 0.000000 0.000000 0.006662 0.000000 0.019400
#
#
# Mechanical properties :
#
#
# Convention : Reuss Voigt Hill
#
# Bulk Modulus (GPa) = 54.47346 78.47380 66.47363
# Shear Modulus (GPa) = 41.95068 49.58623 45.76846
#
# Velocity S-wave (km/s) = 3.98292 4.33025 4.16021
# Velocity P-wave (km/s) = 6.46148 7.39434 6.94359
#
# Compressibility (1/GPa) = 0.01835756
#
# Stress axis : x y z
#
# Youngs Moduli (GPa) = 173.72585 105.22586 65.80429
#
# Poissons Ratio (x) = 0.25385 0.24181
# Poissons Ratio (y) = 0.41910 -0.00249
# Poissons Ratio (z) = 0.63838 -0.00398
#
# Static dielectric constant tensor:
#      x y z
#    x 2.024290 0.000000 -0.010110 
#    y 0.000000 2.102810 0.000000 
#    z -0.010110 0.000000 1.987390 
# 
# From -- ./inp_files/28168.got.cif
#   From: 2010.05.17/outbox.cif.g08.bks.cpg/sg15_15_cif.got.tgz:28168.got - 2010.06.03 18:47:42.
