data_PCOD9299919
_publ_section_title
;
Structure prediction by ZEFSAII (Michael W. Deem and Ramdas Pophale) SiO2 
 PCOD9299919
Probable space group: C 2/C
;
_chemical_formula_sum "Si O2"
_cell_formula_units_Z 56
_cell_length_a 31.770860
_cell_length_b 9.078858
_cell_length_c 10.251592
_cell_angle_alpha 90.000000
_cell_angle_beta 129.350514
_cell_angle_gamma 90.000000
_cell_volume 2286.594354
_symmetry_space_group_name_H-M "C 2/C"
_symmetry_group_IT_number 15
_symmetry_cell_setting 'monoclinic'
loop_
_space_group_symop_operation_xyz
x,y,z
-x,y,1/2-z
-x,-y,-z
x,-y,1/2+z
1/2+x,1/2+y,z
1/2-x,1/2+y,1/2-z
1/2-x,1/2-y,-z
1/2+x,1/2-y,1/2+z
loop_
_atom_site_type_symbol
_atom_site_label
_atom_site_fract_x
_atom_site_fract_y
_atom_site_fract_z
Si Si1 0.779182 0.552788 0.777701
Si Si2 0.713891 0.436194 0.895117
Si Si3 0.962573 0.831181 0.561937
Si Si4 0.618355 0.901697 0.644382
Si Si5 0.163169 0.194692 0.942500
Si Si6 0.897817 0.116623 0.441498
Si Si7 0.539548 0.860991 0.042178
O O1 0.743286 0.464677 0.814116
O O2 0.748629 0.617551 0.588802
O O3 0.826614 0.444435 0.819864
O O4 0.805552 0.687636 0.907471
O O5 0.701195 0.399440 0.424221
O O6 0.655271 0.360260 0.755426
O O7 0.925168 0.688894 0.529766
O O8 0.000000 0.890780 0.750000
O O9 0.007131 0.764962 0.553099
O O10 0.926661 0.969065 0.449422
O O11 0.595536 0.049073 0.666295
O O12 0.625595 0.789477 0.775635
O O13 0.128240 0.090676 0.967958
O O14 0.938082 0.256954 0.532978
O O15 0.500000 0.000000 0.000000
#
# Coordination Sequence:
#
# PCOD9299919 Si02
#       7
#     8   8   8   8   8   8   8
#     4  12  26  47  80 116 160 218 261 325 399 482
#     4  12  27  48  77 119 162 215 265 322 401 488
#     4  11  27  44  76 111 154 205 266 333 398 478
#     4  11  25  50  78 113 163 205 264 335 396 477
#     4  12  26  49  77 109 168 204 262 326 405 462
#     4  12  26  50  77 117 158 211 263 332 404 484
#     4  10  25  48  74 109 146 200 266 327 397 463
#
# _framework density 24.490570000000002
#
# number of rings (size 3 to 8) (size 9 to 14) (size 15 to 20)
#    0.000    0.571    5.714    0.857    4.000    2.857 
#    2.571    0.714    0.000    0.000    0.000    0.000 
#    0.000    0.000    0.000    0.000    0.000    0.000 
#
# Total GULP energy -156078.728814 kJ/mol
# GULP energy per Si atom -5574.240315 kJ/mol
# Density = 2.443483 g / cm^3
# Si number density = 24.490570 Si / 1000 Ang^3
#
#
#
# Elastic Constant Matrix: (Units=GPa)
#
#
# Indices 1 2 3 4 5 6 
#
# 1 106.4780 39.5233 39.5525 0.0000 -11.2372 0.0000
# 2 39.5233 87.2553 15.4052 0.0000 2.9120 0.0000
# 3 39.5525 15.4052 84.1645 0.0000 4.2068 0.0000
# 4 0.0000 0.0000 0.0000 37.1107 0.0000 21.8889
# 5 -11.2372 2.9120 4.2068 0.0000 25.1026 0.0000
# 6 0.0000 0.0000 0.0000 21.8889 0.0000 11.2578
#
#
#
# Elastic Compliance Matrix: (Units=1/GPa)
#
#
# Indices 1 2 3 4 5 6 
#
# 1 0.014789 -0.005866 -0.006294 0.000000 0.008355 0.000000
# 2 -0.005866 0.014196 0.000375 0.000000 -0.004336 0.000000
# 3 -0.006294 0.000375 0.015040 0.000000 -0.005381 0.000000
# 4 0.000000 0.000000 0.000000 -0.183538 0.000000 0.356858
# 5 0.008355 -0.004336 -0.005381 0.000000 0.044982 0.000000
# 6 0.000000 0.000000 0.000000 0.356858 0.000000 -0.605021
#
#
# Mechanical properties :
#
#
# Convention : Reuss Voigt Hill
#
# Bulk Modulus (GPa) = 48.88876 51.87331 50.38104
# Shear Modulus (GPa) = -7.47201 26.92201 9.72500
#
# Velocity S-wave (km/s) = -1.74860 3.31914 1.99488
# Velocity P-wave (km/s) = 3.99109 5.99298 5.09140
#
# Compressibility (1/GPa) = 0.02045460
#
# Stress axis : x y z
#
# Youngs Moduli (GPa) = 67.61853 70.44057 66.49151
#
# Poissons Ratio (x) = 0.41324 0.41848
# Poissons Ratio (y) = 0.39668 -0.02494
# Poissons Ratio (z) = 0.42558 -0.02643
#
# Static dielectric constant tensor:
#      x y z
#    x 1.806690 0.000000 -0.045840 
#    y 0.000000 2.032870 0.000000 
#    z -0.045840 0.000000 1.978230 
# 
# From -- ./inp_files/69433.got.cif
#   From: 2010.05.17/outbox.cif.g08.bks.cpg/sg15_35_cif.got.tgz:69433.got - 2010.06.03 18:47:42.
