data_PCOD9299878
_publ_section_title
;
Structure prediction by ZEFSAII (Michael W. Deem and Ramdas Pophale) SiO2 
 PCOD9299878
Probable space group: C 2/C
;
_chemical_formula_sum "Si O2"
_cell_formula_units_Z 40
_cell_length_a 13.940391
_cell_length_b 13.026420
_cell_length_c 13.961804
_cell_angle_alpha 90.000000
_cell_angle_beta 143.465102
_cell_angle_gamma 90.000000
_cell_volume 1509.337699
_symmetry_space_group_name_H-M "C 2/C"
_symmetry_group_IT_number 15
_symmetry_cell_setting 'monoclinic'
loop_
_space_group_symop_operation_xyz
x,y,z
-x,y,1/2-z
-x,-y,-z
x,-y,1/2+z
1/2+x,1/2+y,z
1/2-x,1/2+y,1/2-z
1/2-x,1/2-y,-z
1/2+x,1/2-y,1/2+z
loop_
_atom_site_type_symbol
_atom_site_label
_atom_site_fract_x
_atom_site_fract_y
_atom_site_fract_z
Si Si1 0.328926 0.851144 0.153984
Si Si2 0.280785 0.950535 0.317793
Si Si3 0.818769 0.429047 0.564079
Si Si4 0.707969 0.815939 0.678031
Si Si5 0.463841 0.342794 0.039385
O O1 0.500000 0.821169 0.250000
O O2 0.348877 0.896784 0.278002
O O3 0.160268 0.566804 0.130569
O O4 0.270763 0.950939 0.047616
O O5 0.315015 0.905707 0.449119
O O6 0.226351 0.749389 0.095200
O O7 0.087598 0.937911 0.147696
O O8 0.682930 0.361198 0.506568
O O9 0.000000 0.418038 0.750000
O O10 0.585910 0.752267 0.646694
O O11 0.878774 0.825061 0.869235
#
# Coordination Sequence:
#
# PCOD9299878 Si02
#       5
#     8   8   8   8   8
#     4  10  25  47  75 116 152 201 263 316 397 459
#     4  11  25  52  81 112 160 213 258 332 396 467
#     4  11  26  48  82 113 159 210 267 320 404 464
#     4  11  26  47  84 113 161 203 268 323 396 475
#     4  11  26  52  76 121 155 209 260 332 392 471
#
# _framework density 26.501688999999999
#
# number of rings (size 3 to 8) (size 9 to 14) (size 15 to 20)
#    0.000    1.200    2.000    1.200    8.400    8.800 
#    0.000   18.000    0.000    0.000    0.000    0.000 
#    0.000    0.000    0.000    0.000    0.000    0.000 
#
# Total GULP energy -112083.194306 kJ/mol
# GULP energy per Si atom -5604.159715 kJ/mol
# Density = 2.644137 g / cm^3
# Si number density = 26.501689 Si / 1000 Ang^3
#
#
#
# Elastic Constant Matrix: (Units=GPa)
#
#
# Indices 1 2 3 4 5 6 
#
# 1 181.4130 62.3095 32.8234 0.0000 15.9481 0.0000
# 2 62.3095 123.3381 3.9985 0.0000 26.9945 0.0000
# 3 32.8234 3.9985 132.4467 -0.0001 9.2065 -0.0001
# 4 0.0000 0.0000 -0.0001 39.8972 -0.0001 5.2176
# 5 15.9481 26.9945 9.2065 -0.0001 47.6565 -0.0001
# 6 0.0000 0.0000 -0.0001 5.2176 -0.0001 53.3687
#
#
#
# Elastic Compliance Matrix: (Units=1/GPa)
#
#
# Indices 1 2 3 4 5 6 
#
# 1 0.007005 -0.003472 -0.001627 0.000000 -0.000063 0.000000
# 2 -0.003472 0.010977 0.000893 0.000000 -0.005228 0.000000
# 3 -0.001627 0.000893 0.008032 0.000000 -0.001513 0.000000
# 4 0.000000 0.000000 0.000000 0.025389 0.000000 -0.002482
# 5 -0.000063 -0.005228 -0.001513 0.000000 0.024258 0.000000
# 6 0.000000 0.000000 0.000000 -0.002482 0.000000 0.018980
#
#
# Mechanical properties :
#
#
# Convention : Reuss Voigt Hill
#
# Bulk Modulus (GPa) = 56.81558 70.60672 63.71115
# Shear Modulus (GPa) = 45.90479 50.72224 48.31352
#
# Velocity S-wave (km/s) = 4.16642 4.37959 4.27433
# Velocity P-wave (km/s) = 6.68060 7.23012 6.96078
#
# Compressibility (1/GPa) = 0.01760081
#
# Stress axis : x y z
#
# Youngs Moduli (GPa) = 142.76042 91.09692 124.50887
#
# Poissons Ratio (x) = 0.31631 0.20254
# Poissons Ratio (y) = 0.49569 -0.11113
# Poissons Ratio (z) = 0.23223 -0.08131
#
# Static dielectric constant tensor:
#      x y z
#    x 2.018580 0.000000 0.003710 
#    y 0.000000 2.139630 0.000000 
#    z 0.003710 0.000000 2.062450 
# 
# From -- ./inp_files/91028.got.cif
#   From: 2010.05.17/outbox.cif.g08.bks.cpg/sg15_46_cif.got.tgz:91028.got - 2010.06.03 18:47:42.
