data_PCOD9299087
_publ_section_title
;
Structure prediction by ZEFSAII (Michael W. Deem and Ramdas Pophale) SiO2 
 PCOD9299087
Probable space group: C 2/C
;
_chemical_formula_sum "Si O2"
_cell_formula_units_Z 32
_cell_length_a 6.416404
_cell_length_b 7.028222
_cell_length_c 22.116835
_cell_angle_alpha 90.000000
_cell_angle_beta 89.308073
_cell_angle_gamma 90.000000
_cell_volume 997.306112
_symmetry_space_group_name_H-M "C 2/C"
_symmetry_group_IT_number 15
_symmetry_cell_setting 'monoclinic'
loop_
_space_group_symop_operation_xyz
x,y,z
-x,y,1/2-z
-x,-y,-z
x,-y,1/2+z
1/2+x,1/2+y,z
1/2-x,1/2+y,1/2-z
1/2-x,1/2-y,-z
1/2+x,1/2-y,1/2+z
loop_
_atom_site_type_symbol
_atom_site_label
_atom_site_fract_x
_atom_site_fract_y
_atom_site_fract_z
Si Si1 0.253110 0.723412 0.871628
Si Si2 0.000000 0.840621 0.250000
Si Si3 0.253848 0.654990 0.652280
Si Si4 0.500000 0.836605 0.250000
Si Si5 0.187179 0.574089 0.459311
O O1 0.446090 0.661634 0.828781
O O2 0.029418 0.671167 0.839974
O O3 0.288910 0.624396 0.936132
O O4 0.242231 0.949164 0.878649
O O5 0.000000 0.580526 0.250000
O O6 0.251052 0.837167 0.273756
O O7 0.000000 0.093412 0.250000
O O8 0.297331 0.825115 0.606492
O O9 0.250000 0.750000 0.500000
O O10 0.000000 0.500000 0.500000
#
# Coordination Sequence:
#
# PCOD9299087 Si02
#       5
#     8   4   8   4   8
#     4  11  26  46  80 111 157 193 257 334 412 483
#     4  10  26  42  78 128 134 188 258 336 430 480
#     4  11  26  46  80 111 157 193 257 334 412 483
#     4  10  24  46  78 124 148 188 250 336 418 480
#     4  12  31  52  72 109 159 222 278 320 392 500
#
# _framework density 32.086438999999999
#
# number of rings (size 3 to 8) (size 9 to 14) (size 15 to 20)
#    0.000    1.000    0.000    3.000   28.000    2.000 
#    0.000    0.000    0.000    0.000    0.000    0.000 
#    0.000    0.000    0.000    0.000    0.000    0.000 
#
# Total GULP energy -89378.915992 kJ/mol
# GULP energy per Si atom -5586.182250 kJ/mol
# Density = 3.201341 g / cm^3
# Si number density = 32.086439 Si / 1000 Ang^3
#
#
#
# Elastic Constant Matrix: (Units=GPa)
#
#
# Indices 1 2 3 4 5 6 
#
# 1 299.8487 103.6243 96.1224 0.0000 -34.4700 0.0000
# 2 103.6243 347.8414 82.0972 0.0000 -24.2457 0.0000
# 3 96.1224 82.0972 184.4650 0.0000 -35.3939 0.0000
# 4 0.0000 0.0000 0.0000 116.8889 0.0000 -4.6917
# 5 -34.4700 -24.2457 -35.3939 0.0000 95.4002 0.0000
# 6 0.0000 0.0000 0.0000 -4.6917 0.0000 110.1619
#
#
#
# Elastic Compliance Matrix: (Units=1/GPa)
#
#
# Indices 1 2 3 4 5 6 
#
# 1 0.004246 -0.000811 -0.001719 0.000000 0.000690 0.000000
# 2 -0.000811 0.003376 -0.001046 0.000000 0.000177 0.000000
# 3 -0.001719 -0.001046 0.007119 0.000000 0.001754 0.000000
# 4 0.000000 0.000000 0.000000 0.008570 0.000000 0.000365
# 5 0.000690 0.000177 0.001754 0.000000 0.011427 0.000000
# 6 0.000000 0.000000 0.000000 0.000365 0.000000 0.009093
#
#
# Mechanical properties :
#
#
# Convention : Reuss Voigt Hill
#
# Bulk Modulus (GPa) = 131.77714 155.09366 143.43540
# Shear Modulus (GPa) = 93.43778 101.17760 97.30769
#
# Velocity S-wave (km/s) = 5.40221 5.62150 5.51295
# Velocity P-wave (km/s) = 8.94821 9.51715 9.23706
#
# Compressibility (1/GPa) = 0.00758857
#
# Stress axis : x y z
#
# Youngs Moduli (GPa) = 235.53295 296.24069 140.47169
#
# Poissons Ratio (x) = 0.24025 0.24147
# Poissons Ratio (y) = 0.19102 0.14691
# Poissons Ratio (z) = 0.40488 0.30981
#
# Static dielectric constant tensor:
#      x y z
#    x -0.325570 0.000000 2.016000 
#    y 0.000000 2.293350 0.000000 
#    z 2.016000 0.000000 2.294260 
# 
# From -- ./inp_files/267142.got.cif
#   From: 2010.05.17/outbox.cif.g08.bks.cpg/sg15_134_cif.got.tgz:267142.got - 2010.06.03 18:47:42.
