data_PCOD9299260
_publ_section_title
;
Structure prediction by ZEFSAII (Michael W. Deem and Ramdas Pophale) SiO2 
 PCOD9299260
Probable space group: C 2/C
;
_chemical_formula_sum "Si O2"
_cell_formula_units_Z 28
_cell_length_a 10.467579
_cell_length_b 12.031752
_cell_length_c 9.989112
_cell_angle_alpha 90.000000
_cell_angle_beta 119.931613
_cell_angle_gamma 90.000000
_cell_volume 1090.263565
_symmetry_space_group_name_H-M "C 2/C"
_symmetry_group_IT_number 15
_symmetry_cell_setting 'monoclinic'
loop_
_space_group_symop_operation_xyz
x,y,z
-x,y,1/2-z
-x,-y,-z
x,-y,1/2+z
1/2+x,1/2+y,z
1/2-x,1/2+y,1/2-z
1/2-x,1/2-y,-z
1/2+x,1/2-y,1/2+z
loop_
_atom_site_type_symbol
_atom_site_label
_atom_site_fract_x
_atom_site_fract_y
_atom_site_fract_z
Si Si1 0.159281 0.990390 0.154603
Si Si2 0.500000 0.371787 0.750000
Si Si3 0.589807 0.846669 0.173103
Si Si4 0.136298 0.653266 0.405679
O O1 0.273475 0.065775 0.134231
O O2 0.133343 0.043729 0.288945
O O3 0.238042 0.870505 0.203520
O O4 0.000000 0.000000 0.000000
O O5 0.470062 0.280399 0.850877
O O6 0.500000 0.898965 0.250000
O O7 0.573471 0.888758 0.014820
O O8 0.250000 0.750000 0.500000
O O9 0.000000 0.697306 0.250000
#
# Coordination Sequence:
#
# PCOD9299260 Si02
#       4
#     8   4   8   8
#     4  12  26  44  78 115 154 203 266 323 398 477
#     4  10  24  48  70 108 154 202 248 328 386 460
#     4  10  25  50  74 110 154 204 260 319 398 465
#     4  12  27  48  79 112 158 207 261 329 398 469
#
# _framework density 25.681863
#
# number of rings (size 3 to 8) (size 9 to 14) (size 15 to 20)
#    0.857    0.000    2.857    2.571    4.000    8.000 
#    0.000    0.000    0.000    0.000    0.000    0.000 
#    0.000    0.000    0.000    0.000    0.000    0.000 
#
# Total GULP energy -78094.645053 kJ/mol
# GULP energy per Si atom -5578.188932 kJ/mol
# Density = 2.562341 g / cm^3
# Si number density = 25.681863 Si / 1000 Ang^3
#
#
#
# Elastic Constant Matrix: (Units=GPa)
#
#
# Indices 1 2 3 4 5 6 
#
# 1 207.2901 64.9920 72.8992 0.0000 -30.0972 0.0000
# 2 64.9920 85.6723 25.3597 0.0000 8.2480 0.0000
# 3 72.8992 25.3597 144.9936 0.0000 27.2888 0.0000
# 4 0.0000 0.0000 0.0000 18.0192 0.0000 8.6908
# 5 -30.0972 8.2480 27.2888 0.0000 54.6499 0.0000
# 6 0.0000 0.0000 0.0000 8.6908 0.0000 51.2403
#
#
#
# Elastic Compliance Matrix: (Units=1/GPa)
#
#
# Indices 1 2 3 4 5 6 
#
# 1 0.010629 -0.007260 -0.005941 0.000000 0.009916 0.000000
# 2 -0.007260 0.017305 0.002061 0.000000 -0.007639 0.000000
# 3 -0.005941 0.002061 0.011255 0.000000 -0.009203 0.000000
# 4 0.000000 0.000000 0.000000 0.060441 0.000000 -0.010251
# 5 0.009916 -0.007639 -0.009203 0.000000 0.029507 0.000000
# 6 0.000000 0.000000 0.000000 -0.010251 0.000000 0.021255
#
#
# Mechanical properties :
#
#
# Convention : Reuss Voigt Hill
#
# Bulk Modulus (GPa) = 59.13342 84.93974 72.03658
# Shear Modulus (GPa) = 28.04149 43.09555 35.56852
#
# Velocity S-wave (km/s) = 3.30794 4.10085 3.72555
# Velocity P-wave (km/s) = 6.13721 7.45441 6.82765
#
# Compressibility (1/GPa) = 0.01691091
#
# Stress axis : x y z
#
# Youngs Moduli (GPa) = 94.08132 57.78704 88.84790
#
# Poissons Ratio (x) = 0.41951 0.52781
# Poissons Ratio (y) = 0.68299 -0.18311
# Poissons Ratio (z) = 0.55889 -0.11909
#
# Static dielectric constant tensor:
#      x y z
#    x 2.031430 0.000000 -0.106230 
#    y 0.000000 2.059520 0.000000 
#    z -0.106230 0.000000 2.127990 
# 
# From -- ./inp_files/75722.got.cif
#   From: 2010.05.17/outbox.cif.g08.bks.cpg/sg15_38_cif.got.tgz:75722.got - 2010.06.03 18:47:42.
