data_PCOD9299105
_publ_section_title
;
Structure prediction by ZEFSAII (Michael W. Deem and Ramdas Pophale) SiO2 
 PCOD9299105
Probable space group: C 2/C
;
_chemical_formula_sum "Si O2"
_cell_formula_units_Z 48
_cell_length_a 13.482994
_cell_length_b 5.771586
_cell_length_c 28.672953
_cell_angle_alpha 90.000000
_cell_angle_beta 68.676265
_cell_angle_gamma 90.000000
_cell_volume 2078.527408
_symmetry_space_group_name_H-M "C 2/C"
_symmetry_group_IT_number 15
_symmetry_cell_setting 'monoclinic'
loop_
_space_group_symop_operation_xyz
x,y,z
-x,y,1/2-z
-x,-y,-z
x,-y,1/2+z
1/2+x,1/2+y,z
1/2-x,1/2+y,1/2-z
1/2-x,1/2-y,-z
1/2+x,1/2-y,1/2+z
loop_
_atom_site_type_symbol
_atom_site_label
_atom_site_fract_x
_atom_site_fract_y
_atom_site_fract_z
Si Si1 0.307616 0.752348 0.752919
Si Si2 0.322120 0.530971 0.047176
Si Si3 0.469075 0.623166 0.945039
Si Si4 0.623581 0.744830 0.099777
Si Si5 0.752635 0.622030 0.638753
Si Si6 0.539244 0.085293 0.346731
O O1 0.254617 0.502488 0.745378
O O2 0.314990 0.728274 0.807258
O O3 0.416639 0.780314 0.705421
O O4 0.421367 0.368017 0.045212
O O5 0.214923 0.390142 0.058237
O O6 0.295548 0.687394 0.096070
O O7 0.370009 0.672897 0.995671
O O8 0.447888 0.367390 0.928390
O O9 0.479869 0.768817 0.896526
O O10 0.685987 0.559464 0.120223
O O11 0.544375 0.881888 0.147520
O O12 0.854228 0.506726 0.646227
#
# Coordination Sequence:
#
# PCOD9299105 Si02
#       6
#     8   8   8   8   8   8
#     4  10  24  46  83 107 148 198 244 311 376 441
#     4  11  24  44  71 104 146 194 243 302 369 440
#     4  11  24  44  71 104 146 194 243 302 369 440
#     4  12  25  44  73 104 142 192 246 300 370 446
#     4  11  24  46  75 103 146 190 246 302 375 436
#     4  11  24  46  75 103 146 190 246 302 375 436
#
# _framework density 23.09327
#
# number of rings (size 3 to 8) (size 9 to 14) (size 15 to 20)
#    0.000    1.000    3.333    2.500    4.667    4.667 
#    0.000    5.000    0.000    0.000    0.000    0.000 
#    0.000    0.000    0.000    0.000    0.000    0.000 
#
# Total GULP energy -134124.228552 kJ/mol
# GULP energy per Si atom -5588.509523 kJ/mol
# Density = 2.304071 g / cm^3
# Si number density = 23.093270 Si / 1000 Ang^3
#
#
#
# Elastic Constant Matrix: (Units=GPa)
#
#
# Indices 1 2 3 4 5 6 
#
# 1 28.7133 -58.4330 -119.4668 0.0031 39.9000 -0.0013
# 2 -58.4330 -68.0850 -156.0413 0.0035 97.3160 -0.0015
# 3 -119.4668 -156.0413 -93.6375 0.0070 141.3967 -0.0028
# 4 0.0031 0.0035 0.0070 35.3522 -0.0035 0.7802
# 5 39.9000 97.3160 141.3967 -0.0035 -67.5675 0.0012
# 6 -0.0013 -0.0015 -0.0028 0.7802 0.0012 30.5783
#
#
#
# Elastic Compliance Matrix: (Units=1/GPa)
#
#
# Indices 1 2 3 4 5 6 
#
# 1 0.022245 -0.002741 0.004601 -0.000001 0.018817 0.000001
# 2 -0.002741 0.016766 -0.004434 0.000001 0.013250 0.000000
# 3 0.004601 -0.004434 0.006806 0.000000 0.010574 0.000000
# 4 -0.000001 0.000001 0.000000 0.028303 -0.000001 -0.000722
# 5 0.018817 0.013250 0.010574 -0.000001 0.037523 0.000001
# 6 0.000001 0.000000 0.000000 -0.000722 0.000001 0.032721
#
#
# Mechanical properties :
#
#
# Convention : Reuss Voigt Hill
#
# Bulk Modulus (GPa) = 24.58863 -88.98793 -32.19965
# Shear Modulus (GPa) = 30.66189 13.06804 21.86497
#
# Velocity S-wave (km/s) = 3.64777 2.38141 3.08037
# Velocity P-wave (km/s) = 5.33032 5.57282 1.14979
#
# Compressibility (1/GPa) = 0.04066921
#
# Stress axis : x y z
#
# Youngs Moduli (GPa) = 44.95421 59.64418 146.92698
#
# Poissons Ratio (x) = 0.16349 -0.67604
# Poissons Ratio (y) = 0.12322 0.65147
# Poissons Ratio (z) = -0.20684 0.26446
#
# Static dielectric constant tensor:
#      x y z
#    x 1.843270 0.000000 0.002500 
#    y 0.000000 1.980830 0.000000 
#    z 0.002500 0.000000 1.844860 
# 
# From -- ./inp_files/294430.got.cif
#   From: 2010.05.17/outbox.cif.g08.bks.cpg/sg15_148_cif.got.tgz:294430.got - 2010.06.03 18:47:42.
