data_PCOD9299289
_publ_section_title
;
Structure prediction by ZEFSAII (Michael W. Deem and Ramdas Pophale) SiO2 
 PCOD9299289
Probable space group: C 2/C
;
_chemical_formula_sum "Si O2"
_cell_formula_units_Z 36
_cell_length_a 5.053009
_cell_length_b 21.832190
_cell_length_c 12.282990
_cell_angle_alpha 90.000000
_cell_angle_beta 97.624613
_cell_angle_gamma 90.000000
_cell_volume 1343.057607
_symmetry_space_group_name_H-M "C 2/C"
_symmetry_group_IT_number 15
_symmetry_cell_setting 'monoclinic'
loop_
_space_group_symop_operation_xyz
x,y,z
-x,y,1/2-z
-x,-y,-z
x,-y,1/2+z
1/2+x,1/2+y,z
1/2-x,1/2+y,1/2-z
1/2-x,1/2-y,-z
1/2+x,1/2-y,1/2+z
loop_
_atom_site_type_symbol
_atom_site_label
_atom_site_fract_x
_atom_site_fract_y
_atom_site_fract_z
Si Si1 0.658398 0.163981 0.533830
Si Si2 0.996189 0.209339 0.373335
Si Si3 0.000000 0.505002 0.750000
Si Si4 0.318999 0.418343 0.632443
Si Si5 0.166507 0.091263 0.597555
O O1 0.524321 0.228725 0.559482
O O2 0.458381 0.115105 0.574432
O O3 0.751802 0.171375 0.413306
O O4 0.948915 0.145337 0.604894
O O5 0.216314 0.155350 0.385481
O O6 0.000000 0.230307 0.250000
O O7 0.075446 0.461203 0.653251
O O8 0.249793 0.546590 0.801218
O O9 0.500000 0.421709 0.750000
O O10 0.433523 0.438006 0.522031
#
# Coordination Sequence:
#
# PCOD9299289 Si02
#       5
#     8   8   4   8   8
#     4  10  24  48  73 112 152 204 254 329 395 466
#     4   9  21  45  75 111 149 199 254 325 393 466
#     4  12  28  46  78 112 160 218 260 318 382 474
#     4  10  25  46  73 112 147 207 257 323 384 456
#     4  11  27  48  76 109 163 203 261 320 390 471
#
# _framework density 26.804510000000001
#
# number of rings (size 3 to 8) (size 9 to 14) (size 15 to 20)
#    0.000    1.778    0.000    0.667   14.000    8.889 
#    0.000    0.000    0.000    0.000    0.000    0.000 
#    0.000    0.000    0.000    0.000    0.000    0.000 
#
# Total GULP energy -100312.355479 kJ/mol
# GULP energy per Si atom -5572.908638 kJ/mol
# Density = 2.674350 g / cm^3
# Si number density = 26.804510 Si / 1000 Ang^3
#
#
#
# Elastic Constant Matrix: (Units=GPa)
#
#
# Indices 1 2 3 4 5 6 
#
# 1 133.5930 50.5607 35.5706 0.0000 -12.6100 0.0000
# 2 50.5607 134.7439 58.9445 0.0000 -9.4862 0.0000
# 3 35.5706 58.9445 106.2543 0.0000 -3.1424 0.0000
# 4 0.0000 0.0000 0.0000 41.7501 0.0000 -11.1659
# 5 -12.6100 -9.4862 -3.1424 0.0000 37.9734 0.0000
# 6 0.0000 0.0000 0.0000 -11.1659 0.0000 26.5934
#
#
#
# Elastic Compliance Matrix: (Units=1/GPa)
#
#
# Indices 1 2 3 4 5 6 
#
# 1 0.009083 -0.002574 -0.001547 0.000000 0.002245 0.000000
# 2 -0.002574 0.010683 -0.005024 0.000000 0.001398 0.000000
# 3 -0.001547 -0.005024 0.012695 0.000000 -0.000718 0.000000
# 4 0.000000 0.000000 0.000000 0.026982 0.000000 0.011329
# 5 0.002245 0.001398 -0.000718 0.000000 0.027370 0.000000
# 6 0.000000 0.000000 0.000000 0.011329 0.000000 0.042360
#
#
# Mechanical properties :
#
#
# Convention : Reuss Voigt Hill
#
# Bulk Modulus (GPa) = 70.55450 73.86030 72.20740
# Shear Modulus (GPa) = 32.85465 36.56440 34.70952
#
# Velocity S-wave (km/s) = 3.50482 3.69740 3.60239
# Velocity P-wave (km/s) = 6.53891 6.77072 6.65582
#
# Compressibility (1/GPa) = 0.01417344
#
# Stress axis : x y z
#
# Youngs Moduli (GPa) = 110.09292 93.60425 78.77277
#
# Poissons Ratio (x) = 0.24091 0.12183
# Poissons Ratio (y) = 0.28335 0.39572
# Poissons Ratio (z) = 0.17027 0.47023
#
# Static dielectric constant tensor:
#      x y z
#    x 2.282960 0.000000 0.190080 
#    y 0.000000 2.102690 0.000000 
#    z 0.190080 0.000000 2.215410 
# 
# From -- ./inp_files/72485.got.cif
#   From: 2010.05.17/outbox.cif.g08.bks.cpg/sg15_37_cif.got.tgz:72485.got - 2010.06.03 18:47:42.
