data_PCOD9299654
_publ_section_title
;
Structure prediction by ZEFSAII (Michael W. Deem and Ramdas Pophale) SiO2 
 PCOD9299654
Probable space group: C 2/C
;
_chemical_formula_sum "Si O2"
_cell_formula_units_Z 52
_cell_length_a 9.188744
_cell_length_b 26.709207
_cell_length_c 17.213005
_cell_angle_alpha 90.000000
_cell_angle_beta 38.716468
_cell_angle_gamma 90.000000
_cell_volume 2642.276134
_symmetry_space_group_name_H-M "C 2/C"
_symmetry_group_IT_number 15
_symmetry_cell_setting 'monoclinic'
loop_
_space_group_symop_operation_xyz
x,y,z
-x,y,1/2-z
-x,-y,-z
x,-y,1/2+z
1/2+x,1/2+y,z
1/2-x,1/2+y,1/2-z
1/2-x,1/2-y,-z
1/2+x,1/2-y,1/2+z
loop_
_atom_site_type_symbol
_atom_site_label
_atom_site_fract_x
_atom_site_fract_y
_atom_site_fract_z
Si Si1 0.689049 0.966393 0.966092
Si Si2 0.000000 0.567333 0.250000
Si Si3 0.500000 0.765228 0.750000
Si Si4 0.108519 0.010808 0.871460
Si Si5 0.421354 0.900502 0.199785
Si Si6 0.550570 0.149975 0.355546
Si Si7 0.000000 0.885774 0.750000
Si Si8 0.263008 0.832636 0.131557
O O1 0.807257 0.921035 0.870513
O O2 0.907203 0.000667 0.894621
O O3 0.583667 0.941310 0.087894
O O4 0.500000 0.000000 0.000000
O O5 0.186831 0.530320 0.211859
O O6 0.951582 0.605113 0.341984
O O7 0.479358 0.800280 0.683618
O O8 0.282467 0.726921 0.846547
O O9 0.201730 0.065679 0.815488
O O10 0.000000 0.000000 0.000000
O O11 0.500000 0.880578 0.250000
O O12 0.390570 0.856201 0.151945
O O13 0.397540 0.153269 0.497317
O O14 0.826312 0.143271 0.262911
O O15 0.000000 0.853987 0.250000
#
# Coordination Sequence:
#
# PCOD9299654 Si02
#       8
#     8   4   4   8   8   8   4   8
#     4  12  26  41  63  94 142 189 238 277 331 409
#     4  11  24  42  66  99 141 188 228 283 336 412
#     4   9  24  48  75 104 126 177 236 297 368 430
#     4  12  24  39  62  94 137 189 232 275 333 401
#     4  12  25  42  61 100 140 177 233 286 338 412
#     4  11  23  46  72 102 139 175 237 287 361 430
#     4  12  24  42  67  99 139 187 230 292 344 410
#     4  10  25  44  73  99 132 177 230 293 358 425
#
# _framework density 19.680004
#
# number of rings (size 3 to 8) (size 9 to 14) (size 15 to 20)
#    0.462    0.308    5.385    1.385    6.462    0.000 
#    1.385    0.769    0.000    0.000    0.000    0.000 
#    0.000    0.000    0.000    0.000    0.000    0.000 
#
# Total GULP energy -144931.902834 kJ/mol
# GULP energy per Si atom -5574.303955 kJ/mol
# Density = 1.963521 g / cm^3
# Si number density = 19.680004 Si / 1000 Ang^3
#
#
#
# Elastic Constant Matrix: (Units=GPa)
#
#
# Indices 1 2 3 4 5 6 
#
# 1 160.2084 72.5824 57.7420 0.0000 8.0226 0.0000
# 2 72.5824 103.5414 45.2080 0.0000 6.7417 0.0000
# 3 57.7420 45.2080 101.7334 0.0000 18.0178 0.0000
# 4 0.0000 0.0000 0.0000 20.8674 0.0000 2.3630
# 5 8.0226 6.7417 18.0178 0.0000 40.3062 0.0000
# 6 0.0000 0.0000 0.0000 2.3630 0.0000 30.9249
#
#
#
# Elastic Compliance Matrix: (Units=1/GPa)
#
#
# Indices 1 2 3 4 5 6 
#
# 1 0.009902 -0.005562 -0.003219 0.000000 0.000398 0.000000
# 2 -0.005562 0.015113 -0.003592 0.000000 0.000185 0.000000
# 3 -0.003219 -0.003592 0.014154 0.000000 -0.005085 0.000000
# 4 0.000000 0.000000 0.000000 0.048340 0.000000 -0.003694
# 5 0.000398 0.000185 -0.005085 0.000000 0.026973 0.000000
# 6 0.000000 0.000000 0.000000 -0.003694 0.000000 0.032619
#
#
# Mechanical properties :
#
#
# Convention : Reuss Voigt Hill
#
# Bulk Modulus (GPa) = 69.33408 79.61647 74.47527
# Shear Modulus (GPa) = 28.30408 31.08311 29.69359
#
# Velocity S-wave (km/s) = 3.79649 3.97851 3.88857
# Velocity P-wave (km/s) = 7.38411 7.85163 7.62145
#
# Compressibility (1/GPa) = 0.01442292
#
# Stress axis : x y z
#
# Youngs Moduli (GPa) = 100.99119 66.16877 70.65319
#
# Poissons Ratio (x) = 0.36800 0.22745
# Poissons Ratio (y) = 0.56167 0.25378
# Poissons Ratio (z) = 0.32512 0.23767
#
# Static dielectric constant tensor:
#      x y z
#    x 1.604770 0.000000 -0.060510 
#    y 0.000000 1.710040 0.000000 
#    z -0.060510 0.000000 1.774450 
# 
# From -- ./inp_files/193682.got.cif
#   From: 2010.05.17/outbox.cif.g08.bks.cpg/sg15_97_cif.got.tgz:193682.got - 2010.06.03 18:47:42.
