data_PCOD9299004
_publ_section_title
;
Structure prediction by ZEFSAII (Michael W. Deem and Ramdas Pophale) SiO2 
 PCOD9299004
Probable space group: C 2/C
;
_chemical_formula_sum "Si O2"
_cell_formula_units_Z 44
_cell_length_a 5.273575
_cell_length_b 26.929544
_cell_length_c 13.077376
_cell_angle_alpha 90.000000
_cell_angle_beta 69.526996
_cell_angle_gamma 90.000000
_cell_volume 1739.878072
_symmetry_space_group_name_H-M "C 2/C"
_symmetry_group_IT_number 15
_symmetry_cell_setting 'monoclinic'
loop_
_space_group_symop_operation_xyz
x,y,z
-x,y,1/2-z
-x,-y,-z
x,-y,1/2+z
1/2+x,1/2+y,z
1/2-x,1/2+y,1/2-z
1/2-x,1/2-y,-z
1/2+x,1/2-y,1/2+z
loop_
_atom_site_type_symbol
_atom_site_label
_atom_site_fract_x
_atom_site_fract_y
_atom_site_fract_z
Si Si1 0.000000 0.876186 0.750000
Si Si2 0.317584 0.926926 0.538135
Si Si3 0.064102 0.224572 0.867115
Si Si4 0.612938 0.527470 0.617714
Si Si5 0.735497 0.879696 0.145005
Si Si6 0.567645 0.286930 0.880075
O O1 0.754900 0.906299 0.838522
O O2 0.880739 0.839521 0.679959
O O3 0.583650 0.954080 0.454279
O O4 0.331179 0.877171 0.465699
O O5 0.099280 0.972619 0.569491
O O6 0.180575 0.171661 0.816593
O O7 0.301674 0.263524 0.863326
O O8 0.812195 0.247439 0.841007
O O9 0.958790 0.208618 0.994958
O O10 0.500000 0.520103 0.750000
O O11 0.448667 0.576225 0.609551
O O12 0.500000 0.899685 0.250000
#
# Coordination Sequence:
#
# PCOD9299004 Si02
#       6
#     4   8   8   8   8   8
#     4  12  24  48  76 110 162 206 260 326 408 476
#     4  11  25  48  73 114 153 200 259 328 397 479
#     4  10  24  46  74 107 150 203 261 325 381 466
#     4  11  24  46  77 109 154 199 259 327 392 477
#     4  12  25  44  76 107 149 202 264 317 401 469
#     4  10  24  46  73 107 152 200 262 322 389 461
#
# _framework density 25.28913
#
# number of rings (size 3 to 8) (size 9 to 14) (size 15 to 20)
#    0.000    1.091    4.545    0.545    3.818    2.182 
#    3.273    0.000    0.000    1.091    0.000    0.000 
#    0.000    0.000    0.000    0.000    0.000    0.000 
#
# Total GULP energy -122585.138922 kJ/mol
# GULP energy per Si atom -5572.051769 kJ/mol
# Density = 2.523157 g / cm^3
# Si number density = 25.289130 Si / 1000 Ang^3
#
#
#
# Elastic Constant Matrix: (Units=GPa)
#
#
# Indices 1 2 3 4 5 6 
#
# 1 61.7745 17.2141 17.4662 0.0000 -0.4225 0.0000
# 2 17.2141 96.3255 16.0666 0.0000 -9.1081 0.0000
# 3 17.4662 16.0666 154.7780 0.0000 -30.7424 0.0000
# 4 0.0000 0.0000 0.0000 -17.7138 0.0000 -48.4869
# 5 -0.4225 -9.1081 -30.7424 0.0000 28.8375 0.0000
# 6 0.0000 0.0000 0.0000 -48.4869 0.0000 -3.8437
#
#
#
# Elastic Compliance Matrix: (Units=1/GPa)
#
#
# Indices 1 2 3 4 5 6 
#
# 1 0.017674 -0.003074 -0.002305 0.000000 -0.003169 0.000000
# 2 -0.003074 0.011274 -0.000159 0.000000 0.003346 0.000000
# 3 -0.002305 -0.000159 0.008526 0.000000 0.009005 0.000000
# 4 0.000000 0.000000 0.000000 0.001684 0.000000 -0.021239
# 5 -0.003169 0.003346 0.009005 0.000000 0.045288 0.000000
# 6 0.000000 0.000000 0.000000 -0.021239 0.000000 0.007759
#
#
# Mechanical properties :
#
#
# Convention : Reuss Voigt Hill
#
# Bulk Modulus (GPa) = 37.87939 46.04132 41.96035
# Shear Modulus (GPa) = 44.61108 18.93141 31.77124
#
# Velocity S-wave (km/s) = 4.20461 2.73902 3.54831
# Velocity P-wave (km/s) = 6.21149 5.31493 5.78062
#
# Compressibility (1/GPa) = 0.02639958
#
# Stress axis : x y z
#
# Youngs Moduli (GPa) = 56.57882 88.70224 117.28656
#
# Poissons Ratio (x) = 0.27265 0.27033
# Poissons Ratio (y) = 0.17391 0.01861
# Poissons Ratio (z) = 0.13041 0.01408
#
# Static dielectric constant tensor:
#      x y z
#    x 2.270240 0.000000 0.178860 
#    y 0.000000 1.972340 0.000000 
#    z 0.178860 0.000000 2.202530 
# 
# From -- ./inp_files/129982.got.cif
#   From: 2010.05.17/outbox.cif.g08.bks.cpg/sg15_65_cif.got.tgz:129982.got - 2010.06.03 18:47:42.
