data_PCOD9299259
_publ_section_title
;
Structure prediction by ZEFSAII (Michael W. Deem and Ramdas Pophale) SiO2 
 PCOD9299259
Probable space group: C 2/C
;
_chemical_formula_sum "Si O2"
_cell_formula_units_Z 36
_cell_length_a 13.081146
_cell_length_b 8.078355
_cell_length_c 19.137512
_cell_angle_alpha 90.000000
_cell_angle_beta 130.713891
_cell_angle_gamma 90.000000
_cell_volume 1532.885732
_symmetry_space_group_name_H-M "C 2/C"
_symmetry_group_IT_number 15
_symmetry_cell_setting 'monoclinic'
loop_
_space_group_symop_operation_xyz
x,y,z
-x,y,1/2-z
-x,-y,-z
x,-y,1/2+z
1/2+x,1/2+y,z
1/2-x,1/2+y,1/2-z
1/2-x,1/2-y,-z
1/2+x,1/2-y,1/2+z
loop_
_atom_site_type_symbol
_atom_site_label
_atom_site_fract_x
_atom_site_fract_y
_atom_site_fract_z
Si Si1 0.516857 0.951060 0.108298
Si Si2 0.499217 0.430446 0.577126
Si Si3 0.687066 0.466235 0.784155
Si Si4 0.739423 0.415000 0.450385
Si Si5 0.000000 0.670678 0.750000
O O1 0.537556 0.761765 0.093901
O O2 0.656433 0.047978 0.165182
O O3 0.472567 0.937190 0.169672
O O4 0.391524 0.022284 0.010663
O O5 0.500000 0.500000 0.500000
O O6 0.603304 0.514350 0.678026
O O7 0.353465 0.458168 0.547383
O O8 0.677606 0.592320 0.845158
O O9 0.622091 0.295340 0.783961
O O10 0.750000 0.250000 0.500000
#
# Coordination Sequence:
#
# PCOD9299259 Si02
#       5
#     8   8   8   8   4
#     4  11  25  44  76 101 140 191 238 290 371 429
#     4  11  25  45  72 105 140 186 244 295 367 441
#     4  11  23  47  70 100 144 184 233 306 361 417
#     4  12  25  45  68 107 146 187 240 299 360 432
#     4  10  24  48  70 108 142 190 234 306 358 422
#
# _framework density 23.485116999999999
#
# number of rings (size 3 to 8) (size 9 to 14) (size 15 to 20)
#    0.000    0.889    4.444    2.667    3.111    5.333 
#    4.000    0.000    0.000    0.000    0.000    0.000 
#    0.000    0.000    0.000    0.000    0.000    0.000 
#
# Total GULP energy -100777.437616 kJ/mol
# GULP energy per Si atom -5598.746534 kJ/mol
# Density = 2.343166 g / cm^3
# Si number density = 23.485117 Si / 1000 Ang^3
#
#
#
# Elastic Constant Matrix: (Units=GPa)
#
#
# Indices 1 2 3 4 5 6 
#
# 1 138.8244 20.3734 76.2048 0.0000 10.3271 0.0000
# 2 20.3734 53.5043 31.9592 0.0000 0.4549 0.0000
# 3 76.2048 31.9592 172.9283 0.0000 -18.8517 0.0000
# 4 0.0000 0.0000 0.0000 22.5596 0.0000 -3.1249
# 5 10.3271 0.4549 -18.8517 0.0000 71.4006 0.0000
# 6 0.0000 0.0000 0.0000 -3.1249 0.0000 15.7697
#
#
#
# Elastic Compliance Matrix: (Units=1/GPa)
#
#
# Indices 1 2 3 4 5 6 
#
# 1 0.010034 -0.001108 -0.004504 0.000000 -0.002633 0.000000
# 2 -0.001108 0.021231 -0.003534 0.000000 -0.000908 0.000000
# 3 -0.004504 -0.003534 0.008746 0.000000 0.002983 0.000000
# 4 0.000000 0.000000 0.000000 0.045578 0.000000 0.009032
# 5 -0.002633 -0.000908 0.002983 0.000000 0.015180 0.000000
# 6 0.000000 0.000000 0.000000 0.009032 0.000000 0.065202
#
#
# Mechanical properties :
#
#
# Convention : Reuss Voigt Hill
#
# Bulk Modulus (GPa) = 46.04484 69.14797 57.59640
# Shear Modulus (GPa) = 26.10909 37.72728 31.91818
#
# Velocity S-wave (km/s) = 3.33788 4.01238 3.69057
# Velocity P-wave (km/s) = 5.87399 7.13953 6.53745
#
# Compressibility (1/GPa) = 0.02171796
#
# Stress axis : x y z
#
# Youngs Moduli (GPa) = 99.65794 47.10108 114.33769
#
# Poissons Ratio (x) = 0.05219 0.51500
# Poissons Ratio (y) = 0.11043 0.40412
# Poissons Ratio (z) = 0.44888 0.16648
#
# Static dielectric constant tensor:
#      x y z
#    x 1.881870 0.000000 -0.044700 
#    y 0.000000 1.865530 0.000000 
#    z -0.044700 0.000000 1.958810 
# 
# From -- ./inp_files/242878.got.cif
#   From: 2010.05.17/outbox.cif.g08.bks.cpg/sg15_122_cif.got.tgz:242878.got - 2010.06.03 18:47:42.
