data_PCOD9299311
_publ_section_title
;
Structure prediction by ZEFSAII (Michael W. Deem and Ramdas Pophale) SiO2 
 PCOD9299311
Probable space group: C 2/C
;
_chemical_formula_sum "Si O2"
_cell_formula_units_Z 48
_cell_length_a 27.170537
_cell_length_b 5.429013
_cell_length_c 14.370661
_cell_angle_alpha 90.000000
_cell_angle_beta 61.688777
_cell_angle_gamma 90.000000
_cell_volume 1866.243133
_symmetry_space_group_name_H-M "C 2/C"
_symmetry_group_IT_number 15
_symmetry_cell_setting 'monoclinic'
loop_
_space_group_symop_operation_xyz
x,y,z
-x,y,1/2-z
-x,-y,-z
x,-y,1/2+z
1/2+x,1/2+y,z
1/2-x,1/2+y,1/2-z
1/2-x,1/2-y,-z
1/2+x,1/2-y,1/2+z
loop_
_atom_site_type_symbol
_atom_site_label
_atom_site_fract_x
_atom_site_fract_y
_atom_site_fract_z
Si Si1 0.089076 0.719663 0.560858
Si Si2 0.571472 0.355688 0.788577
Si Si3 0.732091 0.816428 0.668079
Si Si4 0.211410 0.540881 0.494399
Si Si5 0.656041 0.554584 0.849058
Si Si6 0.508522 0.860597 0.853341
O O1 0.071292 0.844757 0.675092
O O2 0.148924 0.605149 0.527914
O O3 0.105113 0.913463 0.466508
O O4 0.048196 0.500904 0.563952
O O5 0.630998 0.406592 0.783722
O O6 0.531186 0.586003 0.856204
O O7 0.552254 0.081535 0.833883
O O8 0.757755 0.548134 0.625629
O O9 0.679728 0.805796 0.782713
O O10 0.708581 0.866139 0.586446
O O11 0.788215 0.958909 0.648005
O O12 0.250000 0.750000 0.500000
O O13 0.500000 0.851010 0.750000
#
# Coordination Sequence:
#
# PCOD9299311 Si02
#       6
#     8   8   8   8   8   8
#     4  11  25  47  79 107 146 206 251 317 397 455
#     4  11  27  48  76 108 150 198 256 321 380 455
#     4  11  27  44  69 113 155 194 256 318 375 467
#     4  11  23  48  75 105 148 203 255 309 390 462
#     4  12  27  44  75 112 152 203 253 319 385 466
#     4  10  24  48  76 107 146 194 257 319 382 451
#
# _framework density 25.720123000000001
#
# number of rings (size 3 to 8) (size 9 to 14) (size 15 to 20)
#    0.000    1.000    1.667    3.500    9.333    4.000 
#    0.000    0.000    0.000    1.000    0.000    0.000 
#    0.000    0.000    0.000    0.000    0.000    0.000 
#
# Total GULP energy -133992.087505 kJ/mol
# GULP energy per Si atom -5583.003646 kJ/mol
# Density = 2.566158 g / cm^3
# Si number density = 25.720123 Si / 1000 Ang^3
#
#
#
# Elastic Constant Matrix: (Units=GPa)
#
#
# Indices 1 2 3 4 5 6 
#
# 1 112.9148 10.2762 15.4614 0.0000 -1.7190 -0.0002
# 2 10.2762 72.5139 15.4369 0.0003 -3.2047 0.0005
# 3 15.4614 15.4369 107.5141 0.0000 -0.6584 0.0000
# 4 0.0000 0.0003 0.0000 23.0396 0.0000 1.3443
# 5 -1.7190 -3.2047 -0.6584 0.0000 44.5495 0.0000
# 6 -0.0002 0.0005 0.0000 1.3443 0.0000 52.9175
#
#
#
# Elastic Compliance Matrix: (Units=1/GPa)
#
#
# Indices 1 2 3 4 5 6 
#
# 1 0.009113 -0.001033 -0.001161 0.000000 0.000260 0.000000
# 2 -0.001033 0.014386 -0.001911 0.000000 0.000967 0.000000
# 3 -0.001161 -0.001911 0.009742 0.000000 -0.000038 0.000000
# 4 0.000000 0.000000 0.000000 0.043468 0.000000 -0.001104
# 5 0.000260 0.000967 -0.000038 0.000000 0.022526 0.000000
# 6 0.000000 0.000000 0.000000 -0.001104 0.000000 0.018925
#
#
# Mechanical properties :
#
#
# Convention : Reuss Voigt Hill
#
# Bulk Modulus (GPa) = 39.94827 41.69909 40.82368
# Shear Modulus (GPa) = 37.11557 40.88590 39.00073
#
# Velocity S-wave (km/s) = 3.80288 3.99136 3.89826
# Velocity P-wave (km/s) = 5.90323 6.12284 6.01404
#
# Compressibility (1/GPa) = 0.02503237
#
# Stress axis : x y z
#
# Youngs Moduli (GPa) = 109.73190 69.51010 102.64641
#
# Poissons Ratio (x) = 0.07179 0.11914
# Poissons Ratio (y) = 0.11334 0.19617
# Poissons Ratio (z) = 0.12736 0.13284
#
# Static dielectric constant tensor:
#      x y z
#    x 2.079410 0.000000 0.109630 
#    y 0.000000 2.239610 0.000000 
#    z 0.109630 0.000000 2.260590 
# 
# From -- ./inp_files/179968.got.cif
#   From: 2010.05.17/outbox.cif.g08.bks.cpg/sg15_90_cif.got.tgz:179968.got - 2010.06.03 18:47:42.
