data_PCOD9299209
_publ_section_title
;
Structure prediction by ZEFSAII (Michael W. Deem and Ramdas Pophale) SiO2 
 PCOD9299209
Probable space group: C 2/C
;
_chemical_formula_sum "Si O2"
_cell_formula_units_Z 40
_cell_length_a 14.720864
_cell_length_b 5.556388
_cell_length_c 20.422746
_cell_angle_alpha 90.000000
_cell_angle_beta 77.233735
_cell_angle_gamma 90.000000
_cell_volume 1629.180318
_symmetry_space_group_name_H-M "C 2/C"
_symmetry_group_IT_number 15
_symmetry_cell_setting 'monoclinic'
loop_
_space_group_symop_operation_xyz
x,y,z
-x,y,1/2-z
-x,-y,-z
x,-y,1/2+z
1/2+x,1/2+y,z
1/2-x,1/2+y,1/2-z
1/2-x,1/2-y,-z
1/2+x,1/2-y,1/2+z
loop_
_atom_site_type_symbol
_atom_site_label
_atom_site_fract_x
_atom_site_fract_y
_atom_site_fract_z
Si Si1 0.862346 0.255743 0.403821
Si Si2 0.049284 0.908170 0.926547
Si Si3 0.696580 0.942358 0.462853
Si Si4 0.862985 0.103987 0.705444
Si Si5 0.357674 0.095447 0.765115
O O1 0.846188 0.375801 0.477163
O O2 0.862937 0.431008 0.342396
O O3 0.962894 0.139007 0.392861
O O4 0.777278 0.069971 0.408293
O O5 0.115550 0.685036 0.934777
O O6 0.114790 0.086395 0.875384
O O7 0.000000 0.000000 0.000000
O O8 0.750000 0.750000 0.500000
O O9 0.752051 0.104649 0.734089
O O10 0.899992 0.358198 0.725600
O O11 0.895244 0.855106 0.735146
#
# Coordination Sequence:
#
# PCOD9299209 Si02
#       5
#     8   8   8   8   8
#     4  11  26  44  74 111 148 204 251 322 386 461
#     4  12  26  46  74 115 150 198 254 322 389 467
#     4  11  24  45  74 107 153 198 253 309 386 469
#     4  10  25  46  77 106 143 200 250 308 375 456
#     4  10  24  47  78 103 145 202 250 306 377 451
#
# _framework density 24.552222
#
# number of rings (size 3 to 8) (size 9 to 14) (size 15 to 20)
#    0.000    1.200    2.000    1.800   14.000    2.400 
#    0.000    2.000    0.000    0.000    0.000    0.000 
#    0.000    0.000    0.000    0.000    0.000    0.000 
#
# Total GULP energy -111967.257621 kJ/mol
# GULP energy per Si atom -5598.362881 kJ/mol
# Density = 2.449634 g / cm^3
# Si number density = 24.552222 Si / 1000 Ang^3
#
#
#
# Elastic Constant Matrix: (Units=GPa)
#
#
# Indices 1 2 3 4 5 6 
#
# 1 98.7214 45.7735 18.7444 0.0000 -10.4459 0.0000
# 2 45.7735 138.9252 60.1768 0.0000 -3.0083 0.0001
# 3 18.7444 60.1768 112.6987 0.0000 -4.3976 0.0000
# 4 0.0000 0.0000 0.0000 36.1696 0.0000 19.7118
# 5 -10.4459 -3.0083 -4.3976 0.0000 29.8797 0.0000
# 6 0.0000 0.0001 0.0000 19.7118 0.0000 21.0541
#
#
#
# Elastic Compliance Matrix: (Units=1/GPa)
#
#
# Indices 1 2 3 4 5 6 
#
# 1 0.012408 -0.004131 0.000297 0.000000 0.003966 0.000000
# 2 -0.004131 0.010740 -0.005091 0.000000 -0.001112 0.000000
# 3 0.000297 -0.005091 0.011593 0.000000 0.001297 0.000000
# 4 0.000000 0.000000 0.000000 0.056451 0.000000 -0.052852
# 5 0.003966 -0.001112 0.001297 0.000000 0.034933 0.000000
# 6 0.000000 0.000000 0.000000 -0.052852 0.000000 0.096979
#
#
# Mechanical properties :
#
#
# Convention : Reuss Voigt Hill
#
# Bulk Modulus (GPa) = 59.20439 66.63719 62.92079
# Shear Modulus (GPa) = 20.27697 32.46407 26.37052
#
# Velocity S-wave (km/s) = 2.87691 3.64021 3.28084
# Velocity P-wave (km/s) = 5.93309 6.69837 6.32731
#
# Compressibility (1/GPa) = 0.01689064
#
# Stress axis : x y z
#
# Youngs Moduli (GPa) = 80.59218 93.10577 86.25846
#
# Poissons Ratio (x) = 0.38462 -0.02560
# Poissons Ratio (y) = 0.33292 0.43917
# Poissons Ratio (z) = -0.02392 0.47403
#
# Static dielectric constant tensor:
#      x y z
#    x 1.800660 0.000000 -0.028850 
#    y 0.000000 1.943750 0.000000 
#    z -0.028850 0.000000 1.927030 
# 
# From -- ./inp_files/271835.got.cif
#   From: 2010.05.17/outbox.cif.g08.bks.cpg/sg15_136_cif.got.tgz:271835.got - 2010.06.03 18:47:42.
