data_PCOD9299876
_publ_section_title
;
Structure prediction by ZEFSAII (Michael W. Deem and Ramdas Pophale) SiO2 
 PCOD9299876
Probable space group: C 2/C
;
_chemical_formula_sum "Si O2"
_cell_formula_units_Z 40
_cell_length_a 18.114444
_cell_length_b 12.079623
_cell_length_c 17.117847
_cell_angle_alpha 90.000000
_cell_angle_beta 153.075402
_cell_angle_gamma 90.000000
_cell_volume 1696.097294
_symmetry_space_group_name_H-M "C 2/C"
_symmetry_group_IT_number 15
_symmetry_cell_setting 'monoclinic'
loop_
_space_group_symop_operation_xyz
x,y,z
-x,y,1/2-z
-x,-y,-z
x,-y,1/2+z
1/2+x,1/2+y,z
1/2-x,1/2+y,1/2-z
1/2-x,1/2-y,-z
1/2+x,1/2-y,1/2+z
loop_
_atom_site_type_symbol
_atom_site_label
_atom_site_fract_x
_atom_site_fract_y
_atom_site_fract_z
Si Si1 0.220949 0.602830 0.353276
Si Si2 0.910219 0.721484 0.581565
Si Si3 0.811506 0.008366 0.097454
Si Si4 0.094595 0.168129 0.687321
Si Si5 0.287354 0.131292 0.711542
O O1 0.500000 0.473772 0.750000
O O2 0.222337 0.554637 0.442224
O O3 0.111308 0.710071 0.239483
O O4 0.405017 0.637078 0.504187
O O5 0.783053 0.619751 0.467760
O O6 0.820102 0.830584 0.465085
O O7 0.000000 0.728685 0.750000
O O8 0.044110 0.693687 0.642701
O O9 0.676998 0.001353 0.758136
O O10 0.821543 0.923101 0.178490
O O11 0.187598 0.164397 0.693159
#
# Coordination Sequence:
#
# PCOD9299876 Si02
#       5
#     8   8   8   8   8
#     4  11  25  47  70 106 144 188 238 288 355 428
#     4  12  27  45  73 104 146 185 244 286 355 422
#     4  10  25  47  75 102 142 192 237 294 350 424
#     4  11  26  45  75 102 147 185 238 293 360 416
#     4  12  28  45  73 108 145 185 237 299 356 418
#
# _framework density 23.583553999999999
#
# number of rings (size 3 to 8) (size 9 to 14) (size 15 to 20)
#    0.000    0.800    2.000    3.000   11.200    0.800 
#    0.000    0.000    0.000    0.000    0.000    0.000 
#    0.000    0.000    0.000    0.000    0.000    0.000 
#
# Total GULP energy -112142.457850 kJ/mol
# GULP energy per Si atom -5607.122892 kJ/mol
# Density = 2.352988 g / cm^3
# Si number density = 23.583554 Si / 1000 Ang^3
#
#
#
# Elastic Constant Matrix: (Units=GPa)
#
#
# Indices 1 2 3 4 5 6 
#
# 1 113.4126 13.3269 16.9497 -0.0001 3.0730 -0.0001
# 2 13.3269 127.8420 25.9267 -0.0001 -11.0358 -0.0001
# 3 16.9497 25.9267 29.5962 -0.0001 -2.9333 0.0000
# 4 -0.0001 -0.0001 -0.0001 68.6129 -0.0001 17.7095
# 5 3.0730 -11.0358 -2.9333 -0.0001 26.1107 -0.0001
# 6 -0.0001 -0.0001 0.0000 17.7095 -0.0001 34.3806
#
#
#
# Elastic Compliance Matrix: (Units=1/GPa)
#
#
# Indices 1 2 3 4 5 6 
#
# 1 0.009725 -0.000004 -0.005744 0.000000 -0.001791 0.000000
# 2 -0.000004 0.009770 -0.008239 0.000000 0.003204 0.000000
# 3 -0.005744 -0.008239 0.044513 0.000000 0.002194 0.000000
# 4 0.000000 0.000000 0.000000 0.016809 0.000000 -0.008659
# 5 -0.001791 0.003204 0.002194 0.000000 0.040110 0.000000
# 6 0.000000 0.000000 0.000000 -0.008659 0.000000 0.033546
#
#
# Mechanical properties :
#
#
# Convention : Reuss Voigt Hill
#
# Bulk Modulus (GPa) = 27.75115 42.58417 35.16766
# Shear Modulus (GPa) = 25.71259 40.13067 32.92163
#
# Velocity S-wave (km/s) = 3.30552 4.12957 3.74030
# Velocity P-wave (km/s) = 5.13432 6.39012 5.79633
#
# Compressibility (1/GPa) = 0.03603454
#
# Stress axis : x y z
#
# Youngs Moduli (GPa) = 102.83066 102.35376 22.46556
#
# Poissons Ratio (x) = 0.00036 0.12904
# Poissons Ratio (y) = 0.00036 0.18510
# Poissons Ratio (z) = 0.59064 0.84330
#
# Static dielectric constant tensor:
#      x y z
#    x 1.863220 0.000000 -0.009840 
#    y 0.000000 1.854940 0.000000 
#    z -0.009840 0.000000 1.898390 
# 
# From -- ./inp_files/215133.got.cif
#   From: 2010.05.17/outbox.cif.g08.bks.cpg/sg15_108_cif.got.tgz:215133.got - 2010.06.03 18:47:42.
