data_PCOD9299656
_publ_section_title
;
Structure prediction by ZEFSAII (Michael W. Deem and Ramdas Pophale) SiO2 
 PCOD9299656
Probable space group: C 2/C
;
_chemical_formula_sum "Si O2"
_cell_formula_units_Z 40
_cell_length_a 16.032017
_cell_length_b 11.535934
_cell_length_c 9.251874
_cell_angle_alpha 90.000000
_cell_angle_beta 72.364668
_cell_angle_gamma 90.000000
_cell_volume 1630.667339
_symmetry_space_group_name_H-M "C 2/C"
_symmetry_group_IT_number 15
_symmetry_cell_setting 'monoclinic'
loop_
_space_group_symop_operation_xyz
x,y,z
-x,y,1/2-z
-x,-y,-z
x,-y,1/2+z
1/2+x,1/2+y,z
1/2-x,1/2+y,1/2-z
1/2-x,1/2-y,-z
1/2+x,1/2-y,1/2+z
loop_
_atom_site_type_symbol
_atom_site_label
_atom_site_fract_x
_atom_site_fract_y
_atom_site_fract_z
Si Si1 0.174788 0.955656 0.804062
Si Si2 0.244619 0.386064 0.027891
Si Si3 0.573571 0.901674 0.304723
Si Si4 0.393495 0.715393 0.966288
Si Si5 0.500000 0.122945 0.250000
Si Si6 0.500000 0.523172 0.750000
O O1 0.240796 0.946354 0.634905
O O2 0.184228 0.071841 0.891811
O O3 0.186481 0.853938 0.917709
O O4 0.079815 0.951553 0.777358
O O5 0.155272 0.417482 0.154959
O O6 0.250000 0.250000 0.000000
O O7 0.500000 0.837474 0.250000
O O8 0.591998 0.816778 0.425085
O O9 0.534349 0.030086 0.349406
O O10 0.416049 0.793755 0.815602
O O11 0.457728 0.607038 0.894931
#
# Coordination Sequence:
#
# PCOD9299656 Si02
#       6
#     8   8   8   8   4   4
#     4  12  27  47  75 112 150 194 253 310 379 453
#     4  12  28  49  73 114 155 196 248 317 377 442
#     4  10  25  44  74 101 149 192 252 295 380 441
#     4  11  22  44  71 106 142 193 249 305 367 440
#     4   9  24  41  70 106 140 199 250 299 364 456
#     4  11  26  45  74 110 144 195 246 307 380 454
#
# _framework density 24.529836
#
# number of rings (size 3 to 8) (size 9 to 14) (size 15 to 20)
#    0.600    0.400    4.000    1.200    7.000    0.000 
#    3.600    3.000    0.000    0.000    0.000    0.000 
#    0.000    0.000    0.000    0.000    0.000    0.000 
#
# Total GULP energy -111356.136836 kJ/mol
# GULP energy per Si atom -5567.806842 kJ/mol
# Density = 2.447401 g / cm^3
# Si number density = 24.529836 Si / 1000 Ang^3
#
#
#
# Elastic Constant Matrix: (Units=GPa)
#
#
# Indices 1 2 3 4 5 6 
#
# 1 53.7336 3.1459 10.6991 0.0000 -9.3180 0.0000
# 2 3.1459 114.2146 34.6262 0.0000 13.4378 0.0000
# 3 10.6991 34.6262 132.8399 0.0000 -18.9697 0.0000
# 4 0.0000 0.0000 0.0000 51.2990 0.0000 1.0761
# 5 -9.3180 13.4378 -18.9697 0.0000 22.9935 0.0000
# 6 0.0000 0.0000 0.0000 1.0761 0.0000 21.3615
#
#
#
# Elastic Compliance Matrix: (Units=1/GPa)
#
#
# Indices 1 2 3 4 5 6 
#
# 1 0.020301 -0.001701 0.000142 0.000000 0.009338 0.000000
# 2 -0.001701 0.011438 -0.004418 0.000000 -0.011019 0.000000
# 3 0.000142 -0.004418 0.010253 0.000000 0.011098 0.000000
# 4 0.000000 0.000000 0.000000 0.019514 0.000000 -0.000983
# 5 0.009338 -0.011019 0.011098 0.000000 0.062870 0.000000
# 6 0.000000 0.000000 0.000000 -0.000983 0.000000 0.046863
#
#
# Mechanical properties :
#
#
# Convention : Reuss Voigt Hill
#
# Bulk Modulus (GPa) = 33.29136 44.19228 38.74182
# Shear Modulus (GPa) = 25.87923 35.95194 30.91558
#
# Velocity S-wave (km/s) = 3.25162 3.83252 3.55396
# Velocity P-wave (km/s) = 5.26294 6.13507 5.71567
#
# Compressibility (1/GPa) = 0.03003782
#
# Stress axis : x y z
#
# Youngs Moduli (GPa) = 49.25885 87.42739 97.53390
#
# Poissons Ratio (x) = 0.14869 -0.01382
# Poissons Ratio (y) = 0.08378 0.43090
# Poissons Ratio (z) = -0.00698 0.38625
#
# Static dielectric constant tensor:
#      x y z
#    x 1.852110 0.000000 0.050660 
#    y 0.000000 1.910430 0.000000 
#    z 0.050660 0.000000 2.025190 
# 
# From -- ./inp_files/46137.got.cif
#   From: 2010.05.17/outbox.cif.g08.bks.cpg/sg15_24_cif.got.tgz:46137.got - 2010.06.03 18:47:42.
