data_PCOD9299143
_publ_section_title
;
Structure prediction by ZEFSAII (Michael W. Deem and Ramdas Pophale) SiO2 
 PCOD9299143
Probable space group: C 2/C
;
_chemical_formula_sum "Si O2"
_cell_formula_units_Z 48
_cell_length_a 12.179146
_cell_length_b 27.889077
_cell_length_c 14.910391
_cell_angle_alpha 90.000000
_cell_angle_beta 152.483330
_cell_angle_gamma 90.000000
_cell_volume 2339.851267
_symmetry_space_group_name_H-M "C 2/C"
_symmetry_group_IT_number 15
_symmetry_cell_setting 'monoclinic'
loop_
_space_group_symop_operation_xyz
x,y,z
-x,y,1/2-z
-x,-y,-z
x,-y,1/2+z
1/2+x,1/2+y,z
1/2-x,1/2+y,1/2-z
1/2-x,1/2-y,-z
1/2+x,1/2-y,1/2+z
loop_
_atom_site_type_symbol
_atom_site_label
_atom_site_fract_x
_atom_site_fract_y
_atom_site_fract_z
Si Si1 0.490023 0.881169 0.343992
Si Si2 0.273828 0.388999 0.919024
Si Si3 0.500000 0.571651 0.250000
Si Si4 0.611811 0.817762 0.059443
Si Si5 0.000000 0.884191 0.250000
Si Si6 0.292765 0.210639 0.173899
Si Si7 0.459684 0.550124 0.018968
O O1 0.500000 0.860603 0.250000
O O2 0.751525 0.899030 0.563389
O O3 0.415702 0.842906 0.365098
O O4 0.291924 0.923913 0.189782
O O5 0.356815 0.333080 0.976410
O O6 0.338341 0.414545 0.874216
O O7 0.000000 0.389938 0.750000
O O8 0.419373 0.413283 0.104951
O O9 0.491434 0.544757 0.148501
O O10 0.692511 0.762527 0.121612
O O11 0.783945 0.850584 0.124048
O O12 0.379558 0.812971 0.829091
O O13 0.500000 0.218765 0.250000
O O14 0.500000 0.500000 0.000000
#
# Coordination Sequence:
#
# PCOD9299143 Si02
#       7
#     8   8   4   8   4   8   8
#     4  10  24  47  70  91 131 177 222 271 318 382
#     4  11  23  38  62  97 134 165 212 268 333 397
#     4  10  24  47  70  92 130 178 220 263 332 382
#     4  12  21  37  63  94 133 172 215 264 331 390
#     4  12  20  35  62  96 132 166 204 267 326 394
#     4  11  21  34  57  97 134 171 207 265 333 398
#     4  11  25  44  71 100 130 169 216 272 327 392
#
# _framework density 20.514123999999999
#
# number of rings (size 3 to 8) (size 9 to 14) (size 15 to 20)
#    0.000    1.000    5.833    2.500    0.000    3.333 
#    0.000    0.833    1.833    0.000    0.000    0.000 
#    0.000    0.000    0.000    0.000    0.000    0.000 
#
# Total GULP energy -133867.937753 kJ/mol
# GULP energy per Si atom -5577.830740 kJ/mol
# Density = 2.046743 g / cm^3
# Si number density = 20.514124 Si / 1000 Ang^3
#
#
#
# Elastic Constant Matrix: (Units=GPa)
#
#
# Indices 1 2 3 4 5 6 
#
# 1 154.3996 68.2605 42.7999 0.0001 -27.4324 0.0001
# 2 68.2605 99.1574 26.4061 0.0000 -8.1337 0.0000
# 3 42.7999 26.4061 101.9383 0.0000 -18.1751 0.0000
# 4 0.0001 0.0000 0.0000 13.6007 0.0001 -8.2653
# 5 -27.4324 -8.1337 -18.1751 0.0001 44.4227 0.0001
# 6 0.0001 0.0000 0.0000 -8.2653 0.0001 45.7445
#
#
#
# Elastic Compliance Matrix: (Units=1/GPa)
#
#
# Indices 1 2 3 4 5 6 
#
# 1 0.010706 -0.006459 -0.002000 0.000000 0.004610 0.000000
# 2 -0.006459 0.014763 -0.001447 0.000000 -0.001878 0.000000
# 3 -0.002000 -0.001447 0.011603 0.000000 0.003248 0.000000
# 4 0.000000 0.000000 0.000000 0.082595 0.000000 0.014924
# 5 0.004610 -0.001878 0.003248 0.000000 0.026343 0.000000
# 6 0.000000 0.000000 0.000000 0.014924 0.000000 0.024557
#
#
# Mechanical properties :
#
#
# Convention : Reuss Voigt Hill
#
# Bulk Modulus (GPa) = 57.93724 70.04759 63.99242
# Shear Modulus (GPa) = 25.49301 35.28884 30.39093
#
# Velocity S-wave (km/s) = 3.52903 4.15206 3.85315
# Velocity P-wave (km/s) = 6.70144 7.56348 7.14547
#
# Compressibility (1/GPa) = 0.01726005
#
# Stress axis : x y z
#
# Youngs Moduli (GPa) = 93.40731 67.73763 86.18225
#
# Poissons Ratio (x) = 0.43753 0.17234
# Poissons Ratio (y) = 0.60334 0.12470
# Poissons Ratio (z) = 0.18679 0.09802
#
# Static dielectric constant tensor:
#      x y z
#    x 1.771480 0.000000 -0.054340 
#    y 0.000000 1.718190 0.000000 
#    z -0.054340 0.000000 1.905220 
# 
# From -- ./inp_files/148871.got.cif
#   From: 2010.05.17/outbox.cif.g08.bks.cpg/sg15_75_cif.got.tgz:148871.got - 2010.06.03 18:47:42.
