data_PCOD9299986
_publ_section_title
;
Structure prediction by ZEFSAII (Michael W. Deem and Ramdas Pophale) SiO2 
 PCOD9299986
Probable space group: C 2/C
;
_chemical_formula_sum "Si O2"
_cell_formula_units_Z 40
_cell_length_a 12.338764
_cell_length_b 10.022615
_cell_length_c 25.767220
_cell_angle_alpha 90.000000
_cell_angle_beta 154.048488
_cell_angle_gamma 90.000000
_cell_volume 1394.465805
_symmetry_space_group_name_H-M "C 2/C"
_symmetry_group_IT_number 15
_symmetry_cell_setting 'monoclinic'
loop_
_space_group_symop_operation_xyz
x,y,z
-x,y,1/2-z
-x,-y,-z
x,-y,1/2+z
1/2+x,1/2+y,z
1/2-x,1/2+y,1/2-z
1/2-x,1/2-y,-z
1/2+x,1/2-y,1/2+z
loop_
_atom_site_type_symbol
_atom_site_label
_atom_site_fract_x
_atom_site_fract_y
_atom_site_fract_z
Si Si1 0.074079 0.774809 0.215357
Si Si2 0.635860 0.005552 0.393907
Si Si3 0.301226 0.015471 0.461269
Si Si4 0.978721 0.780515 0.518068
Si Si5 0.191839 0.726536 0.793352
O O1 0.890778 0.649419 0.142781
O O2 0.214170 0.734973 0.222588
O O3 0.929151 0.915126 0.146647
O O4 0.721487 0.773858 0.151766
O O5 0.590335 0.017804 0.435585
O O6 0.895297 0.926374 0.501159
O O7 0.442773 0.912621 0.279728
O O8 0.270463 0.175343 0.450832
O O9 0.500000 0.000000 0.500000
O O10 0.923608 0.780556 0.432511
O O11 0.000000 0.800866 0.750000
#
# Coordination Sequence:
#
# PCOD9299986 Si02
#       5
#     8   8   8   8   8
#     4  12  28  55  89 124 176 236 293 370 446 532
#     4  11  26  53  82 127 178 227 290 370 439 529
#     4  12  28  56  84 125 172 231 296 366 443 530
#     4  11  27  56  84 124 177 229 294 368 438 530
#     4  10  25  51  83 126 176 229 291 363 445 518
#
# _framework density 28.684819000000001
#
# number of rings (size 3 to 8) (size 9 to 14) (size 15 to 20)
#    0.000    0.800    2.000    2.400    5.600    1.600 
#   28.800    4.000    0.000    0.000    0.000    0.000 
#    0.000    0.000    0.000    0.000    0.000    0.000 
#
# Total GULP energy -111937.096899 kJ/mol
# GULP energy per Si atom -5596.854845 kJ/mol
# Density = 2.861953 g / cm^3
# Si number density = 28.684819 Si / 1000 Ang^3
#
#
#
# Elastic Constant Matrix: (Units=GPa)
#
#
# Indices 1 2 3 4 5 6 
#
# 1 190.7320 10.9366 38.0039 -0.0002 -60.2400 0.0000
# 2 10.9366 153.0949 50.8291 -0.0001 -12.5038 -0.0001
# 3 38.0039 50.8291 211.1297 0.0005 -41.0501 -0.0005
# 4 -0.0002 -0.0001 0.0005 57.7758 -0.0004 -1.5897
# 5 -60.2400 -12.5038 -41.0501 -0.0004 58.9804 0.0000
# 6 0.0000 -0.0001 -0.0005 -1.5897 0.0000 49.7113
#
#
#
# Elastic Compliance Matrix: (Units=1/GPa)
#
#
# Indices 1 2 3 4 5 6 
#
# 1 0.007745 0.000051 0.000155 0.000000 0.008029 0.000000
# 2 0.000051 0.007106 -0.001639 0.000000 0.000418 0.000000
# 3 0.000155 -0.001639 0.005859 0.000000 0.003888 0.000000
# 4 0.000000 0.000000 0.000000 0.017324 0.000000 0.000554
# 5 0.008029 0.000418 0.003888 0.000000 0.027950 0.000000
# 6 0.000000 0.000000 0.000000 0.000554 0.000000 0.020134
#
#
# Mechanical properties :
#
#
# Convention : Reuss Voigt Hill
#
# Bulk Modulus (GPa) = 56.03920 83.83288 69.93604
# Shear Modulus (GPa) = 52.66903 63.63930 58.15416
#
# Velocity S-wave (km/s) = 4.28966 4.71528 4.50749
# Velocity P-wave (km/s) = 6.64180 7.67686 7.17801
#
# Compressibility (1/GPa) = 0.01784465
#
# Stress axis : x y z
#
# Youngs Moduli (GPa) = 129.11515 140.71649 170.67288
#
# Poissons Ratio (x) = -0.00719 -0.02639
# Poissons Ratio (y) = -0.00660 0.27969
# Poissons Ratio (z) = -0.01997 0.23060
#
# Static dielectric constant tensor:
#      x y z
#    x 2.288870 0.000000 0.200370 
#    y 0.000000 2.321250 0.000000 
#    z 0.200370 0.000000 2.337010 
# 
# From -- ./inp_files/292414.got.cif
#   From: 2010.05.17/outbox.cif.g08.bks.cpg/sg15_147_cif.got.tgz:292414.got - 2010.06.03 18:47:42.
