data_PCOD9299296
_publ_section_title
;
Structure prediction by ZEFSAII (Michael W. Deem and Ramdas Pophale) SiO2 
 PCOD9299296
Probable space group: C 2/C
;
_chemical_formula_sum "Si O2"
_cell_formula_units_Z 44
_cell_length_a 20.242959
_cell_length_b 4.827756
_cell_length_c 23.119039
_cell_angle_alpha 90.000000
_cell_angle_beta 129.181884
_cell_angle_gamma 90.000000
_cell_volume 1751.344715
_symmetry_space_group_name_H-M "C 2/C"
_symmetry_group_IT_number 15
_symmetry_cell_setting 'monoclinic'
loop_
_space_group_symop_operation_xyz
x,y,z
-x,y,1/2-z
-x,-y,-z
x,-y,1/2+z
1/2+x,1/2+y,z
1/2-x,1/2+y,1/2-z
1/2-x,1/2-y,-z
1/2+x,1/2-y,1/2+z
loop_
_atom_site_type_symbol
_atom_site_label
_atom_site_fract_x
_atom_site_fract_y
_atom_site_fract_z
Si Si1 0.000000 0.702821 0.250000
Si Si2 0.518496 0.924487 0.140482
Si Si3 0.182009 0.071268 0.852249
Si Si4 0.712156 0.115711 0.255605
Si Si5 0.258908 0.560123 0.948190
Si Si6 0.956514 0.071736 0.537472
O O1 0.013881 0.514833 0.314370
O O2 0.082253 0.893587 0.287396
O O3 0.618625 0.988334 0.197409
O O4 0.473259 0.113725 0.066529
O O5 0.500121 0.612575 0.111940
O O6 0.225959 0.218939 0.822375
O O7 0.208897 0.269670 0.920302
O O8 0.211679 0.760397 0.876114
O O9 0.724024 0.361528 0.216149
O O10 0.250000 0.750000 0.000000
O O11 0.356524 0.501698 0.985253
O O12 0.000000 0.000000 0.500000
#
# Coordination Sequence:
#
# PCOD9299296 Si02
#       6
#     4   8   8   8   8   8
#     4  10  24  48  74 106 136 182 240 304 362 410
#     4  11  25  45  71 100 138 184 237 291 354 420
#     4  11  25  42  71  99 135 176 227 289 344 416
#     4  11  24  41  67  96 133 174 223 289 343 406
#     4  12  25  44  69 101 139 185 233 284 345 424
#     4  12  27  44  69 103 146 193 232 292 355 434
#
# _framework density 25.123550999999999
#
# number of rings (size 3 to 8) (size 9 to 14) (size 15 to 20)
#    0.000    0.727    0.000    6.545    7.636    5.818 
#    0.000    0.000    0.000    0.000    0.000    0.000 
#    0.000    0.000    0.000    0.000    0.000    0.000 
#
# Total GULP energy -123450.001292 kJ/mol
# GULP energy per Si atom -5611.363695 kJ/mol
# Density = 2.506637 g / cm^3
# Si number density = 25.123551 Si / 1000 Ang^3
#
#
#
# Elastic Constant Matrix: (Units=GPa)
#
#
# Indices 1 2 3 4 5 6 
#
# 1 84.5566 -4.5991 17.3161 -0.0020 0.1139 0.0036
# 2 -4.5991 111.1244 -1.2849 -0.0024 5.2548 0.0020
# 3 17.3161 -1.2849 71.4376 0.0008 -5.8433 0.0010
# 4 -0.0020 -0.0024 0.0008 50.5041 0.0005 -3.1995
# 5 0.1139 5.2548 -5.8433 0.0005 37.8606 -0.0006
# 6 0.0036 0.0020 0.0010 -3.1995 -0.0006 22.7587
#
#
#
# Elastic Compliance Matrix: (Units=1/GPa)
#
#
# Indices 1 2 3 4 5 6 
#
# 1 0.012482 0.000509 -0.003064 0.000000 -0.000581 -0.000002
# 2 0.000509 0.009079 -0.000064 0.000000 -0.001272 -0.000001
# 3 -0.003064 -0.000064 0.014930 0.000000 0.002322 0.000000
# 4 0.000000 0.000000 0.000000 0.019978 0.000000 0.002809
# 5 -0.000581 -0.001272 0.002322 0.000000 0.026949 0.000001
# 6 -0.000002 -0.000001 0.000000 0.002809 0.000001 0.044334
#
#
# Mechanical properties :
#
#
# Convention : Reuss Voigt Hill
#
# Bulk Modulus (GPa) = 31.99726 32.22031 32.10878
# Shear Modulus (GPa) = 34.86521 39.27044 37.06783
#
# Velocity S-wave (km/s) = 3.72929 3.95789 3.84529
# Velocity P-wave (km/s) = 5.59528 5.80853 5.70290
#
# Compressibility (1/GPa) = 0.03125268
#
# Stress axis : x y z
#
# Youngs Moduli (GPa) = 80.11333 110.13983 66.98037
#
# Poissons Ratio (x) = -0.05602 0.20523
# Poissons Ratio (y) = -0.04075 0.00429
# Poissons Ratio (z) = 0.24547 0.00705
#
# Static dielectric constant tensor:
#      x y z
#    x 2.000210 0.000000 -0.082330 
#    y 0.000000 1.893790 0.000000 
#    z -0.082330 0.000000 2.046460 
# 
# From -- ./inp_files/278734.got.cif
#   From: 2010.05.17/outbox.cif.g08.bks.cpg/sg15_140_cif.got.tgz:278734.got - 2010.06.03 18:47:42.
