data_PCOD9299249
_publ_section_title
;
Structure prediction by ZEFSAII (Michael W. Deem and Ramdas Pophale) SiO2 
 PCOD9299249
Probable space group: C 2/C
;
_chemical_formula_sum "Si O2"
_cell_formula_units_Z 28
_cell_length_a 8.153427
_cell_length_b 17.300471
_cell_length_c 16.064458
_cell_angle_alpha 90.000000
_cell_angle_beta 35.949957
_cell_angle_gamma 90.000000
_cell_volume 1330.332829
_symmetry_space_group_name_H-M "C 2/C"
_symmetry_group_IT_number 15
_symmetry_cell_setting 'monoclinic'
loop_
_space_group_symop_operation_xyz
x,y,z
-x,y,1/2-z
-x,-y,-z
x,-y,1/2+z
1/2+x,1/2+y,z
1/2-x,1/2+y,1/2-z
1/2-x,1/2-y,-z
1/2+x,1/2-y,1/2+z
loop_
_atom_site_type_symbol
_atom_site_label
_atom_site_fract_x
_atom_site_fract_y
_atom_site_fract_z
Si Si1 0.500000 0.205946 0.750000
Si Si2 0.817883 0.040863 0.146114
Si Si3 0.168988 0.855239 0.601081
Si Si4 0.750887 0.398138 0.207827
O O1 0.683878 0.264782 0.618276
O O2 0.681344 0.155804 0.739641
O O3 0.500000 0.053111 0.250000
O O4 0.971032 0.120259 0.106572
O O5 0.810138 0.981104 0.226438
O O6 0.000000 0.000000 0.000000
O O7 0.465158 0.893825 0.462427
O O8 0.000000 0.886445 0.750000
O O9 0.500000 0.374357 0.250000
#
# Coordination Sequence:
#
# PCOD9299249 Si02
#       4
#     4   8   8   8
#     4  10  24  48  68  98 144 174 226 282 338 404
#     4  12  24  42  70 101 137 179 227 281 340 398
#     4  10  25  44  66 100 141 173 228 281 335 402
#     4  12  25  44  74  99 138 181 229 278 341 402
#
# _framework density 21.047366
#
# number of rings (size 3 to 8) (size 9 to 14) (size 15 to 20)
#    0.857    0.000    4.286    1.714    4.000    4.571 
#    0.000    0.000    0.000    0.000    0.000    0.000 
#    0.000    0.000    0.000    0.000    0.000    0.000 
#
# Total GULP energy -78123.821857 kJ/mol
# GULP energy per Si atom -5580.272990 kJ/mol
# Density = 2.099946 g / cm^3
# Si number density = 21.047366 Si / 1000 Ang^3
#
#
#
# Elastic Constant Matrix: (Units=GPa)
#
#
# Indices 1 2 3 4 5 6 
#
# 1 169.1160 52.5120 62.7495 0.0119 -22.0749 0.0347
# 2 52.5120 104.8323 30.6098 0.0072 4.7452 0.0162
# 3 62.7495 30.6098 150.8192 0.0100 -13.7900 0.0287
# 4 0.0119 0.0072 0.0100 64.1942 -0.0136 109.3280
# 5 -22.0749 4.7452 -13.7900 -0.0136 40.9106 -0.0362
# 6 0.0347 0.0162 0.0287 109.3280 -0.0362 320.9159
#
#
#
# Elastic Compliance Matrix: (Units=1/GPa)
#
#
# Indices 1 2 3 4 5 6 
#
# 1 0.008521 -0.003760 -0.002396 0.000000 0.004227 0.000000
# 2 -0.003760 0.011949 -0.001210 -0.000001 -0.003823 0.000000
# 3 -0.002396 -0.001210 0.008014 0.000000 0.001549 0.000000
# 4 0.000000 -0.000001 0.000000 0.037107 0.000002 -0.012642
# 5 0.004227 -0.003823 0.001549 0.000002 0.027690 0.000002
# 6 0.000000 0.000000 0.000000 -0.012642 0.000002 0.007423
#
#
# Mechanical properties :
#
#
# Convention : Reuss Voigt Hill
#
# Bulk Modulus (GPa) = 72.71428 79.61225 76.16327
# Shear Modulus (GPa) = 41.65931 103.79720 72.72825
#
# Velocity S-wave (km/s) = 4.45377 7.03015 5.88469
# Velocity P-wave (km/s) = 7.81480 10.18846 9.07953
#
# Compressibility (1/GPa) = 0.01375246
#
# Stress axis : x y z
#
# Youngs Moduli (GPa) = 117.35270 83.68895 124.77414
#
# Poissons Ratio (x) = 0.31469 0.29893
# Poissons Ratio (y) = 0.44127 0.15100
# Poissons Ratio (z) = 0.28115 0.10128
#
# Static dielectric constant tensor:
#      x y z
#    x 2.487630 -0.000100 -0.102980 
#    y -0.000100 1.767250 0.000020 
#    z -0.102980 0.000020 1.786470 
# 
# From -- ./inp_files/21664.got.cif
#   From: 2010.05.17/outbox.cif.g08.bks.cpg/sg15_11_cif.got.tgz:21664.got - 2010.06.03 18:47:42.
