data_PCOD9299317
_publ_section_title
;
Structure prediction by ZEFSAII (Michael W. Deem and Ramdas Pophale) SiO2 
 PCOD9299317
Probable space group: C 2/C
;
_chemical_formula_sum "Si O2"
_cell_formula_units_Z 32
_cell_length_a 20.917212
_cell_length_b 10.105970
_cell_length_c 12.066597
_cell_angle_alpha 90.000000
_cell_angle_beta 28.559966
_cell_angle_gamma 90.000000
_cell_volume 1219.454548
_symmetry_space_group_name_H-M "C 2/C"
_symmetry_group_IT_number 15
_symmetry_cell_setting 'monoclinic'
loop_
_space_group_symop_operation_xyz
x,y,z
-x,y,1/2-z
-x,-y,-z
x,-y,1/2+z
1/2+x,1/2+y,z
1/2-x,1/2+y,1/2-z
1/2-x,1/2-y,-z
1/2+x,1/2-y,1/2+z
loop_
_atom_site_type_symbol
_atom_site_label
_atom_site_fract_x
_atom_site_fract_y
_atom_site_fract_z
Si Si1 0.856719 0.043150 0.446542
Si Si2 0.832887 0.333610 0.102744
Si Si3 0.459028 0.651678 0.078687
Si Si4 0.386343 0.868939 0.769663
O O1 0.894803 0.155762 0.298251
O O2 0.000000 0.974060 0.250000
O O3 0.797625 0.099143 0.649739
O O4 0.734908 0.961305 0.580098
O O5 0.855541 0.201699 0.141618
O O6 0.578198 0.245585 0.372040
O O7 0.848510 0.313377 0.948720
O O8 0.962983 0.425012 0.939248
O O9 0.500000 0.500000 0.000000
#
# Coordination Sequence:
#
# PCOD9299317 Si02
#       4
#     8   8   8   8
#     4  12  26  45  81 127 163 212 266 332 409 492
#     4   9  22  52  82 114 162 211 271 339 397 476
#     4  10  24  48  76 113 153 215 271 327 397 472
#     4   9  23  50  85 113 162 215 267 334 407 475
#
# _framework density 26.241239
#
# number of rings (size 3 to 8) (size 9 to 14) (size 15 to 20)
#    1.500    0.500    0.000    1.500    3.500    3.000 
#    4.500    2.500    0.000    1.500    0.000    1.750 
#    0.000    0.000    0.000    0.000    0.000    0.000 
#
# Total GULP energy -89458.537568 kJ/mol
# GULP energy per Si atom -5591.158598 kJ/mol
# Density = 2.618151 g / cm^3
# Si number density = 26.241239 Si / 1000 Ang^3
#
#
#
# Elastic Constant Matrix: (Units=GPa)
#
#
# Indices 1 2 3 4 5 6 
#
# 1 165.1604 50.0862 69.4363 0.0000 25.6475 0.0000
# 2 50.0862 63.9161 66.2120 0.0000 -3.5529 0.0000
# 3 69.4363 66.2120 239.8340 0.0000 13.9692 0.0000
# 4 0.0000 0.0000 0.0000 62.6781 0.0000 -7.9201
# 5 25.6475 -3.5529 13.9692 0.0000 50.9340 0.0000
# 6 0.0000 0.0000 0.0000 -7.9201 0.0000 51.4169
#
#
#
# Elastic Compliance Matrix: (Units=1/GPa)
#
#
# Indices 1 2 3 4 5 6 
#
# 1 0.009122 -0.006986 -0.000423 0.000000 -0.004965 0.000000
# 2 -0.006986 0.027801 -0.006067 0.000000 0.007121 0.000000
# 3 -0.000423 -0.006067 0.006076 0.000000 -0.001877 0.000000
# 4 0.000000 0.000000 0.000000 0.016271 0.000000 0.002506
# 5 -0.004965 0.007121 -0.001877 0.000000 0.023145 0.000000
# 6 0.000000 0.000000 0.000000 0.002506 0.000000 0.019835
#
#
# Mechanical properties :
#
#
# Convention : Reuss Voigt Hill
#
# Bulk Modulus (GPa) = 62.31849 93.37550 77.84700
# Shear Modulus (GPa) = 37.16038 51.88420 44.52229
#
# Velocity S-wave (km/s) = 3.76720 4.45140 4.12351
# Velocity P-wave (km/s) = 6.53623 7.87913 7.23889
#
# Compressibility (1/GPa) = 0.01604660
#
# Stress axis : x y z
#
# Youngs Moduli (GPa) = 109.62372 35.97002 164.57017
#
# Poissons Ratio (x) = 0.25128 0.06965
# Poissons Ratio (y) = 0.76581 0.99851
# Poissons Ratio (z) = 0.04640 0.21824
#
# Static dielectric constant tensor:
#      x y z
#    x 2.159230 0.000000 -0.063860 
#    y 0.000000 2.092860 0.000000 
#    z -0.063860 0.000000 2.083360 
# 
# From -- ./inp_files/167067.got.cif
#   From: 2010.05.17/outbox.cif.g08.bks.cpg/sg15_84_cif.got.tgz:167067.got - 2010.06.03 18:47:42.
