data_PCOD9299768
_publ_section_title
;
Structure prediction by ZEFSAII (Michael W. Deem and Ramdas Pophale) SiO2 
 PCOD9299768
Probable space group: C 2/C
;
_chemical_formula_sum "Si O2"
_cell_formula_units_Z 48
_cell_length_a 18.208966
_cell_length_b 9.833096
_cell_length_c 19.049244
_cell_angle_alpha 90.000000
_cell_angle_beta 143.515786
_cell_angle_gamma 90.000000
_cell_volume 2028.052316
_symmetry_space_group_name_H-M "C 2/C"
_symmetry_group_IT_number 15
_symmetry_cell_setting 'monoclinic'
loop_
_space_group_symop_operation_xyz
x,y,z
-x,y,1/2-z
-x,-y,-z
x,-y,1/2+z
1/2+x,1/2+y,z
1/2-x,1/2+y,1/2-z
1/2-x,1/2-y,-z
1/2+x,1/2-y,1/2+z
loop_
_atom_site_type_symbol
_atom_site_label
_atom_site_fract_x
_atom_site_fract_y
_atom_site_fract_z
Si Si1 0.808597 0.097585 0.541854
Si Si2 0.962493 0.350112 0.998701
Si Si3 0.917774 0.069669 0.772932
Si Si4 0.887240 0.912996 0.884182
Si Si5 0.566938 0.065688 0.869879
Si Si6 0.865728 0.641529 0.276870
O O1 0.750000 0.250000 0.500000
O O2 0.870297 0.033662 0.659675
O O3 0.693729 0.999355 0.439523
O O4 0.937199 0.098808 0.597889
O O5 0.915553 0.352035 0.043266
O O6 0.075615 0.244811 0.083892
O O7 0.876583 0.312076 0.866924
O O8 0.000000 0.500000 0.000000
O O9 0.856371 0.217259 0.730844
O O10 0.870641 0.961723 0.791892
O O11 0.760317 0.940596 0.826438
O O12 0.000000 0.000000 0.000000
O O13 0.500000 0.130005 0.750000
O O14 0.478249 0.943258 0.830508
#
# Coordination Sequence:
#
# PCOD9299768 Si02
#       6
#     8   8   8   8   8   8
#     4  11  23  43  69 105 145 186 250 296 364 431
#     4  10  25  46  69 102 144 190 239 300 361 438
#     4  11  25  43  71 104 141 195 236 312 356 432
#     4  12  27  45  72 107 146 189 248 306 373 438
#     4  11  24  42  70 102 140 191 234 299 359 440
#     4  11  24  41  70 104 138 185 242 299 367 418
#
# _framework density 23.668028
#
# number of rings (size 3 to 8) (size 9 to 14) (size 15 to 20)
#    0.000    1.000    3.333    2.000   14.000    0.000 
#    3.000    0.833    0.000    0.000    0.000    0.000 
#    0.000    0.000    0.000    0.000    0.000    0.000 
#
# Total GULP energy -133875.903340 kJ/mol
# GULP energy per Si atom -5578.162639 kJ/mol
# Density = 2.361416 g / cm^3
# Si number density = 23.668028 Si / 1000 Ang^3
#
#
#
# Elastic Constant Matrix: (Units=GPa)
#
#
# Indices 1 2 3 4 5 6 
#
# 1 98.2105 4.5910 36.5569 0.0000 7.7607 0.0000
# 2 4.5910 28.6913 -13.0787 0.0000 13.4280 0.0000
# 3 36.5569 -13.0787 100.5463 0.0000 2.3075 0.0000
# 4 0.0000 0.0000 0.0000 31.3430 0.0000 -0.1615
# 5 7.7607 13.4280 2.3075 0.0000 59.7327 0.0000
# 6 0.0000 0.0000 0.0000 -0.1615 0.0000 21.3994
#
#
#
# Elastic Compliance Matrix: (Units=1/GPa)
#
#
# Indices 1 2 3 4 5 6 
#
# 1 0.012256 -0.003988 -0.004963 0.000000 -0.000504 0.000000
# 2 -0.003988 0.043258 0.007294 0.000000 -0.009488 0.000000
# 3 -0.004963 0.007294 0.012733 0.000000 -0.001487 0.000000
# 4 0.000000 0.000000 0.000000 0.031906 0.000000 0.000241
# 5 -0.000504 -0.009488 -0.001487 0.000000 0.018997 0.000000
# 6 0.000000 0.000000 0.000000 0.000241 0.000000 0.046732
#
#
# Mechanical properties :
#
#
# Convention : Reuss Voigt Hill
#
# Bulk Modulus (GPa) = 15.40029 31.50961 23.45495
# Shear Modulus (GPa) = 26.20002 35.78693 30.99348
#
# Velocity S-wave (km/s) = 3.33074 3.89271 3.62264
# Velocity P-wave (km/s) = 4.61657 5.79192 5.23732
#
# Compressibility (1/GPa) = 0.06493382
#
# Stress axis : x y z
#
# Youngs Moduli (GPa) = 81.59337 23.11735 78.53527
#
# Poissons Ratio (x) = 0.09218 0.38978
# Poissons Ratio (y) = 0.32536 -0.57286
# Poissons Ratio (z) = 0.40496 -0.16863
#
# Static dielectric constant tensor:
#      x y z
#    x 2.073510 0.000000 -0.109130 
#    y 0.000000 1.813770 0.000000 
#    z -0.109130 0.000000 1.915350 
# 
# From -- ./inp_files/252619.got.cif
#   From: 2010.05.17/outbox.cif.g08.bks.cpg/sg15_127_cif.got.tgz:252619.got - 2010.06.03 18:47:42.
