data_PCOD9299382
_publ_section_title
;
Structure prediction by ZEFSAII (Michael W. Deem and Ramdas Pophale) SiO2 
 PCOD9299382
Probable space group: C 2/C
;
_chemical_formula_sum "Si O2"
_cell_formula_units_Z 48
_cell_length_a 8.558932
_cell_length_b 11.151133
_cell_length_c 16.516107
_cell_angle_alpha 90.000000
_cell_angle_beta 100.766869
_cell_angle_gamma 90.000000
_cell_volume 1548.576259
_symmetry_space_group_name_H-M "C 2/C"
_symmetry_group_IT_number 15
_symmetry_cell_setting 'monoclinic'
loop_
_space_group_symop_operation_xyz
x,y,z
-x,y,1/2-z
-x,-y,-z
x,-y,1/2+z
1/2+x,1/2+y,z
1/2-x,1/2+y,1/2-z
1/2-x,1/2-y,-z
1/2+x,1/2-y,1/2+z
loop_
_atom_site_type_symbol
_atom_site_label
_atom_site_fract_x
_atom_site_fract_y
_atom_site_fract_z
Si Si1 0.854367 0.988376 0.300277
Si Si2 0.852602 0.181105 0.052837
Si Si3 0.112222 0.890960 0.451287
Si Si4 0.267045 0.776130 0.786057
Si Si5 0.845973 0.526369 0.536705
Si Si6 0.863348 0.344497 0.633929
O O1 0.769801 0.863733 0.266601
O O2 0.000000 0.004532 0.250000
O O3 0.940238 0.952140 0.391945
O O4 0.618643 0.002228 0.364546
O O5 0.845556 0.196275 0.149822
O O6 0.807212 0.030267 0.047627
O O7 0.007425 0.174298 0.012421
O O8 0.688167 0.171816 0.969723
O O9 0.167545 0.799494 0.386089
O O10 0.231711 0.870191 0.705750
O O11 0.444578 0.818923 0.828254
O O12 0.778892 0.382442 0.536021
O O13 0.000000 0.500000 0.500000
#
# Coordination Sequence:
#
# PCOD9299382 Si02
#       6
#     8   8   8   8   8   8
#     4  10  24  50  83 128 171 235 290 358 454 531
#     4  12  23  46  81 123 170 226 289 370 440 532
#     4  12  25  50  86 125 170 233 298 361 454 530
#     4  10  24  49  82 130 176 225 291 360 451 535
#     4  12  27  50  77 121 172 227 294 371 437 528
#     4  10  25  48  83 124 167 230 286 361 448 529
#
# _framework density 30.996213000000001
#
# number of rings (size 3 to 8) (size 9 to 14) (size 15 to 20)
#    1.000    0.000    3.333    2.000    2.333    0.667 
#    0.000    2.500    0.000    2.000    0.000    0.000 
#    0.000    0.000    0.000    0.000    0.000    0.000 
#
# Total GULP energy -133811.647468 kJ/mol
# GULP energy per Si atom -5575.485311 kJ/mol
# Density = 3.092566 g / cm^3
# Si number density = 30.996213 Si / 1000 Ang^3
#
#
#
# Elastic Constant Matrix: (Units=GPa)
#
#
# Indices 1 2 3 4 5 6 
#
# 1 161.4641 93.0817 58.4141 0.0000 -12.0443 0.0000
# 2 93.0817 369.6522 121.7063 0.0000 -27.0189 0.0000
# 3 58.4141 121.7063 241.2107 0.0000 -38.5305 0.0000
# 4 0.0000 0.0000 0.0000 70.1852 0.0000 0.7077
# 5 -12.0443 -27.0189 -38.5305 0.0000 46.7953 0.0000
# 6 0.0000 0.0000 0.0000 0.7077 0.0000 88.7919
#
#
#
# Elastic Compliance Matrix: (Units=1/GPa)
#
#
# Indices 1 2 3 4 5 6 
#
# 1 0.007454 -0.001533 -0.000998 0.000000 0.000212 0.000000
# 2 -0.001533 0.003574 -0.001342 0.000000 0.000564 0.000000
# 3 -0.000998 -0.001342 0.005642 0.000000 0.003614 0.000000
# 4 0.000000 0.000000 0.000000 0.014249 0.000000 -0.000114
# 5 0.000212 0.000564 0.003614 0.000000 0.024725 0.000000
# 6 0.000000 0.000000 0.000000 -0.000114 0.000000 0.011263
#
#
# Mechanical properties :
#
#
# Convention : Reuss Voigt Hill
#
# Bulk Modulus (GPa) = 112.05417 146.52568 129.28992
# Shear Modulus (GPa) = 64.40953 74.42947 69.41950
#
# Velocity S-wave (km/s) = 4.56343 4.90556 4.73759
# Velocity P-wave (km/s) = 7.99975 8.91408 8.46926
#
# Compressibility (1/GPa) = 0.00892426
#
# Stress axis : x y z
#
# Youngs Moduli (GPa) = 134.15933 279.76827 177.24740
#
# Poissons Ratio (x) = 0.42887 0.17686
# Poissons Ratio (y) = 0.20566 0.23789
# Poissons Ratio (z) = 0.13386 0.37549
#
# Static dielectric constant tensor:
#      x y z
#    x 2.045030 0.000000 0.465950 
#    y 0.000000 2.306360 0.000000 
#    z 0.465950 0.000000 1.961360 
# 
# From -- ./inp_files/196045.got.cif
#   From: 2010.05.17/outbox.cif.g08.bks.cpg/sg15_99_cif.got.tgz:196045.got - 2010.06.03 18:47:42.
