data_PCOD9299299
_publ_section_title
;
Structure prediction by ZEFSAII (Michael W. Deem and Ramdas Pophale) SiO2 
 PCOD9299299
Probable space group: C 2/C
;
_chemical_formula_sum "Si O2"
_cell_formula_units_Z 40
_cell_length_a 15.970672
_cell_length_b 6.903822
_cell_length_c 15.156327
_cell_angle_alpha 90.000000
_cell_angle_beta 54.615263
_cell_angle_gamma 90.000000
_cell_volume 1362.431386
_symmetry_space_group_name_H-M "C 2/C"
_symmetry_group_IT_number 15
_symmetry_cell_setting 'monoclinic'
loop_
_space_group_symop_operation_xyz
x,y,z
-x,y,1/2-z
-x,-y,-z
x,-y,1/2+z
1/2+x,1/2+y,z
1/2-x,1/2+y,1/2-z
1/2-x,1/2-y,-z
1/2+x,1/2-y,1/2+z
loop_
_atom_site_type_symbol
_atom_site_label
_atom_site_fract_x
_atom_site_fract_y
_atom_site_fract_z
Si Si1 0.239457 0.614323 0.796479
Si Si2 0.968700 0.624565 0.673460
Si Si3 0.465490 0.454469 0.121318
Si Si4 0.313930 0.638433 0.008874
Si Si5 0.194845 0.381081 0.985266
O O1 0.142222 0.568297 0.794574
O O2 0.354880 0.643175 0.692456
O O3 0.205408 0.801622 0.877387
O O4 0.246058 0.432441 0.860289
O O5 0.000000 0.546966 0.750000
O O6 0.069918 0.602638 0.551937
O O7 0.957757 0.854691 0.683817
O O8 0.568329 0.354632 0.092813
O O9 0.500000 0.500000 0.000000
O O10 0.292220 0.882998 0.984550
O O11 0.294485 0.366382 0.007610
#
# Coordination Sequence:
#
# PCOD9299299 Si02
#       5
#     8   8   8   8   8
#     4  11  27  50  75 110 153 202 254 319 382 465
#     4  12  27  46  75 113 150 204 254 317 386 460
#     4  12  26  49  75 105 153 201 254 313 396 451
#     4  10  24  48  74 110 144 199 249 313 379 461
#     4  11  23  47  80 113 152 190 256 311 394 464
#
# _framework density 29.359276000000001
#
# number of rings (size 3 to 8) (size 9 to 14) (size 15 to 20)
#    0.000    0.800    4.000    1.800    5.600    1.600 
#   14.400    0.000    0.000    0.000    0.000    0.000 
#    0.000    0.000    0.000    0.000    0.000    0.000 
#
# Total GULP energy -111708.083686 kJ/mol
# GULP energy per Si atom -5585.404184 kJ/mol
# Density = 2.929245 g / cm^3
# Si number density = 29.359276 Si / 1000 Ang^3
#
#
#
# Elastic Constant Matrix: (Units=GPa)
#
#
# Indices 1 2 3 4 5 6 
#
# 1 258.8693 92.7153 121.0856 0.0000 -53.4100 0.0001
# 2 92.7153 161.2247 33.2579 0.0000 -37.2943 0.0003
# 3 121.0856 33.2579 201.3678 0.0000 -72.6608 0.0000
# 4 0.0000 0.0000 0.0000 50.5279 0.0000 -3.1437
# 5 -53.4100 -37.2943 -72.6608 0.0000 79.9988 0.0000
# 6 0.0001 0.0003 0.0000 -3.1437 0.0000 76.0228
#
#
#
# Elastic Compliance Matrix: (Units=1/GPa)
#
#
# Indices 1 2 3 4 5 6 
#
# 1 0.006578 -0.003117 -0.003541 0.000000 -0.000277 0.000000
# 2 -0.003117 0.008429 0.001709 0.000000 0.003401 0.000000
# 3 -0.003541 0.001709 0.009293 0.000000 0.006874 0.000000
# 4 0.000000 0.000000 0.000000 0.019842 0.000000 0.000821
# 5 -0.000277 0.003401 0.006874 0.000000 0.020144 0.000000
# 6 0.000000 0.000000 0.000000 0.000821 0.000000 0.013188
#
#
# Mechanical properties :
#
#
# Convention : Reuss Voigt Hill
#
# Bulk Modulus (GPa) = 69.42637 123.95328 96.68983
# Shear Modulus (GPa) = 54.24649 66.27011 60.25830
#
# Velocity S-wave (km/s) = 4.30313 4.75617 4.53531
# Velocity P-wave (km/s) = 6.95613 8.51308 7.77368
#
# Compressibility (1/GPa) = 0.01440375
#
# Stress axis : x y z
#
# Youngs Moduli (GPa) = 152.01637 118.63860 107.60638
#
# Poissons Ratio (x) = 0.36975 0.38102
# Poissons Ratio (y) = 0.47378 -0.18392
# Poissons Ratio (z) = 0.53827 -0.20278
#
# Static dielectric constant tensor:
#      x y z
#    x 2.357140 0.000000 0.126900 
#    y 0.000000 3.294790 0.000000 
#    z 0.126900 0.000000 2.195100 
# 
# From -- ./inp_files/208881.got.cif
#   From: 2010.05.17/outbox.cif.g08.bks.cpg/sg15_105_cif.got.tgz:208881.got - 2010.06.03 18:47:42.
