data_PCOD9299483
_publ_section_title
;
Structure prediction by ZEFSAII (Michael W. Deem and Ramdas Pophale) SiO2 
 PCOD9299483
Probable space group: C 2/C
;
_chemical_formula_sum "Si O2"
_cell_formula_units_Z 36
_cell_length_a 29.231798
_cell_length_b 10.556373
_cell_length_c 9.569637
_cell_angle_alpha 90.000000
_cell_angle_beta 146.797811
_cell_angle_gamma 90.000000
_cell_volume 1617.057066
_symmetry_space_group_name_H-M "C 2/C"
_symmetry_group_IT_number 15
_symmetry_cell_setting 'monoclinic'
loop_
_space_group_symop_operation_xyz
x,y,z
-x,y,1/2-z
-x,-y,-z
x,-y,1/2+z
1/2+x,1/2+y,z
1/2-x,1/2+y,1/2-z
1/2-x,1/2-y,-z
1/2+x,1/2-y,1/2+z
loop_
_atom_site_type_symbol
_atom_site_label
_atom_site_fract_x
_atom_site_fract_y
_atom_site_fract_z
Si Si1 0.500000 0.990118 0.250000
Si Si2 0.415759 0.741664 0.965826
Si Si3 0.179059 0.855152 0.795180
Si Si4 0.212972 0.910353 0.186359
Si Si5 0.399198 0.197833 0.121877
O O1 0.464369 0.083871 0.275033
O O2 0.572583 0.893520 0.483120
O O3 0.336491 0.690077 0.844421
O O4 0.414504 0.719819 0.798177
O O5 0.500000 0.686090 0.250000
O O6 0.104000 0.780530 0.527923
O O7 0.209122 0.958928 0.760696
O O8 0.250000 0.750000 0.000000
O O9 0.168301 0.915143 0.920605
O O10 0.307656 0.864785 0.407012
#
# Coordination Sequence:
#
# PCOD9299483 Si02
#       5
#     4   8   8   8   8
#     4  10  26  40  72 104 144 180 246 292 352 410
#     4  10  25  42  71 100 143 184 236 289 360 408
#     4  10  25  41  72 103 138 183 240 288 348 418
#     4  11  24  45  70 101 142 186 238 289 354 429
#     4  11  24  42  72 101 145 188 239 290 355 421
#
# _framework density 22.262664000000001
#
# number of rings (size 3 to 8) (size 9 to 14) (size 15 to 20)
#    0.667    0.889    0.000    2.667   15.556    0.000 
#    2.000    2.222    0.000    0.000    0.000    0.000 
#    0.000    0.000    0.000    0.000    0.000    0.000 
#
# Total GULP energy -100534.687163 kJ/mol
# GULP energy per Si atom -5585.260398 kJ/mol
# Density = 2.221199 g / cm^3
# Si number density = 22.262664 Si / 1000 Ang^3
#
#
#
# Elastic Constant Matrix: (Units=GPa)
#
#
# Indices 1 2 3 4 5 6 
#
# 1 102.9672 57.9183 33.7072 0.0000 -18.2176 0.0000
# 2 57.9183 107.3059 49.1701 0.0000 -11.0261 0.0000
# 3 33.7072 49.1701 83.1519 0.0000 -33.8885 0.0000
# 4 0.0000 0.0000 0.0000 41.8957 0.0000 -1.2550
# 5 -18.2176 -11.0261 -33.8885 0.0000 54.9263 0.0000
# 6 0.0000 0.0000 0.0000 -1.2550 0.0000 -5.1306
#
#
#
# Elastic Compliance Matrix: (Units=1/GPa)
#
#
# Indices 1 2 3 4 5 6 
#
# 1 0.014514 -0.007417 -0.000190 0.000000 0.003207 0.000000
# 2 -0.007417 0.016904 -0.008829 0.000000 -0.004514 0.000000
# 3 -0.000190 -0.008829 0.022144 0.000000 0.011827 0.000000
# 4 0.000000 0.000000 0.000000 0.023695 0.000000 -0.005796
# 5 0.003207 -0.004514 0.011827 0.000000 0.025661 0.000000
# 6 0.000000 0.000000 0.000000 -0.005796 0.000000 -0.193493
#
#
# Mechanical properties :
#
#
# Convention : Reuss Voigt Hill
#
# Bulk Modulus (GPa) = 48.33333 63.89068 56.11200
# Shear Modulus (GPa) = -98.41550 28.51358 -34.95096
#
# Velocity S-wave (km/s) = -6.65601 3.58268 -3.96654
# Velocity P-wave (km/s) = 6.10839 6.77311 2.06914
#
# Compressibility (1/GPa) = 0.02068966
#
# Stress axis : x y z
#
# Youngs Moduli (GPa) = 68.90106 59.15665 45.15816
#
# Poissons Ratio (x) = 0.43876 0.00860
# Poissons Ratio (y) = 0.51103 0.39870
# Poissons Ratio (z) = 0.01311 0.52230
#
# Static dielectric constant tensor:
#      x y z
#    x 1.812240 0.000000 -0.043450 
#    y 0.000000 1.825770 0.000000 
#    z -0.043450 0.000000 1.922750 
# 
# From -- ./inp_files/54275.got.cif
#   From: 2010.05.17/outbox.cif.g08.bks.cpg/sg15_28_cif.got.tgz:54275.got - 2010.06.03 18:47:42.
