data_PCOD9299192
_publ_section_title
;
Structure prediction by ZEFSAII (Michael W. Deem and Ramdas Pophale) SiO2 
 PCOD9299192
Probable space group: C 2/C
;
_chemical_formula_sum "Si O2"
_cell_formula_units_Z 28
_cell_length_a 16.702456
_cell_length_b 4.834348
_cell_length_c 13.443300
_cell_angle_alpha 90.000000
_cell_angle_beta 93.680456
_cell_angle_gamma 90.000000
_cell_volume 1083.247040
_symmetry_space_group_name_H-M "C 2/C"
_symmetry_group_IT_number 15
_symmetry_cell_setting 'monoclinic'
loop_
_space_group_symop_operation_xyz
x,y,z
-x,y,1/2-z
-x,-y,-z
x,-y,1/2+z
1/2+x,1/2+y,z
1/2-x,1/2+y,1/2-z
1/2-x,1/2-y,-z
1/2+x,1/2-y,1/2+z
loop_
_atom_site_type_symbol
_atom_site_label
_atom_site_fract_x
_atom_site_fract_y
_atom_site_fract_z
Si Si1 0.111510 0.403777 0.093113
Si Si2 0.750000 0.750000 0.500000
Si Si3 0.878477 0.306393 0.184563
Si Si4 0.964831 0.185005 0.604183
O O1 0.187074 0.528132 0.042707
O O2 0.134675 0.269090 0.199479
O O3 0.048766 0.653777 0.106847
O O4 0.071484 0.195368 0.010271
O O5 0.803147 0.754412 0.609216
O O6 0.908042 0.616821 0.166085
O O7 0.950842 0.112533 0.150446
#
# Coordination Sequence:
#
# PCOD9299192 Si02
#       4
#     8   4   8   8
#     4  10  24  47  75 106 148 191 243 306 363 433
#     4  10  26  46  72 112 150 192 240 296 376 448
#     4  11  25  46  74 107 148 193 242 302 366 430
#     4  10  25  46  73 107 141 192 252 297 356 435
#
# _framework density 25.848212
#
# number of rings (size 3 to 8) (size 9 to 14) (size 15 to 20)
#    0.000    1.714    0.000    0.857    0.000   28.571 
#    0.000    5.714    0.000    0.000    0.000    0.000 
#    0.000    0.000    0.000    0.000    0.000    0.000 
#
# Total GULP energy -78055.347695 kJ/mol
# GULP energy per Si atom -5575.381978 kJ/mol
# Density = 2.578938 g / cm^3
# Si number density = 25.848212 Si / 1000 Ang^3
#
#
#
# Elastic Constant Matrix: (Units=GPa)
#
#
# Indices 1 2 3 4 5 6 
#
# 1 59.6298 24.3664 54.2882 0.0000 7.0672 0.0000
# 2 24.3664 69.2914 56.2575 0.0000 8.1577 0.0000
# 3 54.2882 56.2575 291.1463 0.0000 16.5465 0.0000
# 4 0.0000 0.0000 0.0000 21.2807 0.0000 -11.7234
# 5 7.0672 8.1577 16.5465 0.0000 34.5605 0.0000
# 6 0.0000 0.0000 0.0000 -11.7234 0.0000 20.4819
#
#
#
# Elastic Compliance Matrix: (Units=1/GPa)
#
#
# Indices 1 2 3 4 5 6 
#
# 1 0.021751 -0.005010 -0.002983 0.000000 -0.001837 0.000000
# 2 -0.005010 0.018489 -0.002517 0.000000 -0.002134 0.000000
# 3 -0.002983 -0.002517 0.004532 0.000000 -0.000966 0.000000
# 4 0.000000 0.000000 0.000000 0.068632 0.000000 0.039284
# 5 -0.001837 -0.002134 -0.000966 0.000000 0.030277 0.000000
# 6 0.000000 0.000000 0.000000 0.039284 0.000000 0.071309
#
#
# Mechanical properties :
#
#
# Convention : Reuss Voigt Hill
#
# Bulk Modulus (GPa) = 42.10410 76.65463 59.37937
# Shear Modulus (GPa) = 20.49789 34.27499 27.38644
#
# Velocity S-wave (km/s) = 2.81910 3.64539 3.25854
# Velocity P-wave (km/s) = 5.18852 6.88757 6.09751
#
# Compressibility (1/GPa) = 0.02375066
#
# Stress axis : x y z
#
# Youngs Moduli (GPa) = 45.97427 54.08766 220.64382
#
# Poissons Ratio (x) = 0.27101 0.65824
# Poissons Ratio (y) = 0.23035 0.55534
# Poissons Ratio (z) = 0.13715 0.13613
#
# Static dielectric constant tensor:
#      x y z
#    x 1.956240 0.000000 -0.018500 
#    y 0.000000 1.997710 0.000000 
#    z -0.018500 0.000000 2.038330 
# 
# From -- ./inp_files/157929.got.cif
#   From: 2010.05.17/outbox.cif.g08.bks.cpg/sg15_79_cif.got.tgz:157929.got - 2010.06.03 18:47:42.
