data_PCOD9299769
_publ_section_title
;
Structure prediction by ZEFSAII (Michael W. Deem and Ramdas Pophale) SiO2 
 PCOD9299769
Probable space group: C 2/C
;
_chemical_formula_sum "Si O2"
_cell_formula_units_Z 36
_cell_length_a 8.072925
_cell_length_b 9.585318
_cell_length_c 19.846472
_cell_angle_alpha 90.000000
_cell_angle_beta 71.937809
_cell_angle_gamma 90.000000
_cell_volume 1460.069856
_symmetry_space_group_name_H-M "C 2/C"
_symmetry_group_IT_number 15
_symmetry_cell_setting 'monoclinic'
loop_
_space_group_symop_operation_xyz
x,y,z
-x,y,1/2-z
-x,-y,-z
x,-y,1/2+z
1/2+x,1/2+y,z
1/2-x,1/2+y,1/2-z
1/2-x,1/2-y,-z
1/2+x,1/2-y,1/2+z
loop_
_atom_site_type_symbol
_atom_site_label
_atom_site_fract_x
_atom_site_fract_y
_atom_site_fract_z
Si Si1 0.207382 0.029756 0.979066
Si Si2 0.811685 0.955002 0.302688
Si Si3 0.000000 0.478031 0.750000
Si Si4 0.868949 0.284772 0.886011
Si Si5 0.748519 0.213761 0.393149
O O1 0.302409 0.134707 0.913316
O O2 0.282469 0.878991 0.953684
O O3 0.245048 0.110500 0.043460
O O4 0.000000 0.000000 0.000000
O O5 0.653511 0.941866 0.270097
O O6 0.775349 0.852487 0.370127
O O7 0.000000 0.914316 0.250000
O O8 0.827936 0.115798 0.325267
O O9 0.099298 0.381070 0.683528
O O10 0.056835 0.250357 0.891327
#
# Coordination Sequence:
#
# PCOD9299769 Si02
#       5
#     8   8   4   8   8
#     4  11  25  44  73 105 141 190 234 293 360 425
#     4  11  25  49  74 103 147 191 234 300 359 424
#     4  10  26  44  68 106 142 184 242 288 356 430
#     4  11  24  47  69 103 143 180 239 294 353 428
#     4  10  25  46  69 103 143 183 240 289 357 426
#
# _framework density 24.656352999999999
#
# number of rings (size 3 to 8) (size 9 to 14) (size 15 to 20)
#    0.000    1.333    1.111    2.000    6.222   10.667 
#    4.000    0.000    0.000    0.000    0.000    0.000 
#    0.000    0.000    0.000    0.000    0.000    0.000 
#
# Total GULP energy -100601.267387 kJ/mol
# GULP energy per Si atom -5588.959299 kJ/mol
# Density = 2.460023 g / cm^3
# Si number density = 24.656353 Si / 1000 Ang^3
#
#
#
# Elastic Constant Matrix: (Units=GPa)
#
#
# Indices 1 2 3 4 5 6 
#
# 1 78.3705 31.6524 32.6547 0.0000 29.2762 0.0000
# 2 31.6524 153.9426 47.6777 0.0000 10.3332 0.0000
# 3 32.6547 47.6777 61.2489 0.0000 23.3319 0.0000
# 4 0.0000 0.0000 0.0000 49.4474 0.0000 9.6848
# 5 29.2762 10.3332 23.3319 0.0000 40.5024 0.0000
# 6 0.0000 0.0000 0.0000 9.6848 0.0000 25.4603
#
#
#
# Elastic Compliance Matrix: (Units=1/GPa)
#
#
# Indices 1 2 3 4 5 6 
#
# 1 0.019588 -0.001774 -0.004921 0.000000 -0.010871 0.000000
# 2 -0.001774 0.008865 -0.007151 0.000000 0.003140 0.000000
# 3 -0.004921 -0.007151 0.028783 0.000000 -0.011199 0.000000
# 4 0.000000 0.000000 0.000000 0.021852 0.000000 -0.008312
# 5 -0.010871 0.003140 -0.011199 0.000000 0.038198 0.000000
# 6 0.000000 0.000000 0.000000 -0.008312 0.000000 0.042439
#
#
# Mechanical properties :
#
#
# Convention : Reuss Voigt Hill
#
# Bulk Modulus (GPa) = 33.84785 57.50350 45.67567
# Shear Modulus (GPa) = 25.34676 35.18716 30.26696
#
# Velocity S-wave (km/s) = 3.20972 3.78180 3.50745
# Velocity P-wave (km/s) = 5.24348 6.51475 5.91338
#
# Compressibility (1/GPa) = 0.02954398
#
# Stress axis : x y z
#
# Youngs Moduli (GPa) = 51.05207 112.80908 34.74238
#
# Poissons Ratio (x) = 0.20007 0.17098
# Poissons Ratio (y) = 0.09054 0.24844
# Poissons Ratio (z) = 0.25125 0.80668
#
# Static dielectric constant tensor:
#      x y z
#    x 1.933800 0.000000 -0.042600 
#    y 0.000000 1.966010 0.000000 
#    z -0.042600 0.000000 2.055020 
# 
# From -- ./inp_files/229329.got.cif
#   From: 2010.05.17/outbox.cif.g08.bks.cpg/sg15_115_cif.got.tgz:229329.got - 2010.06.03 18:47:42.
