data_PCOD9299218
_publ_section_title
;
Structure prediction by ZEFSAII (Michael W. Deem and Ramdas Pophale) SiO2 
 PCOD9299218
Probable space group: C 2/C
;
_chemical_formula_sum "Si O2"
_cell_formula_units_Z 44
_cell_length_a 20.105225
_cell_length_b 5.685888
_cell_length_c 14.227806
_cell_angle_alpha 90.000000
_cell_angle_beta 97.555395
_cell_angle_gamma 90.000000
_cell_volume 1612.346034
_symmetry_space_group_name_H-M "C 2/C"
_symmetry_group_IT_number 15
_symmetry_cell_setting 'monoclinic'
loop_
_space_group_symop_operation_xyz
x,y,z
-x,y,1/2-z
-x,-y,-z
x,-y,1/2+z
1/2+x,1/2+y,z
1/2-x,1/2+y,1/2-z
1/2-x,1/2-y,-z
1/2+x,1/2-y,1/2+z
loop_
_atom_site_type_symbol
_atom_site_label
_atom_site_fract_x
_atom_site_fract_y
_atom_site_fract_z
Si Si1 0.250000 0.750000 0.500000
Si Si2 0.639494 0.893109 0.908045
Si Si3 0.870105 0.998184 0.902051
Si Si4 0.067029 0.642329 0.729521
Si Si5 0.283001 0.700720 0.736595
Si Si6 0.495200 0.207719 0.423973
O O1 0.310101 0.971716 0.502705
O O2 0.190514 0.926934 0.541460
O O3 0.697911 0.727093 0.870520
O O4 0.573561 0.744948 0.918205
O O5 0.614138 0.079590 0.826772
O O6 0.891926 0.775639 0.842202
O O7 0.844620 0.179521 0.817939
O O8 0.940552 0.108101 0.949213
O O9 0.000000 0.784789 0.750000
O O10 0.033981 0.416649 0.674084
O O11 0.249545 0.448927 0.744461
O O12 0.500000 0.000000 0.500000
#
# Coordination Sequence:
#
# PCOD9299218 Si02
#       6
#     4   8   8   8   8   8
#     4  12  28  46  74 116 168 224 282 348 440 512
#     4  11  25  49  77 118 160 217 291 344 440 514
#     4  12  27  49  79 117 166 223 286 352 441 522
#     4  10  24  47  80 113 153 216 279 356 420 514
#     4  12  26  49  83 118 165 223 293 359 422 524
#     4  11  26  50  77 117 165 211 281 357 438 521
#
# _framework density 27.289425999999999
#
# number of rings (size 3 to 8) (size 9 to 14) (size 15 to 20)
#    0.000    0.727    3.636    2.182    2.545    4.364 
#    6.545    4.545    0.000    0.000    0.000    0.000 
#    0.000    0.000    0.000    0.000    0.000    0.000 
#
# Total GULP energy -122637.629636 kJ/mol
# GULP energy per Si atom -5574.437711 kJ/mol
# Density = 2.722731 g / cm^3
# Si number density = 27.289426 Si / 1000 Ang^3
#
#
#
# Elastic Constant Matrix: (Units=GPa)
#
#
# Indices 1 2 3 4 5 6 
#
# 1 255.9742 85.8058 61.8168 0.0000 26.4820 0.0000
# 2 85.8058 112.0617 45.9034 0.0000 -0.9721 0.0000
# 3 61.8168 45.9034 97.2986 0.0000 -3.2780 0.0000
# 4 0.0000 0.0000 0.0000 44.7447 0.0000 18.2365
# 5 26.4820 -0.9721 -3.2780 0.0000 70.7382 0.0000
# 6 0.0000 0.0000 0.0000 18.2365 0.0000 35.0296
#
#
#
# Elastic Compliance Matrix: (Units=1/GPa)
#
#
# Indices 1 2 3 4 5 6 
#
# 1 0.005884 -0.003672 -0.002085 0.000000 -0.002350 0.000000
# 2 -0.003672 0.013353 -0.003921 0.000000 0.001376 0.000000
# 3 -0.002085 -0.003921 0.013498 0.000000 0.001352 0.000000
# 4 0.000000 0.000000 0.000000 0.028368 0.000000 -0.014769
# 5 -0.002350 0.001376 0.001352 0.000000 0.015098 0.000000
# 6 0.000000 0.000000 0.000000 -0.014769 0.000000 0.036236
#
#
# Mechanical properties :
#
#
# Convention : Reuss Voigt Hill
#
# Bulk Modulus (GPa) = 74.74003 94.70962 84.72483
# Shear Modulus (GPa) = 36.69678 48.22307 42.45992
#
# Velocity S-wave (km/s) = 3.67103 4.20825 3.94878
# Velocity P-wave (km/s) = 6.73914 7.64156 7.20449
#
# Compressibility (1/GPa) = 0.01337971
#
# Stress axis : x y z
#
# Youngs Moduli (GPa) = 169.94801 74.88975 74.08673
#
# Poissons Ratio (x) = 0.27497 0.15450
# Poissons Ratio (y) = 0.62400 0.29046
# Poissons Ratio (z) = 0.35440 0.29361
#
# Static dielectric constant tensor:
#      x y z
#    x 4.539030 0.000000 2.232640 
#    y 0.000000 7.769490 0.000000 
#    z 2.232640 0.000000 4.713630 
# 
# From -- ./inp_files/212915.got.cif
#   From: 2010.05.17/outbox.cif.g08.bks.cpg/sg15_107_cif.got.tgz:212915.got - 2010.06.03 18:47:42.
