data_PCOD9299508
_publ_section_title
;
Structure prediction by ZEFSAII (Michael W. Deem and Ramdas Pophale) SiO2 
 PCOD9299508
Probable space group: C 2/C
;
_chemical_formula_sum "Si O2"
_cell_formula_units_Z 40
_cell_length_a 12.598696
_cell_length_b 7.481933
_cell_length_c 18.048352
_cell_angle_alpha 90.000000
_cell_angle_beta 74.020088
_cell_angle_gamma 90.000000
_cell_volume 1635.544004
_symmetry_space_group_name_H-M "C 2/C"
_symmetry_group_IT_number 15
_symmetry_cell_setting 'monoclinic'
loop_
_space_group_symop_operation_xyz
x,y,z
-x,y,1/2-z
-x,-y,-z
x,-y,1/2+z
1/2+x,1/2+y,z
1/2-x,1/2+y,1/2-z
1/2-x,1/2-y,-z
1/2+x,1/2-y,1/2+z
loop_
_atom_site_type_symbol
_atom_site_label
_atom_site_fract_x
_atom_site_fract_y
_atom_site_fract_z
Si Si1 0.904231 0.125022 0.053564
Si Si2 0.186457 0.409284 0.683291
Si Si3 0.870601 0.512423 0.509506
Si Si4 0.711316 0.496237 0.677966
Si Si5 0.430700 0.202661 0.867832
O O1 0.792153 0.045625 0.109437
O O2 0.865829 0.271494 0.999617
O O3 0.958933 0.224652 0.114664
O O4 0.000000 0.000000 0.000000
O O5 0.226477 0.462524 0.757187
O O6 0.080973 0.518297 0.674743
O O7 0.167711 0.198058 0.684975
O O8 0.797268 0.476433 0.594481
O O9 0.856018 0.356202 0.452755
O O10 0.000000 0.500000 0.500000
O O11 0.618034 0.352541 0.676459
#
# Coordination Sequence:
#
# PCOD9299508 Si02
#       5
#     8   8   8   8   8
#     4  10  25  42  68 104 136 170 240 283 335 422
#     4  11  25  44  68  98 139 179 228 284 342 417
#     4   9  22  41  64  99 132 174 229 280 334 413
#     4  11  23  42  67  99 132 181 230 276 348 415
#     4  11  24  43  72  92 139 181 221 285 353 392
#
# _framework density 24.456695
#
# number of rings (size 3 to 8) (size 9 to 14) (size 15 to 20)
#    0.000    1.600    2.000    0.600   11.200    2.400 
#    3.600    0.000   13.200    0.000    0.000    0.000 
#    0.000    0.000    0.000    0.000    0.000    0.000 
#
# Total GULP energy -111663.778956 kJ/mol
# GULP energy per Si atom -5583.188948 kJ/mol
# Density = 2.440103 g / cm^3
# Si number density = 24.456695 Si / 1000 Ang^3
#
#
#
# Elastic Constant Matrix: (Units=GPa)
#
#
# Indices 1 2 3 4 5 6 
#
# 1 56.5468 29.7294 -1.5695 0.0000 23.8064 0.0000
# 2 29.7294 96.5032 23.2462 0.0000 7.3016 0.0000
# 3 -1.5695 23.2462 36.7404 0.0000 -12.6558 0.0000
# 4 0.0000 0.0000 0.0000 30.6842 0.0000 20.4385
# 5 23.8064 7.3016 -12.6558 0.0000 44.9256 0.0000
# 6 0.0000 0.0000 0.0000 20.4385 0.0000 30.9404
#
#
#
# Elastic Compliance Matrix: (Units=1/GPa)
#
#
# Indices 1 2 3 4 5 6 
#
# 1 0.027172 -0.007843 0.001775 0.000000 -0.012624 0.000000
# 2 -0.007843 0.015419 -0.010546 0.000000 -0.001321 0.000000
# 3 0.001775 -0.010546 0.037911 0.000000 0.011453 0.000000
# 4 0.000000 0.000000 0.000000 0.058197 0.000000 -0.038444
# 5 -0.012624 -0.001321 0.011453 0.000000 0.032390 0.000000
# 6 0.000000 0.000000 0.000000 -0.038444 0.000000 0.057715
#
#
# Mechanical properties :
#
#
# Convention : Reuss Voigt Hill
#
# Bulk Modulus (GPa) = 21.15323 32.51140 26.83231
# Shear Modulus (GPa) = 17.99919 30.53565 24.26742
#
# Velocity S-wave (km/s) = 2.71580 3.53733 3.15343
# Velocity P-wave (km/s) = 4.30141 5.47777 4.92484
#
# Compressibility (1/GPa) = 0.04727411
#
# Stress axis : x y z
#
# Youngs Moduli (GPa) = 36.80267 64.85612 26.37724
#
# Poissons Ratio (x) = 0.50867 -0.04681
# Poissons Ratio (y) = 0.28865 0.27816
# Poissons Ratio (z) = -0.06531 0.68395
#
# Static dielectric constant tensor:
#      x y z
#    x 1.932240 0.000000 0.020130 
#    y 0.000000 1.981960 0.000000 
#    z 0.020130 0.000000 1.986150 
# 
# From -- ./inp_files/195087.got.cif
#   From: 2010.05.17/outbox.cif.g08.bks.cpg/sg15_98_cif.got.tgz:195087.got - 2010.06.03 18:47:42.
