data_PCOD9299935
_publ_section_title
;
Structure prediction by ZEFSAII (Michael W. Deem and Ramdas Pophale) SiO2 
 PCOD9299935
Probable space group: C 2/C
;
_chemical_formula_sum "Si O2"
_cell_formula_units_Z 52
_cell_length_a 14.514074
_cell_length_b 24.535756
_cell_length_c 5.753784
_cell_angle_alpha 90.000000
_cell_angle_beta 105.995892
_cell_angle_gamma 90.000000
_cell_volume 1969.667395
_symmetry_space_group_name_H-M "C 2/C"
_symmetry_group_IT_number 15
_symmetry_cell_setting 'monoclinic'
loop_
_space_group_symop_operation_xyz
x,y,z
-x,y,1/2-z
-x,-y,-z
x,-y,1/2+z
1/2+x,1/2+y,z
1/2-x,1/2+y,1/2-z
1/2-x,1/2-y,-z
1/2+x,1/2-y,1/2+z
loop_
_atom_site_type_symbol
_atom_site_label
_atom_site_fract_x
_atom_site_fract_y
_atom_site_fract_z
Si Si1 0.406670 0.526549 0.755288
Si Si2 0.080204 0.581738 0.970590
Si Si3 0.760927 0.573644 0.098362
Si Si4 0.225930 0.347812 0.270484
Si Si5 0.500000 0.173866 0.250000
Si Si6 0.903820 0.252506 0.342690
Si Si7 0.389520 0.367507 0.706697
O O1 0.500000 0.563999 0.750000
O O2 0.417108 0.486686 0.535520
O O3 0.295327 0.542505 0.643541
O O4 0.144228 0.551117 0.210895
O O5 0.028480 0.632316 0.064639
O O6 0.160587 0.609575 0.867459
O O7 0.000000 0.554639 0.750000
O O8 0.673806 0.586677 0.212506
O O9 0.786875 0.631512 0.000910
O O10 0.184182 0.289072 0.306802
O O11 0.335083 0.353953 0.428542
O O12 0.575724 0.216798 0.402892
O O13 0.883482 0.188936 0.345565
O O14 0.000000 0.257799 0.250000
O O15 0.500000 0.380058 0.750000
#
# Coordination Sequence:
#
# PCOD9299935 Si02
#       7
#     8   8   8   8   4   8   8
#     4  10  25  48  78 105 135 178 221 276 345 423
#     4  11  20  38  62  95 127 172 223 275 326 390
#     4  11  25  40  68  99 128 168 220 279 340 412
#     4  11  21  38  60  88 128 172 221 279 321 393
#     4  12  18  36  62  82 126 174 234 264 322 384
#     4  11  21  38  56  83 128 174 229 270 318 384
#     4  10  26  38  55  87 129 178 219 281 334 382
#
# _framework density 26.400396000000001
#
# number of rings (size 3 to 8) (size 9 to 14) (size 15 to 20)
#    0.000    1.231    4.615    0.462    6.462    3.692 
#    0.000    0.000    0.000    0.923    0.000    0.000 
#    0.000    0.000    0.000    0.000    0.000    0.000 
#
# Total GULP energy -145174.560018 kJ/mol
# GULP energy per Si atom -5583.636924 kJ/mol
# Density = 2.634031 g / cm^3
# Si number density = 26.400396 Si / 1000 Ang^3
#
#
#
# Elastic Constant Matrix: (Units=GPa)
#
#
# Indices 1 2 3 4 5 6 
#
# 1 109.6288 35.0549 61.2530 0.0000 25.6509 0.0000
# 2 35.0549 48.1028 23.1617 0.0000 -3.3819 0.0000
# 3 61.2530 23.1617 136.4801 0.0000 29.5902 0.0000
# 4 0.0000 0.0000 0.0000 25.0757 0.0000 1.8209
# 5 25.6509 -3.3819 29.5902 0.0000 62.5602 0.0000
# 6 0.0000 0.0000 0.0000 1.8209 0.0000 42.4105
#
#
#
# Elastic Compliance Matrix: (Units=1/GPa)
#
#
# Indices 1 2 3 4 5 6 
#
# 1 0.015864 -0.009801 -0.004381 0.000000 -0.004962 0.000000
# 2 -0.009801 0.029357 -0.002004 0.000000 0.006553 0.000000
# 3 -0.004381 -0.002004 0.010326 0.000000 -0.003196 0.000000
# 4 0.000000 0.000000 0.000000 0.040004 0.000000 -0.001718
# 5 -0.004962 0.006553 -0.003196 0.000000 0.019885 0.000000
# 6 0.000000 0.000000 0.000000 -0.001718 0.000000 0.023653
#
#
# Mechanical properties :
#
#
# Convention : Reuss Voigt Hill
#
# Bulk Modulus (GPa) = 43.14829 59.23898 51.19364
# Shear Modulus (GPa) = 27.90384 37.65875 32.78130
#
# Velocity S-wave (km/s) = 3.25460 3.78093 3.52760
# Velocity P-wave (km/s) = 5.52291 6.44577 6.00210
#
# Compressibility (1/GPa) = 0.02317589
#
# Stress axis : x y z
#
# Youngs Moduli (GPa) = 63.03431 34.06363 96.83923
#
# Poissons Ratio (x) = 0.33384 0.42424
# Poissons Ratio (y) = 0.61778 0.19410
# Poissons Ratio (z) = 0.27615 0.06828
#
# Static dielectric constant tensor:
#      x y z
#    x 2.114860 0.000000 0.065380 
#    y 0.000000 2.124440 0.000000 
#    z 0.065380 0.000000 2.167220 
# 
# From -- ./inp_files/9115.got.cif
#   From: 2010.05.17/outbox.cif.g08.bks.cpg/sg15_5_cif.got.tgz:9115.got - 2010.06.03 18:47:42.
