data_PCOD9299962
_publ_section_title
;
Structure prediction by ZEFSAII (Michael W. Deem and Ramdas Pophale) SiO2 
 PCOD9299962
Probable space group: C 2/C
;
_chemical_formula_sum "Si O2"
_cell_formula_units_Z 20
_cell_length_a 5.456236
_cell_length_b 16.699207
_cell_length_c 12.555084
_cell_angle_alpha 90.000000
_cell_angle_beta 132.591826
_cell_angle_gamma 90.000000
_cell_volume 842.171774
_symmetry_space_group_name_H-M "C 2/C"
_symmetry_group_IT_number 15
_symmetry_cell_setting 'monoclinic'
loop_
_space_group_symop_operation_xyz
x,y,z
-x,y,1/2-z
-x,-y,-z
x,-y,1/2+z
1/2+x,1/2+y,z
1/2-x,1/2+y,1/2-z
1/2-x,1/2-y,-z
1/2+x,1/2-y,1/2+z
loop_
_atom_site_type_symbol
_atom_site_label
_atom_site_fract_x
_atom_site_fract_y
_atom_site_fract_z
Si Si1 0.864715 0.419069 0.908079
Si Si2 0.000000 0.328776 0.750000
Si Si3 0.362708 0.170413 0.823618
O O1 0.500000 0.429307 0.750000
O O2 0.083354 0.383975 0.874917
O O3 0.000000 0.500000 0.000000
O O4 0.893279 0.355136 0.011211
O O5 0.718222 0.265049 0.701845
O O6 0.500000 0.144494 0.750000
O O7 0.000000 0.134848 0.750000
#
# Coordination Sequence:
#
# PCOD9299962 Si02
#       3
#     8   4   8
#     4  12  28  47  76 112 158 201 253 316 385 451
#     4  10  26  46  82 108 152 198 262 310 380 446
#     4  10  25  49  80 114 149 195 257 314 377 450
#
# _framework density 23.748125000000002
#
# number of rings (size 3 to 8) (size 9 to 14) (size 15 to 20)
#    1.200    0.000    0.000    3.600    8.400    4.800 
#    0.000    0.000    0.000    0.000    0.000    0.000 
#    0.000    0.000    0.000    0.000    0.000    0.000 
#
# Total GULP energy -55885.962605 kJ/mol
# GULP energy per Si atom -5588.596261 kJ/mol
# Density = 2.369407 g / cm^3
# Si number density = 23.748125 Si / 1000 Ang^3
#
#
#
# Elastic Constant Matrix: (Units=GPa)
#
#
# Indices 1 2 3 4 5 6 
#
# 1 143.1386 10.8747 77.3380 0.0004 -26.9642 0.0001
# 2 10.8747 80.4387 47.7517 0.0002 -11.1150 0.0001
# 3 77.3380 47.7517 200.4646 0.0008 -18.9998 0.0003
# 4 0.0004 0.0002 0.0008 39.9944 0.0004 -25.2185
# 5 -26.9642 -11.1150 -18.9998 0.0004 69.3899 0.0001
# 6 0.0001 0.0001 0.0003 -25.2185 0.0001 -5.8333
#
#
#
# Elastic Compliance Matrix: (Units=1/GPa)
#
#
# Indices 1 2 3 4 5 6 
#
# 1 0.009408 0.001301 -0.003668 0.000000 0.002860 0.000000
# 2 0.001301 0.014795 -0.003854 0.000000 0.001820 0.000000
# 3 -0.003668 -0.003854 0.007318 0.000000 -0.000039 0.000000
# 4 0.000000 0.000000 0.000000 0.006711 0.000000 -0.029011
# 5 0.002860 0.001820 -0.000039 0.000000 0.015804 0.000000
# 6 0.000000 0.000000 0.000000 -0.029011 0.000000 -0.046009
#
#
# Mechanical properties :
#
#
# Convention : Reuss Voigt Hill
#
# Bulk Modulus (GPa) = 52.41354 77.33007 64.87181
# Shear Modulus (GPa) = 186.37073 39.91536 113.14304
#
# Velocity S-wave (km/s) = 8.86840 4.10418 6.90987
# Velocity P-wave (km/s) = 11.26868 7.42242 9.54137
#
# Compressibility (1/GPa) = 0.01907904
#
# Stress axis : x y z
#
# Youngs Moduli (GPa) = 106.29006 67.58963 136.65019
#
# Poissons Ratio (x) = -0.08794 0.50130
# Poissons Ratio (y) = -0.13829 0.52661
# Poissons Ratio (z) = 0.38992 0.26047
#
# Static dielectric constant tensor:
#      x y z
#    x 2.004340 0.000000 0.079410 
#    y 0.000000 1.911180 0.000000 
#    z 0.079410 0.000000 1.860850 
# 
# From -- ./inp_files/18976.got.cif
#   From: 2010.05.17/outbox.cif.g08.bks.cpg/sg15_10_cif.got.tgz:18976.got - 2010.06.03 18:47:42.
