data_PCOD9299676
_publ_section_title
;
Structure prediction by ZEFSAII (Michael W. Deem and Ramdas Pophale) SiO2 
 PCOD9299676
Probable space group: C 2/C
;
_chemical_formula_sum "Si O2"
_cell_formula_units_Z 56
_cell_length_a 10.212062
_cell_length_b 33.900091
_cell_length_c 13.837431
_cell_angle_alpha 90.000000
_cell_angle_beta 32.252046
_cell_angle_gamma 90.000000
_cell_volume 2556.359855
_symmetry_space_group_name_H-M "C 2/C"
_symmetry_group_IT_number 15
_symmetry_cell_setting 'monoclinic'
loop_
_space_group_symop_operation_xyz
x,y,z
-x,y,1/2-z
-x,-y,-z
x,-y,1/2+z
1/2+x,1/2+y,z
1/2-x,1/2+y,1/2-z
1/2-x,1/2-y,-z
1/2+x,1/2-y,1/2+z
loop_
_atom_site_type_symbol
_atom_site_label
_atom_site_fract_x
_atom_site_fract_y
_atom_site_fract_z
Si Si1 0.596269 0.450356 0.830026
Si Si2 0.759026 0.622744 0.969057
Si Si3 0.493335 0.839598 0.509643
Si Si4 0.955056 0.960367 0.415014
Si Si5 0.912722 0.194537 0.124002
Si Si6 0.365983 0.076876 0.552822
Si Si7 0.155192 0.277935 0.249498
O O1 0.500449 0.493770 0.864300
O O2 0.854695 0.437937 0.622561
O O3 0.391216 0.417697 0.936909
O O4 0.636972 0.453126 0.920004
O O5 0.000000 0.619599 0.750000
O O6 0.823160 0.637665 0.036727
O O7 0.582656 0.656973 0.038982
O O8 0.356126 0.823059 0.689869
O O9 0.663394 0.875884 0.433887
O O10 0.586355 0.803631 0.385821
O O11 0.769001 0.942301 0.454338
O O12 0.217002 0.938751 0.238119
O O13 0.912182 0.232160 0.195834
O O14 0.054799 0.214159 0.945732
O O15 0.000000 0.290165 0.250000
#
# Coordination Sequence:
#
# PCOD9299676 Si02
#       7
#     8   8   8   8   8   8   8
#     4  11  24  43  67  89 127 163 210 260 315 372
#     4  12  23  37  58  93 130 169 209 257 312 376
#     4  12  23  36  57  91 128 166 208 252 314 379
#     4  10  25  45  65  95 120 162 213 263 312 370
#     4  12  22  36  55  87 130 172 208 253 314 374
#     4  11  24  42  67  91 127 165 209 255 315 375
#     4  12  22  33  56  86 129 171 208 253 309 381
#
# _framework density 21.90615
#
# number of rings (size 3 to 8) (size 9 to 14) (size 15 to 20)
#    0.000    0.571    5.714    3.429    0.000    5.714 
#    0.000    0.000    0.000    0.000    0.000    9.000 
#    0.000    0.000    0.000    0.000    0.000    0.000 
#
# Total GULP energy -156321.391372 kJ/mol
# GULP energy per Si atom -5582.906835 kJ/mol
# Density = 2.185629 g / cm^3
# Si number density = 21.906150 Si / 1000 Ang^3
#
#
#
# Elastic Constant Matrix: (Units=GPa)
#
#
# Indices 1 2 3 4 5 6 
#
# 1 26.6596 10.3190 -9.6868 0.0000 2.9341 0.0000
# 2 10.3190 155.4630 57.7544 0.0000 -15.7513 0.0000
# 3 -9.6868 57.7544 99.6654 0.0000 -14.6922 0.0000
# 4 0.0000 0.0000 0.0000 41.0428 0.0000 1.5511
# 5 2.9341 -15.7513 -14.6922 0.0000 13.2927 0.0000
# 6 0.0000 0.0000 0.0000 1.5511 0.0000 9.9174
#
#
#
# Elastic Compliance Matrix: (Units=1/GPa)
#
#
# Indices 1 2 3 4 5 6 
#
# 1 0.043336 -0.006249 0.006369 0.000000 -0.009930 0.000000
# 2 -0.006249 0.009427 -0.005042 0.000000 0.006978 0.000000
# 3 0.006369 -0.005042 0.014917 0.000000 0.009107 0.000000
# 4 0.000000 0.000000 0.000000 0.024510 0.000000 -0.003833
# 5 -0.009930 0.006978 0.009107 0.000000 0.095755 0.000000
# 6 0.000000 0.000000 0.000000 -0.003833 0.000000 0.101432
#
#
# Mechanical properties :
#
#
# Convention : Reuss Voigt Hill
#
# Bulk Modulus (GPa) = 17.28996 44.28457 30.78727
# Shear Modulus (GPa) = 15.69867 27.74400 21.72133
#
# Velocity S-wave (km/s) = 2.67990 3.56264 3.15233
# Velocity P-wave (km/s) = 4.18159 6.09776 5.22821
#
# Compressibility (1/GPa) = 0.05783704
#
# Stress axis : x y z
#
# Youngs Moduli (GPa) = 23.07569 106.07770 67.03934
#
# Poissons Ratio (x) = 0.66284 -0.42698
# Poissons Ratio (y) = 0.14419 0.33798
# Poissons Ratio (z) = -0.14697 0.53479
#
# Static dielectric constant tensor:
#      x y z
#    x 1.790660 0.000000 -0.003880 
#    y 0.000000 1.820850 0.000000 
#    z -0.003880 0.000000 1.861350 
# 
# From -- ./inp_files/149262.got.cif
#   From: 2010.05.17/outbox.cif.g08.bks.cpg/sg15_75_cif.got.tgz:149262.got - 2010.06.03 18:47:42.
