data_PCOD9299003
_publ_section_title
;
Structure prediction by ZEFSAII (Michael W. Deem and Ramdas Pophale) SiO2 
 PCOD9299003
Probable space group: C 2/C
;
_chemical_formula_sum "Si O2"
_cell_formula_units_Z 32
_cell_length_a 8.780751
_cell_length_b 9.468531
_cell_length_c 17.185034
_cell_angle_alpha 90.000000
_cell_angle_beta 62.210088
_cell_angle_gamma 90.000000
_cell_volume 1263.986876
_symmetry_space_group_name_H-M "C 2/C"
_symmetry_group_IT_number 15
_symmetry_cell_setting 'monoclinic'
loop_
_space_group_symop_operation_xyz
x,y,z
-x,y,1/2-z
-x,-y,-z
x,-y,1/2+z
1/2+x,1/2+y,z
1/2-x,1/2+y,1/2-z
1/2-x,1/2-y,-z
1/2+x,1/2-y,1/2+z
loop_
_atom_site_type_symbol
_atom_site_label
_atom_site_fract_x
_atom_site_fract_y
_atom_site_fract_z
Si Si1 0.350084 0.248555 0.667244
Si Si2 0.135690 0.855282 0.080249
Si Si3 0.760924 0.060908 0.668825
Si Si4 0.872327 0.570526 0.967816
O O1 0.191225 0.189406 0.653131
O O2 0.319179 0.412069 0.691099
O O3 0.342003 0.155539 0.746339
O O4 0.524784 0.214363 0.576805
O O5 0.934525 0.849897 0.109785
O O6 0.250000 0.750000 0.000000
O O7 0.196354 0.015619 0.048757
O O8 0.662826 0.021574 0.612738
O O9 0.000000 0.500000 0.000000
#
# Coordination Sequence:
#
# PCOD9299003 Si02
#       4
#     8   8   8   8
#     4  11  27  45  74 108 149 195 245 302 379 445
#     4  11  24  46  74 106 146 193 246 306 375 435
#     4  12  26  47  74 108 153 195 246 306 377 447
#     4  10  24  46  73 107 143 190 248 308 362 439
#
# _framework density 25.316717000000001
#
# number of rings (size 3 to 8) (size 9 to 14) (size 15 to 20)
#    0.000    1.000    2.500    2.250    3.500    7.000 
#    4.500    0.000    0.000    0.000    0.000    0.000 
#    0.000    0.000    0.000    0.000    0.000    0.000 
#
# Total GULP energy -89250.643195 kJ/mol
# GULP energy per Si atom -5578.165200 kJ/mol
# Density = 2.525909 g / cm^3
# Si number density = 25.316717 Si / 1000 Ang^3
#
#
#
# Elastic Constant Matrix: (Units=GPa)
#
#
# Indices 1 2 3 4 5 6 
#
# 1 104.8434 42.9779 68.5805 0.0000 13.0253 0.0000
# 2 42.9779 156.5071 39.7912 0.0000 3.0483 0.0000
# 3 68.5805 39.7912 79.4759 0.0000 16.9139 0.0000
# 4 0.0000 0.0000 0.0000 45.6934 0.0000 -5.1114
# 5 13.0253 3.0483 16.9139 0.0000 54.9651 0.0000
# 6 0.0000 0.0000 0.0000 -5.1114 0.0000 7.6424
#
#
#
# Elastic Compliance Matrix: (Units=1/GPa)
#
#
# Indices 1 2 3 4 5 6 
#
# 1 0.022179 -0.001382 -0.018559 0.000000 0.000532 0.000000
# 2 -0.001382 0.007438 -0.002690 0.000000 0.000743 0.000000
# 3 -0.018559 -0.002690 0.031007 0.000000 -0.004994 0.000000
# 4 0.000000 0.000000 0.000000 0.023655 0.000000 0.015821
# 5 0.000532 0.000743 -0.004994 0.000000 0.019563 0.000000
# 6 0.000000 0.000000 0.000000 0.015821 0.000000 0.141431
#
#
# Mechanical properties :
#
#
# Convention : Reuss Voigt Hill
#
# Bulk Modulus (GPa) = 65.09657 71.50285 68.29971
# Shear Modulus (GPa) = 16.91158 34.29196 25.60177
#
# Velocity S-wave (km/s) = 2.58737 3.68437 3.18348
# Velocity P-wave (km/s) = 5.89022 6.81206 6.36784
#
# Compressibility (1/GPa) = 0.01536179
#
# Stress axis : x y z
#
# Youngs Moduli (GPa) = 45.08855 134.43796 32.25090
#
# Poissons Ratio (x) = 0.18581 0.59855
# Poissons Ratio (y) = 0.06232 0.08674
# Poissons Ratio (z) = 0.83681 0.36158
#
# Static dielectric constant tensor:
#      x y z
#    x 2.041290 0.000000 -0.028850 
#    y 0.000000 2.032310 0.000000 
#    z -0.028850 0.000000 1.990200 
# 
# From -- ./inp_files/132310.got.cif
#   From: 2010.05.17/outbox.cif.g08.bks.cpg/sg15_67_cif.got.tgz:132310.got - 2010.06.03 18:47:42.
