data_PCOD9299342
_publ_section_title
;
Structure prediction by ZEFSAII (Michael W. Deem and Ramdas Pophale) SiO2 
 PCOD9299342
Probable space group: C 2/C
;
_chemical_formula_sum "Si O2"
_cell_formula_units_Z 48
_cell_length_a 10.891022
_cell_length_b 20.378630
_cell_length_c 15.008188
_cell_angle_alpha 90.000000
_cell_angle_beta 137.341282
_cell_angle_gamma 90.000000
_cell_volume 2257.171171
_symmetry_space_group_name_H-M "C 2/C"
_symmetry_group_IT_number 15
_symmetry_cell_setting 'monoclinic'
loop_
_space_group_symop_operation_xyz
x,y,z
-x,y,1/2-z
-x,-y,-z
x,-y,1/2+z
1/2+x,1/2+y,z
1/2-x,1/2+y,1/2-z
1/2-x,1/2-y,-z
1/2+x,1/2-y,1/2+z
loop_
_atom_site_type_symbol
_atom_site_label
_atom_site_fract_x
_atom_site_fract_y
_atom_site_fract_z
Si Si1 0.500000 0.146123 0.250000
Si Si2 0.095617 0.454326 0.123780
Si Si3 0.210841 0.615753 0.524630
Si Si4 0.785709 0.741031 0.878487
Si Si5 0.349224 0.309747 0.384137
Si Si6 0.500000 0.879499 0.250000
Si Si7 0.023886 0.045744 0.598580
O O1 0.555021 0.107511 0.367690
O O2 0.327387 0.191941 0.172135
O O3 0.131360 0.392159 0.080298
O O4 0.007277 0.427445 0.167409
O O5 0.294930 0.479487 0.256803
O O6 0.000000 0.500000 0.000000
O O7 0.278345 0.690675 0.576512
O O8 0.358865 0.560676 0.578405
O O9 0.727122 0.716471 0.750005
O O10 0.998092 0.759687 0.999576
O O11 0.174738 0.332075 0.348049
O O12 0.442172 0.380213 0.416908
O O13 0.000000 0.000000 0.500000
#
# Coordination Sequence:
#
# PCOD9299342 Si02
#       7
#     4   8   8   8   8   4   8
#     4  12  24  35  74 108 146 171 236 314 358 438
#     4  11  27  44  72  97 140 190 244 296 356 431
#     4  12  24  43  70 107 141 185 239 301 372 426
#     4  12  22  42  70 110 144 183 238 305 372 433
#     4  11  24  44  70 102 145 192 237 299 372 436
#     4  10  24  49  66 100 146 193 242 296 370 436
#     4  11  25  44  69 102 146 188 234 299 369 427
#
# _framework density 21.265556
#
# number of rings (size 3 to 8) (size 9 to 14) (size 15 to 20)
#    0.000    0.667    6.667    2.000    7.000    0.667 
#    0.000    0.000    0.000    4.000    0.000    0.000 
#    0.000    0.000    0.000    0.000    0.000    0.000 
#
# Total GULP energy -133808.927346 kJ/mol
# GULP energy per Si atom -5575.371973 kJ/mol
# Density = 2.121716 g / cm^3
# Si number density = 21.265556 Si / 1000 Ang^3
#
#
#
# Elastic Constant Matrix: (Units=GPa)
#
#
# Indices 1 2 3 4 5 6 
#
# 1 125.9147 32.0913 66.7529 0.0000 -12.2327 0.0000
# 2 32.0913 65.9483 58.8502 0.0000 -0.5251 0.0000
# 3 66.7529 58.8502 209.1280 0.0000 -7.9441 0.0000
# 4 0.0000 0.0000 0.0000 47.6042 -0.0001 -5.2914
# 5 -12.2327 -0.5251 -7.9441 -0.0001 36.1853 0.0000
# 6 0.0000 0.0000 0.0000 -5.2914 0.0000 25.9825
#
#
#
# Elastic Compliance Matrix: (Units=1/GPa)
#
#
# Indices 1 2 3 4 5 6 
#
# 1 0.010189 -0.002845 -0.002342 0.000000 0.002889 0.000000
# 2 -0.002845 0.021076 -0.005090 0.000000 -0.001774 0.000000
# 3 -0.002342 -0.005090 0.006987 0.000000 0.000668 0.000000
# 4 0.000000 0.000000 0.000000 0.021493 0.000000 0.004377
# 5 0.002889 -0.001774 0.000668 0.000000 0.028733 0.000000
# 6 0.000000 0.000000 0.000000 0.004377 0.000000 0.039379
#
#
# Mechanical properties :
#
#
# Convention : Reuss Voigt Hill
#
# Bulk Modulus (GPa) = 56.50458 79.59776 68.05117
# Shear Modulus (GPa) = 32.40191 38.17416 35.28803
#
# Velocity S-wave (km/s) = 3.90767 4.24148 4.07799
# Velocity P-wave (km/s) = 6.85481 7.84210 7.36502
#
# Compressibility (1/GPa) = 0.01769768
#
# Stress axis : x y z
#
# Youngs Moduli (GPa) = 98.14198 47.44698 143.12115
#
# Poissons Ratio (x) = 0.13500 0.33518
# Poissons Ratio (y) = 0.27925 0.72851
# Poissons Ratio (z) = 0.22984 0.24151
#
# Static dielectric constant tensor:
#      x y z
#    x 1.921820 0.000000 0.045440 
#    y 0.000000 1.990870 0.000000 
#    z 0.045440 0.000000 1.789790 
# 
# From -- ./inp_files/147479.got.cif
#   From: 2010.05.17/outbox.cif.g08.bks.cpg/sg15_74_cif.got.tgz:147479.got - 2010.06.03 18:47:42.
