data_PCOD9299663
_publ_section_title
;
Structure prediction by ZEFSAII (Michael W. Deem and Ramdas Pophale) SiO2 
 PCOD9299663
Probable space group: C 2/C
;
_chemical_formula_sum "Si O2"
_cell_formula_units_Z 64
_cell_length_a 15.721258
_cell_length_b 9.250719
_cell_length_c 21.322101
_cell_angle_alpha 90.000000
_cell_angle_beta 126.257973
_cell_angle_gamma 90.000000
_cell_volume 2500.477793
_symmetry_space_group_name_H-M "C 2/C"
_symmetry_group_IT_number 15
_symmetry_cell_setting 'monoclinic'
loop_
_space_group_symop_operation_xyz
x,y,z
-x,y,1/2-z
-x,-y,-z
x,-y,1/2+z
1/2+x,1/2+y,z
1/2-x,1/2+y,1/2-z
1/2-x,1/2-y,-z
1/2+x,1/2-y,1/2+z
loop_
_atom_site_type_symbol
_atom_site_label
_atom_site_fract_x
_atom_site_fract_y
_atom_site_fract_z
Si Si1 0.666021 0.954578 0.778415
Si Si2 0.753144 0.512323 0.353293
Si Si3 0.541448 0.391972 0.703741
Si Si4 0.138486 0.116016 0.914432
Si Si5 0.474960 0.648086 0.523667
Si Si6 0.422074 0.948207 0.631633
Si Si7 0.684907 0.285564 0.185705
Si Si8 0.536148 0.854240 0.097325
O O1 0.658941 0.989054 0.849229
O O2 0.747088 0.071108 0.788454
O O3 0.543469 0.965413 0.706391
O O4 0.695820 0.803235 0.756270
O O5 0.639500 0.507084 0.267563
O O6 0.733559 0.437558 0.412016
O O7 0.859354 0.447799 0.369890
O O8 0.772823 0.682705 0.352261
O O9 0.500000 0.319757 0.750000
O O10 0.448879 0.495221 0.639498
O O11 0.559342 0.269924 0.659543
O O12 0.104104 0.278624 0.883666
O O13 0.136502 0.126835 0.989046
O O14 0.500000 0.500000 0.500000
O O15 0.565236 0.681261 0.614250
O O16 0.481131 0.773200 0.475509
O O17 0.435654 0.049224 0.576079
#
# Coordination Sequence:
#
# PCOD9299663 Si02
#       8
#     8   8   8   8   8   8   8   8
#     4  11  27  46  79 117 150 191 255 335 385 449
#     4  11  27  42  78 113 148 193 260 332 386 440
#     4  10  25  44  76 106 149 195 254 323 397 441
#     4  11  25  48  73 109 152 204 250 316 385 471
#     4  12  28  52  78 109 158 219 256 310 397 480
#     4  11  26  44  75 114 152 192 251 324 397 445
#     4  12  28  49  77 117 156 199 265 322 392 465
#     4  12  26  50  76 109 156 205 258 316 383 480
#
# _framework density 25.595108
#
# number of rings (size 3 to 8) (size 9 to 14) (size 15 to 20)
#    0.000    0.750    3.750    0.750   14.000    5.500 
#    0.000    2.500    0.000    0.000    0.000    0.000 
#    0.000    0.000    0.000    0.000    0.000    0.000 
#
# Total GULP energy -178874.307095 kJ/mol
# GULP energy per Si atom -5589.822097 kJ/mol
# Density = 2.553685 g / cm^3
# Si number density = 25.595108 Si / 1000 Ang^3
#
#
#
# Elastic Constant Matrix: (Units=GPa)
#
#
# Indices 1 2 3 4 5 6 
#
# 1 134.4834 55.9990 74.9570 0.0000 -43.9690 0.0000
# 2 55.9990 123.9307 30.6123 0.0000 -17.9195 0.0000
# 3 74.9570 30.6123 87.4832 0.0000 -35.9374 0.0000
# 4 0.0000 0.0000 0.0000 43.4376 0.0000 -6.8258
# 5 -43.9690 -17.9195 -35.9374 0.0000 65.8888 0.0000
# 6 0.0000 0.0000 0.0000 -6.8258 0.0000 49.8786
#
#
#
# Elastic Compliance Matrix: (Units=1/GPa)
#
#
# Indices 1 2 3 4 5 6 
#
# 1 0.016748 -0.004221 -0.011281 0.000000 0.003876 0.000000
# 2 -0.004221 0.009940 0.000118 0.000000 -0.000049 0.000000
# 3 -0.011281 0.000118 0.023167 0.000000 0.005140 0.000000
# 4 0.000000 0.000000 0.000000 0.023528 0.000000 0.003220
# 5 0.003876 -0.000049 0.005140 0.000000 0.020553 0.000000
# 6 0.000000 0.000000 0.000000 0.003220 0.000000 0.020489
#
#
# Mechanical properties :
#
#
# Convention : Reuss Voigt Hill
#
# Bulk Modulus (GPa) = 52.39113 74.33711 63.36412
# Shear Modulus (GPa) = 32.99123 44.12959 38.56041
#
# Velocity S-wave (km/s) = 3.59411 4.15678 3.88565
# Velocity P-wave (km/s) = 6.14306 7.22115 6.70381
#
# Compressibility (1/GPa) = 0.01908720
#
# Stress axis : x y z
#
# Youngs Moduli (GPa) = 59.70726 100.60359 43.16543
#
# Poissons Ratio (x) = 0.42464 0.48696
# Poissons Ratio (y) = 0.25202 -0.00510
# Poissons Ratio (z) = 0.67357 -0.01190
#
# Static dielectric constant tensor:
#      x y z
#    x 2.058000 0.000000 -0.036930 
#    y 0.000000 2.036160 0.000000 
#    z -0.036930 0.000000 2.242050 
# 
# From -- ./inp_files/251572.got.cif
#   From: 2010.05.17/outbox.cif.g08.bks.cpg/sg15_126_cif.got.tgz:251572.got - 2010.06.03 18:47:42.
