data_PCOD9299274
_publ_section_title
;
Structure prediction by ZEFSAII (Michael W. Deem and Ramdas Pophale) SiO2 
 PCOD9299274
Probable space group: C 2/C
;
_chemical_formula_sum "Si O2"
_cell_formula_units_Z 36
_cell_length_a 9.325541
_cell_length_b 18.284533
_cell_length_c 14.585861
_cell_angle_alpha 90.000000
_cell_angle_beta 41.034125
_cell_angle_gamma 90.000000
_cell_volume 1632.789785
_symmetry_space_group_name_H-M "C 2/C"
_symmetry_group_IT_number 15
_symmetry_cell_setting 'monoclinic'
loop_
_space_group_symop_operation_xyz
x,y,z
-x,y,1/2-z
-x,-y,-z
x,-y,1/2+z
1/2+x,1/2+y,z
1/2-x,1/2+y,1/2-z
1/2-x,1/2-y,-z
1/2+x,1/2-y,1/2+z
loop_
_atom_site_type_symbol
_atom_site_label
_atom_site_fract_x
_atom_site_fract_y
_atom_site_fract_z
Si Si1 0.517604 0.823176 0.382436
Si Si2 0.500000 0.059634 0.750000
Si Si3 0.505421 0.340761 0.642684
Si Si4 0.257021 0.082305 0.388651
Si Si5 0.702495 0.321406 0.083011
O O1 0.601332 0.887759 0.277708
O O2 0.592155 0.742036 0.316364
O O3 0.258268 0.830093 0.495492
O O4 0.590420 0.834877 0.451239
O O5 0.689391 0.003513 0.627530
O O6 0.500000 0.366738 0.750000
O O7 0.387360 0.392746 0.627379
O O8 0.500000 0.114656 0.250000
O O9 0.169832 0.114854 0.525104
O O10 0.500000 0.313203 0.250000
O O11 0.750000 0.250000 0.000000
#
# Coordination Sequence:
#
# PCOD9299274 Si02
#       5
#     8   4   8   8   8
#     4  11  25  42  72 105 144 189 247 299 370 432
#     4  10  26  48  72 102 160 186 244 308 378 430
#     4  11  23  42  76 105 142 189 255 302 366 437
#     4  10  24  48  72 104 150 197 240 305 372 442
#     4  12  26  43  76 109 145 192 249 301 361 439
#
# _framework density 22.048152999999999
#
# number of rings (size 3 to 8) (size 9 to 14) (size 15 to 20)
#    0.667    0.444    3.333    2.000    6.222    1.778 
#    0.000    0.000    0.000    0.000    0.000    0.000 
#    0.000    0.000    0.000    0.000    0.000    0.000 
#
# Total GULP energy -100625.338824 kJ/mol
# GULP energy per Si atom -5590.296601 kJ/mol
# Density = 2.199797 g / cm^3
# Si number density = 22.048153 Si / 1000 Ang^3
#
#
#
# Elastic Constant Matrix: (Units=GPa)
#
#
# Indices 1 2 3 4 5 6 
#
# 1 164.3115 41.6518 28.5707 0.0005 27.8175 0.0003
# 2 41.6518 117.8992 37.1980 0.0010 19.5004 -0.0004
# 3 28.5707 37.1980 105.1155 0.0023 16.0761 -0.0007
# 4 0.0005 0.0010 0.0023 35.4798 -0.0004 14.3701
# 5 27.8175 19.5004 16.0761 -0.0004 46.8858 -0.0007
# 6 0.0003 -0.0004 -0.0007 14.3701 -0.0007 0.4195
#
#
#
# Elastic Compliance Matrix: (Units=1/GPa)
#
#
# Indices 1 2 3 4 5 6 
#
# 1 0.007230 -0.001746 -0.000847 0.000000 -0.003273 0.000001
# 2 -0.001746 0.010377 -0.002845 0.000000 -0.002305 0.000000
# 3 -0.000847 -0.002845 0.011073 0.000000 -0.002111 -0.000003
# 4 0.000000 0.000000 0.000000 -0.002189 0.000001 0.074994
# 5 -0.003273 -0.002305 -0.002111 0.000001 0.024953 -0.000002
# 6 0.000001 0.000000 -0.000003 0.074994 -0.000002 -0.185159
#
#
# Mechanical properties :
#
#
# Convention : Reuss Voigt Hill
#
# Bulk Modulus (GPa) = 56.16403 66.90746 61.53575
# Shear Modulus (GPa) = -42.77000 35.21740 -3.77630
#
# Velocity S-wave (km/s) = -4.40915 4.00095 -1.31014
# Velocity P-wave (km/s) = 0.62618 7.19413 5.06771
#
# Compressibility (1/GPa) = 0.01780499
#
# Stress axis : x y z
#
# Youngs Moduli (GPa) = 138.31486 96.36242 90.30764
#
# Poissons Ratio (x) = 0.16822 0.07647
# Poissons Ratio (y) = 0.24145 0.25696
# Poissons Ratio (z) = 0.11712 0.27419
#
# Static dielectric constant tensor:
#      x y z
#    x 1.810870 0.000000 -0.039500 
#    y 0.000000 1.825600 0.000000 
#    z -0.039500 0.000000 1.870760 
# 
# From -- ./inp_files/134178.got.cif
#   From: 2010.05.17/outbox.cif.g08.bks.cpg/sg15_68_cif.got.tgz:134178.got - 2010.06.03 18:47:42.
