data_PCOD9299197
_publ_section_title
;
Structure prediction by ZEFSAII (Michael W. Deem and Ramdas Pophale) SiO2 
 PCOD9299197
Probable space group: C 2/C
;
_chemical_formula_sum "Si O2"
_cell_formula_units_Z 60
_cell_length_a 16.403753
_cell_length_b 24.736709
_cell_length_c 6.989279
_cell_angle_alpha 90.000000
_cell_angle_beta 107.440924
_cell_angle_gamma 90.000000
_cell_volume 2705.689482
_symmetry_space_group_name_H-M "C 2/C"
_symmetry_group_IT_number 15
_symmetry_cell_setting 'monoclinic'
loop_
_space_group_symop_operation_xyz
x,y,z
-x,y,1/2-z
-x,-y,-z
x,-y,1/2+z
1/2+x,1/2+y,z
1/2-x,1/2+y,1/2-z
1/2-x,1/2-y,-z
1/2+x,1/2-y,1/2+z
loop_
_atom_site_type_symbol
_atom_site_label
_atom_site_fract_x
_atom_site_fract_y
_atom_site_fract_z
Si Si1 0.591837 0.830432 0.235440
Si Si2 0.178009 0.228314 0.304840
Si Si3 0.859174 0.994863 0.409891
Si Si4 0.795151 0.630968 0.330723
Si Si5 0.500000 0.682643 0.250000
Si Si6 0.501867 0.412796 0.474960
Si Si7 0.731104 0.991859 0.573212
Si Si8 0.909606 0.580013 0.084050
O O1 0.500000 0.813009 0.250000
O O2 0.643134 0.781350 0.167352
O O3 0.645788 0.845895 0.459976
O O4 0.579165 0.882605 0.093782
O O5 0.250000 0.250000 0.500000
O O6 0.221108 0.175285 0.240423
O O7 0.090397 0.211453 0.348842
O O8 0.835468 0.010550 0.640157
O O9 0.912647 0.939926 0.474636
O O10 0.924611 0.044302 0.427222
O O11 0.751304 0.992832 0.336475
O O12 0.766362 0.572737 0.390622
O O13 0.850051 0.615304 0.184208
O O14 0.482937 0.643421 0.414691
O O15 0.500000 0.405294 0.250000
O O16 0.642971 0.025586 0.499133
O O17 0.000000 0.569181 0.250000
#
# Coordination Sequence:
#
# PCOD9299197 Si02
#       8
#     8   8   8   8   4   8   8   8
#     4  11  23  47  73  96 135 183 231 300 354 415
#     4  10  24  47  76 100 133 186 234 293 362 414
#     4  11  21  38  59  93 140 186 219 268 339 407
#     4  11  24  45  69 101 139 180 239 293 344 423
#     4  12  24  42  70 100 134 174 230 290 346 418
#     4  11  23  38  64  98 140 177 225 274 339 423
#     4  12  23  41  64  97 145 182 231 283 341 423
#     4  12  27  43  70 104 142 189 239 290 357 419
#
# _framework density 22.175494
#
# number of rings (size 3 to 8) (size 9 to 14) (size 15 to 20)
#    0.000    0.800    4.667    3.200    1.867    2.667 
#    0.000    3.333    0.000    0.000    0.000    0.000 
#    0.000    0.000    0.000    0.000    0.000    0.000 
#
# Total GULP energy -167312.477251 kJ/mol
# GULP energy per Si atom -5577.082575 kJ/mol
# Density = 2.212502 g / cm^3
# Si number density = 22.175494 Si / 1000 Ang^3
#
#
#
# Elastic Constant Matrix: (Units=GPa)
#
#
# Indices 1 2 3 4 5 6 
#
# 1 127.2508 42.7321 40.4257 0.0000 24.6536 0.0000
# 2 42.7321 92.4422 12.1871 0.0000 25.4174 0.0000
# 3 40.4257 12.1871 108.0097 0.0000 12.3281 0.0000
# 4 0.0000 0.0000 0.0000 19.7478 0.0000 1.8360
# 5 24.6536 25.4174 12.3281 0.0000 48.0975 0.0000
# 6 0.0000 0.0000 0.0000 1.8360 0.0000 35.8565
#
#
#
# Elastic Compliance Matrix: (Units=1/GPa)
#
#
# Indices 1 2 3 4 5 6 
#
# 1 0.010677 -0.003779 -0.003269 0.000000 -0.002638 0.000000
# 2 -0.003779 0.014044 0.000470 0.000000 -0.005605 0.000000
# 3 -0.003269 0.000470 0.010575 0.000000 -0.001283 0.000000
# 4 0.000000 0.000000 0.000000 0.050881 0.000000 -0.002605
# 5 -0.002638 -0.005605 -0.001283 0.000000 0.025434 0.000000
# 6 0.000000 0.000000 0.000000 -0.002605 0.000000 0.028022
#
#
# Mechanical properties :
#
#
# Convention : Reuss Voigt Hill
#
# Bulk Modulus (GPa) = 45.16859 57.59916 51.38387
# Shear Modulus (GPa) = 31.21686 36.23088 33.72387
#
# Velocity S-wave (km/s) = 3.75603 4.04645 3.90394
# Velocity P-wave (km/s) = 6.26285 6.91826 6.59869
#
# Compressibility (1/GPa) = 0.02213928
#
# Stress axis : x y z
#
# Youngs Moduli (GPa) = 93.65827 71.20614 94.55977
#
# Poissons Ratio (x) = 0.26912 0.30909
# Poissons Ratio (y) = 0.35397 -0.04441
# Poissons Ratio (z) = 0.30614 -0.03344
#
# Static dielectric constant tensor:
#      x y z
#    x 1.923210 0.000000 -0.109910 
#    y 0.000000 1.811460 0.000000 
#    z -0.109910 0.000000 2.103290 
# 
# From -- ./inp_files/50682.got.cif
#   From: 2010.05.17/outbox.cif.g08.bks.cpg/sg15_26_cif.got.tgz:50682.got - 2010.06.03 18:47:42.
