data_PCOD9299526
_publ_section_title
;
Structure prediction by ZEFSAII (Michael W. Deem and Ramdas Pophale) SiO2 
 PCOD9299526
Probable space group: C 2/C
;
_chemical_formula_sum "Si O2"
_cell_formula_units_Z 28
_cell_length_a 5.389854
_cell_length_b 29.664810
_cell_length_c 7.778209
_cell_angle_alpha 90.000000
_cell_angle_beta 73.042048
_cell_angle_gamma 90.000000
_cell_volume 1189.574951
_symmetry_space_group_name_H-M "C 2/C"
_symmetry_group_IT_number 15
_symmetry_cell_setting 'monoclinic'
loop_
_space_group_symop_operation_xyz
x,y,z
-x,y,1/2-z
-x,-y,-z
x,-y,1/2+z
1/2+x,1/2+y,z
1/2-x,1/2+y,1/2-z
1/2-x,1/2-y,-z
1/2+x,1/2-y,1/2+z
loop_
_atom_site_type_symbol
_atom_site_label
_atom_site_fract_x
_atom_site_fract_y
_atom_site_fract_z
Si Si1 0.500000 0.604750 0.250000
Si Si2 0.712455 0.635469 0.557713
Si Si3 0.965906 0.551722 0.053013
Si Si4 0.015411 0.277436 0.448062
O O1 0.610883 0.634665 0.382229
O O2 0.679545 0.571702 0.097504
O O3 0.500000 0.647114 0.750000
O O4 0.833443 0.586304 0.573935
O O5 0.944313 0.671678 0.497154
O O6 0.000000 0.556018 0.250000
O O7 0.000000 0.500000 0.000000
O O8 0.250000 0.250000 0.500000
O O9 0.000000 0.286041 0.250000
O O10 0.750000 0.250000 0.500000
#
# Coordination Sequence:
#
# PCOD9299526 Si02
#       4
#     4   8   8   8
#     4  10  26  46  72 114 156 206 262 328 400 460
#     4  11  27  48  78 110 152 207 266 324 403 479
#     4  10  25  42  71 110 151 206 257 327 393 469
#     4  12  29  51  79 117 153 205 262 329 406 478
#
# _framework density 23.53782
#
# number of rings (size 3 to 8) (size 9 to 14) (size 15 to 20)
#    0.000    1.143    0.000    2.571   16.000    6.857 
#    0.000    0.000    0.000    0.000    0.000    0.000 
#    0.000    0.000    0.000    0.000    0.000    0.000 
#
# Total GULP energy -77945.945507 kJ/mol
# GULP energy per Si atom -5567.567536 kJ/mol
# Density = 2.348425 g / cm^3
# Si number density = 23.537820 Si / 1000 Ang^3
#
#
#
# Elastic Constant Matrix: (Units=GPa)
#
#
# Indices 1 2 3 4 5 6 
#
# 1 149.2530 69.0530 42.1355 0.0000 6.9418 0.0000
# 2 69.0530 150.9085 31.2855 0.0000 2.8361 0.0000
# 3 42.1355 31.2855 78.1182 0.0000 4.6864 0.0000
# 4 0.0000 0.0000 0.0000 25.7282 0.0000 10.7752
# 5 6.9418 2.8361 4.6864 0.0000 37.8665 0.0000
# 6 0.0000 0.0000 0.0000 10.7752 0.0000 41.8106
#
#
#
# Elastic Compliance Matrix: (Units=1/GPa)
#
#
# Indices 1 2 3 4 5 6 
#
# 1 0.009397 -0.003536 -0.003592 0.000000 -0.001013 0.000000
# 2 -0.003536 0.008559 -0.001532 0.000000 0.000197 0.000000
# 3 -0.003592 -0.001532 0.015420 0.000000 -0.001135 0.000000
# 4 0.000000 0.000000 0.000000 0.043571 0.000000 -0.011229
# 5 -0.001013 0.000197 -0.001135 0.000000 0.026720 0.000000
# 6 0.000000 0.000000 0.000000 -0.011229 0.000000 0.026811
#
#
# Mechanical properties :
#
#
# Convention : Reuss Voigt Hill
#
# Bulk Modulus (GPa) = 62.28241 73.69198 67.98719
# Shear Modulus (GPa) = 32.64779 36.80143 34.72461
#
# Velocity S-wave (km/s) = 3.72833 3.95840 3.84509
# Velocity P-wave (km/s) = 6.71208 7.22965 6.97566
#
# Compressibility (1/GPa) = 0.01605590
#
# Stress axis : x y z
#
# Youngs Moduli (GPa) = 106.41426 116.84141 64.85078
#
# Poissons Ratio (x) = 0.41319 0.23292
# Poissons Ratio (y) = 0.37632 0.09935
# Poissons Ratio (z) = 0.38220 0.17900
#
# Static dielectric constant tensor:
#      x y z
#    x 2.344370 0.000000 -0.118710 
#    y 0.000000 2.570030 0.000000 
#    z -0.118710 0.000000 1.845850 
# 
# From -- ./inp_files/20085.got.cif
#   From: 2010.05.17/outbox.cif.g08.bks.cpg/sg15_11_cif.got.tgz:20085.got - 2010.06.03 18:47:42.
