data_PCOD9299606
_publ_section_title
;
Structure prediction by ZEFSAII (Michael W. Deem and Ramdas Pophale) SiO2 
 PCOD9299606
Probable space group: C 2/C
;
_chemical_formula_sum "Si O2"
_cell_formula_units_Z 32
_cell_length_a 15.293561
_cell_length_b 17.750464
_cell_length_c 5.314971
_cell_angle_alpha 90.000000
_cell_angle_beta 61.352679
_cell_angle_gamma 90.000000
_cell_volume 1266.221167
_symmetry_space_group_name_H-M "C 2/C"
_symmetry_group_IT_number 15
_symmetry_cell_setting 'monoclinic'
loop_
_space_group_symop_operation_xyz
x,y,z
-x,y,1/2-z
-x,-y,-z
x,-y,1/2+z
1/2+x,1/2+y,z
1/2-x,1/2+y,1/2-z
1/2-x,1/2-y,-z
1/2+x,1/2-y,1/2+z
loop_
_atom_site_type_symbol
_atom_site_label
_atom_site_fract_x
_atom_site_fract_y
_atom_site_fract_z
Si Si1 0.880825 0.543645 0.408917
Si Si2 0.619794 0.458025 0.532453
Si Si3 0.263195 0.821784 0.811432
Si Si4 0.616078 0.295555 0.627124
O O1 0.859546 0.521574 0.728412
O O2 0.822378 0.613727 0.371406
O O3 0.000000 0.558177 0.250000
O O4 0.500000 0.460690 0.750000
O O5 0.656155 0.507237 0.246455
O O6 0.642739 0.371145 0.432246
O O7 0.332792 0.784883 0.494859
O O8 0.153935 0.829171 0.840087
O O9 0.250000 0.750000 0.000000
O O10 0.500000 0.284113 0.750000
#
# Coordination Sequence:
#
# PCOD9299606 Si02
#       4
#     8   8   8   8
#     4  10  25  48  78 107 143 198 255 312 369 433
#     4   9  19  37  61  92 130 175 226 272 332 426
#     4  11  27  44  69 108 143 189 245 314 372 443
#     4  10  25  44  67 100 142 194 241 297 381 447
#
# _framework density 25.272047000000001
#
# number of rings (size 3 to 8) (size 9 to 14) (size 15 to 20)
#    0.000    2.000    0.000    0.000   14.000    3.000 
#    0.000    0.000    0.000    0.000    0.000    0.000 
#    0.000    0.000    0.000    0.000    0.000    0.000 
#
# Total GULP energy -89333.716751 kJ/mol
# GULP energy per Si atom -5583.357297 kJ/mol
# Density = 2.521453 g / cm^3
# Si number density = 25.272047 Si / 1000 Ang^3
#
#
#
# Elastic Constant Matrix: (Units=GPa)
#
#
# Indices 1 2 3 4 5 6 
#
# 1 195.1478 41.0539 37.6754 0.0000 21.6110 0.0000
# 2 41.0539 107.7160 15.1294 0.0000 3.3729 0.0000
# 3 37.6754 15.1294 95.2278 0.0000 13.6781 0.0000
# 4 0.0000 0.0000 0.0000 36.1469 0.0000 14.1169
# 5 21.6110 3.3729 13.6781 0.0000 34.3079 0.0000
# 6 0.0000 0.0000 0.0000 14.1169 0.0000 41.6742
#
#
#
# Elastic Compliance Matrix: (Units=1/GPa)
#
#
# Indices 1 2 3 4 5 6 
#
# 1 0.006217 -0.002036 -0.001700 0.000000 -0.003038 0.000000
# 2 -0.002036 0.010166 -0.000902 0.000000 0.000642 0.000000
# 3 -0.001700 -0.000902 0.011828 0.000000 -0.003556 0.000000
# 4 0.000000 0.000000 0.000000 0.031883 0.000000 -0.010800
# 5 -0.003038 0.000642 -0.003556 0.000000 0.032416 0.000000
# 6 0.000000 0.000000 0.000000 -0.010800 0.000000 0.027654
#
#
# Mechanical properties :
#
#
# Convention : Reuss Voigt Hill
#
# Bulk Modulus (GPa) = 52.80981 65.08988 58.94984
# Shear Modulus (GPa) = 36.83197 42.70800 39.76999
#
# Velocity S-wave (km/s) = 3.82176 4.11534 3.97126
# Velocity P-wave (km/s) = 6.35738 6.95650 6.66368
#
# Compressibility (1/GPa) = 0.01893588
#
# Stress axis : x y z
#
# Youngs Moduli (GPa) = 160.84295 98.36600 84.54675
#
# Poissons Ratio (x) = 0.20024 0.14372
# Poissons Ratio (y) = 0.32743 0.07626
# Poissons Ratio (z) = 0.27342 0.08873
#
# Static dielectric constant tensor:
#      x y z
#    x 2.074530 0.000000 0.003380 
#    y 0.000000 2.162450 0.000000 
#    z 0.003380 0.000000 2.269100 
# 
# From -- ./inp_files/6489.got.cif
#   From: 2010.05.17/outbox.cif.g08.bks.cpg/sg15_4_cif.got.tgz:6489.got - 2010.06.03 18:47:42.
