data_PCOD9299756
_publ_section_title
;
Structure prediction by ZEFSAII (Michael W. Deem and Ramdas Pophale) SiO2 
 PCOD9299756
Probable space group: C 2/C
;
_chemical_formula_sum "Si O2"
_cell_formula_units_Z 52
_cell_length_a 11.674792
_cell_length_b 22.182105
_cell_length_c 18.364091
_cell_angle_alpha 90.000000
_cell_angle_beta 146.625776
_cell_angle_gamma 90.000000
_cell_volume 2616.176384
_symmetry_space_group_name_H-M "C 2/C"
_symmetry_group_IT_number 15
_symmetry_cell_setting 'monoclinic'
loop_
_space_group_symop_operation_xyz
x,y,z
-x,y,1/2-z
-x,-y,-z
x,-y,1/2+z
1/2+x,1/2+y,z
1/2-x,1/2+y,1/2-z
1/2-x,1/2-y,-z
1/2+x,1/2-y,1/2+z
loop_
_atom_site_type_symbol
_atom_site_label
_atom_site_fract_x
_atom_site_fract_y
_atom_site_fract_z
Si Si1 0.736623 0.397412 0.387466
Si Si2 0.243793 0.303639 0.361956
Si Si3 0.635920 0.482888 0.468358
Si Si4 0.000000 0.484313 0.250000
Si Si5 0.088556 0.123870 0.409389
Si Si6 0.269285 0.086989 0.741379
Si Si7 0.329401 0.165183 0.393262
O O1 0.500000 0.370495 0.250000
O O2 0.710049 0.447192 0.435723
O O3 0.789486 0.424930 0.336896
O O4 0.941766 0.357180 0.509680
O O5 0.347408 0.340213 0.483671
O O6 0.258449 0.344005 0.296854
O O7 0.334518 0.237342 0.401358
O O8 0.000000 0.296084 0.250000
O O9 0.808092 0.477383 0.621809
O O10 0.589874 0.552347 0.424822
O O11 0.433324 0.449468 0.389523
O O12 0.046429 0.440685 0.207291
O O13 0.253461 0.140351 0.432412
O O14 0.859837 0.144400 0.259940
#
# Coordination Sequence:
#
# PCOD9299756 Si02
#       7
#     8   8   8   4   8   8   8
#     4  10  25  46  66  91 137 182 219 264 330 404
#     4  12  22  42  65  98 133 172 217 272 335 382
#     4  11  25  42  64 100 133 175 219 265 331 402
#     4  12  22  38  66  96 134 170 210 276 334 384
#     4  11  24  39  68 103 133 165 218 283 334 379
#     4  11  24  41  66  95 133 173 215 272 329 397
#     4  11  25  39  68  97 132 174 221 276 320 392
#
# _framework density 19.876335000000001
#
# number of rings (size 3 to 8) (size 9 to 14) (size 15 to 20)
#    0.000    0.923    3.846    2.769   10.769    1.231 
#    0.000    3.077    1.692    0.000    0.000    0.000 
#    0.000    0.000    0.000    0.000    0.000    0.000 
#
# Total GULP energy -145232.040693 kJ/mol
# GULP energy per Si atom -5585.847719 kJ/mol
# Density = 1.983110 g / cm^3
# Si number density = 19.876335 Si / 1000 Ang^3
#
#
#
# Elastic Constant Matrix: (Units=GPa)
#
#
# Indices 1 2 3 4 5 6 
#
# 1 68.6095 9.7106 18.6337 -0.0005 9.2045 -0.0004
# 2 9.7106 120.1438 44.6019 -0.0003 21.8710 -0.0001
# 3 18.6337 44.6019 106.3909 -0.0027 11.7895 -0.0026
# 4 -0.0005 -0.0003 -0.0027 26.0783 -0.0011 3.1026
# 5 9.2045 21.8710 11.7895 -0.0011 32.5855 -0.0005
# 6 -0.0004 -0.0001 -0.0026 3.1026 -0.0005 23.7573
#
#
#
# Elastic Compliance Matrix: (Units=1/GPa)
#
#
# Indices 1 2 3 4 5 6 
#
# 1 0.015705 0.000334 -0.002474 0.000000 -0.003766 0.000000
# 2 0.000334 0.010843 -0.003946 0.000000 -0.005945 0.000000
# 3 -0.002474 -0.003946 0.011580 0.000001 -0.000843 0.000001
# 4 0.000000 0.000000 0.000001 0.038951 0.000001 -0.005087
# 5 -0.003766 -0.005945 -0.000843 0.000001 0.036047 0.000000
# 6 0.000000 0.000000 0.000001 -0.005087 0.000000 0.042757
#
#
# Mechanical properties :
#
#
# Convention : Reuss Voigt Hill
#
# Bulk Modulus (GPa) = 38.52257 49.00407 43.76332
# Shear Modulus (GPa) = 28.29564 31.29741 29.79653
#
# Velocity S-wave (km/s) = 3.77714 3.97244 3.87602
# Velocity P-wave (km/s) = 6.20045 6.76375 6.48821
#
# Compressibility (1/GPa) = 0.02595880
#
# Stress axis : x y z
#
# Youngs Moduli (GPa) = 63.67443 92.22290 86.35565
#
# Poissons Ratio (x) = -0.03084 0.21360
# Poissons Ratio (y) = -0.02130 0.34073
# Poissons Ratio (z) = 0.15750 0.36388
#
# Static dielectric constant tensor:
#      x y z
#    x 1.700810 0.000000 0.000320 
#    y 0.000000 1.678090 0.000000 
#    z 0.000320 0.000000 1.774130 
# 
# From -- ./inp_files/240537.got.cif
#   From: 2010.05.17/outbox.cif.g08.bks.cpg/sg15_121_cif.got.tgz:240537.got - 2010.06.03 18:47:42.
