data_PCOD9299793
_publ_section_title
;
Structure prediction by ZEFSAII (Michael W. Deem and Ramdas Pophale) SiO2 
 PCOD9299793
Probable space group: C 2/C
;
_chemical_formula_sum "Si O2"
_cell_formula_units_Z 40
_cell_length_a 23.684603
_cell_length_b 6.970508
_cell_length_c 15.965236
_cell_angle_alpha 90.000000
_cell_angle_beta 31.252140
_cell_angle_gamma 90.000000
_cell_volume 1367.446025
_symmetry_space_group_name_H-M "C 2/C"
_symmetry_group_IT_number 15
_symmetry_cell_setting 'monoclinic'
loop_
_space_group_symop_operation_xyz
x,y,z
-x,y,1/2-z
-x,-y,-z
x,-y,1/2+z
1/2+x,1/2+y,z
1/2-x,1/2+y,1/2-z
1/2-x,1/2-y,-z
1/2+x,1/2-y,1/2+z
loop_
_atom_site_type_symbol
_atom_site_label
_atom_site_fract_x
_atom_site_fract_y
_atom_site_fract_z
Si Si1 0.858915 0.134668 0.737596
Si Si2 0.415662 0.845129 0.026368
Si Si3 0.293739 0.543759 0.629595
Si Si4 0.120893 0.412361 0.592114
Si Si5 0.108734 0.179822 0.163882
O O1 0.835611 0.125213 0.667750
O O2 0.962143 0.275202 0.614795
O O3 0.889818 0.939915 0.751146
O O4 0.742867 0.174161 0.931043
O O5 0.396810 0.002965 0.978057
O O6 0.356909 0.657361 0.061269
O O7 0.336089 0.922772 0.197678
O O8 0.312563 0.616034 0.511731
O O9 0.121794 0.591031 0.653287
O O10 0.000000 0.309558 0.750000
O O11 0.000000 0.141529 0.250000
#
# Coordination Sequence:
#
# PCOD9299793 Si02
#       5
#     8   8   8   8   8
#     4  11  24  47  81 107 152 215 247 310 400 454
#     4  11  24  44  72 107 156 199 251 312 381 450
#     4  11  24  46  73 112 156 194 260 315 369 461
#     4  10  25  46  71 114 155 189 266 317 371 462
#     4  11  23  45  78 109 151 206 254 314 380 455
#
# _framework density 29.251612000000002
#
# number of rings (size 3 to 8) (size 9 to 14) (size 15 to 20)
#    0.000    1.200    2.000    3.600    2.800    0.800 
#    7.200    5.000    0.000    0.000    0.000    0.000 
#    0.000    0.000    0.000    0.000    0.000    0.000 
#
# Total GULP energy -111366.185645 kJ/mol
# GULP energy per Si atom -5568.309282 kJ/mol
# Density = 2.918503 g / cm^3
# Si number density = 29.251612 Si / 1000 Ang^3
#
#
#
# Elastic Constant Matrix: (Units=GPa)
#
#
# Indices 1 2 3 4 5 6 
#
# 1 157.9771 45.7586 36.5028 0.0004 -22.9108 0.0005
# 2 45.7586 75.9927 54.1388 -0.0068 -30.7303 0.0006
# 3 36.5028 54.1388 230.5744 -0.0044 -45.3595 0.0009
# 4 0.0004 -0.0068 -0.0044 19.9330 0.0013 -18.3221
# 5 -22.9108 -30.7303 -45.3595 0.0013 61.7671 0.0007
# 6 0.0005 0.0006 0.0009 -18.3221 0.0007 37.1789
#
#
#
# Elastic Compliance Matrix: (Units=1/GPa)
#
#
# Indices 1 2 3 4 5 6 
#
# 1 0.007692 -0.004314 -0.000077 -0.000003 0.000650 -0.000002
# 2 -0.004314 0.020388 -0.002833 0.000010 0.006463 0.000005
# 3 -0.000077 -0.002833 0.005530 0.000000 0.002623 0.000000
# 4 -0.000003 0.000010 0.000000 0.091712 0.000001 0.045197
# 5 0.000650 0.006463 0.002623 0.000001 0.021573 0.000000
# 6 -0.000002 0.000005 0.000000 0.045197 0.000000 0.049170
#
#
# Mechanical properties :
#
#
# Convention : Reuss Voigt Hill
#
# Bulk Modulus (GPa) = 52.18202 81.92717 67.05459
# Shear Modulus (GPa) = 23.05202 45.65207 34.35204
#
# Velocity S-wave (km/s) = 2.81029 3.95482 3.43062
# Velocity P-wave (km/s) = 5.32992 6.99447 6.21815
#
# Compressibility (1/GPa) = 0.01916369
#
# Stress axis : x y z
#
# Youngs Moduli (GPa) = 130.01208 49.04751 180.81880
#
# Poissons Ratio (x) = 0.21157 0.01390
# Poissons Ratio (y) = 0.56083 0.51222
# Poissons Ratio (z) = 0.00999 0.13894
#
# Static dielectric constant tensor:
#      x y z
#    x 2.325320 0.000000 0.001340 
#    y 0.000000 2.387650 0.000000 
#    z 0.001340 0.000000 2.519050 
# 
# From -- ./inp_files/218777.got.cif
#   From: 2010.05.17/outbox.cif.g08.bks.cpg/sg15_110_cif.got.tgz:218777.got - 2010.06.03 18:47:42.
