data_PCOD9299717
_publ_section_title
;
Structure prediction by ZEFSAII (Michael W. Deem and Ramdas Pophale) SiO2 
 PCOD9299717
Probable space group: C 2/C
;
_chemical_formula_sum "Si O2"
_cell_formula_units_Z 48
_cell_length_a 9.703840
_cell_length_b 10.661670
_cell_length_c 22.065534
_cell_angle_alpha 90.000000
_cell_angle_beta 108.945394
_cell_angle_gamma 90.000000
_cell_volume 2159.213911
_symmetry_space_group_name_H-M "C 2/C"
_symmetry_group_IT_number 15
_symmetry_cell_setting 'monoclinic'
loop_
_space_group_symop_operation_xyz
x,y,z
-x,y,1/2-z
-x,-y,-z
x,-y,1/2+z
1/2+x,1/2+y,z
1/2-x,1/2+y,1/2-z
1/2-x,1/2-y,-z
1/2+x,1/2-y,1/2+z
loop_
_atom_site_type_symbol
_atom_site_label
_atom_site_fract_x
_atom_site_fract_y
_atom_site_fract_z
Si Si1 0.877721 0.402693 0.007666
Si Si2 0.834693 0.373198 0.142074
Si Si3 0.500000 0.951661 0.750000
Si Si4 0.500000 0.561355 0.750000
Si Si5 0.944761 0.145991 0.325762
Si Si6 0.547930 0.386257 0.963518
Si Si7 0.674888 0.237891 0.211127
O O1 0.842845 0.422252 0.074977
O O2 0.933181 0.257322 0.008968
O O3 0.711031 0.411918 0.958713
O O4 0.000000 0.500000 0.000000
O O5 0.697283 0.294980 0.147921
O O6 0.872841 0.467435 0.201871
O O7 0.962911 0.271633 0.162743
O O8 0.448795 0.865200 0.798237
O O9 0.470588 0.472369 0.689251
O O10 0.368341 0.649808 0.750103
O O11 0.813168 0.172009 0.261581
O O12 0.924995 0.118722 0.393487
O O13 0.500000 0.500000 0.000000
#
# Coordination Sequence:
#
# PCOD9299717 Si02
#       7
#     8   8   4   4   8   8   8
#     4  10  25  48  69  99 136 184 231 283 338 408
#     4  11  22  41  68  92 132 172 216 273 335 397
#     4  11  23  36  60  98 125 167 214 270 334 403
#     4  11  23  38  62  96 129 167 214 272 344 399
#     4  11  22  41  66  93 134 169 215 278 335 399
#     4  10  25  45  70  99 133 185 231 282 341 403
#     4  11  23  38  60  97 127 170 212 270 340 395
#
# _framework density 22.230312000000001
#
# number of rings (size 3 to 8) (size 9 to 14) (size 15 to 20)
#    0.000    1.333    3.333    1.000    4.667    7.333 
#    3.000    0.000    0.000    0.000    0.000    0.000 
#    0.000    0.000    0.000    0.000    0.000    0.000 
#
# Total GULP energy -133783.802063 kJ/mol
# GULP energy per Si atom -5574.325086 kJ/mol
# Density = 2.217971 g / cm^3
# Si number density = 22.230312 Si / 1000 Ang^3
#
#
#
# Elastic Constant Matrix: (Units=GPa)
#
#
# Indices 1 2 3 4 5 6 
#
# 1 89.2760 45.6793 22.2102 0.0000 -21.2037 0.0000
# 2 45.6793 110.2896 33.6501 0.0000 -19.9710 0.0000
# 3 22.2102 33.6501 90.0134 0.0000 -19.4174 0.0000
# 4 0.0000 0.0000 0.0000 24.7718 0.0000 -10.8362
# 5 -21.2037 -19.9710 -19.4174 0.0000 31.5825 0.0000
# 6 0.0000 0.0000 0.0000 -10.8362 0.0000 45.8264
#
#
#
# Elastic Compliance Matrix: (Units=1/GPa)
#
#
# Indices 1 2 3 4 5 6 
#
# 1 0.015548 -0.005040 -0.000447 0.000000 0.006977 0.000000
# 2 -0.005040 0.012526 -0.002836 0.000000 0.002793 0.000000
# 3 -0.000447 -0.002836 0.013637 0.000000 0.006290 0.000000
# 4 0.000000 0.000000 0.000000 0.045026 0.000000 0.010647
# 5 0.006977 0.002793 0.006290 0.000000 0.041981 0.000000
# 6 0.000000 0.000000 0.000000 0.010647 0.000000 0.024339
#
#
# Mechanical properties :
#
#
# Convention : Reuss Voigt Hill
#
# Bulk Modulus (GPa) = 39.89850 54.73980 47.31915
# Shear Modulus (GPa) = 28.08064 32.97208 30.52636
#
# Velocity S-wave (km/s) = 3.55796 3.85542 3.70967
# Velocity P-wave (km/s) = 5.90471 6.67056 6.29928
#
# Compressibility (1/GPa) = 0.02506360
#
# Stress axis : x y z
#
# Youngs Moduli (GPa) = 64.31585 79.83655 73.32916
#
# Poissons Ratio (x) = 0.40237 0.03280
# Poissons Ratio (y) = 0.32415 0.20799
# Poissons Ratio (z) = 0.02877 0.22645
#
# Static dielectric constant tensor:
#      x y z
#    x 1.822690 0.000000 -0.042130 
#    y 0.000000 1.839990 0.000000 
#    z -0.042130 0.000000 1.865890 
# 
# From -- ./inp_files/263585.got.cif
#   From: 2010.05.17/outbox.cif.g08.bks.cpg/sg15_132_cif.got.tgz:263585.got - 2010.06.03 18:47:42.
