data_PCOD9299088
_publ_section_title
;
Structure prediction by ZEFSAII (Michael W. Deem and Ramdas Pophale) SiO2 
 PCOD9299088
Probable space group: C 2/C
;
_chemical_formula_sum "Si O2"
_cell_formula_units_Z 28
_cell_length_a 27.117563
_cell_length_b 7.064412
_cell_length_c 7.099249
_cell_angle_alpha 90.000000
_cell_angle_beta 48.671387
_cell_angle_gamma 90.000000
_cell_volume 1021.271258
_symmetry_space_group_name_H-M "C 2/C"
_symmetry_group_IT_number 15
_symmetry_cell_setting 'monoclinic'
loop_
_space_group_symop_operation_xyz
x,y,z
-x,y,1/2-z
-x,-y,-z
x,-y,1/2+z
1/2+x,1/2+y,z
1/2-x,1/2+y,1/2-z
1/2-x,1/2-y,-z
1/2+x,1/2-y,1/2+z
loop_
_atom_site_type_symbol
_atom_site_label
_atom_site_fract_x
_atom_site_fract_y
_atom_site_fract_z
Si Si1 0.063598 0.615853 0.954160
Si Si2 0.000000 0.189920 0.250000
Si Si3 0.368334 0.290647 0.195826
Si Si4 0.315965 0.331023 0.919670
O O1 0.965356 0.307670 0.170160
O O2 0.124817 0.746068 0.855551
O O3 0.000000 0.630468 0.250000
O O4 0.100903 0.413184 0.825646
O O5 0.937422 0.091779 0.498166
O O6 0.321813 0.440928 0.417048
O O7 0.330833 0.259409 0.092959
O O8 0.250000 0.250000 0.000000
#
# Coordination Sequence:
#
# PCOD9299088 Si02
#       4
#     8   4   8   8
#     4  11  26  49  81 117 157 202 257 324 391 454
#     4  10  24  46  78 124 154 200 252 332 388 458
#     4  11  26  48  76 109 151 201 256 315 393 449
#     4  11  30  49  74 113 155 210 258 320 382 468
#
# _framework density 27.416809000000001
#
# number of rings (size 3 to 8) (size 9 to 14) (size 15 to 20)
#    0.000    1.143    1.429    0.857   14.000    3.429 
#    0.000    1.429    0.000    0.000    0.000    0.000 
#    0.000    0.000    0.000    0.000    0.000    0.000 
#
# Total GULP energy -78183.878712 kJ/mol
# GULP energy per Si atom -5584.562765 kJ/mol
# Density = 2.735441 g / cm^3
# Si number density = 27.416809 Si / 1000 Ang^3
#
#
#
# Elastic Constant Matrix: (Units=GPa)
#
#
# Indices 1 2 3 4 5 6 
#
# 1 227.5341 77.6811 58.3338 0.0000 -50.9685 0.0000
# 2 77.6811 185.0559 67.9848 0.0000 -31.7156 0.0000
# 3 58.3338 67.9848 95.7593 0.0000 -29.1251 0.0000
# 4 0.0000 0.0000 0.0000 34.7825 0.0000 -13.9769
# 5 -50.9685 -31.7156 -29.1251 0.0000 50.2862 0.0000
# 6 0.0000 0.0000 0.0000 -13.9769 0.0000 19.8332
#
#
#
# Elastic Compliance Matrix: (Units=1/GPa)
#
#
# Indices 1 2 3 4 5 6 
#
# 1 0.006260 -0.001282 -0.001480 0.000000 0.004679 0.000000
# 2 -0.001282 0.007734 -0.004396 0.000000 0.001032 0.000000
# 3 -0.001480 -0.004396 0.015981 0.000000 0.004983 0.000000
# 4 0.000000 0.000000 0.000000 0.040108 0.000000 0.028265
# 5 0.004679 0.001032 0.004983 0.000000 0.028166 0.000000
# 6 0.000000 0.000000 0.000000 0.028265 0.000000 0.070340
#
#
# Mechanical properties :
#
#
# Convention : Reuss Voigt Hill
#
# Bulk Modulus (GPa) = 63.86035 101.81654 82.83845
# Shear Modulus (GPa) = 26.57817 41.27035 33.92426
#
# Velocity S-wave (km/s) = 3.11692 3.88402 3.52142
# Velocity P-wave (km/s) = 6.02466 7.57174 6.84207
#
# Compressibility (1/GPa) = 0.01565917
#
# Stress axis : x y z
#
# Youngs Moduli (GPa) = 159.73555 129.30376 62.57499
#
# Poissons Ratio (x) = 0.16579 0.09262
# Poissons Ratio (y) = 0.20481 0.27505
# Poissons Ratio (z) = 0.23643 0.56836
#
# Static dielectric constant tensor:
#      x y z
#    x 2.094190 0.000000 0.140940 
#    y 0.000000 2.309580 0.000000 
#    z 0.140940 0.000000 2.410640 
# 
# From -- ./inp_files/53272.got.cif
#   From: 2010.05.17/outbox.cif.g08.bks.cpg/sg15_27_cif.got.tgz:53272.got - 2010.06.03 18:47:42.
