data_PCOD9299628
_publ_section_title
;
Structure prediction by ZEFSAII (Michael W. Deem and Ramdas Pophale) SiO2 
 PCOD9299628
Probable space group: C 2/C
;
_chemical_formula_sum "Si O2"
_cell_formula_units_Z 40
_cell_length_a 6.148807
_cell_length_b 21.660278
_cell_length_c 13.579722
_cell_angle_alpha 90.000000
_cell_angle_beta 109.338978
_cell_angle_gamma 90.000000
_cell_volume 1706.564082
_symmetry_space_group_name_H-M "C 2/C"
_symmetry_group_IT_number 15
_symmetry_cell_setting 'monoclinic'
loop_
_space_group_symop_operation_xyz
x,y,z
-x,y,1/2-z
-x,-y,-z
x,-y,1/2+z
1/2+x,1/2+y,z
1/2-x,1/2+y,1/2-z
1/2-x,1/2-y,-z
1/2+x,1/2-y,1/2+z
loop_
_atom_site_type_symbol
_atom_site_label
_atom_site_fract_x
_atom_site_fract_y
_atom_site_fract_z
Si Si1 0.891268 0.674604 0.626280
Si Si2 0.607744 0.511583 0.172839
Si Si3 0.269603 0.642826 0.282561
Si Si4 0.328313 0.951605 0.023951
Si Si5 0.554020 0.711438 0.018879
O O1 0.923777 0.617865 0.553902
O O2 0.617247 0.684964 0.588303
O O3 0.000000 0.666141 0.750000
O O4 0.961357 0.739008 0.585218
O O5 0.500000 0.476409 0.250000
O O6 0.742501 0.569976 0.238559
O O7 0.764534 0.472040 0.125034
O O8 0.402325 0.539960 0.075314
O O9 0.500000 0.662914 0.250000
O O10 0.352862 0.654979 0.404968
O O11 0.000000 0.667168 0.250000
O O12 0.500000 0.000000 0.000000
O O13 0.750000 0.750000 0.000000
#
# Coordination Sequence:
#
# PCOD9299628 Si02
#       5
#     8   8   8   8   8
#     4  11  27  48  70 107 150 195 258 313 398 459
#     4  10  25  44  69 108 144 197 254 310 387 456
#     4  11  26  45  78 108 147 194 255 313 378 452
#     4  11  26  45  72 105 152 195 253 320 383 473
#     4  11  27  45  73 103 147 196 253 318 379 464
#
# _framework density 23.438908000000001
#
# number of rings (size 3 to 8) (size 9 to 14) (size 15 to 20)
#    0.000    1.200    2.000    0.600   19.600    0.000 
#    0.000    0.000    0.000    0.000    0.000    0.000 
#    0.000    0.000    0.000    0.000    0.000    0.000 
#
# Total GULP energy -111450.559148 kJ/mol
# GULP energy per Si atom -5572.527957 kJ/mol
# Density = 2.338556 g / cm^3
# Si number density = 23.438908 Si / 1000 Ang^3
#
#
#
# Elastic Constant Matrix: (Units=GPa)
#
#
# Indices 1 2 3 4 5 6 
#
# 1 125.2055 10.3015 50.5433 0.0000 2.8852 0.0000
# 2 10.3015 72.3030 6.3310 0.0000 3.2709 0.0000
# 3 50.5433 6.3310 109.6518 0.0000 7.1937 0.0000
# 4 0.0000 0.0000 0.0000 31.8375 0.0000 -2.7590
# 5 2.8852 3.2709 7.1937 0.0000 46.7174 0.0000
# 6 0.0000 0.0000 0.0000 -2.7590 0.0000 28.2180
#
#
#
# Elastic Compliance Matrix: (Units=1/GPa)
#
#
# Indices 1 2 3 4 5 6 
#
# 1 0.009887 -0.001021 -0.004509 0.000000 0.000155 0.000000
# 2 -0.001021 0.014041 -0.000283 0.000000 -0.000876 0.000000
# 3 -0.004509 -0.000283 0.011309 0.000000 -0.001443 0.000000
# 4 0.000000 0.000000 0.000000 0.031678 0.000000 0.003097
# 5 0.000155 -0.000876 -0.001443 0.000000 0.021679 0.000000
# 6 0.000000 0.000000 0.000000 0.003097 0.000000 0.035741
#
#
# Mechanical properties :
#
#
# Convention : Reuss Voigt Hill
#
# Bulk Modulus (GPa) = 42.35054 49.05687 45.70371
# Shear Modulus (GPa) = 34.76308 37.35356 36.05832
#
# Velocity S-wave (km/s) = 3.85533 3.99639 3.92649
# Velocity P-wave (km/s) = 6.15839 6.50154 6.33229
#
# Compressibility (1/GPa) = 0.02361245
#
# Stress axis : x y z
#
# Youngs Moduli (GPa) = 101.13871 71.22236 88.42470
#
# Poissons Ratio (x) = 0.07271 0.39869
# Poissons Ratio (y) = 0.10326 0.02499
# Poissons Ratio (z) = 0.45601 0.02012
#
# Static dielectric constant tensor:
#      x y z
#    x 2.685830 0.000000 0.192420 
#    y 0.000000 4.029820 0.000000 
#    z 0.192420 0.000000 1.907500 
# 
# From -- ./inp_files/129551.got.cif
#   From: 2010.05.17/outbox.cif.g08.bks.cpg/sg15_65_cif.got.tgz:129551.got - 2010.06.03 18:47:42.
