data_PCOD9299806
_publ_section_title
;
Structure prediction by ZEFSAII (Michael W. Deem and Ramdas Pophale) SiO2 
 PCOD9299806
Probable space group: C 2/C
;
_chemical_formula_sum "Si O2"
_cell_formula_units_Z 52
_cell_length_a 15.343629
_cell_length_b 5.848661
_cell_length_c 24.546223
_cell_angle_alpha 90.000000
_cell_angle_beta 98.654238
_cell_angle_gamma 90.000000
_cell_volume 2177.690410
_symmetry_space_group_name_H-M "C 2/C"
_symmetry_group_IT_number 15
_symmetry_cell_setting 'monoclinic'
loop_
_space_group_symop_operation_xyz
x,y,z
-x,y,1/2-z
-x,-y,-z
x,-y,1/2+z
1/2+x,1/2+y,z
1/2-x,1/2+y,1/2-z
1/2-x,1/2-y,-z
1/2+x,1/2-y,1/2+z
loop_
_atom_site_type_symbol
_atom_site_label
_atom_site_fract_x
_atom_site_fract_y
_atom_site_fract_z
Si Si1 0.500000 0.107513 0.750000
Si Si2 0.225403 0.955902 0.335494
Si Si3 0.893544 0.002845 0.493827
Si Si4 0.852714 0.886689 0.784511
Si Si5 0.889811 0.412224 0.645186
Si Si6 0.696787 0.361677 0.123185
Si Si7 0.584095 0.997796 0.468551
O O1 0.445647 0.268177 0.785519
O O2 0.435892 0.958300 0.706773
O O3 0.286842 0.770926 0.312303
O O4 0.142684 0.848220 0.358349
O O5 0.186152 0.086272 0.279434
O O6 0.288071 0.093291 0.381728
O O7 0.854364 0.982287 0.429587
O O8 0.870541 0.753555 0.519272
O O9 0.000000 0.000000 0.500000
O O10 0.868169 0.255171 0.515236
O O11 0.851609 0.108136 0.822890
O O12 0.797796 0.550546 0.633592
O O13 0.943699 0.481045 0.597293
O O14 0.500000 0.000000 0.500000
#
# Coordination Sequence:
#
# PCOD9299806 Si02
#       7
#     4   8   8   8   8   8   8
#     4  12  26  44  70 116 146 192 240 318 386 464
#     4  11  22  47  68 105 143 204 241 303 379 465
#     4  10  25  46  73 106 139 197 252 308 379 438
#     4  11  23  42  71 104 151 185 249 299 385 456
#     4  11  27  45  72 106 150 188 253 307 383 456
#     4  11  25  45  75 101 146 200 242 315 370 466
#     4  10  25  49  72 106 146 195 249 319 376 446
#
# _framework density 23.878509000000001
#
# number of rings (size 3 to 8) (size 9 to 14) (size 15 to 20)
#    0.000    1.231    3.077    0.923   10.769    3.077 
#    2.769    0.000    0.000    0.000    0.000    0.000 
#    0.000    0.000    0.000    0.000    0.000    0.000 
#
# Total GULP energy -145137.276783 kJ/mol
# GULP energy per Si atom -5582.202953 kJ/mol
# Density = 2.382416 g / cm^3
# Si number density = 23.878509 Si / 1000 Ang^3
#
#
#
# Elastic Constant Matrix: (Units=GPa)
#
#
# Indices 1 2 3 4 5 6 
#
# 1 69.6814 7.0311 31.5056 0.0000 11.8183 0.0000
# 2 7.0311 125.4640 25.8173 0.0000 4.0297 0.0000
# 3 31.5056 25.8173 118.8830 0.0000 13.7272 0.0000
# 4 0.0000 0.0000 0.0000 4.4667 0.0000 -29.4647
# 5 11.8183 4.0297 13.7272 0.0000 26.6906 0.0000
# 6 0.0000 0.0000 0.0000 -29.4647 0.0000 -14.2784
#
#
#
# Elastic Compliance Matrix: (Units=1/GPa)
#
#
# Indices 1 2 3 4 5 6 
#
# 1 0.017046 0.000022 -0.003881 0.000000 -0.005555 0.000000
# 2 0.000022 0.008346 -0.001777 0.000000 -0.000356 0.000000
# 3 -0.003881 -0.001777 0.010202 0.000000 -0.003261 0.000000
# 4 0.000000 0.000000 0.000000 0.015321 0.000000 -0.031616
# 5 -0.005555 -0.000356 -0.003261 0.000000 0.041657 0.000000
# 6 0.000000 0.000000 0.000000 -0.031616 0.000000 -0.004793
#
#
# Mechanical properties :
#
#
# Convention : Reuss Voigt Hill
#
# Bulk Modulus (GPa) = 41.11475 49.19295 45.15385
# Shear Modulus (GPa) = 46.65966 20.02074 33.34020
#
# Velocity S-wave (km/s) = 4.42525 2.89873 3.74069
# Velocity P-wave (km/s) = 6.58530 5.64354 6.13253
#
# Compressibility (1/GPa) = 0.02432217
#
# Stress axis : x y z
#
# Youngs Moduli (GPa) = 58.66624 119.81319 98.01532
#
# Poissons Ratio (x) = -0.00260 0.38036
# Poissons Ratio (y) = -0.00127 0.17419
# Poissons Ratio (z) = 0.22766 0.21293
#
# Static dielectric constant tensor:
#      x y z
#    x 2.011030 0.000000 0.134750 
#    y 0.000000 2.226520 0.000000 
#    z 0.134750 0.000000 1.991240 
# 
# From -- ./inp_files/297450.got.cif
#   From: 2010.05.17/outbox.cif.g08.bks.cpg/sg15_149_cif.got.tgz:297450.got - 2010.06.03 18:47:42.
