data_PCOD9299331
_publ_section_title
;
Structure prediction by ZEFSAII (Michael W. Deem and Ramdas Pophale) SiO2 
 PCOD9299331
Probable space group: C 2/C
;
_chemical_formula_sum "Si O2"
_cell_formula_units_Z 40
_cell_length_a 17.095683
_cell_length_b 15.603867
_cell_length_c 9.027371
_cell_angle_alpha 90.000000
_cell_angle_beta 36.025622
_cell_angle_gamma 90.000000
_cell_volume 1416.334571
_symmetry_space_group_name_H-M "C 2/C"
_symmetry_group_IT_number 15
_symmetry_cell_setting 'monoclinic'
loop_
_space_group_symop_operation_xyz
x,y,z
-x,y,1/2-z
-x,-y,-z
x,-y,1/2+z
1/2+x,1/2+y,z
1/2-x,1/2+y,1/2-z
1/2-x,1/2-y,-z
1/2+x,1/2-y,1/2+z
loop_
_atom_site_type_symbol
_atom_site_label
_atom_site_fract_x
_atom_site_fract_y
_atom_site_fract_z
Si Si1 0.578780 0.079589 0.490376
Si Si2 0.790413 0.059988 0.926175
Si Si3 0.609364 0.387104 0.691396
Si Si4 0.500000 0.765342 0.250000
Si Si5 0.000000 0.814484 0.250000
Si Si6 0.355898 0.155770 0.613079
O O1 0.500000 0.035835 0.750000
O O2 0.702021 0.044637 0.209512
O O3 0.612616 0.169643 0.520723
O O4 0.472632 0.107828 0.526439
O O5 0.910695 0.122849 0.785109
O O6 0.699069 0.105356 0.945345
O O7 0.839242 0.966855 0.794439
O O8 0.500000 0.430775 0.750000
O O9 0.532890 0.297774 0.834533
O O10 0.732771 0.348168 0.412976
O O11 0.901644 0.747613 0.482102
#
# Coordination Sequence:
#
# PCOD9299331 Si02
#       6
#     8   8   8   4   4   8
#     4  10  24  48  79 111 146 197 250 306 371 438
#     4  12  25  50  77 111 150 198 249 308 371 445
#     4  10  25  49  68 111 151 197 239 310 374 439
#     4   8  21  48  69 110 140 194 244 302 361 440
#     4  12  25  46  81 112 142 204 250 314 357 450
#     4  12  26  47  78 110 154 190 255 306 370 447
#
# _framework density 28.241913
#
# number of rings (size 3 to 8) (size 9 to 14) (size 15 to 20)
#    1.200    0.000    3.000    1.800    2.800    4.000 
#    9.000    0.000    0.000    0.000    0.000    0.000 
#    0.000    0.000    0.000    0.000    0.000    0.000 
#
# Total GULP energy -111828.477902 kJ/mol
# GULP energy per Si atom -5591.423895 kJ/mol
# Density = 2.817763 g / cm^3
# Si number density = 28.241913 Si / 1000 Ang^3
#
#
#
# Elastic Constant Matrix: (Units=GPa)
#
#
# Indices 1 2 3 4 5 6 
#
# 1 171.6455 58.4178 18.5741 0.0000 4.9767 0.0000
# 2 58.4178 183.2369 25.2930 0.0000 -3.0058 0.0000
# 3 18.5741 25.2930 99.9897 -0.0003 -9.0982 -0.0002
# 4 0.0000 0.0000 -0.0003 950.7595 0.0002 459.4710
# 5 4.9767 -3.0058 -9.0982 0.0002 33.0066 0.0001
# 6 0.0000 0.0000 -0.0002 459.4710 0.0001 292.8421
#
#
#
# Elastic Compliance Matrix: (Units=1/GPa)
#
#
# Indices 1 2 3 4 5 6 
#
# 1 0.006649 -0.002025 -0.000852 0.000000 -0.001422 0.000000
# 2 -0.002025 0.006272 -0.001160 0.000000 0.000557 0.000000
# 3 -0.000852 -0.001160 0.010724 0.000000 0.002979 0.000000
# 4 0.000000 0.000000 0.000000 0.004351 0.000000 -0.006826
# 5 -0.001422 0.000557 0.002979 0.000000 0.031383 0.000000
# 6 0.000000 0.000000 0.000000 -0.006826 0.000000 0.014125
#
#
# Mechanical properties :
#
#
# Convention : Reuss Voigt Hill
#
# Bulk Modulus (GPa) = 64.22456 73.27133 68.74795
# Shear Modulus (GPa) = 57.62455 278.82744 168.22600
#
# Velocity S-wave (km/s) = 4.52197 9.94699 7.72628
# Velocity P-wave (km/s) = 7.07492 12.56678 10.19751
#
# Compressibility (1/GPa) = 0.01557037
#
# Stress axis : x y z
#
# Youngs Moduli (GPa) = 150.40513 159.43003 93.25122
#
# Poissons Ratio (x) = 0.32291 0.07946
# Poissons Ratio (y) = 0.30463 0.10815
# Poissons Ratio (z) = 0.12816 0.18489
#
# Static dielectric constant tensor:
#      x y z
#    x 2.217220 0.000000 -0.001460 
#    y 0.000000 2.221080 0.000000 
#    z -0.001460 0.000000 2.257450 
# 
# From -- ./inp_files/113595.got.cif
#   From: 2010.05.17/outbox.cif.g08.bks.cpg/sg15_57_cif.got.tgz:113595.got - 2010.06.03 18:47:42.
