data_PCOD9299865
_publ_section_title
;
Structure prediction by ZEFSAII (Michael W. Deem and Ramdas Pophale) SiO2 
 PCOD9299865
Probable space group: C 2/C
;
_chemical_formula_sum "Si O2"
_cell_formula_units_Z 40
_cell_length_a 12.986155
_cell_length_b 18.117789
_cell_length_c 10.863180
_cell_angle_alpha 90.000000
_cell_angle_beta 45.210807
_cell_angle_gamma 90.000000
_cell_volume 1813.926904
_symmetry_space_group_name_H-M "C 2/C"
_symmetry_group_IT_number 15
_symmetry_cell_setting 'monoclinic'
loop_
_space_group_symop_operation_xyz
x,y,z
-x,y,1/2-z
-x,-y,-z
x,-y,1/2+z
1/2+x,1/2+y,z
1/2-x,1/2+y,1/2-z
1/2-x,1/2-y,-z
1/2+x,1/2-y,1/2+z
loop_
_atom_site_type_symbol
_atom_site_label
_atom_site_fract_x
_atom_site_fract_y
_atom_site_fract_z
Si Si1 0.750000 0.750000 0.000000
Si Si2 0.500000 0.345880 0.750000
Si Si3 0.339518 0.084741 0.328135
Si Si4 0.763331 0.833576 0.351683
Si Si5 0.066568 0.708963 0.418239
Si Si6 0.135411 0.047600 0.930444
O O1 0.621490 0.765492 0.004923
O O2 0.863784 0.797933 0.821433
O O3 0.574377 0.398077 0.585514
O O4 0.500000 0.073264 0.250000
O O5 0.249396 0.135240 0.499985
O O6 0.363659 0.131378 0.183903
O O7 0.257427 0.008361 0.376288
O O8 0.880245 0.770656 0.224146
O O9 0.605641 0.802477 0.446691
O O10 0.800446 0.902176 0.231923
O O11 0.000000 0.000000 0.000000
#
# Coordination Sequence:
#
# PCOD9299865 Si02
#       6
#     4   4   8   8   8   8
#     4  12  24  42  70 102 146 184 240 300 354 438
#     4  12  26  42  66 102 138 186 236 292 360 428
#     4  10  25  47  73 105 144 192 244 304 367 438
#     4  11  25  46  74 105 143 190 242 305 361 436
#     4  11  24  45  71 109 138 190 243 297 367 425
#     4  12  26  45  70 105 144 190 239 300 372 438
#
# _framework density 22.051604999999999
#
# number of rings (size 3 to 8) (size 9 to 14) (size 15 to 20)
#    0.000    0.800    2.000    4.200    2.800    4.800 
#    0.000    0.000    0.000    0.000    0.000    0.000 
#    0.000    0.000    0.000    0.000    0.000    0.000 
#
# Total GULP energy -111436.781176 kJ/mol
# GULP energy per Si atom -5571.839059 kJ/mol
# Density = 2.200141 g / cm^3
# Si number density = 22.051605 Si / 1000 Ang^3
#
#
#
# Elastic Constant Matrix: (Units=GPa)
#
#
# Indices 1 2 3 4 5 6 
#
# 1 63.8465 34.3190 42.1756 0.0004 -14.5076 -0.0004
# 2 34.3190 103.8460 58.3561 0.0001 -26.1802 -0.0001
# 3 42.1756 58.3561 112.8374 0.0004 -14.6635 -0.0003
# 4 0.0004 0.0001 0.0004 36.6141 -0.0005 -28.8529
# 5 -14.5076 -26.1802 -14.6635 -0.0005 39.5710 0.0003
# 6 -0.0004 -0.0001 -0.0003 -28.8529 0.0003 17.0689
#
#
#
# Elastic Compliance Matrix: (Units=1/GPa)
#
#
# Indices 1 2 3 4 5 6 
#
# 1 0.022265 -0.002780 -0.006369 0.000000 0.003964 0.000000
# 2 -0.002780 0.015855 -0.006230 0.000000 0.007162 0.000000
# 3 -0.006369 -0.006230 0.014315 0.000000 -0.001152 0.000000
# 4 0.000000 0.000000 0.000000 -0.082250 0.000000 -0.139033
# 5 0.003964 0.007162 -0.001152 0.000000 0.031035 0.000000
# 6 0.000000 0.000000 0.000000 -0.139033 0.000000 -0.176433
#
#
# Mechanical properties :
#
#
# Convention : Reuss Voigt Hill
#
# Bulk Modulus (GPa) = 46.13209 61.13681 53.63445
# Shear Modulus (GPa) = -36.43538 28.36276 -4.03631
#
# Velocity S-wave (km/s) = -4.06923 3.59025 -1.35439
# Velocity P-wave (km/s) = 1.05486 6.70605 4.68286
#
# Compressibility (1/GPa) = 0.02167688
#
# Stress axis : x y z
#
# Youngs Moduli (GPa) = 44.91411 63.07289 69.85570
#
# Poissons Ratio (x) = 0.17531 0.44494
# Poissons Ratio (y) = 0.12484 0.43520
# Poissons Ratio (z) = 0.28608 0.39294
#
# Static dielectric constant tensor:
#      x y z
#    x 1.787210 0.000000 0.010650 
#    y 0.000000 1.824250 0.000000 
#    z 0.010650 0.000000 1.797470 
# 
# From -- ./inp_files/98125.got.cif
#   From: 2010.05.17/outbox.cif.g08.bks.cpg/sg15_50_cif.got.tgz:98125.got - 2010.06.03 18:47:42.
