data_PCOD9299185
_publ_section_title
;
Structure prediction by ZEFSAII (Michael W. Deem and Ramdas Pophale) SiO2 
 PCOD9299185
Probable space group: C 2/C
;
_chemical_formula_sum "Si O2"
_cell_formula_units_Z 36
_cell_length_a 10.993688
_cell_length_b 27.528308
_cell_length_c 5.259564
_cell_angle_alpha 90.000000
_cell_angle_beta 111.776896
_cell_angle_gamma 90.000000
_cell_volume 1478.148113
_symmetry_space_group_name_H-M "C 2/C"
_symmetry_group_IT_number 15
_symmetry_cell_setting 'monoclinic'
loop_
_space_group_symop_operation_xyz
x,y,z
-x,y,1/2-z
-x,-y,-z
x,-y,1/2+z
1/2+x,1/2+y,z
1/2-x,1/2+y,1/2-z
1/2-x,1/2-y,-z
1/2+x,1/2-y,1/2+z
loop_
_atom_site_type_symbol
_atom_site_label
_atom_site_fract_x
_atom_site_fract_y
_atom_site_fract_z
Si Si1 0.711520 0.031390 0.821867
Si Si2 0.000000 0.185745 0.750000
Si Si3 0.269718 0.708041 0.225904
Si Si4 0.000000 0.318676 0.750000
Si Si5 0.000000 0.614917 0.750000
Si Si6 0.863668 0.119594 0.002812
O O1 0.616120 0.075817 0.811286
O O2 0.695269 0.007713 0.533324
O O3 0.842804 0.062889 0.936303
O O4 0.084165 0.212435 0.034724
O O5 0.113628 0.150552 0.732810
O O6 0.140065 0.708072 0.303244
O O7 0.270000 0.654570 0.095651
O O8 0.250000 0.750000 0.000000
O O9 0.985667 0.351882 0.488089
O O10 0.000000 0.122566 0.250000
#
# Coordination Sequence:
#
# PCOD9299185 Si02
#       6
#     8   4   8   4   4   8
#     4  12  26  43  74 113 157 206 264 331 403 479
#     4  10  24  51  82 107 166 211 262 344 413 468
#     4  11  26  51  82 121 157 212 272 334 406 488
#     4  12  26  50  88 116 162 214 268 329 405 492
#     4  12  24  49  76 115 160 209 264 331 404 482
#     4  10  24  47  74 109 155 209 265 332 399 474
#
# _framework density 24.354800000000001
#
# number of rings (size 3 to 8) (size 9 to 14) (size 15 to 20)
#    0.000    0.889    2.222    3.333    6.222    2.667 
#    6.000    1.111    0.000    0.000    0.000    0.000 
#    0.000    0.000    0.000    0.000    0.000    0.000 
#
# Total GULP energy -100480.205360 kJ/mol
# GULP energy per Si atom -5582.233631 kJ/mol
# Density = 2.429937 g / cm^3
# Si number density = 24.354800 Si / 1000 Ang^3
#
#
#
# Elastic Constant Matrix: (Units=GPa)
#
#
# Indices 1 2 3 4 5 6 
#
# 1 104.7676 15.0938 27.9518 0.0000 -10.2010 0.0000
# 2 15.0938 70.4079 25.0529 0.0000 5.4257 0.0000
# 3 27.9518 25.0529 115.6899 0.0000 -6.8307 0.0000
# 4 0.0000 0.0000 0.0000 59.5641 0.0000 12.8405
# 5 -10.2010 5.4257 -6.8307 0.0000 40.8184 0.0000
# 6 0.0000 0.0000 0.0000 12.8405 0.0000 38.4220
#
#
#
# Elastic Compliance Matrix: (Units=1/GPa)
#
#
# Indices 1 2 3 4 5 6 
#
# 1 0.010585 -0.001742 -0.002030 0.000000 0.002537 0.000000
# 2 -0.001742 0.015960 -0.003218 0.000000 -0.003095 0.000000
# 3 -0.002030 -0.003218 0.009925 0.000000 0.001581 0.000000
# 4 0.000000 0.000000 0.000000 0.018092 0.000000 -0.006046
# 5 0.002537 -0.003095 0.001581 0.000000 0.025809 0.000000
# 6 0.000000 0.000000 0.000000 -0.006046 0.000000 0.028047
#
#
# Mechanical properties :
#
#
# Convention : Reuss Voigt Hill
#
# Bulk Modulus (GPa) = 44.46764 47.45138 45.95951
# Shear Modulus (GPa) = 38.49275 42.61202 40.55238
#
# Velocity S-wave (km/s) = 3.97986 4.18740 4.08495
# Velocity P-wave (km/s) = 6.27829 6.55017 6.41567
#
# Compressibility (1/GPa) = 0.02248826
#
# Stress axis : x y z
#
# Youngs Moduli (GPa) = 94.47664 62.65654 100.76016
#
# Poissons Ratio (x) = 0.10916 0.20457
# Poissons Ratio (y) = 0.16460 0.32425
# Poissons Ratio (z) = 0.19181 0.20163
#
# Static dielectric constant tensor:
#      x y z
#    x 3.466470 0.000000 0.469890 
#    y 0.000000 2.039610 0.000000 
#    z 0.469890 0.000000 2.224040 
# 
# From -- ./inp_files/4381.got.cif
#   From: 2010.05.17/outbox.cif.g08.bks.cpg/sg15_3_cif.got.tgz:4381.got - 2010.06.03 18:47:42.
