data_PCOD9299454
_publ_section_title
;
Structure prediction by ZEFSAII (Michael W. Deem and Ramdas Pophale) SiO2 
 PCOD9299454
Probable space group: C 2/C
;
_chemical_formula_sum "Si O2"
_cell_formula_units_Z 40
_cell_length_a 20.040662
_cell_length_b 8.090181
_cell_length_c 9.918500
_cell_angle_alpha 90.000000
_cell_angle_beta 68.081412
_cell_angle_gamma 90.000000
_cell_volume 1491.869967
_symmetry_space_group_name_H-M "C 2/C"
_symmetry_group_IT_number 15
_symmetry_cell_setting 'monoclinic'
loop_
_space_group_symop_operation_xyz
x,y,z
-x,y,1/2-z
-x,-y,-z
x,-y,1/2+z
1/2+x,1/2+y,z
1/2-x,1/2+y,1/2-z
1/2-x,1/2-y,-z
1/2+x,1/2-y,1/2+z
loop_
_atom_site_type_symbol
_atom_site_label
_atom_site_fract_x
_atom_site_fract_y
_atom_site_fract_z
Si Si1 0.218040 0.613031 0.625426
Si Si2 0.573256 0.108588 0.422802
Si Si3 0.808217 0.640138 0.565677
Si Si4 0.917017 0.800066 0.837884
Si Si5 0.586167 0.662500 0.675417
O O1 0.250000 0.750000 0.500000
O O2 0.241836 0.646160 0.762585
O O3 0.228105 0.433786 0.544743
O O4 0.133879 0.665416 0.690694
O O5 0.579766 0.279636 0.503211
O O6 0.588884 0.173844 0.263395
O O7 0.500000 0.000000 0.500000
O O8 0.639012 0.007687 0.431374
O O9 0.865881 0.784608 0.489427
O O10 0.000000 0.765024 0.750000
O O11 0.889558 0.977171 0.809918
O O12 0.500000 0.635293 0.750000
#
# Coordination Sequence:
#
# PCOD9299454 Si02
#       5
#     8   8   8   8   8
#     4  11  26  48  70  98 137 182 233 282 348 414
#     4  11  21  38  66  98 139 179 229 280 347 416
#     4  11  23  43  68  96 131 185 232 279 342 419
#     4  10  25  40  67 103 139 174 226 296 344 404
#     4  11  23  37  65 103 141 180 226 284 352 402
#
# _framework density 26.811989000000001
#
# number of rings (size 3 to 8) (size 9 to 14) (size 15 to 20)
#    0.000    1.200    4.000    1.200    5.600    3.200 
#    3.600    2.000    0.000    0.000    0.000    0.000 
#    0.000    0.000    0.000    0.000    0.000    0.000 
#
# Total GULP energy -111538.842207 kJ/mol
# GULP energy per Si atom -5576.942110 kJ/mol
# Density = 2.675096 g / cm^3
# Si number density = 26.811989 Si / 1000 Ang^3
#
#
#
# Elastic Constant Matrix: (Units=GPa)
#
#
# Indices 1 2 3 4 5 6 
#
# 1 65.5477 7.5611 21.0634 0.0000 -15.3818 0.0000
# 2 7.5611 98.4886 32.1979 0.0000 5.9868 0.0000
# 3 21.0634 32.1979 158.7589 0.0000 5.3211 0.0000
# 4 0.0000 0.0000 0.0000 34.6024 0.0000 -1.7656
# 5 -15.3818 5.9868 5.3211 0.0000 37.2943 0.0000
# 6 0.0000 0.0000 0.0000 -1.7656 0.0000 28.7680
#
#
#
# Elastic Compliance Matrix: (Units=1/GPa)
#
#
# Indices 1 2 3 4 5 6 
#
# 1 0.018031 -0.001070 -0.002442 0.000000 0.007957 0.000000
# 2 -0.001070 0.011015 -0.002028 0.000000 -0.001920 0.000000
# 3 -0.002442 -0.002028 0.007091 0.000000 -0.001693 0.000000
# 4 0.000000 0.000000 0.000000 0.028991 0.000000 0.001779
# 5 0.007957 -0.001920 -0.001693 0.000000 0.030645 0.000000
# 6 0.000000 0.000000 0.000000 0.001779 0.000000 0.034870
#
#
# Mechanical properties :
#
#
# Convention : Reuss Voigt Hill
#
# Bulk Modulus (GPa) = 39.90640 49.38223 44.64431
# Shear Modulus (GPa) = 33.31662 37.59780 35.45721
#
# Velocity S-wave (km/s) = 3.52888 3.74876 3.64048
# Velocity P-wave (km/s) = 5.61428 6.09882 5.86155
#
# Compressibility (1/GPa) = 0.02505864
#
# Stress axis : x y z
#
# Youngs Moduli (GPa) = 55.45868 90.78371 141.02647
#
# Poissons Ratio (x) = 0.09710 0.34440
# Poissons Ratio (y) = 0.05932 0.28596
# Poissons Ratio (z) = 0.13544 0.18408
#
# Static dielectric constant tensor:
#      x y z
#    x 2.212940 0.000000 0.078990 
#    y 0.000000 2.266490 0.000000 
#    z 0.078990 0.000000 2.509110 
# 
# From -- ./inp_files/102672.got.cif
#   From: 2010.05.17/outbox.cif.g08.bks.cpg/sg15_52_cif.got.tgz:102672.got - 2010.06.03 18:47:42.
