data_PCOD9299926
_publ_section_title
;
Structure prediction by ZEFSAII (Michael W. Deem and Ramdas Pophale) SiO2 
 PCOD9299926
Probable space group: C 2/C
;
_chemical_formula_sum "Si O2"
_cell_formula_units_Z 64
_cell_length_a 8.276209
_cell_length_b 28.517022
_cell_length_c 14.903633
_cell_angle_alpha 90.000000
_cell_angle_beta 52.456971
_cell_angle_gamma 90.000000
_cell_volume 2788.970758
_symmetry_space_group_name_H-M "C 2/C"
_symmetry_group_IT_number 15
_symmetry_cell_setting 'monoclinic'
loop_
_space_group_symop_operation_xyz
x,y,z
-x,y,1/2-z
-x,-y,-z
x,-y,1/2+z
1/2+x,1/2+y,z
1/2-x,1/2+y,1/2-z
1/2-x,1/2-y,-z
1/2+x,1/2-y,1/2+z
loop_
_atom_site_type_symbol
_atom_site_label
_atom_site_fract_x
_atom_site_fract_y
_atom_site_fract_z
Si Si1 0.391447 0.184351 0.611104
Si Si2 0.188583 0.949312 0.625476
Si Si3 0.047208 0.964858 0.065818
Si Si4 0.544601 0.921225 0.633279
Si Si5 0.238334 0.615258 0.697440
Si Si6 0.929764 0.688225 0.401847
Si Si7 0.176053 0.214218 0.311775
Si Si8 0.666339 0.642784 0.024962
O O1 0.265884 0.146815 0.711858
O O2 0.317137 0.191927 0.534787
O O3 0.411571 0.233650 0.654887
O O4 0.616879 0.164022 0.522804
O O5 0.392398 0.945262 0.614574
O O6 0.181699 0.911702 0.547628
O O7 0.000000 0.934012 0.750000
O O8 0.142762 0.001435 0.608381
O O9 0.857431 0.933926 0.163512
O O10 0.224230 0.931104 0.970911
O O11 0.000000 0.000000 0.000000
O O12 0.500000 0.936963 0.750000
O O13 0.515270 0.865775 0.636435
O O14 0.344248 0.643209 0.579437
O O15 0.000000 0.608310 0.750000
O O16 0.794533 0.706281 0.365731
O O17 0.150135 0.712946 0.322850
O O18 0.010255 0.172668 0.367623
#
# Coordination Sequence:
#
# PCOD9299926 Si02
#       8
#     8   8   8   8   8   8   8   8
#     4  11  25  46  71 105 146 194 240 304 367 439
#     4  12  26  45  74 110 143 190 250 306 372 447
#     4  12  26  47  77 109 144 197 244 306 377 450
#     4  12  25  49  73 104 148 190 247 310 370 438
#     4  10  25  48  76 106 154 195 241 305 378 442
#     4  11  24  44  71 104 144 190 244 305 369 428
#     4  11  24  43  72 106 145 190 247 302 366 448
#     4  11  23  47  72 102 145 190 241 299 368 441
#
# _framework density 22.947534000000001
#
# number of rings (size 3 to 8) (size 9 to 14) (size 15 to 20)
#    0.000    0.750    3.750    3.375    1.750    2.500 
#    6.750    0.000    0.000    0.000    0.000    0.000 
#    0.000    0.000    0.000    0.000    0.000    0.000 
#
# Total GULP energy -179117.638738 kJ/mol
# GULP energy per Si atom -5597.426211 kJ/mol
# Density = 2.289530 g / cm^3
# Si number density = 22.947534 Si / 1000 Ang^3
#
#
#
# Elastic Constant Matrix: (Units=GPa)
#
#
# Indices 1 2 3 4 5 6 
#
# 1 51.0105 9.0244 25.0040 0.0000 0.4764 0.0000
# 2 9.0244 91.6970 25.9201 0.0000 -2.5065 0.0000
# 3 25.0040 25.9201 108.4274 0.0000 10.2847 0.0000
# 4 0.0000 0.0000 0.0000 19.6791 0.0000 6.7658
# 5 0.4764 -2.5065 10.2847 0.0000 39.5684 0.0000
# 6 0.0000 0.0000 0.0000 6.7658 0.0000 94.5069
#
#
#
# Elastic Compliance Matrix: (Units=1/GPa)
#
#
# Indices 1 2 3 4 5 6 
#
# 1 0.022193 -0.000733 -0.005037 0.000000 0.000996 0.000000
# 2 -0.000733 0.011808 -0.002794 0.000000 0.001483 0.000000
# 3 -0.005037 -0.002794 0.011343 0.000000 -0.003065 0.000000
# 4 0.000000 0.000000 0.000000 0.052098 0.000000 -0.003730
# 5 0.000996 0.001483 -0.003065 0.000000 0.026151 0.000000
# 6 0.000000 0.000000 0.000000 -0.003730 0.000000 0.010848
#
#
# Mechanical properties :
#
#
# Convention : Reuss Voigt Hill
#
# Bulk Modulus (GPa) = 35.44185 41.22574 38.33380
# Shear Modulus (GPa) = 31.06059 43.49666 37.27862
#
# Velocity S-wave (km/s) = 3.68305 4.35844 4.03490
# Velocity P-wave (km/s) = 5.79351 6.58272 6.20068
#
# Compressibility (1/GPa) = 0.02821523
#
# Stress axis : x y z
#
# Youngs Moduli (GPa) = 45.05873 84.68784 88.15977
#
# Poissons Ratio (x) = 0.06208 0.44407
# Poissons Ratio (y) = 0.03303 0.24635
# Poissons Ratio (z) = 0.22696 0.23665
#
# Static dielectric constant tensor:
#      x y z
#    x 2.073130 0.000000 0.008050 
#    y 0.000000 1.847470 0.000000 
#    z 0.008050 0.000000 1.885230 
# 
# From -- ./inp_files/139816.got.cif
#   From: 2010.05.17/outbox.cif.g08.bks.cpg/sg15_70_cif.got.tgz:139816.got - 2010.06.03 18:47:42.
