data_PCOD9299642
_publ_section_title
;
Structure prediction by ZEFSAII (Michael W. Deem and Ramdas Pophale) SiO2 
 PCOD9299642
Probable space group: C 2/C
;
_chemical_formula_sum "Si O2"
_cell_formula_units_Z 56
_cell_length_a 25.545708
_cell_length_b 5.093182
_cell_length_c 18.716163
_cell_angle_alpha 90.000000
_cell_angle_beta 69.647054
_cell_angle_gamma 90.000000
_cell_volume 2283.109310
_symmetry_space_group_name_H-M "C 2/C"
_symmetry_group_IT_number 15
_symmetry_cell_setting 'monoclinic'
loop_
_space_group_symop_operation_xyz
x,y,z
-x,y,1/2-z
-x,-y,-z
x,-y,1/2+z
1/2+x,1/2+y,z
1/2-x,1/2+y,1/2-z
1/2-x,1/2-y,-z
1/2+x,1/2-y,1/2+z
loop_
_atom_site_type_symbol
_atom_site_label
_atom_site_fract_x
_atom_site_fract_y
_atom_site_fract_z
Si Si1 0.968256 0.321439 0.877682
Si Si2 0.737700 0.823656 0.125403
Si Si3 0.650170 0.403905 0.919943
Si Si4 0.643463 0.249884 0.765352
Si Si5 0.546144 0.337141 0.524628
Si Si6 0.585395 0.238604 0.245209
Si Si7 0.198188 0.439000 0.508875
O O1 0.964755 0.544345 0.941014
O O2 0.930830 0.364264 0.825421
O O3 0.031819 0.311640 0.820194
O O4 0.952789 0.027167 0.907900
O O5 0.705541 0.695786 0.206190
O O6 0.777455 0.635659 0.060780
O O7 0.784439 0.033753 0.124888
O O8 0.691892 0.918164 0.087909
O O9 0.631671 0.279295 0.854561
O O10 0.650872 0.224828 0.991198
O O11 0.606023 0.635287 0.957240
O O12 0.603791 0.458835 0.743523
O O13 0.633785 0.946664 0.751580
O O14 0.500000 0.500000 0.500000
O O15 0.250000 0.250000 0.500000
#
# Coordination Sequence:
#
# PCOD9299642 Si02
#       7
#     8   8   8   8   8   8   8
#     4  11  25  47  75 101 148 188 248 302 369 432
#     4  10  25  44  71 102 147 190 248 298 377 438
#     4  11  27  43  72 106 150 192 251 306 375 445
#     4  12  28  44  75 105 152 191 244 305 373 440
#     4  12  26  45  75 107 145 193 244 306 373 436
#     4  11  26  47  71 110 142 192 248 305 363 446
#     4   9  22  44  68  99 141 186 246 300 353 444
#
# _framework density 24.527951999999999
#
# number of rings (size 3 to 8) (size 9 to 14) (size 15 to 20)
#    0.000    1.143    0.000    3.857   12.000    6.857 
#    0.000    0.000    0.000    0.000    0.000    0.000 
#    0.000    0.000    0.000    0.000    0.000    0.000 
#
# Total GULP energy -156439.824229 kJ/mol
# GULP energy per Si atom -5587.136580 kJ/mol
# Density = 2.447212 g / cm^3
# Si number density = 24.527952 Si / 1000 Ang^3
#
#
#
# Elastic Constant Matrix: (Units=GPa)
#
#
# Indices 1 2 3 4 5 6 
#
# 1 79.6600 3.2497 17.1639 0.0001 -5.3429 -0.0001
# 2 3.2497 67.4835 -2.8655 0.0009 10.4892 0.0002
# 3 17.1639 -2.8655 71.0774 0.0000 0.4786 -0.0001
# 4 0.0001 0.0009 0.0000 34.0523 0.0000 -6.4566
# 5 -5.3429 10.4892 0.4786 0.0000 32.8673 -0.0001
# 6 -0.0001 0.0002 -0.0001 -6.4566 -0.0001 33.4557
#
#
#
# Elastic Compliance Matrix: (Units=1/GPa)
#
#
# Indices 1 2 3 4 5 6 
#
# 1 0.013495 -0.001199 -0.003325 0.000000 0.002625 0.000000
# 2 -0.001199 0.015730 0.000959 0.000000 -0.005229 0.000000
# 3 -0.003325 0.000959 0.014918 0.000000 -0.001064 0.000000
# 4 0.000000 0.000000 0.000000 0.030482 0.000000 0.005883
# 5 0.002625 -0.005229 -0.001064 0.000000 0.032536 0.000000
# 6 0.000000 0.000000 0.000000 0.005883 0.000000 0.031026
#
#
# Mechanical properties :
#
#
# Convention : Reuss Voigt Hill
#
# Bulk Modulus (GPa) = 27.01791 28.14634 27.58213
# Shear Modulus (GPa) = 31.71520 33.45325 32.58423
#
# Velocity S-wave (km/s) = 3.59976 3.69708 3.64875
# Velocity P-wave (km/s) = 5.32135 5.45204 5.38709
#
# Compressibility (1/GPa) = 0.03701248
#
# Stress axis : x y z
#
# Youngs Moduli (GPa) = 74.10336 63.57426 67.03378
#
# Poissons Ratio (x) = 0.07622 0.22287
# Poissons Ratio (y) = 0.08885 -0.06428
# Poissons Ratio (z) = 0.24637 -0.06096
#
# Static dielectric constant tensor:
#      x y z
#    x 1.829750 0.000000 0.019870 
#    y 0.000000 1.824090 0.000000 
#    z 0.019870 0.000000 1.954790 
# 
# From -- ./inp_files/221201.got.cif
#   From: 2010.05.17/outbox.cif.g08.bks.cpg/sg15_111_cif.got.tgz:221201.got - 2010.06.03 18:47:42.
