data_PCOD9299853
_publ_section_title
;
Structure prediction by ZEFSAII (Michael W. Deem and Ramdas Pophale) SiO2 
 PCOD9299853
Probable space group: C 2/C
;
_chemical_formula_sum "Si O2"
_cell_formula_units_Z 64
_cell_length_a 29.749625
_cell_length_b 7.894760
_cell_length_c 17.323302
_cell_angle_alpha 90.000000
_cell_angle_beta 140.517878
_cell_angle_gamma 90.000000
_cell_volume 2587.004518
_symmetry_space_group_name_H-M "C 2/C"
_symmetry_group_IT_number 15
_symmetry_cell_setting 'monoclinic'
loop_
_space_group_symop_operation_xyz
x,y,z
-x,y,1/2-z
-x,-y,-z
x,-y,1/2+z
1/2+x,1/2+y,z
1/2-x,1/2+y,1/2-z
1/2-x,1/2-y,-z
1/2+x,1/2-y,1/2+z
loop_
_atom_site_type_symbol
_atom_site_label
_atom_site_fract_x
_atom_site_fract_y
_atom_site_fract_z
Si Si1 0.708538 0.479934 0.305008
Si Si2 0.945546 0.555202 0.847590
Si Si3 0.428670 0.685039 0.200408
Si Si4 0.230263 0.188244 0.558541
Si Si5 0.086432 0.827466 0.246999
Si Si6 0.099284 0.531924 0.051202
Si Si7 0.152089 0.317036 0.989351
Si Si8 0.753788 0.070253 0.302413
O O1 0.725670 0.678551 0.331692
O O2 0.641642 0.397906 0.256626
O O3 0.775971 0.408087 0.440535
O O4 0.717782 0.445978 0.226517
O O5 0.909128 0.664678 0.733765
O O6 0.945741 0.351360 0.828369
O O7 0.913010 0.583069 0.888813
O O8 0.025404 0.628803 0.954075
O O9 0.500000 0.730842 0.250000
O O10 0.447286 0.507722 0.269747
O O11 0.355876 0.673069 0.053627
O O12 0.250000 0.250000 0.500000
O O13 0.256549 0.009944 0.626147
O O14 0.118405 0.766602 0.371015
O O15 0.103589 0.444621 0.973238
O O16 0.175162 0.612549 0.168487
O O17 0.181430 0.193900 0.094738
#
# Coordination Sequence:
#
# PCOD9299853 Si02
#       8
#     8   8   8   8   8   8   8   8
#     4  11  23  40  70 109 142 194 243 306 372 428
#     4  11  27  50  75  99 156 199 239 303 371 454
#     4  12  29  46  73 114 146 197 254 299 372 446
#     4  12  23  46  72 102 152 189 245 315 364 432
#     4  12  26  48  76 110 146 195 250 305 366 442
#     4  10  25  47  71 106 147 199 241 301 377 441
#     4  11  23  42  74 105 145 185 249 309 364 433
#     4  11  23  42  74 107 148 186 244 308 367 434
#
# _framework density 24.739038000000001
#
# number of rings (size 3 to 8) (size 9 to 14) (size 15 to 20)
#    0.000    0.750    2.500    4.125    8.750    1.000 
#    2.250    2.500    0.000    0.000    0.000    0.000 
#    0.000    0.000    0.000    0.000    0.000    0.000 
#
# Total GULP energy -178418.713928 kJ/mol
# GULP energy per Si atom -5575.584810 kJ/mol
# Density = 2.468273 g / cm^3
# Si number density = 24.739038 Si / 1000 Ang^3
#
#
#
# Elastic Constant Matrix: (Units=GPa)
#
#
# Indices 1 2 3 4 5 6 
#
# 1 81.5077 -4.6636 26.8171 0.0000 -3.5542 0.0000
# 2 -4.6636 78.5814 8.8070 0.0000 -5.1596 0.0000
# 3 26.8171 8.8070 97.2752 0.0000 1.9650 0.0000
# 4 0.0000 0.0000 0.0000 25.3876 0.0000 -3.0027
# 5 -3.5542 -5.1596 1.9650 0.0000 37.7071 0.0000
# 6 0.0000 0.0000 0.0000 -3.0027 0.0000 27.7804
#
#
#
# Elastic Compliance Matrix: (Units=1/GPa)
#
#
# Indices 1 2 3 4 5 6 
#
# 1 0.013716 0.001366 -0.003939 0.000000 0.001685 0.000000
# 2 0.001366 0.013118 -0.001605 0.000000 0.002007 0.000000
# 3 -0.003939 -0.001605 0.011535 0.000000 -0.001192 0.000000
# 4 0.000000 0.000000 0.000000 0.039899 0.000000 0.004313
# 5 0.001685 0.002007 -0.001192 0.000000 0.027016 0.000000
# 6 0.000000 0.000000 0.000000 0.004313 0.000000 0.036463
#
#
# Mechanical properties :
#
#
# Convention : Reuss Voigt Hill
#
# Bulk Modulus (GPa) = 33.31712 35.47617 34.39665
# Shear Modulus (GPa) = 31.22874 33.26859 32.24867
#
# Velocity S-wave (km/s) = 3.55678 3.67110 3.61439
# Velocity P-wave (km/s) = 5.51037 5.68688 5.59932
#
# Compressibility (1/GPa) = 0.03001460
#
# Stress axis : x y z
#
# Youngs Moduli (GPa) = 72.90518 76.22870 86.68936
#
# Poissons Ratio (x) = -0.10414 0.34148
# Poissons Ratio (y) = -0.09960 0.13913
# Poissons Ratio (z) = 0.28718 0.12234
#
# Static dielectric constant tensor:
#      x y z
#    x 1.970350 0.000000 -0.049070 
#    y 0.000000 2.158240 0.000000 
#    z -0.049070 0.000000 2.006060 
# 
# From -- ./inp_files/224630.got.cif
#   From: 2010.05.17/outbox.cif.g08.bks.cpg/sg15_113_cif.got.tgz:224630.got - 2010.06.03 18:47:42.
