data_PCOD9299024
_publ_section_title
;
Structure prediction by ZEFSAII (Michael W. Deem and Ramdas Pophale) SiO2 
 PCOD9299024
Probable space group: C 2/C
;
_chemical_formula_sum "Si O2"
_cell_formula_units_Z 48
_cell_length_a 31.077028
_cell_length_b 4.774774
_cell_length_c 11.855827
_cell_angle_alpha 90.000000
_cell_angle_beta 80.592394
_cell_angle_gamma 90.000000
_cell_volume 1735.575302
_symmetry_space_group_name_H-M "C 2/C"
_symmetry_group_IT_number 15
_symmetry_cell_setting 'monoclinic'
loop_
_space_group_symop_operation_xyz
x,y,z
-x,y,1/2-z
-x,-y,-z
x,-y,1/2+z
1/2+x,1/2+y,z
1/2-x,1/2+y,1/2-z
1/2-x,1/2-y,-z
1/2+x,1/2-y,1/2+z
loop_
_atom_site_type_symbol
_atom_site_label
_atom_site_fract_x
_atom_site_fract_y
_atom_site_fract_z
Si Si1 0.750000 0.750000 0.500000
Si Si2 0.348990 0.017571 0.233690
Si Si3 0.282962 0.674360 0.600488
Si Si4 0.500000 0.758893 0.750000
Si Si5 0.057206 0.094457 0.052313
Si Si6 0.349064 0.490830 0.889029
Si Si7 0.056842 0.414590 0.403938
O O1 0.752886 0.566187 0.369319
O O2 0.767678 0.464346 0.553857
O O3 0.360616 0.209747 0.335205
O O4 0.392050 0.955734 0.142708
O O5 0.317955 0.214668 0.173185
O O6 0.448624 0.594577 0.057572
O O7 0.308499 0.480193 0.492245
O O8 0.470003 0.555033 0.838917
O O9 0.468489 0.959689 0.690842
O O10 0.107601 0.108867 0.066995
O O11 0.044169 0.402028 0.018798
O O12 0.336072 0.276788 0.795667
#
# Coordination Sequence:
#
# PCOD9299024 Si02
#       7
#     4   8   8   4   8   8   8
#     4  10  24  46  74 108 142 194 220 294 380 406
#     4  12  25  44  75 107 140 193 246 292 358 439
#     4  11  24  47  73 103 153 182 235 297 352 443
#     4  12  28  48  72 104 158 184 254 320 366 440
#     4  12  27  47  71 106 143 194 246 305 373 427
#     4  12  25  45  74 109 140 192 245 294 356 438
#     4  12  27  46  72 105 144 195 248 305 371 434
#
# _framework density 27.656534000000001
#
# number of rings (size 3 to 8) (size 9 to 14) (size 15 to 20)
#    0.000    0.333    3.333    5.000    2.333    1.333 
#    0.000   16.667    0.000    0.000    0.000    0.000 
#    0.000    0.000    0.000    0.000    0.000    0.000 
#
# Total GULP energy -134318.816365 kJ/mol
# GULP energy per Si atom -5596.617349 kJ/mol
# Density = 2.759359 g / cm^3
# Si number density = 27.656534 Si / 1000 Ang^3
#
#
#
# Elastic Constant Matrix: (Units=GPa)
#
#
# Indices 1 2 3 4 5 6 
#
# 1 83.2660 6.0970 28.9199 0.0000 8.2317 0.0000
# 2 6.0970 186.0926 18.1185 0.0000 -2.9614 0.0000
# 3 28.9199 18.1185 85.3379 0.0000 -21.2024 0.0000
# 4 0.0000 0.0000 0.0000 32.4965 0.0000 9.5217
# 5 8.2317 -2.9614 -21.2024 0.0000 48.1863 0.0000
# 6 0.0000 0.0000 0.0000 9.5217 0.0000 44.8317
#
#
#
# Elastic Compliance Matrix: (Units=1/GPa)
#
#
# Indices 1 2 3 4 5 6 
#
# 1 0.014722 0.000048 -0.006314 0.000000 -0.005290 0.000000
# 2 0.000048 0.005489 -0.001235 0.000000 -0.000214 0.000000
# 3 -0.006314 -0.001235 0.016133 0.000000 0.008101 0.000000
# 4 0.000000 0.000000 0.000000 0.032815 0.000000 -0.006969
# 5 -0.005290 -0.000214 0.008101 0.000000 0.025208 0.000000
# 6 0.000000 0.000000 0.000000 -0.006969 0.000000 0.023786
#
#
# Mechanical properties :
#
#
# Convention : Reuss Voigt Hill
#
# Bulk Modulus (GPa) = 46.85421 51.21856 49.03639
# Shear Modulus (GPa) = 35.64626 45.20698 40.42662
#
# Velocity S-wave (km/s) = 3.59401 4.04739 3.82742
# Velocity P-wave (km/s) = 5.84814 6.35622 6.10747
#
# Compressibility (1/GPa) = 0.02134280
#
# Stress axis : x y z
#
# Youngs Moduli (GPa) = 67.92548 182.18529 61.98588
#
# Poissons Ratio (x) = -0.00878 0.39136
# Poissons Ratio (y) = -0.00327 0.07655
# Poissons Ratio (z) = 0.42886 0.22499
#
# Static dielectric constant tensor:
#      x y z
#    x 1.245520 0.000000 0.305650 
#    y 0.000000 1.646920 0.000000 
#    z 0.305650 0.000000 2.238630 
# 
# From -- ./inp_files/179707.got.cif
#   From: 2010.05.17/outbox.cif.g08.bks.cpg/sg15_90_cif.got.tgz:179707.got - 2010.06.03 18:47:42.
