data_PCOD9299605
_publ_section_title
;
Structure prediction by ZEFSAII (Michael W. Deem and Ramdas Pophale) SiO2 
 PCOD9299605
Probable space group: C 2/C
;
_chemical_formula_sum "Si O2"
_cell_formula_units_Z 60
_cell_length_a 11.724676
_cell_length_b 8.691748
_cell_length_c 26.128558
_cell_angle_alpha 90.000000
_cell_angle_beta 95.741784
_cell_angle_gamma 90.000000
_cell_volume 2649.348102
_symmetry_space_group_name_H-M "C 2/C"
_symmetry_group_IT_number 15
_symmetry_cell_setting 'monoclinic'
loop_
_space_group_symop_operation_xyz
x,y,z
-x,y,1/2-z
-x,-y,-z
x,-y,1/2+z
1/2+x,1/2+y,z
1/2-x,1/2+y,1/2-z
1/2-x,1/2-y,-z
1/2+x,1/2-y,1/2+z
loop_
_atom_site_type_symbol
_atom_site_label
_atom_site_fract_x
_atom_site_fract_y
_atom_site_fract_z
Si Si1 0.120591 0.525714 0.435998
Si Si2 0.746235 0.215902 0.364647
Si Si3 0.246507 0.926341 0.264525
Si Si4 0.000000 0.626471 0.750000
Si Si5 0.897909 0.872646 0.675039
Si Si6 0.869896 0.430917 0.451681
Si Si7 0.601498 0.574086 0.658599
Si Si8 0.776350 0.746816 0.416456
O O1 0.138772 0.628405 0.386055
O O2 0.128645 0.622116 0.489261
O O3 0.221088 0.397182 0.439376
O O4 0.998193 0.442000 0.434772
O O5 0.736250 0.306370 0.310902
O O6 0.794633 0.330645 0.409966
O O7 0.836942 0.080352 0.358872
O O8 0.378875 0.954943 0.255078
O O9 0.186956 0.079966 0.283185
O O10 0.171917 0.879296 0.212169
O O11 0.976164 0.736683 0.700365
O O12 0.824517 0.817979 0.624195
O O13 0.974367 0.021017 0.665879
O O14 0.822055 0.605281 0.450945
O O15 0.620700 0.699209 0.615913
#
# Coordination Sequence:
#
# PCOD9299605 Si02
#       8
#     8   8   8   4   8   8   8   8
#     4  10  25  44  66  99 133 164 223 284 330 394
#     4  11  23  42  68  96 130 174 219 268 333 389
#     4  12  23  39  66  95 128 178 217 261 322 393
#     4  12  24  42  64  92 136 178 212 266 332 382
#     4  12  22  42  62  91 134 172 213 269 319 385
#     4  11  23  44  69  96 130 174 218 277 340 392
#     4  11  24  41  65  98 134 172 219 269 320 388
#     4  11  24  41  69  97 128 175 218 267 333 394
#
# _framework density 22.647082000000001
#
# number of rings (size 3 to 8) (size 9 to 14) (size 15 to 20)
#    0.000    0.800    5.333    1.600    1.867    0.000 
#    0.000    1.333    0.000    8.800    0.000    0.000 
#    0.000    0.000    0.000    0.000    0.000    0.000 
#
# Total GULP energy -167801.634222 kJ/mol
# GULP energy per Si atom -5593.387807 kJ/mol
# Density = 2.259554 g / cm^3
# Si number density = 22.647082 Si / 1000 Ang^3
#
#
#
# Elastic Constant Matrix: (Units=GPa)
#
#
# Indices 1 2 3 4 5 6 
#
# 1 112.7839 15.8498 25.2995 0.0000 -35.7633 0.0000
# 2 15.8498 40.1972 8.0296 0.0000 -3.8826 0.0000
# 3 25.2995 8.0296 74.5463 0.0000 -21.5217 0.0000
# 4 0.0000 0.0000 0.0000 18.0877 0.0000 0.5997
# 5 -35.7633 -3.8826 -21.5217 0.0000 21.2466 0.0000
# 6 0.0000 0.0000 0.0000 0.5997 0.0000 25.3917
#
#
#
# Elastic Compliance Matrix: (Units=1/GPa)
#
#
# Indices 1 2 3 4 5 6 
#
# 1 0.020971 -0.005441 0.004767 0.000000 0.039134 0.000000
# 2 -0.005441 0.026942 -0.003220 0.000000 -0.007497 0.000000
# 3 0.004767 -0.003220 0.020196 0.000000 0.027894 0.000000
# 4 0.000000 0.000000 0.000000 0.055330 0.000000 -0.001307
# 5 0.039134 -0.007497 0.027894 0.000000 0.139824 0.000000
# 6 0.000000 0.000000 0.000000 -0.001307 0.000000 0.039414
#
#
# Mechanical properties :
#
#
# Convention : Reuss Voigt Hill
#
# Bulk Modulus (GPa) = 16.57784 36.20944 26.39364
# Shear Modulus (GPa) = 15.12527 24.83508 19.98017
#
# Velocity S-wave (km/s) = 2.58712 3.31511 2.97348
# Velocity P-wave (km/s) = 4.03240 5.53864 4.84442
#
# Compressibility (1/GPa) = 0.06032150
#
# Stress axis : x y z
#
# Youngs Moduli (GPa) = 47.68450 37.11689 49.51361
#
# Poissons Ratio (x) = 0.20196 -0.23604
# Poissons Ratio (y) = 0.25947 0.15942
# Poissons Ratio (z) = -0.22732 0.11951
#
# Static dielectric constant tensor:
#      x y z
#    x 1.848570 0.000000 -0.030210 
#    y 0.000000 1.881970 0.000000 
#    z -0.030210 0.000000 1.808510 
# 
# From -- ./inp_files/309993.got.cif
#   From: 2010.05.17/outbox.cif.g08.bks.cpg/sg15_155_cif.got.tgz:309993.got - 2010.06.03 18:47:42.
