data_PCOD9299358
_publ_section_title
;
Structure prediction by ZEFSAII (Michael W. Deem and Ramdas Pophale) SiO2 
 PCOD9299358
Probable space group: C 2/C
;
_chemical_formula_sum "Si O2"
_cell_formula_units_Z 36
_cell_length_a 14.567606
_cell_length_b 4.728128
_cell_length_c 17.473452
_cell_angle_alpha 90.000000
_cell_angle_beta 94.797187
_cell_angle_gamma 90.000000
_cell_volume 1199.311793
_symmetry_space_group_name_H-M "C 2/C"
_symmetry_group_IT_number 15
_symmetry_cell_setting 'monoclinic'
loop_
_space_group_symop_operation_xyz
x,y,z
-x,y,1/2-z
-x,-y,-z
x,-y,1/2+z
1/2+x,1/2+y,z
1/2-x,1/2+y,1/2-z
1/2-x,1/2-y,-z
1/2+x,1/2-y,1/2+z
loop_
_atom_site_type_symbol
_atom_site_label
_atom_site_fract_x
_atom_site_fract_y
_atom_site_fract_z
Si Si1 0.686177 0.840497 0.753392
Si Si2 0.135603 0.827049 0.411190
Si Si3 0.597943 0.972659 0.547433
Si Si4 0.044533 0.092441 0.170465
Si Si5 0.750000 0.750000 0.500000
O O1 0.722289 0.148661 0.737394
O O2 0.647238 0.851523 0.835781
O O3 0.612800 0.659004 0.700258
O O4 0.160877 0.607114 0.481527
O O5 0.208362 0.078199 0.421875
O O6 0.034377 0.958181 0.390858
O O7 0.650726 0.676132 0.542746
O O8 0.500000 0.000000 0.500000
O O9 0.585940 0.154502 0.622282
O O10 0.000000 0.187430 0.250000
#
# Coordination Sequence:
#
# PCOD9299358 Si02
#       5
#     8   8   8   8   4
#     4  11  27  48  76 112 161 209 270 332 403 486
#     4  11  26  45  74 110 153 207 264 328 405 478
#     4  12  26  47  79 112 160 204 271 333 402 489
#     4  10  24  49  73 110 152 211 263 333 408 484
#     4  12  26  44  74 112 156 194 268 322 410 480
#
# _framework density 30.017215
#
# number of rings (size 3 to 8) (size 9 to 14) (size 15 to 20)
#    0.000    0.889    2.222    2.667    6.222    1.778 
#    0.000    4.444    0.000    0.000    0.000    0.000 
#    0.000    0.000    0.000    0.000    0.000    0.000 
#
# Total GULP energy -100588.297533 kJ/mol
# GULP energy per Si atom -5588.238752 kJ/mol
# Density = 2.994889 g / cm^3
# Si number density = 30.017215 Si / 1000 Ang^3
#
#
#
# Elastic Constant Matrix: (Units=GPa)
#
#
# Indices 1 2 3 4 5 6 
#
# 1 106.3366 -27.0544 16.1274 0.0000 23.8520 0.0000
# 2 -27.0544 120.3487 34.4570 0.0000 -7.8531 0.0000
# 3 16.1274 34.4570 158.0993 0.0000 4.8751 0.0000
# 4 0.0000 0.0000 0.0000 63.1781 0.0000 4.6202
# 5 23.8520 -7.8531 4.8751 0.0000 92.8150 0.0000
# 6 0.0000 0.0000 0.0000 4.6202 0.0000 13.0840
#
#
#
# Elastic Compliance Matrix: (Units=1/GPa)
#
#
# Indices 1 2 3 4 5 6 
#
# 1 0.010912 0.002760 -0.001638 0.000000 -0.002485 0.000000
# 2 0.002760 0.009628 -0.002387 0.000000 0.000231 0.000000
# 3 -0.001638 -0.002387 0.007017 0.000000 -0.000150 0.000000
# 4 0.000000 0.000000 0.000000 0.016248 0.000000 -0.005737
# 5 -0.002485 0.000231 -0.000150 0.000000 0.011440 0.000000
# 6 0.000000 0.000000 0.000000 -0.005737 0.000000 0.078455
#
#
# Mechanical properties :
#
#
# Convention : Reuss Voigt Hill
#
# Bulk Modulus (GPa) = 39.95710 47.98274 43.96992
# Shear Modulus (GPa) = 34.58465 57.89906 46.24186
#
# Velocity S-wave (km/s) = 3.39803 4.39665 3.92919
# Velocity P-wave (km/s) = 5.36058 6.46481 5.93842
#
# Compressibility (1/GPa) = 0.02502684
#
# Stress axis : x y z
#
# Youngs Moduli (GPa) = 91.64212 103.86272 142.50931
#
# Poissons Ratio (x) = -0.28665 0.23343
# Poissons Ratio (y) = -0.25292 0.34018
# Poissons Ratio (z) = 0.15011 0.24792
#
# Static dielectric constant tensor:
#      x y z
#    x 2.235720 0.000000 -0.054780 
#    y 0.000000 1.776490 0.000000 
#    z -0.054780 0.000000 2.511190 
# 
# From -- ./inp_files/241514.got.cif
#   From: 2010.05.17/outbox.cif.g08.bks.cpg/sg15_121_cif.got.tgz:241514.got - 2010.06.03 18:47:42.
