data_PCOD9299831
_publ_section_title
;
Structure prediction by ZEFSAII (Michael W. Deem and Ramdas Pophale) SiO2 
 PCOD9299831
Probable space group: C 2/C
;
_chemical_formula_sum "Si O2"
_cell_formula_units_Z 56
_cell_length_a 21.020336
_cell_length_b 13.544369
_cell_length_c 17.212618
_cell_angle_alpha 90.000000
_cell_angle_beta 32.337518
_cell_angle_gamma 90.000000
_cell_volume 2621.335480
_symmetry_space_group_name_H-M "C 2/C"
_symmetry_group_IT_number 15
_symmetry_cell_setting 'monoclinic'
loop_
_space_group_symop_operation_xyz
x,y,z
-x,y,1/2-z
-x,-y,-z
x,-y,1/2+z
1/2+x,1/2+y,z
1/2-x,1/2+y,1/2-z
1/2-x,1/2-y,-z
1/2+x,1/2-y,1/2+z
loop_
_atom_site_type_symbol
_atom_site_label
_atom_site_fract_x
_atom_site_fract_y
_atom_site_fract_z
Si Si1 0.908674 0.895207 0.913372
Si Si2 0.815826 0.517927 0.391110
Si Si3 0.772095 0.683385 0.306134
Si Si4 0.668526 0.132466 0.846013
Si Si5 0.920772 0.512762 0.941913
Si Si6 0.452306 0.211613 0.983063
Si Si7 0.617842 0.510377 0.425856
O O1 0.930822 0.809031 0.953911
O O2 0.000000 0.879004 0.750000
O O3 0.775361 0.925441 0.024047
O O4 0.931897 0.996678 0.935833
O O5 0.788542 0.617662 0.367796
O O6 0.836289 0.530507 0.461898
O O7 0.944358 0.488076 0.226238
O O8 0.707948 0.788812 0.370768
O O9 0.685066 0.612453 0.346675
O O10 0.887955 0.706329 0.133837
O O11 0.589641 0.185797 0.861429
O O12 0.781634 0.072154 0.696267
O O13 0.589496 0.051329 0.970294
O O14 0.894201 0.624570 0.992133
O O15 0.500000 0.500000 0.500000
#
# Coordination Sequence:
#
# PCOD9299831 Si02
#       7
#     8   8   8   8   8   8   8
#     4  11  26  44  67 105 145 179 222 287 358 420
#     4  10  25  47  65 101 136 183 233 281 348 406
#     4  11  23  42  70  98 135 179 233 287 334 420
#     4  12  24  42  74 100 133 184 235 290 342 408
#     4  11  24  43  71  95 139 182 227 293 335 413
#     4  12  23  42  68 105 133 179 228 281 351 415
#     4  11  24  44  66 101 139 183 235 281 345 409
#
# _framework density 21.363154999999999
#
# number of rings (size 3 to 8) (size 9 to 14) (size 15 to 20)
#    0.000    0.857    4.286    3.000    4.000    2.286 
#    0.000    0.000   12.571    0.000    0.000    0.000 
#    0.000    0.000    0.000    0.000    0.000    0.000 
#
# Total GULP energy -155970.284729 kJ/mol
# GULP energy per Si atom -5570.367312 kJ/mol
# Density = 2.131453 g / cm^3
# Si number density = 21.363155 Si / 1000 Ang^3
#
#
#
# Elastic Constant Matrix: (Units=GPa)
#
#
# Indices 1 2 3 4 5 6 
#
# 1 103.7375 20.9845 46.3750 0.0000 -7.6535 0.0000
# 2 20.9845 83.0818 44.7205 0.0000 6.6596 0.0000
# 3 46.3750 44.7205 91.6514 0.0000 -5.0042 0.0000
# 4 0.0000 0.0000 0.0000 21.0402 0.0000 -0.0705
# 5 -7.6535 6.6596 -5.0042 0.0000 32.4398 0.0000
# 6 0.0000 0.0000 0.0000 -0.0705 0.0000 31.5079
#
#
#
# Elastic Compliance Matrix: (Units=1/GPa)
#
#
# Indices 1 2 3 4 5 6 
#
# 1 0.012586 0.000042 -0.006280 0.000000 0.001992 0.000000
# 2 0.000042 0.017040 -0.008599 0.000000 -0.004815 0.000000
# 3 -0.006280 -0.008599 0.018455 0.000000 0.003130 0.000000
# 4 0.000000 0.000000 0.000000 0.047529 0.000000 0.000106
# 5 0.001992 -0.004815 0.003130 0.000000 0.032768 0.000000
# 6 0.000000 0.000000 0.000000 0.000106 0.000000 0.031738
#
#
# Mechanical properties :
#
#
# Convention : Reuss Voigt Hill
#
# Bulk Modulus (GPa) = 54.32610 55.84783 55.08697
# Shear Modulus (GPa) = 25.52008 28.09029 26.80519
#
# Velocity S-wave (km/s) = 3.46002 3.63008 3.54607
# Velocity P-wave (km/s) = 6.43796 6.61580 6.52749
#
# Compressibility (1/GPa) = 0.01840736
#
# Stress axis : x y z
#
# Youngs Moduli (GPa) = 79.45601 58.68521 54.18594
#
# Poissons Ratio (x) = -0.00245 0.34028
# Poissons Ratio (y) = -0.00332 0.46592
# Poissons Ratio (z) = 0.49897 0.50461
#
# Static dielectric constant tensor:
#      x y z
#    x 1.907700 0.000000 -0.026320 
#    y 0.000000 1.820330 0.000000 
#    z -0.026320 0.000000 1.821380 
# 
# From -- ./inp_files/215695.got.cif
#   From: 2010.05.17/outbox.cif.g08.bks.cpg/sg15_108_cif.got.tgz:215695.got - 2010.06.03 18:47:42.
