data_PCOD9299140
_publ_section_title
;
Structure prediction by ZEFSAII (Michael W. Deem and Ramdas Pophale) SiO2 
 PCOD9299140
Probable space group: C 2/C
;
_chemical_formula_sum "Si O2"
_cell_formula_units_Z 28
_cell_length_a 14.163306
_cell_length_b 16.934857
_cell_length_c 7.612940
_cell_angle_alpha 90.000000
_cell_angle_beta 144.070309
_cell_angle_gamma 90.000000
_cell_volume 1071.476863
_symmetry_space_group_name_H-M "C 2/C"
_symmetry_group_IT_number 15
_symmetry_cell_setting 'monoclinic'
loop_
_space_group_symop_operation_xyz
x,y,z
-x,y,1/2-z
-x,-y,-z
x,-y,1/2+z
1/2+x,1/2+y,z
1/2-x,1/2+y,1/2-z
1/2-x,1/2-y,-z
1/2+x,1/2-y,1/2+z
loop_
_atom_site_type_symbol
_atom_site_label
_atom_site_fract_x
_atom_site_fract_y
_atom_site_fract_z
Si Si1 0.572041 0.918069 0.666976
Si Si2 0.806999 0.311799 0.230360
Si Si3 0.000000 0.789815 0.250000
Si Si4 0.898273 0.081288 0.843721
O O1 0.500000 0.907529 0.750000
O O2 0.478941 0.848692 0.426549
O O3 0.500000 0.000000 0.500000
O O4 0.760218 0.925921 0.983855
O O5 0.847371 0.264768 0.472383
O O6 0.687092 0.384033 0.107134
O O7 0.750000 0.250000 0.000000
O O8 0.004689 0.845294 0.087116
O O9 0.000000 0.000000 0.000000
#
# Coordination Sequence:
#
# PCOD9299140 Si02
#       4
#     8   8   4   8
#     4  10  24  47  70 107 157 203 264 325 394 483
#     4  11  26  50  78 114 157 210 269 332 407 468
#     4  12  26  48  74 112 166 192 266 342 396 474
#     4  11  27  48  77 116 158 211 267 328 402 489
#
# _framework density 26.132155000000001
#
# number of rings (size 3 to 8) (size 9 to 14) (size 15 to 20)
#    0.000    1.143    4.286    0.857   12.000    1.143 
#    0.000    0.000    0.000    0.000    0.000    0.000 
#    0.000    0.000    0.000    0.000    0.000    0.000 
#
# Total GULP energy -78166.670692 kJ/mol
# GULP energy per Si atom -5583.333621 kJ/mol
# Density = 2.607268 g / cm^3
# Si number density = 26.132155 Si / 1000 Ang^3
#
#
#
# Elastic Constant Matrix: (Units=GPa)
#
#
# Indices 1 2 3 4 5 6 
#
# 1 76.8549 47.1564 39.6971 0.0000 -1.8678 0.0000
# 2 47.1564 213.4807 115.7437 0.0000 8.1523 0.0000
# 3 39.6971 115.7437 170.2976 0.0000 14.1208 0.0000
# 4 0.0000 0.0000 0.0000 83.2311 0.0000 3.9882
# 5 -1.8678 8.1523 14.1208 0.0000 38.8037 0.0000
# 6 0.0000 0.0000 0.0000 3.9882 0.0000 44.9337
#
#
#
# Elastic Compliance Matrix: (Units=1/GPa)
#
#
# Indices 1 2 3 4 5 6 
#
# 1 0.015642 -0.002319 -0.002241 0.000000 0.002055 0.000000
# 2 -0.002319 0.007764 -0.004735 0.000000 -0.000020 0.000000
# 3 -0.002241 -0.004735 0.009836 0.000000 -0.002692 0.000000
# 4 0.000000 0.000000 0.000000 0.012066 0.000000 -0.001071
# 5 0.002055 -0.000020 -0.002692 0.000000 0.026854 0.000000
# 6 0.000000 0.000000 0.000000 -0.001071 0.000000 0.022350
#
#
# Mechanical properties :
#
#
# Convention : Reuss Voigt Hill
#
# Bulk Modulus (GPa) = 68.24518 96.20307 82.22413
# Shear Modulus (GPa) = 42.37849 50.59611 46.48730
#
# Velocity S-wave (km/s) = 4.03140 4.40496 4.22231
# Velocity P-wave (km/s) = 6.91677 7.92247 7.43664
#
# Compressibility (1/GPa) = 0.01465305
#
# Stress axis : x y z
#
# Youngs Moduli (GPa) = 63.93223 128.79295 101.67018
#
# Poissons Ratio (x) = 0.29865 0.22780
# Poissons Ratio (y) = 0.14825 0.48140
# Poissons Ratio (z) = 0.14324 0.60983
#
# Static dielectric constant tensor:
#      x y z
#    x 2.121240 0.000000 0.067670 
#    y 0.000000 2.317970 0.000000 
#    z 0.067670 0.000000 2.354640 
# 
# From -- ./inp_files/48865.got.cif
#   From: 2010.05.17/outbox.cif.g08.bks.cpg/sg15_25_cif.got.tgz:48865.got - 2010.06.03 18:47:42.
