data_PCOD9299921
_publ_section_title
;
Structure prediction by ZEFSAII (Michael W. Deem and Ramdas Pophale) SiO2 
 PCOD9299921
Probable space group: C 2/C
;
_chemical_formula_sum "Si O2"
_cell_formula_units_Z 52
_cell_length_a 10.760421
_cell_length_b 22.141203
_cell_length_c 14.968531
_cell_angle_alpha 90.000000
_cell_angle_beta 143.252493
_cell_angle_gamma 90.000000
_cell_volume 2133.640326
_symmetry_space_group_name_H-M "C 2/C"
_symmetry_group_IT_number 15
_symmetry_cell_setting 'monoclinic'
loop_
_space_group_symop_operation_xyz
x,y,z
-x,y,1/2-z
-x,-y,-z
x,-y,1/2+z
1/2+x,1/2+y,z
1/2-x,1/2+y,1/2-z
1/2-x,1/2-y,-z
1/2+x,1/2-y,1/2+z
loop_
_atom_site_type_symbol
_atom_site_label
_atom_site_fract_x
_atom_site_fract_y
_atom_site_fract_z
Si Si1 0.361598 0.339250 0.810539
Si Si2 0.783676 0.521758 0.799184
Si Si3 0.074359 0.098009 0.975192
Si Si4 0.935699 0.642465 0.977161
Si Si5 0.000000 0.528652 0.250000
Si Si6 0.000000 0.069383 0.250000
Si Si7 0.464067 0.784840 0.132330
Si Si8 0.000000 0.832114 0.250000
O O1 0.436629 0.352718 0.953245
O O2 0.512018 0.382184 0.838006
O O3 0.374411 0.269913 0.788878
O O4 0.119937 0.357201 0.655249
O O5 0.598861 0.546505 0.628992
O O6 0.862045 0.575027 0.909946
O O7 0.948196 0.503600 0.816183
O O8 0.677182 0.473738 0.807196
O O9 0.297294 0.068079 0.112859
O O10 0.034765 0.130315 0.859435
O O11 0.740793 0.688838 0.880344
O O12 0.029315 0.665827 0.939114
O O13 0.500000 0.811911 0.250000
O O14 0.250000 0.750000 0.000000
#
# Coordination Sequence:
#
# PCOD9299921 Si02
#       8
#     8   8   8   8   4   4   8   4
#     4  12  26  48  81 112 150 208 258 322 391 467
#     4  11  27  43  72 108 159 204 255 318 380 463
#     4  11  25  48  68 105 152 199 254 309 380 464
#     4  11  26  49  74 113 151 205 256 317 394 461
#     4  12  24  42  68 105 144 203 254 302 382 446
#     4  12  25  48  73 113 162 200 261 308 388 464
#     4  12  26  49  80 112 149 194 260 327 386 456
#     4  10  25  48  75 102 156 199 247 320 378 466
#
# _framework density 24.371493000000001
#
# number of rings (size 3 to 8) (size 9 to 14) (size 15 to 20)
#    0.000    0.615    3.846    3.231    7.538    0.615 
#    0.000    3.846    0.000    0.000    0.000    0.000 
#    0.000    0.000    0.000    0.000    0.000    0.000 
#
# Total GULP energy -145103.024336 kJ/mol
# GULP energy per Si atom -5580.885551 kJ/mol
# Density = 2.431602 g / cm^3
# Si number density = 24.371493 Si / 1000 Ang^3
#
#
#
# Elastic Constant Matrix: (Units=GPa)
#
#
# Indices 1 2 3 4 5 6 
#
# 1 98.0937 9.5880 21.2166 0.0000 -9.1126 -0.0001
# 2 9.5880 54.6619 -0.9239 0.0000 -7.3165 0.0000
# 3 21.2166 -0.9239 133.9347 0.0000 -11.8420 -0.0005
# 4 0.0000 0.0000 0.0000 6.2219 0.0000 -0.6689
# 5 -9.1126 -7.3165 -11.8420 0.0000 56.3178 -0.0003
# 6 -0.0001 0.0000 -0.0005 -0.6689 -0.0003 40.5212
#
#
#
# Elastic Compliance Matrix: (Units=1/GPa)
#
#
# Indices 1 2 3 4 5 6 
#
# 1 0.010828 -0.001769 -0.001623 0.000000 0.001181 0.000000
# 2 -0.001769 0.018923 0.000614 0.000000 0.002301 0.000000
# 3 -0.001623 0.000614 0.007858 0.000000 0.001469 0.000000
# 4 0.000000 0.000000 0.000000 0.161007 0.000000 0.002658
# 5 0.001181 0.002301 0.001469 0.000000 0.018555 0.000000
# 6 0.000000 0.000000 0.000000 0.002658 0.000000 0.024722
#
#
# Mechanical properties :
#
#
# Convention : Reuss Voigt Hill
#
# Bulk Modulus (GPa) = 31.19787 38.49464 34.84625
# Shear Modulus (GPa) = 19.36986 37.73283 28.55134
#
# Velocity S-wave (km/s) = 2.82223 3.93903 3.42644
# Velocity P-wave (km/s) = 4.84239 6.04295 5.47567
#
# Compressibility (1/GPa) = 0.03205347
#
# Stress axis : x y z
#
# Youngs Moduli (GPa) = 92.35346 52.84593 127.26557
#
# Poissons Ratio (x) = 0.09347 0.20656
# Poissons Ratio (y) = 0.16334 -0.07816
# Poissons Ratio (z) = 0.14989 -0.03246
#
# Static dielectric constant tensor:
#      x y z
#    x 2.097290 0.000000 0.156280 
#    y 0.000000 1.995810 0.000000 
#    z 0.156280 0.000000 2.023670 
# 
# From -- ./inp_files/148157.got.cif
#   From: 2010.05.17/outbox.cif.g08.bks.cpg/sg15_75_cif.got.tgz:148157.got - 2010.06.03 18:47:42.
