data_PCOD9299556
_publ_section_title
;
Structure prediction by ZEFSAII (Michael W. Deem and Ramdas Pophale) SiO2 
 PCOD9299556
Probable space group: C 2/C
;
_chemical_formula_sum "Si O2"
_cell_formula_units_Z 56
_cell_length_a 28.470148
_cell_length_b 5.344395
_cell_length_c 17.768941
_cell_angle_alpha 90.000000
_cell_angle_beta 113.405143
_cell_angle_gamma 90.000000
_cell_volume 2481.187186
_symmetry_space_group_name_H-M "C 2/C"
_symmetry_group_IT_number 15
_symmetry_cell_setting 'monoclinic'
loop_
_space_group_symop_operation_xyz
x,y,z
-x,y,1/2-z
-x,-y,-z
x,-y,1/2+z
1/2+x,1/2+y,z
1/2-x,1/2+y,1/2-z
1/2-x,1/2-y,-z
1/2+x,1/2-y,1/2+z
loop_
_atom_site_type_symbol
_atom_site_label
_atom_site_fract_x
_atom_site_fract_y
_atom_site_fract_z
Si Si1 0.782513 0.085931 0.264631
Si Si2 0.948841 0.046167 0.512067
Si Si3 0.639991 0.890976 0.091770
Si Si4 0.406919 0.059836 0.294388
Si Si5 0.383022 0.811910 0.050435
Si Si6 0.133939 0.941431 0.806924
Si Si7 0.518709 0.133537 0.345960
O O1 0.744818 0.325101 0.233668
O O2 0.821803 0.177238 0.354424
O O3 0.813174 0.054424 0.205744
O O4 0.916119 0.271504 0.457628
O O5 0.964843 0.105801 0.607845
O O6 0.908518 0.828792 0.496115
O O7 0.000000 0.000000 0.500000
O O8 0.631504 0.067318 0.159173
O O9 0.654870 0.005360 0.019913
O O10 0.393940 0.297179 0.232304
O O11 0.466510 0.061288 0.356108
O O12 0.396464 0.793778 0.248386
O O13 0.361702 0.631147 0.102023
O O14 0.431673 0.961373 0.114891
O O15 0.500000 0.145370 0.250000
#
# Coordination Sequence:
#
# PCOD9299556 Si02
#       7
#     8   8   8   8   8   8   8
#     4  11  25  48  77 104 128 176 243 299 366 432
#     4  11  24  39  65  97 145 192 235 277 342 415
#     4  10  25  43  68 100 139 182 229 293 349 422
#     4  11  23  41  67  98 138 193 237 272 333 406
#     4  11  24  41  63 101 144 187 230 288 351 406
#     4  11  25  44  71 101 138 181 230 298 352 413
#     4  11  22  37  58  97 141 189 240 276 322 411
#
# _framework density 22.569842000000001
#
# number of rings (size 3 to 8) (size 9 to 14) (size 15 to 20)
#    0.000    1.143    1.429    4.286   14.000    2.857 
#    0.000    1.429    0.000    0.000    0.000    0.000 
#    0.000    0.000    0.000    0.000    0.000    0.000 
#
# Total GULP energy -156323.212109 kJ/mol
# GULP energy per Si atom -5582.971861 kJ/mol
# Density = 2.251847 g / cm^3
# Si number density = 22.569842 Si / 1000 Ang^3
#
#
#
# Elastic Constant Matrix: (Units=GPa)
#
#
# Indices 1 2 3 4 5 6 
#
# 1 91.1606 22.1430 8.7223 0.0000 -10.1340 -0.0001
# 2 22.1430 95.3732 21.7566 -0.0003 -11.9299 0.0001
# 3 8.7223 21.7566 91.6281 0.0000 -9.6532 0.0000
# 4 0.0000 -0.0003 0.0000 28.1648 -0.0001 -0.3329
# 5 -10.1340 -11.9299 -9.6532 -0.0001 20.0703 0.0000
# 6 -0.0001 0.0001 0.0000 -0.3329 0.0000 36.7437
#
#
#
# Elastic Compliance Matrix: (Units=1/GPa)
#
#
# Indices 1 2 3 4 5 6 
#
# 1 0.012035 -0.002173 -0.000132 0.000000 0.004721 0.000000
# 2 -0.002173 0.012111 -0.002134 0.000000 0.005075 0.000000
# 3 -0.000132 -0.002134 0.011895 0.000000 0.004386 0.000000
# 4 0.000000 0.000000 0.000000 0.035509 0.000000 0.000322
# 5 0.004721 0.005075 0.004386 0.000000 0.057335 0.000000
# 6 0.000000 0.000000 0.000000 0.000322 0.000000 0.027218
#
#
# Mechanical properties :
#
#
# Convention : Reuss Voigt Hill
#
# Bulk Modulus (GPa) = 36.81631 42.60062 39.70847
# Shear Modulus (GPa) = 28.72938 32.03176 30.38057
#
# Velocity S-wave (km/s) = 3.57166 3.77135 3.67286
# Velocity P-wave (km/s) = 5.77551 6.15468 5.96811
#
# Compressibility (1/GPa) = 0.02716187
#
# Stress axis : x y z
#
# Youngs Moduli (GPa) = 83.09031 82.56660 84.06837
#
# Poissons Ratio (x) = 0.17946 0.01111
# Poissons Ratio (y) = 0.18060 0.17942
# Poissons Ratio (z) = 0.01098 0.17621
#
# Static dielectric constant tensor:
#      x y z
#    x 1.876220 0.000000 -0.039740 
#    y 0.000000 1.935620 0.000000 
#    z -0.039740 0.000000 1.887670 
# 
# From -- ./inp_files/221279.got.cif
#   From: 2010.05.17/outbox.cif.g08.bks.cpg/sg15_111_cif.got.tgz:221279.got - 2010.06.03 18:47:42.
