data_PCOD9299700
_publ_section_title
;
Structure prediction by ZEFSAII (Michael W. Deem and Ramdas Pophale) SiO2 
 PCOD9299700
Probable space group: C 2/C
;
_chemical_formula_sum "Si O2"
_cell_formula_units_Z 24
_cell_length_a 17.729068
_cell_length_b 7.490259
_cell_length_c 13.469927
_cell_angle_alpha 90.000000
_cell_angle_beta 150.976184
_cell_angle_gamma 90.000000
_cell_volume 867.850110
_symmetry_space_group_name_H-M "C 2/C"
_symmetry_group_IT_number 15
_symmetry_cell_setting 'monoclinic'
loop_
_space_group_symop_operation_xyz
x,y,z
-x,y,1/2-z
-x,-y,-z
x,-y,1/2+z
1/2+x,1/2+y,z
1/2-x,1/2+y,1/2-z
1/2-x,1/2-y,-z
1/2+x,1/2-y,1/2+z
loop_
_atom_site_type_symbol
_atom_site_label
_atom_site_fract_x
_atom_site_fract_y
_atom_site_fract_z
Si Si1 0.558039 0.427826 0.707053
Si Si2 0.040434 0.658093 0.186202
Si Si3 0.723506 0.863625 0.281617
O O1 0.500000 0.371679 0.750000
O O2 0.592646 0.636667 0.753796
O O3 0.691451 0.309031 0.812687
O O4 0.403249 0.387386 0.464167
O O5 0.000000 0.595154 0.250000
O O6 0.168226 0.533239 0.282289
O O7 0.888621 0.647352 0.941741
#
# Coordination Sequence:
#
# PCOD9299700 Si02
#       3
#     8   8   8
#     4  11  25  45  72 104 138 181 228 284 343 409
#     4  10  25  45  69 100 138 184 228 279 341 408
#     4  11  25  45  72 103 138 180 229 287 340 407
#
# _framework density 27.654543
#
# number of rings (size 3 to 8) (size 9 to 14) (size 15 to 20)
#    0.000    1.333    0.000    3.000    9.333    8.000 
#    0.000    0.000    0.000    0.000    0.000    0.000 
#    0.000    0.000    0.000    0.000    0.000    0.000 
#
# Total GULP energy -67578.250590 kJ/mol
# GULP energy per Si atom -5631.520883 kJ/mol
# Density = 2.759160 g / cm^3
# Si number density = 27.654543 Si / 1000 Ang^3
#
#
#
# Elastic Constant Matrix: (Units=GPa)
#
#
# Indices 1 2 3 4 5 6 
#
# 1 157.5656 48.6418 30.5435 0.0000 -15.8574 0.0000
# 2 48.6418 182.8851 38.1059 0.0000 18.6659 0.0000
# 3 30.5435 38.1059 88.7058 0.0000 1.5977 0.0000
# 4 0.0000 0.0000 0.0000 25.2932 0.0000 11.1536
# 5 -15.8574 18.6659 1.5977 0.0000 56.3408 0.0000
# 6 0.0000 0.0000 0.0000 11.1536 0.0000 48.5020
#
#
#
# Elastic Compliance Matrix: (Units=1/GPa)
#
#
# Indices 1 2 3 4 5 6 
#
# 1 0.007580 -0.001922 -0.001835 0.000000 0.002822 0.000000
# 2 -0.001922 0.006707 -0.002171 0.000000 -0.002701 0.000000
# 3 -0.001835 -0.002171 0.012841 0.000000 -0.000161 0.000000
# 4 0.000000 0.000000 0.000000 0.043998 0.000000 -0.010118
# 5 0.002822 -0.002701 -0.000161 0.000000 0.019443 0.000000
# 6 0.000000 0.000000 0.000000 -0.010118 0.000000 0.022944
#
#
# Mechanical properties :
#
#
# Convention : Reuss Voigt Hill
#
# Bulk Modulus (GPa) = 65.47985 73.74879 69.61432
# Shear Modulus (GPa) = 38.32642 46.81823 42.57232
#
# Velocity S-wave (km/s) = 3.72681 4.11903 3.92782
# Velocity P-wave (km/s) = 6.49984 7.02479 6.76741
#
# Compressibility (1/GPa) = 0.01527187
#
# Stress axis : x y z
#
# Youngs Moduli (GPa) = 131.93476 149.09750 77.87807
#
# Poissons Ratio (x) = 0.28650 0.14292
# Poissons Ratio (y) = 0.25352 0.16906
# Poissons Ratio (z) = 0.24212 0.32367
#
# Static dielectric constant tensor:
#      x y z
#    x 2.159590 0.000000 -0.066670 
#    y 0.000000 2.102950 0.000000 
#    z -0.066670 0.000000 2.152990 
# 
# From -- ./inp_files/53354.got.cif
#   From: 2010.05.17/outbox.cif.g08.bks.cpg/sg15_27_cif.got.tgz:53354.got - 2010.06.03 18:47:42.
