data_PCOD9299833
_publ_section_title
;
Structure prediction by ZEFSAII (Michael W. Deem and Ramdas Pophale) SiO2 
 PCOD9299833
Probable space group: C 2/C
;
_chemical_formula_sum "Si O2"
_cell_formula_units_Z 48
_cell_length_a 26.693726
_cell_length_b 12.319082
_cell_length_c 17.403665
_cell_angle_alpha 90.000000
_cell_angle_beta 23.421135
_cell_angle_gamma 90.000000
_cell_volume 2274.838312
_symmetry_space_group_name_H-M "C 2/C"
_symmetry_group_IT_number 15
_symmetry_cell_setting 'monoclinic'
loop_
_space_group_symop_operation_xyz
x,y,z
-x,y,1/2-z
-x,-y,-z
x,-y,1/2+z
1/2+x,1/2+y,z
1/2-x,1/2+y,1/2-z
1/2-x,1/2-y,-z
1/2+x,1/2-y,1/2+z
loop_
_atom_site_type_symbol
_atom_site_label
_atom_site_fract_x
_atom_site_fract_y
_atom_site_fract_z
Si Si1 0.257319 0.309451 0.407409
Si Si2 0.360306 0.968132 0.229729
Si Si3 0.622680 0.377439 0.025211
Si Si4 0.021683 0.121783 0.495209
Si Si5 0.769488 0.237682 0.381854
Si Si6 0.629685 0.033062 0.601494
O O1 0.250000 0.250000 0.500000
O O2 0.158303 0.246407 0.494536
O O3 0.398685 0.304532 0.178435
O O4 0.229654 0.437164 0.449790
O O5 0.292103 0.851757 0.306513
O O6 0.249844 0.055167 0.366645
O O7 0.381025 0.956428 0.291912
O O8 0.500000 0.000000 0.000000
O O9 0.500000 0.409102 0.250000
O O10 0.588953 0.384357 0.983399
O O11 0.103042 0.175210 0.314522
O O12 0.000000 0.000000 0.500000
O O13 0.750000 0.250000 0.500000
O O14 0.664263 0.146467 0.510512
O O15 0.500000 0.992312 0.750000
#
# Coordination Sequence:
#
# PCOD9299833 Si02
#       6
#     8   8   8   8   8   8
#     4  12  23  45  72 104 146 185 250 315 368 444
#     4  11  25  45  71 103 149 188 246 305 374 448
#     4  12  26  43  75 110 144 197 251 312 381 442
#     4  12  26  47  75 107 147 193 252 305 376 449
#     4  10  25  47  67 100 144 189 240 296 367 439
#     4  11  24  43  70 100 143 190 239 304 365 444
#
# _framework density 21.100401000000002
#
# number of rings (size 3 to 8) (size 9 to 14) (size 15 to 20)
#    0.000    0.667    5.000    1.500    4.667    2.000 
#    3.000    0.000    0.000    0.000    0.000    0.000 
#    0.000    0.000    0.000    0.000    0.000    0.000 
#
# Total GULP energy -133860.546640 kJ/mol
# GULP energy per Si atom -5577.522777 kJ/mol
# Density = 2.105238 g / cm^3
# Si number density = 21.100401 Si / 1000 Ang^3
#
#
#
# Elastic Constant Matrix: (Units=GPa)
#
#
# Indices 1 2 3 4 5 6 
#
# 1 85.1553 20.6837 35.8096 0.0000 -0.4308 0.0000
# 2 20.6837 112.7049 37.2127 0.0000 15.6316 0.0000
# 3 35.8096 37.2127 169.4227 0.0000 21.6991 0.0000
# 4 0.0000 0.0000 0.0000 40.1869 0.0000 -7.3358
# 5 -0.4308 15.6316 21.6991 0.0000 29.4396 0.0000
# 6 0.0000 0.0000 0.0000 -7.3358 0.0000 33.7717
#
#
#
# Elastic Compliance Matrix: (Units=1/GPa)
#
#
# Indices 1 2 3 4 5 6 
#
# 1 0.013434 -0.001995 -0.002829 0.000000 0.003341 0.000000
# 2 -0.001995 0.010286 -0.001253 0.000000 -0.004567 0.000000
# 3 -0.002829 -0.001253 0.007394 0.000000 -0.004826 0.000000
# 4 0.000000 0.000000 0.000000 0.025911 0.000000 0.005628
# 5 0.003341 -0.004567 -0.004826 0.000000 0.039999 0.000000
# 6 0.000000 0.000000 0.000000 0.005628 0.000000 0.030833
#
#
# Mechanical properties :
#
#
# Convention : Reuss Voigt Hill
#
# Bulk Modulus (GPa) = 52.74102 61.63276 57.18689
# Shear Modulus (GPa) = 34.16917 38.91811 36.54364
#
# Velocity S-wave (km/s) = 4.02849 4.29934 4.16612
# Velocity P-wave (km/s) = 6.83285 7.34292 7.09247
#
# Compressibility (1/GPa) = 0.01896057
#
# Stress axis : x y z
#
# Youngs Moduli (GPa) = 74.43556 97.22073 135.25156
#
# Poissons Ratio (x) = 0.19393 0.38267
# Poissons Ratio (y) = 0.14848 0.16942
# Poissons Ratio (z) = 0.21060 0.12178
#
# Static dielectric constant tensor:
#      x y z
#    x 1.802640 0.000000 -0.062420 
#    y 0.000000 1.913840 0.000000 
#    z -0.062420 0.000000 1.806340 
# 
# From -- ./inp_files/152038.got.cif
#   From: 2010.05.17/outbox.cif.g08.bks.cpg/sg15_77_cif.got.tgz:152038.got - 2010.06.03 18:47:42.
