data_PCOD9299774
_publ_section_title
;
Structure prediction by ZEFSAII (Michael W. Deem and Ramdas Pophale) SiO2 
 PCOD9299774
Probable space group: C 2/C
;
_chemical_formula_sum "Si O2"
_cell_formula_units_Z 52
_cell_length_a 7.735737
_cell_length_b 29.815797
_cell_length_c 10.401205
_cell_angle_alpha 90.000000
_cell_angle_beta 104.246843
_cell_angle_gamma 90.000000
_cell_volume 2325.225663
_symmetry_space_group_name_H-M "C 2/C"
_symmetry_group_IT_number 15
_symmetry_cell_setting 'monoclinic'
loop_
_space_group_symop_operation_xyz
x,y,z
-x,y,1/2-z
-x,-y,-z
x,-y,1/2+z
1/2+x,1/2+y,z
1/2-x,1/2+y,1/2-z
1/2-x,1/2-y,-z
1/2+x,1/2-y,1/2+z
loop_
_atom_site_type_symbol
_atom_site_label
_atom_site_fract_x
_atom_site_fract_y
_atom_site_fract_z
Si Si1 0.607069 0.833014 0.635201
Si Si2 0.046063 0.758938 0.413910
Si Si3 0.866104 0.400119 0.466746
Si Si4 0.824617 0.063489 0.799795
Si Si5 0.000000 0.854555 0.750000
Si Si6 0.986133 0.141751 0.526814
Si Si7 0.880123 0.488545 0.602228
O O1 0.500000 0.838734 0.750000
O O2 0.551039 0.786515 0.561537
O O3 0.549168 0.875536 0.537311
O O4 0.813079 0.829303 0.707832
O O5 0.250000 0.750000 0.500000
O O6 0.000000 0.762304 0.250000
O O7 0.977350 0.805366 0.462471
O O8 0.838252 0.424382 0.325656
O O9 0.711251 0.363265 0.450576
O O10 0.813952 0.438732 0.558537
O O11 0.883183 0.110741 0.869394
O O12 0.765638 0.026256 0.891368
O O13 0.000000 0.048123 0.750000
O O14 0.010386 0.878288 0.615518
O O15 0.000000 0.485111 0.750000
O O16 0.000000 0.500000 0.500000
#
# Coordination Sequence:
#
# PCOD9299774 Si02
#       7
#     8   8   8   8   4   8   8
#     4  11  23  44  73 104 147 192 242 303 369 452
#     4  11  21  42  76 109 146 198 250 300 381 448
#     4  11  22  46  72 101 143 189 247 299 382 438
#     4  10  25  46  69 108 146 189 254 310 376 458
#     4  12  26  44  64 108 146 186 254 296 372 450
#     4  11  24  42  71 106 145 192 243 306 369 454
#     4  12  26  45  71 102 144 194 248 309 381 450
#
# _framework density 22.363420000000001
#
# number of rings (size 3 to 8) (size 9 to 14) (size 15 to 20)
#    0.000    0.923    4.615    2.769    2.154    3.077 
#    1.385    0.000    1.692    0.000    0.000    0.000 
#    0.000    0.000    0.000    0.000    0.000    0.000 
#
# Total GULP energy -145117.566249 kJ/mol
# GULP energy per Si atom -5581.444856 kJ/mol
# Density = 2.231252 g / cm^3
# Si number density = 22.363420 Si / 1000 Ang^3
#
#
#
# Elastic Constant Matrix: (Units=GPa)
#
#
# Indices 1 2 3 4 5 6 
#
# 1 117.1453 47.4458 39.3263 0.0000 8.5631 0.0000
# 2 47.4458 140.3139 39.0235 0.0000 10.4170 0.0000
# 3 39.3263 39.0235 129.4840 0.0000 8.2150 0.0000
# 4 0.0000 0.0000 0.0000 19.7824 0.0000 10.2788
# 5 8.5631 10.4170 8.2150 0.0000 47.1248 0.0000
# 6 0.0000 0.0000 0.0000 10.2788 0.0000 6.4760
#
#
#
# Elastic Compliance Matrix: (Units=1/GPa)
#
#
# Indices 1 2 3 4 5 6 
#
# 1 0.010524 -0.002859 -0.002279 0.000000 -0.000883 0.000000
# 2 -0.002859 0.008639 -0.001665 0.000000 -0.001100 0.000000
# 3 -0.002279 -0.001665 0.008966 0.000000 -0.000781 0.000000
# 4 0.000000 0.000000 0.000000 0.288372 0.000000 -0.457708
# 5 -0.000883 -0.001100 -0.000781 0.000000 0.021760 0.000000
# 6 0.000000 0.000000 0.000000 -0.457708 0.000000 0.880898
#
#
# Mechanical properties :
#
#
# Convention : Reuss Voigt Hill
#
# Bulk Modulus (GPa) = 68.85800 70.94828 69.90314
# Shear Modulus (GPa) = 4.04006 32.08647 18.06327
#
# Velocity S-wave (km/s) = 1.34554 3.79195 2.84512
# Velocity P-wave (km/s) = 5.76812 7.13904 6.48988
#
# Compressibility (1/GPa) = 0.01452264
#
# Stress axis : x y z
#
# Youngs Moduli (GPa) = 95.02143 115.76082 111.52739
#
# Poissons Ratio (x) = 0.33100 0.25412
# Poissons Ratio (y) = 0.27170 0.18572
# Poissons Ratio (z) = 0.21651 0.19277
#
# Static dielectric constant tensor:
#      x y z
#    x 1.913930 0.000000 -0.015240 
#    y 0.000000 1.844950 0.000000 
#    z -0.015240 0.000000 1.871750 
# 
# From -- ./inp_files/81519.got.cif
#   From: 2010.05.17/outbox.cif.g08.bks.cpg/sg15_41_cif.got.tgz:81519.got - 2010.06.03 18:47:42.
