data_PCOD9299965
_publ_section_title
;
Structure prediction by ZEFSAII (Michael W. Deem and Ramdas Pophale) SiO2 
 PCOD9299965
Probable space group: C 2/C
;
_chemical_formula_sum "Si O2"
_cell_formula_units_Z 52
_cell_length_a 30.308335
_cell_length_b 10.792730
_cell_length_c 7.968457
_cell_angle_alpha 90.000000
_cell_angle_beta 58.682932
_cell_angle_gamma 90.000000
_cell_volume 2226.794195
_symmetry_space_group_name_H-M "C 2/C"
_symmetry_group_IT_number 15
_symmetry_cell_setting 'monoclinic'
loop_
_space_group_symop_operation_xyz
x,y,z
-x,y,1/2-z
-x,-y,-z
x,-y,1/2+z
1/2+x,1/2+y,z
1/2-x,1/2+y,1/2-z
1/2-x,1/2-y,-z
1/2+x,1/2-y,1/2+z
loop_
_atom_site_type_symbol
_atom_site_label
_atom_site_fract_x
_atom_site_fract_y
_atom_site_fract_z
Si Si1 0.182981 0.587175 0.183272
Si Si2 0.919489 0.976933 0.254279
Si Si3 0.883826 0.605599 0.498911
Si Si4 0.745079 0.863481 0.876984
Si Si5 0.500000 0.153858 0.250000
Si Si6 0.138988 0.857883 0.838258
Si Si7 0.492717 0.685297 0.435019
O O1 0.150478 0.646847 0.095051
O O2 0.140205 0.517401 0.378988
O O3 0.214818 0.662353 0.261771
O O4 0.219537 0.482070 0.022357
O O5 0.905608 0.902878 0.447127
O O6 0.870893 0.060638 0.304943
O O7 0.937066 0.875271 0.082693
O O8 0.966910 0.072437 0.170192
O O9 0.871887 0.712870 0.658616
O O10 0.944297 0.589032 0.342725
O O11 0.804265 0.886666 0.710232
O O12 0.750000 0.750000 0.000000
O O13 0.494783 0.237567 0.425796
O O14 0.500000 0.760886 0.250000
#
# Coordination Sequence:
#
# PCOD9299965 Si02
#       7
#     8   8   8   8   4   8   8
#     4  10  25  50  69  95 138 180 235 297 349 398
#     4  11  21  36  60  98 141 172 217 270 347 422
#     4  11  24  46  72  95 135 185 230 297 342 412
#     4  11  23  46  73 100 134 182 232 286 355 421
#     4  12  24  46  70 102 138 186 242 284 354 422
#     4  12  22  40  65 102 137 176 220 283 346 428
#     4  11  21  38  61  94 143 186 214 278 347 425
#
# _framework density 23.351955
#
# number of rings (size 3 to 8) (size 9 to 14) (size 15 to 20)
#    0.000    0.923    6.154    0.923    2.154    1.231 
#   13.846    0.000    0.000    0.000    0.000    0.000 
#    0.000    0.000    0.000    0.000    0.000    0.000 
#
# Total GULP energy -145194.258214 kJ/mol
# GULP energy per Si atom -5584.394547 kJ/mol
# Density = 2.329881 g / cm^3
# Si number density = 23.351955 Si / 1000 Ang^3
#
#
#
# Elastic Constant Matrix: (Units=GPa)
#
#
# Indices 1 2 3 4 5 6 
#
# 1 113.0397 13.8609 21.6783 0.0000 -13.6345 0.0000
# 2 13.8609 23.2793 0.6617 0.0000 -3.0473 0.0000
# 3 21.6783 0.6617 91.7848 0.0000 -2.2652 0.0000
# 4 0.0000 0.0000 0.0000 16.8632 0.0000 -1.8356
# 5 -13.6345 -3.0473 -2.2652 0.0000 54.2865 0.0000
# 6 0.0000 0.0000 0.0000 -1.8356 0.0000 26.9812
#
#
#
# Elastic Compliance Matrix: (Units=1/GPa)
#
#
# Indices 1 2 3 4 5 6 
#
# 1 0.010259 -0.005760 -0.002328 0.000000 0.002156 0.000000
# 2 -0.005760 0.046515 0.001055 0.000000 0.001208 0.000000
# 3 -0.002328 0.001055 0.011436 0.000000 -0.000048 0.000000
# 4 0.000000 0.000000 0.000000 0.059743 0.000000 0.004064
# 5 0.002156 0.001208 -0.000048 0.000000 0.019028 0.000000
# 6 0.000000 0.000000 0.000000 0.004064 0.000000 0.037339
#
#
# Mechanical properties :
#
#
# Convention : Reuss Voigt Hill
#
# Bulk Modulus (GPa) = 18.46963 33.38951 25.92957
# Shear Modulus (GPa) = 23.10154 32.41970 27.76062
#
# Velocity S-wave (km/s) = 3.14869 3.73004 3.45163
# Velocity P-wave (km/s) = 4.59841 5.73414 5.19739
#
# Compressibility (1/GPa) = 0.05414294
#
# Stress axis : x y z
#
# Youngs Moduli (GPa) = 97.47194 21.49862 87.44174
#
# Poissons Ratio (x) = 0.12384 0.20360
# Poissons Ratio (y) = 0.56146 -0.09225
# Poissons Ratio (z) = 0.22695 -0.02268
#
# Static dielectric constant tensor:
#      x y z
#    x 1.957310 0.000000 0.052030 
#    y 0.000000 1.907690 0.000000 
#    z 0.052030 0.000000 1.893110 
# 
# From -- ./inp_files/69017.got.cif
#   From: 2010.05.17/outbox.cif.g08.bks.cpg/sg15_35_cif.got.tgz:69017.got - 2010.06.03 18:47:42.
