data_PCOD9299449
_publ_section_title
;
Structure prediction by ZEFSAII (Michael W. Deem and Ramdas Pophale) SiO2 
 PCOD9299449
Probable space group: C 2/C
;
_chemical_formula_sum "Si O2"
_cell_formula_units_Z 64
_cell_length_a 17.073414
_cell_length_b 15.925874
_cell_length_c 16.291053
_cell_angle_alpha 90.000000
_cell_angle_beta 37.107855
_cell_angle_gamma 90.000000
_cell_volume 2672.505464
_symmetry_space_group_name_H-M "C 2/C"
_symmetry_group_IT_number 15
_symmetry_cell_setting 'monoclinic'
loop_
_space_group_symop_operation_xyz
x,y,z
-x,y,1/2-z
-x,-y,-z
x,-y,1/2+z
1/2+x,1/2+y,z
1/2-x,1/2+y,1/2-z
1/2-x,1/2-y,-z
1/2+x,1/2-y,1/2+z
loop_
_atom_site_type_symbol
_atom_site_label
_atom_site_fract_x
_atom_site_fract_y
_atom_site_fract_z
Si Si1 0.261197 0.894484 0.220960
Si Si2 0.622904 0.821819 0.220060
Si Si3 0.508227 0.352890 0.145403
Si Si4 0.615144 0.477926 0.584838
Si Si5 0.499587 0.194568 0.445471
Si Si6 0.733061 0.908745 0.775729
Si Si7 0.995204 0.824604 0.592769
Si Si8 0.353291 0.901086 0.462500
O O1 0.279425 0.838411 0.287217
O O2 0.130520 0.873465 0.281011
O O3 0.264990 0.992179 0.240273
O O4 0.386439 0.870014 0.062664
O O5 0.561562 0.730805 0.285257
O O6 0.510530 0.893877 0.328789
O O7 0.673209 0.830887 0.085696
O O8 0.500000 0.347289 0.250000
O O9 0.597374 0.433850 0.054282
O O10 0.549927 0.263046 0.077001
O O11 0.500000 0.473882 0.750000
O O12 0.583865 0.399176 0.552553
O O13 0.757479 0.472557 0.506527
O O14 0.626790 0.143075 0.313938
O O15 0.534376 0.251461 0.496515
O O16 0.874893 0.870611 0.650043
O O17 0.690394 0.895232 0.907196
#
# Coordination Sequence:
#
# PCOD9299449 Si02
#       8
#     8   8   8   8   8   8   8   8
#     4  11  23  47  71  95 133 182 229 280 341 408
#     4  10  25  40  63 102 138 172 224 282 338 412
#     4  11  25  49  68  98 135 176 233 289 335 404
#     4  11  23  39  64  97 136 182 214 270 341 407
#     4  11  25  41  70  98 131 175 231 282 341 396
#     4  12  22  43  68  95 138 182 224 280 340 408
#     4  11  23  38  60 100 131 176 218 268 342 409
#     4  11  23  40  64 101 139 175 217 283 339 415
#
# _framework density 23.947565000000001
#
# number of rings (size 3 to 8) (size 9 to 14) (size 15 to 20)
#    0.000    1.000    5.000    2.625    5.250    3.000 
#    0.000    1.250    0.000    0.000    0.000    0.000 
#    0.000    0.000    0.000    0.000    0.000    0.000 
#
# Total GULP energy -178841.494067 kJ/mol
# GULP energy per Si atom -5588.796690 kJ/mol
# Density = 2.389306 g / cm^3
# Si number density = 23.947565 Si / 1000 Ang^3
#
#
#
# Elastic Constant Matrix: (Units=GPa)
#
#
# Indices 1 2 3 4 5 6 
#
# 1 99.0381 29.2945 -1.9032 0.0000 -14.7114 0.0000
# 2 29.2945 121.6188 8.0990 0.0000 -17.3545 0.0000
# 3 -1.9032 8.0990 26.1090 -0.0001 -16.3248 0.0000
# 4 0.0000 0.0000 -0.0001 33.3693 0.0000 -1.2774
# 5 -14.7114 -17.3545 -16.3248 0.0000 53.7819 0.0000
# 6 0.0000 0.0000 0.0000 -1.2774 0.0000 30.3080
#
#
#
# Elastic Compliance Matrix: (Units=1/GPa)
#
#
# Indices 1 2 3 4 5 6 
#
# 1 0.011426 -0.002510 0.003776 0.000000 0.003462 0.000000
# 2 -0.002510 0.009199 -0.001987 0.000000 0.001679 0.000000
# 3 0.003776 -0.001987 0.048676 0.000000 0.015167 0.000000
# 4 0.000000 0.000000 0.000000 0.030016 0.000000 0.001265
# 5 0.003462 0.001679 0.015167 0.000000 0.024686 0.000000
# 6 0.000000 0.000000 0.000000 0.001265 0.000000 0.033048
#
#
# Mechanical properties :
#
#
# Convention : Reuss Voigt Hill
#
# Bulk Modulus (GPa) = 14.73632 35.30515 25.02073
# Shear Modulus (GPa) = 27.60732 37.57689 32.59210
#
# Velocity S-wave (km/s) = 3.39901 3.96552 3.69315
# Velocity P-wave (km/s) = 4.64449 5.97845 5.35318
#
# Compressibility (1/GPa) = 0.06785956
#
# Stress axis : x y z
#
# Youngs Moduli (GPa) = 87.51759 108.70992 20.54421
#
# Poissons Ratio (x) = 0.27283 -0.07757
# Poissons Ratio (y) = 0.21965 0.04082
# Poissons Ratio (z) = -0.33046 0.21598
#
# Static dielectric constant tensor:
#      x y z
#    x 1.935220 0.000000 0.012200 
#    y 0.000000 1.893870 0.000000 
#    z 0.012200 0.000000 2.061680 
# 
# From -- ./inp_files/211395.got.cif
#   From: 2010.05.17/outbox.cif.g08.bks.cpg/sg15_106_cif.got.tgz:211395.got - 2010.06.03 18:47:42.
