data_PCOD9299816
_publ_section_title
;
Structure prediction by ZEFSAII (Michael W. Deem and Ramdas Pophale) SiO2 
 PCOD9299816
Probable space group: C 2/C
;
_chemical_formula_sum "Si O2"
_cell_formula_units_Z 60
_cell_length_a 19.737364
_cell_length_b 9.377015
_cell_length_c 21.736571
_cell_angle_alpha 90.000000
_cell_angle_beta 139.935023
_cell_angle_gamma 90.000000
_cell_volume 2589.396614
_symmetry_space_group_name_H-M "C 2/C"
_symmetry_group_IT_number 15
_symmetry_cell_setting 'monoclinic'
loop_
_space_group_symop_operation_xyz
x,y,z
-x,y,1/2-z
-x,-y,-z
x,-y,1/2+z
1/2+x,1/2+y,z
1/2-x,1/2+y,1/2-z
1/2-x,1/2-y,-z
1/2+x,1/2-y,1/2+z
loop_
_atom_site_type_symbol
_atom_site_label
_atom_site_fract_x
_atom_site_fract_y
_atom_site_fract_z
Si Si1 0.699822 0.678308 0.703851
Si Si2 0.500000 0.048958 0.750000
Si Si3 0.098718 0.805812 0.895240
Si Si4 0.359127 0.945371 0.758711
Si Si5 0.271751 0.845627 0.916861
Si Si6 0.005597 0.169186 0.010553
Si Si7 0.604914 0.595340 0.202034
Si Si8 0.943178 0.576611 0.018136
O O1 0.706447 0.810684 0.757170
O O2 0.791942 0.579930 0.737457
O O3 0.640199 0.557216 0.703082
O O4 0.797706 0.836589 0.693768
O O5 0.554270 0.156676 0.836991
O O6 0.402834 0.968546 0.718622
O O7 0.156318 0.776039 0.000356
O O8 0.999357 0.909148 0.829875
O O9 0.183423 0.864714 0.907453
O O10 0.471433 0.932058 0.869726
O O11 0.388270 0.719911 0.909388
O O12 0.340947 0.986566 0.960032
O O13 0.060212 0.190594 0.114423
O O14 0.076204 0.259453 0.012697
O O15 0.000000 0.000000 0.000000
O O16 0.000000 0.500000 0.000000
#
# Coordination Sequence:
#
# PCOD9299816 Si02
#       8
#     8   4   8   8   8   8   8   8
#     4  10  25  46  75 106 145 193 244 297 365 425
#     4  12  24  46  70 102 160 180 238 300 374 422
#     4  11  24  42  69 105 140 187 239 292 359 440
#     4  11  26  45  73 110 146 193 241 302 364 438
#     4  11  23  40  66 104 140 185 238 293 358 425
#     4   9  22  42  66  98 146 180 227 298 357 414
#     4  11  22  43  71 103 140 182 245 298 348 423
#     4  11  22  39  67 105 140 179 244 303 347 420
#
# _framework density 23.171420000000001
#
# number of rings (size 3 to 8) (size 9 to 14) (size 15 to 20)
#    0.000    1.333    2.667    1.600    1.867    8.533 
#    2.400    4.000    0.000    3.200    0.000    0.000 
#    0.000    0.000    0.000    0.000    0.000    0.000 
#
# Total GULP energy -167357.040523 kJ/mol
# GULP energy per Si atom -5578.568017 kJ/mol
# Density = 2.311868 g / cm^3
# Si number density = 23.171420 Si / 1000 Ang^3
#
#
#
# Elastic Constant Matrix: (Units=GPa)
#
#
# Indices 1 2 3 4 5 6 
#
# 1 87.4374 45.4928 35.0868 0.0000 9.1520 0.0000
# 2 45.4928 124.1481 32.1715 0.0000 13.9229 0.0000
# 3 35.0868 32.1715 146.1971 0.0000 5.5788 0.0000
# 4 0.0000 0.0000 0.0000 31.2270 0.0000 12.3464
# 5 9.1520 13.9229 5.5788 0.0000 53.4616 0.0000
# 6 0.0000 0.0000 0.0000 12.3464 0.0000 37.5239
#
#
#
# Elastic Compliance Matrix: (Units=1/GPa)
#
#
# Indices 1 2 3 4 5 6 
#
# 1 0.015023 -0.004730 -0.002523 0.000000 -0.001077 0.000000
# 2 -0.004730 0.010258 -0.001055 0.000000 -0.001752 0.000000
# 3 -0.002523 -0.001055 0.007682 0.000000 -0.000095 0.000000
# 4 0.000000 0.000000 0.000000 0.036813 0.000000 -0.012112
# 5 -0.001077 -0.001752 -0.000095 0.000000 0.019355 0.000000
# 6 0.000000 0.000000 0.000000 -0.012112 0.000000 0.030635
#
#
# Mechanical properties :
#
#
# Convention : Reuss Voigt Hill
#
# Bulk Modulus (GPa) = 61.18216 64.80943 62.99580
# Shear Modulus (GPa) = 35.25284 40.77793 38.01538
#
# Velocity S-wave (km/s) = 3.90474 4.19959 4.05484
# Velocity P-wave (km/s) = 6.84038 7.17953 7.01201
#
# Compressibility (1/GPa) = 0.01634463
#
# Stress axis : x y z
#
# Youngs Moduli (GPa) = 66.56346 97.48285 130.18233
#
# Poissons Ratio (x) = 0.46114 0.32851
# Poissons Ratio (y) = 0.31488 0.13737
# Poissons Ratio (z) = 0.16797 0.10287
#
# Static dielectric constant tensor:
#      x y z
#    x 2.265320 0.000000 -0.206110 
#    y 0.000000 1.937580 0.000000 
#    z -0.206110 0.000000 2.088170 
# 
# From -- ./inp_files/317280.got.cif
#   From: 2010.05.17/outbox.cif.g08.bks.cpg/sg15_159_cif.got.tgz:317280.got - 2010.06.03 18:47:42.
