data_PCOD9299039
_publ_section_title
;
Structure prediction by ZEFSAII (Michael W. Deem and Ramdas Pophale) SiO2 
 PCOD9299039
Probable space group: C 2/C
;
_chemical_formula_sum "Si O2"
_cell_formula_units_Z 36
_cell_length_a 5.211863
_cell_length_b 28.433205
_cell_length_c 12.444727
_cell_angle_alpha 90.000000
_cell_angle_beta 55.556934
_cell_angle_gamma 90.000000
_cell_volume 1520.877303
_symmetry_space_group_name_H-M "C 2/C"
_symmetry_group_IT_number 15
_symmetry_cell_setting 'monoclinic'
loop_
_space_group_symop_operation_xyz
x,y,z
-x,y,1/2-z
-x,-y,-z
x,-y,1/2+z
1/2+x,1/2+y,z
1/2-x,1/2+y,1/2-z
1/2-x,1/2-y,-z
1/2+x,1/2-y,1/2+z
loop_
_atom_site_type_symbol
_atom_site_label
_atom_site_fract_x
_atom_site_fract_y
_atom_site_fract_z
Si Si1 0.269345 0.305929 0.992410
Si Si2 0.000000 0.642944 0.750000
Si Si3 0.004755 0.928185 0.427589
Si Si4 0.081984 0.644117 0.108451
Si Si5 0.332756 0.526241 0.397709
O O1 0.029345 0.326059 0.137188
O O2 0.250000 0.250000 0.000000
O O3 0.605211 0.324372 0.952752
O O4 0.169452 0.327327 0.901173
O O5 0.292277 0.608362 0.685749
O O6 0.126486 0.935201 0.519836
O O7 0.670423 0.903954 0.524842
O O8 0.042544 0.979597 0.370014
O O9 0.000000 0.632533 0.250000
O O10 0.500000 0.544919 0.250000
O O11 0.000000 0.500000 0.500000
#
# Coordination Sequence:
#
# PCOD9299039 Si02
#       5
#     8   4   8   8   8
#     4  11  26  47  73 108 138 192 237 311 378 446
#     4  10  24  46  74  98 146 184 248 302 376 452
#     4  10  25  42  64 107 134 191 243 297 371 435
#     4  11  26  44  74 102 146 185 240 302 364 455
#     4  11  25  41  71  97 148 190 248 312 364 452
#
# _framework density 23.670548
#
# number of rings (size 3 to 8) (size 9 to 14) (size 15 to 20)
#    0.000    1.333    0.000    2.667   15.556    4.444 
#    0.000    0.000    0.000    0.000    0.000    0.000 
#    0.000    0.000    0.000    0.000    0.000    0.000 
#
# Total GULP energy -100592.988553 kJ/mol
# GULP energy per Si atom -5588.499364 kJ/mol
# Density = 2.361667 g / cm^3
# Si number density = 23.670548 Si / 1000 Ang^3
#
#
#
# Elastic Constant Matrix: (Units=GPa)
#
#
# Indices 1 2 3 4 5 6 
#
# 1 83.2383 4.1512 1.9805 0.0000 14.6292 0.0000
# 2 4.1512 98.5001 3.7869 0.0000 6.4526 0.0000
# 3 1.9805 3.7869 118.7662 0.0000 -2.5569 0.0000
# 4 0.0000 0.0000 0.0000 24.8184 0.0000 12.8747
# 5 14.6292 6.4526 -2.5569 0.0000 32.5681 0.0000
# 6 0.0000 0.0000 0.0000 12.8747 0.0000 28.0772
#
#
#
# Elastic Compliance Matrix: (Units=1/GPa)
#
#
# Indices 1 2 3 4 5 6 
#
# 1 0.013060 -0.000153 -0.000339 0.000000 -0.005863 0.000000
# 2 -0.000153 0.010304 -0.000369 0.000000 -0.002002 0.000000
# 3 -0.000339 -0.000369 0.008456 0.000000 0.000889 0.000000
# 4 0.000000 0.000000 0.000000 0.052869 0.000000 -0.024243
# 5 -0.005863 -0.002002 0.000889 0.000000 0.033805 0.000000
# 6 0.000000 0.000000 0.000000 -0.024243 0.000000 0.046733
#
#
# Mechanical properties :
#
#
# Convention : Reuss Voigt Hill
#
# Bulk Modulus (GPa) = 33.22557 35.59351 34.40954
# Shear Modulus (GPa) = 28.25149 36.46515 32.35832
#
# Velocity S-wave (km/s) = 3.45850 3.92921 3.70135
# Velocity P-wave (km/s) = 5.47863 5.97115 5.73019
#
# Compressibility (1/GPa) = 0.03009731
#
# Stress axis : x y z
#
# Youngs Moduli (GPa) = 76.57101 97.04926 118.25259
#
# Poissons Ratio (x) = 0.01488 0.04010
# Poissons Ratio (y) = 0.01174 0.04365
# Poissons Ratio (z) = 0.02597 0.03582
#
# Static dielectric constant tensor:
#      x y z
#    x 1.921300 0.000000 -0.024400 
#    y 0.000000 1.886210 0.000000 
#    z -0.024400 0.000000 1.964300 
# 
# From -- ./inp_files/73554.got.cif
#   From: 2010.05.17/outbox.cif.g08.bks.cpg/sg15_37_cif.got.tgz:73554.got - 2010.06.03 18:47:42.
