data_PCOD9299369
_publ_section_title
;
Structure prediction by ZEFSAII (Michael W. Deem and Ramdas Pophale) SiO2 
 PCOD9299369
Probable space group: C 2/C
;
_chemical_formula_sum "Si O2"
_cell_formula_units_Z 32
_cell_length_a 16.675163
_cell_length_b 7.090355
_cell_length_c 10.060554
_cell_angle_alpha 90.000000
_cell_angle_beta 103.371510
_cell_angle_gamma 90.000000
_cell_volume 1157.241893
_symmetry_space_group_name_H-M "C 2/C"
_symmetry_group_IT_number 15
_symmetry_cell_setting 'monoclinic'
loop_
_space_group_symop_operation_xyz
x,y,z
-x,y,1/2-z
-x,-y,-z
x,-y,1/2+z
1/2+x,1/2+y,z
1/2-x,1/2+y,1/2-z
1/2-x,1/2-y,-z
1/2+x,1/2-y,1/2+z
loop_
_atom_site_type_symbol
_atom_site_label
_atom_site_fract_x
_atom_site_fract_y
_atom_site_fract_z
Si Si1 0.650827 0.288635 0.006875
Si Si2 0.834311 0.369108 0.527014
Si Si3 0.972081 0.741654 0.880665
Si Si4 0.881152 0.081660 0.742052
O O1 0.679445 0.373064 0.158295
O O2 0.687204 0.089366 0.976617
O O3 0.554489 0.228454 0.997998
O O4 0.645565 0.433339 0.882698
O O5 0.750000 0.250000 0.500000
O O6 0.889671 0.333275 0.417267
O O7 0.888822 0.277557 0.666276
O O8 0.000000 0.656448 0.750000
O O9 0.952188 0.961057 0.841869
#
# Coordination Sequence:
#
# PCOD9299369 Si02
#       4
#     8   8   8   8
#     4  11  26  48  83 117 161 218 282 351 411 496
#     4  12  29  49  77 121 168 221 278 344 424 500
#     4  10  24  49  76 115 162 216 277 345 409 491
#     4  11  25  48  81 117 167 210 285 336 420 491
#
# _framework density 27.651952999999999
#
# number of rings (size 3 to 8) (size 9 to 14) (size 15 to 20)
#    0.000    1.000    2.500    1.500   14.000    3.000 
#    0.000    0.000    0.000    0.000    0.000    0.000 
#    0.000    0.000    0.000    0.000    0.000    0.000 
#
# Total GULP energy -89496.591935 kJ/mol
# GULP energy per Si atom -5593.536996 kJ/mol
# Density = 2.758902 g / cm^3
# Si number density = 27.651953 Si / 1000 Ang^3
#
#
#
# Elastic Constant Matrix: (Units=GPa)
#
#
# Indices 1 2 3 4 5 6 
#
# 1 120.9266 10.9607 37.1111 0.0000 -35.6395 0.0000
# 2 10.9607 195.3347 72.4497 0.0000 -20.6426 0.0000
# 3 37.1111 72.4497 170.3143 0.0000 -52.8517 0.0000
# 4 0.0000 0.0000 0.0000 32.3279 0.0000 -4.3573
# 5 -35.6395 -20.6426 -52.8517 0.0000 59.8776 0.0000
# 6 0.0000 0.0000 0.0000 -4.3573 0.0000 36.3012
#
#
#
# Elastic Compliance Matrix: (Units=1/GPa)
#
#
# Indices 1 2 3 4 5 6 
#
# 1 0.010064 0.000233 -0.000562 0.000000 0.005574 0.000000
# 2 0.000233 0.006087 -0.002680 0.000000 -0.000128 0.000000
# 3 -0.000562 -0.002680 0.009287 0.000000 0.006939 0.000000
# 4 0.000000 0.000000 0.000000 0.031442 0.000000 0.003774
# 5 0.005574 -0.000128 0.006939 0.000000 0.026099 0.000000
# 6 0.000000 0.000000 0.000000 0.003774 0.000000 0.028000
#
#
# Mechanical properties :
#
#
# Convention : Reuss Voigt Hill
#
# Bulk Modulus (GPa) = 51.49481 80.84651 66.17066
# Shear Modulus (GPa) = 40.49562 50.10492 45.30027
#
# Velocity S-wave (km/s) = 3.83100 4.26136 4.05190
# Velocity P-wave (km/s) = 6.18317 7.31525 6.77291
#
# Compressibility (1/GPa) = 0.01941943
#
# Stress axis : x y z
#
# Youngs Moduli (GPa) = 99.36724 164.29197 107.67418
#
# Poissons Ratio (x) = -0.03826 0.06053
# Poissons Ratio (y) = -0.02314 0.28855
# Poissons Ratio (z) = 0.05586 0.44027
#
# Static dielectric constant tensor:
#      x y z
#    x 2.449450 0.000000 0.045900 
#    y 0.000000 2.151410 0.000000 
#    z 0.045900 0.000000 2.215120 
# 
# From -- ./inp_files/53466.got.cif
#   From: 2010.05.17/outbox.cif.g08.bks.cpg/sg15_27_cif.got.tgz:53466.got - 2010.06.03 18:47:42.
