data_PCOD9299607
_publ_section_title
;
Structure prediction by ZEFSAII (Michael W. Deem and Ramdas Pophale) SiO2 
 PCOD9299607
Probable space group: C 2/C
;
_chemical_formula_sum "Si O2"
_cell_formula_units_Z 44
_cell_length_a 12.217208
_cell_length_b 7.301658
_cell_length_c 27.978721
_cell_angle_alpha 90.000000
_cell_angle_beta 49.153298
_cell_angle_gamma 90.000000
_cell_volume 1888.028490
_symmetry_space_group_name_H-M "C 2/C"
_symmetry_group_IT_number 15
_symmetry_cell_setting 'monoclinic'
loop_
_space_group_symop_operation_xyz
x,y,z
-x,y,1/2-z
-x,-y,-z
x,-y,1/2+z
1/2+x,1/2+y,z
1/2-x,1/2+y,1/2-z
1/2-x,1/2-y,-z
1/2+x,1/2-y,1/2+z
loop_
_atom_site_type_symbol
_atom_site_label
_atom_site_fract_x
_atom_site_fract_y
_atom_site_fract_z
Si Si1 0.072792 0.195910 0.990340
Si Si2 0.952227 0.179944 0.690713
Si Si3 0.000000 0.892772 0.750000
Si Si4 0.584840 0.201072 0.056636
Si Si5 0.907921 0.294944 0.407684
Si Si6 0.371483 0.099442 0.731595
O O1 0.244307 0.239579 0.937358
O O2 0.996620 0.312518 0.970527
O O3 0.050581 0.207041 0.053727
O O4 0.000000 0.000000 0.000000
O O5 0.934369 0.391249 0.715062
O O6 0.009376 0.179372 0.619884
O O7 0.045211 0.041979 0.696693
O O8 0.792313 0.093497 0.738727
O O9 0.875323 0.739106 0.775547
O O10 0.592115 0.006619 0.078936
O O11 0.750000 0.250000 0.000000
O O12 0.029680 0.284188 0.333015
#
# Coordination Sequence:
#
# PCOD9299607 Si02
#       6
#     8   8   4   8   8   8
#     4  11  23  41  69 100 137 183 227 286 352 420
#     4  11  26  47  73 108 142 192 244 290 366 433
#     4  12  26  46  74 100 146 190 230 312 356 424
#     4  11  24  46  69 102 143 183 232 293 355 427
#     4  10  25  44  67 103 138 183 237 287 355 429
#     4  11  25  47  70 105 143 185 245 295 356 431
#
# _framework density 23.304732999999999
#
# number of rings (size 3 to 8) (size 9 to 14) (size 15 to 20)
#    0.000    1.091    3.636    1.091    5.091    1.455 
#    0.000    0.000    0.000    0.000    0.000    0.000 
#    0.000    0.000    0.000    0.000    0.000    0.000 
#
# Total GULP energy -122654.180663 kJ/mol
# GULP energy per Si atom -5575.190030 kJ/mol
# Density = 2.325169 g / cm^3
# Si number density = 23.304733 Si / 1000 Ang^3
#
#
#
# Elastic Constant Matrix: (Units=GPa)
#
#
# Indices 1 2 3 4 5 6 
#
# 1 97.8205 4.4034 45.4086 0.0001 21.5208 0.0000
# 2 4.4034 98.0355 43.0470 -0.0002 11.0525 0.0002
# 3 45.4086 43.0470 105.5934 0.0001 -0.4468 0.0000
# 4 0.0001 -0.0002 0.0001 35.1086 0.0000 10.3438
# 5 21.5208 11.0525 -0.4468 0.0000 21.0664 0.0001
# 6 0.0000 0.0002 0.0000 10.3438 0.0001 31.6261
#
#
#
# Elastic Compliance Matrix: (Units=1/GPa)
#
#
# Indices 1 2 3 4 5 6 
#
# 1 0.021252 0.007329 -0.012236 0.000000 -0.025816 0.000000
# 2 0.007329 0.015951 -0.009722 0.000000 -0.016062 0.000000
# 3 -0.012236 -0.009722 0.018772 0.000000 0.017999 0.000000
# 4 0.000000 0.000000 0.000000 0.031520 0.000000 -0.010309
# 5 -0.025816 -0.016062 0.017999 0.000000 0.082650 0.000000
# 6 0.000000 0.000000 0.000000 -0.010309 0.000000 0.034991
#
#
# Mechanical properties :
#
#
# Convention : Reuss Voigt Hill
#
# Bulk Modulus (GPa) = 37.43090 54.12972 45.78031
# Shear Modulus (GPa) = 20.55059 31.46622 26.00841
#
# Velocity S-wave (km/s) = 2.97277 3.67850 3.34430
# Velocity P-wave (km/s) = 5.28010 6.42800 5.88212
#
# Compressibility (1/GPa) = 0.02671589
#
# Stress axis : x y z
#
# Youngs Moduli (GPa) = 47.05330 62.69189 53.27112
#
# Poissons Ratio (x) = -0.45945 0.65184
# Poissons Ratio (y) = -0.34484 0.51792
# Poissons Ratio (z) = 0.57575 0.60951
#
# Static dielectric constant tensor:
#      x y z
#    x 2.041920 0.000000 0.264200 
#    y 0.000000 1.961400 0.000000 
#    z 0.264200 0.000000 2.348850 
# 
# From -- ./inp_files/267969.got.cif
#   From: 2010.05.17/outbox.cif.g08.bks.cpg/sg15_134_cif.got.tgz:267969.got - 2010.06.03 18:47:42.
