data_PCOD9299341
_publ_section_title
;
Structure prediction by ZEFSAII (Michael W. Deem and Ramdas Pophale) SiO2 
 PCOD9299341
Probable space group: C 2/C
;
_chemical_formula_sum "Si O2"
_cell_formula_units_Z 40
_cell_length_a 7.933330
_cell_length_b 13.182988
_cell_length_c 13.045439
_cell_angle_alpha 90.000000
_cell_angle_beta 86.245863
_cell_angle_gamma 90.000000
_cell_volume 1361.429522
_symmetry_space_group_name_H-M "C 2/C"
_symmetry_group_IT_number 15
_symmetry_cell_setting 'monoclinic'
loop_
_space_group_symop_operation_xyz
x,y,z
-x,y,1/2-z
-x,-y,-z
x,-y,1/2+z
1/2+x,1/2+y,z
1/2-x,1/2+y,1/2-z
1/2-x,1/2-y,-z
1/2+x,1/2-y,1/2+z
loop_
_atom_site_type_symbol
_atom_site_label
_atom_site_fract_x
_atom_site_fract_y
_atom_site_fract_z
Si Si1 0.929401 0.196358 0.108609
Si Si2 0.721157 0.127055 0.756592
Si Si3 0.891710 0.732802 0.083982
Si Si4 0.878634 0.448550 0.888824
Si Si5 0.649907 0.515307 0.078038
O O1 0.898941 0.299811 0.170691
O O2 0.051266 0.225044 0.512042
O O3 0.768361 0.128641 0.137055
O O4 0.908662 0.124313 0.372815
O O5 0.832492 0.198800 0.679384
O O6 0.636657 0.043887 0.685157
O O7 0.833977 0.062691 0.830793
O O8 0.750000 0.750000 0.000000
O O9 0.955107 0.622280 0.118102
O O10 0.814010 0.491310 0.001001
O O11 0.500000 0.500000 0.000000
#
# Coordination Sequence:
#
# PCOD9299341 Si02
#       5
#     8   8   8   8   8
#     4  11  26  54  87 132 183 247 328 396 477 579
#     4  12  28  53  96 133 196 258 311 411 494 560
#     4  12  29  53  87 136 191 252 322 402 483 581
#     4  11  26  52  90 135 184 248 335 394 483 590
#     4  10  24  48  91 137 182 249 333 404 478 586
#
# _framework density 29.380880999999999
#
# number of rings (size 3 to 8) (size 9 to 14) (size 15 to 20)
#    0.000    0.800    4.000    0.600    2.800   12.000 
#    0.000    4.000    0.000    2.400    0.000    0.000 
#    0.000    0.000    0.000    0.000    0.000    0.000 
#
# Total GULP energy -112250.097433 kJ/mol
# GULP energy per Si atom -5612.504872 kJ/mol
# Density = 2.931401 g / cm^3
# Si number density = 29.380881 Si / 1000 Ang^3
#
#
#
# Elastic Constant Matrix: (Units=GPa)
#
#
# Indices 1 2 3 4 5 6 
#
# 1 169.8828 118.4292 79.5717 0.0000 -10.6404 0.0000
# 2 118.4292 307.3727 153.7079 0.0000 11.4007 0.0000
# 3 79.5717 153.7079 244.5534 0.0000 -19.2525 0.0000
# 4 0.0000 0.0000 0.0000 87.9960 0.0000 0.4724
# 5 -10.6404 11.4007 -19.2525 0.0000 45.3200 0.0000
# 6 0.0000 0.0000 0.0000 0.4724 0.0000 95.2007
#
#
#
# Elastic Compliance Matrix: (Units=1/GPa)
#
#
# Indices 1 2 3 4 5 6 
#
# 1 0.008454 -0.003019 -0.000659 0.000000 0.002464 0.000000
# 2 -0.003019 0.006125 -0.003150 0.000000 -0.003588 0.000000
# 3 -0.000659 -0.003150 0.006553 0.000000 0.003421 0.000000
# 4 0.000000 0.000000 0.000000 0.011364 0.000000 -0.000056
# 5 0.002464 -0.003588 0.003421 0.000000 0.025000 0.000000
# 6 0.000000 0.000000 0.000000 -0.000056 0.000000 0.010504
#
#
# Mechanical properties :
#
#
# Convention : Reuss Voigt Hill
#
# Bulk Modulus (GPa) = 133.76889 158.35852 146.06370
# Shear Modulus (GPa) = 59.41918 70.37668 64.89793
#
# Velocity S-wave (km/s) = 4.50196 4.89951 4.70494
# Velocity P-wave (km/s) = 8.52359 9.27483 8.90713
#
# Compressibility (1/GPa) = 0.00747558
#
# Stress axis : x y z
#
# Youngs Moduli (GPa) = 118.28388 163.27208 152.61300
#
# Poissons Ratio (x) = 0.49294 0.10060
# Poissons Ratio (y) = 0.35712 0.48067
# Poissons Ratio (z) = 0.07797 0.51425
#
# Static dielectric constant tensor:
#      x y z
#    x 2.559920 0.000000 0.027930 
#    y 0.000000 2.299990 0.000000 
#    z 0.027930 0.000000 2.231950 
# 
# From -- ./inp_files/94609.got.cif
#   From: 2010.05.17/outbox.cif.g08.bks.cpg/sg15_48_cif.got.tgz:94609.got - 2010.06.03 18:47:42.
