data_PCOD9299933
_publ_section_title
;
Structure prediction by ZEFSAII (Michael W. Deem and Ramdas Pophale) SiO2 
 PCOD9299933
Probable space group: C 2/C
;
_chemical_formula_sum "Si O2"
_cell_formula_units_Z 32
_cell_length_a 18.586497
_cell_length_b 13.719554
_cell_length_c 11.236214
_cell_angle_alpha 90.000000
_cell_angle_beta 153.686967
_cell_angle_gamma 90.000000
_cell_volume 1270.079423
_symmetry_space_group_name_H-M "C 2/C"
_symmetry_group_IT_number 15
_symmetry_cell_setting 'monoclinic'
loop_
_space_group_symop_operation_xyz
x,y,z
-x,y,1/2-z
-x,-y,-z
x,-y,1/2+z
1/2+x,1/2+y,z
1/2-x,1/2+y,1/2-z
1/2-x,1/2-y,-z
1/2+x,1/2-y,1/2+z
loop_
_atom_site_type_symbol
_atom_site_label
_atom_site_fract_x
_atom_site_fract_y
_atom_site_fract_z
Si Si1 0.046258 0.071969 0.463114
Si Si2 0.319536 0.962777 0.219365
Si Si3 0.998380 0.289006 0.107555
Si Si4 0.691361 0.665095 0.002109
O O1 0.237606 0.057418 0.724805
O O2 0.000000 0.066784 0.250000
O O3 0.991818 0.178450 0.423079
O O4 0.000000 0.000000 0.500000
O O5 0.352474 0.857605 0.210246
O O6 0.500000 0.000000 0.500000
O O7 0.229245 0.053031 0.019052
O O8 0.000000 0.287844 0.250000
O O9 0.819748 0.324650 0.800490
O O10 0.500000 0.673788 0.750000
O O11 0.750000 0.750000 0.000000
#
# Coordination Sequence:
#
# PCOD9299933 Si02
#       4
#     8   8   8   8
#     4  11  27  48  81 117 163 219 280 347 416 498
#     4  10  25  48  77 119 163 215 274 345 416 494
#     4  10  26  50  81 119 168 217 280 341 423 494
#     4  11  27  49  79 117 160 212 271 339 414 494
#
# _framework density 25.195274999999999
#
# number of rings (size 3 to 8) (size 9 to 14) (size 15 to 20)
#    0.000    1.500    0.000    0.750   14.000   11.000 
#    0.000    1.250    0.000    0.000    0.000    0.000 
#    0.000    0.000    0.000    0.000    0.000    0.000 
#
# Total GULP energy -89294.565018 kJ/mol
# GULP energy per Si atom -5580.910314 kJ/mol
# Density = 2.513793 g / cm^3
# Si number density = 25.195275 Si / 1000 Ang^3
#
#
#
# Elastic Constant Matrix: (Units=GPa)
#
#
# Indices 1 2 3 4 5 6 
#
# 1 161.4075 121.5781 64.4397 0.0000 33.0879 0.0000
# 2 121.5781 273.8049 51.5123 0.0000 27.5979 0.0000
# 3 64.4397 51.5123 162.9583 0.0000 10.2473 0.0000
# 4 0.0000 0.0000 0.0000 34.3839 0.0000 11.0386
# 5 33.0879 27.5979 10.2473 0.0000 59.4794 0.0000
# 6 0.0000 0.0000 0.0000 11.0386 0.0000 50.6642
#
#
#
# Elastic Compliance Matrix: (Units=1/GPa)
#
#
# Indices 1 2 3 4 5 6 
#
# 1 0.011180 -0.004030 -0.002905 0.000000 -0.003849 0.000000
# 2 -0.004030 0.005494 -0.000125 0.000000 -0.000286 0.000000
# 3 -0.002905 -0.000125 0.007299 0.000000 0.000417 0.000000
# 4 0.000000 0.000000 0.000000 0.031271 0.000000 -0.006813
# 5 -0.003849 -0.000286 0.000417 0.000000 0.019015 0.000000
# 6 0.000000 0.000000 0.000000 -0.006813 0.000000 0.021222
#
#
# Mechanical properties :
#
#
# Convention : Reuss Voigt Hill
#
# Bulk Modulus (GPa) = 101.49748 119.24790 110.37269
# Shear Modulus (GPa) = 44.29354 52.94820 48.62087
#
# Velocity S-wave (km/s) = 4.19741 4.58920 4.39767
# Velocity P-wave (km/s) = 7.99142 8.68983 8.34793
#
# Compressibility (1/GPa) = 0.00985246
#
# Stress axis : x y z
#
# Youngs Moduli (GPa) = 89.44928 182.02078 137.01149
#
# Poissons Ratio (x) = 0.73347 0.39802
# Poissons Ratio (y) = 0.36044 0.01716
# Poissons Ratio (z) = 0.25985 0.02279
#
# Static dielectric constant tensor:
#      x y z
#    x 2.064920 0.000000 0.114640 
#    y 0.000000 2.240360 0.000000 
#    z 0.114640 0.000000 2.389860 
# 
# From -- ./inp_files/105846.got.cif
#   From: 2010.05.17/outbox.cif.g08.bks.cpg/sg15_53_cif.got.tgz:105846.got - 2010.06.03 18:47:42.
