data_PCOD9299614
_publ_section_title
;
Structure prediction by ZEFSAII (Michael W. Deem and Ramdas Pophale) SiO2 
 PCOD9299614
Probable space group: C 2/C
;
_chemical_formula_sum "Si O2"
_cell_formula_units_Z 40
_cell_length_a 23.529415
_cell_length_b 9.417444
_cell_length_c 9.791013
_cell_angle_alpha 90.000000
_cell_angle_beta 68.410592
_cell_angle_gamma 90.000000
_cell_volume 2017.354126
_symmetry_space_group_name_H-M "C 2/C"
_symmetry_group_IT_number 15
_symmetry_cell_setting 'monoclinic'
loop_
_space_group_symop_operation_xyz
x,y,z
-x,y,1/2-z
-x,-y,-z
x,-y,1/2+z
1/2+x,1/2+y,z
1/2-x,1/2+y,1/2-z
1/2-x,1/2-y,-z
1/2+x,1/2-y,1/2+z
loop_
_atom_site_type_symbol
_atom_site_label
_atom_site_fract_x
_atom_site_fract_y
_atom_site_fract_z
Si Si1 0.742653 0.387812 0.107307
Si Si2 0.137000 0.721522 0.894499
Si Si3 0.544217 0.975053 0.585592
Si Si4 0.173126 0.960109 0.439448
Si Si5 0.426536 0.264316 0.839117
O O1 0.807421 0.387642 0.128955
O O2 0.696773 0.383786 0.279108
O O3 0.750000 0.250000 0.000000
O O4 0.721557 0.514985 0.023055
O O5 0.106386 0.727129 0.773803
O O6 0.157726 0.879767 0.908895
O O7 0.084954 0.663072 0.039161
O O8 0.500000 0.962694 0.750000
O O9 0.500000 0.000000 0.500000
O O10 0.580881 0.121052 0.567288
O O11 0.112516 0.886721 0.553674
O O12 0.500000 0.291414 0.750000
#
# Coordination Sequence:
#
# PCOD9299614 Si02
#       5
#     8   8   8   8   8
#     4  10  25  44  68 103 135 179 227 280 351 405
#     4  11  24  45  68 100 140 179 229 286 347 410
#     4  11  23  42  65  98 138 180 229 273 343 416
#     4  11  24  47  72 102 138 177 238 288 344 408
#     4  11  24  45  71 103 139 183 231 284 345 410
#
# _framework density 19.827950999999999
#
# number of rings (size 3 to 8) (size 9 to 14) (size 15 to 20)
#    0.000    1.200    6.000    0.000    2.800    8.800 
#    0.000    0.000    0.000    0.000    0.000    0.000 
#    0.000    0.000    0.000    0.000    0.000    0.000 
#
# Total GULP energy -111344.785622 kJ/mol
# GULP energy per Si atom -5567.239281 kJ/mol
# Density = 1.978282 g / cm^3
# Si number density = 19.827951 Si / 1000 Ang^3
#
#
#
# Elastic Constant Matrix: (Units=GPa)
#
#
# Indices 1 2 3 4 5 6 
#
# 1 112.6459 30.1994 56.8394 0.0000 17.5865 0.0000
# 2 30.1994 54.7601 30.2373 0.0000 -4.7350 0.0000
# 3 56.8394 30.2373 119.4957 0.0000 5.6024 0.0000
# 4 0.0000 0.0000 0.0000 30.1395 0.0000 -6.3456
# 5 17.5865 -4.7350 5.6024 0.0000 40.3231 0.0000
# 6 0.0000 0.0000 0.0000 -6.3456 0.0000 17.9906
#
#
#
# Elastic Compliance Matrix: (Units=1/GPa)
#
#
# Indices 1 2 3 4 5 6 
#
# 1 0.013708 -0.005377 -0.004882 0.000000 -0.005932 0.000000
# 2 -0.005377 0.023771 -0.003722 0.000000 0.005654 0.000000
# 3 -0.004882 -0.003722 0.011629 0.000000 0.000076 0.000000
# 4 0.000000 0.000000 0.000000 0.035841 0.000000 0.012642
# 5 -0.005932 0.005654 0.000076 0.000000 0.028040 0.000000
# 6 0.000000 0.000000 0.000000 0.012642 0.000000 0.060044
#
#
# Mechanical properties :
#
#
# Convention : Reuss Voigt Hill
#
# Bulk Modulus (GPa) = 47.29106 57.93933 52.61519
# Shear Modulus (GPa) = 24.03332 28.99899 26.51615
#
# Velocity S-wave (km/s) = 3.48529 3.82845 3.66089
# Velocity P-wave (km/s) = 6.33236 6.98765 6.66806
#
# Compressibility (1/GPa) = 0.02114565
#
# Stress axis : x y z
#
# Youngs Moduli (GPa) = 72.94839 42.06754 85.99273
#
# Poissons Ratio (x) = 0.22621 0.41979
# Poissons Ratio (y) = 0.39226 0.32010
# Poissons Ratio (z) = 0.35611 0.15659
#
# Static dielectric constant tensor:
#      x y z
#    x 1.785800 0.000000 0.050260 
#    y 0.000000 1.699630 0.000000 
#    z 0.050260 0.000000 1.733020 
# 
# From -- ./inp_files/59888.got.cif
#   From: 2010.05.17/outbox.cif.g08.bks.cpg/sg15_30_cif.got.tgz:59888.got - 2010.06.03 18:47:42.
