data_PCOD9299157
_publ_section_title
;
Structure prediction by ZEFSAII (Michael W. Deem and Ramdas Pophale) SiO2 
 PCOD9299157
Probable space group: C 2/C
;
_chemical_formula_sum "Si O2"
_cell_formula_units_Z 36
_cell_length_a 9.987795
_cell_length_b 15.780635
_cell_length_c 10.866586
_cell_angle_alpha 90.000000
_cell_angle_beta 127.331576
_cell_angle_gamma 90.000000
_cell_volume 1361.853804
_symmetry_space_group_name_H-M "C 2/C"
_symmetry_group_IT_number 15
_symmetry_cell_setting 'monoclinic'
loop_
_space_group_symop_operation_xyz
x,y,z
-x,y,1/2-z
-x,-y,-z
x,-y,1/2+z
1/2+x,1/2+y,z
1/2-x,1/2+y,1/2-z
1/2-x,1/2-y,-z
1/2+x,1/2-y,1/2+z
loop_
_atom_site_type_symbol
_atom_site_label
_atom_site_fract_x
_atom_site_fract_y
_atom_site_fract_z
Si Si1 0.500000 0.711624 0.250000
Si Si2 0.935873 0.362799 0.890119
Si Si3 0.693263 0.574420 0.474981
Si Si4 0.000000 0.492348 0.250000
Si Si5 0.500000 0.420889 0.250000
Si Si6 0.759698 0.714542 0.796529
O O1 0.555253 0.649139 0.392292
O O2 0.653371 0.768465 0.288154
O O3 0.811653 0.395831 0.927285
O O4 0.010426 0.445895 0.870973
O O5 0.833330 0.304646 0.737027
O O6 0.083035 0.306167 0.029132
O O7 0.826257 0.558217 0.657173
O O8 0.599729 0.486105 0.394166
O O9 0.374917 0.359233 0.254769
#
# Coordination Sequence:
#
# PCOD9299157 Si02
#       6
#     4   8   8   4   4   8
#     4   9  24  51  71 107 138 194 232 297 346 431
#     4  11  26  45  70 110 141 189 235 298 351 428
#     4  10  24  47  72 104 144 184 247 282 361 418
#     4  12  23  41  77 105 142 186 236 304 347 417
#     4  11  23  46  74 106 148 184 232 303 343 438
#     4  11  25  45  76 102 151 180 243 287 363 415
#
# _framework density 26.434555
#
# number of rings (size 3 to 8) (size 9 to 14) (size 15 to 20)
#    0.000    1.333    2.222    1.333    3.111    8.000 
#    0.000    3.333    0.000    0.000    0.000    0.000 
#    0.000    0.000    0.000    0.000    0.000    0.000 
#
# Total GULP energy -100851.578707 kJ/mol
# GULP energy per Si atom -5602.865484 kJ/mol
# Density = 2.637439 g / cm^3
# Si number density = 26.434555 Si / 1000 Ang^3
#
#
#
# Elastic Constant Matrix: (Units=GPa)
#
#
# Indices 1 2 3 4 5 6 
#
# 1 110.0372 49.9289 1.3764 0.0000 25.6988 0.0000
# 2 49.9289 190.5419 49.6844 0.0000 22.5073 0.0000
# 3 1.3764 49.6844 96.1575 0.0000 31.5117 0.0000
# 4 0.0000 0.0000 0.0000 52.2195 0.0000 -1.9811
# 5 25.6988 22.5073 31.5117 0.0000 38.9625 0.0000
# 6 0.0000 0.0000 0.0000 -1.9811 0.0000 37.7022
#
#
#
# Elastic Compliance Matrix: (Units=1/GPa)
#
#
# Indices 1 2 3 4 5 6 
#
# 1 0.013147 -0.003516 0.005177 0.000000 -0.010827 0.000000
# 2 -0.003516 0.007056 -0.004109 0.000000 0.001566 0.000000
# 3 0.005177 -0.004109 0.017402 0.000000 -0.015115 0.000000
# 4 0.000000 0.000000 0.000000 0.019188 0.000000 0.001008
# 5 -0.010827 0.001566 -0.015115 0.000000 0.044127 0.000000
# 6 0.000000 0.000000 0.000000 0.001008 0.000000 0.026577
#
#
# Mechanical properties :
#
#
# Convention : Reuss Voigt Hill
#
# Bulk Modulus (GPa) = 30.57260 66.52399 48.54829
# Shear Modulus (GPa) = 34.89296 45.49331 40.19314
#
# Velocity S-wave (km/s) = 3.63709 4.15297 3.90356
# Velocity P-wave (km/s) = 5.40633 6.94380 6.22273
#
# Compressibility (1/GPa) = 0.03270903
#
# Stress axis : x y z
#
# Youngs Moduli (GPa) = 76.06246 141.72673 57.46541
#
# Poissons Ratio (x) = 0.49830 -0.29748
# Poissons Ratio (y) = 0.26743 0.23610
# Poissons Ratio (z) = -0.39375 0.58230
#
# Static dielectric constant tensor:
#      x y z
#    x 2.050110 0.000000 -0.023610 
#    y 0.000000 1.990600 0.000000 
#    z -0.023610 0.000000 2.110150 
# 
# From -- ./inp_files/144477.got.cif
#   From: 2010.05.17/outbox.cif.g08.bks.cpg/sg15_73_cif.got.tgz:144477.got - 2010.06.03 18:47:42.
