data_PCOD9299616
_publ_section_title
;
Structure prediction by ZEFSAII (Michael W. Deem and Ramdas Pophale) SiO2 
 PCOD9299616
Probable space group: C 2/C
;
_chemical_formula_sum "Si O2"
_cell_formula_units_Z 40
_cell_length_a 9.726556
_cell_length_b 18.735141
_cell_length_c 11.117622
_cell_angle_alpha 90.000000
_cell_angle_beta 122.073138
_cell_angle_gamma 90.000000
_cell_volume 1716.728195
_symmetry_space_group_name_H-M "C 2/C"
_symmetry_group_IT_number 15
_symmetry_cell_setting 'monoclinic'
loop_
_space_group_symop_operation_xyz
x,y,z
-x,y,1/2-z
-x,-y,-z
x,-y,1/2+z
1/2+x,1/2+y,z
1/2-x,1/2+y,1/2-z
1/2-x,1/2-y,-z
1/2+x,1/2-y,1/2+z
loop_
_atom_site_type_symbol
_atom_site_label
_atom_site_fract_x
_atom_site_fract_y
_atom_site_fract_z
Si Si1 0.875124 0.604124 0.854030
Si Si2 0.647942 0.679907 0.577497
Si Si3 0.290654 0.156819 0.396493
Si Si4 0.107778 0.920037 0.407798
Si Si5 0.819781 0.547771 0.212971
O O1 0.814320 0.652525 0.716426
O O2 0.755576 0.619779 0.909773
O O3 0.844307 0.522729 0.802399
O O4 0.058399 0.614421 0.976188
O O5 0.642438 0.764063 0.598782
O O6 0.657864 0.666005 0.439434
O O7 0.508343 0.635119 0.577777
O O8 0.247935 0.112051 0.258746
O O9 0.196508 0.969171 0.546609
O O10 0.000000 0.953883 0.250000
O O11 0.000000 0.567745 0.250000
#
# Coordination Sequence:
#
# PCOD9299616 Si02
#       5
#     8   8   8   8   8
#     4  11  24  46  72  98 142 184 235 288 347 423
#     4  10  25  44  68 103 143 185 227 294 351 412
#     4  11  24  44  72 102 139 187 239 285 347 420
#     4  10  25  47  66 103 140 179 227 289 354 404
#     4  12  25  43  76 104 135 190 241 287 350 422
#
# _framework density 23.300136999999999
#
# number of rings (size 3 to 8) (size 9 to 14) (size 15 to 20)
#    0.000    1.200    2.000    2.400    5.600    7.200 
#    3.600    0.000    0.000    0.000    0.000    0.000 
#    0.000    0.000    0.000    0.000    0.000    0.000 
#
# Total GULP energy -111937.805284 kJ/mol
# GULP energy per Si atom -5596.890264 kJ/mol
# Density = 2.324711 g / cm^3
# Si number density = 23.300137 Si / 1000 Ang^3
#
#
#
# Elastic Constant Matrix: (Units=GPa)
#
#
# Indices 1 2 3 4 5 6 
#
# 1 77.9926 24.0593 26.1470 0.0000 -11.1337 0.0000
# 2 24.0593 96.7758 29.6070 0.0000 0.9349 0.0000
# 3 26.1470 29.6070 111.9793 0.0000 14.2923 0.0000
# 4 0.0000 0.0000 0.0000 114.7586 0.0000 20.4510
# 5 -11.1337 0.9349 14.2923 0.0000 24.2218 0.0000
# 6 0.0000 0.0000 0.0000 20.4510 0.0000 20.6812
#
#
#
# Elastic Compliance Matrix: (Units=1/GPa)
#
#
# Indices 1 2 3 4 5 6 
#
# 1 0.016697 -0.002885 -0.004466 0.000000 0.010421 0.000000
# 2 -0.002885 0.011787 -0.002396 0.000000 -0.000368 0.000000
# 3 -0.004466 -0.002396 0.011741 0.000000 -0.008888 0.000000
# 4 0.000000 0.000000 0.000000 0.010578 0.000000 -0.010460
# 5 0.010421 -0.000368 -0.008888 0.000000 0.051334 0.000000
# 6 0.000000 0.000000 0.000000 -0.010460 0.000000 0.058697
#
#
# Mechanical properties :
#
#
# Convention : Reuss Voigt Hill
#
# Bulk Modulus (GPa) = 48.23820 49.59715 48.91767
# Shear Modulus (GPa) = 26.70401 45.72795 36.21598
#
# Velocity S-wave (km/s) = 3.38907 4.43489 3.94677
# Velocity P-wave (km/s) = 6.00519 6.89614 6.46603
#
# Compressibility (1/GPa) = 0.02073046
#
# Stress axis : x y z
#
# Youngs Moduli (GPa) = 59.89223 84.83931 85.17263
#
# Poissons Ratio (x) = 0.24479 0.38037
# Poissons Ratio (y) = 0.17281 0.20406
# Poissons Ratio (z) = 0.26747 0.20326
#
# Static dielectric constant tensor:
#      x y z
#    x 1.903640 0.000000 -0.034380 
#    y 0.000000 1.823030 0.000000 
#    z -0.034380 0.000000 1.934190 
# 
# From -- ./inp_files/87600.got.cif
#   From: 2010.05.17/outbox.cif.g08.bks.cpg/sg15_44_cif.got.tgz:87600.got - 2010.06.03 18:47:42.
