data_PCOD9299734
_publ_section_title
;
Structure prediction by ZEFSAII (Michael W. Deem and Ramdas Pophale) SiO2 
 PCOD9299734
Probable space group: C 2/C
;
_chemical_formula_sum "Si O2"
_cell_formula_units_Z 36
_cell_length_a 17.586614
_cell_length_b 4.616079
_cell_length_c 20.244827
_cell_angle_alpha 90.000000
_cell_angle_beta 112.469667
_cell_angle_gamma 90.000000
_cell_volume 1518.728157
_symmetry_space_group_name_H-M "C 2/C"
_symmetry_group_IT_number 15
_symmetry_cell_setting 'monoclinic'
loop_
_space_group_symop_operation_xyz
x,y,z
-x,y,1/2-z
-x,-y,-z
x,-y,1/2+z
1/2+x,1/2+y,z
1/2-x,1/2+y,1/2-z
1/2-x,1/2-y,-z
1/2+x,1/2-y,1/2+z
loop_
_atom_site_type_symbol
_atom_site_label
_atom_site_fract_x
_atom_site_fract_y
_atom_site_fract_z
Si Si1 0.362234 0.942017 0.644184
Si Si2 0.000000 0.759838 0.750000
Si Si3 0.252569 0.397712 0.573259
Si Si4 0.528207 0.368502 0.899441
Si Si5 0.419501 0.206799 0.968864
O O1 0.421746 0.042088 0.723331
O O2 0.279965 0.131300 0.627076
O O3 0.325123 0.634087 0.610340
O O4 0.416781 0.083046 0.601343
O O5 0.009310 0.960062 0.817780
O O6 0.250000 0.250000 0.500000
O O7 0.166087 0.543943 0.557593
O O8 0.438943 0.335649 0.903321
O O9 0.573680 0.553992 0.971136
O O10 0.500000 0.000000 0.000000
#
# Coordination Sequence:
#
# PCOD9299734 Si02
#       5
#     8   4   8   8   8
#     4  10  25  45  73 106 140 202 248 310 361 470
#     4   8  22  48  76 102 140 204 256 296 388 456
#     4  12  27  42  71 113 150 187 248 310 379 443
#     4   9  23  46  74 105 143 200 249 307 383 449
#     4  11  25  43  70 112 152 190 244 320 381 442
#
# _framework density 23.704045000000001
#
# number of rings (size 3 to 8) (size 9 to 14) (size 15 to 20)
#    1.333    0.444    0.000    2.000   15.556    0.889 
#    4.000    2.222    0.000    0.000    0.000    0.000 
#    0.000    0.000    0.000    0.000    0.000    0.000 
#
# Total GULP energy -100232.109284 kJ/mol
# GULP energy per Si atom -5568.450516 kJ/mol
# Density = 2.365009 g / cm^3
# Si number density = 23.704045 Si / 1000 Ang^3
#
#
#
# Elastic Constant Matrix: (Units=GPa)
#
#
# Indices 1 2 3 4 5 6 
#
# 1 134.5935 23.9079 50.6255 -0.0001 9.0598 0.0002
# 2 23.9079 100.8056 21.9395 -0.0003 3.0712 0.0004
# 3 50.6255 21.9395 119.0520 0.0000 10.3623 0.0001
# 4 -0.0001 -0.0003 0.0000 39.8571 0.0000 8.4822
# 5 9.0598 3.0712 10.3623 0.0000 49.1544 0.0000
# 6 0.0002 0.0004 0.0001 8.4822 0.0000 48.7591
#
#
#
# Elastic Compliance Matrix: (Units=1/GPa)
#
#
# Indices 1 2 3 4 5 6 
#
# 1 0.009054 -0.001354 -0.003527 0.000000 -0.000841 0.000000
# 2 -0.001354 0.010540 -0.001356 0.000000 -0.000123 0.000000
# 3 -0.003527 -0.001356 0.010274 0.000000 -0.001431 0.000000
# 4 0.000000 0.000000 0.000000 0.026054 0.000000 -0.004532
# 5 -0.000841 -0.000123 -0.001431 0.000000 0.020808 0.000000
# 6 0.000000 0.000000 0.000000 -0.004532 0.000000 0.021297
#
#
# Mechanical properties :
#
#
# Convention : Reuss Voigt Hill
#
# Bulk Modulus (GPa) = 57.49284 60.82188 59.15736
# Shear Modulus (GPa) = 42.99234 44.75265 43.87250
#
# Velocity S-wave (km/s) = 4.26339 4.34980 4.30681
# Velocity P-wave (km/s) = 6.96724 7.13738 7.05282
#
# Compressibility (1/GPa) = 0.01739347
#
# Stress axis : x y z
#
# Youngs Moduli (GPa) = 110.45342 94.87622 97.33254
#
# Poissons Ratio (x) = 0.12846 0.34332
# Poissons Ratio (y) = 0.14955 0.13197
# Poissons Ratio (z) = 0.38960 0.12864
#
# Static dielectric constant tensor:
#      x y z
#    x 1.974780 0.000000 -0.029580 
#    y 0.000000 2.189810 0.000000 
#    z -0.029580 0.000000 2.026400 
# 
# From -- ./inp_files/278424.got.cif
#   From: 2010.05.17/outbox.cif.g08.bks.cpg/sg15_140_cif.got.tgz:278424.got - 2010.06.03 18:47:42.
