data_PCOD9299964
_publ_section_title
;
Structure prediction by ZEFSAII (Michael W. Deem and Ramdas Pophale) SiO2 
 PCOD9299964
Probable space group: C 2/C
;
_chemical_formula_sum "Si O2"
_cell_formula_units_Z 44
_cell_length_a 18.205289
_cell_length_b 5.372710
_cell_length_c 18.780239
_cell_angle_alpha 90.000000
_cell_angle_beta 101.432148
_cell_angle_gamma 90.000000
_cell_volume 1800.483389
_symmetry_space_group_name_H-M "C 2/C"
_symmetry_group_IT_number 15
_symmetry_cell_setting 'monoclinic'
loop_
_space_group_symop_operation_xyz
x,y,z
-x,y,1/2-z
-x,-y,-z
x,-y,1/2+z
1/2+x,1/2+y,z
1/2-x,1/2+y,1/2-z
1/2-x,1/2-y,-z
1/2+x,1/2-y,1/2+z
loop_
_atom_site_type_symbol
_atom_site_label
_atom_site_fract_x
_atom_site_fract_y
_atom_site_fract_z
Si Si1 0.000000 0.115849 0.250000
Si Si2 0.728278 0.811478 0.112054
Si Si3 0.830364 0.017638 0.010155
Si Si4 0.415066 0.014841 0.069145
Si Si5 0.879326 0.255467 0.706544
Si Si6 0.574459 0.974930 0.150043
O O1 0.937206 0.958726 0.195760
O O2 0.954890 0.268509 0.300267
O O3 0.766983 0.983066 0.058837
O O4 0.791953 0.799750 0.184305
O O5 0.650204 0.905438 0.125929
O O6 0.711405 0.543978 0.071931
O O7 0.881886 0.770954 0.031297
O O8 0.877345 0.268718 0.028726
O O9 0.393992 0.032110 0.149907
O O10 0.504950 0.019770 0.084787
O O11 0.905370 0.306590 0.791401
#
# Coordination Sequence:
#
# PCOD9299964 Si02
#       6
#     4   8   8   8   8   8
#     4  12  22  46  64  98 142 182 222 280 362 408
#     4  10  26  44  66 104 139 179 236 283 346 411
#     4  10  25  50  69 100 140 193 222 290 338 404
#     4  11  22  46  76  94 142 185 236 275 346 411
#     4  11  24  42  66 102 135 185 220 296 348 414
#     4  12  24  41  70 104 132 188 227 292 343 418
#
# _framework density 24.437882999999999
#
# number of rings (size 3 to 8) (size 9 to 14) (size 15 to 20)
#    0.000    1.091    3.636    2.182    2.545    8.000 
#    6.545    0.000    0.000    0.000    0.000    0.000 
#    0.000    0.000    0.000    0.000    0.000    0.000 
#
# Total GULP energy -123145.830350 kJ/mol
# GULP energy per Si atom -5597.537743 kJ/mol
# Density = 2.438226 g / cm^3
# Si number density = 24.437883 Si / 1000 Ang^3
#
#
#
# Elastic Constant Matrix: (Units=GPa)
#
#
# Indices 1 2 3 4 5 6 
#
# 1 243.2962 64.8400 41.7823 0.0000 35.1340 0.0000
# 2 64.8400 108.3655 27.8143 0.0000 19.0405 0.0000
# 3 41.7823 27.8143 72.7194 0.0000 31.6676 0.0000
# 4 0.0000 0.0000 0.0000 28.7991 0.0000 18.5418
# 5 35.1340 19.0405 31.6676 0.0000 46.0163 0.0000
# 6 0.0000 0.0000 0.0000 18.5418 0.0000 27.3510
#
#
#
# Elastic Compliance Matrix: (Units=1/GPa)
#
#
# Indices 1 2 3 4 5 6 
#
# 1 0.005287 -0.002484 -0.001110 0.000000 -0.002245 0.000000
# 2 -0.002484 0.011558 -0.002480 0.000000 -0.001179 0.000000
# 3 -0.001110 -0.002480 0.020736 0.000000 -0.012397 0.000000
# 4 0.000000 0.000000 0.000000 0.061617 0.000000 -0.041771
# 5 -0.002245 -0.001179 -0.012397 0.000000 0.032465 0.000000
# 6 0.000000 0.000000 0.000000 -0.041771 0.000000 0.064879
#
#
# Mechanical properties :
#
#
# Convention : Reuss Voigt Hill
#
# Bulk Modulus (GPa) = 39.31882 77.02825 58.17353
# Shear Modulus (GPa) = 23.02358 39.76292 31.39325
#
# Velocity S-wave (km/s) = 3.07274 4.03811 3.58804
# Velocity P-wave (km/s) = 5.35847 7.30275 6.40482
#
# Compressibility (1/GPa) = 0.02543311
#
# Stress axis : x y z
#
# Youngs Moduli (GPa) = 189.14058 86.51910 48.22457
#
# Poissons Ratio (x) = 0.21493 0.05353
# Poissons Ratio (y) = 0.46985 0.11960
# Poissons Ratio (z) = 0.20994 0.21457
#
# Static dielectric constant tensor:
#      x y z
#    x 1.929460 0.000000 0.042820 
#    y 0.000000 2.006360 0.000000 
#    z 0.042820 0.000000 2.025770 
# 
# From -- ./inp_files/246516.got.cif
#   From: 2010.05.17/outbox.cif.g08.bks.cpg/sg15_124_cif.got.tgz:246516.got - 2010.06.03 18:47:42.
