data_PCOD9299886
_publ_section_title
;
Structure prediction by ZEFSAII (Michael W. Deem and Ramdas Pophale) SiO2 
 PCOD9299886
Probable space group: C 2/C
;
_chemical_formula_sum "Si O2"
_cell_formula_units_Z 52
_cell_length_a 14.833201
_cell_length_b 23.999288
_cell_length_c 5.742575
_cell_angle_alpha 90.000000
_cell_angle_beta 106.920074
_cell_angle_gamma 90.000000
_cell_volume 1955.784452
_symmetry_space_group_name_H-M "C 2/C"
_symmetry_group_IT_number 15
_symmetry_cell_setting 'monoclinic'
loop_
_space_group_symop_operation_xyz
x,y,z
-x,y,1/2-z
-x,-y,-z
x,-y,1/2+z
1/2+x,1/2+y,z
1/2-x,1/2+y,1/2-z
1/2-x,1/2-y,-z
1/2+x,1/2-y,1/2+z
loop_
_atom_site_type_symbol
_atom_site_label
_atom_site_fract_x
_atom_site_fract_y
_atom_site_fract_z
Si Si1 0.410930 0.526566 0.761455
Si Si2 0.080107 0.575576 0.974791
Si Si3 0.757897 0.569660 0.099217
Si Si4 0.224270 0.355229 0.281632
Si Si5 0.500000 0.170644 0.250000
Si Si6 0.842773 0.251371 0.410915
Si Si7 0.391008 0.365201 0.714905
O O1 0.500000 0.566251 0.750000
O O2 0.423043 0.485369 0.544600
O O3 0.299806 0.538590 0.646155
O O4 0.161257 0.601662 0.875530
O O5 0.000000 0.548499 0.750000
O O6 0.147430 0.545028 0.216595
O O7 0.029909 0.627531 0.067838
O O8 0.670840 0.587316 0.200857
O O9 0.788383 0.626693 0.994864
O O10 0.186264 0.294297 0.315364
O O11 0.333450 0.357669 0.431645
O O12 0.577950 0.213723 0.397748
O O13 0.750000 0.250000 0.500000
O O14 0.876810 0.191833 0.348726
O O15 0.500000 0.374650 0.750000
#
# Coordination Sequence:
#
# PCOD9299886 Si02
#       7
#     8   8   8   8   4   8   8
#     4  10  25  47  79 111 143 184 225 280 360 445
#     4  11  21  41  65  94 124 179 231 279 340 400
#     4  11  24  44  67 100 137 170 228 289 341 429
#     4  11  23  41  61  86 130 177 225 284 332 400
#     4  12  24  40  62  88 128 182 236 288 340 402
#     4  12  23  41  56  84 132 174 237 280 335 392
#     4  11  27  37  59  93 128 184 226 284 347 394
#
# _framework density 26.587797999999999
#
# number of rings (size 3 to 8) (size 9 to 14) (size 15 to 20)
#    0.000    0.923    4.615    1.385   10.769    0.615 
#    0.000    0.000    0.000    0.923    0.000    0.000 
#    0.000    0.000    0.000    0.000    0.000    0.000 
#
# Total GULP energy -145214.011677 kJ/mol
# GULP energy per Si atom -5585.154295 kJ/mol
# Density = 2.652728 g / cm^3
# Si number density = 26.587798 Si / 1000 Ang^3
#
#
#
# Elastic Constant Matrix: (Units=GPa)
#
#
# Indices 1 2 3 4 5 6 
#
# 1 183.6317 47.6060 71.1235 0.0000 30.7371 0.0000
# 2 47.6060 68.1774 29.2195 0.0000 1.5014 0.0000
# 3 71.1235 29.2195 151.5761 0.0000 40.1957 0.0000
# 4 0.0000 0.0000 0.0000 31.1237 0.0000 8.0590
# 5 30.7371 1.5014 40.1957 0.0000 68.1017 0.0000
# 6 0.0000 0.0000 0.0000 8.0590 0.0000 50.2769
#
#
#
# Elastic Compliance Matrix: (Units=1/GPa)
#
#
# Indices 1 2 3 4 5 6 
#
# 1 0.007825 -0.004451 -0.002256 0.000000 -0.002102 0.000000
# 2 -0.004451 0.018696 -0.002299 0.000000 0.002953 0.000000
# 3 -0.002256 -0.002299 0.009266 0.000000 -0.004400 0.000000
# 4 0.000000 0.000000 0.000000 0.033521 0.000000 -0.005373
# 5 -0.002102 0.002953 -0.004400 0.000000 0.018165 0.000000
# 6 0.000000 0.000000 0.000000 -0.005373 0.000000 0.020751
#
#
# Mechanical properties :
#
#
# Convention : Reuss Voigt Hill
#
# Bulk Modulus (GPa) = 56.25879 77.69813 66.97846
# Shear Modulus (GPa) = 37.83268 46.92953 42.38111
#
# Velocity S-wave (km/s) = 3.77627 4.20584 3.99683
# Velocity P-wave (km/s) = 6.34186 7.27132 6.82244
#
# Compressibility (1/GPa) = 0.01777500
#
# Stress axis : x y z
#
# Youngs Moduli (GPa) = 127.79000 53.48847 107.92041
#
# Poissons Ratio (x) = 0.23807 0.24352
# Poissons Ratio (y) = 0.56877 0.24808
# Poissons Ratio (z) = 0.28835 0.12296
#
# Static dielectric constant tensor:
#      x y z
#    x 2.264350 0.000000 0.115880 
#    y 0.000000 2.192380 0.000000 
#    z 0.115880 0.000000 2.248830 
# 
# From -- ./inp_files/9116.got.cif
#   From: 2010.05.17/outbox.cif.g08.bks.cpg/sg15_5_cif.got.tgz:9116.got - 2010.06.03 18:47:42.
