data_PCOD9299365
_publ_section_title
;
Structure prediction by ZEFSAII (Michael W. Deem and Ramdas Pophale) SiO2 
 PCOD9299365
Probable space group: C 2/C
;
_chemical_formula_sum "Si O2"
_cell_formula_units_Z 36
_cell_length_a 13.741196
_cell_length_b 20.369695
_cell_length_c 8.295748
_cell_angle_alpha 90.000000
_cell_angle_beta 38.766180
_cell_angle_gamma 90.000000
_cell_volume 1453.913652
_symmetry_space_group_name_H-M "C 2/C"
_symmetry_group_IT_number 15
_symmetry_cell_setting 'monoclinic'
loop_
_space_group_symop_operation_xyz
x,y,z
-x,y,1/2-z
-x,-y,-z
x,-y,1/2+z
1/2+x,1/2+y,z
1/2-x,1/2+y,1/2-z
1/2-x,1/2-y,-z
1/2+x,1/2-y,1/2+z
loop_
_atom_site_type_symbol
_atom_site_label
_atom_site_fract_x
_atom_site_fract_y
_atom_site_fract_z
Si Si1 0.500000 0.246025 0.750000
Si Si2 0.000000 0.453202 0.250000
Si Si3 0.163949 0.093891 0.731523
Si Si4 0.726838 0.025826 0.210113
Si Si5 0.000000 0.195826 0.750000
Si Si6 0.681625 0.202826 0.810757
O O1 0.556163 0.204320 0.830426
O O2 0.652919 0.285471 0.493294
O O3 0.897434 0.493950 0.253141
O O4 0.860721 0.429266 0.544584
O O5 0.166088 0.029945 0.843474
O O6 0.312038 0.133309 0.608511
O O7 0.044186 0.152986 0.851537
O O8 0.177045 0.069068 0.534024
O O9 0.135295 0.242693 0.503135
#
# Coordination Sequence:
#
# PCOD9299365 Si02
#       6
#     4   4   8   8   4   8
#     4  10  24  49  75 113 140 192 245 308 384 426
#     4   8  16  38  58  94 136 175 253 278 356 428
#     4  11  24  45  70 105 149 193 248 302 362 457
#     4   9  20  40  65 101 140 199 235 300 369 430
#     4  12  26  47  73 111 146 203 240 306 374 444
#     4  11  24  49  76 113 150 187 250 307 384 435
#
# _framework density 24.760755
#
# number of rings (size 3 to 8) (size 9 to 14) (size 15 to 20)
#    0.000    1.778    2.222    0.667    0.000    7.111 
#   16.000    1.111    0.000    0.000    0.000    0.000 
#    0.000    0.000    0.000    0.000    0.000    0.000 
#
# Total GULP energy -100256.488615 kJ/mol
# GULP energy per Si atom -5569.804923 kJ/mol
# Density = 2.470440 g / cm^3
# Si number density = 24.760755 Si / 1000 Ang^3
#
#
#
# Elastic Constant Matrix: (Units=GPa)
#
#
# Indices 1 2 3 4 5 6 
#
# 1 147.9551 38.9837 24.5149 0.0000 21.9546 0.0000
# 2 38.9837 92.6004 32.4529 0.0000 8.7114 0.0000
# 3 24.5149 32.4529 104.8229 -0.0001 12.3931 0.0001
# 4 0.0000 0.0000 -0.0001 24.1225 0.0001 -28.9616
# 5 21.9546 8.7114 12.3931 0.0001 35.1833 0.0000
# 6 0.0000 0.0000 0.0001 -28.9616 0.0000 91.5400
#
#
#
# Elastic Compliance Matrix: (Units=1/GPa)
#
#
# Indices 1 2 3 4 5 6 
#
# 1 0.008235 -0.002882 -0.000533 0.000000 -0.004238 0.000000
# 2 -0.002882 0.013226 -0.003387 0.000000 -0.000284 0.000000
# 3 -0.000533 -0.003387 0.011034 0.000000 -0.002716 0.000000
# 4 0.000000 0.000000 0.000000 0.066847 0.000000 0.021149
# 5 -0.004238 -0.000284 -0.002716 0.000000 0.032094 0.000000
# 6 0.000000 0.000000 0.000000 0.021149 0.000000 0.017615
#
#
# Mechanical properties :
#
#
# Convention : Reuss Voigt Hill
#
# Bulk Modulus (GPa) = 52.93222 59.69792 56.31507
# Shear Modulus (GPa) = 29.59426 46.79763 38.19594
#
# Velocity S-wave (km/s) = 3.46093 4.35212 3.93186
# Velocity P-wave (km/s) = 6.11511 7.02971 6.58830
#
# Compressibility (1/GPa) = 0.01889208
#
# Stress axis : x y z
#
# Youngs Moduli (GPa) = 121.43104 75.60885 90.62675
#
# Poissons Ratio (x) = 0.21787 0.04829
# Poissons Ratio (y) = 0.34990 0.30698
# Poissons Ratio (z) = 0.06470 0.25611
#
# Static dielectric constant tensor:
#      x y z
#    x 1.976000 0.000000 -0.076890 
#    y 0.000000 2.020660 0.000000 
#    z -0.076890 0.000000 2.072160 
# 
# From -- ./inp_files/41203.got.cif
#   From: 2010.05.17/outbox.cif.g08.bks.cpg/sg15_21_cif.got.tgz:41203.got - 2010.06.03 18:47:42.
