data_PCOD9299956
_publ_section_title
;
Structure prediction by ZEFSAII (Michael W. Deem and Ramdas Pophale) SiO2 
 PCOD9299956
Probable space group: C 2/C
;
_chemical_formula_sum "Si O2"
_cell_formula_units_Z 36
_cell_length_a 21.910055
_cell_length_b 8.644161
_cell_length_c 12.169865
_cell_angle_alpha 90.000000
_cell_angle_beta 38.228656
_cell_angle_gamma 90.000000
_cell_volume 1426.275209
_symmetry_space_group_name_H-M "C 2/C"
_symmetry_group_IT_number 15
_symmetry_cell_setting 'monoclinic'
loop_
_space_group_symop_operation_xyz
x,y,z
-x,y,1/2-z
-x,-y,-z
x,-y,1/2+z
1/2+x,1/2+y,z
1/2-x,1/2+y,1/2-z
1/2-x,1/2-y,-z
1/2+x,1/2-y,1/2+z
loop_
_atom_site_type_symbol
_atom_site_label
_atom_site_fract_x
_atom_site_fract_y
_atom_site_fract_z
Si Si1 0.838262 0.757571 0.785800
Si Si2 0.023747 0.602697 0.598158
Si Si3 0.342633 0.423691 0.365612
Si Si4 0.500000 0.802002 0.750000
Si Si5 0.771293 0.298214 0.788081
O O1 0.920964 0.626685 0.681387
O O2 0.792991 0.775023 0.729335
O O3 0.887190 0.921011 0.753165
O O4 0.750000 0.750000 0.000000
O O5 0.954143 0.425939 0.899161
O O6 0.882576 0.327206 0.592858
O O7 0.000000 0.680219 0.750000
O O8 0.425588 0.304570 0.288475
O O9 0.274190 0.434645 0.571506
O O10 0.276329 0.348077 0.363197
#
# Coordination Sequence:
#
# PCOD9299956 Si02
#       5
#     8   8   8   4   8
#     4  12  27  49  81 113 155 201 258 317 388 456
#     4  10  25  49  75 113 155 203 250 323 380 448
#     4  11  30  48  78 114 154 206 254 317 385 458
#     4  10  26  52  74 116 158 200 262 308 386 454
#     4  11  28  49  77 113 156 195 261 313 382 461
#
# _framework density 25.240570000000002
#
# number of rings (size 3 to 8) (size 9 to 14) (size 15 to 20)
#    0.667    0.444    2.222    0.000   20.222    1.778 
#    0.000    0.000    0.000    0.000    0.000    0.000 
#    0.000    0.000    0.000    0.000    0.000    0.000 
#
# Total GULP energy -100813.849872 kJ/mol
# GULP energy per Si atom -5600.769437 kJ/mol
# Density = 2.518312 g / cm^3
# Si number density = 25.240570 Si / 1000 Ang^3
#
#
#
# Elastic Constant Matrix: (Units=GPa)
#
#
# Indices 1 2 3 4 5 6 
#
# 1 199.7543 48.4160 57.1750 -0.0001 27.6910 0.0001
# 2 48.4160 77.4073 -0.7547 -0.0005 9.6610 0.0004
# 3 57.1750 -0.7547 142.0862 -0.0002 23.0806 0.0002
# 4 -0.0001 -0.0005 -0.0002 22.0027 0.0002 -5.9532
# 5 27.6910 9.6610 23.0806 0.0002 54.0038 -0.0001
# 6 0.0001 0.0004 0.0002 -5.9532 -0.0001 32.8978
#
#
#
# Elastic Compliance Matrix: (Units=1/GPa)
#
#
# Indices 1 2 3 4 5 6 
#
# 1 0.006992 -0.004180 -0.002552 0.000000 -0.001747 0.000000
# 2 -0.004180 0.015744 0.002015 0.000000 -0.001534 0.000000
# 3 -0.002552 0.002015 0.008513 0.000000 -0.002690 0.000000
# 4 0.000000 0.000000 0.000000 0.047789 0.000000 0.008648
# 5 -0.001747 -0.001534 -0.002690 0.000000 0.020837 0.000000
# 6 0.000000 0.000000 0.000000 0.008648 0.000000 0.031962
#
#
# Mechanical properties :
#
#
# Convention : Reuss Voigt Hill
#
# Bulk Modulus (GPa) = 45.84105 69.88004 57.86055
# Shear Modulus (GPa) = 33.66037 42.74163 38.20100
#
# Velocity S-wave (km/s) = 3.65579 4.11952 3.89456
# Velocity P-wave (km/s) = 6.00173 7.09739 6.57243
#
# Compressibility (1/GPa) = 0.02181451
#
# Stress axis : x y z
#
# Youngs Moduli (GPa) = 143.02277 63.51477 117.47330
#
# Poissons Ratio (x) = 0.26550 0.29979
# Poissons Ratio (y) = 0.59785 -0.23670
# Poissons Ratio (z) = 0.36499 -0.12798
#
# Static dielectric constant tensor:
#      x y z
#    x 1.959570 0.000000 0.019620 
#    y 0.000000 2.099880 0.000000 
#    z 0.019620 0.000000 2.032240 
# 
# From -- ./inp_files/109313.got.cif
#   From: 2010.05.17/outbox.cif.g08.bks.cpg/sg15_55_cif.got.tgz:109313.got - 2010.06.03 18:47:42.
