data_PCOD9299543
_publ_section_title
;
Structure prediction by ZEFSAII (Michael W. Deem and Ramdas Pophale) SiO2 
 PCOD9299543
Probable space group: C 2/C
;
_chemical_formula_sum "Si O2"
_cell_formula_units_Z 52
_cell_length_a 17.475321
_cell_length_b 21.025043
_cell_length_c 14.633884
_cell_angle_alpha 90.000000
_cell_angle_beta 28.981108
_cell_angle_gamma 90.000000
_cell_volume 2605.160315
_symmetry_space_group_name_H-M "C 2/C"
_symmetry_group_IT_number 15
_symmetry_cell_setting 'monoclinic'
loop_
_space_group_symop_operation_xyz
x,y,z
-x,y,1/2-z
-x,-y,-z
x,-y,1/2+z
1/2+x,1/2+y,z
1/2-x,1/2+y,1/2-z
1/2-x,1/2-y,-z
1/2+x,1/2-y,1/2+z
loop_
_atom_site_type_symbol
_atom_site_label
_atom_site_fract_x
_atom_site_fract_y
_atom_site_fract_z
Si Si1 0.090130 0.172366 0.848453
Si Si2 0.012056 0.664984 0.628277
Si Si3 0.738917 0.012709 0.060982
Si Si4 0.000000 0.118904 0.750000
Si Si5 0.842269 0.037305 0.635161
Si Si6 0.088049 0.480244 0.031084
Si Si7 0.798010 0.759000 0.741200
O O1 0.147405 0.106892 0.833624
O O2 0.218455 0.226111 0.736313
O O3 0.050629 0.159530 0.784688
O O4 0.935189 0.194901 0.064158
O O5 0.024372 0.591290 0.586541
O O6 0.168368 0.701303 0.431395
O O7 0.000000 0.666900 0.750000
O O8 0.870093 0.703215 0.728855
O O9 0.823861 0.966990 0.045404
O O10 0.563185 0.023904 0.285915
O O11 0.852224 0.073263 0.930905
O O12 0.702866 0.982530 0.999924
O O13 0.691260 0.003471 0.839006
O O14 0.000000 0.000000 0.500000
#
# Coordination Sequence:
#
# PCOD9299543 Si02
#       7
#     8   8   8   4   8   8   8
#     4  11  24  45  65  93 126 168 220 266 316 382
#     4  11  21  42  65  94 131 166 213 261 317 385
#     4  11  22  40  60 100 133 162 211 255 340 389
#     4  12  24  44  68  90 132 166 218 272 318 398
#     4  12  22  40  69  96 130 169 205 270 333 385
#     4  11  23  40  64 100 131 168 208 267 331 390
#     4  10  25  43  65  90 125 176 219 260 311 374
#
# _framework density 19.960384000000001
#
# number of rings (size 3 to 8) (size 9 to 14) (size 15 to 20)
#    0.000    0.923    4.615    2.769    0.000    0.615 
#    2.769    0.000    0.000    0.000    0.000    0.000 
#    0.000    0.000    0.000    0.000    0.000    0.000 
#
# Total GULP energy -145344.879351 kJ/mol
# GULP energy per Si atom -5590.187667 kJ/mol
# Density = 1.991495 g / cm^3
# Si number density = 19.960384 Si / 1000 Ang^3
#
#
#
# Elastic Constant Matrix: (Units=GPa)
#
#
# Indices 1 2 3 4 5 6 
#
# 1 119.8832 33.0105 22.3378 -0.0084 12.2271 0.0078
# 2 33.0105 77.6737 44.9402 -0.0076 6.4527 0.0067
# 3 22.3378 44.9402 86.1739 -0.0013 -8.3029 0.0016
# 4 -0.0084 -0.0076 -0.0013 22.7242 0.0032 7.9841
# 5 12.2271 6.4527 -8.3029 0.0032 32.2058 -0.0050
# 6 0.0078 0.0067 0.0016 7.9841 -0.0050 23.4893
#
#
#
# Elastic Compliance Matrix: (Units=1/GPa)
#
#
# Indices 1 2 3 4 5 6 
#
# 1 0.009787 -0.003181 -0.001205 0.000005 -0.003389 -0.000005
# 2 -0.003181 0.020822 -0.010583 0.000009 -0.005693 -0.000008
# 3 -0.001205 -0.010583 0.018135 -0.000006 0.007253 0.000006
# 4 0.000005 0.000009 -0.000006 0.049974 -0.000013 -0.016986
# 5 -0.003389 -0.005693 0.007253 -0.000013 0.035347 0.000014
# 6 -0.000005 -0.000008 0.000006 -0.016986 0.000014 0.048346
#
#
# Mechanical properties :
#
#
# Convention : Reuss Voigt Hill
#
# Bulk Modulus (GPa) = 53.17123 53.81196 53.49159
# Shear Modulus (GPa) = 22.87094 27.91335 25.39214
#
# Velocity S-wave (km/s) = 3.38866 3.74363 3.57056
# Velocity P-wave (km/s) = 6.48128 6.76049 6.62235
#
# Compressibility (1/GPa) = 0.01880716
#
# Stress axis : x y z
#
# Youngs Moduli (GPa) = 102.17114 48.02588 55.14349
#
# Poissons Ratio (x) = 0.15277 0.06643
# Poissons Ratio (y) = 0.32501 0.58357
# Poissons Ratio (z) = 0.12309 0.50825
#
# Static dielectric constant tensor:
#      x y z
#    x 1.725770 -0.000010 -0.026040 
#    y -0.000010 1.668460 0.000010 
#    z -0.026040 0.000010 1.706440 
# 
# From -- ./inp_files/163599.got.cif
#   From: 2010.05.17/outbox.cif.g08.bks.cpg/sg15_82_cif.got.tgz:163599.got - 2010.06.03 18:47:42.
