data_PCOD9299839
_publ_section_title
;
Structure prediction by ZEFSAII (Michael W. Deem and Ramdas Pophale) SiO2 
 PCOD9299839
Probable space group: C 2/C
;
_chemical_formula_sum "Si O2"
_cell_formula_units_Z 52
_cell_length_a 12.399953
_cell_length_b 24.403856
_cell_length_c 9.684778
_cell_angle_alpha 90.000000
_cell_angle_beta 63.835030
_cell_angle_gamma 90.000000
_cell_volume 2630.366311
_symmetry_space_group_name_H-M "C 2/C"
_symmetry_group_IT_number 15
_symmetry_cell_setting 'monoclinic'
loop_
_space_group_symop_operation_xyz
x,y,z
-x,y,1/2-z
-x,-y,-z
x,-y,1/2+z
1/2+x,1/2+y,z
1/2-x,1/2+y,1/2-z
1/2-x,1/2-y,-z
1/2+x,1/2-y,1/2+z
loop_
_atom_site_type_symbol
_atom_site_label
_atom_site_fract_x
_atom_site_fract_y
_atom_site_fract_z
Si Si1 0.447322 0.951384 0.436097
Si Si2 0.479446 0.564296 0.036136
Si Si3 0.715862 0.214528 0.388056
Si Si4 0.500000 0.637208 0.750000
Si Si5 0.742084 0.707506 0.627551
Si Si6 0.486322 0.155049 0.423951
Si Si7 0.808371 0.909354 0.873814
O O1 0.500000 0.951782 0.250000
O O2 0.479303 0.897466 0.505852
O O3 0.302432 0.947391 0.515727
O O4 0.500000 0.000000 0.500000
O O5 0.588283 0.586360 0.069729
O O6 0.361116 0.571592 0.196910
O O7 0.500000 0.500000 0.000000
O O8 0.476626 0.598733 0.896443
O O9 0.750000 0.250000 0.500000
O O10 0.767389 0.253043 0.240660
O O11 0.576459 0.203085 0.425349
O O12 0.769947 0.153843 0.375576
O O13 0.616202 0.675693 0.708595
O O14 0.750000 0.750000 0.500000
O O15 0.849502 0.666128 0.539309
O O16 0.500000 0.148790 0.250000
#
# Coordination Sequence:
#
# PCOD9299839 Si02
#       7
#     8   8   8   4   8   8   8
#     4  11  27  46  73 103 134 181 229 287 355 421
#     4  11  25  45  69 100 136 182 228 292 344 413
#     4  11  24  43  67  99 139 185 226 286 350 419
#     4  12  26  40  72 102 134 182 240 286 344 422
#     4  12  24  42  68 100 139 181 232 286 353 412
#     4  11  25  44  67 101 140 177 232 290 346 421
#     4  10  25  47  67  98 141 175 232 280 347 416
#
# _framework density 19.769107999999999
#
# number of rings (size 3 to 8) (size 9 to 14) (size 15 to 20)
#    0.000    0.923    1.538    4.154   10.769    3.692 
#    0.000    0.000    0.000    0.000    0.000    0.000 
#    0.000    0.000    0.000    0.000    0.000    0.000 
#
# Total GULP energy -145184.748124 kJ/mol
# GULP energy per Si atom -5584.028774 kJ/mol
# Density = 1.972411 g / cm^3
# Si number density = 19.769108 Si / 1000 Ang^3
#
#
#
# Elastic Constant Matrix: (Units=GPa)
#
#
# Indices 1 2 3 4 5 6 
#
# 1 75.7594 23.5623 59.5756 0.0000 -2.1210 0.0000
# 2 23.5623 103.0421 58.4173 0.0000 5.5866 0.0000
# 3 59.5756 58.4173 180.8261 0.0000 16.7729 0.0000
# 4 0.0000 0.0000 0.0000 29.5217 0.0000 13.4750
# 5 -2.1210 5.5866 16.7729 0.0000 48.9429 0.0000
# 6 0.0000 0.0000 0.0000 13.4750 0.0000 28.4381
#
#
#
# Elastic Compliance Matrix: (Units=1/GPa)
#
#
# Indices 1 2 3 4 5 6 
#
# 1 0.018290 -0.000944 -0.005995 0.000000 0.002955 0.000000
# 2 -0.000944 0.011930 -0.003525 0.000000 -0.000195 0.000000
# 3 -0.005995 -0.003525 0.008914 0.000000 -0.002912 0.000000
# 4 0.000000 0.000000 0.000000 0.043221 0.000000 -0.020480
# 5 0.002955 -0.000195 -0.002912 0.000000 0.021580 0.000000
# 6 0.000000 0.000000 0.000000 -0.020480 0.000000 0.044868
#
#
# Mechanical properties :
#
#
# Convention : Reuss Voigt Hill
#
# Bulk Modulus (GPa) = 54.92580 71.41532 63.17056
# Shear Modulus (GPa) = 28.44134 35.91873 32.18003
#
# Velocity S-wave (km/s) = 3.79710 4.26715 4.03897
# Velocity P-wave (km/s) = 6.86061 7.77697 7.33312
#
# Compressibility (1/GPa) = 0.01820638
#
# Stress axis : x y z
#
# Youngs Moduli (GPa) = 54.67334 83.82576 112.17939
#
# Poissons Ratio (x) = 0.07911 0.67254
# Poissons Ratio (y) = 0.05160 0.39543
# Poissons Ratio (z) = 0.32778 0.29548
#
# Static dielectric constant tensor:
#      x y z
#    x 1.694340 0.000000 -0.051980 
#    y 0.000000 1.713830 0.000000 
#    z -0.051980 0.000000 1.654940 
# 
# From -- ./inp_files/34077.got.cif
#   From: 2010.05.17/outbox.cif.g08.bks.cpg/sg15_18_cif.got.tgz:34077.got - 2010.06.03 18:47:42.
