data_PCOD9299486
_publ_section_title
;
Structure prediction by ZEFSAII (Michael W. Deem and Ramdas Pophale) SiO2 
 PCOD9299486
Probable space group: C 2/C
;
_chemical_formula_sum "Si O2"
_cell_formula_units_Z 56
_cell_length_a 11.335542
_cell_length_b 9.377196
_cell_length_c 30.107643
_cell_angle_alpha 90.000000
_cell_angle_beta 52.279192
_cell_angle_gamma 90.000000
_cell_volume 2531.449631
_symmetry_space_group_name_H-M "C 2/C"
_symmetry_group_IT_number 15
_symmetry_cell_setting 'monoclinic'
loop_
_space_group_symop_operation_xyz
x,y,z
-x,y,1/2-z
-x,-y,-z
x,-y,1/2+z
1/2+x,1/2+y,z
1/2-x,1/2+y,1/2-z
1/2-x,1/2-y,-z
1/2+x,1/2-y,1/2+z
loop_
_atom_site_type_symbol
_atom_site_label
_atom_site_fract_x
_atom_site_fract_y
_atom_site_fract_z
Si Si1 0.785666 0.257700 0.566519
Si Si2 0.533443 0.682773 0.056559
Si Si3 0.016529 0.305253 0.639791
Si Si4 0.162908 0.928825 0.366803
Si Si5 0.653631 0.366591 0.189335
Si Si6 0.929212 0.494906 0.589489
Si Si7 0.841299 0.605885 0.261005
O O1 0.645575 0.322578 0.572741
O O2 0.873161 0.163070 0.510025
O O3 0.895886 0.383400 0.558045
O O4 0.744003 0.161174 0.618660
O O5 0.407187 0.565896 0.093226
O O6 0.473795 0.844673 0.067866
O O7 0.048913 0.429646 0.596840
O O8 0.884968 0.373892 0.700366
O O9 0.118154 0.228562 0.653413
O O10 0.963666 0.177522 0.620707
O O11 0.245578 0.979537 0.303136
O O12 0.500000 0.410658 0.250000
O O13 0.765215 0.488990 0.149731
O O14 0.729032 0.254828 0.205926
O O15 0.000000 0.594619 0.250000
#
# Coordination Sequence:
#
# PCOD9299486 Si02
#       7
#     8   8   8   8   8   8   8
#     4  10  25  42  56  96 117 146 212 255 281 363
#     4  11  23  40  67  82 120 160 196 250 310 337
#     4   9  22  35  57  88 122 148 198 241 281 358
#     4  11  21  40  61  87 119 160 194 243 303 350
#     4   9  19  37  53  84 118 152 191 235 279 353
#     4  11  21  39  64  86 118 161 191 241 304 346
#     4   9  20  35  55  84 117 152 192 238 283 355
#
# _framework density 22.121714000000001
#
# number of rings (size 3 to 8) (size 9 to 14) (size 15 to 20)
#    0.000    2.286    1.429    1.714    8.000    0.000 
#    0.000    1.429    0.000    9.429    0.000    0.000 
#    0.000    0.000    0.000    0.000    0.000    0.000 
#
# Total GULP energy -156082.294253 kJ/mol
# GULP energy per Si atom -5574.367652 kJ/mol
# Density = 2.207136 g / cm^3
# Si number density = 22.121714 Si / 1000 Ang^3
#
#
#
# Elastic Constant Matrix: (Units=GPa)
#
#
# Indices 1 2 3 4 5 6 
#
# 1 57.7770 12.7027 13.6583 0.0000 24.0117 0.0000
# 2 12.7027 78.8429 21.0518 0.0000 15.1884 0.0000
# 3 13.6583 21.0518 44.0787 0.0000 14.4764 0.0000
# 4 0.0000 0.0000 0.0000 5.8349 0.0000 0.1654
# 5 24.0117 15.1884 14.4764 0.0000 27.8570 0.0000
# 6 0.0000 0.0000 0.0000 0.1654 0.0000 22.1869
#
#
#
# Elastic Compliance Matrix: (Units=1/GPa)
#
#
# Indices 1 2 3 4 5 6 
#
# 1 0.027004 0.000334 -0.000992 0.000000 -0.022943 0.000000
# 2 0.000334 0.015196 -0.005481 0.000000 -0.005725 0.000000
# 3 -0.000992 -0.005481 0.029360 0.000000 -0.011414 0.000000
# 4 0.000000 0.000000 0.000000 0.171418 0.000000 -0.001278
# 5 -0.022943 -0.005725 -0.011414 0.000000 0.064727 0.000000
# 6 0.000000 0.000000 0.000000 -0.001278 0.000000 0.045081
#
#
# Mechanical properties :
#
#
# Convention : Reuss Voigt Hill
#
# Bulk Modulus (GPa) = 16.86839 30.61379 23.74109
# Shear Modulus (GPa) = 12.99292 20.06148 16.52720
#
# Velocity S-wave (km/s) = 2.42613 3.01469 2.73628
# Velocity P-wave (km/s) = 3.93573 5.09771 4.55394
#
# Compressibility (1/GPa) = 0.05928248
#
# Stress axis : x y z
#
# Youngs Moduli (GPa) = 37.03163 65.80720 34.05948
#
# Poissons Ratio (x) = -0.02197 0.03379
# Poissons Ratio (y) = -0.01237 0.18667
# Poissons Ratio (z) = 0.03674 0.36068
#
# Static dielectric constant tensor:
#      x y z
#    x 1.843040 0.000000 -0.000060 
#    y 0.000000 1.833860 0.000000 
#    z -0.000060 0.000000 1.851360 
# 
# From -- ./inp_files/310227.got.cif
#   From: 2010.05.17/outbox.cif.g08.bks.cpg/sg15_156_cif.got.tgz:310227.got - 2010.06.03 18:47:42.
