data_PCOD9299808
_publ_section_title
;
Structure prediction by ZEFSAII (Michael W. Deem and Ramdas Pophale) SiO2 
 PCOD9299808
Probable space group: C 2/C
;
_chemical_formula_sum "Si O2"
_cell_formula_units_Z 40
_cell_length_a 17.261464
_cell_length_b 10.373368
_cell_length_c 8.625031
_cell_angle_alpha 90.000000
_cell_angle_beta 95.659605
_cell_angle_gamma 90.000000
_cell_volume 1536.865510
_symmetry_space_group_name_H-M "C 2/C"
_symmetry_group_IT_number 15
_symmetry_cell_setting 'monoclinic'
loop_
_space_group_symop_operation_xyz
x,y,z
-x,y,1/2-z
-x,-y,-z
x,-y,1/2+z
1/2+x,1/2+y,z
1/2-x,1/2+y,1/2-z
1/2-x,1/2-y,-z
1/2+x,1/2-y,1/2+z
loop_
_atom_site_type_symbol
_atom_site_label
_atom_site_fract_x
_atom_site_fract_y
_atom_site_fract_z
Si Si1 0.081618 0.952135 0.788434
Si Si2 0.500000 0.303747 0.250000
Si Si3 0.837289 0.616642 0.764030
Si Si4 0.307241 0.465935 0.448678
Si Si5 0.750000 0.250000 0.500000
Si Si6 0.927171 0.403760 0.964284
O O1 0.054920 0.093543 0.849120
O O2 0.000000 0.879489 0.750000
O O3 0.119082 0.999470 0.638925
O O4 0.153396 0.896187 0.898285
O O5 0.545182 0.214976 0.136591
O O6 0.752591 0.613483 0.665873
O O7 0.862741 0.482010 0.851407
O O8 0.895891 0.628914 0.629542
O O9 0.826966 0.720968 0.897660
O O10 0.264121 0.595633 0.490402
O O11 0.000000 0.500000 0.000000
#
# Coordination Sequence:
#
# PCOD9299808 Si02
#       6
#     8   4   8   8   4   8
#     4  10  25  46  74 102 147 192 247 312 371 463
#     4  10  26  44  78 108 150 198 258 310 400 442
#     4  12  26  46  77 110 155 201 257 323 380 470
#     4  12  24  48  73 107 146 195 249 312 370 464
#     4  12  28  46  78 106 158 198 256 304 406 440
#     4  12  24  46  73 113 154 200 261 323 383 460
#
# _framework density 26.026999
#
# number of rings (size 3 to 8) (size 9 to 14) (size 15 to 20)
#    0.600    0.000    6.000    0.600    5.600    1.600 
#    0.000    3.000    0.000    0.000    0.000    0.000 
#    0.000    0.000    0.000    0.000    0.000    0.000 
#
# Total GULP energy -111344.908746 kJ/mol
# GULP energy per Si atom -5567.245437 kJ/mol
# Density = 2.596776 g / cm^3
# Si number density = 26.026999 Si / 1000 Ang^3
#
#
#
# Elastic Constant Matrix: (Units=GPa)
#
#
# Indices 1 2 3 4 5 6 
#
# 1 113.8082 32.7811 44.6881 0.0000 -26.4689 0.0000
# 2 32.7811 104.9751 12.5121 0.0000 6.9744 0.0000
# 3 44.6881 12.5121 86.4005 0.0000 -11.9039 0.0000
# 4 0.0000 0.0000 0.0000 28.5089 0.0000 -20.3435
# 5 -26.4689 6.9744 -11.9039 0.0000 63.8957 0.0000
# 6 0.0000 0.0000 0.0000 -20.3435 0.0000 53.0581
#
#
#
# Elastic Compliance Matrix: (Units=1/GPa)
#
#
# Indices 1 2 3 4 5 6 
#
# 1 0.013204 -0.003775 -0.005617 0.000000 0.004836 0.000000
# 2 -0.003775 0.010888 -0.000004 0.000000 -0.002753 0.000000
# 3 -0.005617 -0.000004 0.014532 0.000000 0.000381 0.000000
# 4 0.000000 0.000000 0.000000 0.048289 0.000000 0.018515
# 5 0.004836 -0.002753 0.000381 0.000000 0.018025 0.000000
# 6 0.000000 0.000000 0.000000 0.018515 0.000000 0.025946
#
#
# Mechanical properties :
#
#
# Convention : Reuss Voigt Hill
#
# Bulk Modulus (GPa) = 50.41834 53.90515 52.16174
# Shear Modulus (GPa) = 31.99262 43.43938 37.71600
#
# Velocity S-wave (km/s) = 3.50981 4.08979 3.81085
# Velocity P-wave (km/s) = 5.98654 6.56186 6.28079
#
# Compressibility (1/GPa) = 0.01983405
#
# Stress axis : x y z
#
# Youngs Moduli (GPa) = 75.73410 91.84199 68.81365
#
# Poissons Ratio (x) = 0.34672 0.38649
# Poissons Ratio (y) = 0.28591 0.00024
# Poissons Ratio (z) = 0.42536 0.00032
#
# Static dielectric constant tensor:
#      x y z
#    x 2.120890 0.000000 0.009930 
#    y 0.000000 2.012810 0.000000 
#    z 0.009930 0.000000 2.134500 
# 
# From -- ./inp_files/46297.got.cif
#   From: 2010.05.17/outbox.cif.g08.bks.cpg/sg15_24_cif.got.tgz:46297.got - 2010.06.03 18:47:42.
