data_PCOD9299612
_publ_section_title
;
Structure prediction by ZEFSAII (Michael W. Deem and Ramdas Pophale) SiO2 
 PCOD9299612
Probable space group: C 2/C
;
_chemical_formula_sum "Si O2"
_cell_formula_units_Z 48
_cell_length_a 22.841775
_cell_length_b 9.441137
_cell_length_c 23.883122
_cell_angle_alpha 90.000000
_cell_angle_beta 153.793588
_cell_angle_gamma 90.000000
_cell_volume 2274.471345
_symmetry_space_group_name_H-M "C 2/C"
_symmetry_group_IT_number 15
_symmetry_cell_setting 'monoclinic'
loop_
_space_group_symop_operation_xyz
x,y,z
-x,y,1/2-z
-x,-y,-z
x,-y,1/2+z
1/2+x,1/2+y,z
1/2-x,1/2+y,1/2-z
1/2-x,1/2-y,-z
1/2+x,1/2-y,1/2+z
loop_
_atom_site_type_symbol
_atom_site_label
_atom_site_fract_x
_atom_site_fract_y
_atom_site_fract_z
Si Si1 0.342325 0.492638 0.374789
Si Si2 0.163335 0.036450 0.754043
Si Si3 0.389389 0.961853 0.037190
Si Si4 0.872011 0.345320 0.755804
Si Si5 0.220178 0.403032 0.946842
Si Si6 0.100109 0.871162 0.961653
O O1 0.500000 0.500000 0.500000
O O2 0.283266 0.457315 0.263640
O O3 0.269168 0.632333 0.334685
O O4 0.328649 0.390145 0.416554
O O5 0.086982 0.184571 0.698657
O O6 0.053118 0.914863 0.663787
O O7 0.274983 0.011482 0.896174
O O8 0.392190 0.793303 0.045141
O O9 0.525123 0.037634 0.134500
O O10 0.360135 0.019383 0.073828
O O11 0.852932 0.369054 0.673708
O O12 0.250000 0.250000 0.000000
O O13 0.333989 0.515702 0.024783
#
# Coordination Sequence:
#
# PCOD9299612 Si02
#       6
#     8   8   8   8   8   8
#     4   9  23  44  70  93 137 175 223 283 335 395
#     4  11  25  44  70  99 136 178 231 276 344 408
#     4  12  26  42  70 103 134 182 226 279 351 398
#     4  11  25  44  69  99 136 178 229 282 336 412
#     4  11  22  47  70  96 137 182 227 279 337 401
#     4  10  25  44  67  99 141 177 229 282 338 401
#
# _framework density 21.103805999999999
#
# number of rings (size 3 to 8) (size 9 to 14) (size 15 to 20)
#    0.000    1.333    1.667    2.000   11.667    2.667 
#    3.000    0.000    0.000    0.000    0.000    0.000 
#    0.000    0.000    0.000    0.000    0.000    0.000 
#
# Total GULP energy -133931.040224 kJ/mol
# GULP energy per Si atom -5580.460009 kJ/mol
# Density = 2.105577 g / cm^3
# Si number density = 21.103806 Si / 1000 Ang^3
#
#
#
# Elastic Constant Matrix: (Units=GPa)
#
#
# Indices 1 2 3 4 5 6 
#
# 1 113.0860 42.4785 31.2341 0.0000 -10.2437 0.0000
# 2 42.4785 160.7804 9.9891 0.0000 2.5757 0.0000
# 3 31.2341 9.9891 60.8585 0.0000 -8.0681 0.0000
# 4 0.0000 0.0000 0.0000 29.5953 0.0000 3.2267
# 5 -10.2437 2.5757 -8.0681 0.0000 31.4093 0.0000
# 6 0.0000 0.0000 0.0000 3.2267 0.0000 20.2484
#
#
#
# Elastic Compliance Matrix: (Units=1/GPa)
#
#
# Indices 1 2 3 4 5 6 
#
# 1 0.011539 -0.002774 -0.005112 0.000000 0.002678 0.000000
# 2 -0.002774 0.006970 0.000087 0.000000 -0.001454 0.000000
# 3 -0.005112 0.000087 0.019482 0.000000 0.003330 0.000000
# 4 0.000000 0.000000 0.000000 0.034387 0.000000 -0.005480
# 5 0.002678 -0.001454 0.003330 0.000000 0.033686 0.000000
# 6 0.000000 0.000000 0.000000 -0.005480 0.000000 0.050260
#
#
# Mechanical properties :
#
#
# Convention : Reuss Voigt Hill
#
# Bulk Modulus (GPa) = 44.65508 55.79203 50.22355
# Shear Modulus (GPa) = 27.87270 32.98549 30.42910
#
# Velocity S-wave (km/s) = 3.63815 3.95778 3.80133
# Velocity P-wave (km/s) = 6.23328 6.88329 6.56634
#
# Compressibility (1/GPa) = 0.02239387
#
# Stress axis : x y z
#
# Youngs Moduli (GPa) = 86.66046 143.46252 51.32853
#
# Poissons Ratio (x) = 0.39797 0.26239
# Poissons Ratio (y) = 0.24040 -0.00446
# Poissons Ratio (z) = 0.44300 -0.01246
#
# Static dielectric constant tensor:
#      x y z
#    x 1.772080 0.000000 0.036630 
#    y 0.000000 1.749860 0.000000 
#    z 0.036630 0.000000 1.792160 
# 
# From -- ./inp_files/281717.got.cif
#   From: 2010.05.17/outbox.cif.g08.bks.cpg/sg15_141_cif.got.tgz:281717.got - 2010.06.03 18:47:42.
