data_PCOD9299602
_publ_section_title
;
Structure prediction by ZEFSAII (Michael W. Deem and Ramdas Pophale) SiO2 
 PCOD9299602
Probable space group: C 2/C
;
_chemical_formula_sum "Si O2"
_cell_formula_units_Z 44
_cell_length_a 11.262144
_cell_length_b 8.511168
_cell_length_c 21.398463
_cell_angle_alpha 90.000000
_cell_angle_beta 65.332747
_cell_angle_gamma 90.000000
_cell_volume 1863.956366
_symmetry_space_group_name_H-M "C 2/C"
_symmetry_group_IT_number 15
_symmetry_cell_setting 'monoclinic'
loop_
_space_group_symop_operation_xyz
x,y,z
-x,y,1/2-z
-x,-y,-z
x,-y,1/2+z
1/2+x,1/2+y,z
1/2-x,1/2+y,1/2-z
1/2-x,1/2-y,-z
1/2+x,1/2-y,1/2+z
loop_
_atom_site_type_symbol
_atom_site_label
_atom_site_fract_x
_atom_site_fract_y
_atom_site_fract_z
Si Si1 0.193762 0.838422 0.188780
Si Si2 0.000000 0.917124 0.750000
Si Si3 0.096483 0.413091 0.810157
Si Si4 0.602944 0.819768 0.152631
Si Si5 0.602087 0.306218 0.428437
Si Si6 0.071301 0.826757 0.914928
O O1 0.139894 0.707287 0.247394
O O2 0.286459 0.753987 0.118180
O O3 0.288057 0.959421 0.205429
O O4 0.075701 0.949894 0.191438
O O5 0.110259 0.779023 0.715546
O O6 0.078616 0.316600 0.878262
O O7 0.962834 0.510337 0.826862
O O8 0.743648 0.810498 0.090736
O O9 0.500826 0.724662 0.132451
O O10 0.512801 0.270556 0.507652
O O11 0.576317 0.485813 0.414305
#
# Coordination Sequence:
#
# PCOD9299602 Si02
#       6
#     8   4   8   8   8   8
#     4  11  23  40  65  99 130 170 215 279 312 397
#     4  12  24  40  64 102 132 168 224 266 330 378
#     4  11  23  42  68  94 133 167 224 264 332 379
#     4  11  25  42  67  99 125 176 216 271 320 394
#     4  11  23  47  67  93 133 178 208 275 321 391
#     4  10  25  44  66  96 135 168 223 263 327 383
#
# _framework density 23.605705
#
# number of rings (size 3 to 8) (size 9 to 14) (size 15 to 20)
#    0.000    1.091    1.818    4.909    5.091    2.909 
#    3.273    1.818    0.000    0.000    0.000    0.000 
#    0.000    0.000    0.000    0.000    0.000    0.000 
#
# Total GULP energy -122743.157328 kJ/mol
# GULP energy per Si atom -5579.234424 kJ/mol
# Density = 2.355198 g / cm^3
# Si number density = 23.605705 Si / 1000 Ang^3
#
#
#
# Elastic Constant Matrix: (Units=GPa)
#
#
# Indices 1 2 3 4 5 6 
#
# 1 60.2304 36.5028 41.9351 0.0000 -18.2057 0.0000
# 2 36.5028 134.0648 79.6271 0.0000 -8.9360 0.0000
# 3 41.9351 79.6271 141.8000 0.0000 -30.8776 0.0000
# 4 0.0000 0.0000 0.0000 43.1954 0.0000 -9.4322
# 5 -18.2057 -8.9360 -30.8776 0.0000 35.7741 0.0000
# 6 0.0000 0.0000 0.0000 -9.4322 0.0000 51.9586
#
#
#
# Elastic Compliance Matrix: (Units=1/GPa)
#
#
# Indices 1 2 3 4 5 6 
#
# 1 0.023696 -0.004247 -0.002743 0.000000 0.008630 0.000000
# 2 -0.004247 0.012266 -0.006693 0.000000 -0.004875 0.000000
# 3 -0.002743 -0.006693 0.013489 0.000000 0.008575 0.000000
# 4 0.000000 0.000000 0.000000 0.024106 0.000000 0.004376
# 5 0.008630 -0.004875 0.008575 0.000000 0.038529 0.000000
# 6 0.000000 0.000000 0.000000 0.004376 0.000000 0.020040
#
#
# Mechanical properties :
#
#
# Convention : Reuss Voigt Hill
#
# Bulk Modulus (GPa) = 45.28342 72.46946 58.87644
# Shear Modulus (GPa) = 29.96609 38.05431 34.01020
#
# Velocity S-wave (km/s) = 3.56679 4.01943 3.79985
# Velocity P-wave (km/s) = 6.01561 7.23241 6.65189
#
# Compressibility (1/GPa) = 0.02208314
#
# Stress axis : x y z
#
# Youngs Moduli (GPa) = 42.20209 81.52568 74.13222
#
# Poissons Ratio (x) = 0.34625 0.20337
# Poissons Ratio (y) = 0.17924 0.49620
# Poissons Ratio (z) = 0.11578 0.54569
#
# Static dielectric constant tensor:
#      x y z
#    x 1.999710 0.000000 0.047440 
#    y 0.000000 1.888180 0.000000 
#    z 0.047440 0.000000 1.921750 
# 
# From -- ./inp_files/202627.got.cif
#   From: 2010.05.17/outbox.cif.g08.bks.cpg/sg15_102_cif.got.tgz:202627.got - 2010.06.03 18:47:42.
