data_PCOD9299408
_publ_section_title
;
Structure prediction by ZEFSAII (Michael W. Deem and Ramdas Pophale) SiO2 
 PCOD9299408
Probable space group: C 2/C
;
_chemical_formula_sum "Si O2"
_cell_formula_units_Z 40
_cell_length_a 10.296186
_cell_length_b 18.779957
_cell_length_c 9.137673
_cell_angle_alpha 90.000000
_cell_angle_beta 61.546383
_cell_angle_gamma 90.000000
_cell_volume 1553.444697
_symmetry_space_group_name_H-M "C 2/C"
_symmetry_group_IT_number 15
_symmetry_cell_setting 'monoclinic'
loop_
_space_group_symop_operation_xyz
x,y,z
-x,y,1/2-z
-x,-y,-z
x,-y,1/2+z
1/2+x,1/2+y,z
1/2-x,1/2+y,1/2-z
1/2-x,1/2-y,-z
1/2+x,1/2-y,1/2+z
loop_
_atom_site_type_symbol
_atom_site_label
_atom_site_fract_x
_atom_site_fract_y
_atom_site_fract_z
Si Si1 0.857918 0.864488 0.655074
Si Si2 0.111453 0.887880 0.312968
Si Si3 0.347624 0.216475 0.818201
Si Si4 0.383063 0.907086 0.496477
Si Si5 0.674190 0.944025 0.517399
O O1 0.892694 0.783176 0.687608
O O2 0.771381 0.894094 0.840523
O O3 0.737750 0.884509 0.592731
O O4 0.006474 0.900090 0.509690
O O5 0.237525 0.832968 0.287163
O O6 0.000000 0.857294 0.250000
O O7 0.202013 0.948443 0.178127
O O8 0.250000 0.250000 0.000000
O O9 0.434725 0.164245 0.888548
O O10 0.515495 0.924168 0.536438
O O11 0.351025 0.975627 0.411151
#
# Coordination Sequence:
#
# PCOD9299408 Si02
#       5
#     8   8   8   8   8
#     4  11  27  45  75 110 158 200 250 320 391 446
#     4  10  25  48  72 113 153 201 249 311 392 445
#     4  12  27  47  76 109 156 200 259 318 373 470
#     4  11  25  46  82 111 153 200 265 312 384 461
#     4  10  24  50  76 113 151 208 252 317 384 473
#
# _framework density 25.749229
#
# number of rings (size 3 to 8) (size 9 to 14) (size 15 to 20)
#    0.000    1.200    2.000    1.200    8.400    5.600 
#    7.200    0.000    0.000    0.000    0.000    0.000 
#    0.000    0.000    0.000    0.000    0.000    0.000 
#
# Total GULP energy -111442.373522 kJ/mol
# GULP energy per Si atom -5572.118676 kJ/mol
# Density = 2.569062 g / cm^3
# Si number density = 25.749229 Si / 1000 Ang^3
#
#
#
# Elastic Constant Matrix: (Units=GPa)
#
#
# Indices 1 2 3 4 5 6 
#
# 1 148.0677 33.9043 6.5735 0.0000 18.6172 0.0000
# 2 33.9043 164.2878 24.8618 0.0000 20.5763 0.0000
# 3 6.5735 24.8618 107.8444 0.0000 -19.9795 0.0000
# 4 0.0000 0.0000 0.0000 5.4155 0.0000 -3.2957
# 5 18.6172 20.5763 -19.9795 0.0000 58.2736 0.0000
# 6 0.0000 0.0000 0.0000 -3.2957 0.0000 24.9077
#
#
#
# Elastic Compliance Matrix: (Units=1/GPa)
#
#
# Indices 1 2 3 4 5 6 
#
# 1 0.007311 -0.001156 -0.000573 0.000000 -0.002124 0.000000
# 2 -0.001156 0.006989 -0.002060 0.000000 -0.002805 0.000000
# 3 -0.000573 -0.002060 0.010626 0.000000 0.004554 0.000000
# 4 0.000000 0.000000 0.000000 0.200826 0.000000 0.026573
# 5 -0.002124 -0.002805 0.004554 0.000000 0.020390 0.000000
# 6 0.000000 0.000000 0.000000 0.026573 0.000000 0.043664
#
#
# Mechanical properties :
#
#
# Convention : Reuss Voigt Hill
#
# Bulk Modulus (GPa) = 57.64461 61.20878 59.42669
# Shear Modulus (GPa) = 16.49261 41.37671 28.93466
#
# Velocity S-wave (km/s) = 2.53357 4.01298 3.35581
# Velocity P-wave (km/s) = 5.56724 6.73013 6.17612
#
# Compressibility (1/GPa) = 0.01734768
#
# Stress axis : x y z
#
# Youngs Moduli (GPa) = 136.78321 143.09207 94.10819
#
# Poissons Ratio (x) = 0.16543 0.05388
# Poissons Ratio (y) = 0.15814 0.19388
# Poissons Ratio (z) = 0.07831 0.29480
#
# Static dielectric constant tensor:
#      x y z
#    x 1.964530 0.000000 0.089210 
#    y 0.000000 1.959750 0.000000 
#    z 0.089210 0.000000 2.002790 
# 
# From -- ./inp_files/30197.got.cif
#   From: 2010.05.17/outbox.cif.g08.bks.cpg/sg15_16_cif.got.tgz:30197.got - 2010.06.03 18:47:42.
