data_PCOD9299137
_publ_section_title
;
Structure prediction by ZEFSAII (Michael W. Deem and Ramdas Pophale) SiO2 
 PCOD9299137
Probable space group: C 2/C
;
_chemical_formula_sum "Si O2"
_cell_formula_units_Z 44
_cell_length_a 10.769287
_cell_length_b 18.522532
_cell_length_c 10.319979
_cell_angle_alpha 90.000000
_cell_angle_beta 103.358627
_cell_angle_gamma 90.000000
_cell_volume 2002.873415
_symmetry_space_group_name_H-M "C 2/C"
_symmetry_group_IT_number 15
_symmetry_cell_setting 'monoclinic'
loop_
_space_group_symop_operation_xyz
x,y,z
-x,y,1/2-z
-x,-y,-z
x,-y,1/2+z
1/2+x,1/2+y,z
1/2-x,1/2+y,1/2-z
1/2-x,1/2-y,-z
1/2+x,1/2-y,1/2+z
loop_
_atom_site_type_symbol
_atom_site_label
_atom_site_fract_x
_atom_site_fract_y
_atom_site_fract_z
Si Si1 0.736387 0.052420 0.702528
Si Si2 0.873786 0.204248 0.480677
Si Si3 0.226618 0.577118 0.999154
Si Si4 0.000000 0.861214 0.250000
Si Si5 0.981198 0.342088 0.395940
Si Si6 0.495326 0.571064 0.403521
O O1 0.706618 0.043464 0.849122
O O2 0.639459 0.106656 0.606268
O O3 0.875194 0.089290 0.734734
O O4 0.729382 0.981306 0.614295
O O5 0.750000 0.250000 0.500000
O O6 0.944332 0.260168 0.406041
O O7 0.963948 0.189954 0.624066
O O8 0.878492 0.124614 0.413645
O O9 0.110757 0.631886 0.994274
O O10 0.368939 0.609625 0.034329
O O11 0.000000 0.353652 0.250000
O O12 0.500000 0.556513 0.250000
O O13 0.500000 0.500000 0.500000
#
# Coordination Sequence:
#
# PCOD9299137 Si02
#       6
#     8   8   8   4   8   8
#     4  11  23  45  71 106 142 192 236 304 362 434
#     4  12  26  47  74 106 148 194 246 309 377 445
#     4  11  24  42  72 102 148 187 243 296 370 430
#     4  12  24  44  72  98 142 186 240 302 362 422
#     4  10  24  47  70 102 148 190 239 306 373 442
#     4  12  27  45  76 112 148 198 255 311 372 449
#
# _framework density 21.968437000000002
#
# number of rings (size 3 to 8) (size 9 to 14) (size 15 to 20)
#    0.000    0.727    3.636    3.273    2.545    2.182 
#    3.273    0.000    0.000    0.000    0.000    0.000 
#    0.000    0.000    0.000    0.000    0.000    0.000 
#
# Total GULP energy -122709.077401 kJ/mol
# GULP energy per Si atom -5577.685336 kJ/mol
# Density = 2.191844 g / cm^3
# Si number density = 21.968437 Si / 1000 Ang^3
#
#
#
# Elastic Constant Matrix: (Units=GPa)
#
#
# Indices 1 2 3 4 5 6 
#
# 1 114.4127 58.0931 23.9615 0.0000 15.1815 0.0000
# 2 58.0931 100.3465 11.4413 0.0000 5.1606 0.0000
# 3 23.9615 11.4413 87.5171 0.0000 -0.5671 0.0000
# 4 0.0000 0.0000 0.0000 38.5094 0.0000 1.1150
# 5 15.1815 5.1606 -0.5671 0.0000 33.7412 0.0000
# 6 0.0000 0.0000 0.0000 1.1150 0.0000 40.5810
#
#
#
# Elastic Compliance Matrix: (Units=1/GPa)
#
#
# Indices 1 2 3 4 5 6 
#
# 1 0.013759 -0.007379 -0.002835 0.000000 -0.005110 0.000000
# 2 -0.007379 0.014158 0.000177 0.000000 0.001158 0.000000
# 3 -0.002835 0.000177 0.012189 0.000000 0.001454 0.000000
# 4 0.000000 0.000000 0.000000 0.025988 0.000000 -0.000714
# 5 -0.005110 0.001158 0.001454 0.000000 0.031784 0.000000
# 6 0.000000 0.000000 0.000000 -0.000714 0.000000 0.024662
#
#
# Mechanical properties :
#
#
# Convention : Reuss Voigt Hill
#
# Bulk Modulus (GPa) = 49.92474 54.36310 52.14392
# Shear Modulus (GPa) = 33.49141 36.48501 34.98821
#
# Velocity S-wave (km/s) = 3.90875 4.07970 3.99514
# Velocity P-wave (km/s) = 6.56857 6.85505 6.71334
#
# Compressibility (1/GPa) = 0.02003015
#
# Stress axis : x y z
#
# Youngs Moduli (GPa) = 72.67961 70.63225 82.04149
#
# Poissons Ratio (x) = 0.52122 0.23263
# Poissons Ratio (y) = 0.53633 -0.01452
# Poissons Ratio (z) = 0.20608 -0.01250
#
# Static dielectric constant tensor:
#      x y z
#    x 1.926090 0.000000 -0.015560 
#    y 0.000000 1.845010 0.000000 
#    z -0.015560 0.000000 1.808490 
# 
# From -- ./inp_files/87538.got.cif
#   From: 2010.05.17/outbox.cif.g08.bks.cpg/sg15_44_cif.got.tgz:87538.got - 2010.06.03 18:47:42.
