data_PCOD9299595
_publ_section_title
;
Structure prediction by ZEFSAII (Michael W. Deem and Ramdas Pophale) SiO2 
 PCOD9299595
Probable space group: C 2/C
;
_chemical_formula_sum "Si O2"
_cell_formula_units_Z 36
_cell_length_a 11.389808
_cell_length_b 11.832724
_cell_length_c 19.823201
_cell_angle_alpha 90.000000
_cell_angle_beta 148.460067
_cell_angle_gamma 90.000000
_cell_volume 1397.505669
_symmetry_space_group_name_H-M "C 2/C"
_symmetry_group_IT_number 15
_symmetry_cell_setting 'monoclinic'
loop_
_space_group_symop_operation_xyz
x,y,z
-x,y,1/2-z
-x,-y,-z
x,-y,1/2+z
1/2+x,1/2+y,z
1/2-x,1/2+y,1/2-z
1/2-x,1/2-y,-z
1/2+x,1/2-y,1/2+z
loop_
_atom_site_type_symbol
_atom_site_label
_atom_site_fract_x
_atom_site_fract_y
_atom_site_fract_z
Si Si1 0.382701 0.414195 0.266140
Si Si2 0.246888 0.637502 0.135125
Si Si3 0.405822 0.715440 0.412613
Si Si4 0.000000 0.552792 0.250000
Si Si5 0.239819 0.044972 0.506165
O O1 0.500000 0.393353 0.250000
O O2 0.266800 0.537323 0.198868
O O3 0.218977 0.309221 0.194377
O O4 0.572602 0.437740 0.414422
O O5 0.500000 0.686344 0.250000
O O6 0.199197 0.576815 0.040062
O O7 0.040079 0.721982 0.038784
O O8 0.595106 0.647443 0.465374
O O9 0.215518 0.629701 0.342113
O O10 0.061936 0.480179 0.345604
#
# Coordination Sequence:
#
# PCOD9299595 Si02
#       5
#     8   8   8   4   8
#     4   9  21  46  67  99 128 165 226 272 318 387
#     4   9  22  45  71  98 126 168 227 271 316 389
#     4  12  23  43  71  94 132 181 213 274 329 384
#     4  12  28  44  60 102 140 170 216 266 346 390
#     4  10  25  44  64  98 136 172 213 275 324 396
#
# _framework density 25.760182
#
# number of rings (size 3 to 8) (size 9 to 14) (size 15 to 20)
#    0.000    2.222    1.111    2.000    4.667    4.444 
#    4.000    0.000    0.000    0.000    0.000    0.000 
#    0.000    0.000    0.000    0.000    0.000    0.000 
#
# Total GULP energy -100818.750660 kJ/mol
# GULP energy per Si atom -5601.041703 kJ/mol
# Density = 2.570155 g / cm^3
# Si number density = 25.760182 Si / 1000 Ang^3
#
#
#
# Elastic Constant Matrix: (Units=GPa)
#
#
# Indices 1 2 3 4 5 6 
#
# 1 58.4757 33.8620 39.8223 0.0002 4.0813 0.0000
# 2 33.8620 82.5262 42.8586 -0.0001 4.1984 0.0000
# 3 39.8223 42.8586 189.6709 0.0005 -13.3866 -0.0001
# 4 0.0002 -0.0001 0.0005 48.1680 0.0002 20.7908
# 5 4.0813 4.1984 -13.3866 0.0002 40.0864 -0.0001
# 6 0.0000 0.0000 -0.0001 20.7908 -0.0001 29.2495
#
#
#
# Elastic Compliance Matrix: (Units=1/GPa)
#
#
# Indices 1 2 3 4 5 6 
#
# 1 0.024320 -0.008024 -0.003491 0.000000 -0.002802 0.000000
# 2 -0.008024 0.016631 -0.002190 0.000000 -0.001656 0.000000
# 3 -0.003491 -0.002190 0.006699 0.000000 0.002822 0.000000
# 4 0.000000 0.000000 0.000000 0.029949 0.000000 -0.021288
# 5 -0.002802 -0.001656 0.002822 0.000000 0.026347 0.000000
# 6 0.000000 0.000000 0.000000 -0.021288 0.000000 0.049320
#
#
# Mechanical properties :
#
#
# Convention : Reuss Voigt Hill
#
# Bulk Modulus (GPa) = 49.40395 62.63984 56.02189
# Shear Modulus (GPa) = 26.67737 37.77611 32.22674
#
# Velocity S-wave (km/s) = 3.22157 3.83358 3.54083
# Velocity P-wave (km/s) = 5.74962 6.63057 6.20575
#
# Compressibility (1/GPa) = 0.02024130
#
# Stress axis : x y z
#
# Youngs Moduli (GPa) = 41.11798 60.12713 149.26874
#
# Poissons Ratio (x) = 0.48244 0.52107
# Poissons Ratio (y) = 0.32992 0.32696
# Poissons Ratio (z) = 0.14354 0.13170
#
# Static dielectric constant tensor:
#      x y z
#    x 2.055050 0.000000 0.050420 
#    y 0.000000 2.076310 0.000000 
#    z 0.050420 0.000000 2.043970 
# 
# From -- ./inp_files/273720.got.cif
#   From: 2010.05.17/outbox.cif.g08.bks.cpg/sg15_137_cif.got.tgz:273720.got - 2010.06.03 18:47:42.
