data_PCOD9299097
_publ_section_title
;
Structure prediction by ZEFSAII (Michael W. Deem and Ramdas Pophale) SiO2 
 PCOD9299097
Probable space group: C 2/C
;
_chemical_formula_sum "Si O2"
_cell_formula_units_Z 28
_cell_length_a 13.302690
_cell_length_b 8.304598
_cell_length_c 10.186493
_cell_angle_alpha 90.000000
_cell_angle_beta 77.121122
_cell_angle_gamma 90.000000
_cell_volume 1097.027829
_symmetry_space_group_name_H-M "C 2/C"
_symmetry_group_IT_number 15
_symmetry_cell_setting 'monoclinic'
loop_
_space_group_symop_operation_xyz
x,y,z
-x,y,1/2-z
-x,-y,-z
x,-y,1/2+z
1/2+x,1/2+y,z
1/2-x,1/2+y,1/2-z
1/2-x,1/2-y,-z
1/2+x,1/2-y,1/2+z
loop_
_atom_site_type_symbol
_atom_site_label
_atom_site_fract_x
_atom_site_fract_y
_atom_site_fract_z
Si Si1 0.000000 0.136928 0.750000
Si Si2 0.177153 0.310213 0.403603
Si Si3 0.032892 0.812444 0.599643
Si Si4 0.179029 0.311524 0.852350
O O1 0.906858 0.245701 0.725921
O O2 0.028716 0.002106 0.631374
O O3 0.250000 0.250000 0.500000
O O4 0.059612 0.259140 0.460950
O O5 0.180651 0.500501 0.381927
O O6 0.217138 0.230685 0.256066
O O7 0.000000 0.735725 0.750000
O O8 0.139945 0.772615 0.497714
#
# Coordination Sequence:
#
# PCOD9299097 Si02
#       4
#     4   8   8   8
#     4  10  24  46  80 110 148 204 252 314 378 436
#     4  12  29  47  77 118 151 201 251 312 388 449
#     4  10  26  49  77 110 151 201 257 309 387 436
#     4  12  26  50  77 110 160 194 254 315 376 461
#
# _framework density 25.523509000000001
#
# number of rings (size 3 to 8) (size 9 to 14) (size 15 to 20)
#    0.857    0.000    0.000    5.143    6.000    3.429 
#    0.000    0.000    0.000    0.000    0.000    0.000 
#    0.000    0.000    0.000    0.000    0.000    0.000 
#
# Total GULP energy -78346.317620 kJ/mol
# GULP energy per Si atom -5596.165544 kJ/mol
# Density = 2.546542 g / cm^3
# Si number density = 25.523509 Si / 1000 Ang^3
#
#
#
# Elastic Constant Matrix: (Units=GPa)
#
#
# Indices 1 2 3 4 5 6 
#
# 1 120.4252 30.2262 32.8666 0.0000 -17.7492 0.0000
# 2 30.2262 215.3554 41.1518 0.0000 -2.5058 0.0000
# 3 32.8666 41.1518 149.0018 0.0000 -14.0211 0.0000
# 4 0.0000 0.0000 0.0000 38.7441 0.0000 0.5695
# 5 -17.7492 -2.5058 -14.0211 0.0000 59.9382 0.0000
# 6 0.0000 0.0000 0.0000 0.5695 0.0000 46.4022
#
#
#
# Elastic Compliance Matrix: (Units=1/GPa)
#
#
# Indices 1 2 3 4 5 6 
#
# 1 0.009324 -0.000982 -0.001564 0.000000 0.002354 0.000000
# 2 -0.000982 0.005006 -0.001200 0.000000 -0.000362 0.000000
# 3 -0.001564 -0.001200 0.007505 0.000000 0.001242 0.000000
# 4 0.000000 0.000000 0.000000 0.025815 0.000000 -0.000317
# 5 0.002354 -0.000362 0.001242 0.000000 0.017656 0.000000
# 6 0.000000 0.000000 0.000000 -0.000317 0.000000 0.021555
#
#
# Mechanical properties :
#
#
# Convention : Reuss Voigt Hill
#
# Bulk Modulus (GPa) = 69.72263 77.03017 73.37640
# Shear Modulus (GPa) = 50.43617 54.38610 52.41114
#
# Velocity S-wave (km/s) = 4.45012 4.62109 4.53641
# Velocity P-wave (km/s) = 7.33356 7.66278 7.49998
#
# Compressibility (1/GPa) = 0.01434255
#
# Stress axis : x y z
#
# Youngs Moduli (GPa) = 107.24660 199.74070 133.25120
#
# Poissons Ratio (x) = 0.19624 0.20839
# Poissons Ratio (y) = 0.10537 0.15991
# Poissons Ratio (z) = 0.16772 0.23971
#
# Static dielectric constant tensor:
#      x y z
#    x 2.021560 0.000000 0.077170 
#    y 0.000000 1.876000 0.000000 
#    z 0.077170 0.000000 2.192210 
# 
# From -- ./inp_files/93023.got.cif
#   From: 2010.05.17/outbox.cif.g08.bks.cpg/sg15_47_cif.got.tgz:93023.got - 2010.06.03 18:47:42.
