data_PCOD9299304
_publ_section_title
;
Structure prediction by ZEFSAII (Michael W. Deem and Ramdas Pophale) SiO2 
 PCOD9299304
Probable space group: C 2/C
;
_chemical_formula_sum "Si O2"
_cell_formula_units_Z 40
_cell_length_a 9.298861
_cell_length_b 21.909719
_cell_length_c 15.546355
_cell_angle_alpha 90.000000
_cell_angle_beta 33.055876
_cell_angle_gamma 90.000000
_cell_volume 1727.648536
_symmetry_space_group_name_H-M "C 2/C"
_symmetry_group_IT_number 15
_symmetry_cell_setting 'monoclinic'
loop_
_space_group_symop_operation_xyz
x,y,z
-x,y,1/2-z
-x,-y,-z
x,-y,1/2+z
1/2+x,1/2+y,z
1/2-x,1/2+y,1/2-z
1/2-x,1/2-y,-z
1/2+x,1/2-y,1/2+z
loop_
_atom_site_type_symbol
_atom_site_label
_atom_site_fract_x
_atom_site_fract_y
_atom_site_fract_z
Si Si1 0.028097 0.626133 0.143666
Si Si2 0.856704 0.667258 0.649400
Si Si3 0.733996 0.954015 0.392068
Si Si4 0.950777 0.773613 0.488529
Si Si5 0.465267 0.325365 0.866445
O O1 0.198239 0.686764 0.085683
O O2 0.000000 0.594375 0.250000
O O3 0.737272 0.637588 0.248410
O O4 0.187039 0.581878 0.003152
O O5 0.743045 0.600370 0.689189
O O6 0.859144 0.704490 0.557047
O O7 0.162108 0.652765 0.518332
O O8 0.000000 0.991577 0.250000
O O9 0.500000 0.000000 0.500000
O O10 0.039213 0.787582 0.542227
O O11 0.183287 0.794199 0.306106
O O12 0.500000 0.301721 0.750000
#
# Coordination Sequence:
#
# PCOD9299304 Si02
#       5
#     8   8   8   8   8
#     4  10  24  48  75 109 149 196 254 312 383 450
#     4  12  25  45  74 112 155 196 252 311 391 452
#     4  12  28  51  78 108 149 203 258 307 374 455
#     4  11  25  45  72 115 156 197 247 316 390 460
#     4  11  22  42  70 109 153 199 239 308 383 455
#
# _framework density 23.152857000000001
#
# number of rings (size 3 to 8) (size 9 to 14) (size 15 to 20)
#    0.000    0.800    4.000    2.400    5.600    3.200 
#    0.000    3.000    0.000    0.000    0.000    0.000 
#    0.000    0.000    0.000    0.000    0.000    0.000 
#
# Total GULP energy -111472.453540 kJ/mol
# GULP energy per Si atom -5573.622677 kJ/mol
# Density = 2.310016 g / cm^3
# Si number density = 23.152857 Si / 1000 Ang^3
#
#
#
# Elastic Constant Matrix: (Units=GPa)
#
#
# Indices 1 2 3 4 5 6 
#
# 1 160.0067 30.1772 72.2642 0.0013 5.1853 0.0012
# 2 30.1772 68.9391 50.8891 0.0106 -1.0991 0.0008
# 3 72.2642 50.8891 235.8344 0.0032 -14.3657 -0.0041
# 4 0.0013 0.0106 0.0032 26.1784 -0.0030 -10.4310
# 5 5.1853 -1.0991 -14.3657 -0.0030 50.4835 -0.0035
# 6 0.0012 0.0008 -0.0041 -10.4310 -0.0035 15.1288
#
#
#
# Elastic Compliance Matrix: (Units=1/GPa)
#
#
# Indices 1 2 3 4 5 6 
#
# 1 0.007546 -0.001851 -0.001997 0.000000 -0.001384 -0.000001
# 2 -0.001851 0.017732 -0.003281 -0.000010 -0.000357 -0.000009
# 3 -0.001997 -0.003281 0.005667 0.000003 0.001746 0.000004
# 4 0.000000 -0.000010 0.000003 0.052669 0.000006 0.036314
# 5 -0.001384 -0.000357 0.001746 0.000006 0.020440 0.000010
# 6 -0.000001 -0.000009 0.000004 0.036314 0.000010 0.091137
#
#
# Mechanical properties :
#
#
# Convention : Reuss Voigt Hill
#
# Bulk Modulus (GPa) = 59.92883 85.71570 72.82227
# Shear Modulus (GPa) = 23.25476 39.12144 31.18810
#
# Velocity S-wave (km/s) = 3.17267 4.11506 3.67420
# Velocity P-wave (km/s) = 6.27386 7.72530 7.03710
#
# Compressibility (1/GPa) = 0.01668646
#
# Stress axis : x y z
#
# Youngs Moduli (GPa) = 132.52825 56.39544 176.47554
#
# Poissons Ratio (x) = 0.10438 0.35242
# Poissons Ratio (y) = 0.24530 0.57899
# Poissons Ratio (z) = 0.26466 0.18503
#
# Static dielectric constant tensor:
#      x y z
#    x 1.923840 0.000000 -0.025390 
#    y 0.000000 1.968800 0.000010 
#    z -0.025390 0.000010 1.943530 
# 
# From -- ./inp_files/78755.got.cif
#   From: 2010.05.17/outbox.cif.g08.bks.cpg/sg15_40_cif.got.tgz:78755.got - 2010.06.03 18:47:42.
