data_PCOD9299922
_publ_section_title
;
Structure prediction by ZEFSAII (Michael W. Deem and Ramdas Pophale) SiO2 
 PCOD9299922
Probable space group: C 2/C
;
_chemical_formula_sum "Si O2"
_cell_formula_units_Z 32
_cell_length_a 16.063948
_cell_length_b 19.657131
_cell_length_c 8.496726
_cell_angle_alpha 90.000000
_cell_angle_beta 30.289893
_cell_angle_gamma 90.000000
_cell_volume 1353.249441
_symmetry_space_group_name_H-M "C 2/C"
_symmetry_group_IT_number 15
_symmetry_cell_setting 'monoclinic'
loop_
_space_group_symop_operation_xyz
x,y,z
-x,y,1/2-z
-x,-y,-z
x,-y,1/2+z
1/2+x,1/2+y,z
1/2-x,1/2+y,1/2-z
1/2-x,1/2-y,-z
1/2+x,1/2-y,1/2+z
loop_
_atom_site_type_symbol
_atom_site_label
_atom_site_fract_x
_atom_site_fract_y
_atom_site_fract_z
Si Si1 0.195088 0.743338 0.911489
Si Si2 0.831727 0.597174 0.678815
Si Si3 0.869198 0.622174 0.096127
Si Si4 0.313458 0.478157 0.776675
O O1 0.232116 0.671157 0.770593
O O2 0.299185 0.804181 0.664875
O O3 0.250000 0.750000 0.000000
O O4 0.000000 0.754483 0.250000
O O5 0.795805 0.542835 0.599714
O O6 0.019771 0.613862 0.429205
O O7 0.743072 0.563041 0.975086
O O8 0.715361 0.572211 0.325386
O O9 0.000000 0.600920 0.750000
O O10 0.500000 0.500000 0.500000
#
# Coordination Sequence:
#
# PCOD9299922 Si02
#       4
#     8   8   8   8
#     4  12  27  48  78 109 150 196 256 313 376 446
#     4  11  26  48  73 109 149 200 245 308 380 443
#     4  10  25  48  75 107 151 201 245 312 376 446
#     4  11  26  45  76 110 152 194 251 309 370 451
#
# _framework density 23.646788000000001
#
# number of rings (size 3 to 8) (size 9 to 14) (size 15 to 20)
#    0.000    1.000    2.500    1.500    7.000    9.000 
#    0.000    0.000    0.000    0.000    0.000    0.000 
#    0.000    0.000    0.000    0.000    0.000    0.000 
#
# Total GULP energy -89325.837990 kJ/mol
# GULP energy per Si atom -5582.864874 kJ/mol
# Density = 2.359297 g / cm^3
# Si number density = 23.646788 Si / 1000 Ang^3
#
#
#
# Elastic Constant Matrix: (Units=GPa)
#
#
# Indices 1 2 3 4 5 6 
#
# 1 179.7956 101.4890 46.3361 -0.0036 -32.5661 0.0021
# 2 101.4890 221.1871 43.9438 -0.0023 -28.0624 0.0021
# 3 46.3361 43.9438 74.6961 -0.0030 -18.3213 0.0057
# 4 -0.0036 -0.0023 -0.0030 44.6855 0.0049 -2.6258
# 5 -32.5661 -28.0624 -18.3213 0.0049 23.5567 -0.0045
# 6 0.0021 0.0021 0.0057 -2.6258 -0.0045 51.5215
#
#
#
# Elastic Compliance Matrix: (Units=1/GPa)
#
#
# Indices 1 2 3 4 5 6 
#
# 1 0.009039 -0.002767 -0.002129 0.000000 0.007544 0.000001
# 2 -0.002767 0.006413 -0.001385 0.000000 0.002737 0.000000
# 3 -0.002129 -0.001385 0.017790 0.000000 0.009244 -0.000001
# 4 0.000000 0.000000 0.000000 0.022446 -0.000005 0.001144
# 5 0.007544 0.002737 0.009244 -0.000005 0.063329 0.000004
# 6 0.000001 0.000000 -0.000001 0.001144 0.000004 0.019468
#
#
# Mechanical properties :
#
#
# Convention : Reuss Voigt Hill
#
# Bulk Modulus (GPa) = 48.35563 95.46851 71.91207
# Shear Modulus (GPa) = 31.65748 42.88005 37.26877
#
# Velocity S-wave (km/s) = 3.66288 4.26297 3.97427
# Velocity P-wave (km/s) = 6.19536 8.04307 7.17891
#
# Compressibility (1/GPa) = 0.02068011
#
# Stress axis : x y z
#
# Youngs Moduli (GPa) = 110.63203 155.92735 56.21106
#
# Poissons Ratio (x) = 0.43152 0.11966
# Poissons Ratio (y) = 0.30617 0.07785
# Poissons Ratio (z) = 0.23551 0.21594
#
# Static dielectric constant tensor:
#      x y z
#    x 1.940890 0.000320 0.099230 
#    y 0.000320 -28.941300 0.000570 
#    z 0.099230 0.000570 2.122720 
# 
# From -- ./inp_files/49956.got.cif
#   From: 2010.05.17/outbox.cif.g08.bks.cpg/sg15_25_cif.got.tgz:49956.got - 2010.06.03 18:47:42.
