data_PCOD9299917
_publ_section_title
;
Structure prediction by ZEFSAII (Michael W. Deem and Ramdas Pophale) SiO2 
 PCOD9299917
Probable space group: C 2/C
;
_chemical_formula_sum "Si O2"
_cell_formula_units_Z 60
_cell_length_a 17.969516
_cell_length_b 5.144247
_cell_length_c 26.141480
_cell_angle_alpha 90.000000
_cell_angle_beta 95.869689
_cell_angle_gamma 90.000000
_cell_volume 2403.839092
_symmetry_space_group_name_H-M "C 2/C"
_symmetry_group_IT_number 15
_symmetry_cell_setting 'monoclinic'
loop_
_space_group_symop_operation_xyz
x,y,z
-x,y,1/2-z
-x,-y,-z
x,-y,1/2+z
1/2+x,1/2+y,z
1/2-x,1/2+y,1/2-z
1/2-x,1/2-y,-z
1/2+x,1/2-y,1/2+z
loop_
_atom_site_type_symbol
_atom_site_label
_atom_site_fract_x
_atom_site_fract_y
_atom_site_fract_z
Si Si1 0.666270 0.184278 0.199733
Si Si2 0.662076 0.782655 0.502544
Si Si3 0.889724 0.457741 0.200630
Si Si4 0.977625 0.922218 0.556714
Si Si5 0.260210 0.306174 0.834779
Si Si6 0.988168 0.297793 0.851249
Si Si7 0.000000 0.944622 0.750000
Si Si8 0.134250 0.778366 0.564103
O O1 0.631799 0.146357 0.253364
O O2 0.693134 0.474071 0.191573
O O3 0.598959 0.134154 0.155274
O O4 0.731194 0.967693 0.195068
O O5 0.750000 0.750000 0.500000
O O6 0.603945 0.705617 0.453519
O O7 0.643254 0.574606 0.545658
O O8 0.645271 0.073841 0.519464
O O9 0.817115 0.537905 0.162420
O O10 0.923971 0.221261 0.236191
O O11 0.956890 0.482153 0.164975
O O12 0.048905 0.747199 0.577566
O O13 0.000000 0.000000 0.500000
O O14 0.981414 0.159665 0.596227
O O15 0.300542 0.243471 0.890614
O O16 0.994442 0.104627 0.802207
#
# Coordination Sequence:
#
# PCOD9299917 Si02
#       8
#     8   8   8   8   8   8   4   8
#     4  12  24  49  69 107 147 199 243 303 371 447
#     4  11  25  47  73 104 145 185 245 316 367 439
#     4  12  27  44  71 109 149 195 250 307 372 452
#     4  10  25  48  74 105 144 198 251 305 375 449
#     4  12  28  43  77 105 152 194 247 306 375 450
#     4  12  25  46  78 105 151 205 248 316 375 457
#     4  12  24  48  72 110 156 192 256 304 388 452
#     4  11  24  47  71 105 144 188 246 300 374 449
#
# _framework density 24.960070999999999
#
# number of rings (size 3 to 8) (size 9 to 14) (size 15 to 20)
#    0.000    0.533    4.000    3.200    5.600    1.067 
#    4.800    0.000    0.000    0.000    0.000    0.000 
#    0.000    0.000    0.000    0.000    0.000    0.000 
#
# Total GULP energy -167562.419136 kJ/mol
# GULP energy per Si atom -5585.413971 kJ/mol
# Density = 2.490326 g / cm^3
# Si number density = 24.960071 Si / 1000 Ang^3
#
#
#
# Elastic Constant Matrix: (Units=GPa)
#
#
# Indices 1 2 3 4 5 6 
#
# 1 130.2568 0.8164 -9.9838 0.0000 25.6462 0.0000
# 2 0.8164 36.5647 -0.5897 0.0000 -6.4784 0.0000
# 3 -9.9838 -0.5897 78.4192 0.0000 24.0574 0.0000
# 4 0.0000 0.0000 0.0000 32.7992 0.0000 -23.1746
# 5 25.6462 -6.4784 24.0574 0.0000 43.8802 0.0000
# 6 0.0000 0.0000 0.0000 -23.1746 0.0000 -5.7750
#
#
#
# Elastic Compliance Matrix: (Units=1/GPa)
#
#
# Indices 1 2 3 4 5 6 
#
# 1 0.009480 -0.001522 0.003563 0.000000 -0.007719 0.000000
# 2 -0.001522 0.028434 -0.001852 0.000000 0.006103 0.000000
# 3 0.003563 -0.001852 0.016728 0.000000 -0.011527 0.000000
# 4 0.000000 0.000000 0.000000 0.007949 0.000000 -0.031900
# 5 -0.007719 0.006103 -0.011527 0.000000 0.034522 0.000000
# 6 0.000000 0.000000 0.000000 -0.031900 0.000000 -0.045148
#
#
# Mechanical properties :
#
#
# Convention : Reuss Voigt Hill
#
# Bulk Modulus (GPa) = 18.17498 25.08071 21.62785
# Shear Modulus (GPa) = 71.50421 31.18070 51.34246
#
# Velocity S-wave (km/s) = 5.35814 3.53827 4.54032
# Velocity P-wave (km/s) = 6.75107 5.17326 6.01413
#
# Compressibility (1/GPa) = 0.05502068
#
# Stress axis : x y z
#
# Youngs Moduli (GPa) = 105.49032 35.16891 59.77983
#
# Poissons Ratio (x) = 0.05352 -0.21302
# Poissons Ratio (y) = 0.16053 0.11072
# Poissons Ratio (z) = -0.37590 0.06514
#
# Static dielectric constant tensor:
#      x y z
#    x 2.153350 0.000000 0.061510 
#    y 0.000000 2.009990 0.000000 
#    z 0.061510 0.000000 2.002670 
# 
# From -- ./inp_files/297762.got.cif
#   From: 2010.05.17/outbox.cif.g08.bks.cpg/sg15_149_cif.got.tgz:297762.got - 2010.06.03 18:47:42.
