data_PCOD9299913
_publ_section_title
;
Structure prediction by ZEFSAII (Michael W. Deem and Ramdas Pophale) SiO2 
 PCOD9299913
Probable space group: C 2/C
;
_chemical_formula_sum "Si O2"
_cell_formula_units_Z 56
_cell_length_a 21.929518
_cell_length_b 21.276572
_cell_length_c 17.914792
_cell_angle_alpha 90.000000
_cell_angle_beta 161.860065
_cell_angle_gamma 90.000000
_cell_volume 2602.410760
_symmetry_space_group_name_H-M "C 2/C"
_symmetry_group_IT_number 15
_symmetry_cell_setting 'monoclinic'
loop_
_space_group_symop_operation_xyz
x,y,z
-x,y,1/2-z
-x,-y,-z
x,-y,1/2+z
1/2+x,1/2+y,z
1/2-x,1/2+y,1/2-z
1/2-x,1/2-y,-z
1/2+x,1/2-y,1/2+z
loop_
_atom_site_type_symbol
_atom_site_label
_atom_site_fract_x
_atom_site_fract_y
_atom_site_fract_z
Si Si1 0.175646 0.896106 0.896023
Si Si2 0.643589 0.766263 0.576386
Si Si3 0.217657 0.601143 0.592714
Si Si4 0.498052 0.640186 0.038994
Si Si5 0.480028 0.693204 0.813033
Si Si6 0.500000 0.791400 0.250000
Si Si7 0.000000 0.504733 0.750000
Si Si8 0.575390 0.817589 0.651120
O O1 0.071621 0.899976 0.694278
O O2 0.000000 0.893418 0.750000
O O3 0.312812 0.834492 0.052455
O O4 0.334148 0.951052 0.094052
O O5 0.658912 0.695206 0.624387
O O6 0.821769 0.814122 0.771608
O O7 0.548045 0.757717 0.383637
O O8 0.533197 0.802865 0.514961
O O9 0.302415 0.645646 0.624724
O O10 0.122161 0.539216 0.448040
O O11 0.050192 0.633462 0.448058
O O12 0.404700 0.598368 0.865593
O O13 0.500000 0.712640 0.750000
O O14 0.447672 0.752196 0.829895
O O15 0.694064 0.664925 0.079019
#
# Coordination Sequence:
#
# PCOD9299913 Si02
#       8
#     8   8   8   8   8   4   4   8
#     4  10  25  48  72  96 129 178 232 292 335 389
#     4  11  21  40  64 110 154 171 209 264 340 441
#     4  12  25  43  69  98 132 185 223 282 336 401
#     4  11  23  40  70 105 143 175 214 266 348 418
#     4  12  23  37  58  95 141 184 220 262 329 408
#     4   9  24  40  72 108 142 176 213 272 346 426
#     4  11  28  52  66  90 132 172 253 298 320 370
#     4  12  22  37  61  99 147 177 212 264 333 418
#
# _framework density 21.518509999999999
#
# number of rings (size 3 to 8) (size 9 to 14) (size 15 to 20)
#    0.000    0.857    4.286    2.143    6.000    3.429 
#    0.000    0.714    0.000    0.000    0.000    0.000 
#    0.000    0.000    0.000    0.000    0.000    0.000 
#
# Total GULP energy -156277.189101 kJ/mol
# GULP energy per Si atom -5581.328182 kJ/mol
# Density = 2.146953 g / cm^3
# Si number density = 21.518510 Si / 1000 Ang^3
#
#
#
# Elastic Constant Matrix: (Units=GPa)
#
#
# Indices 1 2 3 4 5 6 
#
# 1 141.4858 24.7752 45.7864 -0.0001 5.9559 -0.0002
# 2 24.7752 42.9842 9.1301 0.0000 8.9796 0.0002
# 3 45.7864 9.1301 84.3570 -0.0006 22.2695 -0.0007
# 4 -0.0001 0.0000 -0.0006 38.1505 -0.0002 -10.5849
# 5 5.9559 8.9796 22.2695 -0.0002 56.2536 -0.0005
# 6 -0.0002 0.0002 -0.0007 -10.5849 -0.0005 -7.0253
#
#
#
# Elastic Compliance Matrix: (Units=1/GPa)
#
#
# Indices 1 2 3 4 5 6 
#
# 1 0.009474 -0.004748 -0.005096 0.000000 0.001772 0.000000
# 2 -0.004748 0.026688 0.000760 0.000000 -0.004058 0.000001
# 3 -0.005096 0.000760 0.016111 0.000000 -0.005960 -0.000001
# 4 0.000000 0.000000 0.000000 0.018485 0.000000 -0.027851
# 5 0.001772 -0.004058 -0.005960 0.000000 0.020596 -0.000001
# 6 0.000000 0.000001 -0.000001 -0.027851 -0.000001 -0.100380
#
#
# Mechanical properties :
#
#
# Convention : Reuss Voigt Hill
#
# Bulk Modulus (GPa) = 29.32177 47.57893 38.45035
# Shear Modulus (GPa) = 243.78406 30.08479 136.93443
#
# Velocity S-wave (km/s) = 10.65534 3.74316 7.98585
# Velocity P-wave (km/s) = 12.84670 6.39065 10.14589
#
# Compressibility (1/GPa) = 0.03410435
#
# Stress axis : x y z
#
# Youngs Moduli (GPa) = 105.55358 37.47070 62.06759
#
# Poissons Ratio (x) = 0.17792 0.31630
# Poissons Ratio (y) = 0.50120 -0.04718
# Poissons Ratio (z) = 0.53791 -0.02848
#
# Static dielectric constant tensor:
#      x y z
#    x 1.799360 0.000000 0.002600 
#    y 0.000000 1.756230 0.000000 
#    z 0.002600 0.000000 1.931890 
# 
# From -- ./inp_files/216688.got.cif
#   From: 2010.05.17/outbox.cif.g08.bks.cpg/sg15_109_cif.got.tgz:216688.got - 2010.06.03 18:47:42.
