data_PCOD9299987
_publ_section_title
;
Structure prediction by ZEFSAII (Michael W. Deem and Ramdas Pophale) SiO2 
 PCOD9299987
Probable space group: C 2/C
;
_chemical_formula_sum "Si O2"
_cell_formula_units_Z 44
_cell_length_a 26.284523
_cell_length_b 4.822324
_cell_length_c 16.982642
_cell_angle_alpha 90.000000
_cell_angle_beta 133.451875
_cell_angle_gamma 90.000000
_cell_volume 1562.679163
_symmetry_space_group_name_H-M "C 2/C"
_symmetry_group_IT_number 15
_symmetry_cell_setting 'monoclinic'
loop_
_space_group_symop_operation_xyz
x,y,z
-x,y,1/2-z
-x,-y,-z
x,-y,1/2+z
1/2+x,1/2+y,z
1/2-x,1/2+y,1/2-z
1/2-x,1/2-y,-z
1/2+x,1/2-y,1/2+z
loop_
_atom_site_type_symbol
_atom_site_label
_atom_site_fract_x
_atom_site_fract_y
_atom_site_fract_z
Si Si1 0.079938 0.098287 0.097019
Si Si2 0.249100 0.904974 0.416177
Si Si3 0.204923 0.495598 0.732312
Si Si4 0.500000 0.936787 0.750000
Si Si5 0.389334 0.662354 0.537072
Si Si6 0.120611 0.824689 0.813172
O O1 0.123146 0.400388 0.139780
O O2 0.092300 0.038930 0.202365
O O3 0.111887 0.998851 0.046475
O O4 0.000000 0.000000 0.000000
O O5 0.250000 0.750000 0.500000
O O6 0.251171 0.219311 0.277929
O O7 0.329328 0.897957 0.472819
O O8 0.203194 0.179798 0.380372
O O9 0.210741 0.304906 0.815542
O O10 0.464889 0.784641 0.638299
O O11 0.565196 0.091598 0.778095
O O12 0.377898 0.488593 0.603389
#
# Coordination Sequence:
#
# PCOD9299987 Si02
#       6
#     8   8   8   4   8   8
#     4  12  27  50  85 125 173 237 289 365 458 526
#     4  10  25  51  84 119 163 226 294 364 438 524
#     4  12  27  56  88 128 180 226 300 375 437 538
#     4  12  26  48  78 114 178 230 284 386 430 558
#     4  11  26  52  78 122 170 228 300 363 455 523
#     4  11  27  53  78 118 174 223 302 361 447 537
#
# _framework density 28.156770000000002
#
# number of rings (size 3 to 8) (size 9 to 14) (size 15 to 20)
#    0.000    0.727    1.818    3.818    5.091    4.364 
#    9.818    0.000    0.000    0.000    0.000    0.000 
#    0.000    0.000    0.000    0.000    0.000    0.000 
#
# Total GULP energy -122496.449928 kJ/mol
# GULP energy per Si atom -5568.020451 kJ/mol
# Density = 2.809268 g / cm^3
# Si number density = 28.156770 Si / 1000 Ang^3
#
#
#
# Elastic Constant Matrix: (Units=GPa)
#
#
# Indices 1 2 3 4 5 6 
#
# 1 210.6386 60.3094 51.0505 0.0030 -16.3137 0.0016
# 2 60.3094 121.0533 18.6587 0.0107 18.0569 0.0162
# 3 51.0505 18.6587 85.6048 0.0101 -10.1549 0.0060
# 4 0.0030 0.0107 0.0101 54.2419 0.0004 15.4863
# 5 -16.3137 18.0569 -10.1549 0.0004 80.2820 0.0012
# 6 0.0016 0.0162 0.0060 15.4863 0.0012 134.5073
#
#
#
# Elastic Compliance Matrix: (Units=1/GPa)
#
#
# Indices 1 2 3 4 5 6 
#
# 1 0.006458 -0.002993 -0.003008 0.000001 0.001605 0.000000
# 2 -0.002993 0.010332 -0.000827 -0.000001 -0.003037 -0.000001
# 3 -0.003008 -0.000827 0.013813 -0.000002 0.001322 0.000000
# 4 0.000001 -0.000001 -0.000002 0.019063 0.000000 -0.002195
# 5 0.001605 -0.003037 0.001322 0.000000 0.013632 0.000000
# 6 0.000000 -0.000001 0.000000 -0.002195 0.000000 0.007687
#
#
# Mechanical properties :
#
#
# Convention : Reuss Voigt Hill
#
# Bulk Modulus (GPa) = 59.01302 75.25934 67.13618
# Shear Modulus (GPa) = 55.37614 72.95811 64.16712
#
# Velocity S-wave (km/s) = 4.43957 5.09585 4.77899
# Velocity P-wave (km/s) = 6.87633 7.83647 7.37205
#
# Compressibility (1/GPa) = 0.01694541
#
# Stress axis : x y z
#
# Youngs Moduli (GPa) = 154.85065 96.78208 72.39654
#
# Poissons Ratio (x) = 0.28967 0.21780
# Poissons Ratio (y) = 0.46347 0.05991
# Poissons Ratio (z) = 0.46585 0.08008
#
# Static dielectric constant tensor:
#      x y z
#    x 2.579330 0.000010 0.174150 
#    y 0.000010 2.319970 0.000000 
#    z 0.174150 0.000000 2.345390 
# 
# From -- ./inp_files/221403.got.cif
#   From: 2010.05.17/outbox.cif.g08.bks.cpg/sg15_111_cif.got.tgz:221403.got - 2010.06.03 18:47:42.
