data_PCOD9299938
_publ_section_title
;
Structure prediction by ZEFSAII (Michael W. Deem and Ramdas Pophale) SiO2 
 PCOD9299938
Probable space group: C 2/C
;
_chemical_formula_sum "Si O2"
_cell_formula_units_Z 36
_cell_length_a 16.424588
_cell_length_b 9.294475
_cell_length_c 22.533727
_cell_angle_alpha 90.000000
_cell_angle_beta 157.700959
_cell_angle_gamma 90.000000
_cell_volume 1305.257685
_symmetry_space_group_name_H-M "C 2/C"
_symmetry_group_IT_number 15
_symmetry_cell_setting 'monoclinic'
loop_
_space_group_symop_operation_xyz
x,y,z
-x,y,1/2-z
-x,-y,-z
x,-y,1/2+z
1/2+x,1/2+y,z
1/2-x,1/2+y,1/2-z
1/2-x,1/2-y,-z
1/2+x,1/2-y,1/2+z
loop_
_atom_site_type_symbol
_atom_site_label
_atom_site_fract_x
_atom_site_fract_y
_atom_site_fract_z
Si Si1 0.219496 0.004215 0.028654
Si Si2 0.168585 0.500385 0.526356
Si Si3 0.500000 0.259859 0.750000
Si Si4 0.195047 0.881259 0.205894
Si Si5 0.318101 0.710760 0.392177
O O1 0.964818 0.005956 0.870087
O O2 0.251197 0.060078 0.983326
O O3 0.288910 0.104689 0.131626
O O4 0.344380 0.853615 0.111941
O O5 0.325076 0.374524 0.655055
O O6 0.171283 0.630980 0.573300
O O7 0.933216 0.434324 0.359119
O O8 0.203535 0.739189 0.253112
O O9 0.064669 0.844745 0.057981
#
# Coordination Sequence:
#
# PCOD9299938 Si02
#       5
#     8   8   4   8   8
#     4  10  27  47  75 118 164 212 270 344 410 491
#     4  12  25  46  79 111 165 213 276 335 413 488
#     4  12  28  42  76 114 168 206 278 330 418 470
#     4  10  26  46  84 114 164 206 284 325 420 474
#     4  10  25  48  78 113 157 218 272 336 401 501
#
# _framework density 27.580759
#
# number of rings (size 3 to 8) (size 9 to 14) (size 15 to 20)
#    1.333    0.000    0.000    3.333    9.333    0.889 
#    0.000    3.333    0.000    0.000    0.000    0.000 
#    0.000    0.000    0.000    0.000    0.000    0.000 
#
# Total GULP energy -100699.396958 kJ/mol
# GULP energy per Si atom -5594.410942 kJ/mol
# Density = 2.751798 g / cm^3
# Si number density = 27.580759 Si / 1000 Ang^3
#
#
#
# Elastic Constant Matrix: (Units=GPa)
#
#
# Indices 1 2 3 4 5 6 
#
# 1 96.4982 29.3411 41.2781 0.0008 6.0105 0.0011
# 2 29.3411 138.5316 61.6849 0.0073 2.4193 0.0084
# 3 41.2781 61.6849 177.1637 0.0213 25.0982 0.0103
# 4 0.0008 0.0073 0.0213 55.4592 0.0021 -10.7414
# 5 6.0105 2.4193 25.0982 0.0021 58.9068 -0.0012
# 6 0.0011 0.0084 0.0103 -10.7414 -0.0012 48.7876
#
#
#
# Elastic Compliance Matrix: (Units=1/GPa)
#
#
# Indices 1 2 3 4 5 6 
#
# 1 0.011772 -0.001517 -0.002185 0.000001 -0.000208 0.000001
# 2 -0.001517 0.008791 -0.002850 0.000000 0.001008 -0.000001
# 3 -0.002185 -0.002850 0.007554 -0.000003 -0.002878 -0.000002
# 4 0.000001 0.000000 -0.000003 0.018834 0.000000 0.004147
# 5 -0.000208 0.001008 -0.002878 0.000000 0.018182 0.000001
# 6 0.000001 -0.000001 -0.000002 0.004147 0.000001 0.021410
#
#
# Mechanical properties :
#
#
# Convention : Reuss Voigt Hill
#
# Bulk Modulus (GPa) = 66.61152 75.20019 70.90586
# Shear Modulus (GPa) = 47.77720 51.29000 49.53360
#
# Velocity S-wave (km/s) = 4.16656 4.31702 4.24246
# Velocity P-wave (km/s) = 6.88120 7.22313 7.05423
#
# Compressibility (1/GPa) = 0.01501242
#
# Stress axis : x y z
#
# Youngs Moduli (GPa) = 84.94932 113.74724 132.38188
#
# Poissons Ratio (x) = 0.17251 0.28929
# Poissons Ratio (y) = 0.12883 0.37735
# Poissons Ratio (z) = 0.18564 0.32423
#
# Static dielectric constant tensor:
#      x y z
#    x 2.158990 0.000000 -0.022970 
#    y 0.000000 2.091120 -0.000010 
#    z -0.022970 -0.000010 2.136960 
# 
# From -- ./inp_files/317419.got.cif
#   From: 2010.05.17/outbox.cif.g08.bks.cpg/sg15_159_cif.got.tgz:317419.got - 2010.06.03 18:47:42.
