data_PCOD9299277
_publ_section_title
;
Structure prediction by ZEFSAII (Michael W. Deem and Ramdas Pophale) SiO2 
 PCOD9299277
Probable space group: C 2/C
;
_chemical_formula_sum "Si O2"
_cell_formula_units_Z 44
_cell_length_a 7.133526
_cell_length_b 13.888912
_cell_length_c 19.371544
_cell_angle_alpha 90.000000
_cell_angle_beta 108.758825
_cell_angle_gamma 90.000000
_cell_volume 1817.322211
_symmetry_space_group_name_H-M "C 2/C"
_symmetry_group_IT_number 15
_symmetry_cell_setting 'monoclinic'
loop_
_space_group_symop_operation_xyz
x,y,z
-x,y,1/2-z
-x,-y,-z
x,-y,1/2+z
1/2+x,1/2+y,z
1/2-x,1/2+y,1/2-z
1/2-x,1/2-y,-z
1/2+x,1/2-y,1/2+z
loop_
_atom_site_type_symbol
_atom_site_label
_atom_site_fract_x
_atom_site_fract_y
_atom_site_fract_z
Si Si1 0.766520 0.850883 0.710744
Si Si2 0.608606 0.764122 0.548071
Si Si3 0.000000 0.200196 0.750000
Si Si4 0.366686 0.079761 0.950852
Si Si5 0.511167 0.039090 0.824058
Si Si6 0.448877 0.427556 0.380657
O O1 0.715491 0.809694 0.628330
O O2 0.681624 0.774050 0.756773
O O3 0.000000 0.868966 0.750000
O O4 0.632955 0.947556 0.700221
O O5 0.750000 0.750000 0.500000
O O6 0.418723 0.826797 0.502146
O O7 0.556289 0.657506 0.564889
O O8 0.986931 0.128319 0.813209
O O9 0.439002 0.098145 0.881205
O O10 0.156396 0.025587 0.921724
O O11 0.500000 0.000000 0.000000
O O12 0.500000 0.094707 0.750000
O O13 0.744271 0.015515 0.859875
#
# Coordination Sequence:
#
# PCOD9299277 Si02
#       6
#     8   8   4   8   8   8
#     4  11  26  46  77 107 150 191 244 307 371 446
#     4  11  24  49  71 110 144 189 249 308 364 437
#     4  10  24  48  72 108 134 194 246 300 372 430
#     4  12  26  47  70 105 145 191 246 297 373 438
#     4  12  26  45  70 110 145 190 243 297 369 440
#     4  11  26  45  76 101 147 190 243 308 359 441
#
# _framework density 24.211449000000002
#
# number of rings (size 3 to 8) (size 9 to 14) (size 15 to 20)
#    0.000    0.727    4.545    1.636    5.091    3.636 
#    3.273    0.000    0.000    0.000    0.000    0.000 
#    0.000    0.000    0.000    0.000    0.000    0.000 
#
# Total GULP energy -122983.198635 kJ/mol
# GULP energy per Si atom -5590.145392 kJ/mol
# Density = 2.415634 g / cm^3
# Si number density = 24.211449 Si / 1000 Ang^3
#
#
#
# Elastic Constant Matrix: (Units=GPa)
#
#
# Indices 1 2 3 4 5 6 
#
# 1 178.2573 27.1076 51.4800 0.0000 47.9086 0.0000
# 2 27.1076 58.6853 2.0324 0.0000 14.1510 0.0000
# 3 51.4800 2.0324 79.2024 0.0000 3.9085 0.0000
# 4 0.0000 0.0000 0.0000 26.8998 0.0000 7.8359
# 5 47.9086 14.1510 3.9085 0.0000 64.9658 0.0000
# 6 0.0000 0.0000 0.0000 7.8359 0.0000 38.1182
#
#
#
# Elastic Compliance Matrix: (Units=1/GPa)
#
#
# Indices 1 2 3 4 5 6 
#
# 1 0.009221 -0.002645 -0.005635 0.000000 -0.005885 0.000000
# 2 -0.002645 0.018749 0.001347 0.000000 -0.002214 0.000000
# 3 -0.005635 0.001347 0.016111 0.000000 0.002893 0.000000
# 4 0.000000 0.000000 0.000000 0.039543 0.000000 -0.008129
# 5 -0.005885 -0.002214 0.002893 0.000000 0.020041 0.000000
# 6 0.000000 0.000000 0.000000 -0.008129 0.000000 0.027905
#
#
# Mechanical properties :
#
#
# Convention : Reuss Voigt Hill
#
# Bulk Modulus (GPa) = 33.09536 53.04278 43.06907
# Shear Modulus (GPa) = 32.15256 41.69843 36.92550
#
# Velocity S-wave (km/s) = 3.64811 4.15452 3.90952
# Velocity P-wave (km/s) = 5.60749 6.70590 6.18114
#
# Compressibility (1/GPa) = 0.03021571
#
# Stress axis : x y z
#
# Youngs Moduli (GPa) = 108.44568 53.33561 62.06798
#
# Poissons Ratio (x) = 0.14108 0.34977
# Poissons Ratio (y) = 0.28686 -0.08364
# Poissons Ratio (z) = 0.61112 -0.07187
#
# Static dielectric constant tensor:
#      x y z
#    x 2.104590 0.000000 -0.205110 
#    y 0.000000 1.945470 0.000000 
#    z -0.205110 0.000000 2.181230 
# 
# From -- ./inp_files/227050.got.cif
#   From: 2010.05.17/outbox.cif.g08.bks.cpg/sg15_114_cif.got.tgz:227050.got - 2010.06.03 18:47:42.
