data_PCOD9299297
_publ_section_title
;
Structure prediction by ZEFSAII (Michael W. Deem and Ramdas Pophale) SiO2 
 PCOD9299297
Probable space group: C 2/C
;
_chemical_formula_sum "Si O2"
_cell_formula_units_Z 48
_cell_length_a 16.956406
_cell_length_b 17.768818
_cell_length_c 13.952691
_cell_angle_alpha 90.000000
_cell_angle_beta 28.964812
_cell_angle_gamma 90.000000
_cell_volume 2035.823045
_symmetry_space_group_name_H-M "C 2/C"
_symmetry_group_IT_number 15
_symmetry_cell_setting 'monoclinic'
loop_
_space_group_symop_operation_xyz
x,y,z
-x,y,1/2-z
-x,-y,-z
x,-y,1/2+z
1/2+x,1/2+y,z
1/2-x,1/2+y,1/2-z
1/2-x,1/2-y,-z
1/2+x,1/2-y,1/2+z
loop_
_atom_site_type_symbol
_atom_site_label
_atom_site_fract_x
_atom_site_fract_y
_atom_site_fract_z
Si Si1 0.204034 0.770555 0.656277
Si Si2 0.844479 0.578359 0.080159
Si Si3 0.500000 0.978034 0.750000
Si Si4 0.117327 0.153985 0.926130
Si Si5 0.500000 0.500000 0.000000
Si Si6 0.394517 0.135856 0.221243
Si Si7 0.543101 0.708131 0.595100
O O1 0.250000 0.750000 0.500000
O O2 0.322703 0.837198 0.564140
O O3 0.226887 0.698025 0.700019
O O4 0.026391 0.806281 0.859762
O O5 0.665800 0.545796 0.294149
O O6 0.937593 0.588295 0.081533
O O7 0.921826 0.528234 0.915378
O O8 0.623704 0.921283 0.671433
O O9 0.072338 0.170822 0.862456
O O10 0.111243 0.064623 0.939216
O O11 0.520899 0.202207 0.109986
O O12 0.223891 0.178145 0.384403
O O13 0.500000 0.687413 0.750000
#
# Coordination Sequence:
#
# PCOD9299297 Si02
#       7
#     8   8   4   8   4   8   8
#     4  11  24  43  73 105 142 193 251 295 374 447
#     4  11  26  50  71 110 150 202 246 309 381 450
#     4  12  30  44  76 110 156 196 246 318 384 460
#     4  11  23  46  70 106 145 192 245 315 366 442
#     4  10  24  48  74 106 150 198 244 306 390 428
#     4  12  26  48  73 111 147 196 253 311 389 447
#     4  12  24  44  75 107 144 193 256 311 372 461
#
# _framework density 23.577687999999998
#
# number of rings (size 3 to 8) (size 9 to 14) (size 15 to 20)
#    0.000    0.667    5.833    1.500    4.667    2.667 
#    0.000    1.667    0.000    0.000    0.000    0.000 
#    0.000    0.000    0.000    0.000    0.000    0.000 
#
# Total GULP energy -133852.693242 kJ/mol
# GULP energy per Si atom -5577.195552 kJ/mol
# Density = 2.352402 g / cm^3
# Si number density = 23.577688 Si / 1000 Ang^3
#
#
#
# Elastic Constant Matrix: (Units=GPa)
#
#
# Indices 1 2 3 4 5 6 
#
# 1 107.7061 28.3170 40.3057 -0.0023 33.1580 0.0016
# 2 28.3170 102.6886 42.7522 -0.0048 -5.4325 0.0050
# 3 40.3057 42.7522 81.5225 -0.0033 18.4494 0.0023
# 4 -0.0023 -0.0048 -0.0033 35.7788 0.0054 9.2305
# 5 33.1580 -5.4325 18.4494 0.0054 36.2513 -0.0022
# 6 0.0016 0.0050 0.0023 9.2305 -0.0022 26.2059
#
#
#
# Elastic Compliance Matrix: (Units=1/GPa)
#
#
# Indices 1 2 3 4 5 6 
#
# 1 0.015364 -0.003886 -0.002539 0.000003 -0.013343 -0.000002
# 2 -0.003886 0.014653 -0.007984 0.000000 0.009813 -0.000001
# 3 -0.002539 -0.007984 0.019726 0.000002 -0.008914 -0.000002
# 4 0.000003 0.000000 0.000002 0.030743 -0.000009 -0.010829
# 5 -0.013343 0.009813 -0.008914 -0.000009 0.045797 0.000007
# 6 -0.000002 -0.000001 -0.000002 -0.010829 0.000007 0.041974
#
#
# Mechanical properties :
#
#
# Convention : Reuss Voigt Hill
#
# Bulk Modulus (GPa) = 47.78740 57.18522 52.48631
# Shear Modulus (GPa) = 24.50403 31.68336 28.09370
#
# Velocity S-wave (km/s) = 3.22730 3.66975 3.45561
# Velocity P-wave (km/s) = 5.84802 6.50097 6.18312
#
# Compressibility (1/GPa) = 0.02092602
#
# Stress axis : x y z
#
# Youngs Moduli (GPa) = 65.08756 68.24644 50.69481
#
# Poissons Ratio (x) = 0.26518 0.12870
# Poissons Ratio (y) = 0.25291 0.40475
# Poissons Ratio (z) = 0.16523 0.54488
#
# Static dielectric constant tensor:
#      x y z
#    x 1.929210 0.000000 -0.021760 
#    y 0.000000 1.815090 0.000000 
#    z -0.021760 0.000000 1.907660 
# 
# From -- ./inp_files/163219.got.cif
#   From: 2010.05.17/outbox.cif.g08.bks.cpg/sg15_82_cif.got.tgz:163219.got - 2010.06.03 18:47:42.
