data_PCOD9299970
_publ_section_title
;
Structure prediction by ZEFSAII (Michael W. Deem and Ramdas Pophale) SiO2 
 PCOD9299970
Probable space group: C 2/C
;
_chemical_formula_sum "Si O2"
_cell_formula_units_Z 48
_cell_length_a 13.904136
_cell_length_b 7.136629
_cell_length_c 19.925878
_cell_angle_alpha 90.000000
_cell_angle_beta 114.385645
_cell_angle_gamma 90.000000
_cell_volume 1800.824873
_symmetry_space_group_name_H-M "C 2/C"
_symmetry_group_IT_number 15
_symmetry_cell_setting 'monoclinic'
loop_
_space_group_symop_operation_xyz
x,y,z
-x,y,1/2-z
-x,-y,-z
x,-y,1/2+z
1/2+x,1/2+y,z
1/2-x,1/2+y,1/2-z
1/2-x,1/2-y,-z
1/2+x,1/2-y,1/2+z
loop_
_atom_site_type_symbol
_atom_site_label
_atom_site_fract_x
_atom_site_fract_y
_atom_site_fract_z
Si Si1 0.356319 0.409285 0.909472
Si Si2 0.375405 0.767522 0.546167
Si Si3 0.393644 0.491492 0.176206
Si Si4 0.602898 0.104490 0.689315
Si Si5 0.681983 0.686703 0.711090
Si Si6 0.864247 0.387405 0.113292
O O1 0.413900 0.361289 0.995538
O O2 0.381086 0.563299 0.860304
O O3 0.236853 0.490016 0.891374
O O4 0.378712 0.220763 0.873462
O O5 0.250000 0.750000 0.500000
O O6 0.391685 0.993044 0.552535
O O7 0.091582 0.825809 0.374075
O O8 0.500000 0.533753 0.250000
O O9 0.326278 0.399497 0.216935
O O10 0.308876 0.806642 0.235835
O O11 0.345619 0.663431 0.117137
O O12 0.636085 0.890747 0.695108
O O13 0.482187 0.105080 0.676584
#
# Coordination Sequence:
#
# PCOD9299970 Si02
#       6
#     8   8   8   8   8   8
#     4  11  26  48  76 113 156 211 272 327 414 496
#     4  10  25  50  76 112 160 212 264 333 411 494
#     4  12  27  47  82 118 153 207 274 333 407 490
#     4  12  26  46  74 115 154 207 263 337 407 479
#     4  12  25  45  74 112 157 200 261 336 398 476
#     4  11  27  48  76 110 156 204 266 331 408 485
#
# _framework density 26.654453
#
# number of rings (size 3 to 8) (size 9 to 14) (size 15 to 20)
#    0.000    0.667    1.667    5.000    2.333    5.333 
#    0.000    5.833    0.000    0.000    0.000    0.000 
#    0.000    0.000    0.000    0.000    0.000    0.000 
#
# Total GULP energy -133788.479779 kJ/mol
# GULP energy per Si atom -5574.519991 kJ/mol
# Density = 2.659379 g / cm^3
# Si number density = 26.654453 Si / 1000 Ang^3
#
#
#
# Elastic Constant Matrix: (Units=GPa)
#
#
# Indices 1 2 3 4 5 6 
#
# 1 98.8084 20.8438 -2.5021 0.0000 15.3511 0.0000
# 2 20.8438 170.4997 11.9309 0.0000 -9.8898 0.0000
# 3 -2.5021 11.9309 104.9569 0.0000 -7.1059 0.0000
# 4 0.0000 0.0000 0.0000 54.0852 0.0000 -6.5557
# 5 15.3511 -9.8898 -7.1059 0.0000 35.1100 0.0000
# 6 0.0000 0.0000 0.0000 -6.5557 0.0000 37.5676
#
#
#
# Elastic Compliance Matrix: (Units=1/GPa)
#
#
# Indices 1 2 3 4 5 6 
#
# 1 0.011323 -0.001705 0.000097 0.000000 -0.005412 0.000000
# 2 -0.001705 0.006253 -0.000590 0.000000 0.002388 0.000000
# 3 0.000097 -0.000590 0.009716 0.000000 0.001758 0.000000
# 4 0.000000 0.000000 0.000000 0.018889 0.000000 0.003296
# 5 -0.005412 0.002388 0.001758 0.000000 0.031876 0.000000
# 6 0.000000 0.000000 0.000000 0.003296 0.000000 0.027194
#
#
# Mechanical properties :
#
#
# Convention : Reuss Voigt Hill
#
# Bulk Modulus (GPa) = 43.67205 48.31225 45.99215
# Shear Modulus (GPa) = 42.63315 48.28536 45.45925
#
# Velocity S-wave (km/s) = 4.00368 4.26083 4.13425
# Velocity P-wave (km/s) = 6.14758 6.50929 6.33102
#
# Compressibility (1/GPa) = 0.02289794
#
# Stress axis : x y z
#
# Youngs Moduli (GPa) = 88.31195 159.91504 102.92201
#
# Poissons Ratio (x) = 0.27266 -0.01002
# Poissons Ratio (y) = 0.15057 0.06071
# Poissons Ratio (z) = -0.00860 0.09433
#
# Static dielectric constant tensor:
#      x y z
#    x 2.999210 0.000000 0.100070 
#    y 0.000000 2.099390 0.000000 
#    z 0.100070 0.000000 2.162080 
# 
# From -- ./inp_files/272362.got.cif
#   From: 2010.05.17/outbox.cif.g08.bks.cpg/sg15_137_cif.got.tgz:272362.got - 2010.06.03 18:47:42.
