data_PCOD9299215
_publ_section_title
;
Structure prediction by ZEFSAII (Michael W. Deem and Ramdas Pophale) SiO2 
 PCOD9299215
Probable space group: C 2/C
;
_chemical_formula_sum "Si O2"
_cell_formula_units_Z 28
_cell_length_a 7.385112
_cell_length_b 17.116290
_cell_length_c 8.824871
_cell_angle_alpha 90.000000
_cell_angle_beta 70.558746
_cell_angle_gamma 90.000000
_cell_volume 1051.911171
_symmetry_space_group_name_H-M "C 2/C"
_symmetry_group_IT_number 15
_symmetry_cell_setting 'monoclinic'
loop_
_space_group_symop_operation_xyz
x,y,z
-x,y,1/2-z
-x,-y,-z
x,-y,1/2+z
1/2+x,1/2+y,z
1/2-x,1/2+y,1/2-z
1/2-x,1/2-y,-z
1/2+x,1/2-y,1/2+z
loop_
_atom_site_type_symbol
_atom_site_label
_atom_site_fract_x
_atom_site_fract_y
_atom_site_fract_z
Si Si1 0.500000 0.301791 0.250000
Si Si2 0.695776 0.989226 0.853312
Si Si3 0.271096 0.324263 0.803395
Si Si4 0.841474 0.900783 0.064366
O O1 0.324055 0.245419 0.259668
O O2 0.514957 0.355076 0.095604
O O3 0.860086 0.969086 0.933138
O O4 0.732128 0.061401 0.735410
O O5 0.500000 0.000000 0.000000
O O6 0.704058 0.908296 0.756659
O O7 0.500000 0.318809 0.750000
O O8 0.219350 0.338716 0.996772
#
# Coordination Sequence:
#
# PCOD9299215 Si02
#       4
#     4   8   8   8
#     4  12  26  50  80 112 166 208 244 334 398 450
#     4  10  24  47  79 110 153 200 261 324 374 456
#     4  10  27  48  75 118 157 204 261 314 393 472
#     4  10  26  47  78 117 149 204 267 312 392 460
#
# _framework density 26.618219
#
# number of rings (size 3 to 8) (size 9 to 14) (size 15 to 20)
#    1.714    0.000    0.000    1.714    6.000    8.000 
#    0.000    0.000    0.000    0.000    0.000    0.000 
#    0.000    0.000    0.000    0.000    0.000    0.000 
#
# Total GULP energy -78160.124266 kJ/mol
# GULP energy per Si atom -5582.866019 kJ/mol
# Density = 2.655764 g / cm^3
# Si number density = 26.618219 Si / 1000 Ang^3
#
#
#
# Elastic Constant Matrix: (Units=GPa)
#
#
# Indices 1 2 3 4 5 6 
#
# 1 144.9981 72.5692 63.9945 0.0000 19.3163 0.0000
# 2 72.5692 159.7809 69.3049 0.0000 7.0223 0.0000
# 3 63.9945 69.3049 134.2826 0.0000 13.2645 0.0000
# 4 0.0000 0.0000 0.0000 65.6055 0.0000 28.5153
# 5 19.3163 7.0223 13.2645 0.0000 53.2089 0.0000
# 6 0.0000 0.0000 0.0000 28.5153 0.0000 49.9106
#
#
#
# Elastic Compliance Matrix: (Units=1/GPa)
#
#
# Indices 1 2 3 4 5 6 
#
# 1 0.010135 -0.003228 -0.002914 0.000000 -0.002527 0.000000
# 2 -0.003228 0.009092 -0.003231 0.000000 0.000777 0.000000
# 3 -0.002914 -0.003231 0.010618 0.000000 -0.001163 0.000000
# 4 0.000000 0.000000 0.000000 0.020278 0.000000 -0.011585
# 5 -0.002527 0.000777 -0.001163 0.000000 0.019898 0.000000
# 6 0.000000 0.000000 0.000000 -0.011585 0.000000 0.026655
#
#
# Mechanical properties :
#
#
# Convention : Reuss Voigt Hill
#
# Bulk Modulus (GPa) = 90.10125 94.53319 92.31722
# Shear Modulus (GPa) = 41.97349 49.29121 45.63235
#
# Velocity S-wave (km/s) = 3.97529 4.30790 4.14494
# Velocity P-wave (km/s) = 7.41576 7.76760 7.59372
#
# Compressibility (1/GPa) = 0.01109862
#
# Stress axis : x y z
#
# Youngs Moduli (GPa) = 98.66733 109.98842 94.17748
#
# Poissons Ratio (x) = 0.35504 0.27448
# Poissons Ratio (y) = 0.31849 0.30428
# Poissons Ratio (z) = 0.28756 0.35536
#
# Static dielectric constant tensor:
#      x y z
#    x 2.098910 0.000000 0.003120 
#    y 0.000000 2.203150 0.000000 
#    z 0.003120 0.000000 2.169490 
# 
# From -- ./inp_files/21613.got.cif
#   From: 2010.05.17/outbox.cif.g08.bks.cpg/sg15_11_cif.got.tgz:21613.got - 2010.06.03 18:47:42.
