data_PCOD9299194
_publ_section_title
;
Structure prediction by ZEFSAII (Michael W. Deem and Ramdas Pophale) SiO2 
 PCOD9299194
Probable space group: C 2/C
;
_chemical_formula_sum "Si O2"
_cell_formula_units_Z 32
_cell_length_a 13.234505
_cell_length_b 4.710078
_cell_length_c 21.381176
_cell_angle_alpha 90.000000
_cell_angle_beta 122.001868
_cell_angle_gamma 90.000000
_cell_volume 1130.261737
_symmetry_space_group_name_H-M "C 2/C"
_symmetry_group_IT_number 15
_symmetry_cell_setting 'monoclinic'
loop_
_space_group_symop_operation_xyz
x,y,z
-x,y,1/2-z
-x,-y,-z
x,-y,1/2+z
1/2+x,1/2+y,z
1/2-x,1/2+y,1/2-z
1/2-x,1/2-y,-z
1/2+x,1/2-y,1/2+z
loop_
_atom_site_type_symbol
_atom_site_label
_atom_site_fract_x
_atom_site_fract_y
_atom_site_fract_z
Si Si1 0.883323 0.035264 0.612498
Si Si2 0.985186 0.704665 0.936959
Si Si3 0.251149 0.043907 0.627971
Si Si4 0.425716 0.879948 0.285511
O O1 0.780851 0.853905 0.613002
O O2 0.903768 0.897211 0.551008
O O3 0.010361 0.932916 0.684952
O O4 0.833551 0.345726 0.609343
O O5 0.879258 0.922287 0.914705
O O6 0.944052 0.519334 0.862415
O O7 0.000000 0.500000 0.000000
O O8 0.296485 0.060797 0.715149
O O9 0.500000 0.992506 0.250000
#
# Coordination Sequence:
#
# PCOD9299194 Si02
#       4
#     8   8   8   8
#     4   9  24  44  69 105 142 178 242 293 355 423
#     4  10  24  47  75 110 145 188 245 298 363 432
#     4  11  22  46  72 100 143 190 232 295 362 419
#     4   8  20  43  63 104 134 184 230 291 339 427
#
# _framework density 28.312028000000002
#
# number of rings (size 3 to 8) (size 9 to 14) (size 15 to 20)
#    1.500    1.000    0.000    0.000    0.000   17.000 
#   13.500    2.500    0.000    0.000    0.000    0.000 
#    0.000    0.000    0.000    0.000    0.000    0.000 
#
# Total GULP energy -89343.494729 kJ/mol
# GULP energy per Si atom -5583.968421 kJ/mol
# Density = 2.824759 g / cm^3
# Si number density = 28.312028 Si / 1000 Ang^3
#
#
#
# Elastic Constant Matrix: (Units=GPa)
#
#
# Indices 1 2 3 4 5 6 
#
# 1 114.0992 19.5423 45.0031 -0.0003 -17.1248 0.0003
# 2 19.5423 99.1944 28.2743 -0.0007 -2.6558 0.0010
# 3 45.0031 28.2743 165.8209 -0.0002 -46.0800 0.0003
# 4 -0.0003 -0.0007 -0.0002 46.1499 0.0001 -7.8772
# 5 -17.1248 -2.6558 -46.0800 0.0001 54.4849 -0.0001
# 6 0.0003 0.0010 0.0003 -7.8772 -0.0001 52.5215
#
#
#
# Elastic Compliance Matrix: (Units=1/GPa)
#
#
# Indices 1 2 3 4 5 6 
#
# 1 0.010028 -0.001332 -0.002140 0.000000 0.001277 0.000000
# 2 -0.001332 0.010846 -0.001905 0.000000 -0.001501 0.000000
# 3 -0.002140 -0.001905 0.008789 0.000000 0.006668 0.000000
# 4 0.000000 0.000000 0.000000 0.022238 0.000000 0.003335
# 5 0.001277 -0.001501 0.006668 0.000000 0.024321 0.000000
# 6 0.000000 0.000000 0.000000 0.003335 0.000000 0.019540
#
#
# Mechanical properties :
#
#
# Convention : Reuss Voigt Hill
#
# Bulk Modulus (GPa) = 52.87959 62.75047 57.81503
# Shear Modulus (GPa) = 44.31885 49.71759 47.01822
#
# Velocity S-wave (km/s) = 3.96077 4.19508 4.07961
# Velocity P-wave (km/s) = 6.29563 6.75847 6.53115
#
# Compressibility (1/GPa) = 0.01891089
#
# Stress axis : x y z
#
# Youngs Moduli (GPa) = 99.72119 92.19634 113.77773
#
# Poissons Ratio (x) = 0.12277 0.24343
# Poissons Ratio (y) = 0.13279 0.21677
# Poissons Ratio (z) = 0.21335 0.17565
#
# Static dielectric constant tensor:
#      x y z
#    x 2.238340 0.000000 0.092520 
#    y 0.000000 2.242670 0.000000 
#    z 0.092520 0.000000 2.454510 
# 
# From -- ./inp_files/271524.got.cif
#   From: 2010.05.17/outbox.cif.g08.bks.cpg/sg15_136_cif.got.tgz:271524.got - 2010.06.03 18:47:42.
