data_PCOD9299966
_publ_section_title
;
Structure prediction by ZEFSAII (Michael W. Deem and Ramdas Pophale) SiO2 
 PCOD9299966
Probable space group: C 2/C
;
_chemical_formula_sum "Si O2"
_cell_formula_units_Z 32
_cell_length_a 11.465505
_cell_length_b 21.023811
_cell_length_c 11.464797
_cell_angle_alpha 90.000000
_cell_angle_beta 154.792443
_cell_angle_gamma 90.000000
_cell_volume 1177.002116
_symmetry_space_group_name_H-M "C 2/C"
_symmetry_group_IT_number 15
_symmetry_cell_setting 'monoclinic'
loop_
_space_group_symop_operation_xyz
x,y,z
-x,y,1/2-z
-x,-y,-z
x,-y,1/2+z
1/2+x,1/2+y,z
1/2-x,1/2+y,1/2-z
1/2-x,1/2-y,-z
1/2+x,1/2-y,1/2+z
loop_
_atom_site_type_symbol
_atom_site_label
_atom_site_fract_x
_atom_site_fract_y
_atom_site_fract_z
Si Si1 0.699405 0.980941 0.030301
Si Si2 0.928787 0.793339 0.996253
Si Si3 0.500000 0.798731 0.250000
Si Si4 0.710811 0.388222 0.830653
Si Si5 0.500000 0.863180 0.750000
O O1 0.500000 0.009762 0.750000
O O2 0.575143 0.910233 0.925776
O O3 0.728601 0.038217 0.147464
O O4 0.000000 0.969573 0.250000
O O5 0.727545 0.735083 0.781004
O O6 0.918341 0.847225 0.888583
O O7 0.762292 0.822904 0.953657
O O8 0.535213 0.847723 0.389453
O O9 0.750000 0.750000 0.500000
O O10 0.500000 0.391372 0.750000
#
# Coordination Sequence:
#
# PCOD9299966 Si02
#       5
#     8   8   4   8   4
#     4   9  21  40  70  97 126 176 215 283 339 381
#     4  12  29  43  70 100 135 189 221 276 336 399
#     4  12  21  32  58  84 131 176 204 256 314 400
#     4  11  24  44  65 103 140 170 222 276 347 408
#     4  10  25  50  70  94 139 172 246 274 324 398
#
# _framework density 27.187716999999999
#
# number of rings (size 3 to 8) (size 9 to 14) (size 15 to 20)
#    0.750    0.500    2.500    2.250    7.000    1.000 
#    0.000    5.000    0.000    0.000    0.000    0.000 
#    0.000    0.000    0.000    0.000    0.000    0.000 
#
# Total GULP energy -89517.988969 kJ/mol
# GULP energy per Si atom -5594.874311 kJ/mol
# Density = 2.712584 g / cm^3
# Si number density = 27.187717 Si / 1000 Ang^3
#
#
#
# Elastic Constant Matrix: (Units=GPa)
#
#
# Indices 1 2 3 4 5 6 
#
# 1 76.3255 24.5290 13.7085 0.0017 15.1422 -0.0001
# 2 24.5290 178.1497 20.2704 0.0004 1.0025 -0.0002
# 3 13.7085 20.2704 132.6630 0.0075 23.8829 0.0019
# 4 0.0017 0.0004 0.0075 -3.5638 0.0032 -8.3231
# 5 15.1422 1.0025 23.8829 0.0032 33.3219 -0.0002
# 6 -0.0001 -0.0002 0.0019 -8.3231 -0.0002 -3.3004
#
#
#
# Elastic Compliance Matrix: (Units=1/GPa)
#
#
# Indices 1 2 3 4 5 6 
#
# 1 0.015108 -0.002039 -0.000028 0.000000 -0.006784 0.000000
# 2 -0.002039 0.005996 -0.000964 0.000000 0.001437 0.000000
# 3 -0.000028 -0.000964 0.008818 0.000000 -0.006279 0.000005
# 4 0.000000 0.000000 0.000000 0.057387 -0.000006 -0.144720
# 5 -0.006784 0.001437 -0.006279 -0.000006 0.037550 0.000010
# 6 0.000000 0.000000 0.000005 -0.144720 0.000010 0.061967
#
#
# Mechanical properties :
#
#
# Convention : Reuss Voigt Hill
#
# Bulk Modulus (GPa) = 41.91230 56.01710 48.96470
# Shear Modulus (GPa) = 24.89520 27.20023 26.04772
#
# Velocity S-wave (km/s) = 3.02930 3.16644 3.09863
# Velocity P-wave (km/s) = 5.26165 5.83241 5.55436
#
# Compressibility (1/GPa) = 0.02385934
#
# Stress axis : x y z
#
# Youngs Moduli (GPa) = 66.19054 166.78942 113.39852
#
# Poissons Ratio (x) = 0.34004 0.00322
# Poissons Ratio (y) = 0.13495 0.10933
# Poissons Ratio (z) = 0.00188 0.16081
#
# Static dielectric constant tensor:
#      x y z
#    x 2.513740 0.000000 -0.330430 
#    y 0.000000 2.123800 0.000000 
#    z -0.330430 0.000000 2.508150 
# 
# From -- ./inp_files/156692.got.cif
#   From: 2010.05.17/outbox.cif.g08.bks.cpg/sg15_79_cif.got.tgz:156692.got - 2010.06.03 18:47:42.
