data_PCOD9299387
_publ_section_title
;
Structure prediction by ZEFSAII (Michael W. Deem and Ramdas Pophale) SiO2 
 PCOD9299387
Probable space group: C 2/C
;
_chemical_formula_sum "Si O2"
_cell_formula_units_Z 28
_cell_length_a 13.768424
_cell_length_b 7.013162
_cell_length_c 11.578994
_cell_angle_alpha 90.000000
_cell_angle_beta 66.964911
_cell_angle_gamma 90.000000
_cell_volume 1028.920975
_symmetry_space_group_name_H-M "C 2/C"
_symmetry_group_IT_number 15
_symmetry_cell_setting 'monoclinic'
loop_
_space_group_symop_operation_xyz
x,y,z
-x,y,1/2-z
-x,-y,-z
x,-y,1/2+z
1/2+x,1/2+y,z
1/2-x,1/2+y,1/2-z
1/2-x,1/2-y,-z
1/2+x,1/2-y,1/2+z
loop_
_atom_site_type_symbol
_atom_site_label
_atom_site_fract_x
_atom_site_fract_y
_atom_site_fract_z
Si Si1 0.500000 0.910553 0.250000
Si Si2 0.828934 0.093242 0.365241
Si Si3 0.620141 0.435561 0.916042
Si Si4 0.884516 0.511166 0.108211
O O1 0.416173 0.759018 0.342111
O O2 0.417956 0.046610 0.223429
O O3 0.857940 0.995835 0.227022
O O4 0.824994 0.980996 0.487218
O O5 0.706398 0.143958 0.396667
O O6 0.645307 0.211054 0.886497
O O7 0.500000 0.500000 0.000000
O O8 0.000000 0.500000 0.000000
#
# Coordination Sequence:
#
# PCOD9299387 Si02
#       4
#     4   8   8   8
#     4  10  24  50  64 106 148 178 234 298 354 402
#     4  11  23  45  73  97 140 186 232 282 353 413
#     4  11  22  47  70 101 140 182 233 289 353 415
#     4  11  26  43  69 105 138 184 237 287 351 421
#
# _framework density 27.212973999999999
#
# number of rings (size 3 to 8) (size 9 to 14) (size 15 to 20)
#    0.000    1.143    5.714    0.857    4.000    5.714 
#    5.143    0.000    0.000    0.000    0.000    0.000 
#    0.000    0.000    0.000    0.000    0.000    0.000 
#
# Total GULP energy -77978.737966 kJ/mol
# GULP energy per Si atom -5569.909855 kJ/mol
# Density = 2.715104 g / cm^3
# Si number density = 27.212974 Si / 1000 Ang^3
#
#
#
# Elastic Constant Matrix: (Units=GPa)
#
#
# Indices 1 2 3 4 5 6 
#
# 1 207.8230 25.5651 57.8462 0.0000 16.4395 0.0000
# 2 25.5651 78.2323 30.0219 0.0000 10.4432 0.0000
# 3 57.8462 30.0219 190.5678 0.0000 6.7321 0.0000
# 4 0.0000 0.0000 0.0000 29.5638 0.0000 -4.0894
# 5 16.4395 10.4432 6.7321 0.0000 71.3791 0.0000
# 6 0.0000 0.0000 0.0000 -4.0894 0.0000 24.6628
#
#
#
# Elastic Compliance Matrix: (Units=1/GPa)
#
#
# Indices 1 2 3 4 5 6 
#
# 1 0.005422 -0.001092 -0.001440 0.000000 -0.000953 0.000000
# 2 -0.001092 0.014058 -0.001825 0.000000 -0.001633 0.000000
# 3 -0.001440 -0.001825 0.005971 0.000000 0.000036 0.000000
# 4 0.000000 0.000000 0.000000 0.034619 0.000000 0.005740
# 5 -0.000953 -0.001633 0.000036 0.000000 0.014465 0.000000
# 6 0.000000 0.000000 0.000000 0.005740 0.000000 0.041499
#
#
# Mechanical properties :
#
#
# Convention : Reuss Voigt Hill
#
# Bulk Modulus (GPa) = 59.75240 78.16550 68.95895
# Shear Modulus (GPa) = 38.36473 49.33381 43.84927
#
# Velocity S-wave (km/s) = 3.75880 4.26241 4.01850
# Velocity P-wave (km/s) = 6.39086 7.28081 6.85030
#
# Compressibility (1/GPa) = 0.01673573
#
# Stress axis : x y z
#
# Youngs Moduli (GPa) = 184.41990 71.13469 167.47659
#
# Poissons Ratio (x) = 0.07768 0.24121
# Poissons Ratio (y) = 0.20139 0.30573
# Poissons Ratio (z) = 0.26561 0.12986
#
# Static dielectric constant tensor:
#      x y z
#    x 2.077540 0.000000 -0.003790 
#    y 0.000000 2.052310 0.000000 
#    z -0.003790 0.000000 2.314510 
# 
# From -- ./inp_files/93139.got.cif
#   From: 2010.05.17/outbox.cif.g08.bks.cpg/sg15_47_cif.got.tgz:93139.got - 2010.06.03 18:47:42.
