data_PCOD9299207
_publ_section_title
;
Structure prediction by ZEFSAII (Michael W. Deem and Ramdas Pophale) SiO2 
 PCOD9299207
Probable space group: C 2/C
;
_chemical_formula_sum "Si O2"
_cell_formula_units_Z 40
_cell_length_a 26.559520
_cell_length_b 5.228475
_cell_length_c 13.628346
_cell_angle_alpha 90.000000
_cell_angle_beta 55.924579
_cell_angle_gamma 90.000000
_cell_volume 1567.568293
_symmetry_space_group_name_H-M "C 2/C"
_symmetry_group_IT_number 15
_symmetry_cell_setting 'monoclinic'
loop_
_space_group_symop_operation_xyz
x,y,z
-x,y,1/2-z
-x,-y,-z
x,-y,1/2+z
1/2+x,1/2+y,z
1/2-x,1/2+y,1/2-z
1/2-x,1/2-y,-z
1/2+x,1/2-y,1/2+z
loop_
_atom_site_type_symbol
_atom_site_label
_atom_site_fract_x
_atom_site_fract_y
_atom_site_fract_z
Si Si1 0.006656 0.278763 0.626185
Si Si2 0.843018 0.504295 0.660144
Si Si3 0.611471 0.608527 0.031386
Si Si4 0.233311 0.820979 0.908570
Si Si5 0.067530 0.219417 0.299902
O O1 0.000000 0.292121 0.750000
O O2 0.981590 0.557048 0.623854
O O3 0.072920 0.145309 0.543606
O O4 0.960721 0.054137 0.644112
O O5 0.889005 0.314102 0.554944
O O6 0.802266 0.615711 0.617446
O O7 0.795590 0.368367 0.783876
O O8 0.875309 0.708016 0.696141
O O9 0.584838 0.709626 0.164707
O O10 0.682554 0.543612 0.968496
O O11 0.250000 0.750000 0.000000
#
# Coordination Sequence:
#
# PCOD9299207 Si02
#       5
#     8   8   8   8   8
#     4  10  24  47  77 114 155 207 263 323 405 478
#     4  12  28  47  77 119 155 212 278 331 409 488
#     4  11  27  49  81 111 164 212 266 339 404 479
#     4  12  29  50  81 113 164 212 275 336 408 479
#     4  11  27  47  81 113 157 207 266 328 402 478
#
# _framework density 25.517226999999998
#
# number of rings (size 3 to 8) (size 9 to 14) (size 15 to 20)
#    0.000    0.800    2.000    3.000   19.600    3.200 
#    0.000    0.000    0.000    0.000    0.000    0.000 
#    0.000    0.000    0.000    0.000    0.000    0.000 
#
# Total GULP energy -112050.850133 kJ/mol
# GULP energy per Si atom -5602.542507 kJ/mol
# Density = 2.545915 g / cm^3
# Si number density = 25.517227 Si / 1000 Ang^3
#
#
#
# Elastic Constant Matrix: (Units=GPa)
#
#
# Indices 1 2 3 4 5 6 
#
# 1 103.3393 25.8057 32.0589 0.0004 27.0204 0.0002
# 2 25.8057 116.0148 38.5751 0.0009 14.5031 0.0034
# 3 32.0589 38.5751 186.8742 0.0000 7.4550 0.0001
# 4 0.0004 0.0009 0.0000 34.0754 -0.0002 -8.7730
# 5 27.0204 14.5031 7.4550 -0.0002 41.4408 0.0004
# 6 0.0002 0.0034 0.0001 -8.7730 0.0004 57.4235
#
#
#
# Elastic Compliance Matrix: (Units=1/GPa)
#
#
# Indices 1 2 3 4 5 6 
#
# 1 0.012414 -0.001323 -0.001563 0.000000 -0.007350 0.000000
# 2 -0.001323 0.009759 -0.001698 0.000000 -0.002248 -0.000001
# 3 -0.001563 -0.001698 0.005948 0.000000 0.000544 0.000000
# 4 0.000000 0.000000 0.000000 0.030548 0.000000 0.004667
# 5 -0.007350 -0.002248 0.000544 0.000000 0.029612 0.000000
# 6 0.000000 -0.000001 0.000000 0.004667 0.000000 0.018127
#
#
# Mechanical properties :
#
#
# Convention : Reuss Voigt Hill
#
# Bulk Modulus (GPa) = 52.76064 66.56751 59.66408
# Shear Modulus (GPa) = 41.01880 47.24052 44.12966
#
# Velocity S-wave (km/s) = 4.01371 4.30736 4.16312
# Velocity P-wave (km/s) = 6.49624 7.13314 6.82213
#
# Compressibility (1/GPa) = 0.01895352
#
# Stress axis : x y z
#
# Youngs Moduli (GPa) = 80.55402 102.46584 168.11736
#
# Poissons Ratio (x) = 0.13552 0.26284
# Poissons Ratio (y) = 0.10654 0.28546
# Poissons Ratio (z) = 0.12594 0.17399
#
# Static dielectric constant tensor:
#      x y z
#    x 2.040450 0.000000 -0.089720 
#    y 0.000000 2.066290 0.000000 
#    z -0.089720 0.000000 2.027990 
# 
# From -- ./inp_files/175324.got.cif
#   From: 2010.05.17/outbox.cif.g08.bks.cpg/sg15_88_cif.got.tgz:175324.got - 2010.06.03 18:47:42.
