data_PCOD9299016
_publ_section_title
;
Structure prediction by ZEFSAII (Michael W. Deem and Ramdas Pophale) SiO2 
 PCOD9299016
Probable space group: C 2/C
;
_chemical_formula_sum "Si O2"
_cell_formula_units_Z 48
_cell_length_a 18.703379
_cell_length_b 7.167333
_cell_length_c 21.870393
_cell_angle_alpha 90.000000
_cell_angle_beta 43.441578
_cell_angle_gamma 90.000000
_cell_volume 2015.947994
_symmetry_space_group_name_H-M "C 2/C"
_symmetry_group_IT_number 15
_symmetry_cell_setting 'monoclinic'
loop_
_space_group_symop_operation_xyz
x,y,z
-x,y,1/2-z
-x,-y,-z
x,-y,1/2+z
1/2+x,1/2+y,z
1/2-x,1/2+y,1/2-z
1/2-x,1/2-y,-z
1/2+x,1/2-y,1/2+z
loop_
_atom_site_type_symbol
_atom_site_label
_atom_site_fract_x
_atom_site_fract_y
_atom_site_fract_z
Si Si1 0.335080 0.773619 0.874969
Si Si2 0.281071 0.412926 0.842285
Si Si3 0.415050 0.907529 0.096822
Si Si4 0.041236 0.664933 0.324624
Si Si5 0.303261 0.381387 0.017552
Si Si6 0.952383 0.062911 0.136473
O O1 0.305337 0.558699 0.882087
O O2 0.379202 0.831969 0.780962
O O3 0.429023 0.804082 0.863814
O O4 0.256804 0.589012 0.049417
O O5 0.196725 0.516371 0.852479
O O6 0.229776 0.226332 0.899909
O O7 0.384745 0.384250 0.738415
O O8 0.447538 0.980369 0.143336
O O9 0.414328 0.684005 0.102450
O O10 0.500000 0.000000 0.000000
O O11 0.060752 0.839923 0.357608
O O12 0.250000 0.250000 0.000000
O O13 0.426234 0.391255 0.932396
#
# Coordination Sequence:
#
# PCOD9299016 Si02
#       6
#     8   8   8   8   8   8
#     4  10  24  46  74 104 144 191 244 302 369 440
#     4  11  27  47  70 108 148 189 246 307 372 437
#     4  12  26  46  71 105 144 189 246 301 364 440
#     4  10  24  47  73 103 143 193 242 303 366 441
#     4  12  25  43  75 108 142 192 244 303 367 444
#     4  11  26  45  71 103 145 189 241 299 369 439
#
# _framework density 23.810136
#
# number of rings (size 3 to 8) (size 9 to 14) (size 15 to 20)
#    0.000    1.000    1.667    3.000    7.000    6.667 
#    0.000    1.667    0.000    0.000    0.000    0.000 
#    0.000    0.000    0.000    0.000    0.000    0.000 
#
# Total GULP energy -134464.180478 kJ/mol
# GULP energy per Si atom -5602.674187 kJ/mol
# Density = 2.375594 g / cm^3
# Si number density = 23.810136 Si / 1000 Ang^3
#
#
#
# Elastic Constant Matrix: (Units=GPa)
#
#
# Indices 1 2 3 4 5 6 
#
# 1 55.7638 22.8459 31.3145 0.0001 -12.6166 -0.0005
# 2 22.8459 90.5340 42.7533 0.0002 -12.3423 -0.0007
# 3 31.3145 42.7533 147.6598 -0.0001 -41.7517 0.0000
# 4 0.0001 0.0002 -0.0001 53.0553 0.0000 6.3724
# 5 -12.6166 -12.3423 -41.7517 0.0000 34.8867 0.0002
# 6 -0.0005 -0.0007 0.0000 6.3724 0.0002 43.1152
#
#
#
# Elastic Compliance Matrix: (Units=1/GPa)
#
#
# Indices 1 2 3 4 5 6 
#
# 1 0.021694 -0.003813 -0.002509 0.000000 0.003494 0.000000
# 2 -0.003813 0.013466 -0.003224 0.000000 -0.000474 0.000000
# 3 -0.002509 -0.003224 0.011576 0.000000 0.011806 0.000000
# 4 0.000000 0.000000 0.000000 0.019189 0.000000 -0.002836
# 5 0.003494 -0.000474 0.011806 0.000000 0.043890 0.000000
# 6 0.000000 0.000000 0.000000 -0.002836 0.000000 0.023613
#
#
# Mechanical properties :
#
#
# Convention : Reuss Voigt Hill
#
# Bulk Modulus (GPa) = 36.17416 54.19833 45.18625
# Shear Modulus (GPa) = 30.91480 39.34771 35.13125
#
# Velocity S-wave (km/s) = 3.60722 4.06958 3.84536
# Velocity P-wave (km/s) = 5.70747 6.70031 6.22372
#
# Compressibility (1/GPa) = 0.02764405
#
# Stress axis : x y z
#
# Youngs Moduli (GPa) = 46.09476 74.26196 86.38490
#
# Poissons Ratio (x) = 0.28320 0.21670
# Poissons Ratio (y) = 0.17578 0.27851
# Poissons Ratio (z) = 0.11563 0.23943
#
# Static dielectric constant tensor:
#      x y z
#    x 1.874500 0.000000 0.040980 
#    y 0.000000 1.870660 0.000000 
#    z 0.040980 0.000000 1.894730 
# 
# From -- ./inp_files/251788.got.cif
#   From: 2010.05.17/outbox.cif.g08.bks.cpg/sg15_126_cif.got.tgz:251788.got - 2010.06.03 18:47:42.
