data_PCOD9299498
_publ_section_title
;
Structure prediction by ZEFSAII (Michael W. Deem and Ramdas Pophale) SiO2 
 PCOD9299498
Probable space group: C 2/C
;
_chemical_formula_sum "Si O2"
_cell_formula_units_Z 56
_cell_length_a 26.693126
_cell_length_b 8.412720
_cell_length_c 12.845405
_cell_angle_alpha 90.000000
_cell_angle_beta 54.164249
_cell_angle_gamma 90.000000
_cell_volume 2338.530991
_symmetry_space_group_name_H-M "C 2/C"
_symmetry_group_IT_number 15
_symmetry_cell_setting 'monoclinic'
loop_
_space_group_symop_operation_xyz
x,y,z
-x,y,1/2-z
-x,-y,-z
x,-y,1/2+z
1/2+x,1/2+y,z
1/2-x,1/2+y,1/2-z
1/2-x,1/2-y,-z
1/2+x,1/2-y,1/2+z
loop_
_atom_site_type_symbol
_atom_site_label
_atom_site_fract_x
_atom_site_fract_y
_atom_site_fract_z
Si Si1 0.698809 0.456773 0.737340
Si Si2 0.435482 0.192089 0.845186
Si Si3 0.134559 0.265759 0.488259
Si Si4 0.270142 0.347121 0.115917
Si Si5 0.839840 0.539780 0.354907
Si Si6 0.614031 0.490164 0.647720
Si Si7 0.069723 0.445881 0.942133
O O1 0.725575 0.604482 0.768277
O O2 0.749838 0.335851 0.627425
O O3 0.649379 0.513086 0.712862
O O4 0.667337 0.341403 0.861557
O O5 0.500000 0.101859 0.750000
O O6 0.438367 0.358119 0.781288
O O7 0.380696 0.095277 0.860115
O O8 0.428966 0.197616 0.976999
O O9 0.175690 0.339646 0.532454
O O10 0.100493 0.405644 0.467477
O O11 0.094149 0.143952 0.607288
O O12 0.218263 0.461609 0.130262
O O13 0.333901 0.397427 0.984887
O O14 0.887086 0.597825 0.207728
O O15 0.000000 0.500000 0.000000
#
# Coordination Sequence:
#
# PCOD9299498 Si02
#       7
#     8   8   8   8   8   8   8
#     4  11  24  41  64  95 140 173 223 276 338 405
#     4  11  23  42  66  94 131 180 225 274 335 403
#     4  10  25  42  66 100 131 172 226 273 337 404
#     4  11  25  38  68  96 130 178 229 274 344 404
#     4  11  23  42  69  95 132 172 227 287 331 397
#     4  11  25  43  63  96 141 175 219 278 344 406
#     4  11  22  42  69  93 127 172 228 281 327 388
#
# _framework density 23.946659
#
# number of rings (size 3 to 8) (size 9 to 14) (size 15 to 20)
#    0.000    1.143    4.286    0.429    6.000    2.286 
#    2.571    0.714    0.000    0.000    0.000    0.000 
#    0.000    0.000    0.000    0.000    0.000    0.000 
#
# Total GULP energy -156552.780402 kJ/mol
# GULP energy per Si atom -5591.170729 kJ/mol
# Density = 2.389216 g / cm^3
# Si number density = 23.946659 Si / 1000 Ang^3
#
#
#
# Elastic Constant Matrix: (Units=GPa)
#
#
# Indices 1 2 3 4 5 6 
#
# 1 102.2831 3.1240 26.5806 0.0000 17.3053 0.0000
# 2 3.1240 50.6911 6.2515 0.0000 13.0861 0.0000
# 3 26.5806 6.2515 114.3176 0.0000 25.4845 0.0000
# 4 0.0000 0.0000 0.0000 33.3712 0.0000 12.7566
# 5 17.3053 13.0861 25.4845 0.0000 36.9474 0.0000
# 6 0.0000 0.0000 0.0000 12.7566 0.0000 24.5309
#
#
#
# Elastic Compliance Matrix: (Units=1/GPa)
#
#
# Indices 1 2 3 4 5 6 
#
# 1 0.010891 0.000612 -0.001631 0.000000 -0.004193 0.000000
# 2 0.000612 0.021785 0.000532 0.000000 -0.008370 0.000000
# 3 -0.001631 0.000532 0.010599 0.000000 -0.006735 0.000000
# 4 0.000000 0.000000 0.000000 0.037401 0.000000 -0.019449
# 5 -0.004193 -0.008370 -0.006735 0.000000 0.036639 0.000000
# 6 0.000000 0.000000 0.000000 -0.019449 0.000000 0.050879
#
#
# Mechanical properties :
#
#
# Convention : Reuss Voigt Hill
#
# Bulk Modulus (GPa) = 23.63955 37.68932 30.66443
# Shear Modulus (GPa) = 27.28240 34.39228 30.83734
#
# Velocity S-wave (km/s) = 3.37901 3.79384 3.59242
# Velocity P-wave (km/s) = 5.01167 5.91304 5.48091
#
# Compressibility (1/GPa) = 0.04230198
#
# Stress axis : x y z
#
# Youngs Moduli (GPa) = 91.81553 45.90396 94.34663
#
# Poissons Ratio (x) = -0.02811 0.15389
# Poissons Ratio (y) = -0.05623 -0.05020
# Poissons Ratio (z) = 0.14976 -0.02443
#
# Static dielectric constant tensor:
#      x y z
#    x 1.873040 0.000000 -0.016850 
#    y 0.000000 1.996660 0.000000 
#    z -0.016850 0.000000 2.000100 
# 
# From -- ./inp_files/121876.got.cif
#   From: 2010.05.17/outbox.cif.g08.bks.cpg/sg15_61_cif.got.tgz:121876.got - 2010.06.03 18:47:42.
