data_PCOD9299671
_publ_section_title
;
Structure prediction by ZEFSAII (Michael W. Deem and Ramdas Pophale) SiO2 
 PCOD9299671
Probable space group: C 2/C
;
_chemical_formula_sum "Si O2"
_cell_formula_units_Z 24
_cell_length_a 7.936289
_cell_length_b 13.037769
_cell_length_c 9.374330
_cell_angle_alpha 90.000000
_cell_angle_beta 108.558918
_cell_angle_gamma 90.000000
_cell_volume 919.534219
_symmetry_space_group_name_H-M "C 2/C"
_symmetry_group_IT_number 15
_symmetry_cell_setting 'monoclinic'
loop_
_space_group_symop_operation_xyz
x,y,z
-x,y,1/2-z
-x,-y,-z
x,-y,1/2+z
1/2+x,1/2+y,z
1/2-x,1/2+y,1/2-z
1/2-x,1/2-y,-z
1/2+x,1/2-y,1/2+z
loop_
_atom_site_type_symbol
_atom_site_label
_atom_site_fract_x
_atom_site_fract_y
_atom_site_fract_z
Si Si1 0.000000 0.792809 0.750000
Si Si2 0.000000 0.519109 0.250000
Si Si3 0.257518 0.948043 0.934613
Si Si4 0.699509 0.313797 0.348191
O O1 0.906121 0.869879 0.610701
O O2 0.846912 0.724143 0.776404
O O3 0.882809 0.581014 0.333522
O O4 0.131523 0.456493 0.390213
O O5 0.207188 0.065010 0.884600
O O6 0.500000 0.292155 0.250000
O O7 0.750000 0.250000 0.500000
#
# Coordination Sequence:
#
# PCOD9299671 Si02
#       4
#     4   4   8   8
#     4  12  29  50  83 116 154 210 263 318 399 464
#     4  10  25  44  83 110 152 212 257 318 399 456
#     4  11  25  51  77 114 159 205 260 326 388 466
#     4  12  30  50  76 120 158 204 264 322 391 471
#
# _framework density 26.100169999999999
#
# number of rings (size 3 to 8) (size 9 to 14) (size 15 to 20)
#    0.000    0.667    1.667    3.000   18.667    4.000 
#    0.000    0.000    0.000    0.000    0.000    0.000 
#    0.000    0.000    0.000    0.000    0.000    0.000 
#
# Total GULP energy -67365.132481 kJ/mol
# GULP energy per Si atom -5613.761040 kJ/mol
# Density = 2.604077 g / cm^3
# Si number density = 26.100170 Si / 1000 Ang^3
#
#
#
# Elastic Constant Matrix: (Units=GPa)
#
#
# Indices 1 2 3 4 5 6 
#
# 1 203.6591 95.6600 95.1229 0.0000 32.7814 0.0000
# 2 95.6600 192.0145 63.4629 0.0000 10.6898 0.0000
# 3 95.1229 63.4629 175.1983 0.0000 33.7207 0.0000
# 4 0.0000 0.0000 0.0000 35.6834 0.0000 8.5093
# 5 32.7814 10.6898 33.7207 0.0000 56.3867 0.0000
# 6 0.0000 0.0000 0.0000 8.5093 0.0000 19.8993
#
#
#
# Elastic Compliance Matrix: (Units=1/GPa)
#
#
# Indices 1 2 3 4 5 6 
#
# 1 0.007979 -0.002911 -0.002815 0.000000 -0.002403 0.000000
# 2 -0.002911 0.006980 -0.001151 0.000000 0.001058 0.000000
# 3 -0.002815 -0.001151 0.008245 0.000000 -0.003076 0.000000
# 4 0.000000 0.000000 0.000000 0.031206 0.000000 -0.013344
# 5 -0.002403 0.001058 -0.003076 0.000000 0.020771 0.000000
# 6 0.000000 0.000000 0.000000 -0.013344 0.000000 0.055959
#
#
# Mechanical properties :
#
#
# Convention : Reuss Voigt Hill
#
# Bulk Modulus (GPa) = 105.82776 119.92926 112.87851
# Shear Modulus (GPa) = 33.77323 43.50227 38.63775
#
# Velocity S-wave (km/s) = 3.60110 4.08701 3.85172
# Velocity P-wave (km/s) = 7.61087 8.26564 7.94501
#
# Compressibility (1/GPa) = 0.00944932
#
# Stress axis : x y z
#
# Youngs Moduli (GPa) = 125.32567 143.27045 121.27851
#
# Poissons Ratio (x) = 0.41705 0.34143
# Poissons Ratio (y) = 0.36481 0.13964
# Poissons Ratio (z) = 0.35282 0.16497
#
# Static dielectric constant tensor:
#      x y z
#    x 1.874180 0.000000 0.096330 
#    y 0.000000 2.083050 0.000000 
#    z 0.096330 0.000000 1.922580 
# 
# From -- ./inp_files/21167.got.cif
#   From: 2010.05.17/outbox.cif.g08.bks.cpg/sg15_11_cif.got.tgz:21167.got - 2010.06.03 18:47:42.
