data_PCOD9299675
_publ_section_title
;
Structure prediction by ZEFSAII (Michael W. Deem and Ramdas Pophale) SiO2 
 PCOD9299675
Probable space group: C 2/C
;
_chemical_formula_sum "Si O2"
_cell_formula_units_Z 36
_cell_length_a 7.788598
_cell_length_b 19.531839
_cell_length_c 13.607952
_cell_angle_alpha 90.000000
_cell_angle_beta 136.295622
_cell_angle_gamma 90.000000
_cell_volume 1430.322771
_symmetry_space_group_name_H-M "C 2/C"
_symmetry_group_IT_number 15
_symmetry_cell_setting 'monoclinic'
loop_
_space_group_symop_operation_xyz
x,y,z
-x,y,1/2-z
-x,-y,-z
x,-y,1/2+z
1/2+x,1/2+y,z
1/2-x,1/2+y,1/2-z
1/2-x,1/2-y,-z
1/2+x,1/2-y,1/2+z
loop_
_atom_site_type_symbol
_atom_site_label
_atom_site_fract_x
_atom_site_fract_y
_atom_site_fract_z
Si Si1 0.161372 0.889886 0.719997
Si Si2 0.500000 0.500000 0.500000
Si Si3 0.553268 0.273793 0.999806
Si Si4 0.793575 0.888572 0.304619
Si Si5 0.855447 0.372096 0.467632
O O1 0.000000 0.873519 0.750000
O O2 0.067327 0.957174 0.627758
O O3 0.128423 0.828270 0.628388
O O4 0.439294 0.899844 0.873895
O O5 0.277200 0.444308 0.381706
O O6 0.403645 0.209365 0.980251
O O7 0.750000 0.250000 0.000000
O O8 0.707834 0.313291 0.148066
O O9 0.633956 0.895580 0.141006
O O10 0.086840 0.893819 0.395462
#
# Coordination Sequence:
#
# PCOD9299675 Si02
#       5
#     8   4   8   8   8
#     4  11  24  45  70 100 137 179 226 283 339 407
#     4  10  26  48  64  96 138 178 236 268 340 400
#     4  11  22  42  68 104 142 173 221 283 349 409
#     4  10  25  45  65 101 135 182 229 279 337 409
#     4  11  23  42  71 100 135 178 227 283 345 399
#
# _framework density 25.169143999999999
#
# number of rings (size 3 to 8) (size 9 to 14) (size 15 to 20)
#    0.000    1.333    2.222    2.000    3.111    6.222 
#    4.000    0.000    0.000    0.000    0.000    0.000 
#    0.000    0.000    0.000    0.000    0.000    0.000 
#
# Total GULP energy -100351.439553 kJ/mol
# GULP energy per Si atom -5575.079975 kJ/mol
# Density = 2.511186 g / cm^3
# Si number density = 25.169144 Si / 1000 Ang^3
#
#
#
# Elastic Constant Matrix: (Units=GPa)
#
#
# Indices 1 2 3 4 5 6 
#
# 1 67.2644 -1.7576 40.3690 -0.0003 5.6997 -0.0001
# 2 -1.7576 58.7900 36.3931 0.0001 -0.3567 0.0000
# 3 40.3690 36.3931 184.5646 -0.0011 -29.5993 -0.0004
# 4 -0.0003 0.0001 -0.0011 236.4496 -0.0005 79.4956
# 5 5.6997 -0.3567 -29.5993 -0.0005 30.9561 -0.0002
# 6 -0.0001 0.0000 -0.0004 79.4956 -0.0002 48.1936
#
#
#
# Elastic Compliance Matrix: (Units=1/GPa)
#
#
# Indices 1 2 3 4 5 6 
#
# 1 0.020080 0.004879 -0.007014 0.000000 -0.010347 0.000000
# 2 0.004879 0.021000 -0.006276 0.000000 -0.006657 0.000000
# 3 -0.007014 -0.006276 0.009904 0.000000 0.010689 0.000000
# 4 0.000000 0.000000 0.000000 0.009495 0.000000 -0.015662
# 5 -0.010347 -0.006657 0.010689 0.000000 0.044353 0.000000
# 6 0.000000 0.000000 0.000000 -0.015662 0.000000 0.046584
#
#
# Mechanical properties :
#
#
# Convention : Reuss Voigt Hill
#
# Bulk Modulus (GPa) = 29.27059 51.18091 40.22575
# Shear Modulus (GPa) = 27.83606 78.82749 53.33178
#
# Velocity S-wave (km/s) = 3.32921 5.60242 4.60818
# Velocity P-wave (km/s) = 5.14130 7.88850 6.65813
#
# Compressibility (1/GPa) = 0.03416398
#
# Stress axis : x y z
#
# Youngs Moduli (GPa) = 49.80038 47.61895 100.97069
#
# Poissons Ratio (x) = -0.23234 0.70816
# Poissons Ratio (y) = -0.24298 0.63366
# Poissons Ratio (z) = 0.34928 0.29884
#
# Static dielectric constant tensor:
#      x y z
#    x 2.071340 0.000000 -0.001180 
#    y 0.000000 2.133120 0.000000 
#    z -0.001180 0.000000 1.989430 
# 
# From -- ./inp_files/50534.got.cif
#   From: 2010.05.17/outbox.cif.g08.bks.cpg/sg15_26_cif.got.tgz:50534.got - 2010.06.03 18:47:42.
