data_PCOD9299947
_publ_section_title
;
Structure prediction by ZEFSAII (Michael W. Deem and Ramdas Pophale) SiO2 
 PCOD9299947
Probable space group: C 2/C
;
_chemical_formula_sum "Si O2"
_cell_formula_units_Z 40
_cell_length_a 5.638718
_cell_length_b 22.728717
_cell_length_c 14.279657
_cell_angle_alpha 90.000000
_cell_angle_beta 93.594144
_cell_angle_gamma 90.000000
_cell_volume 1826.493097
_symmetry_space_group_name_H-M "C 2/C"
_symmetry_group_IT_number 15
_symmetry_cell_setting 'monoclinic'
loop_
_space_group_symop_operation_xyz
x,y,z
-x,y,1/2-z
-x,-y,-z
x,-y,1/2+z
1/2+x,1/2+y,z
1/2-x,1/2+y,1/2-z
1/2-x,1/2-y,-z
1/2+x,1/2-y,1/2+z
loop_
_atom_site_type_symbol
_atom_site_label
_atom_site_fract_x
_atom_site_fract_y
_atom_site_fract_z
Si Si1 0.500000 0.749843 0.250000
Si Si2 0.500000 0.451070 0.750000
Si Si3 0.679142 0.846837 0.666705
Si Si4 0.467039 0.098876 0.990644
Si Si5 0.740130 0.863953 0.201167
Si Si6 0.209845 0.007563 0.578630
O O1 0.637463 0.706863 0.323650
O O2 0.687626 0.793835 0.206469
O O3 0.327155 0.407165 0.688444
O O4 0.634100 0.492527 0.680973
O O5 0.500000 0.841512 0.750000
O O6 0.545924 0.851264 0.564694
O O7 0.277623 0.115908 0.907022
O O8 0.682821 0.071247 0.937231
O O9 0.387059 0.045057 0.054480
O O10 0.500000 0.887374 0.250000
O O11 0.000000 0.876326 0.250000
O O12 0.000000 0.000000 0.500000
#
# Coordination Sequence:
#
# PCOD9299947 Si02
#       6
#     4   4   8   8   8   8
#     4   9  24  44  72 100 142 178 240 293 374 416
#     4  11  22  40  68  96 148 186 228 295 348 412
#     4  11  21  42  69 102 137 183 235 299 350 426
#     4  11  25  43  70 100 143 187 241 286 355 427
#     4  10  25  49  71 104 142 186 237 301 359 425
#     4  11  24  41  63 107 140 185 237 281 347 430
#
# _framework density 21.899892999999999
#
# number of rings (size 3 to 8) (size 9 to 14) (size 15 to 20)
#    0.600    0.800    4.000    0.600    2.800    2.400 
#    0.000    2.000    0.000    0.000    0.000    0.000 
#    0.000    0.000    0.000    0.000    0.000    0.000 
#
# Total GULP energy -111688.671981 kJ/mol
# GULP energy per Si atom -5584.433599 kJ/mol
# Density = 2.185005 g / cm^3
# Si number density = 21.899893 Si / 1000 Ang^3
#
#
#
# Elastic Constant Matrix: (Units=GPa)
#
#
# Indices 1 2 3 4 5 6 
#
# 1 107.8978 21.9453 52.5344 0.0000 16.2309 0.0000
# 2 21.9453 57.5557 34.4999 0.0000 -0.9772 0.0000
# 3 52.5344 34.4999 152.3114 0.0000 10.4896 0.0000
# 4 0.0000 0.0000 0.0000 12.7544 0.0000 4.9140
# 5 16.2309 -0.9772 10.4896 0.0000 48.5769 0.0000
# 6 0.0000 0.0000 0.0000 4.9140 0.0000 23.5232
#
#
#
# Elastic Compliance Matrix: (Units=1/GPa)
#
#
# Indices 1 2 3 4 5 6 
#
# 1 0.011899 -0.002627 -0.003280 0.000000 -0.003320 0.000000
# 2 -0.002627 0.020779 -0.003949 0.000000 0.002148 0.000000
# 3 -0.003280 -0.003949 0.008650 0.000000 -0.000851 0.000000
# 4 0.000000 0.000000 0.000000 0.085267 0.000000 -0.017812
# 5 -0.003320 0.002148 -0.000851 0.000000 0.021922 0.000000
# 6 0.000000 0.000000 0.000000 -0.017812 0.000000 0.046232
#
#
# Mechanical properties :
#
#
# Convention : Reuss Voigt Hill
#
# Bulk Modulus (GPa) = 46.26119 59.52491 52.89305
# Shear Modulus (GPa) = 22.55630 30.88992 26.72311
#
# Velocity S-wave (km/s) = 3.21280 3.75974 3.49698
# Velocity P-wave (km/s) = 5.91038 6.78874 6.36473
#
# Compressibility (1/GPa) = 0.02161639
#
# Stress axis : x y z
#
# Youngs Moduli (GPa) = 84.04067 48.12451 115.60707
#
# Poissons Ratio (x) = 0.12642 0.37924
# Poissons Ratio (y) = 0.22077 0.45649
# Poissons Ratio (z) = 0.27569 0.19003
#
# Static dielectric constant tensor:
#      x y z
#    x 1.862880 0.000000 -0.030820 
#    y 0.000000 1.811170 0.000000 
#    z -0.030820 0.000000 1.784060 
# 
# From -- ./inp_files/129141.got.cif
#   From: 2010.05.17/outbox.cif.g08.bks.cpg/sg15_65_cif.got.tgz:129141.got - 2010.06.03 18:47:42.
