data_PCOD9299527
_publ_section_title
;
Structure prediction by ZEFSAII (Michael W. Deem and Ramdas Pophale) SiO2 
 PCOD9299527
Probable space group: C 2/C
;
_chemical_formula_sum "Si O2"
_cell_formula_units_Z 40
_cell_length_a 28.254422
_cell_length_b 5.207527
_cell_length_c 13.981464
_cell_angle_alpha 90.000000
_cell_angle_beta 50.927751
_cell_angle_gamma 90.000000
_cell_volume 1597.089154
_symmetry_space_group_name_H-M "C 2/C"
_symmetry_group_IT_number 15
_symmetry_cell_setting 'monoclinic'
loop_
_space_group_symop_operation_xyz
x,y,z
-x,y,1/2-z
-x,-y,-z
x,-y,1/2+z
1/2+x,1/2+y,z
1/2-x,1/2+y,1/2-z
1/2-x,1/2-y,-z
1/2+x,1/2-y,1/2+z
loop_
_atom_site_type_symbol
_atom_site_label
_atom_site_fract_x
_atom_site_fract_y
_atom_site_fract_z
Si Si1 0.124876 0.651447 0.777161
Si Si2 0.744303 0.107203 0.196131
Si Si3 0.864305 0.973938 0.930737
Si Si4 0.446877 0.477706 0.486852
Si Si5 0.458518 0.130382 0.236418
O O1 0.179400 0.462728 0.733307
O O2 0.107192 0.831914 0.887619
O O3 0.063178 0.499659 0.832777
O O4 0.137371 0.802233 0.662413
O O5 0.751847 0.899580 0.272733
O O6 0.797909 0.041346 0.053971
O O7 0.898405 0.235781 0.854680
O O8 0.904404 0.853501 0.967827
O O9 0.500000 0.500000 0.500000
O O10 0.489224 0.329652 0.357751
O O11 0.500000 0.946645 0.250000
#
# Coordination Sequence:
#
# PCOD9299527 Si02
#       5
#     8   8   8   8   8
#     4  12  26  45  79 104 149 208 247 325 379 464
#     4  12  30  52  79 112 155 204 261 320 385 454
#     4  11  26  48  71 110 147 198 258 314 379 460
#     4  11  23  45  71 108 153 194 249 315 389 456
#     4  10  25  42  71 112 148 192 252 312 384 465
#
# _framework density 25.045566000000001
#
# number of rings (size 3 to 8) (size 9 to 14) (size 15 to 20)
#    0.000    0.800    4.000    1.200   11.200    0.800 
#    0.000    0.000    0.000    0.000    0.000    0.000 
#    0.000    0.000    0.000    0.000    0.000    0.000 
#
# Total GULP energy -111606.141689 kJ/mol
# GULP energy per Si atom -5580.307084 kJ/mol
# Density = 2.498856 g / cm^3
# Si number density = 25.045566 Si / 1000 Ang^3
#
#
#
# Elastic Constant Matrix: (Units=GPa)
#
#
# Indices 1 2 3 4 5 6 
#
# 1 130.3126 -0.6412 2.1193 0.0006 9.5422 -0.0090
# 2 -0.6412 29.1426 -5.4441 0.0055 -0.8944 -0.0160
# 3 2.1193 -5.4441 104.4359 -0.0023 -3.8243 0.0017
# 4 0.0006 0.0055 -0.0023 -3.5828 0.0002 -8.0559
# 5 9.5422 -0.8944 -3.8243 0.0002 33.9571 0.0012
# 6 -0.0090 -0.0160 0.0017 -8.0559 0.0012 39.1158
#
#
#
# Elastic Compliance Matrix: (Units=1/GPa)
#
#
# Indices 1 2 3 4 5 6 
#
# 1 0.007841 0.000060 -0.000238 -0.000002 -0.002229 0.000001
# 2 0.000060 0.034695 0.001848 0.000014 0.001105 0.000017
# 3 -0.000238 0.001848 0.009721 -0.000003 0.001210 0.000000
# 4 -0.000002 0.000014 -0.000003 -0.190769 0.000003 -0.039289
# 5 -0.002229 0.001105 0.001210 0.000003 0.030241 0.000000
# 6 0.000001 0.000017 0.000000 -0.039289 0.000000 0.017474
#
#
# Mechanical properties :
#
#
# Convention : Reuss Voigt Hill
#
# Bulk Modulus (GPa) = 17.98681 28.43991 23.21336
# Shear Modulus (GPa) = -66.13242 31.75512 -17.18865
#
# Velocity S-wave (km/s) = -5.14414 3.56461 -2.62257
# Velocity P-wave (km/s) = 5.29959 5.32183 0.34366
#
# Compressibility (1/GPa) = 0.05559630
#
# Stress axis : x y z
#
# Youngs Moduli (GPa) = 127.53136 28.82301 102.87308
#
# Poissons Ratio (x) = -0.00172 0.02444
# Poissons Ratio (y) = -0.00762 -0.19009
# Poissons Ratio (z) = 0.03030 -0.05326
#
# Static dielectric constant tensor:
#      x y z
#    x 2.449910 -0.000190 0.470500 
#    y -0.000190 2.467080 -0.000280 
#    z 0.470500 -0.000280 2.331640 
# 
# From -- ./inp_files/170903.got.cif
#   From: 2010.05.17/outbox.cif.g08.bks.cpg/sg15_86_cif.got.tgz:170903.got - 2010.06.03 18:47:42.
