data_PCOD9299279
_publ_section_title
;
Structure prediction by ZEFSAII (Michael W. Deem and Ramdas Pophale) SiO2 
 PCOD9299279
Probable space group: C 2/C
;
_chemical_formula_sum "Si O2"
_cell_formula_units_Z 40
_cell_length_a 18.175081
_cell_length_b 5.100734
_cell_length_c 19.398596
_cell_angle_alpha 90.000000
_cell_angle_beta 124.774618
_cell_angle_gamma 90.000000
_cell_volume 1477.185586
_symmetry_space_group_name_H-M "C 2/C"
_symmetry_group_IT_number 15
_symmetry_cell_setting 'monoclinic'
loop_
_space_group_symop_operation_xyz
x,y,z
-x,y,1/2-z
-x,-y,-z
x,-y,1/2+z
1/2+x,1/2+y,z
1/2-x,1/2+y,1/2-z
1/2-x,1/2-y,-z
1/2+x,1/2-y,1/2+z
loop_
_atom_site_type_symbol
_atom_site_label
_atom_site_fract_x
_atom_site_fract_y
_atom_site_fract_z
Si Si1 0.928067 0.924247 0.088384
Si Si2 0.586030 0.168602 0.678023
Si Si3 0.232014 0.650296 0.862102
Si Si4 0.346549 0.139237 0.928058
Si Si5 0.000000 0.313774 0.750000
Si Si6 0.250000 0.750000 0.000000
O O1 0.831676 0.048349 0.026117
O O2 0.015068 0.105545 0.121906
O O3 0.933441 0.868638 0.172391
O O4 0.921116 0.703674 0.024765
O O5 0.675537 0.251630 0.767686
O O6 0.614554 0.030825 0.622488
O O7 0.543431 0.977489 0.711909
O O8 0.292603 0.400912 0.875674
O O9 0.181515 0.584145 0.905767
O O10 0.281885 0.910163 0.923160
#
# Coordination Sequence:
#
# PCOD9299279 Si02
#       6
#     8   8   8   8   4   4
#     4  11  27  49  77 113 152 207 255 327 386 466
#     4  12  27  49  72 115 153 204 257 324 387 467
#     4  11  26  46  78 112 153 206 250 321 383 462
#     4  11  28  48  79 110 157 202 263 313 390 458
#     4  12  28  44  82 110 154 200 260 322 392 462
#     4  10  24  48  72 108 152 190 264 306 382 450
#
# _framework density 27.078517999999999
#
# number of rings (size 3 to 8) (size 9 to 14) (size 15 to 20)
#    0.000    0.800    0.000    4.800   16.800    2.400 
#    0.000    0.000    0.000    0.000    0.000    0.000 
#    0.000    0.000    0.000    0.000    0.000    0.000 
#
# Total GULP energy -111577.375942 kJ/mol
# GULP energy per Si atom -5578.868797 kJ/mol
# Density = 2.701689 g / cm^3
# Si number density = 27.078518 Si / 1000 Ang^3
#
#
#
# Elastic Constant Matrix: (Units=GPa)
#
#
# Indices 1 2 3 4 5 6 
#
# 1 79.0020 12.3981 32.2133 -0.0001 -20.6580 -0.0001
# 2 12.3981 71.7051 36.6535 -0.0008 21.8608 -0.0011
# 3 32.2133 36.6535 189.3109 0.0001 -18.5878 0.0002
# 4 -0.0001 -0.0008 0.0001 50.2957 0.0002 6.4411
# 5 -20.6580 21.8608 -18.5878 0.0002 43.5966 0.0002
# 6 -0.0001 -0.0011 0.0002 6.4411 0.0002 22.9644
#
#
#
# Elastic Compliance Matrix: (Units=1/GPa)
#
#
# Indices 1 2 3 4 5 6 
#
# 1 0.016549 -0.005672 -0.000698 0.000000 0.010388 0.000000
# 2 -0.005672 0.022314 -0.004924 0.000000 -0.015976 0.000001
# 3 -0.000698 -0.004924 0.006851 0.000000 0.005059 0.000000
# 4 0.000000 0.000000 0.000000 0.020623 0.000000 -0.005784
# 5 0.010388 -0.015976 0.005059 0.000000 0.038028 -0.000001
# 6 0.000000 0.000001 0.000000 -0.005784 -0.000001 0.045168
#
#
# Mechanical properties :
#
#
# Convention : Reuss Voigt Hill
#
# Bulk Modulus (GPa) = 43.23875 55.83866 49.53870
# Shear Modulus (GPa) = 27.80414 40.62155 34.21284
#
# Velocity S-wave (km/s) = 3.20784 3.87737 3.55839
# Velocity P-wave (km/s) = 5.45187 6.38052 5.93439
#
# Compressibility (1/GPa) = 0.02312740
#
# Stress axis : x y z
#
# Youngs Moduli (GPa) = 60.42713 44.81452 145.96031
#
# Poissons Ratio (x) = 0.25417 0.10187
# Poissons Ratio (y) = 0.34272 0.71869
# Poissons Ratio (z) = 0.04217 0.22066
#
# Static dielectric constant tensor:
#      x y z
#    x 19.542090 0.001230 -14.602340 
#    y 0.001230 3.380560 -0.001040 
#    z -14.602340 -0.001040 14.602910 
# 
# From -- ./inp_files/212627.got.cif
#   From: 2010.05.17/outbox.cif.g08.bks.cpg/sg15_107_cif.got.tgz:212627.got - 2010.06.03 18:47:42.
