data_PCOD9299103
_publ_section_title
;
Structure prediction by ZEFSAII (Michael W. Deem and Ramdas Pophale) SiO2 
 PCOD9299103
Probable space group: C 2/C
;
_chemical_formula_sum "Si O2"
_cell_formula_units_Z 44
_cell_length_a 28.757552
_cell_length_b 7.619463
_cell_length_c 9.585020
_cell_angle_alpha 90.000000
_cell_angle_beta 95.035890
_cell_angle_gamma 90.000000
_cell_volume 2092.134693
_symmetry_space_group_name_H-M "C 2/C"
_symmetry_group_IT_number 15
_symmetry_cell_setting 'monoclinic'
loop_
_space_group_symop_operation_xyz
x,y,z
-x,y,1/2-z
-x,-y,-z
x,-y,1/2+z
1/2+x,1/2+y,z
1/2-x,1/2+y,1/2-z
1/2-x,1/2-y,-z
1/2+x,1/2-y,1/2+z
loop_
_atom_site_type_symbol
_atom_site_label
_atom_site_fract_x
_atom_site_fract_y
_atom_site_fract_z
Si Si1 0.062461 0.064641 0.011641
Si Si2 0.789004 0.193743 0.900415
Si Si3 0.273641 0.290435 0.861067
Si Si4 0.500000 0.526987 0.750000
Si Si5 0.125604 0.647020 0.649526
Si Si6 0.609793 0.192931 0.971701
O O1 0.106204 0.184192 0.061219
O O2 0.028867 0.076434 0.138473
O O3 0.037127 0.123697 0.861220
O O4 0.076929 0.860388 0.995065
O O5 0.769214 0.279884 0.756415
O O6 0.791487 0.988239 0.869956
O O7 0.750000 0.250000 0.000000
O O8 0.838197 0.250236 0.972323
O O9 0.317767 0.163870 0.841040
O O10 0.250000 0.250000 0.000000
O O11 0.110001 0.652275 0.806822
O O12 0.103566 0.479589 0.564879
#
# Coordination Sequence:
#
# PCOD9299103 Si02
#       6
#     8   8   8   4   8   8
#     4  11  24  50  77 105 144 183 233 294 370 422
#     4  12  24  43  62  97 140 184 240 288 336 405
#     4  12  26  41  66  97 140 188 237 293 343 403
#     4  10  24  46  82 108 136 180 232 302 362 440
#     4  12  27  46  70 105 142 193 239 287 356 420
#     4  12  27  45  71 103 145 191 239 289 352 424
#
# _framework density 21.031151999999999
#
# number of rings (size 3 to 8) (size 9 to 14) (size 15 to 20)
#    0.000    0.364    5.455    3.273    5.091    0.000 
#    0.000    5.455    0.000    0.000    0.000    0.000 
#    0.000    0.000    0.000    0.000    0.000    0.000 
#
# Total GULP energy -122887.225413 kJ/mol
# GULP energy per Si atom -5585.782973 kJ/mol
# Density = 2.098328 g / cm^3
# Si number density = 21.031152 Si / 1000 Ang^3
#
#
#
# Elastic Constant Matrix: (Units=GPa)
#
#
# Indices 1 2 3 4 5 6 
#
# 1 78.4113 16.5377 35.9551 0.0000 10.3459 0.0000
# 2 16.5377 123.0292 48.2806 0.0000 4.6169 0.0000
# 3 35.9551 48.2806 192.8411 0.0000 16.1031 0.0000
# 4 0.0000 0.0000 0.0000 26.8004 0.0000 2.4310
# 5 10.3459 4.6169 16.1031 0.0000 37.9264 0.0000
# 6 0.0000 0.0000 0.0000 2.4310 0.0000 9.8917
#
#
#
# Elastic Compliance Matrix: (Units=1/GPa)
#
#
# Indices 1 2 3 4 5 6 
#
# 1 0.014340 -0.000959 -0.002194 0.000000 -0.002863 0.000000
# 2 -0.000959 0.009079 -0.002098 0.000000 0.000047 0.000000
# 3 -0.002194 -0.002098 0.006271 0.000000 -0.001809 0.000000
# 4 0.000000 0.000000 0.000000 0.038164 0.000000 -0.009379
# 5 -0.002863 0.000047 -0.001809 0.000000 0.027910 0.000000
# 6 0.000000 0.000000 0.000000 -0.009379 0.000000 0.103400
#
#
# Mechanical properties :
#
#
# Convention : Reuss Voigt Hill
#
# Bulk Modulus (GPa) = 52.12047 66.20315 59.16181
# Shear Modulus (GPa) = 23.14156 34.49091 28.81624
#
# Velocity S-wave (km/s) = 3.32075 4.05407 3.70560
# Velocity P-wave (km/s) = 6.28804 7.31170 6.81911
#
# Compressibility (1/GPa) = 0.01918632
#
# Stress axis : x y z
#
# Youngs Moduli (GPa) = 69.73724 110.14854 159.46194
#
# Poissons Ratio (x) = 0.10562 0.34993
# Poissons Ratio (y) = 0.06687 0.33457
# Poissons Ratio (z) = 0.15303 0.23111
#
# Static dielectric constant tensor:
#      x y z
#    x 1.742960 0.000000 -0.016160 
#    y 0.000000 1.759700 0.000000 
#    z -0.016160 0.000000 1.656420 
# 
# From -- ./inp_files/68384.got.cif
#   From: 2010.05.17/outbox.cif.g08.bks.cpg/sg15_35_cif.got.tgz:68384.got - 2010.06.03 18:47:42.
