data_PCOD9299838
_publ_section_title
;
Structure prediction by ZEFSAII (Michael W. Deem and Ramdas Pophale) SiO2 
 PCOD9299838
Probable space group: C 2/C
;
_chemical_formula_sum "Si O2"
_cell_formula_units_Z 52
_cell_length_a 15.865831
_cell_length_b 22.768769
_cell_length_c 12.093400
_cell_angle_alpha 90.000000
_cell_angle_beta 143.339921
_cell_angle_gamma 90.000000
_cell_volume 2608.395230
_symmetry_space_group_name_H-M "C 2/C"
_symmetry_group_IT_number 15
_symmetry_cell_setting 'monoclinic'
loop_
_space_group_symop_operation_xyz
x,y,z
-x,y,1/2-z
-x,-y,-z
x,-y,1/2+z
1/2+x,1/2+y,z
1/2-x,1/2+y,1/2-z
1/2-x,1/2-y,-z
1/2+x,1/2-y,1/2+z
loop_
_atom_site_type_symbol
_atom_site_label
_atom_site_fract_x
_atom_site_fract_y
_atom_site_fract_z
Si Si1 0.802286 0.703755 0.748756
Si Si2 0.641162 0.479369 0.085041
Si Si3 0.000000 0.673478 0.750000
Si Si4 0.828450 0.417699 0.684060
Si Si5 0.763788 0.340558 0.819271
Si Si6 0.354906 0.095872 0.958890
Si Si7 0.030634 0.863979 0.898352
O O1 0.894437 0.700425 0.732437
O O2 0.775370 0.772306 0.737308
O O3 0.867500 0.658936 0.908814
O O4 0.645899 0.676567 0.575590
O O5 0.722881 0.530889 0.108919
O O6 0.746732 0.446264 0.280774
O O7 0.500000 0.500000 0.000000
O O8 0.599333 0.427681 0.956479
O O9 0.881010 0.647351 0.538713
O O10 0.808732 0.365621 0.749734
O O11 0.807023 0.397719 0.535457
O O12 0.992259 0.434967 0.873238
O O13 0.616664 0.370951 0.696165
O O14 0.000000 0.834525 0.750000
#
# Coordination Sequence:
#
# PCOD9299838 Si02
#       7
#     8   8   4   8   8   8   8
#     4  11  24  41  66 101 136 178 228 278 343 407
#     4  11  24  43  67  96 131 173 228 281 337 395
#     4  12  22  40  68  94 140 172 228 276 334 406
#     4  11  24  46  70  96 135 182 227 282 336 404
#     4  12  24  40  68 100 134 183 226 279 344 401
#     4  10  25  47  67  98 136 178 230 278 334 412
#     4  11  24  40  62  99 135 172 222 281 337 400
#
# _framework density 19.935628999999999
#
# number of rings (size 3 to 8) (size 9 to 14) (size 15 to 20)
#    0.000    0.923    4.615    1.846    4.308    0.615 
#    0.000    0.000    0.000    0.000    0.000    0.000 
#    0.000    0.000    0.000    0.000    0.000    0.000 
#
# Total GULP energy -144902.720519 kJ/mol
# GULP energy per Si atom -5573.181558 kJ/mol
# Density = 1.989025 g / cm^3
# Si number density = 19.935629 Si / 1000 Ang^3
#
#
#
# Elastic Constant Matrix: (Units=GPa)
#
#
# Indices 1 2 3 4 5 6 
#
# 1 139.1634 36.0138 47.0505 0.0000 -10.3185 0.0000
# 2 36.0138 85.5068 26.7709 0.0000 -9.9737 0.0000
# 3 47.0505 26.7709 92.3234 0.0000 3.2511 0.0000
# 4 0.0000 0.0000 0.0000 7.9889 0.0000 9.9042
# 5 -10.3185 -9.9737 3.2511 0.0000 38.5308 0.0000
# 6 0.0000 0.0000 0.0000 9.9042 0.0000 19.0001
#
#
#
# Elastic Compliance Matrix: (Units=1/GPa)
#
#
# Indices 1 2 3 4 5 6 
#
# 1 0.009378 -0.002383 -0.004167 0.000000 0.002246 0.000000
# 2 -0.002383 0.014003 -0.002960 0.000000 0.003236 0.000000
# 3 -0.004167 -0.002960 0.013921 0.000000 -0.003057 0.000000
# 4 0.000000 0.000000 0.000000 0.353846 0.000000 -0.184450
# 5 0.002246 0.003236 -0.003057 0.000000 0.027650 0.000000
# 6 0.000000 0.000000 0.000000 -0.184450 0.000000 0.148780
#
#
# Mechanical properties :
#
#
# Convention : Reuss Voigt Hill
#
# Bulk Modulus (GPa) = 54.70032 59.62933 57.16482
# Shear Modulus (GPa) = 8.43608 26.91451 17.67529
#
# Velocity S-wave (km/s) = 2.05933 3.67832 2.98084
# Velocity P-wave (km/s) = 5.75782 6.92935 6.37057
#
# Compressibility (1/GPa) = 0.01828143
#
# Stress axis : x y z
#
# Youngs Moduli (GPa) = 106.63218 71.41404 71.83289
#
# Poissons Ratio (x) = 0.17019 0.29935
# Poissons Ratio (y) = 0.25412 0.21261
# Poissons Ratio (z) = 0.44438 0.21138
#
# Static dielectric constant tensor:
#      x y z
#    x 1.648170 0.000000 -0.018740 
#    y 0.000000 1.736230 0.000000 
#    z -0.018740 0.000000 1.701290 
# 
# From -- ./inp_files/100622.got.cif
#   From: 2010.05.17/outbox.cif.g08.bks.cpg/sg15_51_cif.got.tgz:100622.got - 2010.06.03 18:47:42.
