data_PCOD9299761
_publ_section_title
;
Structure prediction by ZEFSAII (Michael W. Deem and Ramdas Pophale) SiO2 
 PCOD9299761
Probable space group: C 2/C
;
_chemical_formula_sum "Si O2"
_cell_formula_units_Z 40
_cell_length_a 18.475083
_cell_length_b 8.818153
_cell_length_c 10.211132
_cell_angle_alpha 90.000000
_cell_angle_beta 104.570712
_cell_angle_gamma 90.000000
_cell_volume 1610.054366
_symmetry_space_group_name_H-M "C 2/C"
_symmetry_group_IT_number 15
_symmetry_cell_setting 'monoclinic'
loop_
_space_group_symop_operation_xyz
x,y,z
-x,y,1/2-z
-x,-y,-z
x,-y,1/2+z
1/2+x,1/2+y,z
1/2-x,1/2+y,1/2-z
1/2-x,1/2-y,-z
1/2+x,1/2-y,1/2+z
loop_
_atom_site_type_symbol
_atom_site_label
_atom_site_fract_x
_atom_site_fract_y
_atom_site_fract_z
Si Si1 0.112152 0.293946 0.808410
Si Si2 0.729981 0.853750 0.187297
Si Si3 0.818374 0.422296 0.054906
Si Si4 0.913527 0.148330 0.441131
Si Si5 0.075644 0.199617 0.521079
O O1 0.197282 0.238973 0.821372
O O2 0.117416 0.457673 0.876207
O O3 0.073704 0.301350 0.651108
O O4 0.080107 0.177346 0.899304
O O5 0.731141 0.902729 0.338577
O O6 0.656646 0.747695 0.136076
O O7 0.721750 0.998281 0.086795
O O8 0.859262 0.267290 0.037714
O O9 0.993689 0.196590 0.420428
O O10 0.905742 0.969244 0.420220
#
# Coordination Sequence:
#
# PCOD9299761 Si02
#       5
#     8   8   8   8   8
#     4  11  25  45  70 101 142 183 240 299 342 427
#     4  11  26  45  72 105 145 180 246 289 355 419
#     4  11  24  47  68 107 135 193 231 292 357 416
#     4  10  25  46  67 104 138 184 235 297 351 426
#     4  11  25  44  72  98 141 189 233 289 364 418
#
# _framework density 24.843882000000001
#
# number of rings (size 3 to 8) (size 9 to 14) (size 15 to 20)
#    0.000    1.200    2.000    3.000    8.400    4.800 
#    7.200    0.000    0.000    0.000    0.000    0.000 
#    0.000    0.000    0.000    0.000    0.000    0.000 
#
# Total GULP energy -112098.683130 kJ/mol
# GULP energy per Si atom -5604.934156 kJ/mol
# Density = 2.478734 g / cm^3
# Si number density = 24.843882 Si / 1000 Ang^3
#
#
#
# Elastic Constant Matrix: (Units=GPa)
#
#
# Indices 1 2 3 4 5 6 
#
# 1 113.4574 32.8994 42.1372 0.0000 22.3440 0.0000
# 2 32.8994 76.1534 18.7643 0.0000 3.5526 0.0000
# 3 42.1372 18.7643 101.1324 0.0000 -21.3740 0.0000
# 4 0.0000 0.0000 0.0000 25.4963 0.0000 -8.4905
# 5 22.3440 3.5526 -21.3740 0.0000 32.1316 0.0000
# 6 0.0000 0.0000 0.0000 -8.4905 0.0000 27.3598
#
#
#
# Elastic Compliance Matrix: (Units=1/GPa)
#
#
# Indices 1 2 3 4 5 6 
#
# 1 0.017653 -0.004142 -0.010570 0.000000 -0.018849 0.000000
# 2 -0.004142 0.015131 -0.000961 0.000000 0.000568 0.000000
# 3 -0.010570 -0.000961 0.018671 0.000000 0.019877 0.000000
# 4 0.000000 0.000000 0.000000 0.043742 0.000000 0.013574
# 5 -0.018849 0.000568 0.019877 0.000000 0.057389 0.000000
# 6 0.000000 0.000000 0.000000 0.013574 0.000000 0.040762
#
#
# Mechanical properties :
#
#
# Convention : Reuss Voigt Hill
#
# Bulk Modulus (GPa) = 49.73277 53.14944 51.44110
# Shear Modulus (GPa) = 21.60769 30.12702 25.86736
#
# Velocity S-wave (km/s) = 2.95233 3.48610 3.23026
# Velocity P-wave (km/s) = 5.62879 6.13544 5.88757
#
# Compressibility (1/GPa) = 0.02010747
#
# Stress axis : x y z
#
# Youngs Moduli (GPa) = 56.64838 66.08777 53.55778
#
# Poissons Ratio (x) = 0.27377 0.56611
# Poissons Ratio (y) = 0.23466 0.05150
# Poissons Ratio (z) = 0.59878 0.06354
#
# Static dielectric constant tensor:
#      x y z
#    x 1.959560 0.000000 0.023880 
#    y 0.000000 1.968930 0.000000 
#    z 0.023880 0.000000 1.967110 
# 
# From -- ./inp_files/102719.got.cif
#   From: 2010.05.17/outbox.cif.g08.bks.cpg/sg15_52_cif.got.tgz:102719.got - 2010.06.03 18:47:42.
