data_PCOD9299026
_publ_section_title
;
Structure prediction by ZEFSAII (Michael W. Deem and Ramdas Pophale) SiO2 
 PCOD9299026
Probable space group: C 2/C
;
_chemical_formula_sum "Si O2"
_cell_formula_units_Z 48
_cell_length_a 29.864759
_cell_length_b 5.017944
_cell_length_c 18.813082
_cell_angle_alpha 90.000000
_cell_angle_beta 140.257641
_cell_angle_gamma 90.000000
_cell_volume 1802.495741
_symmetry_space_group_name_H-M "C 2/C"
_symmetry_group_IT_number 15
_symmetry_cell_setting 'monoclinic'
loop_
_space_group_symop_operation_xyz
x,y,z
-x,y,1/2-z
-x,-y,-z
x,-y,1/2+z
1/2+x,1/2+y,z
1/2-x,1/2+y,1/2-z
1/2-x,1/2-y,-z
1/2+x,1/2-y,1/2+z
loop_
_atom_site_type_symbol
_atom_site_label
_atom_site_fract_x
_atom_site_fract_y
_atom_site_fract_z
Si Si1 0.435268 0.094238 0.966923
Si Si2 0.090296 0.952762 0.690651
Si Si3 0.666009 0.041965 0.343760
Si Si4 0.536554 0.579599 0.871184
Si Si5 0.210895 0.406895 0.677824
Si Si6 0.182131 0.784574 0.511424
O O1 0.413530 0.360533 0.895814
O O2 0.367118 0.914208 0.887338
O O3 0.456980 0.150746 0.074370
O O4 0.500000 0.000000 0.000000
O O5 0.141088 0.747473 0.792017
O O6 0.121727 0.242356 0.744506
O O7 0.015428 0.923655 0.639191
O O8 0.748451 0.068351 0.430182
O O9 0.651900 0.121718 0.407600
O O10 0.500000 0.594302 0.750000
O O11 0.619139 0.522597 0.960640
O O12 0.243332 0.113947 0.718453
O O13 0.206570 0.567691 0.598987
#
# Coordination Sequence:
#
# PCOD9299026 Si02
#       6
#     8   8   8   8   8   8
#     4  11  26  47  78 111 150 202 248 306 376 449
#     4  12  25  48  76 107 148 193 248 299 374 439
#     4  11  25  47  76 108 146 191 245 307 370 442
#     4  11  24  49  70 110 151 197 246 310 368 441
#     4  11  25  47  75 109 148 191 250 305 370 439
#     4  10  24  46  74 108 146 193 245 304 370 436
#
# _framework density 26.629742
#
# number of rings (size 3 to 8) (size 9 to 14) (size 15 to 20)
#    0.000    1.000    1.667    3.500    0.000    8.000 
#    9.000    0.000    0.000    0.000    0.000    0.000 
#    0.000    0.000    0.000    0.000    0.000    0.000 
#
# Total GULP energy -134618.616241 kJ/mol
# GULP energy per Si atom -5609.109010 kJ/mol
# Density = 2.656913 g / cm^3
# Si number density = 26.629742 Si / 1000 Ang^3
#
#
#
# Elastic Constant Matrix: (Units=GPa)
#
#
# Indices 1 2 3 4 5 6 
#
# 1 98.2510 14.4106 11.1586 -0.0003 21.7808 -0.0005
# 2 14.4106 62.5456 11.8740 -0.0021 12.5920 0.0011
# 3 11.1586 11.8740 84.5734 0.0003 5.4057 -0.0004
# 4 -0.0003 -0.0021 0.0003 28.6345 -0.0003 4.2654
# 5 21.7808 12.5920 5.4057 -0.0003 78.8307 -0.0004
# 6 -0.0005 0.0011 -0.0004 4.2654 -0.0004 37.9532
#
#
#
# Elastic Compliance Matrix: (Units=1/GPa)
#
#
# Indices 1 2 3 4 5 6 
#
# 1 0.011168 -0.001827 -0.001043 0.000000 -0.002722 0.000000
# 2 -0.001827 0.017221 -0.002042 0.000001 -0.002106 -0.000001
# 3 -0.001043 -0.002042 0.012263 0.000000 -0.000227 0.000000
# 4 0.000000 0.000001 0.000000 0.035517 0.000000 -0.003992
# 5 -0.002722 -0.002106 -0.000227 0.000000 0.013790 0.000000
# 6 0.000000 -0.000001 0.000000 -0.003992 0.000000 0.026797
#
#
# Mechanical properties :
#
#
# Convention : Reuss Voigt Hill
#
# Bulk Modulus (GPa) = 32.43863 35.58405 34.01134
# Shear Modulus (GPa) = 36.53483 42.94547 39.74015
#
# Velocity S-wave (km/s) = 3.70801 4.02019 3.86725
# Velocity P-wave (km/s) = 5.52632 5.91107 5.72193
#
# Compressibility (1/GPa) = 0.03082745
#
# Stress axis : x y z
#
# Youngs Moduli (GPa) = 89.54198 58.06874 81.54708
#
# Poissons Ratio (x) = 0.10609 0.08505
# Poissons Ratio (y) = 0.16360 0.16653
# Poissons Ratio (z) = 0.09339 0.11858
#
# Static dielectric constant tensor:
#      x y z
#    x 2.061860 0.000000 -0.016820 
#    y 0.000000 2.049690 0.000000 
#    z -0.016820 0.000000 2.108930 
# 
# From -- ./inp_files/258568.got.cif
#   From: 2010.05.17/outbox.cif.g08.bks.cpg/sg15_130_cif.got.tgz:258568.got - 2010.06.03 18:47:42.
