data_PCOD9299859
_publ_section_title
;
Structure prediction by ZEFSAII (Michael W. Deem and Ramdas Pophale) SiO2 
 PCOD9299859
Probable space group: C 2/C
;
_chemical_formula_sum "Si O2"
_cell_formula_units_Z 44
_cell_length_a 23.118721
_cell_length_b 13.737312
_cell_length_c 7.641976
_cell_angle_alpha 90.000000
_cell_angle_beta 44.989842
_cell_angle_gamma 90.000000
_cell_volume 1715.849638
_symmetry_space_group_name_H-M "C 2/C"
_symmetry_group_IT_number 15
_symmetry_cell_setting 'monoclinic'
loop_
_space_group_symop_operation_xyz
x,y,z
-x,y,1/2-z
-x,-y,-z
x,-y,1/2+z
1/2+x,1/2+y,z
1/2-x,1/2+y,1/2-z
1/2-x,1/2-y,-z
1/2+x,1/2-y,1/2+z
loop_
_atom_site_type_symbol
_atom_site_label
_atom_site_fract_x
_atom_site_fract_y
_atom_site_fract_z
Si Si1 0.078828 0.870105 0.466423
Si Si2 0.609969 0.097116 0.203658
Si Si3 0.316233 0.683826 0.460796
Si Si4 0.280410 0.465877 0.500266
Si Si5 0.500000 0.061170 0.750000
Si Si6 0.877703 0.193882 0.978125
O O1 0.138795 0.796751 0.449627
O O2 0.140196 0.959823 0.297942
O O3 0.060672 0.838397 0.306907
O O4 0.000000 0.891814 0.750000
O O5 0.543336 0.118528 0.499916
O O6 0.630062 0.192210 0.048223
O O7 0.568646 0.010844 0.181551
O O8 0.694101 0.059355 0.102861
O O9 0.250000 0.750000 0.500000
O O10 0.278374 0.576800 0.563266
O O11 0.386975 0.681944 0.162973
O O12 0.301039 0.376495 0.588134
#
# Coordination Sequence:
#
# PCOD9299859 Si02
#       6
#     8   8   8   8   4   8
#     4  10  26  47  71 108 148 192 242 310 372 425
#     4  11  24  47  70 108 146 195 245 302 383 437
#     4  12  26  44  75 111 139 203 251 301 373 442
#     4  10  25  47  72 104 147 195 243 315 363 448
#     4  10  28  42  74 106 152 190 244 316 370 458
#     4  10  26  44  75 107 143 196 246 300 360 453
#
# _framework density 25.643270999999999
#
# number of rings (size 3 to 8) (size 9 to 14) (size 15 to 20)
#    1.091    0.364    0.000    2.727   11.455    2.909 
#    0.000    0.000    0.000    0.000    0.000    0.000 
#    0.000    0.000    0.000    0.000    0.000    0.000 
#
# Total GULP energy -122787.930631 kJ/mol
# GULP energy per Si atom -5581.269574 kJ/mol
# Density = 2.558491 g / cm^3
# Si number density = 25.643271 Si / 1000 Ang^3
#
#
#
# Elastic Constant Matrix: (Units=GPa)
#
#
# Indices 1 2 3 4 5 6 
#
# 1 33.2626 -2.7509 13.3092 0.0000 -19.9971 0.0000
# 2 -2.7509 105.1888 8.4807 0.0000 -11.0057 0.0000
# 3 13.3092 8.4807 125.7505 0.0000 7.7476 0.0000
# 4 0.0000 0.0000 0.0000 5.2956 0.0000 22.1738
# 5 -19.9971 -11.0057 7.7476 0.0000 55.3988 0.0000
# 6 0.0000 0.0000 0.0000 22.1738 0.0000 8.6891
#
#
#
# Elastic Compliance Matrix: (Units=1/GPa)
#
#
# Indices 1 2 3 4 5 6 
#
# 1 0.042855 0.003362 -0.005807 0.000000 0.016949 0.000000
# 2 0.003362 0.010049 -0.001242 0.000000 0.003384 0.000000
# 3 -0.005807 -0.001242 0.008871 0.000000 -0.003583 0.000000
# 4 0.000000 0.000000 0.000000 -0.019497 0.000000 0.049755
# 5 0.016949 0.003384 -0.003583 0.000000 0.025342 0.000000
# 6 0.000000 0.000000 0.000000 0.049755 0.000000 -0.011883
#
#
# Mechanical properties :
#
#
# Convention : Reuss Voigt Hill
#
# Bulk Modulus (GPa) = 18.38163 33.58665 25.98414
# Shear Modulus (GPa) = 61.54236 30.22091 45.88163
#
# Velocity S-wave (km/s) = 4.90424 3.43667 4.23451
# Velocity P-wave (km/s) = 6.26518 5.37342 5.83636
#
# Compressibility (1/GPa) = 0.05440215
#
# Stress axis : x y z
#
# Youngs Moduli (GPa) = 23.33458 99.51421 112.72227
#
# Poissons Ratio (x) = -0.33459 0.65454
# Poissons Ratio (y) = -0.07846 0.14000
# Poissons Ratio (z) = 0.13550 0.12360
#
# Static dielectric constant tensor:
#      x y z
#    x 1.990000 0.000000 0.050040 
#    y 0.000000 2.016880 0.000000 
#    z 0.050040 0.000000 2.139160 
# 
# From -- ./inp_files/66085.got.cif
#   From: 2010.05.17/outbox.cif.g08.bks.cpg/sg15_34_cif.got.tgz:66085.got - 2010.06.03 18:47:42.
