data_PCOD9299515
_publ_section_title
;
Structure prediction by ZEFSAII (Michael W. Deem and Ramdas Pophale) SiO2 
 PCOD9299515
Probable space group: C 2/C
;
_chemical_formula_sum "Si O2"
_cell_formula_units_Z 60
_cell_length_a 13.808066
_cell_length_b 17.474755
_cell_length_c 12.394910
_cell_angle_alpha 90.000000
_cell_angle_beta 114.665204
_cell_angle_gamma 90.000000
_cell_volume 2717.924461
_symmetry_space_group_name_H-M "C 2/C"
_symmetry_group_IT_number 15
_symmetry_cell_setting 'monoclinic'
loop_
_space_group_symop_operation_xyz
x,y,z
-x,y,1/2-z
-x,-y,-z
x,-y,1/2+z
1/2+x,1/2+y,z
1/2-x,1/2+y,1/2-z
1/2-x,1/2-y,-z
1/2+x,1/2-y,1/2+z
loop_
_atom_site_type_symbol
_atom_site_label
_atom_site_fract_x
_atom_site_fract_y
_atom_site_fract_z
Si Si1 0.771474 0.221539 0.700144
Si Si2 0.134605 0.575676 0.092856
Si Si3 0.475975 0.406938 0.621591
Si Si4 0.093344 0.602661 0.538661
Si Si5 0.299583 0.303438 0.611799
Si Si6 0.000000 0.148127 0.750000
Si Si7 0.328580 0.878065 0.643619
Si Si8 0.614123 0.558406 0.998250
O O1 0.685176 0.158046 0.625918
O O2 0.725816 0.258213 0.789658
O O3 0.778316 0.293839 0.624182
O O4 0.895633 0.191577 0.753864
O O5 0.126031 0.484675 0.077598
O O6 0.238391 0.615517 0.092288
O O7 0.141631 0.596129 0.223151
O O8 0.030182 0.610387 0.984154
O O9 0.500000 0.441920 0.750000
O O10 0.415812 0.329097 0.623737
O O11 0.411154 0.468503 0.520828
O O12 0.580097 0.401856 0.595726
O O13 0.082677 0.619211 0.405850
O O14 0.250000 0.250000 0.500000
O O15 0.947270 0.100360 0.627440
O O16 0.239114 0.932369 0.551812
#
# Coordination Sequence:
#
# PCOD9299515 Si02
#       8
#     8   8   8   8   8   4   8   8
#     4  11  26  40  70  98 138 176 227 283 346 407
#     4  10  25  42  69  93 132 177 227 274 340 403
#     4  11  23  43  66  98 140 178 228 280 355 416
#     4  11  23  44  67  99 128 177 228 281 330 409
#     4  11  25  44  64  98 138 185 218 284 345 420
#     4  12  24  42  66 106 132 172 234 290 342 416
#     4  11  23  42  64  97 133 174 217 288 338 398
#     4  11  24  40  71 101 133 181 226 290 346 412
#
# _framework density 22.075668
#
# number of rings (size 3 to 8) (size 9 to 14) (size 15 to 20)
#    0.000    1.067    2.000    4.000    3.733    6.400 
#    0.000    1.333    0.000    0.000    0.000    0.000 
#    0.000    0.000    0.000    0.000    0.000    0.000 
#
# Total GULP energy -167340.617553 kJ/mol
# GULP energy per Si atom -5578.020585 kJ/mol
# Density = 2.202542 g / cm^3
# Si number density = 22.075668 Si / 1000 Ang^3
#
#
#
# Elastic Constant Matrix: (Units=GPa)
#
#
# Indices 1 2 3 4 5 6 
#
# 1 77.1386 19.4223 27.6336 0.0000 -1.3305 0.0000
# 2 19.4223 81.6401 28.0089 0.0000 6.4503 0.0000
# 3 27.6336 28.0089 81.7732 0.0000 -7.6577 0.0000
# 4 0.0000 0.0000 0.0000 30.9570 0.0000 -8.0261
# 5 -1.3305 6.4503 -7.6577 0.0000 43.9247 0.0000
# 6 0.0000 0.0000 0.0000 -8.0261 0.0000 -8.0874
#
#
#
# Elastic Compliance Matrix: (Units=1/GPa)
#
#
# Indices 1 2 3 4 5 6 
#
# 1 0.015055 -0.002081 -0.004375 0.000000 -0.000001 0.000000
# 2 -0.002081 0.014544 -0.004559 0.000000 -0.002994 0.000000
# 3 -0.004375 -0.004559 0.015573 0.000000 0.003252 0.000000
# 4 0.000000 0.000000 0.000000 0.025692 0.000000 -0.025497
# 5 -0.000001 -0.002994 0.003252 0.000000 0.023773 0.000000
# 6 0.000000 0.000000 0.000000 -0.025497 0.000000 -0.098345
#
#
# Mechanical properties :
#
#
# Convention : Reuss Voigt Hill
#
# Bulk Modulus (GPa) = 43.20831 43.40906 43.30868
# Shear Modulus (GPa) = 192.03924 24.39132 108.21528
#
# Velocity S-wave (km/s) = 9.33703 3.32760 7.00904
# Velocity P-wave (km/s) = 11.65571 5.87115 9.22838
#
# Compressibility (1/GPa) = 0.02314370
#
# Stress axis : x y z
#
# Youngs Moduli (GPa) = 66.42422 68.75469 64.21184
#
# Poissons Ratio (x) = 0.14305 0.28092
# Poissons Ratio (y) = 0.13820 0.29274
# Poissons Ratio (z) = 0.29060 0.31345
#
# Static dielectric constant tensor:
#      x y z
#    x 1.900860 0.000000 0.009660 
#    y 0.000000 1.804550 0.000000 
#    z 0.009660 0.000000 1.810450 
# 
# From -- ./inp_files/98796.got.cif
#   From: 2010.05.17/outbox.cif.g08.bks.cpg/sg15_50_cif.got.tgz:98796.got - 2010.06.03 18:47:42.
