data_PCOD9299528
_publ_section_title
;
Structure prediction by ZEFSAII (Michael W. Deem and Ramdas Pophale) SiO2 
 PCOD9299528
Probable space group: C 2/C
;
_chemical_formula_sum "Si O2"
_cell_formula_units_Z 20
_cell_length_a 7.989178
_cell_length_b 21.916374
_cell_length_c 5.208697
_cell_angle_alpha 90.000000
_cell_angle_beta 112.001310
_cell_angle_gamma 90.000000
_cell_volume 845.593709
_symmetry_space_group_name_H-M "C 2/C"
_symmetry_group_IT_number 15
_symmetry_cell_setting 'monoclinic'
loop_
_space_group_symop_operation_xyz
x,y,z
-x,y,1/2-z
-x,-y,-z
x,-y,1/2+z
1/2+x,1/2+y,z
1/2-x,1/2+y,1/2-z
1/2-x,1/2-y,-z
1/2+x,1/2-y,1/2+z
loop_
_atom_site_type_symbol
_atom_site_label
_atom_site_fract_x
_atom_site_fract_y
_atom_site_fract_z
Si Si1 0.500000 0.243687 0.250000
Si Si2 0.000000 0.958421 0.250000
Si Si3 0.500000 0.325588 0.750000
Si Si4 0.698450 0.123646 0.391727
O O1 0.460268 0.284187 0.477275
O O2 0.649620 0.193868 0.430088
O O3 0.175203 0.915092 0.352571
O O4 0.000000 0.000000 0.500000
O O5 0.673983 0.366541 0.782466
O O6 0.500000 0.094788 0.250000
#
# Coordination Sequence:
#
# PCOD9299528 Si02
#       4
#     4   4   4   8
#     4  10  25  42  72 108 156 188 225 280 352 438
#     4  12  28  52  74  98 138 188 248 318 360 396
#     4  12  21  46  72 110 156 190 217 282 356 436
#     4  10  26  47  73 111 144 188 244 287 354 437
#
# _framework density 23.652021999999999
#
# number of rings (size 3 to 8) (size 9 to 14) (size 15 to 20)
#    1.200    0.000    0.000    4.800    0.000    8.000 
#    0.000    0.000    0.000    0.000    0.000    0.000 
#    0.000    0.000    0.000    0.000    0.000    0.000 
#
# Total GULP energy -55844.940026 kJ/mol
# GULP energy per Si atom -5584.494003 kJ/mol
# Density = 2.359819 g / cm^3
# Si number density = 23.652022 Si / 1000 Ang^3
#
#
#
# Elastic Constant Matrix: (Units=GPa)
#
#
# Indices 1 2 3 4 5 6 
#
# 1 190.5637 61.2655 78.8061 0.0000 32.3611 0.0000
# 2 61.2655 126.8129 98.7906 0.0000 9.3317 0.0000
# 3 78.8061 98.7906 198.1665 0.0000 -0.8644 0.0000
# 4 0.0000 0.0000 0.0000 51.3180 0.0000 11.0066
# 5 32.3611 9.3317 -0.8644 0.0000 56.5043 0.0000
# 6 0.0000 0.0000 0.0000 11.0066 0.0000 17.0182
#
#
#
# Elastic Compliance Matrix: (Units=1/GPa)
#
#
# Indices 1 2 3 4 5 6 
#
# 1 0.007311 -0.001573 -0.002140 0.000000 -0.003960 0.000000
# 2 -0.001573 0.013518 -0.006120 0.000000 -0.001425 0.000000
# 3 -0.002140 -0.006120 0.008959 0.000000 0.002374 0.000000
# 4 0.000000 0.000000 0.000000 0.022625 0.000000 -0.014633
# 5 -0.003960 -0.001425 0.002374 0.000000 0.020237 0.000000
# 6 0.000000 0.000000 0.000000 -0.014633 0.000000 0.068224
#
#
# Mechanical properties :
#
#
# Convention : Reuss Voigt Hill
#
# Bulk Modulus (GPa) = 98.80404 110.36305 104.58354
# Shear Modulus (GPa) = 30.50381 43.41348 36.95865
#
# Velocity S-wave (km/s) = 3.59512 4.28893 3.95726
# Velocity P-wave (km/s) = 7.68752 8.44328 8.07425
#
# Compressibility (1/GPa) = 0.01012104
#
# Stress axis : x y z
#
# Youngs Moduli (GPa) = 136.77987 73.97631 111.62553
#
# Poissons Ratio (x) = 0.11638 0.23892
# Poissons Ratio (y) = 0.21519 0.68310
# Poissons Ratio (z) = 0.29276 0.45270
#
# Static dielectric constant tensor:
#      x y z
#    x 2.152550 0.000000 0.097070 
#    y 0.000000 1.907900 0.000000 
#    z 0.097070 0.000000 1.935200 
# 
# From -- ./inp_files/1139.got.cif
#   From: 2010.05.17/outbox.cif.g08.bks.cpg/sg15_1_cif.got.tgz:1139.got - 2010.06.03 18:47:42.
