data_PCOD9299239
_publ_section_title
;
Structure prediction by ZEFSAII (Michael W. Deem and Ramdas Pophale) SiO2 
 PCOD9299239
Probable space group: C 2/C
;
_chemical_formula_sum "Si O2"
_cell_formula_units_Z 48
_cell_length_a 15.321194
_cell_length_b 12.316034
_cell_length_c 13.551076
_cell_angle_alpha 90.000000
_cell_angle_beta 103.701083
_cell_angle_gamma 90.000000
_cell_volume 2484.277085
_symmetry_space_group_name_H-M "C 2/C"
_symmetry_group_IT_number 15
_symmetry_cell_setting 'monoclinic'
loop_
_space_group_symop_operation_xyz
x,y,z
-x,y,1/2-z
-x,-y,-z
x,-y,1/2+z
1/2+x,1/2+y,z
1/2-x,1/2+y,1/2-z
1/2-x,1/2-y,-z
1/2+x,1/2-y,1/2+z
loop_
_atom_site_type_symbol
_atom_site_label
_atom_site_fract_x
_atom_site_fract_y
_atom_site_fract_z
Si Si1 0.408182 0.993237 0.032482
Si Si2 0.500000 0.093988 0.750000
Si Si3 0.500000 0.462030 0.750000
Si Si4 0.846677 0.734183 0.981311
Si Si5 0.483718 0.325635 0.358337
Si Si6 0.689053 0.218812 0.079168
Si Si7 0.640000 0.716913 0.238335
O O1 0.443577 0.973675 0.153836
O O2 0.360258 0.105150 0.994590
O O3 0.500000 0.000000 0.000000
O O4 0.353798 0.893286 0.971172
O O5 0.422899 0.176104 0.768594
O O6 0.512987 0.544768 0.661899
O O7 0.415003 0.382125 0.727264
O O8 0.847519 0.788716 0.874527
O O9 0.750000 0.750000 0.000000
O O10 0.929238 0.787964 0.060205
O O11 0.500000 0.280285 0.250000
O O12 0.395381 0.287425 0.396383
O O13 0.763410 0.219374 0.184797
O O14 0.750000 0.250000 0.000000
#
# Coordination Sequence:
#
# PCOD9299239 Si02
#       7
#     8   4   4   8   8   8   8
#     4  12  25  45  73 104 139 190 238 290 370 415
#     4  11  22  45  72 100 140 185 234 291 344 432
#     4   9  26  45  74  96 142 197 230 291 368 424
#     4  12  27  45  71 106 146 184 240 303 354 432
#     4  10  24  48  67 101 146 185 238 290 358 425
#     4  12  25  44  74 106 141 187 242 296 353 437
#     4  11  24  45  70 103 142 182 241 295 353 428
#
# _framework density 19.321518000000001
#
# number of rings (size 3 to 8) (size 9 to 14) (size 15 to 20)
#    0.500    0.333    5.000    1.000    5.833    3.333 
#    0.000    0.000    0.000    0.000    0.000    0.000 
#    0.000    0.000    0.000    0.000    0.000    0.000 
#
# Total GULP energy -133626.850346 kJ/mol
# GULP energy per Si atom -5567.785431 kJ/mol
# Density = 1.927754 g / cm^3
# Si number density = 19.321518 Si / 1000 Ang^3
#
#
#
# Elastic Constant Matrix: (Units=GPa)
#
#
# Indices 1 2 3 4 5 6 
#
# 1 179.6063 47.4428 48.8077 0.0000 13.2742 0.0000
# 2 47.4428 91.6281 11.7552 0.0000 7.8384 0.0000
# 3 48.8077 11.7552 139.9498 0.0000 18.0524 0.0000
# 4 0.0000 0.0000 0.0000 -2.4487 0.0000 -0.7756
# 5 13.2742 7.8384 18.0524 0.0000 35.8223 0.0000
# 6 0.0000 0.0000 0.0000 -0.7756 0.0000 32.1114
#
#
#
# Elastic Compliance Matrix: (Units=1/GPa)
#
#
# Indices 1 2 3 4 5 6 
#
# 1 0.007073 -0.003323 -0.002078 0.000000 -0.000846 0.000000
# 2 -0.003323 0.012741 0.000310 0.000000 -0.001713 0.000000
# 3 -0.002078 0.000310 0.008293 0.000000 -0.003477 0.000000
# 4 0.000000 0.000000 0.000000 -0.405284 0.000000 -0.009789
# 5 -0.000846 -0.001713 -0.003477 0.000000 0.030356 0.000000
# 6 0.000000 0.000000 0.000000 -0.009789 0.000000 0.030905
#
#
# Mechanical properties :
#
#
# Convention : Reuss Voigt Hill
#
# Bulk Modulus (GPa) = 55.79426 69.68839 62.74133
# Shear Modulus (GPa) = -16.68009 33.30891 8.31441
#
# Velocity S-wave (km/s) = -2.94137 4.15653 2.07666
# Velocity P-wave (km/s) = 4.17180 7.69296 6.18812
#
# Compressibility (1/GPa) = 0.01792299
#
# Stress axis : x y z
#
# Youngs Moduli (GPa) = 141.38513 78.48618 120.58796
#
# Poissons Ratio (x) = 0.26082 0.25063
# Poissons Ratio (y) = 0.46984 -0.03734
# Poissons Ratio (z) = 0.29385 -0.02430
#
# Static dielectric constant tensor:
#      x y z
#    x 1.605710 0.000000 -0.083550 
#    y 0.000000 1.700880 0.000000 
#    z -0.083550 0.000000 1.642810 
# 
# From -- ./inp_files/152220.got.cif
#   From: 2010.05.17/outbox.cif.g08.bks.cpg/sg15_77_cif.got.tgz:152220.got - 2010.06.03 18:47:42.
