data_PCOD9299060
_publ_section_title
;
Structure prediction by ZEFSAII (Michael W. Deem and Ramdas Pophale) SiO2 
 PCOD9299060
Probable space group: C 2/C
;
_chemical_formula_sum "Si O2"
_cell_formula_units_Z 44
_cell_length_a 14.554156
_cell_length_b 25.882292
_cell_length_c 5.558366
_cell_angle_alpha 90.000000
_cell_angle_beta 109.996024
_cell_angle_gamma 90.000000
_cell_volume 1967.585815
_symmetry_space_group_name_H-M "C 2/C"
_symmetry_group_IT_number 15
_symmetry_cell_setting 'monoclinic'
loop_
_space_group_symop_operation_xyz
x,y,z
-x,y,1/2-z
-x,-y,-z
x,-y,1/2+z
1/2+x,1/2+y,z
1/2-x,1/2+y,1/2-z
1/2-x,1/2-y,-z
1/2+x,1/2-y,1/2+z
loop_
_atom_site_type_symbol
_atom_site_label
_atom_site_fract_x
_atom_site_fract_y
_atom_site_fract_z
Si Si1 0.617705 0.116179 0.339970
Si Si2 0.000000 0.966832 0.250000
Si Si3 0.948334 0.194076 0.947106
Si Si4 0.783279 0.967580 0.052519
Si Si5 0.403843 0.195683 0.546683
Si Si6 0.268409 0.794029 0.315074
O O1 0.500000 0.107605 0.250000
O O2 0.687937 0.068317 0.447838
O O3 0.655730 0.161274 0.546638
O O4 0.643948 0.145997 0.115627
O O5 0.891936 0.940973 0.148251
O O6 0.000000 0.000000 0.500000
O O7 0.834383 0.179690 0.838130
O O8 0.000000 0.174806 0.750000
O O9 0.944830 0.257030 0.923761
O O10 0.000000 0.181503 0.250000
O O11 0.779586 0.997639 0.305314
O O12 0.500000 0.173941 0.750000
O O13 0.330173 0.226993 0.647919
O O14 0.250000 0.750000 0.500000
#
# Coordination Sequence:
#
# PCOD9299060 Si02
#       6
#     8   4   8   8   8   8
#     4  12  26  43  68 102 146 191 242 292 364 435
#     4   8  16  40  72 100 126 174 220 284 362 426
#     4  11  24  41  63  91 132 179 232 292 348 403
#     4  10  24  46  76 105 141 181 236 298 364 430
#     4  11  22  39  65  91 133 186 237 286 347 419
#     4  12  24  42  65  97 137 190 244 291 350 422
#
# _framework density 22.362431000000001
#
# number of rings (size 3 to 8) (size 9 to 14) (size 15 to 20)
#    0.000    1.091    3.636    3.273    5.091    0.727 
#    1.636    0.000    2.000    0.000    0.000    0.000 
#    0.000    0.000    0.000    0.000    0.000    0.000 
#
# Total GULP energy -122483.591969 kJ/mol
# GULP energy per Si atom -5567.435999 kJ/mol
# Density = 2.231153 g / cm^3
# Si number density = 22.362431 Si / 1000 Ang^3
#
#
#
# Elastic Constant Matrix: (Units=GPa)
#
#
# Indices 1 2 3 4 5 6 
#
# 1 206.7625 43.8890 80.7680 0.0000 15.5114 0.0000
# 2 43.8890 55.9213 22.4669 0.0000 9.5258 0.0000
# 3 80.7680 22.4669 130.4870 0.0000 5.5174 0.0000
# 4 0.0000 0.0000 0.0000 20.4675 0.0000 12.0234
# 5 15.5114 9.5258 5.5174 0.0000 63.2866 0.0000
# 6 0.0000 0.0000 0.0000 12.0234 0.0000 28.0117
#
#
#
# Elastic Compliance Matrix: (Units=1/GPa)
#
#
# Indices 1 2 3 4 5 6 
#
# 1 0.007211 -0.004016 -0.003737 0.000000 -0.000837 0.000000
# 2 -0.004016 0.021888 -0.001190 0.000000 -0.002207 0.000000
# 3 -0.003737 -0.001190 0.010173 0.000000 0.000208 0.000000
# 4 0.000000 0.000000 0.000000 0.065331 0.000000 -0.028042
# 5 -0.000837 -0.002207 0.000208 0.000000 0.016320 0.000000
# 6 0.000000 0.000000 0.000000 -0.028042 0.000000 0.047736
#
#
# Mechanical properties :
#
#
# Convention : Reuss Voigt Hill
#
# Bulk Modulus (GPa) = 46.75660 76.37982 61.56821
# Shear Modulus (GPa) = 25.81679 38.75630 32.28654
#
# Velocity S-wave (km/s) = 3.40144 4.16757 3.80384
# Velocity P-wave (km/s) = 6.03161 7.57547 6.84719
#
# Compressibility (1/GPa) = 0.02138735
#
# Stress axis : x y z
#
# Youngs Moduli (GPa) = 138.66837 45.68744 98.30303
#
# Poissons Ratio (x) = 0.18347 0.36734
# Poissons Ratio (y) = 0.55687 0.11694
# Poissons Ratio (z) = 0.51818 0.05435
#
# Static dielectric constant tensor:
#      x y z
#    x 1.901720 0.000000 -0.137830 
#    y 0.000000 1.810150 0.000000 
#    z -0.137830 0.000000 2.744280 
# 
# From -- ./inp_files/8104.got.cif
#   From: 2010.05.17/outbox.cif.g08.bks.cpg/sg15_5_cif.got.tgz:8104.got - 2010.06.03 18:47:42.
