data_PCOD9299078
_publ_section_title
;
Structure prediction by ZEFSAII (Michael W. Deem and Ramdas Pophale) SiO2 
 PCOD9299078
Probable space group: C 2/C
;
_chemical_formula_sum "Si O2"
_cell_formula_units_Z 36
_cell_length_a 9.895131
_cell_length_b 21.550680
_cell_length_c 12.018180
_cell_angle_alpha 90.000000
_cell_angle_beta 140.996377
_cell_angle_gamma 90.000000
_cell_volume 1612.972433
_symmetry_space_group_name_H-M "C 2/C"
_symmetry_group_IT_number 15
_symmetry_cell_setting 'monoclinic'
loop_
_space_group_symop_operation_xyz
x,y,z
-x,y,1/2-z
-x,-y,-z
x,-y,1/2+z
1/2+x,1/2+y,z
1/2-x,1/2+y,1/2-z
1/2-x,1/2-y,-z
1/2+x,1/2-y,1/2+z
loop_
_atom_site_type_symbol
_atom_site_label
_atom_site_fract_x
_atom_site_fract_y
_atom_site_fract_z
Si Si1 0.000000 0.001901 0.750000
Si Si2 0.539380 0.605847 0.103839
Si Si3 0.946081 0.680374 0.432090
Si Si4 0.799802 0.696541 0.688561
Si Si5 0.687498 0.618305 0.944199
O O1 0.015498 0.958937 0.651670
O O2 0.197552 0.050205 0.892386
O O3 0.727117 0.642332 0.287402
O O4 0.319817 0.645077 0.960963
O O5 0.611392 0.605616 0.020683
O O6 0.874874 0.751973 0.389918
O O7 0.090105 0.668090 0.632560
O O8 0.099736 0.658244 0.431184
O O9 0.000000 0.725805 0.750000
O O10 0.500000 0.650025 0.750000
#
# Coordination Sequence:
#
# PCOD9299078 Si02
#       5
#     4   8   8   8   8
#     4  10  24  46  78 100 144 190 242 300 352 420
#     4  12  24  46  76 106 143 190 238 296 364 423
#     4  12  25  44  70 105 144 191 234 294 360 424
#     4  12  25  43  69 108 149 187 238 293 356 437
#     4  10  24  47  68 104 146 184 242 290 355 423
#
# _framework density 22.319044000000002
#
# number of rings (size 3 to 8) (size 9 to 14) (size 15 to 20)
#    0.667    0.000    4.444    3.333    1.556    1.778 
#    4.000    4.444    0.000    0.000    0.000    0.000 
#    0.000    0.000    0.000    0.000    0.000    0.000 
#
# Total GULP energy -100568.136876 kJ/mol
# GULP energy per Si atom -5587.118715 kJ/mol
# Density = 2.226824 g / cm^3
# Si number density = 22.319044 Si / 1000 Ang^3
#
#
#
# Elastic Constant Matrix: (Units=GPa)
#
#
# Indices 1 2 3 4 5 6 
#
# 1 123.8316 40.7499 38.3308 0.0000 -6.0118 0.0000
# 2 40.7499 89.6684 31.2744 0.0000 3.0282 0.0000
# 3 38.3308 31.2744 139.1100 0.0000 -1.1963 0.0000
# 4 0.0000 0.0000 0.0000 -240.1104 0.0000 -22.0159
# 5 -6.0118 3.0282 -1.1963 0.0000 28.2139 0.0000
# 6 0.0000 0.0000 0.0000 -22.0159 0.0000 29.8039
#
#
#
# Elastic Compliance Matrix: (Units=1/GPa)
#
#
# Indices 1 2 3 4 5 6 
#
# 1 0.010096 -0.004026 -0.001855 0.000000 0.002505 0.000000
# 2 -0.004026 0.013763 -0.002006 0.000000 -0.002420 0.000000
# 3 -0.001855 -0.002006 0.008152 0.000000 0.000166 0.000000
# 4 0.000000 0.000000 0.000000 -0.003901 0.000000 -0.002881
# 5 0.002505 -0.002420 0.000166 0.000000 0.036244 0.000000
# 6 0.000000 0.000000 0.000000 -0.002881 0.000000 0.031424
#
#
# Mechanical properties :
#
#
# Convention : Reuss Voigt Hill
#
# Bulk Modulus (GPa) = 61.58491 63.70223 62.64357
# Shear Modulus (GPa) = 42.74788 -20.26818 11.23985
#
# Velocity S-wave (km/s) = 4.38117 -3.01676 2.24654
# Velocity P-wave (km/s) = 7.29697 4.05822 5.90402
#
# Compressibility (1/GPa) = 0.01623774
#
# Stress axis : x y z
#
# Youngs Moduli (GPa) = 99.04781 72.65883 122.66735
#
# Poissons Ratio (x) = 0.29250 0.22759
# Poissons Ratio (y) = 0.39873 0.24604
# Poissons Ratio (z) = 0.18377 0.14573
#
# Static dielectric constant tensor:
#      x y z
#    x 1.908630 0.000000 -0.015520 
#    y 0.000000 1.821960 0.000000 
#    z -0.015520 0.000000 1.823000 
# 
# From -- ./inp_files/81035.got.cif
#   From: 2010.05.17/outbox.cif.g08.bks.cpg/sg15_41_cif.got.tgz:81035.got - 2010.06.03 18:47:42.
