data_PCOD9299559
_publ_section_title
;
Structure prediction by ZEFSAII (Michael W. Deem and Ramdas Pophale) SiO2 
 PCOD9299559
Probable space group: C 2/C
;
_chemical_formula_sum "Si O2"
_cell_formula_units_Z 32
_cell_length_a 10.781165
_cell_length_b 25.913241
_cell_length_c 4.820968
_cell_angle_alpha 90.000000
_cell_angle_beta 113.132146
_cell_angle_gamma 90.000000
_cell_volume 1238.571890
_symmetry_space_group_name_H-M "C 2/C"
_symmetry_group_IT_number 15
_symmetry_cell_setting 'monoclinic'
loop_
_space_group_symop_operation_xyz
x,y,z
-x,y,1/2-z
-x,-y,-z
x,-y,1/2+z
1/2+x,1/2+y,z
1/2-x,1/2+y,1/2-z
1/2-x,1/2-y,-z
1/2+x,1/2-y,1/2+z
loop_
_atom_site_type_symbol
_atom_site_label
_atom_site_fract_x
_atom_site_fract_y
_atom_site_fract_z
Si Si1 0.790624 0.967621 0.338073
Si Si2 0.000000 0.635903 0.250000
Si Si3 0.123012 0.264999 0.055564
Si Si4 0.500000 0.068791 0.750000
Si Si5 0.500000 0.686488 0.250000
Si Si6 0.500000 0.610602 0.750000
O O1 0.628251 0.958621 0.214312
O O2 0.877039 0.922603 0.272973
O O3 0.825924 0.982357 0.682799
O O4 0.098426 0.673473 0.517062
O O5 0.936781 0.601431 0.437939
O O6 0.000000 0.246975 0.750000
O O7 0.250000 0.250000 0.000000
O O8 0.116810 0.230317 0.325206
O O9 0.462591 0.648119 0.464349
#
# Coordination Sequence:
#
# PCOD9299559 Si02
#       6
#     8   4   8   4   4   4
#     4  12  26  48  70 102 138 182 231 303 376 424
#     4  10  25  43  68 110 136 194 234 293 351 416
#     4  10  25  44  71  99 154 190 236 292 350 420
#     4  12  25  43  76 102 140 182 244 295 349 448
#     4  12  25  47  66 112 136 198 234 293 351 420
#     4  12  27  41  78  98 144 180 246 293 349 448
#
# _framework density 25.836203999999999
#
# number of rings (size 3 to 8) (size 9 to 14) (size 15 to 20)
#    0.750    0.000    1.250    5.250    7.000    1.000 
#    0.000    0.000    0.000    0.000    0.000    0.000 
#    0.000    0.000    0.000    0.000    0.000    0.000 
#
# Total GULP energy -89190.504869 kJ/mol
# GULP energy per Si atom -5574.406554 kJ/mol
# Density = 2.577740 g / cm^3
# Si number density = 25.836204 Si / 1000 Ang^3
#
#
#
# Elastic Constant Matrix: (Units=GPa)
#
#
# Indices 1 2 3 4 5 6 
#
# 1 177.0183 46.4053 32.8188 0.0000 -43.6045 0.0000
# 2 46.4053 91.3028 52.3449 0.0000 -28.9630 0.0000
# 3 32.8188 52.3449 125.6866 0.0000 -47.8025 0.0000
# 4 0.0000 0.0000 0.0000 929.3210 0.0000 525.4100
# 5 -43.6045 -28.9630 -47.8025 0.0000 47.0717 0.0000
# 6 0.0000 0.0000 0.0000 525.4100 0.0000 381.3196
#
#
#
# Elastic Compliance Matrix: (Units=1/GPa)
#
#
# Indices 1 2 3 4 5 6 
#
# 1 0.007874 -0.002715 0.001977 0.000000 0.007631 0.000000
# 2 -0.002715 0.015936 -0.005141 0.000000 0.002070 0.000000
# 3 0.001977 -0.005141 0.014785 0.000000 0.013683 0.000000
# 4 0.000000 0.000000 0.000000 0.004869 0.000000 -0.006709
# 5 0.007631 0.002070 0.013683 0.000000 0.043483 0.000000
# 6 0.000000 0.000000 0.000000 -0.006709 0.000000 0.011867
#
#
# Mechanical properties :
#
#
# Convention : Reuss Voigt Hill
#
# Bulk Modulus (GPa) = 37.25980 73.01618 55.13799
# Shear Modulus (GPa) = 41.83498 289.03838 165.43668
#
# Velocity S-wave (km/s) = 4.02834 10.58850 8.01074
# Velocity P-wave (km/s) = 6.00746 13.33457 10.34167
#
# Compressibility (1/GPa) = 0.02683858
#
# Stress axis : x y z
#
# Youngs Moduli (GPa) = 126.99885 62.74980 67.63566
#
# Poissons Ratio (x) = 0.17034 -0.13372
# Poissons Ratio (y) = 0.34476 0.34770
# Poissons Ratio (z) = -0.25108 0.32259
#
# Static dielectric constant tensor:
#      x y z
#    x 2.079030 0.000000 0.037630 
#    y 0.000000 2.140540 0.000000 
#    z 0.037630 0.000000 2.095330 
# 
# From -- ./inp_files/3726.got.cif
#   From: 2010.05.17/outbox.cif.g08.bks.cpg/sg15_2_cif.got.tgz:3726.got - 2010.06.03 18:47:42.
