data_PCOD9299474
_publ_section_title
;
Structure prediction by ZEFSAII (Michael W. Deem and Ramdas Pophale) SiO2 
 PCOD9299474
Probable space group: C 2/C
;
_chemical_formula_sum "Si O2"
_cell_formula_units_Z 60
_cell_length_a 20.287473
_cell_length_b 12.624464
_cell_length_c 16.836998
_cell_angle_alpha 90.000000
_cell_angle_beta 143.994386
_cell_angle_gamma 90.000000
_cell_volume 2535.028302
_symmetry_space_group_name_H-M "C 2/C"
_symmetry_group_IT_number 15
_symmetry_cell_setting 'monoclinic'
loop_
_space_group_symop_operation_xyz
x,y,z
-x,y,1/2-z
-x,-y,-z
x,-y,1/2+z
1/2+x,1/2+y,z
1/2-x,1/2+y,1/2-z
1/2-x,1/2-y,-z
1/2+x,1/2-y,1/2+z
loop_
_atom_site_type_symbol
_atom_site_label
_atom_site_fract_x
_atom_site_fract_y
_atom_site_fract_z
Si Si1 0.240246 0.887239 0.602343
Si Si2 0.000000 0.605739 0.750000
Si Si3 0.117541 0.089124 0.414146
Si Si4 0.488244 0.265197 0.887253
Si Si5 0.632518 0.016179 0.132244
Si Si6 0.281920 0.409817 0.642734
Si Si7 0.838385 0.418010 0.542641
Si Si8 0.390794 0.802752 0.446416
O O1 0.304383 0.851044 0.585525
O O2 0.178150 0.797546 0.591262
O O3 0.156893 0.979237 0.490192
O O4 0.328215 0.940048 0.746756
O O5 0.973032 0.677604 0.801781
O O6 0.901223 0.524157 0.632042
O O7 0.203877 0.134415 0.432949
O O8 0.000000 0.078096 0.250000
O O9 0.096931 0.172087 0.463943
O O10 0.386103 0.351434 0.785631
O O11 0.485833 0.227135 0.975690
O O12 0.677247 0.895387 0.165737
O O13 0.681039 0.088731 0.108015
O O14 0.500000 0.000000 0.000000
O O15 0.273866 0.535647 0.610476
O O16 0.916289 0.360039 0.555012
#
# Coordination Sequence:
#
# PCOD9299474 Si02
#       8
#     8   4   8   8   8   8   8   8
#     4  11  23  48  72 100 143 196 240 292 370 428
#     4  12  24  42  70 102 144 184 242 294 374 434
#     4   9  20  44  71 104 141 183 244 304 352 436
#     4  11  21  42  71 102 142 184 235 297 374 428
#     4  11  25  46  68 106 150 188 242 307 358 433
#     4   9  19  43  66  94 139 180 233 296 349 424
#     4  10  25  41  67  97 142 185 240 297 345 438
#     4  11  25  44  66 100 141 186 239 292 363 436
#
# _framework density 23.668372999999999
#
# number of rings (size 3 to 8) (size 9 to 14) (size 15 to 20)
#    0.000    1.600    3.333    1.200    7.467    1.067 
#    6.000    4.000    0.000    0.000    0.000    0.000 
#    0.000    0.000    0.000    0.000    0.000    0.000 
#
# Total GULP energy -167190.139518 kJ/mol
# GULP energy per Si atom -5573.004651 kJ/mol
# Density = 2.361450 g / cm^3
# Si number density = 23.668373 Si / 1000 Ang^3
#
#
#
# Elastic Constant Matrix: (Units=GPa)
#
#
# Indices 1 2 3 4 5 6 
#
# 1 249.5212 59.2237 38.4940 0.0000 -29.2039 0.0000
# 2 59.2237 91.5463 34.0920 0.0000 -8.4815 0.0000
# 3 38.4940 34.0920 66.6911 0.0000 -10.6844 0.0000
# 4 0.0000 0.0000 0.0000 19.9850 0.0000 -6.5700
# 5 -29.2039 -8.4815 -10.6844 0.0000 28.3230 0.0000
# 6 0.0000 0.0000 0.0000 -6.5700 0.0000 45.2384
#
#
#
# Elastic Compliance Matrix: (Units=1/GPa)
#
#
# Indices 1 2 3 4 5 6 
#
# 1 0.005295 -0.002650 -0.001015 0.000000 0.004283 0.000000
# 2 -0.002650 0.014881 -0.006174 0.000000 -0.000606 0.000000
# 3 -0.001015 -0.006174 0.019448 0.000000 0.004441 0.000000
# 4 0.000000 0.000000 0.000000 0.052546 0.000000 0.007631
# 5 0.004283 -0.000606 0.004441 0.000000 0.041217 0.000000
# 6 0.000000 0.000000 0.000000 0.007631 0.000000 0.023213
#
#
# Mechanical properties :
#
#
# Convention : Reuss Voigt Hill
#
# Bulk Modulus (GPa) = 50.13971 74.59755 62.36863
# Shear Modulus (GPa) = 27.33308 37.10587 32.21948
#
# Velocity S-wave (km/s) = 3.40197 3.96377 3.69357
# Velocity P-wave (km/s) = 6.05487 7.24809 6.67819
#
# Compressibility (1/GPa) = 0.01994427
#
# Stress axis : x y z
#
# Youngs Moduli (GPa) = 188.87221 67.19835 51.41875
#
# Poissons Ratio (x) = 0.17810 0.05219
# Poissons Ratio (y) = 0.50059 0.31748
# Poissons Ratio (z) = 0.19171 0.41491
#
# Static dielectric constant tensor:
#      x y z
#    x 1.956730 0.000000 0.001560 
#    y 0.000000 1.962880 0.000000 
#    z 0.001560 0.000000 1.976630 
# 
# From -- ./inp_files/215210.got.cif
#   From: 2010.05.17/outbox.cif.g08.bks.cpg/sg15_108_cif.got.tgz:215210.got - 2010.06.03 18:47:42.
