data_PCOD9299638
_publ_section_title
;
Structure prediction by ZEFSAII (Michael W. Deem and Ramdas Pophale) SiO2 
 PCOD9299638
Probable space group: C 2/C
;
_chemical_formula_sum "Si O2"
_cell_formula_units_Z 48
_cell_length_a 11.588755
_cell_length_b 14.176940
_cell_length_c 19.894142
_cell_angle_alpha 90.000000
_cell_angle_beta 143.412990
_cell_angle_gamma 90.000000
_cell_volume 1948.148131
_symmetry_space_group_name_H-M "C 2/C"
_symmetry_group_IT_number 15
_symmetry_cell_setting 'monoclinic'
loop_
_space_group_symop_operation_xyz
x,y,z
-x,y,1/2-z
-x,-y,-z
x,-y,1/2+z
1/2+x,1/2+y,z
1/2-x,1/2+y,1/2-z
1/2-x,1/2-y,-z
1/2+x,1/2-y,1/2+z
loop_
_atom_site_type_symbol
_atom_site_label
_atom_site_fract_x
_atom_site_fract_y
_atom_site_fract_z
Si Si1 0.799680 0.561380 0.490793
Si Si2 0.138667 0.207814 0.758676
Si Si3 0.924636 0.378599 0.490057
Si Si4 0.524888 0.665645 0.567119
Si Si5 0.885731 0.890532 0.859507
Si Si6 0.111602 0.559176 0.740789
O O1 0.849519 0.449626 0.511514
O O2 0.588941 0.593770 0.415881
O O3 0.874652 0.590420 0.451867
O O4 0.955066 0.600069 0.616750
O O5 0.263279 0.129977 0.856332
O O6 0.014317 0.156914 0.642912
O O7 0.277380 0.291107 0.796091
O O8 0.000000 0.252204 0.750000
O O9 0.958897 0.272349 0.527732
O O10 0.424298 0.609162 0.459064
O O11 0.751103 0.640250 0.664877
O O12 0.749791 0.977804 0.777093
O O13 0.000000 0.512609 0.750000
#
# Coordination Sequence:
#
# PCOD9299638 Si02
#       6
#     8   8   8   8   8   8
#     4  11  24  47  70 102 143 189 238 295 361 435
#     4  11  25  45  71 103 143 189 243 295 359 431
#     4  10  25  44  71 100 142 185 240 296 358 424
#     4  11  24  45  67 104 134 185 234 297 351 419
#     4  11  26  44  72 104 143 190 236 297 362 426
#     4  12  24  42  69 102 141 182 239 296 362 426
#
# _framework density 24.638784999999999
#
# number of rings (size 3 to 8) (size 9 to 14) (size 15 to 20)
#    0.000    1.000    3.333    2.000    2.333    6.667 
#    0.000    5.833    0.000    0.000    0.000    0.000 
#    0.000    0.000    0.000    0.000    0.000    0.000 
#
# Total GULP energy -134054.330118 kJ/mol
# GULP energy per Si atom -5585.597088 kJ/mol
# Density = 2.458271 g / cm^3
# Si number density = 24.638785 Si / 1000 Ang^3
#
#
#
# Elastic Constant Matrix: (Units=GPa)
#
#
# Indices 1 2 3 4 5 6 
#
# 1 130.3094 21.0551 43.3379 0.0000 19.9789 0.0000
# 2 21.0551 72.3579 6.4073 0.0000 10.0457 0.0000
# 3 43.3379 6.4073 75.1161 0.0000 11.4233 0.0000
# 4 0.0000 0.0000 0.0000 26.4453 0.0000 9.8651
# 5 19.9789 10.0457 11.4233 0.0000 39.7178 0.0000
# 6 0.0000 0.0000 0.0000 9.8651 0.0000 37.5299
#
#
#
# Elastic Compliance Matrix: (Units=1/GPa)
#
#
# Indices 1 2 3 4 5 6 
#
# 1 0.010235 -0.002081 -0.005254 0.000000 -0.003111 0.000000
# 2 -0.002081 0.014782 0.000365 0.000000 -0.002797 0.000000
# 3 -0.005254 0.000365 0.016654 0.000000 -0.002239 0.000000
# 4 0.000000 0.000000 0.000000 0.041925 0.000000 -0.011020
# 5 -0.003111 -0.002797 -0.002239 0.000000 0.028094 0.000000
# 6 0.000000 0.000000 0.000000 -0.011020 0.000000 0.029542
#
#
# Mechanical properties :
#
#
# Convention : Reuss Voigt Hill
#
# Bulk Modulus (GPa) = 36.06261 46.59823 41.33042
# Shear Modulus (GPa) = 30.41097 34.53747 32.47422
#
# Velocity S-wave (km/s) = 3.51703 3.74806 3.63438
# Velocity P-wave (km/s) = 5.58220 6.13875 5.86708
#
# Compressibility (1/GPa) = 0.02772955
#
# Stress axis : x y z
#
# Youngs Moduli (GPa) = 97.70704 67.65120 60.04732
#
# Poissons Ratio (x) = 0.14078 0.31551
# Poissons Ratio (y) = 0.20333 -0.02192
# Poissons Ratio (z) = 0.51338 -0.02470
#
# Static dielectric constant tensor:
#      x y z
#    x 2.030230 0.000000 -0.013010 
#    y 0.000000 1.935430 0.000000 
#    z -0.013010 0.000000 1.969310 
# 
# From -- ./inp_files/239046.got.cif
#   From: 2010.05.17/outbox.cif.g08.bks.cpg/sg15_120_cif.got.tgz:239046.got - 2010.06.03 18:47:42.
