data_PCOD9299626
_publ_section_title
;
Structure prediction by ZEFSAII (Michael W. Deem and Ramdas Pophale) SiO2 
 PCOD9299626
Probable space group: C 2/C
;
_chemical_formula_sum "Si O2"
_cell_formula_units_Z 40
_cell_length_a 8.566935
_cell_length_b 14.597214
_cell_length_c 13.347444
_cell_angle_alpha 90.000000
_cell_angle_beta 71.657424
_cell_angle_gamma 90.000000
_cell_volume 1584.337031
_symmetry_space_group_name_H-M "C 2/C"
_symmetry_group_IT_number 15
_symmetry_cell_setting 'monoclinic'
loop_
_space_group_symop_operation_xyz
x,y,z
-x,y,1/2-z
-x,-y,-z
x,-y,1/2+z
1/2+x,1/2+y,z
1/2-x,1/2+y,1/2-z
1/2-x,1/2-y,-z
1/2+x,1/2-y,1/2+z
loop_
_atom_site_type_symbol
_atom_site_label
_atom_site_fract_x
_atom_site_fract_y
_atom_site_fract_z
Si Si1 0.880758 0.192147 0.035318
Si Si2 0.918563 0.086604 0.660733
Si Si3 0.687293 0.267394 0.731340
Si Si4 0.880955 0.504936 0.368135
Si Si5 0.913121 0.361055 0.540561
O O1 0.810208 0.185449 0.160639
O O2 0.750000 0.250000 0.000000
O O3 0.945587 0.111788 0.950475
O O4 0.032683 0.263041 0.011922
O O5 0.807736 0.178788 0.703530
O O6 0.799130 0.009702 0.641303
O O7 0.000000 0.061604 0.750000
O O8 0.500000 0.239392 0.750000
O O9 0.752163 0.341347 0.638400
O O10 0.892339 0.427669 0.451647
O O11 0.000000 0.489883 0.250000
O O12 0.950542 0.594093 0.412432
#
# Coordination Sequence:
#
# PCOD9299626 Si02
#       5
#     8   8   8   8   8
#     4  11  22  38  70 101 138 177 237 295 343 405
#     4  11  22  39  67 107 139 186 233 289 351 426
#     4  11  22  41  74 104 138 176 244 297 345 410
#     4  11  24  44  71  94 147 186 232 284 359 424
#     4  10  25  44  69 105 134 191 233 291 357 415
#
# _framework density 25.247153000000001
#
# number of rings (size 3 to 8) (size 9 to 14) (size 15 to 20)
#    0.000    1.200    2.000    4.200    2.800    3.200 
#    0.000    2.000    0.000    0.000    0.000    0.000 
#    0.000    0.000    0.000    0.000    0.000    0.000 
#
# Total GULP energy -112059.424491 kJ/mol
# GULP energy per Si atom -5602.971225 kJ/mol
# Density = 2.518969 g / cm^3
# Si number density = 25.247153 Si / 1000 Ang^3
#
#
#
# Elastic Constant Matrix: (Units=GPa)
#
#
# Indices 1 2 3 4 5 6 
#
# 1 117.2203 25.7837 56.7714 0.0000 17.8670 0.0000
# 2 25.7837 82.2183 67.1433 0.0000 -0.1483 0.0000
# 3 56.7714 67.1433 230.5919 0.0000 -2.9287 0.0000
# 4 0.0000 0.0000 0.0000 30.2884 0.0000 0.8992
# 5 17.8670 -0.1483 -2.9287 0.0000 52.8552 0.0000
# 6 0.0000 0.0000 0.0000 0.8992 0.0000 38.7334
#
#
#
# Elastic Compliance Matrix: (Units=1/GPa)
#
#
# Indices 1 2 3 4 5 6 
#
# 1 0.010481 -0.001506 -0.002188 0.000000 -0.003669 0.000000
# 2 -0.001506 0.016176 -0.004335 0.000000 0.000314 0.000000
# 3 -0.002188 -0.004335 0.006151 0.000000 0.001068 0.000000
# 4 0.000000 0.000000 0.000000 0.033039 0.000000 -0.000767
# 5 -0.003669 0.000314 0.001068 0.000000 0.020220 0.000000
# 6 0.000000 0.000000 0.000000 -0.000767 0.000000 0.025835
#
#
# Mechanical properties :
#
#
# Convention : Reuss Voigt Hill
#
# Bulk Modulus (GPa) = 59.70645 81.04746 70.37695
# Shear Modulus (GPa) = 37.44038 43.06422 40.25230
#
# Velocity S-wave (km/s) = 3.85509 4.13450 3.99724
# Velocity P-wave (km/s) = 6.59665 7.41373 7.01709
#
# Compressibility (1/GPa) = 0.01674861
#
# Stress axis : x y z
#
# Youngs Moduli (GPa) = 95.40744 61.81971 162.56556
#
# Poissons Ratio (x) = 0.09312 0.35577
# Poissons Ratio (y) = 0.14372 0.70476
# Poissons Ratio (z) = 0.20880 0.26800
#
# Static dielectric constant tensor:
#      x y z
#    x 2.069600 0.000000 -0.033390 
#    y 0.000000 1.992890 0.000000 
#    z -0.033390 0.000000 1.951670 
# 
# From -- ./inp_files/76651.got.cif
#   From: 2010.05.17/outbox.cif.g08.bks.cpg/sg15_39_cif.got.tgz:76651.got - 2010.06.03 18:47:42.
