data_PCOD9299029
_publ_section_title
;
Structure prediction by ZEFSAII (Michael W. Deem and Ramdas Pophale) SiO2 
 PCOD9299029
Probable space group: C 2/C
;
_chemical_formula_sum "Si O2"
_cell_formula_units_Z 40
_cell_length_a 20.001600
_cell_length_b 11.177599
_cell_length_c 9.927282
_cell_angle_alpha 90.000000
_cell_angle_beta 44.482696
_cell_angle_gamma 90.000000
_cell_volume 1555.148659
_symmetry_space_group_name_H-M "C 2/C"
_symmetry_group_IT_number 15
_symmetry_cell_setting 'monoclinic'
loop_
_space_group_symop_operation_xyz
x,y,z
-x,y,1/2-z
-x,-y,-z
x,-y,1/2+z
1/2+x,1/2+y,z
1/2-x,1/2+y,1/2-z
1/2-x,1/2-y,-z
1/2+x,1/2-y,1/2+z
loop_
_atom_site_type_symbol
_atom_site_label
_atom_site_fract_x
_atom_site_fract_y
_atom_site_fract_z
Si Si1 0.464517 0.602464 0.154036
Si Si2 0.096108 0.533137 0.023986
Si Si3 0.767432 0.116644 0.312014
Si Si4 0.389149 0.706429 0.921059
Si Si5 0.886093 0.295330 0.631420
O O1 0.500000 0.571801 0.250000
O O2 0.351968 0.622715 0.296389
O O3 0.500000 0.500000 0.000000
O O4 0.519992 0.724161 0.041156
O O5 0.109447 0.674110 0.987643
O O6 0.000000 0.516839 0.250000
O O7 0.193198 0.279606 0.871947
O O8 0.094018 0.438031 0.903987
O O9 0.694319 0.011496 0.452807
O O10 0.825570 0.107885 0.086169
O O11 0.500000 0.674829 0.750000
O O12 0.356892 0.746791 0.819034
#
# Coordination Sequence:
#
# PCOD9299029 Si02
#       5
#     8   8   8   8   8
#     4  12  29  50  75 114 157 206 259 328 394 474
#     4   9  23  43  70 110 145 198 257 315 380 462
#     4  10  25  46  74 105 150 203 252 321 386 460
#     4  11  21  43  77 106 150 199 260 319 390 461
#     4  10  24  46  74 109 150 199 262 314 388 469
#
# _framework density 25.721012999999999
#
# number of rings (size 3 to 8) (size 9 to 14) (size 15 to 20)
#    1.200    0.400    2.000    1.200    5.600    5.600 
#    3.600    0.000    0.000    0.000    0.000    0.000 
#    0.000    0.000    0.000    0.000    0.000    0.000 
#
# Total GULP energy -111677.551916 kJ/mol
# GULP energy per Si atom -5583.877596 kJ/mol
# Density = 2.566247 g / cm^3
# Si number density = 25.721013 Si / 1000 Ang^3
#
#
#
# Elastic Constant Matrix: (Units=GPa)
#
#
# Indices 1 2 3 4 5 6 
#
# 1 224.5336 53.9149 65.8076 0.0000 -22.0915 0.0000
# 2 53.9149 79.7636 36.5057 0.0000 -9.6657 0.0000
# 3 65.8076 36.5057 121.8838 0.0000 -37.1932 0.0000
# 4 0.0000 0.0000 0.0000 23.5618 0.0000 1.3957
# 5 -22.0915 -9.6657 -37.1932 0.0000 67.6560 0.0000
# 6 0.0000 0.0000 0.0000 1.3957 0.0000 32.3598
#
#
#
# Elastic Compliance Matrix: (Units=1/GPa)
#
#
# Indices 1 2 3 4 5 6 
#
# 1 0.005818 -0.002897 -0.002187 0.000000 0.000284 0.000000
# 2 -0.002897 0.015980 -0.003381 0.000000 -0.000522 0.000000
# 3 -0.002187 -0.003381 0.012055 0.000000 0.005430 0.000000
# 4 0.000000 0.000000 0.000000 0.042550 0.000000 -0.001835
# 5 0.000284 -0.000522 0.005430 0.000000 0.017784 0.000000
# 6 0.000000 0.000000 0.000000 -0.001835 0.000000 0.030982
#
#
# Mechanical properties :
#
#
# Convention : Reuss Voigt Hill
#
# Bulk Modulus (GPa) = 59.09456 82.07078 70.58267
# Shear Modulus (GPa) = 33.84317 42.71238 38.27777
#
# Velocity S-wave (km/s) = 3.63130 4.07947 3.86189
# Velocity P-wave (km/s) = 6.37235 7.35981 6.88381
#
# Compressibility (1/GPa) = 0.01692203
#
# Stress axis : x y z
#
# Youngs Moduli (GPa) = 171.87111 62.57946 82.95327
#
# Poissons Ratio (x) = 0.18132 0.18142
# Poissons Ratio (y) = 0.49799 0.28046
# Poissons Ratio (z) = 0.37589 0.21158
#
# Static dielectric constant tensor:
#      x y z
#    x 2.121940 0.000000 0.009500 
#    y 0.000000 2.017060 0.000000 
#    z 0.009500 0.000000 2.044790 
# 
# From -- ./inp_files/111361.got.cif
#   From: 2010.05.17/outbox.cif.g08.bks.cpg/sg15_56_cif.got.tgz:111361.got - 2010.06.03 18:47:42.
