data_PCOD9299314
_publ_section_title
;
Structure prediction by ZEFSAII (Michael W. Deem and Ramdas Pophale) SiO2 
 PCOD9299314
Probable space group: C 2/C
;
_chemical_formula_sum "Si O2"
_cell_formula_units_Z 44
_cell_length_a 12.888291
_cell_length_b 30.570873
_cell_length_c 5.139979
_cell_angle_alpha 90.000000
_cell_angle_beta 58.569854
_cell_angle_gamma 90.000000
_cell_volume 1728.042144
_symmetry_space_group_name_H-M "C 2/C"
_symmetry_group_IT_number 15
_symmetry_cell_setting 'monoclinic'
loop_
_space_group_symop_operation_xyz
x,y,z
-x,y,1/2-z
-x,-y,-z
x,-y,1/2+z
1/2+x,1/2+y,z
1/2-x,1/2+y,1/2-z
1/2-x,1/2-y,-z
1/2+x,1/2-y,1/2+z
loop_
_atom_site_type_symbol
_atom_site_label
_atom_site_fract_x
_atom_site_fract_y
_atom_site_fract_z
Si Si1 0.130379 0.912452 0.659648
Si Si2 0.914141 0.272758 0.111411
Si Si3 0.301842 0.029974 0.230700
Si Si4 0.500000 0.094784 0.750000
Si Si5 0.635047 0.324890 0.944320
Si Si6 0.807883 0.359588 0.155423
O O1 0.180696 0.942747 0.820847
O O2 0.231131 0.904485 0.308086
O O3 0.000000 0.928862 0.750000
O O4 0.122210 0.860951 0.738318
O O5 0.815812 0.310956 0.275576
O O6 0.000000 0.268326 0.250000
O O7 0.853688 0.226161 0.129283
O O8 0.000000 0.284103 0.750000
O O9 0.309681 0.007163 0.497091
O O10 0.407722 0.064251 0.028491
O O11 0.564810 0.123761 0.886629
O O12 0.500000 0.327969 0.250000
O O13 0.748728 0.343790 0.960860
#
# Coordination Sequence:
#
# PCOD9299314 Si02
#       6
#     8   8   8   4   8   8
#     4  11  25  45  73 105 146 191 246 302 366 441
#     4  11  26  45  69 107 151 196 251 304 360 425
#     4  11  27  49  76 109 143 189 239 306 378 440
#     4  10  24  48  76 108 150 190 240 304 368 448
#     4  11  24  43  72 101 149 199 249 302 363 425
#     4  11  24  45  70 109 144 202 240 306 361 436
#
# _framework density 25.462340999999999
#
# number of rings (size 3 to 8) (size 9 to 14) (size 15 to 20)
#    0.000    1.091    2.727    1.636   10.182    1.455 
#    3.273    0.000    0.000    0.000    0.000    0.000 
#    0.000    0.000    0.000    0.000    0.000    0.000 
#
# Total GULP energy -122854.013136 kJ/mol
# GULP energy per Si atom -5584.273324 kJ/mol
# Density = 2.540439 g / cm^3
# Si number density = 25.462341 Si / 1000 Ang^3
#
#
#
# Elastic Constant Matrix: (Units=GPa)
#
#
# Indices 1 2 3 4 5 6 
#
# 1 154.5615 40.6182 27.6730 0.0000 19.3512 0.0000
# 2 40.6182 121.1850 35.2862 0.0000 4.2732 0.0000
# 3 27.6730 35.2862 63.0119 0.0000 17.5977 0.0000
# 4 0.0000 0.0000 0.0000 7.2606 0.0000 26.5649
# 5 19.3512 4.2732 17.5977 0.0000 37.1691 0.0000
# 6 0.0000 0.0000 0.0000 26.5649 0.0000 12.2633
#
#
#
# Elastic Compliance Matrix: (Units=1/GPa)
#
#
# Indices 1 2 3 4 5 6 
#
# 1 0.007640 -0.002063 -0.001331 0.000000 -0.003110 0.000000
# 2 -0.002063 0.010512 -0.005696 0.000000 0.002563 0.000000
# 3 -0.001331 -0.005696 0.022204 0.000000 -0.009164 0.000000
# 4 0.000000 0.000000 0.000000 -0.019887 0.000000 0.043079
# 5 -0.003110 0.002563 -0.009164 0.000000 0.032568 0.000000
# 6 0.000000 0.000000 0.000000 0.043079 0.000000 -0.011774
#
#
# Mechanical properties :
#
#
# Convention : Reuss Voigt Hill
#
# Bulk Modulus (GPa) = 45.09729 60.65700 52.87714
# Shear Modulus (GPa) = 74.81206 27.01733 50.91469
#
# Velocity S-wave (km/s) = 5.42635 3.26094 4.47655
# Velocity P-wave (km/s) = 7.55051 6.16865 6.89429
#
# Compressibility (1/GPa) = 0.02217428
#
# Stress axis : x y z
#
# Youngs Moduli (GPa) = 130.89187 95.13305 45.03764
#
# Poissons Ratio (x) = 0.19630 0.05995
# Poissons Ratio (y) = 0.27009 0.25653
# Poissons Ratio (z) = 0.17424 0.54186
#
# Static dielectric constant tensor:
#      x y z
#    x 1.730880 0.000000 0.302310 
#    y 0.000000 1.939450 0.000000 
#    z 0.302310 0.000000 1.617210 
# 
# From -- ./inp_files/5774.got.cif
#   From: 2010.05.17/outbox.cif.g08.bks.cpg/sg15_3_cif.got.tgz:5774.got - 2010.06.03 18:47:42.
