data_PCOD9299691
_publ_section_title
;
Structure prediction by ZEFSAII (Michael W. Deem and Ramdas Pophale) SiO2 
 PCOD9299691
Probable space group: C 2/C
;
_chemical_formula_sum "Si O2"
_cell_formula_units_Z 56
_cell_length_a 9.118558
_cell_length_b 12.041133
_cell_length_c 22.760495
_cell_angle_alpha 90.000000
_cell_angle_beta 64.650661
_cell_angle_gamma 90.000000
_cell_volume 2258.428417
_symmetry_space_group_name_H-M "C 2/C"
_symmetry_group_IT_number 15
_symmetry_cell_setting 'monoclinic'
loop_
_space_group_symop_operation_xyz
x,y,z
-x,y,1/2-z
-x,-y,-z
x,-y,1/2+z
1/2+x,1/2+y,z
1/2-x,1/2+y,1/2-z
1/2-x,1/2-y,-z
1/2+x,1/2-y,1/2+z
loop_
_atom_site_type_symbol
_atom_site_label
_atom_site_fract_x
_atom_site_fract_y
_atom_site_fract_z
Si Si1 0.983583 0.586351 0.625986
Si Si2 0.831121 0.641960 0.017553
Si Si3 0.162570 0.366092 0.849716
Si Si4 0.756944 0.876532 0.171314
Si Si5 0.000770 0.966506 0.567575
Si Si6 0.500000 0.384252 0.750000
Si Si7 0.500000 0.947829 0.750000
Si Si8 0.690549 0.296201 0.830236
O O1 0.964391 0.458377 0.651162
O O2 0.828557 0.665172 0.658429
O O3 0.036934 0.591985 0.549077
O O4 0.136041 0.635500 0.635952
O O5 0.883735 0.662060 0.075323
O O6 0.685875 0.555099 0.050466
O O7 0.750000 0.750000 0.000000
O O8 0.186467 0.244397 0.817921
O O9 0.334362 0.428316 0.808205
O O10 0.912670 0.943309 0.122929
O O11 0.645106 0.953409 0.231283
O O12 0.898564 0.855075 0.599016
O O13 0.000000 0.000000 0.500000
O O14 0.575304 0.324059 0.794159
O O15 0.362219 0.853932 0.792323
#
# Coordination Sequence:
#
# PCOD9299691 Si02
#       8
#     8   8   8   8   8   4   4   8
#     4  12  24  42  71 100 141 186 240 304 363 440
#     4  12  20  44  69  98 140 187 235 302 364 435
#     4  12  25  41  71 103 135 193 236 296 367 442
#     4  11  22  42  67  97 141 187 233 298 368 434
#     4  11  20  39  73  97 137 193 237 297 375 433
#     4  12  21  45  70  98 142 189 251 288 370 454
#     4  10  25  45  68 104 144 185 243 308 372 440
#     4  11  24  44  73 104 139 193 246 304 375 444
#
# _framework density 24.796005999999998
#
# number of rings (size 3 to 8) (size 9 to 14) (size 15 to 20)
#    0.000    0.571    7.143    1.714    0.000    0.571 
#    0.000    5.000    0.000    0.000    0.000    1.000 
#    0.000    0.000    0.000    0.000    0.000    0.000 
#
# Total GULP energy -156124.094760 kJ/mol
# GULP energy per Si atom -5575.860527 kJ/mol
# Density = 2.473957 g / cm^3
# Si number density = 24.796006 Si / 1000 Ang^3
#
#
#
# Elastic Constant Matrix: (Units=GPa)
#
#
# Indices 1 2 3 4 5 6 
#
# 1 71.3048 60.4556 46.0161 0.0000 -13.6021 0.0000
# 2 60.4556 189.8310 58.8225 0.0000 -24.7633 0.0000
# 3 46.0161 58.8225 132.4931 0.0000 -9.7683 0.0000
# 4 0.0000 0.0000 0.0000 42.1837 0.0000 -8.5354
# 5 -13.6021 -24.7633 -9.7683 0.0000 45.4291 0.0000
# 6 0.0000 0.0000 0.0000 -8.5354 0.0000 39.3765
#
#
#
# Elastic Compliance Matrix: (Units=1/GPa)
#
#
# Indices 1 2 3 4 5 6 
#
# 1 0.022276 -0.005102 -0.005268 0.000000 0.002756 0.000000
# 2 -0.005102 0.007646 -0.001451 0.000000 0.002328 0.000000
# 3 -0.005268 -0.001451 0.010005 0.000000 -0.000217 0.000000
# 4 0.000000 0.000000 0.000000 0.024793 0.000000 0.005374
# 5 0.002756 0.002328 -0.000217 0.000000 0.024060 0.000000
# 6 0.000000 0.000000 0.000000 0.005374 0.000000 0.026561
#
#
# Mechanical properties :
#
#
# Convention : Reuss Voigt Hill
#
# Bulk Modulus (GPa) = 61.40787 80.46856 70.93821
# Shear Modulus (GPa) = 34.62321 40.62018 37.62169
#
# Velocity S-wave (km/s) = 3.74079 4.05183 3.89941
# Velocity P-wave (km/s) = 6.59371 7.37648 6.99605
#
# Compressibility (1/GPa) = 0.01628456
#
# Stress axis : x y z
#
# Youngs Moduli (GPa) = 44.89203 130.78655 99.94607
#
# Poissons Ratio (x) = 0.66730 0.52653
# Poissons Ratio (y) = 0.22905 0.14501
# Poissons Ratio (z) = 0.23650 0.18976
#
# Static dielectric constant tensor:
#      x y z
#    x 1.975450 0.000000 0.053720 
#    y 0.000000 2.003400 0.000000 
#    z 0.053720 0.000000 1.951570 
# 
# From -- ./inp_files/292233.got.cif
#   From: 2010.05.17/outbox.cif.g08.bks.cpg/sg15_147_cif.got.tgz:292233.got - 2010.06.03 18:47:42.
