data_PCOD9299190
_publ_section_title
;
Structure prediction by ZEFSAII (Michael W. Deem and Ramdas Pophale) SiO2 
 PCOD9299190
Probable space group: C 2/C
;
_chemical_formula_sum "Si O2"
_cell_formula_units_Z 36
_cell_length_a 5.166470
_cell_length_b 18.575997
_cell_length_c 15.623383
_cell_angle_alpha 90.000000
_cell_angle_beta 108.171826
_cell_angle_gamma 90.000000
_cell_volume 1424.630071
_symmetry_space_group_name_H-M "C 2/C"
_symmetry_group_IT_number 15
_symmetry_cell_setting 'monoclinic'
loop_
_space_group_symop_operation_xyz
x,y,z
-x,y,1/2-z
-x,-y,-z
x,-y,1/2+z
1/2+x,1/2+y,z
1/2-x,1/2+y,1/2-z
1/2-x,1/2-y,-z
1/2+x,1/2-y,1/2+z
loop_
_atom_site_type_symbol
_atom_site_label
_atom_site_fract_x
_atom_site_fract_y
_atom_site_fract_z
Si Si1 0.000000 0.831751 0.750000
Si Si2 0.030210 0.613249 0.991333
Si Si3 0.679715 0.806342 0.348526
Si Si4 0.534646 0.436348 0.354018
Si Si5 0.349483 0.582131 0.392577
O O1 0.809975 0.776932 0.675849
O O2 0.164662 0.879802 0.700821
O O3 0.844386 0.557160 0.917709
O O4 0.047649 0.681071 0.927564
O O5 0.635688 0.885933 0.937171
O O6 0.342219 0.595581 0.042947
O O7 0.500000 0.836640 0.250000
O O8 0.944086 0.855785 0.370440
O O9 0.500000 0.445309 0.250000
O O10 0.346999 0.496397 0.378498
#
# Coordination Sequence:
#
# PCOD9299190 Si02
#       5
#     4   8   8   8   8
#     4  10  26  56  68 116 152 208 238 312 380 448
#     4  12  26  47  76 114 144 195 254 309 364 446
#     4  10  24  47  75 104 151 192 252 290 376 449
#     4  12  23  46  78 109 148 200 245 307 375 445
#     4  12  28  47  76 109 154 188 253 314 371 430
#
# _framework density 25.269718000000001
#
# number of rings (size 3 to 8) (size 9 to 14) (size 15 to 20)
#    0.667    0.000    5.556    1.333    3.111    2.667 
#   12.000    0.000    0.000    0.000    0.000    0.000 
#    0.000    0.000    0.000    0.000    0.000    0.000 
#
# Total GULP energy -100673.653238 kJ/mol
# GULP energy per Si atom -5592.980735 kJ/mol
# Density = 2.521220 g / cm^3
# Si number density = 25.269718 Si / 1000 Ang^3
#
#
#
# Elastic Constant Matrix: (Units=GPa)
#
#
# Indices 1 2 3 4 5 6 
#
# 1 160.5682 39.3551 59.1458 0.0000 -24.3914 0.0000
# 2 39.3551 107.5528 28.0694 0.0000 -9.2258 0.0000
# 3 59.1458 28.0694 105.4110 0.0000 -52.7728 0.0000
# 4 0.0000 0.0000 0.0000 30.3080 0.0000 -6.7336
# 5 -24.3914 -9.2258 -52.7728 0.0000 44.9278 0.0000
# 6 0.0000 0.0000 0.0000 -6.7336 0.0000 13.6808
#
#
#
# Elastic Compliance Matrix: (Units=1/GPa)
#
#
# Indices 1 2 3 4 5 6 
#
# 1 0.008271 -0.001862 -0.005070 0.000000 -0.001847 0.000000
# 2 -0.001862 0.010539 -0.002875 0.000000 -0.002223 0.000000
# 3 -0.005070 -0.002875 0.027730 0.000000 0.029230 0.000000
# 4 0.000000 0.000000 0.000000 0.037046 0.000000 0.018234
# 5 -0.001847 -0.002223 0.029230 0.000000 0.055132 0.000000
# 6 0.000000 0.000000 0.000000 0.018234 0.000000 0.082070
#
#
# Mechanical properties :
#
#
# Convention : Reuss Voigt Hill
#
# Bulk Modulus (GPa) = 37.13699 69.63029 53.38364
# Shear Modulus (GPa) = 20.05004 34.24742 27.14873
#
# Velocity S-wave (km/s) = 2.81986 3.68540 3.28130
# Velocity P-wave (km/s) = 5.03292 6.76197 5.96048
#
# Compressibility (1/GPa) = 0.02692733
#
# Stress axis : x y z
#
# Youngs Moduli (GPa) = 120.90254 94.88962 36.06163
#
# Poissons Ratio (x) = 0.17667 0.18282
# Poissons Ratio (y) = 0.22510 0.10367
# Poissons Ratio (z) = 0.61295 0.27278
#
# Static dielectric constant tensor:
#      x y z
#    x 1.970050 0.000000 0.024110 
#    y 0.000000 2.009000 0.000000 
#    z 0.024110 0.000000 2.040610 
# 
# From -- ./inp_files/184450.got.cif
#   From: 2010.05.17/outbox.cif.g08.bks.cpg/sg15_93_cif.got.tgz:184450.got - 2010.06.03 18:47:42.
