data_PCOD9299174
_publ_section_title
;
Structure prediction by ZEFSAII (Michael W. Deem and Ramdas Pophale) SiO2 
 PCOD9299174
Probable space group: C 2/C
;
_chemical_formula_sum "Si O2"
_cell_formula_units_Z 32
_cell_length_a 29.215331
_cell_length_b 4.401810
_cell_length_c 8.805253
_cell_angle_alpha 90.000000
_cell_angle_beta 66.656028
_cell_angle_gamma 90.000000
_cell_volume 1039.666513
_symmetry_space_group_name_H-M "C 2/C"
_symmetry_group_IT_number 15
_symmetry_cell_setting 'monoclinic'
loop_
_space_group_symop_operation_xyz
x,y,z
-x,y,1/2-z
-x,-y,-z
x,-y,1/2+z
1/2+x,1/2+y,z
1/2-x,1/2+y,1/2-z
1/2-x,1/2-y,-z
1/2+x,1/2-y,1/2+z
loop_
_atom_site_type_symbol
_atom_site_label
_atom_site_fract_x
_atom_site_fract_y
_atom_site_fract_z
Si Si1 0.000000 0.000000 0.500000
Si Si2 0.784780 0.817452 0.716688
Si Si3 0.417371 0.293357 0.042430
Si Si4 0.348795 0.988129 0.381839
Si Si5 0.000000 0.458624 0.750000
O O1 0.060129 0.131759 0.459816
O O2 0.026158 0.771727 0.331530
O O3 0.730037 0.667388 0.768082
O O4 0.819574 0.708624 0.534887
O O5 0.810217 0.716822 0.838464
O O6 0.386816 0.211880 0.931479
O O7 0.475119 0.200641 0.901607
O O8 0.379951 0.180063 0.218903
#
# Coordination Sequence:
#
# PCOD9299174 Si02
#       5
#     4   8   8   8   4
#     4  12  26  44  76  98 144 214 248 310 386 440
#     4  11  24  50  78 110 153 198 253 329 417 468
#     4  11  24  50  65 110 151 199 261 315 379 442
#     4  10  24  47  73 108 149 193 262 326 377 487
#     4  12  26  46  70 100 154 194 260 310 380 448
#
# _framework density 30.779095999999999
#
# number of rings (size 3 to 8) (size 9 to 14) (size 15 to 20)
#    0.000    1.000    2.500    3.000    3.500    0.000 
#   27.000    0.000    0.000    0.000    0.000    0.000 
#    0.000    0.000    0.000    0.000    0.000    0.000 
#
# Total GULP energy -89528.690796 kJ/mol
# GULP energy per Si atom -5595.543175 kJ/mol
# Density = 3.070904 g / cm^3
# Si number density = 30.779096 Si / 1000 Ang^3
#
#
#
# Elastic Constant Matrix: (Units=GPa)
#
#
# Indices 1 2 3 4 5 6 
#
# 1 178.2910 25.4650 52.5613 0.0000 -20.0256 0.0000
# 2 25.4650 119.3513 51.8699 0.0000 -15.1030 0.0000
# 3 52.5613 51.8699 238.5588 0.0000 24.8372 0.0000
# 4 0.0000 0.0000 0.0000 55.6673 0.0000 -7.2029
# 5 -20.0256 -15.1030 24.8372 0.0000 20.3672 0.0000
# 6 0.0000 0.0000 0.0000 -7.2029 0.0000 75.6794
#
#
#
# Elastic Compliance Matrix: (Units=1/GPa)
#
#
# Indices 1 2 3 4 5 6 
#
# 1 0.007852 0.001429 -0.003385 0.000000 0.012908 0.000000
# 2 0.001429 0.012104 -0.004613 0.000000 0.016006 0.000000
# 3 -0.003385 -0.004613 0.007609 0.000000 -0.016028 0.000000
# 4 0.000000 0.000000 0.000000 0.018188 0.000000 0.001731
# 5 0.012908 0.016006 -0.016028 0.000000 0.093205 0.000000
# 6 0.000000 0.000000 0.000000 0.001731 0.000000 0.013378
#
#
# Mechanical properties :
#
#
# Convention : Reuss Voigt Hill
#
# Bulk Modulus (GPa) = 69.30902 88.44374 78.87638
# Shear Modulus (GPa) = 29.36282 57.42977 43.39630
#
# Velocity S-wave (km/s) = 3.09202 4.32426 3.75897
# Velocity P-wave (km/s) = 5.94260 7.33005 6.67249
#
# Compressibility (1/GPa) = 0.01442814
#
# Stress axis : x y z
#
# Youngs Moduli (GPa) = 127.35085 82.61709 131.41757
#
# Poissons Ratio (x) = -0.11806 0.44480
# Poissons Ratio (y) = -0.18198 0.60624
# Poissons Ratio (z) = 0.43104 0.38112
#
# Static dielectric constant tensor:
#      x y z
#    x 0.886380 0.000000 -0.938860 
#    y 0.000000 2.358320 0.000000 
#    z -0.938860 0.000000 1.759180 
# 
# From -- ./inp_files/67898.got.cif
#   From: 2010.05.17/outbox.cif.g08.bks.cpg/sg15_34_cif.got.tgz:67898.got - 2010.06.03 18:47:42.
