data_PCOD9299911
_publ_section_title
;
Structure prediction by ZEFSAII (Michael W. Deem and Ramdas Pophale) SiO2 
 PCOD9299911
Probable space group: C 2/C
;
_chemical_formula_sum "Si O2"
_cell_formula_units_Z 40
_cell_length_a 18.922067
_cell_length_b 17.996578
_cell_length_c 11.853445
_cell_angle_alpha 90.000000
_cell_angle_beta 25.237690
_cell_angle_gamma 90.000000
_cell_volume 1721.052931
_symmetry_space_group_name_H-M "C 2/C"
_symmetry_group_IT_number 15
_symmetry_cell_setting 'monoclinic'
loop_
_space_group_symop_operation_xyz
x,y,z
-x,y,1/2-z
-x,-y,-z
x,-y,1/2+z
1/2+x,1/2+y,z
1/2-x,1/2+y,1/2-z
1/2-x,1/2-y,-z
1/2+x,1/2-y,1/2+z
loop_
_atom_site_type_symbol
_atom_site_label
_atom_site_fract_x
_atom_site_fract_y
_atom_site_fract_z
Si Si1 0.000000 0.587254 0.750000
Si Si2 0.260925 0.799434 0.707352
Si Si3 0.287121 0.665308 0.976589
Si Si4 0.965091 0.840695 0.992678
Si Si5 0.353309 0.977765 0.794830
Si Si6 0.500000 0.537415 0.250000
O O1 0.097081 0.640668 0.524594
O O2 0.127346 0.532534 0.627776
O O3 0.168112 0.825630 0.955847
O O4 0.344533 0.719957 0.609450
O O5 0.135545 0.800662 0.783587
O O6 0.131597 0.609266 0.200453
O O7 0.250000 0.750000 0.000000
O O8 0.390474 0.634766 0.721041
O O9 0.991299 0.908698 0.871057
O O10 0.500000 0.000000 0.500000
O O11 0.168899 0.990060 0.011726
#
# Coordination Sequence:
#
# PCOD9299911 Si02
#       6
#     4   8   8   8   8   4
#     4  12  25  46  75 106 148 196 256 322 383 460
#     4  11  24  46  72 108 148 199 250 316 385 462
#     4  10  25  48  72 105 148 196 250 311 381 462
#     4  11  26  45  74 107 152 197 254 313 386 461
#     4  12  28  49  76 110 153 199 256 322 391 458
#     4  12  29  46  75 112 148 196 256 316 387 458
#
# _framework density 23.241586000000002
#
# number of rings (size 3 to 8) (size 9 to 14) (size 15 to 20)
#    0.000    0.800    4.000    1.200    8.400    2.400 
#    7.200    0.000    0.000    0.000    0.000    0.000 
#    0.000    0.000    0.000    0.000    0.000    0.000 
#
# Total GULP energy -111793.993194 kJ/mol
# GULP energy per Si atom -5589.699660 kJ/mol
# Density = 2.318869 g / cm^3
# Si number density = 23.241586 Si / 1000 Ang^3
#
#
#
# Elastic Constant Matrix: (Units=GPa)
#
#
# Indices 1 2 3 4 5 6 
#
# 1 82.5825 17.4199 34.4610 -0.0004 3.1956 -0.0001
# 2 17.4199 107.8384 45.3270 -0.0011 10.7645 -0.0010
# 3 34.4610 45.3270 97.3726 -0.0005 4.2596 -0.0001
# 4 -0.0004 -0.0011 -0.0005 44.5443 -0.0001 2.0597
# 5 3.1956 10.7645 4.2596 -0.0001 44.1596 0.0004
# 6 -0.0001 -0.0010 -0.0001 2.0597 0.0004 19.2806
#
#
#
# Elastic Compliance Matrix: (Units=1/GPa)
#
#
# Indices 1 2 3 4 5 6 
#
# 1 0.014223 -0.000174 -0.004930 0.000000 -0.000511 0.000000
# 2 -0.000174 0.011769 -0.005314 0.000000 -0.002344 0.000001
# 3 -0.004930 -0.005314 0.014477 0.000000 0.000256 0.000000
# 4 0.000000 0.000000 0.000000 0.022561 0.000000 -0.002410
# 5 -0.000511 -0.002344 0.000256 0.000000 0.023229 -0.000001
# 6 0.000000 0.000001 0.000000 -0.002410 -0.000001 0.052123
#
#
# Mechanical properties :
#
#
# Convention : Reuss Voigt Hill
#
# Bulk Modulus (GPa) = 50.93765 53.57880 52.25822
# Shear Modulus (GPa) = 30.16352 34.30262 32.23307
#
# Velocity S-wave (km/s) = 3.60644 3.84593 3.72811
# Velocity P-wave (km/s) = 6.26946 6.54405 6.40823
#
# Compressibility (1/GPa) = 0.01963184
#
# Stress axis : x y z
#
# Youngs Moduli (GPa) = 70.30887 84.96946 69.07381
#
# Poissons Ratio (x) = 0.01480 0.34054
# Poissons Ratio (y) = 0.01225 0.36708
# Poissons Ratio (z) = 0.34663 0.45155
#
# Static dielectric constant tensor:
#      x y z
#    x 1.970550 0.000000 -0.032460 
#    y 0.000000 1.851110 0.000000 
#    z -0.032460 0.000000 1.931760 
# 
# From -- ./inp_files/106870.got.cif
#   From: 2010.05.17/outbox.cif.g08.bks.cpg/sg15_54_cif.got.tgz:106870.got - 2010.06.03 18:47:42.
