data_PCOD9299764
_publ_section_title
;
Structure prediction by ZEFSAII (Michael W. Deem and Ramdas Pophale) SiO2 
 PCOD9299764
Probable space group: C 2/C
;
_chemical_formula_sum "Si O2"
_cell_formula_units_Z 52
_cell_length_a 8.175143
_cell_length_b 11.021858
_cell_length_c 30.337131
_cell_angle_alpha 90.000000
_cell_angle_beta 121.531027
_cell_angle_gamma 90.000000
_cell_volume 2329.948151
_symmetry_space_group_name_H-M "C 2/C"
_symmetry_group_IT_number 15
_symmetry_cell_setting 'monoclinic'
loop_
_space_group_symop_operation_xyz
x,y,z
-x,y,1/2-z
-x,-y,-z
x,-y,1/2+z
1/2+x,1/2+y,z
1/2-x,1/2+y,1/2-z
1/2-x,1/2-y,-z
1/2+x,1/2-y,1/2+z
loop_
_atom_site_type_symbol
_atom_site_label
_atom_site_fract_x
_atom_site_fract_y
_atom_site_fract_z
Si Si1 0.825376 0.747379 0.454811
Si Si2 0.500000 0.114707 0.750000
Si Si3 0.426800 0.458229 0.290366
Si Si4 0.205278 0.849971 0.531181
Si Si5 0.958954 0.780339 0.658674
Si Si6 0.950187 0.577650 0.539233
Si Si7 0.763914 0.202179 0.626946
O O1 0.746743 0.736315 0.394558
O O2 0.907177 0.616547 0.482717
O O3 0.635904 0.795581 0.452482
O O4 0.978850 0.850928 0.489240
O O5 0.303140 0.044609 0.734733
O O6 0.460535 0.197810 0.702006
O O7 0.500000 0.456978 0.250000
O O8 0.504720 0.581331 0.323081
O O9 0.528808 0.342451 0.327843
O O10 0.250000 0.750000 0.500000
O O11 0.258485 0.802612 0.587382
O O12 0.322807 0.969774 0.538549
O O13 0.134484 0.739857 0.650878
O O14 0.162809 0.587592 0.587885
#
# Coordination Sequence:
#
# PCOD9299764 Si02
#       7
#     8   4   8   8   8   8   8
#     4   9  21  39  65  95 135 184 229 283 342 424
#     4  12  28  46  70 106 132 184 248 292 382 428
#     4  12  27  49  76 102 141 185 240 313 360 428
#     4  11  24  37  64 109 144 186 232 284 349 435
#     4  11  25  47  73 101 138 189 241 299 363 426
#     4   9  20  41  64  94 142 181 226 280 349 418
#     4  10  25  46  68 103 141 188 237 294 356 431
#
# _framework density 22.318092
#
# number of rings (size 3 to 8) (size 9 to 14) (size 15 to 20)
#    0.000    1.538    2.308    1.385    6.462    4.923 
#    0.000    0.000    0.000    0.000    0.000    0.000 
#    0.000    0.000    0.000    0.000    0.000    0.000 
#
# Total GULP energy -144992.915378 kJ/mol
# GULP energy per Si atom -5576.650591 kJ/mol
# Density = 2.226730 g / cm^3
# Si number density = 22.318092 Si / 1000 Ang^3
#
#
#
# Elastic Constant Matrix: (Units=GPa)
#
#
# Indices 1 2 3 4 5 6 
#
# 1 108.9478 25.1874 36.4698 0.0000 -0.9829 0.0000
# 2 25.1874 83.2996 36.9463 0.0000 -0.8668 0.0000
# 3 36.4698 36.9463 133.4014 0.0000 -4.3327 0.0000
# 4 0.0000 0.0000 0.0000 22.0316 0.0000 9.2147
# 5 -0.9829 -0.8668 -4.3327 0.0000 44.1492 0.0000
# 6 0.0000 0.0000 0.0000 9.2147 0.0000 22.2735
#
#
#
# Elastic Compliance Matrix: (Units=1/GPa)
#
#
# Indices 1 2 3 4 5 6 
#
# 1 0.010432 -0.002154 -0.002256 0.000000 -0.000031 0.000000
# 2 -0.002154 0.014131 -0.003328 0.000000 -0.000097 0.000000
# 3 -0.002256 -0.003328 0.009060 0.000000 0.000774 0.000000
# 4 0.000000 0.000000 0.000000 0.054887 0.000000 -0.022707
# 5 -0.000031 -0.000097 0.000774 0.000000 0.022724 0.000000
# 6 0.000000 0.000000 0.000000 -0.022707 0.000000 0.054290
#
#
# Mechanical properties :
#
#
# Convention : Reuss Voigt Hill
#
# Bulk Modulus (GPa) = 55.10760 58.09507 56.60133
# Shear Modulus (GPa) = 26.73101 32.82722 29.77911
#
# Velocity S-wave (km/s) = 3.46458 3.83936 3.65678
# Velocity P-wave (km/s) = 6.38356 6.76323 6.57614
#
# Compressibility (1/GPa) = 0.01814632
#
# Stress axis : x y z
#
# Youngs Moduli (GPa) = 95.86200 70.76534 110.37679
#
# Poissons Ratio (x) = 0.15241 0.24905
# Poissons Ratio (y) = 0.20647 0.36734
# Poissons Ratio (z) = 0.21630 0.23551
#
# Static dielectric constant tensor:
#      x y z
#    x 2.333330 0.000000 0.092370 
#    y 0.000000 1.858670 0.000000 
#    z 0.092370 0.000000 1.961200 
# 
# From -- ./inp_files/307301.got.cif
#   From: 2010.05.17/outbox.cif.g08.bks.cpg/sg15_154_cif.got.tgz:307301.got - 2010.06.03 18:47:42.
