data_PCOD9299095
_publ_section_title
;
Structure prediction by ZEFSAII (Michael W. Deem and Ramdas Pophale) SiO2 
 PCOD9299095
Probable space group: C 2/C
;
_chemical_formula_sum "Si O2"
_cell_formula_units_Z 28
_cell_length_a 14.682460
_cell_length_b 14.881512
_cell_length_c 10.734675
_cell_angle_alpha 90.000000
_cell_angle_beta 26.014349
_cell_angle_gamma 90.000000
_cell_volume 1028.725901
_symmetry_space_group_name_H-M "C 2/C"
_symmetry_group_IT_number 15
_symmetry_cell_setting 'monoclinic'
loop_
_space_group_symop_operation_xyz
x,y,z
-x,y,1/2-z
-x,-y,-z
x,-y,1/2+z
1/2+x,1/2+y,z
1/2-x,1/2+y,1/2-z
1/2-x,1/2-y,-z
1/2+x,1/2-y,1/2+z
loop_
_atom_site_type_symbol
_atom_site_label
_atom_site_fract_x
_atom_site_fract_y
_atom_site_fract_z
Si Si1 0.687102 0.153368 0.931934
Si Si2 0.315203 0.770958 0.538546
Si Si3 0.000000 0.894481 0.250000
Si Si4 0.229141 0.033820 0.257224
O O1 0.500000 0.180624 0.250000
O O2 0.739974 0.213336 0.749387
O O3 0.888375 0.153817 0.773444
O O4 0.639988 0.053559 0.937167
O O5 0.588225 0.753329 0.227877
O O6 0.292246 0.876844 0.604530
O O7 0.813324 0.948638 0.544974
O O8 0.000000 0.000000 0.500000
#
# Coordination Sequence:
#
# PCOD9299095 Si02
#       4
#     8   8   4   8
#     4  11  27  48  81 117 158 213 273 329 404 484
#     4  12  28  49  78 118 162 208 268 331 408 481
#     4  10  24  46  80 108 166 202 268 330 402 468
#     4  10  24  47  76 112 157 208 262 334 400 472
#
# _framework density 27.218133999999999
#
# number of rings (size 3 to 8) (size 9 to 14) (size 15 to 20)
#    0.000    1.143    0.000    4.286   16.000    2.286 
#    0.000    0.000    0.000    0.000    0.000    0.000 
#    0.000    0.000    0.000    0.000    0.000    0.000 
#
# Total GULP energy -78336.476403 kJ/mol
# GULP energy per Si atom -5595.462600 kJ/mol
# Density = 2.715618 g / cm^3
# Si number density = 27.218134 Si / 1000 Ang^3
#
#
#
# Elastic Constant Matrix: (Units=GPa)
#
#
# Indices 1 2 3 4 5 6 
#
# 1 236.8944 82.9557 104.4129 -0.0032 40.3859 0.0027
# 2 82.9557 262.0112 106.4045 -0.0081 48.7416 0.0035
# 3 104.4129 106.4045 269.7022 -0.0108 22.5754 0.0050
# 4 -0.0032 -0.0081 -0.0108 28.4899 0.0053 -5.8232
# 5 40.3859 48.7416 22.5754 0.0053 68.8827 -0.0034
# 6 0.0027 0.0035 0.0050 -5.8232 -0.0034 23.0736
#
#
#
# Elastic Compliance Matrix: (Units=1/GPa)
#
#
# Indices 1 2 3 4 5 6 
#
# 1 0.005592 -0.000653 -0.001718 0.000000 -0.002253 0.000000
# 2 -0.000653 0.005169 -0.001555 0.000001 -0.002765 0.000000
# 3 -0.001718 -0.001555 0.004946 0.000001 0.000487 0.000000
# 4 0.000000 0.000001 0.000001 0.037009 -0.000004 0.009340
# 5 -0.002253 -0.002765 0.000487 -0.000004 0.017635 0.000002
# 6 0.000000 0.000000 0.000000 0.009340 0.000002 0.045697
#
#
# Mechanical properties :
#
#
# Convention : Reuss Voigt Hill
#
# Bulk Modulus (GPa) = 127.33830 150.68380 139.01105
# Shear Modulus (GPa) = 39.51962 55.74490 47.63226
#
# Velocity S-wave (km/s) = 3.81459 4.53048 4.18786
# Velocity P-wave (km/s) = 8.14171 9.10213 8.63528
#
# Compressibility (1/GPa) = 0.00785310
#
# Stress axis : x y z
#
# Youngs Moduli (GPa) = 178.84168 193.44506 202.19227
#
# Poissons Ratio (x) = 0.12640 0.34744
# Poissons Ratio (y) = 0.11686 0.31442
# Poissons Ratio (z) = 0.30731 0.30082
#
# Static dielectric constant tensor:
#      x y z
#    x 2.322720 -0.000010 -0.268000 
#    y -0.000010 2.228570 0.000020 
#    z -0.268000 0.000020 2.334880 
# 
# From -- ./inp_files/95925.got.cif
#   From: 2010.05.17/outbox.cif.g08.bks.cpg/sg15_48_cif.got.tgz:95925.got - 2010.06.03 18:47:42.
