data_PCOD9299416
_publ_section_title
;
Structure prediction by ZEFSAII (Michael W. Deem and Ramdas Pophale) SiO2 
 PCOD9299416
Probable space group: C 2/C
;
_chemical_formula_sum "Si O2"
_cell_formula_units_Z 40
_cell_length_a 24.460773
_cell_length_b 4.748567
_cell_length_c 20.976254
_cell_angle_alpha 90.000000
_cell_angle_beta 35.142870
_cell_angle_gamma 90.000000
_cell_volume 1402.472907
_symmetry_space_group_name_H-M "C 2/C"
_symmetry_group_IT_number 15
_symmetry_cell_setting 'monoclinic'
loop_
_space_group_symop_operation_xyz
x,y,z
-x,y,1/2-z
-x,-y,-z
x,-y,1/2+z
1/2+x,1/2+y,z
1/2-x,1/2+y,1/2-z
1/2-x,1/2-y,-z
1/2+x,1/2-y,1/2+z
loop_
_atom_site_type_symbol
_atom_site_label
_atom_site_fract_x
_atom_site_fract_y
_atom_site_fract_z
Si Si1 0.667097 0.792932 0.165779
Si Si2 0.035097 0.425912 0.894353
Si Si3 0.676881 0.562642 0.822118
Si Si4 0.876507 0.816726 0.993016
Si Si5 0.603154 0.285193 0.147726
O O1 0.620867 0.927900 0.272471
O O2 0.772720 0.692609 0.079325
O O3 0.609374 0.530799 0.194331
O O4 0.671569 0.036470 0.106695
O O5 0.090258 0.128830 0.856234
O O6 0.000000 0.500000 0.000000
O O7 0.949354 0.561545 0.934340
O O8 0.758961 0.340422 0.730918
O O9 0.628368 0.507044 0.936563
O O10 0.891491 0.039427 0.922365
O O11 0.500000 0.145416 0.250000
#
# Coordination Sequence:
#
# PCOD9299416 Si02
#       5
#     8   8   8   8   8
#     4  12  26  50  76 113 157 200 260 323 388 463
#     4  10  24  50  79 116 154 207 256 325 396 467
#     4  11  25  48  78 114 159 202 255 325 397 465
#     4  11  25  50  79 113 152 208 261 322 384 473
#     4  12  27  49  76 111 156 206 259 321 387 461
#
# _framework density 28.521048
#
# number of rings (size 3 to 8) (size 9 to 14) (size 15 to 20)
#    0.000    0.800    4.000    1.800    2.800    1.600 
#    3.600    6.000    0.000    0.000    0.000    0.000 
#    0.000    0.000    0.000    0.000    0.000    0.000 
#
# Total GULP energy -111972.813779 kJ/mol
# GULP energy per Si atom -5598.640689 kJ/mol
# Density = 2.845613 g / cm^3
# Si number density = 28.521048 Si / 1000 Ang^3
#
#
#
# Elastic Constant Matrix: (Units=GPa)
#
#
# Indices 1 2 3 4 5 6 
#
# 1 192.4582 68.6572 84.6282 0.0988 -5.8192 -0.0166
# 2 68.6572 113.6823 15.9675 0.1668 5.7329 0.0548
# 3 84.6282 15.9675 130.7964 0.0769 6.1701 -0.0361
# 4 0.0988 0.1668 0.0769 35.5230 -0.0574 3.4095
# 5 -5.8192 5.7329 6.1701 -0.0574 79.1297 0.0178
# 6 -0.0166 0.0548 -0.0361 3.4095 0.0178 66.1529
#
#
#
# Elastic Compliance Matrix: (Units=1/GPa)
#
#
# Indices 1 2 3 4 5 6 
#
# 1 0.009497 -0.005024 -0.005602 0.000011 0.001499 0.000002
# 2 -0.005024 0.011633 0.001895 -0.000046 -0.001360 -0.000007
# 3 -0.005602 0.001895 0.011106 -0.000020 -0.001415 0.000004
# 4 0.000011 -0.000046 -0.000020 0.028291 0.000027 -0.001458
# 5 0.001499 -0.001360 -0.001415 0.000027 0.012957 -0.000004
# 6 0.000002 -0.000007 0.000004 -0.001458 -0.000004 0.015192
#
#
# Mechanical properties :
#
#
# Convention : Reuss Voigt Hill
#
# Bulk Modulus (GPa) = 67.69222 86.16027 76.92625
# Shear Modulus (GPa) = 45.01952 54.00674 49.51313
#
# Velocity S-wave (km/s) = 3.97730 4.35624 4.17108
# Velocity P-wave (km/s) = 6.69907 7.45503 7.08714
#
# Compressibility (1/GPa) = 0.01477275
#
# Stress axis : x y z
#
# Youngs Moduli (GPa) = 105.29578 85.95948 90.04431
#
# Poissons Ratio (x) = 0.43190 0.50444
# Poissons Ratio (y) = 0.52905 -0.17062
# Poissons Ratio (z) = 0.58988 -0.16288
#
# Static dielectric constant tensor:
#      x y z
#    x 2.310480 -0.000140 0.010940 
#    y -0.000140 2.142910 0.000130 
#    z 0.010940 0.000130 2.193460 
# 
# From -- ./inp_files/254206.got.cif
#   From: 2010.05.17/outbox.cif.g08.bks.cpg/sg15_128_cif.got.tgz:254206.got - 2010.06.03 18:47:42.
