data_PCOD9299765
_publ_section_title
;
Structure prediction by ZEFSAII (Michael W. Deem and Ramdas Pophale) SiO2 
 PCOD9299765
Probable space group: C 2/C
;
_chemical_formula_sum "Si O2"
_cell_formula_units_Z 48
_cell_length_a 8.718322
_cell_length_b 25.141032
_cell_length_c 15.225427
_cell_angle_alpha 90.000000
_cell_angle_beta 139.139230
_cell_angle_gamma 90.000000
_cell_volume 2183.289789
_symmetry_space_group_name_H-M "C 2/C"
_symmetry_group_IT_number 15
_symmetry_cell_setting 'monoclinic'
loop_
_space_group_symop_operation_xyz
x,y,z
-x,y,1/2-z
-x,-y,-z
x,-y,1/2+z
1/2+x,1/2+y,z
1/2-x,1/2+y,1/2-z
1/2-x,1/2-y,-z
1/2+x,1/2-y,1/2+z
loop_
_atom_site_type_symbol
_atom_site_label
_atom_site_fract_x
_atom_site_fract_y
_atom_site_fract_z
Si Si1 0.949765 0.980678 0.627806
Si Si2 0.855469 0.660805 0.877202
Si Si3 0.258256 0.959414 0.603699
Si Si4 0.726412 0.284958 0.623449
Si Si5 0.426943 0.638858 0.578134
Si Si6 0.907477 0.853565 0.615174
O O1 0.942043 0.917008 0.626049
O O2 0.000000 0.999026 0.750000
O O3 0.144137 0.991790 0.636059
O O4 0.727419 0.005653 0.479818
O O5 0.802172 0.723161 0.867850
O O6 0.690686 0.639831 0.727779
O O7 0.754474 0.631468 0.919997
O O8 0.130806 0.655089 0.983824
O O9 0.500000 0.940616 0.750000
O O10 0.117855 0.907459 0.510977
O O11 0.634308 0.303931 0.489138
O O12 0.563252 0.319546 0.616658
O O13 0.000000 0.299159 0.750000
O O14 0.000000 0.836000 0.750000
#
# Coordination Sequence:
#
# PCOD9299765 Si02
#       6
#     8   8   8   8   8   8
#     4  10  25  46  68 104 139 182 236 296 362 418
#     4  11  26  42  66 103 139 185 236 290 356 413
#     4  11  25  46  74 104 137 190 240 292 362 429
#     4  12  23  44  70  97 136 185 234 287 342 426
#     4  11  24  43  69  99 135 185 236 288 349 425
#     4  11  25  43  68 101 138 181 227 292 351 416
#
# _framework density 21.985171000000001
#
# number of rings (size 3 to 8) (size 9 to 14) (size 15 to 20)
#    0.000    1.000    3.333    2.500    9.333    4.000 
#    0.000    0.000    0.000    0.000    0.000    0.000 
#    0.000    0.000    0.000    0.000    0.000    0.000 
#
# Total GULP energy -134022.580222 kJ/mol
# GULP energy per Si atom -5584.274176 kJ/mol
# Density = 2.193513 g / cm^3
# Si number density = 21.985171 Si / 1000 Ang^3
#
#
#
# Elastic Constant Matrix: (Units=GPa)
#
#
# Indices 1 2 3 4 5 6 
#
# 1 97.1746 20.6235 78.1340 0.0000 1.1075 0.0000
# 2 20.6235 68.7264 27.6002 0.0000 -11.7895 0.0000
# 3 78.1340 27.6002 161.8147 0.0000 -12.6305 0.0000
# 4 0.0000 0.0000 0.0000 34.3415 0.0000 -4.2466
# 5 1.1075 -11.7895 -12.6305 0.0000 44.6343 0.0000
# 6 0.0000 0.0000 0.0000 -4.2466 0.0000 14.7481
#
#
#
# Elastic Compliance Matrix: (Units=1/GPa)
#
#
# Indices 1 2 3 4 5 6 
#
# 1 0.017550 -0.002520 -0.008314 0.000000 -0.003454 0.000000
# 2 -0.002520 0.016519 -0.001284 0.000000 0.004063 0.000000
# 3 -0.008314 -0.001284 0.010638 0.000000 0.002878 0.000000
# 4 0.000000 0.000000 0.000000 0.030194 0.000000 0.008694
# 5 -0.003454 0.004063 0.002878 0.000000 0.024377 0.000000
# 6 0.000000 0.000000 0.000000 0.008694 0.000000 0.070309
#
#
# Mechanical properties :
#
#
# Convention : Reuss Voigt Hill
#
# Bulk Modulus (GPa) = 48.84801 64.49235 56.67018
# Shear Modulus (GPa) = 24.91951 32.16867 28.54409
#
# Velocity S-wave (km/s) = 3.37036 3.82933 3.60715
# Velocity P-wave (km/s) = 6.11658 6.99642 6.57124
#
# Compressibility (1/GPa) = 0.02047166
#
# Stress axis : x y z
#
# Youngs Moduli (GPa) = 56.98088 60.53602 94.00352
#
# Poissons Ratio (x) = 0.15255 0.78153
# Poissons Ratio (y) = 0.14359 0.12067
# Poissons Ratio (z) = 0.47373 0.07771
#
# Static dielectric constant tensor:
#      x y z
#    x 1.888790 0.000000 -0.036420 
#    y 0.000000 1.809020 0.000000 
#    z -0.036420 0.000000 1.863110 
# 
# From -- ./inp_files/139042.got.cif
#   From: 2010.05.17/outbox.cif.g08.bks.cpg/sg15_70_cif.got.tgz:139042.got - 2010.06.03 18:47:42.
