data_PCOD9299885
_publ_section_title
;
Structure prediction by ZEFSAII (Michael W. Deem and Ramdas Pophale) SiO2 
 PCOD9299885
Probable space group: C 2/C
;
_chemical_formula_sum "Si O2"
_cell_formula_units_Z 32
_cell_length_a 28.176667
_cell_length_b 4.958430
_cell_length_c 9.616164
_cell_angle_alpha 90.000000
_cell_angle_beta 87.355755
_cell_angle_gamma 90.000000
_cell_volume 1342.063306
_symmetry_space_group_name_H-M "C 2/C"
_symmetry_group_IT_number 15
_symmetry_cell_setting 'monoclinic'
loop_
_space_group_symop_operation_xyz
x,y,z
-x,y,1/2-z
-x,-y,-z
x,-y,1/2+z
1/2+x,1/2+y,z
1/2-x,1/2+y,1/2-z
1/2-x,1/2-y,-z
1/2+x,1/2-y,1/2+z
loop_
_atom_site_type_symbol
_atom_site_label
_atom_site_fract_x
_atom_site_fract_y
_atom_site_fract_z
Si Si1 0.457567 0.206178 0.038135
Si Si2 0.127225 0.523947 0.812846
Si Si3 0.579934 0.446001 0.193693
Si Si4 0.266063 0.799071 0.158385
O O1 0.448329 0.456597 0.937373
O O2 0.456978 0.322161 0.192421
O O3 0.500000 0.000000 0.000000
O O4 0.406662 0.052392 0.052759
O O5 0.121739 0.276333 0.704183
O O6 0.180210 0.589977 0.848601
O O7 0.102669 0.783165 0.750218
O O8 0.262995 0.526402 0.251155
O O9 0.250000 0.750000 0.000000
#
# Coordination Sequence:
#
# PCOD9299885 Si02
#       4
#     8   8   8   8
#     4  10  26  52  79 116 159 210 278 326 405 484
#     4  10  26  48  80 111 164 212 265 335 402 485
#     4  10  25  47  79 110 159 210 261 331 403 477
#     4  12  28  51  84 125 167 217 278 344 419 492
#
# _framework density 23.843883999999999
#
# number of rings (size 3 to 8) (size 9 to 14) (size 15 to 20)
#    1.500    0.000    0.000    2.250    7.000    4.000 
#    4.500    1.250    0.000    0.000    0.000    0.000 
#    0.000    0.000    0.000    0.000    0.000    0.000 
#
# Total GULP energy -89322.723442 kJ/mol
# GULP energy per Si atom -5582.670215 kJ/mol
# Density = 2.378961 g / cm^3
# Si number density = 23.843884 Si / 1000 Ang^3
#
#
#
# Elastic Constant Matrix: (Units=GPa)
#
#
# Indices 1 2 3 4 5 6 
#
# 1 145.0443 24.1364 64.8478 0.0000 2.3030 0.0000
# 2 24.1364 152.3908 49.6908 0.0000 3.8120 0.0000
# 3 64.8478 49.6908 136.7613 0.0000 22.9521 0.0000
# 4 0.0000 0.0000 0.0000 47.5463 0.0000 -2.8559
# 5 2.3030 3.8120 22.9521 0.0000 30.0406 0.0000
# 6 0.0000 0.0000 0.0000 -2.8559 0.0000 48.1983
#
#
#
# Elastic Compliance Matrix: (Units=1/GPa)
#
#
# Indices 1 2 3 4 5 6 
#
# 1 0.008970 0.000061 -0.004771 0.000000 0.002949 0.000000
# 2 0.000061 0.007488 -0.002970 0.000000 0.001315 0.000000
# 3 -0.004771 -0.002970 0.012077 0.000000 -0.008485 0.000000
# 4 0.000000 0.000000 0.000000 0.021107 0.000000 0.001251
# 5 0.002949 0.001315 -0.008485 0.000000 0.039378 0.000000
# 6 0.000000 0.000000 0.000000 0.001251 0.000000 0.020822
#
#
# Mechanical properties :
#
#
# Convention : Reuss Voigt Hill
#
# Bulk Modulus (GPa) = 75.89567 79.06069 77.47818
# Shear Modulus (GPa) = 38.58190 44.85846 41.72018
#
# Velocity S-wave (km/s) = 4.02693 4.34215 4.18751
# Velocity P-wave (km/s) = 7.31580 7.63994 7.47962
#
# Compressibility (1/GPa) = 0.01317598
#
# Stress axis : x y z
#
# Youngs Moduli (GPa) = 111.47829 133.54612 82.80019
#
# Poissons Ratio (x) = -0.00815 0.39501
# Poissons Ratio (y) = -0.00680 0.24594
# Poissons Ratio (z) = 0.53182 0.39667
#
# Static dielectric constant tensor:
#      x y z
#    x 2.008290 0.000000 -0.001300 
#    y 0.000000 1.937710 0.000000 
#    z -0.001300 0.000000 1.936300 
# 
# From -- ./inp_files/68010.got.cif
#   From: 2010.05.17/outbox.cif.g08.bks.cpg/sg15_35_cif.got.tgz:68010.got - 2010.06.03 18:47:42.
