data_PCOD9299367
_publ_section_title
;
Structure prediction by ZEFSAII (Michael W. Deem and Ramdas Pophale) SiO2 
 PCOD9299367
Probable space group: C 2/C
;
_chemical_formula_sum "Si O2"
_cell_formula_units_Z 20
_cell_length_a 5.379717
_cell_length_b 19.314842
_cell_length_c 8.213311
_cell_angle_alpha 90.000000
_cell_angle_beta 92.090219
_cell_angle_gamma 90.000000
_cell_volume 852.864028
_symmetry_space_group_name_H-M "C 2/C"
_symmetry_group_IT_number 15
_symmetry_cell_setting 'monoclinic'
loop_
_space_group_symop_operation_xyz
x,y,z
-x,y,1/2-z
-x,-y,-z
x,-y,1/2+z
1/2+x,1/2+y,z
1/2-x,1/2+y,1/2-z
1/2-x,1/2-y,-z
1/2+x,1/2-y,1/2+z
loop_
_atom_site_type_symbol
_atom_site_label
_atom_site_fract_x
_atom_site_fract_y
_atom_site_fract_z
Si Si1 0.743877 0.543711 0.478707
Si Si2 0.500000 0.873171 0.750000
Si Si3 0.401245 0.814255 0.071365
O O1 0.500000 0.500000 0.500000
O O2 0.757448 0.612380 0.591515
O O3 0.000000 0.500000 0.500000
O O4 0.774675 0.578713 0.302207
O O5 0.428268 0.832507 0.583368
O O6 0.500000 0.795473 0.250000
O O7 0.250000 0.750000 0.000000
#
# Coordination Sequence:
#
# PCOD9299367 Si02
#       3
#     8   4   8
#     4  10  24  49  76 113 159 208 265 334 402 479
#     4   8  24  46  72 118 160 202 274 336 398 478
#     4  10  24  49  75 115 161 216 271 332 408 483
#
# _framework density 23.450396000000001
#
# number of rings (size 3 to 8) (size 9 to 14) (size 15 to 20)
#    2.400    0.000    0.000    0.000    2.800    6.400 
#    7.200    2.000    0.000    0.000    0.000    0.000 
#    0.000    0.000    0.000    0.000    0.000    0.000 
#
# Total GULP energy -55681.858218 kJ/mol
# GULP energy per Si atom -5568.185822 kJ/mol
# Density = 2.339702 g / cm^3
# Si number density = 23.450396 Si / 1000 Ang^3
#
#
#
# Elastic Constant Matrix: (Units=GPa)
#
#
# Indices 1 2 3 4 5 6 
#
# 1 131.4478 78.6143 75.0690 0.0000 1.2321 0.0000
# 2 78.6143 175.1899 78.7382 0.0000 23.9009 0.0000
# 3 75.0690 78.7382 241.5528 0.0000 4.0159 0.0000
# 4 0.0000 0.0000 0.0000 41.1488 0.0000 -5.1268
# 5 1.2321 23.9009 4.0159 0.0000 33.1990 0.0000
# 6 0.0000 0.0000 0.0000 -5.1268 0.0000 19.6486
#
#
#
# Elastic Compliance Matrix: (Units=1/GPa)
#
#
# Indices 1 2 3 4 5 6 
#
# 1 0.011594 -0.004681 -0.002130 0.000000 0.003198 0.000000
# 2 -0.004681 0.009346 -0.001486 0.000000 -0.006375 0.000000
# 3 -0.002130 -0.001486 0.005278 0.000000 0.000510 0.000000
# 4 0.000000 0.000000 0.000000 0.025119 0.000000 0.006554
# 5 0.003198 -0.006375 0.000510 0.000000 0.034531 0.000000
# 6 0.000000 0.000000 0.000000 0.006554 0.000000 0.052604
#
#
# Mechanical properties :
#
#
# Convention : Reuss Voigt Hill
#
# Bulk Modulus (GPa) = 103.91641 112.55929 108.23785
# Shear Modulus (GPa) = 31.59065 39.85054 35.72059
#
# Velocity S-wave (km/s) = 3.67430 4.12680 3.90711
# Velocity P-wave (km/s) = 7.90001 8.41489 8.16151
#
# Compressibility (1/GPa) = 0.00962312
#
# Stress axis : x y z
#
# Youngs Moduli (GPa) = 86.25112 106.99349 189.47484
#
# Poissons Ratio (x) = 0.50089 0.40364
# Poissons Ratio (y) = 0.40378 0.28151
# Poissons Ratio (z) = 0.18374 0.15896
#
# Static dielectric constant tensor:
#      x y z
#    x 1.924650 0.000000 0.018100 
#    y 0.000000 1.678880 0.000000 
#    z 0.018100 0.000000 2.024880 
# 
# From -- ./inp_files/19332.got.cif
#   From: 2010.05.17/outbox.cif.g08.bks.cpg/sg15_10_cif.got.tgz:19332.got - 2010.06.03 18:47:42.
