data_PCOD9299229
_publ_section_title
;
Structure prediction by ZEFSAII (Michael W. Deem and Ramdas Pophale) SiO2 
 PCOD9299229
Probable space group: C 2/C
;
_chemical_formula_sum "Si O2"
_cell_formula_units_Z 40
_cell_length_a 19.613591
_cell_length_b 20.138680
_cell_length_c 9.935115
_cell_angle_alpha 90.000000
_cell_angle_beta 155.304630
_cell_angle_gamma 90.000000
_cell_volume 1639.543171
_symmetry_space_group_name_H-M "C 2/C"
_symmetry_group_IT_number 15
_symmetry_cell_setting 'monoclinic'
loop_
_space_group_symop_operation_xyz
x,y,z
-x,y,1/2-z
-x,-y,-z
x,-y,1/2+z
1/2+x,1/2+y,z
1/2-x,1/2+y,1/2-z
1/2-x,1/2-y,-z
1/2+x,1/2-y,1/2+z
loop_
_atom_site_type_symbol
_atom_site_label
_atom_site_fract_x
_atom_site_fract_y
_atom_site_fract_z
Si Si1 0.897781 0.662372 0.732935
Si Si2 0.799922 0.426408 0.736526
Si Si3 0.279680 0.788339 0.730234
Si Si4 0.677560 0.484579 0.258079
Si Si5 0.312826 0.653960 0.882196
O O1 0.785367 0.474232 0.583868
O O2 0.042472 0.715061 0.023146
O O3 0.777876 0.649434 0.638424
O O4 0.014592 0.598905 0.919296
O O5 0.702327 0.356123 0.533925
O O6 0.731711 0.460608 0.747551
O O7 0.311916 0.810984 0.944122
O O8 0.223624 0.713105 0.639273
O O9 0.500000 0.500000 0.000000
O O10 0.684484 0.415210 0.190373
O O11 0.500000 0.672298 0.250000
#
# Coordination Sequence:
#
# PCOD9299229 Si02
#       5
#     8   8   8   8   8
#     4   9  21  42  66 103 128 182 229 268 356 397
#     4  10  24  48  65  98 138 177 231 277 344 417
#     4   9  21  42  71 101 134 180 230 283 344 407
#     4  12  28  44  68 102 135 183 225 286 355 401
#     4  12  23  39  71 102 139 178 232 283 336 421
#
# _framework density 24.397041000000002
#
# number of rings (size 3 to 8) (size 9 to 14) (size 15 to 20)
#    1.200    0.400    2.000    2.400    5.600    2.400 
#    3.600    0.000    0.000    0.000    0.000    0.000 
#    0.000    0.000    0.000    0.000    0.000    0.000 
#
# Total GULP energy -111634.666501 kJ/mol
# GULP energy per Si atom -5581.733325 kJ/mol
# Density = 2.434151 g / cm^3
# Si number density = 24.397041 Si / 1000 Ang^3
#
#
#
# Elastic Constant Matrix: (Units=GPa)
#
#
# Indices 1 2 3 4 5 6 
#
# 1 187.1333 54.7740 53.9994 0.0000 43.3990 0.0000
# 2 54.7740 164.7592 24.1671 0.0000 26.3703 0.0000
# 3 53.9994 24.1671 41.2496 0.0000 13.9346 0.0000
# 4 0.0000 0.0000 0.0000 20.1473 0.0000 -4.1897
# 5 43.3990 26.3703 13.9346 0.0000 38.2875 0.0000
# 6 0.0000 0.0000 0.0000 -4.1897 0.0000 44.6118
#
#
#
# Elastic Compliance Matrix: (Units=1/GPa)
#
#
# Indices 1 2 3 4 5 6 
#
# 1 0.010314 -0.000696 -0.010611 0.000000 -0.007350 0.000000
# 2 -0.000696 0.007153 -0.002146 0.000000 -0.003357 0.000000
# 3 -0.010611 -0.002146 0.039711 0.000000 -0.000947 0.000000
# 4 0.000000 0.000000 0.000000 0.050623 0.000000 0.004754
# 5 -0.007350 -0.003357 -0.000947 0.000000 0.037105 0.000000
# 6 0.000000 0.000000 0.000000 0.004754 0.000000 0.022862
#
#
# Mechanical properties :
#
#
# Convention : Reuss Voigt Hill
#
# Bulk Modulus (GPa) = 33.03424 73.22479 53.12951
# Shear Modulus (GPa) = 24.41824 37.95608 31.18716
#
# Velocity S-wave (km/s) = 3.16708 3.94860 3.57924
# Velocity P-wave (km/s) = 5.19072 7.13215 6.23743
#
# Compressibility (1/GPa) = 0.03027162
#
# Stress axis : x y z
#
# Youngs Moduli (GPa) = 96.95520 139.80502 25.18207
#
# Poissons Ratio (x) = 0.09731 0.26722
# Poissons Ratio (y) = 0.06749 0.05403
# Poissons Ratio (z) = 1.02883 0.29996
#
# Static dielectric constant tensor:
#      x y z
#    x 1.916290 0.000000 -0.042590 
#    y 0.000000 2.036750 0.000000 
#    z -0.042590 0.000000 1.998830 
# 
# From -- ./inp_files/126353.got.cif
#   From: 2010.05.17/outbox.cif.g08.bks.cpg/sg15_64_cif.got.tgz:126353.got - 2010.06.03 18:47:42.
