data_PCOD9299400
_publ_section_title
;
Structure prediction by ZEFSAII (Michael W. Deem and Ramdas Pophale) SiO2 
 PCOD9299400
Probable space group: C 2/C
;
_chemical_formula_sum "Si O2"
_cell_formula_units_Z 52
_cell_length_a 26.502165
_cell_length_b 6.245534
_cell_length_c 13.643858
_cell_angle_alpha 90.000000
_cell_angle_beta 75.629974
_cell_angle_gamma 90.000000
_cell_volume 2187.677536
_symmetry_space_group_name_H-M "C 2/C"
_symmetry_group_IT_number 15
_symmetry_cell_setting 'monoclinic'
loop_
_space_group_symop_operation_xyz
x,y,z
-x,y,1/2-z
-x,-y,-z
x,-y,1/2+z
1/2+x,1/2+y,z
1/2-x,1/2+y,1/2-z
1/2-x,1/2-y,-z
1/2+x,1/2-y,1/2+z
loop_
_atom_site_type_symbol
_atom_site_label
_atom_site_fract_x
_atom_site_fract_y
_atom_site_fract_z
Si Si1 0.283081 0.618391 0.662565
Si Si2 0.500000 0.429155 0.750000
Si Si3 0.624090 0.093406 0.461225
Si Si4 0.053241 0.019832 0.036552
Si Si5 0.186730 0.102836 0.170013
Si Si6 0.690661 0.290128 0.997867
Si Si7 0.411547 0.750289 0.158377
O O1 0.228904 0.706106 0.645732
O O2 0.285428 0.579596 0.776951
O O3 0.300130 0.389134 0.613161
O O4 0.327236 0.780949 0.607449
O O5 0.537286 0.553195 0.654191
O O6 0.536530 0.290528 0.804072
O O7 0.652292 0.913266 0.515391
O O8 0.595518 0.984893 0.382197
O O9 0.581386 0.249151 0.530367
O O10 0.088573 0.887888 0.942841
O O11 0.000000 0.000000 0.000000
O O12 0.135183 0.183656 0.248140
O O13 0.172583 0.985944 0.075942
O O14 0.750000 0.250000 0.000000
#
# Coordination Sequence:
#
# PCOD9299400 Si02
#       7
#     8   4   8   8   8   8   8
#     4  12  25  47  66 112 155 196 254 310 362 457
#     4  10  26  46  78 102 132 192 246 318 380 448
#     4  12  24  46  74 103 160 196 240 321 375 445
#     4  10  24  50  74 104 149 189 253 323 374 449
#     4  12  24  42  76 101 155 204 252 307 380 452
#     4  12  26  44  68 112 150 205 254 303 368 454
#     4  11  25  47  72 108 144 195 252 309 385 447
#
# _framework density 23.769497999999999
#
# number of rings (size 3 to 8) (size 9 to 14) (size 15 to 20)
#    0.000    0.615    4.615    2.308    4.308    3.692 
#    0.000    3.846    0.000    0.000    0.000    0.000 
#    0.000    0.000    0.000    0.000    0.000    0.000 
#
# Total GULP energy -145243.090463 kJ/mol
# GULP energy per Si atom -5586.272710 kJ/mol
# Density = 2.371540 g / cm^3
# Si number density = 23.769498 Si / 1000 Ang^3
#
#
#
# Elastic Constant Matrix: (Units=GPa)
#
#
# Indices 1 2 3 4 5 6 
#
# 1 132.0828 39.7447 28.9507 0.0000 -4.3003 0.0000
# 2 39.7447 59.1402 25.7742 0.0000 -6.5820 0.0000
# 3 28.9507 25.7742 132.6826 0.0000 -4.2394 0.0000
# 4 0.0000 0.0000 0.0000 32.4186 0.0000 12.7681
# 5 -4.3003 -6.5820 -4.2394 0.0000 49.9624 0.0000
# 6 0.0000 0.0000 0.0000 12.7681 0.0000 39.1118
#
#
#
# Elastic Compliance Matrix: (Units=1/GPa)
#
#
# Indices 1 2 3 4 5 6 
#
# 1 0.009592 -0.006051 -0.000919 0.000000 -0.000050 0.000000
# 2 -0.006051 0.022520 -0.002984 0.000000 0.002193 0.000000
# 3 -0.000919 -0.002984 0.008324 0.000000 0.000234 0.000000
# 4 0.000000 0.000000 0.000000 0.035398 0.000000 -0.011556
# 5 -0.000050 0.002193 0.000234 0.000000 0.020320 0.000000
# 6 0.000000 0.000000 0.000000 -0.011556 0.000000 0.029340
#
#
# Mechanical properties :
#
#
# Convention : Reuss Voigt Hill
#
# Bulk Modulus (GPa) = 48.71461 56.98276 52.84868
# Shear Modulus (GPa) = 32.84193 39.59431 36.21812
#
# Velocity S-wave (km/s) = 3.72113 4.08580 3.90772
# Velocity P-wave (km/s) = 6.24512 6.80320 6.53012
#
# Compressibility (1/GPa) = 0.02052772
#
# Stress axis : x y z
#
# Youngs Moduli (GPa) = 104.25788 44.40480 120.12744
#
# Poissons Ratio (x) = 0.26869 0.11040
# Poissons Ratio (y) = 0.63086 0.35849
# Poissons Ratio (z) = 0.09581 0.13252
#
# Static dielectric constant tensor:
#      x y z
#    x 1.996720 0.000000 -0.000850 
#    y 0.000000 1.944180 0.000000 
#    z -0.000850 0.000000 1.923140 
# 
# From -- ./inp_files/180059.got.cif
#   From: 2010.05.17/outbox.cif.g08.bks.cpg/sg15_91_cif.got.tgz:180059.got - 2010.06.03 18:47:42.
