data_PCOD9299687
_publ_section_title
;
Structure prediction by ZEFSAII (Michael W. Deem and Ramdas Pophale) SiO2 
 PCOD9299687
Probable space group: C 2/C
;
_chemical_formula_sum "Si O2"
_cell_formula_units_Z 64
_cell_length_a 22.646576
_cell_length_b 5.976831
_cell_length_c 21.903967
_cell_angle_alpha 90.000000
_cell_angle_beta 78.672474
_cell_angle_gamma 90.000000
_cell_volume 2907.052930
_symmetry_space_group_name_H-M "C 2/C"
_symmetry_group_IT_number 15
_symmetry_cell_setting 'monoclinic'
loop_
_space_group_symop_operation_xyz
x,y,z
-x,y,1/2-z
-x,-y,-z
x,-y,1/2+z
1/2+x,1/2+y,z
1/2-x,1/2+y,1/2-z
1/2-x,1/2-y,-z
1/2+x,1/2-y,1/2+z
loop_
_atom_site_type_symbol
_atom_site_label
_atom_site_fract_x
_atom_site_fract_y
_atom_site_fract_z
Si Si1 0.741050 0.918731 0.284095
Si Si2 0.620707 0.128137 0.342014
Si Si3 0.606573 0.486435 0.441692
Si Si4 0.438061 0.561012 0.743003
Si Si5 0.178701 0.284738 0.510661
Si Si6 0.476411 0.230030 0.628447
Si Si7 0.841523 0.980981 0.364839
Si Si8 0.391553 0.203647 0.942480
O O1 0.752458 0.165297 0.246717
O O2 0.672055 0.949833 0.317610
O O3 0.785375 0.933908 0.332934
O O4 0.635928 0.303017 0.391615
O O5 0.605080 0.278657 0.286804
O O6 0.560744 0.996693 0.370999
O O7 0.656571 0.657332 0.454996
O O8 0.551953 0.602703 0.416652
O O9 0.587719 0.376523 0.509374
O O10 0.500000 0.678745 0.750000
O O11 0.459274 0.353821 0.695809
O O12 0.400025 0.504424 0.810332
O O13 0.250000 0.250000 0.500000
O O14 0.145345 0.519328 0.513544
O O15 0.154076 0.196588 0.581297
O O16 0.545977 0.165668 0.605490
O O17 0.842588 0.207353 0.403781
#
# Coordination Sequence:
#
# PCOD9299687 Si02
#       8
#     8   8   8   8   8   8   8   8
#     4  12  28  49  75 107 151 197 257 312 377 454
#     4  11  26  42  72 103 140 188 237 302 378 442
#     4  10  25  45  68 101 138 181 241 303 376 438
#     4  11  23  46  68 105 144 179 234 305 372 449
#     4  11  28  45  69 102 144 190 250 306 368 450
#     4  11  24  43  74 101 141 180 240 304 375 463
#     4  11  26  45  72 101 143 190 243 305 373 445
#     4  11  25  45  70 103 137 192 239 303 381 446
#
# _framework density 22.015422000000001
#
# number of rings (size 3 to 8) (size 9 to 14) (size 15 to 20)
#    0.000    1.000    2.500    1.875   10.500    5.500 
#    0.000    0.000    0.000    0.000    0.000    0.000 
#    0.000    0.000    0.000    0.000    0.000    0.000 
#
# Total GULP energy -178501.533979 kJ/mol
# GULP energy per Si atom -5578.172937 kJ/mol
# Density = 2.196531 g / cm^3
# Si number density = 22.015422 Si / 1000 Ang^3
#
#
#
# Elastic Constant Matrix: (Units=GPa)
#
#
# Indices 1 2 3 4 5 6 
#
# 1 55.8634 -2.1745 13.7713 0.0000 9.0623 0.0000
# 2 -2.1745 67.0888 22.6714 0.0000 4.1200 0.0000
# 3 13.7713 22.6714 95.1887 0.0000 17.8503 0.0000
# 4 0.0000 0.0000 0.0000 22.5433 0.0000 -5.9660
# 5 9.0623 4.1200 17.8503 0.0000 34.0684 0.0000
# 6 0.0000 0.0000 0.0000 -5.9660 0.0000 19.0232
#
#
#
# Elastic Compliance Matrix: (Units=1/GPa)
#
#
# Indices 1 2 3 4 5 6 
#
# 1 0.019221 0.001691 -0.002425 0.000000 -0.004047 0.000000
# 2 0.001691 0.016359 -0.004087 0.000000 -0.000287 0.000000
# 3 -0.002425 -0.004087 0.012882 0.000000 -0.005610 0.000000
# 4 0.000000 0.000000 0.000000 0.048374 0.000000 0.015171
# 5 -0.004047 -0.000287 -0.005610 0.000000 0.033403 0.000000
# 6 0.000000 0.000000 0.000000 0.015171 0.000000 0.057325
#
#
# Mechanical properties :
#
#
# Convention : Reuss Voigt Hill
#
# Bulk Modulus (GPa) = 25.75996 31.85304 28.80650
# Shear Modulus (GPa) = 23.79295 27.38516 25.58906
#
# Velocity S-wave (km/s) = 3.29103 3.53073 3.41299
# Velocity P-wave (km/s) = 5.11541 5.57865 5.35205
#
# Compressibility (1/GPa) = 0.03881993
#
# Stress axis : x y z
#
# Youngs Moduli (GPa) = 52.02696 61.12765 77.62926
#
# Poissons Ratio (x) = -0.10336 0.18822
# Poissons Ratio (y) = -0.08797 0.31729
# Poissons Ratio (z) = 0.12614 0.24984
#
# Static dielectric constant tensor:
#      x y z
#    x 1.802940 0.000000 -0.031170 
#    y 0.000000 1.921390 0.000000 
#    z -0.031170 0.000000 1.839700 
# 
# From -- ./inp_files/280975.got.cif
#   From: 2010.05.17/outbox.cif.g08.bks.cpg/sg15_141_cif.got.tgz:280975.got - 2010.06.03 18:47:42.
