data_PCOD9299819
_publ_section_title
;
Structure prediction by ZEFSAII (Michael W. Deem and Ramdas Pophale) SiO2 
 PCOD9299819
Probable space group: C 2/C
;
_chemical_formula_sum "Si O2"
_cell_formula_units_Z 24
_cell_length_a 7.996237
_cell_length_b 4.994646
_cell_length_c 22.289290
_cell_angle_alpha 90.000000
_cell_angle_beta 68.799830
_cell_angle_gamma 90.000000
_cell_volume 829.951811
_symmetry_space_group_name_H-M "C 2/C"
_symmetry_group_IT_number 15
_symmetry_cell_setting 'monoclinic'
loop_
_space_group_symop_operation_xyz
x,y,z
-x,y,1/2-z
-x,-y,-z
x,-y,1/2+z
1/2+x,1/2+y,z
1/2-x,1/2+y,1/2-z
1/2-x,1/2-y,-z
1/2+x,1/2-y,1/2+z
loop_
_atom_site_type_symbol
_atom_site_label
_atom_site_fract_x
_atom_site_fract_y
_atom_site_fract_z
Si Si1 0.804123 0.569560 0.547955
Si Si2 0.018111 0.350320 0.125231
Si Si3 0.744679 0.225094 0.294011
O O1 0.750000 0.750000 0.500000
O O2 0.676411 0.313551 0.571405
O O3 0.000000 0.500000 0.500000
O O4 0.843317 0.727680 0.606158
O O5 0.942096 0.656647 0.145588
O O6 0.093498 0.282320 0.181540
O O7 0.778678 0.965434 0.249033
#
# Coordination Sequence:
#
# PCOD9299819 Si02
#       3
#     8   8   8
#     4  11  24  46  74 108 148 194 247 309 374 446
#     4  10  25  46  75 110 149 197 250 309 376 448
#     4  11  26  48  75 110 152 201 253 312 377 452
#
# _framework density 28.917342000000001
#
# number of rings (size 3 to 8) (size 9 to 14) (size 15 to 20)
#    0.000    1.333    0.000    3.000    0.000   16.000 
#    0.000    0.000    0.000    0.000    0.000    0.000 
#    0.000    0.000    0.000    0.000    0.000    0.000 
#
# Total GULP energy -66939.521521 kJ/mol
# GULP energy per Si atom -5578.293460 kJ/mol
# Density = 2.885152 g / cm^3
# Si number density = 28.917342 Si / 1000 Ang^3
#
#
#
# Elastic Constant Matrix: (Units=GPa)
#
#
# Indices 1 2 3 4 5 6 
#
# 1 259.9795 81.4804 72.5235 0.0000 39.0852 0.0000
# 2 81.4804 156.3435 42.2680 0.0000 11.6947 0.0000
# 3 72.5235 42.2680 123.7949 0.0000 54.7026 0.0000
# 4 0.0000 0.0000 0.0000 46.8933 0.0000 -2.2798
# 5 39.0852 11.6947 54.7026 0.0000 86.7538 0.0000
# 6 0.0000 0.0000 0.0000 -2.2798 0.0000 84.6152
#
#
#
# Elastic Compliance Matrix: (Units=1/GPa)
#
#
# Indices 1 2 3 4 5 6 
#
# 1 0.005174 -0.002108 -0.001950 0.000000 -0.000817 0.000000
# 2 -0.002108 0.007944 -0.001974 0.000000 0.001124 0.000000
# 3 -0.001950 -0.001974 0.013015 0.000000 -0.007062 0.000000
# 4 0.000000 0.000000 0.000000 0.021353 0.000000 0.000575
# 5 -0.000817 0.001124 -0.007062 0.000000 0.016196 0.000000
# 6 0.000000 0.000000 0.000000 0.000575 0.000000 0.011834
#
#
# Mechanical properties :
#
#
# Convention : Reuss Voigt Hill
#
# Bulk Modulus (GPa) = 71.08010 103.62908 87.35459
# Shear Modulus (GPa) = 54.18830 66.57552 60.38191
#
# Velocity S-wave (km/s) = 4.33356 4.80340 4.57452
# Velocity P-wave (km/s) = 7.04794 8.16564 7.62729
#
# Compressibility (1/GPa) = 0.01406864
#
# Stress axis : x y z
#
# Youngs Moduli (GPa) = 193.27155 125.87348 76.83513
#
# Poissons Ratio (x) = 0.26536 0.14985
# Poissons Ratio (y) = 0.40744 0.15167
# Poissons Ratio (z) = 0.37693 0.24847
#
# Static dielectric constant tensor:
#      x y z
#    x 2.161990 0.000000 -0.153390 
#    y 0.000000 2.269190 0.000000 
#    z -0.153390 0.000000 2.714080 
# 
# From -- ./inp_files/259591.got.cif
#   From: 2010.05.17/outbox.cif.g08.bks.cpg/sg15_130_cif.got.tgz:259591.got - 2010.06.03 18:47:42.
