data_PCOD9299502
_publ_section_title
;
Structure prediction by ZEFSAII (Michael W. Deem and Ramdas Pophale) SiO2 
 PCOD9299502
Probable space group: C 2/C
;
_chemical_formula_sum "Si O2"
_cell_formula_units_Z 40
_cell_length_a 19.195464
_cell_length_b 20.846523
_cell_length_c 8.428368
_cell_angle_alpha 90.000000
_cell_angle_beta 35.636260
_cell_angle_gamma 90.000000
_cell_volume 1965.052303
_symmetry_space_group_name_H-M "C 2/C"
_symmetry_group_IT_number 15
_symmetry_cell_setting 'monoclinic'
loop_
_space_group_symop_operation_xyz
x,y,z
-x,y,1/2-z
-x,-y,-z
x,-y,1/2+z
1/2+x,1/2+y,z
1/2-x,1/2+y,1/2-z
1/2-x,1/2-y,-z
1/2+x,1/2-y,1/2+z
loop_
_atom_site_type_symbol
_atom_site_label
_atom_site_fract_x
_atom_site_fract_y
_atom_site_fract_z
Si Si1 0.208599 0.677329 0.053590
Si Si2 0.138923 0.681133 0.527323
Si Si3 0.581588 0.589798 0.902480
Si Si4 0.869806 0.813032 0.777773
Si Si5 0.500000 0.524564 0.750000
Si Si6 0.000000 0.265968 0.750000
O O1 0.195375 0.656829 0.259377
O O2 0.086342 0.687459 0.187739
O O3 0.250000 0.750000 0.000000
O O4 0.304241 0.634248 0.787682
O O5 0.135892 0.757678 0.577037
O O6 0.236842 0.661500 0.480337
O O7 0.000000 0.664334 0.750000
O O8 0.571768 0.568210 0.738115
O O9 0.460775 0.630785 0.154471
O O10 0.582515 0.524250 0.998504
O O11 0.927653 0.777706 0.512884
#
# Coordination Sequence:
#
# PCOD9299502 Si02
#       6
#     8   8   8   8   4   4
#     4  12  22  36  61  91 134 160 199 260 329 377
#     4  11  21  34  51  91 134 167 189 238 329 389
#     4  11  23  43  64  92 121 166 215 269 299 368
#     4  11  22  33  59  88 133 159 204 251 310 390
#     4  10  25  42  66  92 114 173 224 254 308 342
#     4  12  21  34  54  96 126 165 192 238 346 390
#
# _framework density 20.355692999999999
#
# number of rings (size 3 to 8) (size 9 to 14) (size 15 to 20)
#    0.000    0.800    6.000    1.800    4.200    0.000 
#    0.000    0.000    0.000    1.200   10.400    0.000 
#    0.000    0.000    0.000    0.000    0.000    0.000 
#
# Total GULP energy -111549.002360 kJ/mol
# GULP energy per Si atom -5577.450118 kJ/mol
# Density = 2.030936 g / cm^3
# Si number density = 20.355693 Si / 1000 Ang^3
#
#
#
# Elastic Constant Matrix: (Units=GPa)
#
#
# Indices 1 2 3 4 5 6 
#
# 1 111.6453 18.5586 28.9562 0.0000 -22.4796 0.0000
# 2 18.5586 48.5721 16.6798 0.0000 -10.5887 0.0000
# 3 28.9562 16.6798 66.7502 0.0000 -20.0735 0.0000
# 4 0.0000 0.0000 0.0000 21.9436 0.0000 2.5710
# 5 -22.4796 -10.5887 -20.0735 0.0000 42.5866 0.0000
# 6 0.0000 0.0000 0.0000 2.5710 0.0000 22.8348
#
#
#
# Elastic Compliance Matrix: (Units=1/GPa)
#
#
# Indices 1 2 3 4 5 6 
#
# 1 0.010876 -0.002303 -0.003016 0.000000 0.003747 0.000000
# 2 -0.002303 0.023448 -0.004046 0.000000 0.002707 0.000000
# 3 -0.003016 -0.004046 0.019248 0.000000 0.006475 0.000000
# 4 0.000000 0.000000 0.000000 0.046181 0.000000 -0.005200
# 5 0.003747 0.002707 0.006475 0.000000 0.029184 0.000000
# 6 0.000000 0.000000 0.000000 -0.005200 0.000000 0.044378
#
#
# Mechanical properties :
#
#
# Convention : Reuss Voigt Hill
#
# Bulk Modulus (GPa) = 28.70134 39.48407 34.09270
# Shear Modulus (GPa) = 24.55089 28.32453 26.43771
#
# Velocity S-wave (km/s) = 3.47665 3.73430 3.60778
# Velocity P-wave (km/s) = 5.49970 6.16705 5.84291
#
# Compressibility (1/GPa) = 0.03484158
#
# Stress axis : x y z
#
# Youngs Moduli (GPa) = 91.94190 42.64846 51.95459
#
# Poissons Ratio (x) = 0.09823 0.15669
# Poissons Ratio (y) = 0.21176 0.21020
# Poissons Ratio (z) = 0.27728 0.17255
#
# Static dielectric constant tensor:
#      x y z
#    x 1.709520 0.000000 0.046970 
#    y 0.000000 1.700540 0.000000 
#    z 0.046970 0.000000 1.841540 
# 
# From -- ./inp_files/29171.got.cif
#   From: 2010.05.17/outbox.cif.g08.bks.cpg/sg15_15_cif.got.tgz:29171.got - 2010.06.03 18:47:42.
