data_PCOD9299493
_publ_section_title
;
Structure prediction by ZEFSAII (Michael W. Deem and Ramdas Pophale) SiO2 
 PCOD9299493
Probable space group: C 2/C
;
_chemical_formula_sum "Si O2"
_cell_formula_units_Z 56
_cell_length_a 5.937951
_cell_length_b 28.081366
_cell_length_c 15.222303
_cell_angle_alpha 90.000000
_cell_angle_beta 92.763065
_cell_angle_gamma 90.000000
_cell_volume 2535.303792
_symmetry_space_group_name_H-M "C 2/C"
_symmetry_group_IT_number 15
_symmetry_cell_setting 'monoclinic'
loop_
_space_group_symop_operation_xyz
x,y,z
-x,y,1/2-z
-x,-y,-z
x,-y,1/2+z
1/2+x,1/2+y,z
1/2-x,1/2+y,1/2-z
1/2-x,1/2-y,-z
1/2+x,1/2-y,1/2+z
loop_
_atom_site_type_symbol
_atom_site_label
_atom_site_fract_x
_atom_site_fract_y
_atom_site_fract_z
Si Si1 0.834107 0.818390 0.325316
Si Si2 0.494820 0.535990 0.146625
Si Si3 0.303928 0.305110 0.014932
Si Si4 0.124467 0.135283 0.414761
Si Si5 0.248861 0.289084 0.708760
Si Si6 0.710020 0.033913 0.518285
Si Si7 0.952667 0.623365 0.574757
O O1 0.723529 0.767119 0.306824
O O2 0.666440 0.862027 0.337819
O O3 0.000000 0.829704 0.250000
O O4 0.990134 0.809540 0.413208
O O5 0.500000 0.521441 0.250000
O O6 0.391109 0.589268 0.146912
O O7 0.369089 0.495187 0.087905
O O8 0.698648 0.544508 0.079006
O O9 0.084787 0.329190 0.050637
O O10 0.250000 0.250000 0.000000
O O11 0.392152 0.337766 0.936045
O O12 0.272448 0.177361 0.376268
O O13 0.249430 0.114508 0.502771
O O14 0.500000 0.304303 0.750000
O O15 0.000000 0.293412 0.750000
O O16 0.627888 0.081170 0.566312
O O17 0.500000 0.000000 0.500000
#
# Coordination Sequence:
#
# PCOD9299493 Si02
#       7
#     8   8   8   8   8   8   8
#     4  10  25  42  64 100 144 193 244 303 359 447
#     4  11  25  46  76 110 145 185 247 313 389 460
#     4  11  23  40  68 101 141 187 239 293 366 446
#     4  11  23  41  68 106 138 188 242 305 371 452
#     4  11  26  42  67 104 151 199 242 311 374 442
#     4  11  24  49  76 100 148 187 240 315 377 457
#     4  11  23  42  73  99 135 195 238 298 378 444
#
# _framework density 22.088083999999998
#
# number of rings (size 3 to 8) (size 9 to 14) (size 15 to 20)
#    0.000    1.143    2.857    2.143   10.000    4.000 
#    0.000    4.286    0.000    0.000    0.000    0.000 
#    0.000    0.000    0.000    0.000    0.000    0.000 
#
# Total GULP energy -156084.459786 kJ/mol
# GULP energy per Si atom -5574.444992 kJ/mol
# Density = 2.203781 g / cm^3
# Si number density = 22.088084 Si / 1000 Ang^3
#
#
#
# Elastic Constant Matrix: (Units=GPa)
#
#
# Indices 1 2 3 4 5 6 
#
# 1 55.0651 36.7181 31.2601 0.0000 -1.5165 0.0000
# 2 36.7181 112.7588 40.4532 0.0000 -31.3183 0.0000
# 3 31.2601 40.4532 105.4122 0.0000 -19.7903 0.0000
# 4 0.0000 0.0000 0.0000 31.7189 0.0000 -9.2681
# 5 -1.5165 -31.3183 -19.7903 0.0000 29.4607 0.0000
# 6 0.0000 0.0000 0.0000 -9.2681 0.0000 23.6414
#
#
#
# Elastic Compliance Matrix: (Units=1/GPa)
#
#
# Indices 1 2 3 4 5 6 
#
# 1 0.029320 -0.011177 -0.007270 0.000000 -0.015256 0.000000
# 2 -0.011177 0.017528 -0.000025 0.000000 0.018041 0.000000
# 3 -0.007270 -0.000025 0.013248 0.000000 0.008498 0.000000
# 4 0.000000 0.000000 0.000000 0.035606 0.000000 0.013958
# 5 -0.015256 0.018041 0.008498 0.000000 0.058045 0.000000
# 6 0.000000 0.000000 0.000000 0.013958 0.000000 0.047771
#
#
# Mechanical properties :
#
#
# Convention : Reuss Voigt Hill
#
# Bulk Modulus (GPa) = 43.19239 54.45543 48.82391
# Shear Modulus (GPa) = 20.31055 27.95117 24.13086
#
# Velocity S-wave (km/s) = 3.03566 3.56116 3.30886
# Velocity P-wave (km/s) = 5.64659 6.45108 6.06220
#
# Compressibility (1/GPa) = 0.02315222
#
# Stress axis : x y z
#
# Youngs Moduli (GPa) = 34.10644 57.05240 75.48583
#
# Poissons Ratio (x) = 0.63766 0.54877
# Poissons Ratio (y) = 0.38120 0.00189
# Poissons Ratio (z) = 0.24795 0.00143
#
# Static dielectric constant tensor:
#      x y z
#    x 1.855120 0.000000 0.004720 
#    y 0.000000 1.773310 0.000000 
#    z 0.004720 0.000000 1.886590 
# 
# From -- ./inp_files/130775.got.cif
#   From: 2010.05.17/outbox.cif.g08.bks.cpg/sg15_66_cif.got.tgz:130775.got - 2010.06.03 18:47:42.
