data_PCOD9299975
_publ_section_title
;
Structure prediction by ZEFSAII (Michael W. Deem and Ramdas Pophale) SiO2 
 PCOD9299975
Probable space group: C 2/C
;
_chemical_formula_sum "Si O2"
_cell_formula_units_Z 60
_cell_length_a 10.482101
_cell_length_b 10.011330
_cell_length_c 23.313708
_cell_angle_alpha 90.000000
_cell_angle_beta 97.101470
_cell_angle_gamma 90.000000
_cell_volume 2427.767264
_symmetry_space_group_name_H-M "C 2/C"
_symmetry_group_IT_number 15
_symmetry_cell_setting 'monoclinic'
loop_
_space_group_symop_operation_xyz
x,y,z
-x,y,1/2-z
-x,-y,-z
x,-y,1/2+z
1/2+x,1/2+y,z
1/2-x,1/2+y,1/2-z
1/2-x,1/2-y,-z
1/2+x,1/2-y,1/2+z
loop_
_atom_site_type_symbol
_atom_site_label
_atom_site_fract_x
_atom_site_fract_y
_atom_site_fract_z
Si Si1 0.000000 0.577111 0.750000
Si Si2 0.087572 0.891252 0.037765
Si Si3 0.432683 0.683779 0.837663
Si Si4 0.858574 0.961210 0.741580
Si Si5 0.603191 0.807869 0.142745
Si Si6 0.669042 0.853916 0.811750
Si Si7 0.773178 0.565815 0.379570
Si Si8 0.857841 0.728865 0.558364
O O1 0.086770 0.489509 0.799348
O O2 0.093033 0.647321 0.708963
O O3 0.038477 0.888294 0.100357
O O4 0.246297 0.884245 0.054092
O O5 0.073005 0.755358 0.998555
O O6 0.000000 0.000000 0.000000
O O7 0.558591 0.746692 0.815692
O O8 0.369141 0.582076 0.788394
O O9 0.349453 0.809394 0.855993
O O10 0.746686 0.865338 0.757081
O O11 0.825917 0.986279 0.674041
O O12 0.000000 0.899680 0.750000
O O13 0.710493 0.691332 0.141547
O O14 0.461417 0.774708 0.114211
O O15 0.640247 0.936843 0.107220
O O16 0.710268 0.628710 0.431732
#
# Coordination Sequence:
#
# PCOD9299975 Si02
#       8
#     4   8   8   8   8   8   8   8
#     4  12  28  42  64 108 150 192 234 292 362 446
#     4  10  25  50  81 100 138 195 247 309 367 418
#     4  11  27  48  72 102 150 190 239 301 358 430
#     4  12  27  41  70 106 145 195 230 283 365 445
#     4  12  27  41  73 102 145 195 237 295 361 439
#     4  12  27  44  65 103 150 187 239 288 360 435
#     4  11  25  44  69 106 148 185 230 299 361 429
#     4  10  26  51  71 106 142 183 251 303 360 431
#
# _framework density 24.714065999999999
#
# number of rings (size 3 to 8) (size 9 to 14) (size 15 to 20)
#    0.000    0.800    2.667    1.600   18.667    0.000 
#    0.000    8.000    0.000    0.000    0.000    0.000 
#    0.000    0.000    0.000    0.000    0.000    0.000 
#
# Total GULP energy -167239.177956 kJ/mol
# GULP energy per Si atom -5574.639265 kJ/mol
# Density = 2.465782 g / cm^3
# Si number density = 24.714066 Si / 1000 Ang^3
#
#
#
# Elastic Constant Matrix: (Units=GPa)
#
#
# Indices 1 2 3 4 5 6 
#
# 1 113.1551 30.7465 29.2288 0.0000 0.3723 0.0000
# 2 30.7465 74.3321 26.6097 0.0000 -1.4498 0.0000
# 3 29.2288 26.6097 103.5337 0.0000 -7.5179 0.0000
# 4 0.0000 0.0000 0.0000 17.3826 0.0000 -4.1927
# 5 0.3723 -1.4498 -7.5179 0.0000 30.9918 0.0000
# 6 0.0000 0.0000 0.0000 -4.1927 0.0000 43.3018
#
#
#
# Elastic Compliance Matrix: (Units=1/GPa)
#
#
# Indices 1 2 3 4 5 6 
#
# 1 0.010338 -0.003553 -0.002063 0.000000 -0.000791 0.000000
# 2 -0.003553 0.016039 -0.003117 0.000000 0.000037 0.000000
# 3 -0.002063 -0.003117 0.011231 0.000000 0.002603 0.000000
# 4 0.000000 0.000000 0.000000 0.058904 0.000000 0.005703
# 5 -0.000791 0.000037 0.002603 0.000000 0.032909 0.000000
# 6 0.000000 0.000000 0.000000 0.005703 0.000000 0.023646
#
#
# Mechanical properties :
#
#
# Convention : Reuss Voigt Hill
#
# Bulk Modulus (GPa) = 49.64383 51.57678 50.61030
# Shear Modulus (GPa) = 28.20901 31.96430 30.08665
#
# Velocity S-wave (km/s) = 3.38215 3.60024 3.49290
# Velocity P-wave (km/s) = 5.94834 6.18037 6.06547
#
# Compressibility (1/GPa) = 0.02014349
#
# Stress axis : x y z
#
# Youngs Moduli (GPa) = 96.72701 62.34683 89.03866
#
# Poissons Ratio (x) = 0.22154 0.18367
# Poissons Ratio (y) = 0.34370 0.27749
# Poissons Ratio (z) = 0.19953 0.19430
#
# Static dielectric constant tensor:
#      x y z
#    x 2.003480 0.000000 0.028700 
#    y 0.000000 2.066290 0.000000 
#    z 0.028700 0.000000 1.988640 
# 
# From -- ./inp_files/264371.got.cif
#   From: 2010.05.17/outbox.cif.g08.bks.cpg/sg15_133_cif.got.tgz:264371.got - 2010.06.03 18:47:42.
