data_PCOD9299941
_publ_section_title
;
Structure prediction by ZEFSAII (Michael W. Deem and Ramdas Pophale) SiO2 
 PCOD9299941
Probable space group: C 2/C
;
_chemical_formula_sum "Si O2"
_cell_formula_units_Z 56
_cell_length_a 10.592337
_cell_length_b 9.096534
_cell_length_c 25.253376
_cell_angle_alpha 90.000000
_cell_angle_beta 72.036408
_cell_angle_gamma 90.000000
_cell_volume 2314.637995
_symmetry_space_group_name_H-M "C 2/C"
_symmetry_group_IT_number 15
_symmetry_cell_setting 'monoclinic'
loop_
_space_group_symop_operation_xyz
x,y,z
-x,y,1/2-z
-x,-y,-z
x,-y,1/2+z
1/2+x,1/2+y,z
1/2-x,1/2+y,1/2-z
1/2-x,1/2-y,-z
1/2+x,1/2-y,1/2+z
loop_
_atom_site_type_symbol
_atom_site_label
_atom_site_fract_x
_atom_site_fract_y
_atom_site_fract_z
Si Si1 0.500000 0.931289 0.250000
Si Si2 0.566909 0.923331 0.940575
Si Si3 0.476101 0.849861 0.134808
Si Si4 0.207624 0.894253 0.306310
Si Si5 0.181298 0.134326 0.144923
Si Si6 0.500000 0.459328 0.250000
Si Si7 0.145044 0.141660 0.985722
Si Si8 0.109065 0.914769 0.912954
O O1 0.449524 0.858741 0.200994
O O2 0.350624 0.981013 0.286109
O O3 0.721747 0.954234 0.905947
O O4 0.568822 0.750708 0.954008
O O5 0.504464 0.994532 0.896008
O O6 0.500000 0.000000 0.000000
O O7 0.610331 0.757153 0.119068
O O8 0.375989 0.749658 0.112802
O O9 0.235069 0.730811 0.324008
O O10 0.120919 0.881443 0.264607
O O11 0.123562 0.982458 0.360332
O O12 0.075800 0.050755 0.194625
O O13 0.193847 0.997178 0.947690
O O14 0.250000 0.250000 0.000000
O O15 0.035484 0.088394 0.041512
#
# Coordination Sequence:
#
# PCOD9299941 Si02
#       8
#     4   8   8   8   8   4   8   8
#     4  10  25  48  79 110 163 212 259 326 409 464
#     4  12  25  42  77 110 148 199 254 320 392 469
#     4  11  23  46  77 107 148 205 258 316 391 469
#     4  11  24  43  78 113 143 209 259 321 388 468
#     4  11  24  46  75 105 153 206 254 319 398 460
#     4  12  25  46  83 106 153 208 267 322 389 462
#     4  11  25  47  75 106 152 203 247 323 401 462
#     4  11  23  42  79 109 143 199 264 309 390 477
#
# _framework density 24.193847999999999
#
# number of rings (size 3 to 8) (size 9 to 14) (size 15 to 20)
#    0.000    0.857    4.286    3.429    2.000    0.000 
#    0.000    5.000   28.286    0.000    0.000    0.000 
#    0.000    0.000    0.000    0.000    0.000    0.000 
#
# Total GULP energy -155881.379879 kJ/mol
# GULP energy per Si atom -5567.192139 kJ/mol
# Density = 2.413878 g / cm^3
# Si number density = 24.193848 Si / 1000 Ang^3
#
#
#
# Elastic Constant Matrix: (Units=GPa)
#
#
# Indices 1 2 3 4 5 6 
#
# 1 108.0080 52.5646 45.9143 0.0000 4.9862 0.0000
# 2 52.5646 76.6860 40.1038 0.0000 3.4642 0.0000
# 3 45.9143 40.1038 155.5280 0.0000 -13.4757 0.0000
# 4 0.0000 0.0000 0.0000 28.9759 0.0000 5.1231
# 5 4.9862 3.4642 -13.4757 0.0000 39.6792 0.0000
# 6 0.0000 0.0000 0.0000 5.1231 0.0000 47.5556
#
#
#
# Elastic Compliance Matrix: (Units=1/GPa)
#
#
# Indices 1 2 3 4 5 6 
#
# 1 0.014520 -0.008724 -0.002194 0.000000 -0.001808 0.000000
# 2 -0.008724 0.020604 -0.002883 0.000000 -0.001682 0.000000
# 3 -0.002194 -0.002883 0.008105 0.000000 0.003280 0.000000
# 4 0.000000 0.000000 0.000000 0.035182 0.000000 -0.003790
# 5 -0.001808 -0.001682 0.003280 0.000000 0.026690 0.000000
# 6 0.000000 0.000000 0.000000 -0.003790 0.000000 0.021436
#
#
# Mechanical properties :
#
#
# Convention : Reuss Voigt Hill
#
# Bulk Modulus (GPa) = 63.99024 68.59859 66.29442
# Shear Modulus (GPa) = 31.37786 36.68476 34.03131
#
# Velocity S-wave (km/s) = 3.60521 3.89817 3.75455
# Velocity P-wave (km/s) = 6.62091 6.97684 6.80120
#
# Compressibility (1/GPa) = 0.01562738
#
# Stress axis : x y z
#
# Youngs Moduli (GPa) = 68.86861 48.53466 123.38158
#
# Poissons Ratio (x) = 0.42342 0.27067
# Poissons Ratio (y) = 0.60082 0.35571
# Poissons Ratio (z) = 0.15108 0.13993
#
# Static dielectric constant tensor:
#      x y z
#    x 2.090830 0.000000 0.039350 
#    y 0.000000 1.971750 0.000000 
#    z 0.039350 0.000000 2.011810 
# 
# From -- ./inp_files/291562.got.cif
#   From: 2010.05.17/outbox.cif.g08.bks.cpg/sg15_146_cif.got.tgz:291562.got - 2010.06.03 18:47:42.
