data_PCOD9299251
_publ_section_title
;
Structure prediction by ZEFSAII (Michael W. Deem and Ramdas Pophale) SiO2 
 PCOD9299251
Probable space group: C 2/C
;
_chemical_formula_sum "Si O2"
_cell_formula_units_Z 32
_cell_length_a 15.313516
_cell_length_b 5.142038
_cell_length_c 14.141909
_cell_angle_alpha 90.000000
_cell_angle_beta 98.625196
_cell_angle_gamma 90.000000
_cell_volume 1100.977921
_symmetry_space_group_name_H-M "C 2/C"
_symmetry_group_IT_number 15
_symmetry_cell_setting 'monoclinic'
loop_
_space_group_symop_operation_xyz
x,y,z
-x,y,1/2-z
-x,-y,-z
x,-y,1/2+z
1/2+x,1/2+y,z
1/2-x,1/2+y,1/2-z
1/2-x,1/2-y,-z
1/2+x,1/2-y,1/2+z
loop_
_atom_site_type_symbol
_atom_site_label
_atom_site_fract_x
_atom_site_fract_y
_atom_site_fract_z
Si Si1 0.611911 0.675160 0.766207
Si Si2 0.391296 0.391615 0.556973
Si Si3 0.075085 0.333584 0.140789
Si Si4 0.788454 0.278994 0.876602
O O1 0.603644 0.647988 0.876563
O O2 0.585567 0.396529 0.718774
O O3 0.708092 0.717082 0.734243
O O4 0.564319 0.903595 0.701653
O O5 0.485016 0.245194 0.572068
O O6 0.308648 0.253235 0.597155
O O7 0.354228 0.412593 0.445316
O O8 0.161340 0.444705 0.098329
#
# Coordination Sequence:
#
# PCOD9299251 Si02
#       4
#     8   8   8   8
#     4  10  25  46  70 105 149 189 250 310 369 450
#     4  11  22  48  78 108 148 206 246 312 389 446
#     4  10  24  48  69 108 146 192 247 311 368 449
#     4   9  25  47  73 114 148 197 254 315 374 456
#
# _framework density 29.065072000000001
#
# number of rings (size 3 to 8) (size 9 to 14) (size 15 to 20)
#    1.500    0.500    0.000    1.500    3.500    5.000 
#    9.000    2.500    0.000    0.000    0.000    0.000 
#    0.000    0.000    0.000    0.000    0.000    0.000 
#
# Total GULP energy -89305.561738 kJ/mol
# GULP energy per Si atom -5581.597609 kJ/mol
# Density = 2.899892 g / cm^3
# Si number density = 29.065072 Si / 1000 Ang^3
#
#
#
# Elastic Constant Matrix: (Units=GPa)
#
#
# Indices 1 2 3 4 5 6 
#
# 1 146.0870 4.3183 20.5064 0.0000 7.8074 0.0000
# 2 4.3183 173.8653 20.2326 0.0000 19.2259 0.0000
# 3 20.5064 20.2326 104.1990 0.0000 15.1720 0.0000
# 4 0.0000 0.0000 0.0000 22.9181 0.0000 23.6102
# 5 7.8074 19.2259 15.1720 0.0000 63.3396 0.0000
# 6 0.0000 0.0000 0.0000 23.6102 0.0000 11.4969
#
#
#
# Elastic Compliance Matrix: (Units=1/GPa)
#
#
# Indices 1 2 3 4 5 6 
#
# 1 0.007059 0.000040 -0.001314 0.000000 -0.000568 0.000000
# 2 0.000040 0.006039 -0.000946 0.000000 -0.001611 0.000000
# 3 -0.001314 -0.000946 0.010334 0.000000 -0.002026 0.000000
# 4 0.000000 0.000000 0.000000 -0.039111 0.000000 0.080319
# 5 -0.000568 -0.001611 -0.002026 0.000000 0.016832 0.000000
# 6 0.000000 0.000000 0.000000 0.080319 0.000000 -0.077964
#
#
# Mechanical properties :
#
#
# Convention : Reuss Voigt Hill
#
# Bulk Modulus (GPa) = 52.65289 57.14066 54.89678
# Shear Modulus (GPa) = -75.71179 44.82385 -15.44397
#
# Velocity S-wave (km/s) = -5.10937 3.93133 -2.30762
# Velocity P-wave (km/s) = 4.08076 6.34897 3.43924
#
# Compressibility (1/GPa) = 0.01899231
#
# Stress axis : x y z
#
# Youngs Moduli (GPa) = 141.66559 165.59478 96.76418
#
# Poissons Ratio (x) = -0.00669 0.12719
# Poissons Ratio (y) = -0.00572 0.09153
# Poissons Ratio (z) = 0.18621 0.15663
#
# Static dielectric constant tensor:
#      x y z
#    x 2.453610 0.000000 0.031910 
#    y 0.000000 2.273570 0.000000 
#    z 0.031910 0.000000 2.330820 
# 
# From -- ./inp_files/207896.got.cif
#   From: 2010.05.17/outbox.cif.g08.bks.cpg/sg15_104_cif.got.tgz:207896.got - 2010.06.03 18:47:42.
