data_PCOD9299113
_publ_section_title
;
Structure prediction by ZEFSAII (Michael W. Deem and Ramdas Pophale) SiO2 
 PCOD9299113
Probable space group: C 2/C
;
_chemical_formula_sum "Si O2"
_cell_formula_units_Z 40
_cell_length_a 10.799293
_cell_length_b 21.629600
_cell_length_c 8.205661
_cell_angle_alpha 90.000000
_cell_angle_beta 63.242989
_cell_angle_gamma 90.000000
_cell_volume 1711.479934
_symmetry_space_group_name_H-M "C 2/C"
_symmetry_group_IT_number 15
_symmetry_cell_setting 'monoclinic'
loop_
_space_group_symop_operation_xyz
x,y,z
-x,y,1/2-z
-x,-y,-z
x,-y,1/2+z
1/2+x,1/2+y,z
1/2-x,1/2+y,1/2-z
1/2-x,1/2-y,-z
1/2+x,1/2-y,1/2+z
loop_
_atom_site_type_symbol
_atom_site_label
_atom_site_fract_x
_atom_site_fract_y
_atom_site_fract_z
Si Si1 0.000000 0.396691 0.250000
Si Si2 0.500000 0.769000 0.750000
Si Si3 0.834575 0.056508 0.041527
Si Si4 0.709019 0.429662 0.556239
Si Si5 0.160437 0.641491 0.956125
Si Si6 0.070444 0.159548 0.918939
O O1 0.858661 0.431520 0.380659
O O2 0.961093 0.360990 0.105874
O O3 0.625164 0.814689 0.628824
O O4 0.509692 0.725836 0.905431
O O5 0.786143 0.061643 0.255447
O O6 0.705609 0.075645 0.002575
O O7 0.955368 0.107451 0.948067
O O8 0.875236 0.987378 0.968059
O O9 0.634647 0.365091 0.550725
O O10 0.295551 0.660695 0.776605
#
# Coordination Sequence:
#
# PCOD9299113 Si02
#       6
#     4   4   8   8   8   8
#     4  10  24  47  66 104 139 180 234 282 338 418
#     4  12  24  45  74  98 141 184 230 288 336 410
#     4  12  24  43  72 102 140 182 226 290 343 413
#     4  11  25  43  72 104 143 179 230 280 351 409
#     4  11  24  45  69 100 137 183 232 281 343 402
#     4  11  24  43  68 101 138 179 227 282 341 407
#
# _framework density 23.371587999999999
#
# number of rings (size 3 to 8) (size 9 to 14) (size 15 to 20)
#    0.000    0.800    2.000    5.400    0.000    5.600 
#    3.600    3.000    0.000    0.000    0.000    0.000 
#    0.000    0.000    0.000    0.000    0.000    0.000 
#
# Total GULP energy -111641.114271 kJ/mol
# GULP energy per Si atom -5582.055714 kJ/mol
# Density = 2.331839 g / cm^3
# Si number density = 23.371588 Si / 1000 Ang^3
#
#
#
# Elastic Constant Matrix: (Units=GPa)
#
#
# Indices 1 2 3 4 5 6 
#
# 1 86.3551 10.9801 8.0438 0.0000 6.6596 0.0000
# 2 10.9801 83.3960 15.7965 0.0000 -9.7237 0.0000
# 3 8.0438 15.7965 104.0113 0.0000 -6.5089 0.0000
# 4 0.0000 0.0000 0.0000 7.8445 0.0000 8.6575
# 5 6.6596 -9.7237 -6.5089 0.0000 45.6824 0.0000
# 6 0.0000 0.0000 0.0000 8.6575 0.0000 20.8857
#
#
#
# Elastic Compliance Matrix: (Units=1/GPa)
#
#
# Indices 1 2 3 4 5 6 
#
# 1 0.012043 -0.001692 -0.000814 0.000000 -0.002232 0.000000
# 2 -0.001692 0.012846 -0.001648 0.000000 0.002746 0.000000
# 3 -0.000814 -0.001648 0.010002 0.000000 0.001193 0.000000
# 4 0.000000 0.000000 0.000000 0.234972 0.000000 -0.097401
# 5 -0.002232 0.002746 0.001193 0.000000 0.022970 0.000000
# 6 0.000000 0.000000 0.000000 -0.097401 0.000000 0.088254
#
#
# Mechanical properties :
#
#
# Convention : Reuss Voigt Hill
#
# Bulk Modulus (GPa) = 37.61741 38.15590 37.88665
# Shear Modulus (GPa) = 12.55469 30.81202 21.68336
#
# Velocity S-wave (km/s) = 2.32022 3.63485 3.04923
# Velocity P-wave (km/s) = 4.82786 5.82901 5.35190
#
# Compressibility (1/GPa) = 0.02658344
#
# Stress axis : x y z
#
# Youngs Moduli (GPa) = 83.03498 77.84467 99.97714
#
# Poissons Ratio (x) = 0.13168 0.08139
# Poissons Ratio (y) = 0.14046 0.16479
# Poissons Ratio (z) = 0.06760 0.12831
#
# Static dielectric constant tensor:
#      x y z
#    x 1.986790 0.000000 0.032620 
#    y 0.000000 1.886680 0.000000 
#    z 0.032620 0.000000 1.839220 
# 
# From -- ./inp_files/31800.got.cif
#   From: 2010.05.17/outbox.cif.g08.bks.cpg/sg15_16_cif.got.tgz:31800.got - 2010.06.03 18:47:42.
