data_PCOD9299789
_publ_section_title
;
Structure prediction by ZEFSAII (Michael W. Deem and Ramdas Pophale) SiO2 
 PCOD9299789
Probable space group: C 2/C
;
_chemical_formula_sum "Si O2"
_cell_formula_units_Z 48
_cell_length_a 20.995450
_cell_length_b 19.047669
_cell_length_c 7.873546
_cell_angle_alpha 90.000000
_cell_angle_beta 140.857977
_cell_angle_gamma 90.000000
_cell_volume 1987.628522
_symmetry_space_group_name_H-M "C 2/C"
_symmetry_group_IT_number 15
_symmetry_cell_setting 'monoclinic'
loop_
_space_group_symop_operation_xyz
x,y,z
-x,y,1/2-z
-x,-y,-z
x,-y,1/2+z
1/2+x,1/2+y,z
1/2-x,1/2+y,1/2-z
1/2-x,1/2-y,-z
1/2+x,1/2-y,1/2+z
loop_
_atom_site_type_symbol
_atom_site_label
_atom_site_fract_x
_atom_site_fract_y
_atom_site_fract_z
Si Si1 0.544988 0.320456 0.681112
Si Si2 0.731524 0.912493 0.824803
Si Si3 0.740272 0.872319 0.236041
Si Si4 0.580602 0.029066 0.532216
Si Si5 0.558803 0.437962 0.206589
Si Si6 0.186558 0.774462 0.704077
O O1 0.500000 0.278171 0.750000
O O2 0.453998 0.372678 0.445137
O O3 0.579940 0.286138 0.577228
O O4 0.647118 0.361158 0.953889
O O5 0.634559 0.957705 0.572278
O O6 0.762619 0.840726 0.789176
O O7 0.730730 0.905944 0.028980
O O8 0.831201 0.959424 0.006074
O O9 0.693318 0.794953 0.106658
O O10 0.673626 0.916648 0.234338
O O11 0.500000 0.000000 0.500000
O O12 0.500000 0.069415 0.250000
O O13 0.500000 0.416284 0.250000
O O14 0.500000 0.500000 0.000000
O O15 0.250000 0.750000 0.000000
#
# Coordination Sequence:
#
# PCOD9299789 Si02
#       6
#     8   8   8   8   8   8
#     4  11  22  44  68 107 144 183 235 296 375 445
#     4  12  25  47  75 103 149 189 242 312 367 443
#     4  11  25  48  72 105 148 191 248 305 367 441
#     4  12  28  49  72 107 142 196 254 306 364 434
#     4  12  25  40  69 110 141 182 227 291 380 451
#     4  10  25  46  71 104 146 189 243 304 366 431
#
# _framework density 24.149381999999999
#
# number of rings (size 3 to 8) (size 9 to 14) (size 15 to 20)
#    0.000    0.667    5.000    2.000    7.000    0.000 
#    9.000    0.000    0.000    0.000    0.000    0.000 
#    0.000    0.000    0.000    0.000    0.000    0.000 
#
# Total GULP energy -133627.125721 kJ/mol
# GULP energy per Si atom -5567.796905 kJ/mol
# Density = 2.409442 g / cm^3
# Si number density = 24.149382 Si / 1000 Ang^3
#
#
#
# Elastic Constant Matrix: (Units=GPa)
#
#
# Indices 1 2 3 4 5 6 
#
# 1 126.1932 21.7948 22.2417 0.0000 23.7533 0.0000
# 2 21.7948 69.3535 -1.0161 0.0000 9.4772 0.0000
# 3 22.2417 -1.0161 87.8248 0.0000 18.6204 0.0000
# 4 0.0000 0.0000 0.0000 29.2591 0.0000 5.1995
# 5 23.7533 9.4772 18.6204 0.0000 42.1889 0.0000
# 6 0.0000 0.0000 0.0000 5.1995 0.0000 10.0092
#
#
#
# Elastic Compliance Matrix: (Units=1/GPa)
#
#
# Indices 1 2 3 4 5 6 
#
# 1 0.009377 -0.002415 -0.001543 0.000000 -0.004056 0.000000
# 2 -0.002415 0.015573 0.001374 0.000000 -0.002745 0.000000
# 3 -0.001543 0.001374 0.012879 0.000000 -0.005124 0.000000
# 4 0.000000 0.000000 0.000000 0.037653 0.000000 -0.019560
# 5 -0.004056 -0.002745 -0.005124 0.000000 0.028865 0.000000
# 6 0.000000 0.000000 0.000000 -0.019560 0.000000 0.110069
#
#
# Mechanical properties :
#
#
# Convention : Reuss Voigt Hill
#
# Bulk Modulus (GPa) = 30.61736 41.04580 35.83158
# Shear Modulus (GPa) = 21.69468 32.31484 27.00476
#
# Velocity S-wave (km/s) = 3.00051 3.66200 3.34763
# Velocity P-wave (km/s) = 4.97090 5.90880 5.46003
#
# Compressibility (1/GPa) = 0.03266121
#
# Stress axis : x y z
#
# Youngs Moduli (GPa) = 106.64600 64.21346 77.64361
#
# Poissons Ratio (x) = 0.15508 0.11978
# Poissons Ratio (y) = 0.25756 -0.10666
# Poissons Ratio (z) = 0.16452 -0.08821
#
# Static dielectric constant tensor:
#      x y z
#    x 1.738670 0.000000 -0.160790 
#    y 0.000000 1.845230 0.000000 
#    z -0.160790 0.000000 1.821820 
# 
# From -- ./inp_files/57986.got.cif
#   From: 2010.05.17/outbox.cif.g08.bks.cpg/sg15_29_cif.got.tgz:57986.got - 2010.06.03 18:47:42.
