data_PCOD9299074
_publ_section_title
;
Structure prediction by ZEFSAII (Michael W. Deem and Ramdas Pophale) SiO2 
 PCOD9299074
Probable space group: C 2/C
;
_chemical_formula_sum "Si O2"
_cell_formula_units_Z 36
_cell_length_a 20.401178
_cell_length_b 15.986323
_cell_length_c 8.578202
_cell_angle_alpha 90.000000
_cell_angle_beta 30.470135
_cell_angle_gamma 90.000000
_cell_volume 1418.679973
_symmetry_space_group_name_H-M "C 2/C"
_symmetry_group_IT_number 15
_symmetry_cell_setting 'monoclinic'
loop_
_space_group_symop_operation_xyz
x,y,z
-x,y,1/2-z
-x,-y,-z
x,-y,1/2+z
1/2+x,1/2+y,z
1/2-x,1/2+y,1/2-z
1/2-x,1/2-y,-z
1/2+x,1/2-y,1/2+z
loop_
_atom_site_type_symbol
_atom_site_label
_atom_site_fract_x
_atom_site_fract_y
_atom_site_fract_z
Si Si1 0.817983 0.341081 0.366773
Si Si2 0.000000 0.693640 0.750000
Si Si3 0.748106 0.505122 0.627220
Si Si4 0.931389 0.151053 0.557642
Si Si5 0.500000 0.413955 0.250000
Si Si6 0.500000 0.086805 0.250000
O O1 0.750000 0.250000 0.500000
O O2 0.748827 0.431341 0.495332
O O3 0.884392 0.349781 0.398921
O O4 0.925929 0.351248 0.016882
O O5 0.070471 0.750976 0.474681
O O6 0.695464 0.595136 0.680217
O O7 0.891625 0.528038 0.392005
O O8 0.632492 0.467309 0.971201
O O9 0.995591 0.135697 0.594635
O O10 0.000000 0.126181 0.250000
#
# Coordination Sequence:
#
# PCOD9299074 Si02
#       6
#     8   4   8   8   4   4
#     4  12  27  49  75 111 161 201 258 327 403 466
#     4  10  24  48  67 106 155 196 252 328 384 462
#     4  12  25  47  80 116 151 208 266 322 392 482
#     4  10  24  46  77 113 154 199 272 318 378 471
#     4  12  23  43  82 115 145 204 256 330 379 449
#     4  12  29  51  77 113 158 212 258 330 397 471
#
# _framework density 25.375700999999999
#
# number of rings (size 3 to 8) (size 9 to 14) (size 15 to 20)
#    0.667    0.000    1.111    6.000    3.111    5.333 
#    0.000    3.333    0.000    0.000    0.000    0.000 
#    0.000    0.000    0.000    0.000    0.000    0.000 
#
# Total GULP energy -100296.219173 kJ/mol
# GULP energy per Si atom -5572.012176 kJ/mol
# Density = 2.531794 g / cm^3
# Si number density = 25.375701 Si / 1000 Ang^3
#
#
#
# Elastic Constant Matrix: (Units=GPa)
#
#
# Indices 1 2 3 4 5 6 
#
# 1 150.6564 41.6622 37.7575 0.0000 1.6730 0.0000
# 2 41.6622 140.5913 54.2221 0.0000 -4.6793 0.0000
# 3 37.7575 54.2221 134.7115 0.0000 5.0910 0.0000
# 4 0.0000 0.0000 0.0000 91.7358 0.0000 49.6344
# 5 1.6730 -4.6793 5.0910 0.0000 37.9118 0.0000
# 6 0.0000 0.0000 0.0000 49.6344 0.0000 76.3606
#
#
#
# Elastic Compliance Matrix: (Units=1/GPa)
#
#
# Indices 1 2 3 4 5 6 
#
# 1 0.007457 -0.001681 -0.001400 0.000000 -0.000349 0.000000
# 2 -0.001681 0.008885 -0.003165 0.000000 0.001596 0.000000
# 3 -0.001400 -0.003165 0.009149 0.000000 -0.001557 0.000000
# 4 0.000000 0.000000 0.000000 0.016814 0.000000 -0.010929
# 5 -0.000349 0.001596 -0.001557 0.000000 0.026798 0.000000
# 6 0.000000 0.000000 0.000000 -0.010929 0.000000 0.020200
#
#
# Mechanical properties :
#
#
# Convention : Reuss Voigt Hill
#
# Bulk Modulus (GPa) = 76.94035 77.02698 76.98366
# Shear Modulus (GPa) = 47.11213 60.68947 53.90080
#
# Velocity S-wave (km/s) = 4.31348 4.89574 4.61381
# Velocity P-wave (km/s) = 7.42930 7.89799 7.66723
#
# Compressibility (1/GPa) = 0.01299708
#
# Stress axis : x y z
#
# Youngs Moduli (GPa) = 134.09494 112.54967 109.30606
#
# Poissons Ratio (x) = 0.18925 0.15305
# Poissons Ratio (y) = 0.22548 0.34598
# Poissons Ratio (z) = 0.18776 0.35625
#
# Static dielectric constant tensor:
#      x y z
#    x 1.926430 0.000000 -0.678520 
#    y 0.000000 2.018070 0.000000 
#    z -0.678520 0.000000 0.533680 
# 
# From -- ./inp_files/56919.got.cif
#   From: 2010.05.17/outbox.cif.g08.bks.cpg/sg15_29_cif.got.tgz:56919.got - 2010.06.03 18:47:42.
