data_PCOD9299438
_publ_section_title
;
Structure prediction by ZEFSAII (Michael W. Deem and Ramdas Pophale) SiO2 
 PCOD9299438
Probable space group: C 2/C
;
_chemical_formula_sum "Si O2"
_cell_formula_units_Z 64
_cell_length_a 18.258639
_cell_length_b 5.183207
_cell_length_c 27.869543
_cell_angle_alpha 90.000000
_cell_angle_beta 77.997278
_cell_angle_gamma 90.000000
_cell_volume 2579.863991
_symmetry_space_group_name_H-M "C 2/C"
_symmetry_group_IT_number 15
_symmetry_cell_setting 'monoclinic'
loop_
_space_group_symop_operation_xyz
x,y,z
-x,y,1/2-z
-x,-y,-z
x,-y,1/2+z
1/2+x,1/2+y,z
1/2-x,1/2+y,1/2-z
1/2-x,1/2-y,-z
1/2+x,1/2-y,1/2+z
loop_
_atom_site_type_symbol
_atom_site_label
_atom_site_fract_x
_atom_site_fract_y
_atom_site_fract_z
Si Si1 0.725054 0.203182 0.727955
Si Si2 0.789506 0.280762 0.611404
Si Si3 0.960907 0.784164 0.112164
Si Si4 0.920733 0.586011 0.338051
Si Si5 0.507095 0.300999 0.955695
Si Si6 0.580258 0.421362 0.716977
Si Si7 0.096599 0.588186 0.024507
Si Si8 0.780040 0.295142 0.926072
O O1 0.768282 0.414907 0.753665
O O2 0.749195 0.232634 0.668682
O O3 0.640799 0.302902 0.743915
O O4 0.877092 0.301646 0.613052
O O5 0.755602 0.529767 0.588535
O O6 0.774670 0.032962 0.579222
O O7 0.997647 0.687258 0.156002
O O8 0.026249 0.684879 0.066867
O O9 0.964054 0.087321 0.098236
O O10 0.920043 0.283795 0.326898
O O11 0.854661 0.645616 0.384239
O O12 0.901738 0.784690 0.298212
O O13 0.420375 0.211484 0.962536
O O14 0.500000 0.500000 0.000000
O O15 0.570594 0.126129 0.973203
O O16 0.500000 0.408519 0.750000
O O17 0.177267 0.690257 0.028015
#
# Coordination Sequence:
#
# PCOD9299438 Si02
#       8
#     8   8   8   8   8   8   8   8
#     4  12  26  45  66  90 131 176 213 263 337 392
#     4  12  26  44  65  98 135 169 220 275 328 394
#     4  10  25  37  69  96 133 167 221 271 331 379
#     4  11  23  44  65  95 124 172 219 271 318 390
#     4   9  19  40  66 100 130 168 222 269 316 393
#     4  12  26  43  65  94 128 164 223 273 324 390
#     4   9  21  40  71  93 131 175 220 261 327 390
#     4  11  23  43  67  92 131 177 216 264 328 392
#
# _framework density 24.807509
#
# number of rings (size 3 to 8) (size 9 to 14) (size 15 to 20)
#    0.000    1.250    2.500    1.875   14.000    0.000 
#    0.000    1.250    0.000    0.000    0.000    0.000 
#    0.000    0.000    0.000    0.000    0.000    0.000 
#
# Total GULP energy -178518.273362 kJ/mol
# GULP energy per Si atom -5578.696043 kJ/mol
# Density = 2.475105 g / cm^3
# Si number density = 24.807509 Si / 1000 Ang^3
#
#
#
# Elastic Constant Matrix: (Units=GPa)
#
#
# Indices 1 2 3 4 5 6 
#
# 1 135.0977 11.7037 14.2780 -0.0001 27.7057 -0.0001
# 2 11.7037 80.8013 21.0748 -0.0006 23.3016 -0.0004
# 3 14.2780 21.0748 36.0255 -0.0003 23.6231 -0.0001
# 4 -0.0001 -0.0006 -0.0003 32.0670 -0.0001 10.4891
# 5 27.7057 23.3016 23.6231 -0.0001 47.2573 0.0000
# 6 -0.0001 -0.0004 -0.0001 10.4891 0.0000 33.8551
#
#
#
# Elastic Compliance Matrix: (Units=1/GPa)
#
#
# Indices 1 2 3 4 5 6 
#
# 1 0.008419 0.000272 -0.000255 0.000000 -0.004943 0.000000
# 2 0.000272 0.015243 -0.005938 0.000000 -0.004707 0.000000
# 3 -0.000255 -0.005938 0.043610 0.000000 -0.018722 0.000000
# 4 0.000000 0.000000 0.000000 0.034702 0.000000 -0.010751
# 5 -0.004943 -0.004707 -0.018722 0.000000 0.035739 0.000000
# 6 0.000000 0.000000 0.000000 -0.010751 0.000000 0.032869
#
#
# Mechanical properties :
#
#
# Convention : Reuss Voigt Hill
#
# Bulk Modulus (GPa) = 18.04076 38.44862 28.24469
# Shear Modulus (GPa) = 24.88813 36.29374 30.59093
#
# Velocity S-wave (km/s) = 3.17085 3.82909 3.51541
# Velocity P-wave (km/s) = 4.54904 5.92297 5.28088
#
# Compressibility (1/GPa) = 0.05543005
#
# Stress axis : x y z
#
# Youngs Moduli (GPa) = 118.77830 65.60427 22.93060
#
# Poissons Ratio (x) = -0.01787 0.00585
# Poissons Ratio (y) = -0.03236 0.13617
# Poissons Ratio (z) = 0.03029 0.38958
#
# Static dielectric constant tensor:
#      x y z
#    x 1.988230 0.000000 0.079210 
#    y 0.000000 2.970140 0.000000 
#    z 0.079210 0.000000 2.014080 
# 
# From -- ./inp_files/315089.got.cif
#   From: 2010.05.17/outbox.cif.g08.bks.cpg/sg15_158_cif.got.tgz:315089.got - 2010.06.03 18:47:42.
