data_PCOD9299056
_publ_section_title
;
Structure prediction by ZEFSAII (Michael W. Deem and Ramdas Pophale) SiO2 
 PCOD9299056
Probable space group: C 2/C
;
_chemical_formula_sum "Si O2"
_cell_formula_units_Z 60
_cell_length_a 5.525602
_cell_length_b 25.290199
_cell_length_c 18.680327
_cell_angle_alpha 90.000000
_cell_angle_beta 91.311783
_cell_angle_gamma 90.000000
_cell_volume 2609.771520
_symmetry_space_group_name_H-M "C 2/C"
_symmetry_group_IT_number 15
_symmetry_cell_setting 'monoclinic'
loop_
_space_group_symop_operation_xyz
x,y,z
-x,y,1/2-z
-x,-y,-z
x,-y,1/2+z
1/2+x,1/2+y,z
1/2-x,1/2+y,1/2-z
1/2-x,1/2-y,-z
1/2+x,1/2-y,1/2+z
loop_
_atom_site_type_symbol
_atom_site_label
_atom_site_fract_x
_atom_site_fract_y
_atom_site_fract_z
Si Si1 0.999572 0.614341 0.991041
Si Si2 0.257847 0.601636 0.129386
Si Si3 0.408649 0.488285 0.831569
Si Si4 0.097983 0.720756 0.439608
Si Si5 0.500000 0.049190 0.250000
Si Si6 0.133787 0.204559 0.675008
Si Si7 0.986714 0.901304 0.403648
Si Si8 0.509657 0.293556 0.831761
O O1 0.237830 0.600271 0.947361
O O2 0.738007 0.606945 0.950574
O O3 0.058096 0.587452 0.068283
O O4 0.017977 0.675466 0.013198
O O5 0.491491 0.563160 0.125701
O O6 0.313106 0.664022 0.129767
O O7 0.170793 0.588041 0.207897
O O8 0.500000 0.489327 0.750000
O O9 0.124061 0.485339 0.812722
O O10 0.498176 0.540826 0.869682
O O11 0.250000 0.750000 0.500000
O O12 0.269852 0.699436 0.376865
O O13 0.956438 0.765306 0.396283
O O14 0.066884 0.143974 0.656711
O O15 0.400794 0.232194 0.675153
O O16 0.000000 0.218604 0.750000
O O17 0.500000 0.311657 0.750000
#
# Coordination Sequence:
#
# PCOD9299056 Si02
#       8
#     8   8   8   8   4   8   8   8
#     4  12  28  46  76 110 147 203 241 311 380 441
#     4  11  26  43  74 107 147 190 248 309 380 448
#     4  10  25  50  75 107 142 198 249 309 371 440
#     4  12  25  46  71 101 155 196 248 301 381 456
#     4  10  24  46  76 104 144 196 244 308 376 436
#     4  12  26  45  72 111 144 201 251 311 374 449
#     4  12  29  50  75 108 153 199 253 305 368 455
#     4  12  25  42  72 112 149 189 253 314 381 445
#
# _framework density 22.99052
#
# number of rings (size 3 to 8) (size 9 to 14) (size 15 to 20)
#    0.000    0.533    4.000    3.200   10.267    2.133 
#    1.200    0.000    0.000    0.000    0.000    0.000 
#    0.000    0.000    0.000    0.000    0.000    0.000 
#
# Total GULP energy -167110.653613 kJ/mol
# GULP energy per Si atom -5570.355120 kJ/mol
# Density = 2.293819 g / cm^3
# Si number density = 22.990520 Si / 1000 Ang^3
#
#
#
# Elastic Constant Matrix: (Units=GPa)
#
#
# Indices 1 2 3 4 5 6 
#
# 1 74.3050 15.8707 16.0664 0.0000 15.3596 0.0000
# 2 15.8707 77.0121 27.8391 0.0000 23.6893 0.0000
# 3 16.0664 27.8391 78.8759 0.0000 15.4517 0.0000
# 4 0.0000 0.0000 0.0000 15.2268 0.0000 3.9330
# 5 15.3596 23.6893 15.4517 0.0000 50.1850 0.0000
# 6 0.0000 0.0000 0.0000 3.9330 0.0000 19.9355
#
#
#
# Elastic Compliance Matrix: (Units=1/GPa)
#
#
# Indices 1 2 3 4 5 6 
#
# 1 0.014843 -0.001352 -0.001896 0.000000 -0.003321 0.000000
# 2 -0.001352 0.016752 -0.004437 0.000000 -0.006128 0.000000
# 3 -0.001896 -0.004437 0.015012 0.000000 -0.001947 0.000000
# 4 0.000000 0.000000 0.000000 0.069200 0.000000 -0.013652
# 5 -0.003321 -0.006128 -0.001947 0.000000 0.024435 0.000000
# 6 0.000000 0.000000 0.000000 -0.013652 0.000000 0.052855
#
#
# Mechanical properties :
#
#
# Convention : Reuss Voigt Hill
#
# Bulk Modulus (GPa) = 32.01207 38.86060 35.43633
# Shear Modulus (GPa) = 22.84362 28.43058 25.63710
#
# Velocity S-wave (km/s) = 3.15558 3.52038 3.34296
# Velocity P-wave (km/s) = 5.21835 5.78478 5.50885
#
# Compressibility (1/GPa) = 0.03123822
#
# Stress axis : x y z
#
# Youngs Moduli (GPa) = 67.37091 59.69265 66.61441
#
# Poissons Ratio (x) = 0.08071 0.12628
# Poissons Ratio (y) = 0.09109 0.29556
# Poissons Ratio (z) = 0.12771 0.26485
#
# Static dielectric constant tensor:
#      x y z
#    x 2.234120 0.000000 0.089900 
#    y 0.000000 1.827960 0.000000 
#    z 0.089900 0.000000 1.887930 
# 
# From -- ./inp_files/186207.got.cif
#   From: 2010.05.17/outbox.cif.g08.bks.cpg/sg15_94_cif.got.tgz:186207.got - 2010.06.03 18:47:42.
