data_PCOD9299417
_publ_section_title
;
Structure prediction by ZEFSAII (Michael W. Deem and Ramdas Pophale) SiO2 
 PCOD9299417
Probable space group: C 2/C
;
_chemical_formula_sum "Si O2"
_cell_formula_units_Z 36
_cell_length_a 7.652567
_cell_length_b 31.697717
_cell_length_c 8.946403
_cell_angle_alpha 90.000000
_cell_angle_beta 50.590032
_cell_angle_gamma 90.000000
_cell_volume 1676.684270
_symmetry_space_group_name_H-M "C 2/C"
_symmetry_group_IT_number 15
_symmetry_cell_setting 'monoclinic'
loop_
_space_group_symop_operation_xyz
x,y,z
-x,y,1/2-z
-x,-y,-z
x,-y,1/2+z
1/2+x,1/2+y,z
1/2-x,1/2+y,1/2-z
1/2-x,1/2-y,-z
1/2+x,1/2-y,1/2+z
loop_
_atom_site_type_symbol
_atom_site_label
_atom_site_fract_x
_atom_site_fract_y
_atom_site_fract_z
Si Si1 0.500000 0.000552 0.750000
Si Si2 0.204666 0.706594 0.765235
Si Si3 0.382016 0.299074 0.663846
Si Si4 0.495130 0.138346 0.078634
Si Si5 0.233165 0.555244 0.867145
O O1 0.675465 0.028945 0.749518
O O2 0.637344 0.972120 0.557692
O O3 0.431946 0.692037 0.560696
O O4 0.243034 0.754743 0.800741
O O5 0.000000 0.701251 0.750000
O O6 0.145535 0.677159 0.937204
O O7 0.500000 0.284445 0.750000
O O8 0.249662 0.340106 0.790691
O O9 0.500000 0.127128 0.250000
O O10 0.583036 0.097838 0.943423
O O11 0.500000 0.563602 0.750000
#
# Coordination Sequence:
#
# PCOD9299417 Si02
#       5
#     4   8   8   8   8
#     4  10  24  50  80 104 136 184 226 276 370 426
#     4  11  21  41  67  92 130 190 240 284 342 404
#     4  11  21  42  66  92 132 186 243 287 329 413
#     4  12  27  41  60 104 141 174 229 291 346 402
#     4  11  25  48  74 109 143 178 228 290 347 426
#
# _framework density 21.470946999999999
#
# number of rings (size 3 to 8) (size 9 to 14) (size 15 to 20)
#    0.000    0.889    5.556    2.000    4.667    0.889 
#    0.000    1.111    0.000    0.000    0.000    0.000 
#    0.000    0.000    0.000    0.000    0.000    0.000 
#
# Total GULP energy -100315.193516 kJ/mol
# GULP energy per Si atom -5573.066306 kJ/mol
# Density = 2.142208 g / cm^3
# Si number density = 21.470947 Si / 1000 Ang^3
#
#
#
# Elastic Constant Matrix: (Units=GPa)
#
#
# Indices 1 2 3 4 5 6 
#
# 1 57.7184 38.1359 26.5016 0.0000 -21.9521 0.0000
# 2 38.1359 124.1875 20.7978 0.0000 -16.3740 0.0000
# 3 26.5016 20.7978 99.3139 0.0000 -30.3160 0.0000
# 4 0.0000 0.0000 0.0000 39.6420 0.0000 -0.9550
# 5 -21.9521 -16.3740 -30.3160 0.0000 34.2463 0.0000
# 6 0.0000 0.0000 0.0000 -0.9550 0.0000 23.0502
#
#
#
# Elastic Compliance Matrix: (Units=1/GPa)
#
#
# Indices 1 2 3 4 5 6 
#
# 1 0.027284 -0.006367 -0.002107 0.000000 0.012580 0.000000
# 2 -0.006367 0.010121 -0.000259 0.000000 0.000528 0.000000
# 3 -0.002107 -0.000259 0.014026 0.000000 0.010941 0.000000
# 4 0.000000 0.000000 0.000000 0.025251 0.000000 0.001046
# 5 0.012580 0.000528 0.010941 0.000000 0.047202 0.000000
# 6 0.000000 0.000000 0.000000 0.001046 0.000000 0.043427
#
#
# Mechanical properties :
#
#
# Convention : Reuss Voigt Hill
#
# Bulk Modulus (GPa) = 29.44349 50.23227 39.83788
# Shear Modulus (GPa) = 25.49738 32.44000 28.96869
#
# Velocity S-wave (km/s) = 3.44979 3.89122 3.67714
# Velocity P-wave (km/s) = 5.44160 6.60568 6.05170
#
# Compressibility (1/GPa) = 0.03396336
#
# Stress axis : x y z
#
# Youngs Moduli (GPa) = 36.65099 98.80844 71.29851
#
# Poissons Ratio (x) = 0.62912 0.15025
# Poissons Ratio (y) = 0.23336 0.01848
# Poissons Ratio (z) = 0.07724 0.02561
#
# Static dielectric constant tensor:
#      x y z
#    x 1.847670 0.000000 0.016680 
#    y 0.000000 1.813280 0.000000 
#    z 0.016680 0.000000 1.754940 
# 
# From -- ./inp_files/25298.got.cif
#   From: 2010.05.17/outbox.cif.g08.bks.cpg/sg15_13_cif.got.tgz:25298.got - 2010.06.03 18:47:42.
