data_PCOD9299760
_publ_section_title
;
Structure prediction by ZEFSAII (Michael W. Deem and Ramdas Pophale) SiO2 
 PCOD9299760
Probable space group: C 2/C
;
_chemical_formula_sum "Si O2"
_cell_formula_units_Z 52
_cell_length_a 18.002097
_cell_length_b 5.420398
_cell_length_c 26.354869
_cell_angle_alpha 90.000000
_cell_angle_beta 64.488253
_cell_angle_gamma 90.000000
_cell_volume 2320.923911
_symmetry_space_group_name_H-M "C 2/C"
_symmetry_group_IT_number 15
_symmetry_cell_setting 'monoclinic'
loop_
_space_group_symop_operation_xyz
x,y,z
-x,y,1/2-z
-x,-y,-z
x,-y,1/2+z
1/2+x,1/2+y,z
1/2-x,1/2+y,1/2-z
1/2-x,1/2-y,-z
1/2+x,1/2-y,1/2+z
loop_
_atom_site_type_symbol
_atom_site_label
_atom_site_fract_x
_atom_site_fract_y
_atom_site_fract_z
Si Si1 0.000000 0.874679 0.750000
Si Si2 0.355825 0.642877 0.850314
Si Si3 0.416977 0.149294 0.515630
Si Si4 0.243385 0.692804 0.441879
Si Si5 0.029646 0.700526 0.109108
Si Si6 0.309337 0.603196 0.124747
Si Si7 0.561588 0.711049 0.337641
O O1 0.041659 0.730371 0.784540
O O2 0.075923 0.038063 0.707188
O O3 0.326312 0.443835 0.900548
O O4 0.399288 0.855045 0.870739
O O5 0.270417 0.721673 0.850455
O O6 0.429815 0.260339 0.456652
O O7 0.391810 0.332951 0.567627
O O8 0.500000 0.000000 0.500000
O O9 0.336519 0.980739 0.536988
O O10 0.250000 0.750000 0.500000
O O11 0.225241 0.884773 0.401263
O O12 0.970130 0.461798 0.125284
O O13 0.986806 0.954467 0.138393
O O14 0.347797 0.628962 0.169741
#
# Coordination Sequence:
#
# PCOD9299760 Si02
#       7
#     4   8   8   8   8   8   8
#     4  10  26  52  72 100 130 196 242 306 350 428
#     4  10  25  46  67 101 139 182 244 292 360 423
#     4  11  22  37  65 102 143 184 227 278 355 426
#     4  11  24  40  68 105 146 184 230 291 362 435
#     4  11  24  43  71 105 142 191 232 287 353 441
#     4  11  24  42  68 105 144 187 234 301 357 431
#     4  11  26  46  72 102 142 183 247 297 355 419
#
# _framework density 22.404869000000001
#
# number of rings (size 3 to 8) (size 9 to 14) (size 15 to 20)
#    0.000    1.231    1.538    2.769   12.923    6.154 
#    2.769    0.000    0.000    0.000    0.000    0.000 
#    0.000    0.000    0.000    0.000    0.000    0.000 
#
# Total GULP energy -144804.580479 kJ/mol
# GULP energy per Si atom -5569.406941 kJ/mol
# Density = 2.235387 g / cm^3
# Si number density = 22.404869 Si / 1000 Ang^3
#
#
#
# Elastic Constant Matrix: (Units=GPa)
#
#
# Indices 1 2 3 4 5 6 
#
# 1 135.3268 10.3703 25.8447 -0.0086 5.2622 0.0108
# 2 10.3703 58.5701 1.1037 0.0024 -4.2678 0.0109
# 3 25.8447 1.1037 83.2273 -0.0077 -4.7768 0.0032
# 4 -0.0086 0.0024 -0.0077 15.3730 -0.0021 0.4065
# 5 5.2622 -4.2678 -4.7768 -0.0021 39.2233 0.0012
# 6 0.0108 0.0109 0.0032 0.4065 0.0012 32.2940
#
#
#
# Elastic Compliance Matrix: (Units=1/GPa)
#
#
# Indices 1 2 3 4 5 6 
#
# 1 0.008055 -0.001491 -0.002571 0.000003 -0.001556 -0.000002
# 2 -0.001491 0.017487 0.000354 -0.000003 0.002146 -0.000005
# 3 -0.002571 0.000354 0.012921 0.000005 0.001957 -0.000001
# 4 0.000003 -0.000003 0.000005 0.065071 0.000003 -0.000819
# 5 -0.001556 0.002146 0.001957 0.000003 0.026176 -0.000001
# 6 -0.000002 -0.000005 -0.000001 -0.000819 -0.000001 0.030976
#
#
# Mechanical properties :
#
#
# Convention : Reuss Voigt Hill
#
# Bulk Modulus (GPa) = 32.20800 39.08464 35.64632
# Shear Modulus (GPa) = 28.01887 33.36509 30.69198
#
# Velocity S-wave (km/s) = 3.54018 3.86319 3.70520
# Velocity P-wave (km/s) = 5.57827 6.11404 5.85229
#
# Compressibility (1/GPa) = 0.03104819
#
# Stress axis : x y z
#
# Youngs Moduli (GPa) = 124.14181 57.18445 77.39174
#
# Poissons Ratio (x) = 0.08527 0.19897
# Poissons Ratio (y) = 0.18512 -0.02742
# Poissons Ratio (z) = 0.31916 -0.02026
#
# Static dielectric constant tensor:
#      x y z
#    x 1.938850 0.000000 0.169090 
#    y 0.000000 1.895630 0.000000 
#    z 0.169090 0.000000 1.967790 
# 
# From -- ./inp_files/297687.got.cif
#   From: 2010.05.17/outbox.cif.g08.bks.cpg/sg15_149_cif.got.tgz:297687.got - 2010.06.03 18:47:42.
