data_PCOD9299301
_publ_section_title
;
Structure prediction by ZEFSAII (Michael W. Deem and Ramdas Pophale) SiO2 
 PCOD9299301
Probable space group: C 2/C
;
_chemical_formula_sum "Si O2"
_cell_formula_units_Z 36
_cell_length_a 16.728077
_cell_length_b 6.836455
_cell_length_c 20.740997
_cell_angle_alpha 90.000000
_cell_angle_beta 137.946488
_cell_angle_gamma 90.000000
_cell_volume 1588.793884
_symmetry_space_group_name_H-M "C 2/C"
_symmetry_group_IT_number 15
_symmetry_cell_setting 'monoclinic'
loop_
_space_group_symop_operation_xyz
x,y,z
-x,y,1/2-z
-x,-y,-z
x,-y,1/2+z
1/2+x,1/2+y,z
1/2-x,1/2+y,1/2-z
1/2-x,1/2-y,-z
1/2+x,1/2-y,1/2+z
loop_
_atom_site_type_symbol
_atom_site_label
_atom_site_fract_x
_atom_site_fract_y
_atom_site_fract_z
Si Si1 0.729440 0.260304 0.910409
Si Si2 0.565277 0.718484 0.663227
Si Si3 0.121305 0.096561 0.044694
Si Si4 0.500000 0.515995 0.750000
Si Si5 0.300388 0.028329 0.831932
O O1 0.601324 0.364539 0.832140
O O2 0.792839 0.393465 0.891948
O O3 0.750000 0.250000 0.000000
O O4 0.770680 0.047652 0.908900
O O5 0.436124 0.681621 0.555183
O O6 0.550239 0.665789 0.727973
O O7 0.678206 0.570858 0.718810
O O8 0.608979 0.925393 0.662740
O O9 0.158802 0.266152 0.115347
O O10 0.000000 0.000000 0.000000
#
# Coordination Sequence:
#
# PCOD9299301 Si02
#       5
#     8   8   8   4   8
#     4  11  24  47  72 108 149 189 246 304 366 446
#     4  11  23  46  72 102 151 190 252 304 367 446
#     4  12  24  46  74 108 142 192 247 300 369 439
#     4  10  24  48  74 112 150 196 248 306 382 430
#     4  11  26  46  72 106 145 198 244 304 368 440
#
# _framework density 22.658695999999999
#
# number of rings (size 3 to 8) (size 9 to 14) (size 15 to 20)
#    0.000    0.889    4.444    2.000    0.000    0.889 
#    4.000    1.111    0.000    0.000    0.000    0.000 
#    0.000    0.000    0.000    0.000    0.000    0.000 
#
# Total GULP energy -100234.892713 kJ/mol
# GULP energy per Si atom -5568.605151 kJ/mol
# Density = 2.260712 g / cm^3
# Si number density = 22.658696 Si / 1000 Ang^3
#
#
#
# Elastic Constant Matrix: (Units=GPa)
#
#
# Indices 1 2 3 4 5 6 
#
# 1 103.2313 73.9368 50.7107 0.0000 -2.4389 0.0000
# 2 73.9368 160.9401 71.1277 0.0000 -13.2281 0.0000
# 3 50.7107 71.1277 104.8639 0.0000 -24.9472 0.0000
# 4 0.0000 0.0000 0.0000 31.4186 0.0000 -17.0381
# 5 -2.4389 -13.2281 -24.9472 0.0000 14.4390 0.0000
# 6 0.0000 0.0000 0.0000 -17.0381 0.0000 32.2331
#
#
#
# Elastic Compliance Matrix: (Units=1/GPa)
#
#
# Indices 1 2 3 4 5 6 
#
# 1 0.017681 -0.005628 -0.008912 0.000000 -0.017568 0.000000
# 2 -0.005628 0.010793 -0.004199 0.000000 0.001682 0.000000
# 3 -0.008912 -0.004199 0.026183 0.000000 0.039886 0.000000
# 4 0.000000 0.000000 0.000000 0.044618 0.000000 0.023585
# 5 -0.017568 0.001682 0.039886 0.000000 0.136744 0.000000
# 6 0.000000 0.000000 0.000000 0.023585 0.000000 0.043491
#
#
# Mechanical properties :
#
#
# Convention : Reuss Voigt Hill
#
# Bulk Modulus (GPa) = 58.21168 84.50951 71.36059
# Shear Modulus (GPa) = 15.49364 27.16882 21.33123
#
# Velocity S-wave (km/s) = 2.61776 3.46648 3.07158
# Velocity P-wave (km/s) = 5.90621 7.30751 6.64391
#
# Compressibility (1/GPa) = 0.01717868
#
# Stress axis : x y z
#
# Youngs Moduli (GPa) = 56.55905 92.65338 38.19287
#
# Poissons Ratio (x) = 0.52143 0.34038
# Poissons Ratio (y) = 0.31830 0.16037
# Poissons Ratio (z) = 0.50407 0.38904
#
# Static dielectric constant tensor:
#      x y z
#    x 1.903090 0.000000 -0.013070 
#    y 0.000000 1.860020 0.000000 
#    z -0.013070 0.000000 1.948550 
# 
# From -- ./inp_files/299801.got.cif
#   From: 2010.05.17/outbox.cif.g08.bks.cpg/sg15_150_cif.got.tgz:299801.got - 2010.06.03 18:47:42.
