data_PCOD9299179
_publ_section_title
;
Structure prediction by ZEFSAII (Michael W. Deem and Ramdas Pophale) SiO2 
 PCOD9299179
Probable space group: C 2/C
;
_chemical_formula_sum "Si O2"
_cell_formula_units_Z 24
_cell_length_a 7.276325
_cell_length_b 24.988314
_cell_length_c 5.139724
_cell_angle_alpha 90.000000
_cell_angle_beta 110.065680
_cell_angle_gamma 90.000000
_cell_volume 877.795063
_symmetry_space_group_name_H-M "C 2/C"
_symmetry_group_IT_number 15
_symmetry_cell_setting 'monoclinic'
loop_
_space_group_symop_operation_xyz
x,y,z
-x,y,1/2-z
-x,-y,-z
x,-y,1/2+z
1/2+x,1/2+y,z
1/2-x,1/2+y,1/2-z
1/2-x,1/2-y,-z
1/2+x,1/2-y,1/2+z
loop_
_atom_site_type_symbol
_atom_site_label
_atom_site_fract_x
_atom_site_fract_y
_atom_site_fract_z
Si Si1 0.000000 0.388374 0.250000
Si Si2 0.781921 0.964990 0.093582
Si Si3 0.304801 0.812762 0.804265
Si Si4 0.000000 0.792781 0.250000
O O1 0.109263 0.426438 0.098506
O O2 0.172059 0.348708 0.432444
O O3 0.000000 0.942271 0.250000
O O4 0.770086 0.014798 0.292046
O O5 0.500000 0.831634 0.750000
O O6 0.349421 0.748805 0.819765
O O7 0.117648 0.821430 0.534211
#
# Coordination Sequence:
#
# PCOD9299179 Si02
#       4
#     4   8   8   4
#     4  12  24  38  75 114 144 186 257 318 364 438
#     4  10  24  47  74 106 149 197 242 307 389 461
#     4   9  20  40  65 102 143 194 248 302 365 438
#     4   8  18  44  65  92 156 196 247 292 376 442
#
# _framework density 27.341232999999999
#
# number of rings (size 3 to 8) (size 9 to 14) (size 15 to 20)
#    1.000    1.333    0.000    1.000    4.667    1.333 
#    3.000    0.000    0.000    0.000    0.000    0.000 
#    0.000    0.000    0.000    0.000    0.000    0.000 
#
# Total GULP energy -67168.756975 kJ/mol
# GULP energy per Si atom -5597.396415 kJ/mol
# Density = 2.727900 g / cm^3
# Si number density = 27.341233 Si / 1000 Ang^3
#
#
#
# Elastic Constant Matrix: (Units=GPa)
#
#
# Indices 1 2 3 4 5 6 
#
# 1 129.4357 35.6278 47.8501 0.0000 14.7582 0.0000
# 2 35.6278 76.4965 31.2254 0.0000 27.7301 0.0000
# 3 47.8501 31.2254 167.0700 0.0000 53.6956 0.0000
# 4 0.0000 0.0000 0.0000 41.2095 0.0000 9.1130
# 5 14.7582 27.7301 53.6956 0.0000 64.9525 0.0000
# 6 0.0000 0.0000 0.0000 9.1130 0.0000 36.6015
#
#
#
# Elastic Compliance Matrix: (Units=1/GPa)
#
#
# Indices 1 2 3 4 5 6 
#
# 1 0.009577 -0.004021 -0.002511 0.000000 0.001617 0.000000
# 2 -0.004021 0.017290 -0.000001 0.000000 -0.006467 0.000000
# 3 -0.002511 -0.000001 0.008881 0.000000 -0.006771 0.000000
# 4 0.000000 0.000000 0.000000 0.025680 0.000000 -0.006394
# 5 0.001617 -0.006467 -0.006771 0.000000 0.023387 0.000000
# 6 0.000000 0.000000 0.000000 -0.006394 0.000000 0.028913
#
#
# Mechanical properties :
#
#
# Convention : Reuss Voigt Hill
#
# Bulk Modulus (GPa) = 44.09017 66.93432 55.51224
# Shear Modulus (GPa) = 37.21480 45.77263 41.49371
#
# Velocity S-wave (km/s) = 3.69334 4.09605 3.89990
# Velocity P-wave (km/s) = 5.86077 6.84868 6.37389
#
# Compressibility (1/GPa) = 0.02268079
#
# Stress axis : x y z
#
# Youngs Moduli (GPa) = 104.42101 57.83613 112.60040
#
# Poissons Ratio (x) = 0.23258 0.28271
# Poissons Ratio (y) = 0.41992 0.00016
# Poissons Ratio (z) = 0.26218 0.00008
#
# Static dielectric constant tensor:
#      x y z
#    x 2.254190 0.000000 -0.091150 
#    y 0.000000 2.104970 0.000000 
#    z -0.091150 0.000000 2.228710 
# 
# From -- ./inp_files/1903.got.cif
#   From: 2010.05.17/outbox.cif.g08.bks.cpg/sg15_1_cif.got.tgz:1903.got - 2010.06.03 18:47:42.
