data_PCOD9299884
_publ_section_title
;
Structure prediction by ZEFSAII (Michael W. Deem and Ramdas Pophale) SiO2 
 PCOD9299884
Probable space group: C 2/C
;
_chemical_formula_sum "Si O2"
_cell_formula_units_Z 40
_cell_length_a 18.943412
_cell_length_b 10.522409
_cell_length_c 8.863459
_cell_angle_alpha 90.000000
_cell_angle_beta 67.971942
_cell_angle_gamma 90.000000
_cell_volume 1637.783520
_symmetry_space_group_name_H-M "C 2/C"
_symmetry_group_IT_number 15
_symmetry_cell_setting 'monoclinic'
loop_
_space_group_symop_operation_xyz
x,y,z
-x,y,1/2-z
-x,-y,-z
x,-y,1/2+z
1/2+x,1/2+y,z
1/2-x,1/2+y,1/2-z
1/2-x,1/2-y,-z
1/2+x,1/2-y,1/2+z
loop_
_atom_site_type_symbol
_atom_site_label
_atom_site_fract_x
_atom_site_fract_y
_atom_site_fract_z
Si Si1 0.790954 0.861523 0.642215
Si Si2 0.113004 0.402510 0.749684
Si Si3 0.400805 0.836707 0.079906
Si Si4 0.957094 0.829159 0.016714
Si Si5 0.615385 0.501892 0.182263
O O1 0.704200 0.888637 0.676659
O O2 0.814836 0.717010 0.658866
O O3 0.819793 0.942304 0.761069
O O4 0.843223 0.900157 0.458311
O O5 0.083668 0.375615 0.605125
O O6 0.089572 0.542126 0.822743
O O7 0.084581 0.297480 0.890944
O O8 0.457369 0.720811 0.074490
O O9 0.945407 0.931166 0.160961
O O10 0.918760 0.892083 0.901980
#
# Coordination Sequence:
#
# PCOD9299884 Si02
#       5
#     8   8   8   8   8
#     4  11  25  46  76 108 144 191 248 305 363 436
#     4  12  27  48  73 108 152 193 243 301 372 437
#     4  12  28  48  73 106 152 195 244 298 371 439
#     4  11  26  49  73 110 150 190 247 303 367 436
#     4  10  25  47  78 108 143 189 253 305 364 429
#
# _framework density 24.423252999999999
#
# number of rings (size 3 to 8) (size 9 to 14) (size 15 to 20)
#    0.000    0.800    2.000    3.000    8.400    6.400 
#    0.000    0.000    0.000    0.000    0.000    0.000 
#    0.000    0.000    0.000    0.000    0.000    0.000 
#
# Total GULP energy -112239.903380 kJ/mol
# GULP energy per Si atom -5611.995169 kJ/mol
# Density = 2.436766 g / cm^3
# Si number density = 24.423253 Si / 1000 Ang^3
#
#
#
# Elastic Constant Matrix: (Units=GPa)
#
#
# Indices 1 2 3 4 5 6 
#
# 1 97.8276 16.8225 30.0376 0.0000 3.3432 0.0000
# 2 16.8225 120.4761 32.1006 0.0000 12.7412 0.0000
# 3 30.0376 32.1006 104.4762 0.0000 18.8691 0.0000
# 4 0.0000 0.0000 0.0000 56.8203 0.0000 0.3145
# 5 3.3432 12.7412 18.8691 0.0000 39.5792 0.0000
# 6 0.0000 0.0000 0.0000 0.3145 0.0000 41.2357
#
#
#
# Elastic Compliance Matrix: (Units=1/GPa)
#
#
# Indices 1 2 3 4 5 6 
#
# 1 0.011301 -0.000827 -0.003141 0.000000 0.000809 0.000000
# 2 -0.000827 0.009211 -0.002265 0.000000 -0.001816 0.000000
# 3 -0.003141 -0.002265 0.012026 0.000000 -0.004739 0.000000
# 4 0.000000 0.000000 0.000000 0.017600 0.000000 -0.000134
# 5 0.000809 -0.001816 -0.004739 0.000000 0.028041 0.000000
# 6 0.000000 0.000000 0.000000 -0.000134 0.000000 0.024252
#
#
# Mechanical properties :
#
#
# Convention : Reuss Voigt Hill
#
# Bulk Modulus (GPa) = 49.81613 53.41127 51.61370
# Shear Modulus (GPa) = 41.12241 43.78166 42.45204
#
# Velocity S-wave (km/s) = 4.10779 4.23853 4.17367
# Velocity P-wave (km/s) = 6.55285 6.77274 6.66370
#
# Compressibility (1/GPa) = 0.02007382
#
# Stress axis : x y z
#
# Youngs Moduli (GPa) = 88.48717 108.56291 83.15031
#
# Poissons Ratio (x) = 0.08974 0.26120
# Poissons Ratio (y) = 0.07314 0.18830
# Poissons Ratio (z) = 0.27796 0.24585
#
# Static dielectric constant tensor:
#      x y z
#    x 1.960720 0.000000 -0.045450 
#    y 0.000000 1.925370 0.000000 
#    z -0.045450 0.000000 1.909530 
# 
# From -- ./inp_files/46080.got.cif
#   From: 2010.05.17/outbox.cif.g08.bks.cpg/sg15_24_cif.got.tgz:46080.got - 2010.06.03 18:47:42.
