data_PCOD9299762
_publ_section_title
;
Structure prediction by ZEFSAII (Michael W. Deem and Ramdas Pophale) SiO2 
 PCOD9299762
Probable space group: C 2/C
;
_chemical_formula_sum "Si O2"
_cell_formula_units_Z 48
_cell_length_a 11.667776
_cell_length_b 7.969100
_cell_length_c 23.939455
_cell_angle_alpha 90.000000
_cell_angle_beta 112.998683
_cell_angle_gamma 90.000000
_cell_volume 2048.999906
_symmetry_space_group_name_H-M "C 2/C"
_symmetry_group_IT_number 15
_symmetry_cell_setting 'monoclinic'
loop_
_space_group_symop_operation_xyz
x,y,z
-x,y,1/2-z
-x,-y,-z
x,-y,1/2+z
1/2+x,1/2+y,z
1/2-x,1/2+y,1/2-z
1/2-x,1/2-y,-z
1/2+x,1/2-y,1/2+z
loop_
_atom_site_type_symbol
_atom_site_label
_atom_site_fract_x
_atom_site_fract_y
_atom_site_fract_z
Si Si1 0.676784 0.128219 0.438460
Si Si2 0.332364 0.843949 0.334312
Si Si3 0.146477 0.538632 0.273076
Si Si4 0.551806 0.323528 0.492994
Si Si5 0.392081 0.190510 0.638467
Si Si6 0.324146 0.929321 0.944899
O O1 0.592956 0.288392 0.436700
O O2 0.816753 0.171949 0.449200
O O3 0.613322 0.997293 0.387328
O O4 0.689152 0.031654 0.500258
O O5 0.229403 0.695219 0.310708
O O6 0.466460 0.757401 0.346081
O O7 0.315240 0.982215 0.281851
O O8 0.338533 0.954844 0.392511
O O9 0.151558 0.359415 0.307762
O O10 0.000000 0.586208 0.250000
O O11 0.500000 0.500000 0.500000
O O12 0.445182 0.185891 0.480371
O O13 0.293179 0.308894 0.589327
#
# Coordination Sequence:
#
# PCOD9299762 Si02
#       6
#     8   8   8   8   8   8
#     4  11  25  40  62  97 137 169 217 258 316 389
#     4  11  25  44  69  91 127 167 216 275 326 388
#     4  10  25  46  67  91 125 164 218 273 329 383
#     4  11  24  40  63  90 136 177 213 256 316 381
#     4  11  24  42  65  97 129 167 216 267 317 392
#     4  12  25  39  65  98 132 172 216 259 327 386
#
# _framework density 23.426062999999999
#
# number of rings (size 3 to 8) (size 9 to 14) (size 15 to 20)
#    0.000    1.000    3.333    2.000    4.667    2.667 
#    0.000    0.000    0.000    0.000    0.000    0.000 
#    0.000    0.000    0.000    0.000    0.000    0.000 
#
# Total GULP energy -133950.406264 kJ/mol
# GULP energy per Si atom -5581.266928 kJ/mol
# Density = 2.337274 g / cm^3
# Si number density = 23.426063 Si / 1000 Ang^3
#
#
#
# Elastic Constant Matrix: (Units=GPa)
#
#
# Indices 1 2 3 4 5 6 
#
# 1 123.9573 69.7728 24.7860 0.0000 29.3476 0.0000
# 2 69.7728 105.9311 30.1482 0.0000 6.4527 0.0000
# 3 24.7860 30.1482 100.7538 0.0000 -6.4184 0.0000
# 4 0.0000 0.0000 0.0000 43.5414 0.0000 11.5246
# 5 29.3476 6.4527 -6.4184 0.0000 38.3323 0.0000
# 6 0.0000 0.0000 0.0000 11.5246 0.0000 46.4972
#
#
#
# Elastic Compliance Matrix: (Units=1/GPa)
#
#
# Indices 1 2 3 4 5 6 
#
# 1 0.016610 -0.009702 -0.001909 0.000000 -0.011403 0.000000
# 2 -0.009702 0.016187 -0.002180 0.000000 0.004338 0.000000
# 3 -0.001909 -0.002180 0.011284 0.000000 0.003718 0.000000
# 4 0.000000 0.000000 0.000000 0.024579 0.000000 -0.006092
# 5 -0.011403 0.004338 0.003718 0.000000 0.034711 0.000000
# 6 0.000000 0.000000 0.000000 -0.006092 0.000000 0.023017
#
#
# Mechanical properties :
#
#
# Convention : Reuss Voigt Hill
#
# Bulk Modulus (GPa) = 60.61721 64.45070 62.53396
# Shear Modulus (GPa) = 31.35363 39.40321 35.37842
#
# Velocity S-wave (km/s) = 3.66240 4.10570 3.89037
# Velocity P-wave (km/s) = 6.61939 7.07445 6.85070
#
# Compressibility (1/GPa) = 0.01649696
#
# Stress axis : x y z
#
# Youngs Moduli (GPa) = 60.20390 61.77793 88.61943
#
# Poissons Ratio (x) = 0.59940 0.16921
# Poissons Ratio (y) = 0.58413 0.19322
# Poissons Ratio (z) = 0.11495 0.13470
#
# Static dielectric constant tensor:
#      x y z
#    x 1.954870 0.000000 -0.055820 
#    y 0.000000 1.943290 0.000000 
#    z -0.055820 0.000000 1.972820 
# 
# From -- ./inp_files/267731.got.cif
#   From: 2010.05.17/outbox.cif.g08.bks.cpg/sg15_134_cif.got.tgz:267731.got - 2010.06.03 18:47:42.
