data_PCOD9299257
_publ_section_title
;
Structure prediction by ZEFSAII (Michael W. Deem and Ramdas Pophale) SiO2 
 PCOD9299257
Probable space group: C 2/C
;
_chemical_formula_sum "Si O2"
_cell_formula_units_Z 32
_cell_length_a 16.086137
_cell_length_b 18.172605
_cell_length_c 10.997851
_cell_angle_alpha 90.000000
_cell_angle_beta 157.271712
_cell_angle_gamma 90.000000
_cell_volume 1242.140124
_symmetry_space_group_name_H-M "C 2/C"
_symmetry_group_IT_number 15
_symmetry_cell_setting 'monoclinic'
loop_
_space_group_symop_operation_xyz
x,y,z
-x,y,1/2-z
-x,-y,-z
x,-y,1/2+z
1/2+x,1/2+y,z
1/2-x,1/2+y,1/2-z
1/2-x,1/2-y,-z
1/2+x,1/2-y,1/2+z
loop_
_atom_site_type_symbol
_atom_site_label
_atom_site_fract_x
_atom_site_fract_y
_atom_site_fract_z
Si Si1 0.462251 0.178851 0.340967
Si Si2 0.000000 0.620753 0.750000
Si Si3 0.500000 0.500000 0.500000
Si Si4 0.120235 0.840904 0.567581
Si Si5 0.306241 0.055606 0.709616
O O1 0.500000 0.163455 0.250000
O O2 0.233205 0.153470 0.087137
O O3 0.489968 0.265443 0.401753
O O4 0.636900 0.133740 0.653342
O O5 0.160349 0.567987 0.889100
O O6 0.836584 0.665058 0.445185
O O7 0.502135 0.413197 0.454535
O O8 0.608461 0.524448 0.515651
O O9 0.500000 0.000000 0.000000
#
# Coordination Sequence:
#
# PCOD9299257 Si02
#       5
#     8   4   4   8   8
#     4  11  24  47  74 109 153 194 252 319 371 449
#     4  10  24  48  70 104 156 192 248 318 364 456
#     4  12  24  46  70 108 150 200 254 294 380 458
#     4  11  25  45  72 110 148 202 250 308 384 441
#     4  11  24  45  71 107 152 198 246 308 375 445
#
# _framework density 25.761990000000001
#
# number of rings (size 3 to 8) (size 9 to 14) (size 15 to 20)
#    0.000    1.000    5.000    2.250    1.750    5.000 
#    9.000    0.000    0.000    0.000    0.000    0.000 
#    0.000    0.000    0.000    0.000    0.000    0.000 
#
# Total GULP energy -89109.013238 kJ/mol
# GULP energy per Si atom -5569.313327 kJ/mol
# Density = 2.570335 g / cm^3
# Si number density = 25.761990 Si / 1000 Ang^3
#
#
#
# Elastic Constant Matrix: (Units=GPa)
#
#
# Indices 1 2 3 4 5 6 
#
# 1 254.1475 59.7853 42.3004 0.0000 41.8366 0.0000
# 2 59.7853 129.3635 5.1733 0.0000 12.8890 0.0000
# 3 42.3004 5.1733 59.1497 0.0000 21.1854 0.0000
# 4 0.0000 0.0000 0.0000 21.0047 0.0000 16.4534
# 5 41.8366 12.8890 21.1854 0.0000 41.2587 0.0000
# 6 0.0000 0.0000 0.0000 16.4534 0.0000 51.0726
#
#
#
# Elastic Compliance Matrix: (Units=1/GPa)
#
#
# Indices 1 2 3 4 5 6 
#
# 1 0.005409 -0.002044 -0.002394 0.000000 -0.003617 0.000000
# 2 -0.002044 0.008753 0.001143 0.000000 -0.001249 0.000000
# 3 -0.002394 0.001143 0.021783 0.000000 -0.009115 0.000000
# 4 0.000000 0.000000 0.000000 0.063678 0.000000 -0.020514
# 5 -0.003617 -0.001249 -0.009115 0.000000 0.032976 0.000000
# 6 0.000000 0.000000 0.000000 -0.020514 0.000000 0.026189
#
#
# Mechanical properties :
#
#
# Convention : Reuss Voigt Hill
#
# Bulk Modulus (GPa) = 34.06360 73.01986 53.54173
# Shear Modulus (GPa) = 28.54491 45.02730 36.78610
#
# Velocity S-wave (km/s) = 3.33231 4.18523 3.78288
# Velocity P-wave (km/s) = 5.29687 7.19447 6.31733
#
# Compressibility (1/GPa) = 0.02935685
#
# Stress axis : x y z
#
# Youngs Moduli (GPa) = 184.86074 114.24072 45.90747
#
# Poissons Ratio (x) = 0.23349 0.10991
# Poissons Ratio (y) = 0.37782 -0.05249
# Poissons Ratio (z) = 0.44258 -0.13063
#
# Static dielectric constant tensor:
#      x y z
#    x 2.080810 0.000000 -0.096940 
#    y 0.000000 1.946610 0.000000 
#    z -0.096940 0.000000 2.230110 
# 
# From -- ./inp_files/98592.got.cif
#   From: 2010.05.17/outbox.cif.g08.bks.cpg/sg15_50_cif.got.tgz:98592.got - 2010.06.03 18:47:42.
