data_PCOD9299666
_publ_section_title
;
Structure prediction by ZEFSAII (Michael W. Deem and Ramdas Pophale) SiO2 
 PCOD9299666
Probable space group: C 2/C
;
_chemical_formula_sum "Si O2"
_cell_formula_units_Z 40
_cell_length_a 15.063411
_cell_length_b 5.277494
_cell_length_c 19.599280
_cell_angle_alpha 90.000000
_cell_angle_beta 112.503015
_cell_angle_gamma 90.000000
_cell_volume 1439.451612
_symmetry_space_group_name_H-M "C 2/C"
_symmetry_group_IT_number 15
_symmetry_cell_setting 'monoclinic'
loop_
_space_group_symop_operation_xyz
x,y,z
-x,y,1/2-z
-x,-y,-z
x,-y,1/2+z
1/2+x,1/2+y,z
1/2-x,1/2+y,1/2-z
1/2-x,1/2-y,-z
1/2+x,1/2-y,1/2+z
loop_
_atom_site_type_symbol
_atom_site_label
_atom_site_fract_x
_atom_site_fract_y
_atom_site_fract_z
Si Si1 0.770115 0.293019 0.395704
Si Si2 0.120961 0.980336 0.258729
Si Si3 0.356574 0.283053 0.477466
Si Si4 0.058184 0.733068 0.848909
Si Si5 0.906067 0.377413 0.855206
O O1 0.664811 0.305523 0.332660
O O2 0.790135 0.532562 0.451320
O O3 0.841676 0.376371 0.355128
O O4 0.801608 0.036274 0.439900
O O5 0.130366 0.242030 0.305836
O O6 0.017836 0.044646 0.192853
O O7 0.159584 0.820367 0.205292
O O8 0.401751 0.285291 0.564729
O O9 0.432262 0.235321 0.437292
O O10 0.994216 0.482903 0.837911
#
# Coordination Sequence:
#
# PCOD9299666 Si02
#       5
#     8   8   8   8   8
#     4  10  26  46  77 109 145 202 261 308 378 459
#     4  11  27  45  73 110 156 198 250 321 383 458
#     4  10  25  47  80 107 147 203 260 315 372 465
#     4  11  26  48  71 112 156 200 251 320 393 448
#     4  10  25  44  77 106 150 199 258 309 374 461
#
# _framework density 27.788363
#
# number of rings (size 3 to 8) (size 9 to 14) (size 15 to 20)
#    1.200    0.400    0.000    1.800   11.200    6.400 
#    0.000    0.000    0.000    0.000    0.000    0.000 
#    0.000    0.000    0.000    0.000    0.000    0.000 
#
# Total GULP energy -111420.426856 kJ/mol
# GULP energy per Si atom -5571.021343 kJ/mol
# Density = 2.772512 g / cm^3
# Si number density = 27.788363 Si / 1000 Ang^3
#
#
#
# Elastic Constant Matrix: (Units=GPa)
#
#
# Indices 1 2 3 4 5 6 
#
# 1 96.7954 47.6995 45.7838 0.0000 -16.2613 0.0000
# 2 47.6995 205.9516 84.7449 -0.0001 2.2071 0.0000
# 3 45.7838 84.7449 263.2626 0.0000 1.9159 -0.0001
# 4 0.0000 -0.0001 0.0000 16.5213 0.0000 2.1295
# 5 -16.2613 2.2071 1.9159 0.0000 53.7948 0.0000
# 6 0.0000 0.0000 -0.0001 2.1295 0.0000 12.4315
#
#
#
# Elastic Compliance Matrix: (Units=1/GPa)
#
#
# Indices 1 2 3 4 5 6 
#
# 1 0.012912 -0.002418 -0.001497 0.000000 0.004056 0.000000
# 2 -0.002418 0.006051 -0.001521 0.000000 -0.000925 0.000000
# 3 -0.001497 -0.001521 0.004552 0.000000 -0.000552 0.000000
# 4 0.000000 0.000000 0.000000 0.061894 0.000000 -0.010602
# 5 0.004056 -0.000925 -0.000552 0.000000 0.019873 0.000000
# 6 0.000000 0.000000 0.000000 -0.010602 0.000000 0.082257
#
#
# Mechanical properties :
#
#
# Convention : Reuss Voigt Hill
#
# Bulk Modulus (GPa) = 79.08482 102.49622 90.79052
# Shear Modulus (GPa) = 24.67615 42.40163 33.53889
#
# Velocity S-wave (km/s) = 2.98317 3.91049 3.47787
# Velocity P-wave (km/s) = 6.35509 7.57323 6.99075
#
# Compressibility (1/GPa) = 0.01264465
#
# Stress axis : x y z
#
# Youngs Moduli (GPa) = 77.44803 165.25721 219.67035
#
# Poissons Ratio (x) = 0.39961 0.32876
# Poissons Ratio (y) = 0.18728 0.33404
# Poissons Ratio (z) = 0.11591 0.25129
#
# Static dielectric constant tensor:
#      x y z
#    x 2.695240 0.000000 -0.130490 
#    y 0.000000 2.136910 0.000000 
#    z -0.130490 0.000000 2.101340 
# 
# From -- ./inp_files/250648.got.cif
#   From: 2010.05.17/outbox.cif.g08.bks.cpg/sg15_126_cif.got.tgz:250648.got - 2010.06.03 18:47:42.
