data_PCOD9299139
_publ_section_title
;
Structure prediction by ZEFSAII (Michael W. Deem and Ramdas Pophale) SiO2 
 PCOD9299139
Probable space group: C 2/C
;
_chemical_formula_sum "Si O2"
_cell_formula_units_Z 60
_cell_length_a 8.000955
_cell_length_b 21.204620
_cell_length_c 20.370369
_cell_angle_alpha 90.000000
_cell_angle_beta 51.087894
_cell_angle_gamma 90.000000
_cell_volume 2689.134134
_symmetry_space_group_name_H-M "C 2/C"
_symmetry_group_IT_number 15
_symmetry_cell_setting 'monoclinic'
loop_
_space_group_symop_operation_xyz
x,y,z
-x,y,1/2-z
-x,-y,-z
x,-y,1/2+z
1/2+x,1/2+y,z
1/2-x,1/2+y,1/2-z
1/2-x,1/2-y,-z
1/2+x,1/2-y,1/2+z
loop_
_atom_site_type_symbol
_atom_site_label
_atom_site_fract_x
_atom_site_fract_y
_atom_site_fract_z
Si Si1 0.052084 0.880526 0.364142
Si Si2 0.438911 0.138013 0.199106
Si Si3 0.075218 0.778445 0.843210
Si Si4 0.352099 0.411404 0.543080
Si Si5 0.175227 0.288499 0.453936
Si Si6 0.500000 0.180670 0.750000
Si Si7 0.358003 0.495060 0.935981
Si Si8 0.788685 0.377951 0.596792
O O1 0.290938 0.861156 0.289409
O O2 0.024110 0.880899 0.451044
O O3 0.880918 0.829792 0.381167
O O4 0.976813 0.951011 0.364375
O O5 0.500000 0.099357 0.250000
O O6 0.745868 0.036188 0.021019
O O7 0.676663 0.138343 0.109260
O O8 0.307643 0.198560 0.258004
O O9 0.977566 0.726466 0.818193
O O10 0.920506 0.838930 0.875003
O O11 0.091795 0.750474 0.911932
O O12 0.465423 0.451540 0.571175
O O13 0.250000 0.250000 0.500000
O O14 0.988796 0.336243 0.523109
O O15 0.212021 0.446623 0.934308
O O16 0.204505 0.384499 0.826085
#
# Coordination Sequence:
#
# PCOD9299139 Si02
#       8
#     8   8   8   8   8   4   8   8
#     4  10  24  47  70 106 142 197 242 299 376 443
#     4  12  24  43  70 106 148 190 241 308 369 434
#     4  12  28  43  69 111 148 193 242 309 374 441
#     4   9  21  44  73 104 141 189 243 297 367 441
#     4  12  27  43  75 106 145 197 249 302 369 442
#     4  12  26  48  74  98 160 188 242 312 374 446
#     4   9  22  44  77 108 140 184 256 306 361 449
#     4  12  23  47  75 111 144 192 256 310 370 445
#
# _framework density 22.312013
#
# number of rings (size 3 to 8) (size 9 to 14) (size 15 to 20)
#    0.800    0.267    2.667    2.800    5.600    2.133 
#    3.600    0.000    5.867    0.000    0.000    0.000 
#    0.000    0.000    0.000    0.000    0.000    0.000 
#
# Total GULP energy -167405.901763 kJ/mol
# GULP energy per Si atom -5580.196725 kJ/mol
# Density = 2.226123 g / cm^3
# Si number density = 22.312013 Si / 1000 Ang^3
#
#
#
# Elastic Constant Matrix: (Units=GPa)
#
#
# Indices 1 2 3 4 5 6 
#
# 1 138.1761 62.1687 23.9200 0.0000 21.5529 0.0000
# 2 62.1687 99.6955 34.1900 0.0000 6.5882 0.0000
# 3 23.9200 34.1900 60.8151 0.0000 -3.0013 0.0000
# 4 0.0000 0.0000 0.0000 20.8266 0.0000 -6.1494
# 5 21.5529 6.5882 -3.0013 0.0000 50.5788 0.0000
# 6 0.0000 0.0000 0.0000 -6.1494 0.0000 46.1950
#
#
#
# Elastic Compliance Matrix: (Units=1/GPa)
#
#
# Indices 1 2 3 4 5 6 
#
# 1 0.010760 -0.006119 -0.000982 0.000000 -0.003846 0.000000
# 2 -0.006119 0.016119 -0.006650 0.000000 0.000113 0.000000
# 3 -0.000982 -0.006650 0.020692 0.000000 0.002513 0.000000
# 4 0.000000 0.000000 0.000000 0.049980 0.000000 0.006653
# 5 -0.003846 0.000113 0.002513 0.000000 0.021545 0.000000
# 6 0.000000 0.000000 0.000000 0.006653 0.000000 0.022533
#
#
# Mechanical properties :
#
#
# Convention : Reuss Voigt Hill
#
# Bulk Modulus (GPa) = 49.82599 59.91602 54.87101
# Shear Modulus (GPa) = 28.43810 35.41397 31.92603
#
# Velocity S-wave (km/s) = 3.57398 3.98831 3.78681
# Velocity P-wave (km/s) = 6.27782 6.93692 6.61558
#
# Compressibility (1/GPa) = 0.02006985
#
# Stress axis : x y z
#
# Youngs Moduli (GPa) = 92.93542 62.03753 48.32774
#
# Poissons Ratio (x) = 0.37960 0.04746
# Poissons Ratio (y) = 0.56866 0.32137
# Poissons Ratio (z) = 0.09126 0.41254
#
# Static dielectric constant tensor:
#      x y z
#    x 1.870640 0.000000 0.012600 
#    y 0.000000 1.827390 0.000000 
#    z 0.012600 0.000000 1.845000 
# 
# From -- ./inp_files/266216.got.cif
#   From: 2010.05.17/outbox.cif.g08.bks.cpg/sg15_134_cif.got.tgz:266216.got - 2010.06.03 18:47:42.
