data_PCOD9299084
_publ_section_title
;
Structure prediction by ZEFSAII (Michael W. Deem and Ramdas Pophale) SiO2 
 PCOD9299084
Probable space group: C 2/C
;
_chemical_formula_sum "Si O2"
_cell_formula_units_Z 44
_cell_length_a 11.115745
_cell_length_b 20.762718
_cell_length_c 8.732024
_cell_angle_alpha 90.000000
_cell_angle_beta 67.099553
_cell_angle_gamma 90.000000
_cell_volume 1856.450266
_symmetry_space_group_name_H-M "C 2/C"
_symmetry_group_IT_number 15
_symmetry_cell_setting 'monoclinic'
loop_
_space_group_symop_operation_xyz
x,y,z
-x,y,1/2-z
-x,-y,-z
x,-y,1/2+z
1/2+x,1/2+y,z
1/2-x,1/2+y,1/2-z
1/2-x,1/2-y,-z
1/2+x,1/2-y,1/2+z
loop_
_atom_site_type_symbol
_atom_site_label
_atom_site_fract_x
_atom_site_fract_y
_atom_site_fract_z
Si Si1 0.000000 0.780023 0.250000
Si Si2 0.611700 0.187936 0.962603
Si Si3 0.045566 0.433368 0.051741
Si Si4 0.500000 0.719678 0.250000
Si Si5 0.687180 0.393850 0.704258
Si Si6 0.500000 0.496607 0.250000
Si Si7 0.650239 0.621620 0.551189
O O1 0.900538 0.729087 0.375914
O O2 0.981052 0.834812 0.393133
O O3 0.520373 0.125480 0.005906
O O4 0.556355 0.233174 0.853774
O O5 0.756892 0.158607 0.873576
O O6 0.000000 0.430985 0.250000
O O7 0.199678 0.422061 0.956238
O O8 0.000000 0.500000 0.000000
O O9 0.382002 0.668338 0.336369
O O10 0.586188 0.451305 0.796948
O O11 0.729316 0.375626 0.854678
O O12 0.395753 0.448554 0.377078
#
# Coordination Sequence:
#
# PCOD9299084 Si02
#       7
#     4   8   8   4   8   4   8
#     4  11  24  41  77 110 145 196 250 302 377 450
#     4  12  25  47  72 110 152 197 251 309 377 456
#     4  12  30  49  73 110 148 205 253 314 380 450
#     4  11  26  47  75 116 147 198 248 312 387 440
#     4  11  25  48  77 108 159 192 258 314 379 451
#     4  10  24  46  78 110 148 198 258 312 374 442
#     4  11  24  45  74 114 151 199 249 310 377 452
#
# _framework density 23.701146000000001
#
# number of rings (size 3 to 8) (size 9 to 14) (size 15 to 20)
#    0.000    0.727    2.727    3.273    8.909    2.182 
#    3.273    0.000    0.000    0.000    0.000    0.000 
#    0.000    0.000    0.000    0.000    0.000    0.000 
#
# Total GULP energy -122483.068974 kJ/mol
# GULP energy per Si atom -5567.412226 kJ/mol
# Density = 2.364720 g / cm^3
# Si number density = 23.701146 Si / 1000 Ang^3
#
#
#
# Elastic Constant Matrix: (Units=GPa)
#
#
# Indices 1 2 3 4 5 6 
#
# 1 71.0178 49.5524 -0.5308 0.0000 4.1581 0.0000
# 2 49.5524 192.6241 17.8821 0.0000 1.7242 0.0000
# 3 -0.5308 17.8821 58.1881 0.0000 -0.0367 0.0000
# 4 0.0000 0.0000 0.0000 27.9313 0.0000 -13.4526
# 5 4.1581 1.7242 -0.0367 0.0000 25.0911 0.0000
# 6 0.0000 0.0000 0.0000 -13.4526 0.0000 22.4678
#
#
#
# Elastic Compliance Matrix: (Units=1/GPa)
#
#
# Indices 1 2 3 4 5 6 
#
# 1 0.017464 -0.004616 0.001576 0.000000 -0.002575 0.000000
# 2 -0.004616 0.006567 -0.002060 0.000000 0.000311 0.000000
# 3 0.001576 -0.002060 0.017833 0.000000 -0.000094 0.000000
# 4 0.000000 0.000000 0.000000 0.050311 0.000000 0.030123
# 5 -0.002575 0.000311 -0.000094 0.000000 0.040260 0.000000
# 6 0.000000 0.000000 0.000000 0.030123 0.000000 0.062545
#
#
# Mechanical properties :
#
#
# Convention : Reuss Voigt Hill
#
# Bulk Modulus (GPa) = 31.58064 50.62640 41.10352
# Shear Modulus (GPa) = 23.17662 32.09312 27.63487
#
# Velocity S-wave (km/s) = 3.13048 3.68377 3.41834
# Velocity P-wave (km/s) = 5.14004 6.28492 5.74109
#
# Compressibility (1/GPa) = 0.03166497
#
# Stress axis : x y z
#
# Youngs Moduli (GPa) = 57.25977 152.26764 56.07554
#
# Poissons Ratio (x) = 0.70286 -0.08839
# Poissons Ratio (y) = 0.26431 0.11553
# Poissons Ratio (z) = -0.09026 0.31370
#
# Static dielectric constant tensor:
#      x y z
#    x 2.088990 0.000000 -0.030900 
#    y 0.000000 1.856870 0.000000 
#    z -0.030900 0.000000 1.991180 
# 
# From -- ./inp_files/30795.got.cif
#   From: 2010.05.17/outbox.cif.g08.bks.cpg/sg15_16_cif.got.tgz:30795.got - 2010.06.03 18:47:42.
