data_PCOD9299080
_publ_section_title
;
Structure prediction by ZEFSAII (Michael W. Deem and Ramdas Pophale) SiO2 
 PCOD9299080
Probable space group: C 2/C
;
_chemical_formula_sum "Si O2"
_cell_formula_units_Z 28
_cell_length_a 5.368857
_cell_length_b 17.834532
_cell_length_c 12.779898
_cell_angle_alpha 90.000000
_cell_angle_beta 66.323527
_cell_angle_gamma 90.000000
_cell_volume 1120.687822
_symmetry_space_group_name_H-M "C 2/C"
_symmetry_group_IT_number 15
_symmetry_cell_setting 'monoclinic'
loop_
_space_group_symop_operation_xyz
x,y,z
-x,y,1/2-z
-x,-y,-z
x,-y,1/2+z
1/2+x,1/2+y,z
1/2-x,1/2+y,1/2-z
1/2-x,1/2-y,-z
1/2+x,1/2-y,1/2+z
loop_
_atom_site_type_symbol
_atom_site_label
_atom_site_fract_x
_atom_site_fract_y
_atom_site_fract_z
Si Si1 0.500000 0.664194 0.750000
Si Si2 0.329333 0.804846 0.679299
Si Si3 0.214241 0.967156 0.314080
Si Si4 0.274180 0.935323 0.536052
O O1 0.461482 0.721067 0.659752
O O2 0.271116 0.600681 0.773909
O O3 0.500000 0.835972 0.750000
O O4 0.367477 0.858665 0.574242
O O5 0.000000 0.797391 0.750000
O O6 0.500000 0.006006 0.250000
O O7 0.182779 0.927733 0.431879
O O8 0.977856 0.028644 0.358252
O O9 0.500000 0.000000 0.500000
#
# Coordination Sequence:
#
# PCOD9299080 Si02
#       4
#     4   8   8   8
#     4  10  24  46  78 102 156 198 246 308 382 442
#     4  10  26  46  73 108 152 198 246 309 371 451
#     4  11  25  45  74 111 151 196 252 313 372 448
#     4  11  27  43  73 115 147 197 252 309 378 445
#
# _framework density 24.984653999999999
#
# number of rings (size 3 to 8) (size 9 to 14) (size 15 to 20)
#    0.857    0.571    0.000    2.571   14.000    1.143 
#    0.000    7.143    0.000    0.000    0.000    0.000 
#    0.000    0.000    0.000    0.000    0.000    0.000 
#
# Total GULP energy -77987.789997 kJ/mol
# GULP energy per Si atom -5570.556428 kJ/mol
# Density = 2.492779 g / cm^3
# Si number density = 24.984654 Si / 1000 Ang^3
#
#
#
# Elastic Constant Matrix: (Units=GPa)
#
#
# Indices 1 2 3 4 5 6 
#
# 1 125.4510 33.6328 32.7088 0.0000 -17.7494 0.0000
# 2 33.6328 170.4654 17.9080 0.0000 -0.7729 0.0000
# 3 32.7088 17.9080 80.9492 0.0000 -7.2849 0.0000
# 4 0.0000 0.0000 0.0000 40.5807 0.0000 20.9590
# 5 -17.7494 -0.7729 -7.2849 0.0000 53.8281 0.0000
# 6 0.0000 0.0000 0.0000 20.9590 0.0000 43.1320
#
#
#
# Elastic Compliance Matrix: (Units=1/GPa)
#
#
# Indices 1 2 3 4 5 6 
#
# 1 0.009629 -0.001540 -0.003307 0.000000 0.002705 0.000000
# 2 -0.001540 0.006253 -0.000808 0.000000 -0.000527 0.000000
# 3 -0.003307 -0.000808 0.013939 0.000000 0.000785 0.000000
# 4 0.000000 0.000000 0.000000 0.032899 0.000000 -0.015986
# 5 0.002705 -0.000527 0.000785 0.000000 0.019568 0.000000
# 6 0.000000 0.000000 0.000000 -0.015986 0.000000 0.030953
#
#
# Mechanical properties :
#
#
# Convention : Reuss Voigt Hill
#
# Bulk Modulus (GPa) = 54.02364 60.59609 57.30986
# Shear Modulus (GPa) = 38.24931 47.01589 42.63260
#
# Velocity S-wave (km/s) = 3.91693 4.34267 4.13528
# Velocity P-wave (km/s) = 6.49047 7.03214 6.76673
#
# Compressibility (1/GPa) = 0.01851042
#
# Stress axis : x y z
#
# Youngs Moduli (GPa) = 103.85229 159.93083 71.74149
#
# Poissons Ratio (x) = 0.24632 0.23722
# Poissons Ratio (y) = 0.15995 0.05800
# Poissons Ratio (z) = 0.34339 0.12929
#
# Static dielectric constant tensor:
#      x y z
#    x 2.309490 0.000000 0.119860 
#    y 0.000000 1.913200 0.000000 
#    z 0.119860 0.000000 2.033810 
# 
# From -- ./inp_files/128254.got.cif
#   From: 2010.05.17/outbox.cif.g08.bks.cpg/sg15_65_cif.got.tgz:128254.got - 2010.06.03 18:47:42.
