data_PCOD9299149
_publ_section_title
;
Structure prediction by ZEFSAII (Michael W. Deem and Ramdas Pophale) SiO2 
 PCOD9299149
Probable space group: C 2/C
;
_chemical_formula_sum "Si O2"
_cell_formula_units_Z 40
_cell_length_a 16.755294
_cell_length_b 8.338976
_cell_length_c 12.507374
_cell_angle_alpha 90.000000
_cell_angle_beta 98.353298
_cell_angle_gamma 90.000000
_cell_volume 1729.015563
_symmetry_space_group_name_H-M "C 2/C"
_symmetry_group_IT_number 15
_symmetry_cell_setting 'monoclinic'
loop_
_space_group_symop_operation_xyz
x,y,z
-x,y,1/2-z
-x,-y,-z
x,-y,1/2+z
1/2+x,1/2+y,z
1/2-x,1/2+y,1/2-z
1/2-x,1/2-y,-z
1/2+x,1/2-y,1/2+z
loop_
_atom_site_type_symbol
_atom_site_label
_atom_site_fract_x
_atom_site_fract_y
_atom_site_fract_z
Si Si1 0.344100 0.483613 0.741563
Si Si2 0.420903 0.916622 0.530325
Si Si3 0.219371 0.273610 0.114262
Si Si4 0.970202 0.865025 0.411621
Si Si5 0.157192 0.269457 0.447821
O O1 0.284317 0.620501 0.688385
O O2 0.299854 0.389087 0.828566
O O3 0.426334 0.554702 0.803503
O O4 0.358601 0.354408 0.650772
O O5 0.365055 0.864563 0.420316
O O6 0.456027 0.757944 0.594458
O O7 0.500000 0.000000 0.500000
O O8 0.369566 0.048458 0.585620
O O9 0.250000 0.250000 0.000000
O O10 0.898210 0.775665 0.461811
O O11 0.000000 0.000000 0.500000
O O12 0.250000 0.250000 0.500000
#
# Coordination Sequence:
#
# PCOD9299149 Si02
#       5
#     8   8   8   8   8
#     4  12  26  44  81 106 151 209 251 303 398 452
#     4  10  24  47  71 104 156 188 242 332 372 435
#     4  12  27  48  73 113 149 197 261 314 372 467
#     4  11  24  47  71 107 154 190 247 318 372 455
#     4  11  23  46  76 105 148 197 254 313 372 463
#
# _framework density 23.134553
#
# number of rings (size 3 to 8) (size 9 to 14) (size 15 to 20)
#    0.000    0.800    4.000    2.400    5.600    0.800 
#    0.000    2.000    0.000    0.000    0.000    0.000 
#    0.000    0.000    0.000    0.000    0.000    0.000 
#
# Total GULP energy -112021.484814 kJ/mol
# GULP energy per Si atom -5601.074241 kJ/mol
# Density = 2.308190 g / cm^3
# Si number density = 23.134553 Si / 1000 Ang^3
#
#
#
# Elastic Constant Matrix: (Units=GPa)
#
#
# Indices 1 2 3 4 5 6 
#
# 1 161.0029 82.1634 65.9362 0.0000 33.4139 0.0000
# 2 82.1634 157.8489 65.7074 0.0000 35.4655 0.0000
# 3 65.9362 65.7074 124.0483 0.0000 34.1168 0.0000
# 4 0.0000 0.0000 0.0000 57.2259 0.0000 6.1886
# 5 33.4139 35.4655 34.1168 0.0000 59.9029 0.0000
# 6 0.0000 0.0000 0.0000 6.1886 0.0000 65.1586
#
#
#
# Elastic Compliance Matrix: (Units=1/GPa)
#
#
# Indices 1 2 3 4 5 6 
#
# 1 0.009409 -0.003374 -0.002751 0.000000 -0.001684 0.000000
# 2 -0.003374 0.009753 -0.002730 0.000000 -0.002337 0.000000
# 3 -0.002751 -0.002730 0.011979 0.000000 -0.003672 0.000000
# 4 0.000000 0.000000 0.000000 0.017656 0.000000 -0.001677
# 5 -0.001684 -0.002337 -0.003672 0.000000 0.021108 0.000000
# 6 0.000000 0.000000 0.000000 -0.001677 0.000000 0.015506
#
#
# Mechanical properties :
#
#
# Convention : Reuss Voigt Hill
#
# Bulk Modulus (GPa) = 74.44906 96.72380 85.58643
# Shear Modulus (GPa) = 46.46894 51.73037 49.09965
#
# Velocity S-wave (km/s) = 4.48664 4.73384 4.61190
# Velocity P-wave (km/s) = 7.68705 8.47224 8.08918
#
# Compressibility (1/GPa) = 0.01343200
#
# Stress axis : x y z
#
# Youngs Moduli (GPa) = 106.28100 102.53309 83.47668
#
# Poissons Ratio (x) = 0.34596 0.22963
# Poissons Ratio (y) = 0.35861 0.22787
# Poissons Ratio (z) = 0.29236 0.27989
#
# Static dielectric constant tensor:
#      x y z
#    x 1.854260 0.000000 -0.016910 
#    y 0.000000 2.175230 0.000000 
#    z -0.016910 0.000000 1.826850 
# 
# From -- ./inp_files/102864.got.cif
#   From: 2010.05.17/outbox.cif.g08.bks.cpg/sg15_52_cif.got.tgz:102864.got - 2010.06.03 18:47:42.
