data_PCOD9299233
_publ_section_title
;
Structure prediction by ZEFSAII (Michael W. Deem and Ramdas Pophale) SiO2 
 PCOD9299233
Probable space group: C 2/C
;
_chemical_formula_sum "Si O2"
_cell_formula_units_Z 52
_cell_length_a 19.891111
_cell_length_b 12.028877
_cell_length_c 19.553254
_cell_angle_alpha 90.000000
_cell_angle_beta 148.134805
_cell_angle_gamma 90.000000
_cell_volume 2469.865790
_symmetry_space_group_name_H-M "C 2/C"
_symmetry_group_IT_number 15
_symmetry_cell_setting 'monoclinic'
loop_
_space_group_symop_operation_xyz
x,y,z
-x,y,1/2-z
-x,-y,-z
x,-y,1/2+z
1/2+x,1/2+y,z
1/2-x,1/2+y,1/2-z
1/2-x,1/2-y,-z
1/2+x,1/2-y,1/2+z
loop_
_atom_site_type_symbol
_atom_site_label
_atom_site_fract_x
_atom_site_fract_y
_atom_site_fract_z
Si Si1 0.008403 0.493588 0.424568
Si Si2 0.917275 0.309085 0.748473
Si Si3 0.288560 0.404813 0.662127
Si Si4 0.839240 0.055880 0.487639
Si Si5 0.237737 0.649325 0.825873
Si Si6 0.406312 0.606858 0.841197
Si Si7 0.000000 0.988515 0.750000
O O1 0.147550 0.449499 0.524544
O O2 0.000000 0.500000 0.500000
O O3 0.983038 0.608523 0.361570
O O4 0.896317 0.409121 0.306994
O O5 0.783180 0.367230 0.614859
O O6 0.887338 0.195257 0.763134
O O7 0.000000 0.300705 0.750000
O O8 0.280241 0.276917 0.673050
O O9 0.345785 0.488150 0.768641
O O10 0.391673 0.417001 0.691980
O O11 0.941593 0.093945 0.518998
O O12 0.798483 0.929738 0.436395
O O13 0.921492 0.058886 0.627274
O O14 0.333063 0.645906 0.844278
#
# Coordination Sequence:
#
# PCOD9299233 Si02
#       7
#     8   8   8   8   8   8   4
#     4  11  23  46  72 105 140 183 236 294 353 415
#     4  11  26  45  72 105 140 186 234 291 352 423
#     4  11  25  43  71  98 140 182 231 281 351 422
#     4  10  25  46  70 101 137 182 235 285 352 421
#     4  11  25  45  71 103 135 185 233 292 348 415
#     4  11  25  42  72 102 140 178 227 293 351 417
#     4  10  24  48  66 102 138 184 232 284 348 418
#
# _framework density 21.053775000000002
#
# number of rings (size 3 to 8) (size 9 to 14) (size 15 to 20)
#    0.000    1.231    1.538    2.308   12.923    2.462 
#    5.538    0.000    0.000    0.000    0.000    0.000 
#    0.000    0.000    0.000    0.000    0.000    0.000 
#
# Total GULP energy -145338.959167 kJ/mol
# GULP energy per Si atom -5589.959968 kJ/mol
# Density = 2.100586 g / cm^3
# Si number density = 21.053775 Si / 1000 Ang^3
#
#
#
# Elastic Constant Matrix: (Units=GPa)
#
#
# Indices 1 2 3 4 5 6 
#
# 1 74.6749 7.8635 38.0893 0.0000 6.0621 0.0000
# 2 7.8635 111.7557 36.1492 0.0000 -9.1441 0.0000
# 3 38.0893 36.1492 118.2029 0.0001 7.0449 0.0000
# 4 0.0000 0.0000 0.0001 16.5334 0.0000 -3.7862
# 5 6.0621 -9.1441 7.0449 0.0000 39.7291 0.0000
# 6 0.0000 0.0000 0.0000 -3.7862 0.0000 26.3014
#
#
#
# Elastic Compliance Matrix: (Units=1/GPa)
#
#
# Indices 1 2 3 4 5 6 
#
# 1 0.016139 0.000446 -0.005252 0.000000 -0.001429 0.000000
# 2 0.000446 0.010274 -0.003459 0.000000 0.002910 0.000000
# 3 -0.005252 -0.003459 0.011330 0.000000 -0.002004 0.000000
# 4 0.000000 0.000000 0.000000 0.062545 0.000000 0.009004
# 5 -0.001429 0.002910 -0.002004 0.000000 0.026414 0.000000
# 6 0.000000 0.000000 0.000000 0.009004 0.000000 0.039317
#
#
# Mechanical properties :
#
#
# Convention : Reuss Voigt Hill
#
# Bulk Modulus (GPa) = 47.14097 52.09307 49.61702
# Shear Modulus (GPa) = 26.36862 31.34821 28.85842
#
# Velocity S-wave (km/s) = 3.54282 3.86289 3.70631
# Velocity P-wave (km/s) = 6.25898 6.68524 6.47562
#
# Compressibility (1/GPa) = 0.02121297
#
# Stress axis : x y z
#
# Youngs Moduli (GPa) = 61.96081 97.33573 88.26316
#
# Poissons Ratio (x) = -0.04345 0.46356
# Poissons Ratio (y) = -0.02766 0.30532
# Poissons Ratio (z) = 0.32542 0.33670
#
# Static dielectric constant tensor:
#      x y z
#    x 1.803570 0.000000 -0.019210 
#    y 0.000000 1.765840 0.000000 
#    z -0.019210 0.000000 1.756810 
# 
# From -- ./inp_files/252757.got.cif
#   From: 2010.05.17/outbox.cif.g08.bks.cpg/sg15_127_cif.got.tgz:252757.got - 2010.06.03 18:47:42.
