data_PCOD9299979
_publ_section_title
;
Structure prediction by ZEFSAII (Michael W. Deem and Ramdas Pophale) SiO2 
 PCOD9299979
Probable space group: C 2/C
;
_chemical_formula_sum "Si O2"
_cell_formula_units_Z 44
_cell_length_a 22.280476
_cell_length_b 7.948153
_cell_length_c 12.230595
_cell_angle_alpha 90.000000
_cell_angle_beta 44.484919
_cell_angle_gamma 90.000000
_cell_volume 1517.692241
_symmetry_space_group_name_H-M "C 2/C"
_symmetry_group_IT_number 15
_symmetry_cell_setting 'monoclinic'
loop_
_space_group_symop_operation_xyz
x,y,z
-x,y,1/2-z
-x,-y,-z
x,-y,1/2+z
1/2+x,1/2+y,z
1/2-x,1/2+y,1/2-z
1/2-x,1/2-y,-z
1/2+x,1/2-y,1/2+z
loop_
_atom_site_type_symbol
_atom_site_label
_atom_site_fract_x
_atom_site_fract_y
_atom_site_fract_z
Si Si1 0.683910 0.729918 0.333219
Si Si2 0.561261 0.189216 0.789455
Si Si3 0.455919 0.670217 0.596043
Si Si4 0.000000 0.627677 0.250000
Si Si5 0.176480 0.882787 0.481423
Si Si6 0.238875 0.087330 0.586491
O O1 0.621851 0.778593 0.315222
O O2 0.776619 0.742577 0.152686
O O3 0.691959 0.880694 0.409434
O O4 0.669513 0.554736 0.417263
O O5 0.592496 0.320813 0.655959
O O6 0.562368 0.009572 0.728682
O O7 0.470646 0.209050 0.972040
O O8 0.500000 0.500000 0.500000
O O9 0.502088 0.744253 0.644096
O O10 0.358772 0.617371 0.746199
O O11 0.238831 0.936572 0.501027
O O12 0.250000 0.250000 0.500000
#
# Coordination Sequence:
#
# PCOD9299979 Si02
#       6
#     8   8   8   4   8   8
#     4  11  27  47  85 122 172 234 305 367 453 533
#     4  12  29  53  81 128 176 231 290 376 450 526
#     4  12  29  56  89 126 174 233 303 364 452 541
#     4  12  34  52  84 130 176 232 282 366 456 542
#     4  11  25  51  80 126 168 240 294 371 440 528
#     4  10  25  50  85 126 172 230 304 374 447 530
#
# _framework density 28.991385000000001
#
# number of rings (size 3 to 8) (size 9 to 14) (size 15 to 20)
#    0.000    0.727    1.818    2.182   12.727    2.182 
#    0.000    0.000    0.000    0.000    0.000    0.000 
#    0.000    0.000    0.000    0.000    0.000    0.000 
#
# Total GULP energy -123082.850817 kJ/mol
# GULP energy per Si atom -5594.675037 kJ/mol
# Density = 2.892540 g / cm^3
# Si number density = 28.991385 Si / 1000 Ang^3
#
#
#
# Elastic Constant Matrix: (Units=GPa)
#
#
# Indices 1 2 3 4 5 6 
#
# 1 202.4674 60.7436 70.0324 0.0000 57.0139 0.0000
# 2 60.7436 204.1029 94.9971 0.0006 32.9309 -0.0002
# 3 70.0324 94.9971 218.6209 0.0002 37.3087 -0.0001
# 4 0.0000 0.0006 0.0002 83.0033 -0.0001 14.6942
# 5 57.0139 32.9309 37.3087 -0.0001 62.3577 0.0000
# 6 0.0000 -0.0002 -0.0001 14.6942 0.0000 33.2630
#
#
#
# Elastic Compliance Matrix: (Units=1/GPa)
#
#
# Indices 1 2 3 4 5 6 
#
# 1 0.007044 -0.000752 -0.001000 0.000000 -0.005444 0.000000
# 2 -0.000752 0.006416 -0.002323 0.000000 -0.001310 0.000000
# 3 -0.001000 -0.002323 0.006169 0.000000 -0.001549 0.000000
# 4 0.000000 0.000000 0.000000 0.013070 0.000000 -0.005774
# 5 -0.005444 -0.001310 -0.001549 0.000000 0.022633 0.000000
# 6 0.000000 0.000000 0.000000 -0.005774 0.000000 0.032614
#
#
# Mechanical properties :
#
#
# Convention : Reuss Voigt Hill
#
# Bulk Modulus (GPa) = 87.13499 119.63749 103.38624
# Shear Modulus (GPa) = 50.03827 62.35266 56.19546
#
# Velocity S-wave (km/s) = 4.15899 4.64263 4.40745
# Velocity P-wave (km/s) = 7.29271 8.37226 7.85106
#
# Compressibility (1/GPa) = 0.01147645
#
# Stress axis : x y z
#
# Youngs Moduli (GPa) = 141.96583 155.85496 162.11333
#
# Poissons Ratio (x) = 0.11725 0.16218
# Poissons Ratio (y) = 0.10680 0.37666
# Poissons Ratio (z) = 0.14202 0.36211
#
# Static dielectric constant tensor:
#      x y z
#    x 2.328340 0.000000 -0.110330 
#    y 0.000000 2.264440 0.000000 
#    z -0.110330 0.000000 2.427710 
# 
# From -- ./inp_files/121784.got.cif
#   From: 2010.05.17/outbox.cif.g08.bks.cpg/sg15_61_cif.got.tgz:121784.got - 2010.06.03 18:47:42.
