data_PCOD9299608
_publ_section_title
;
Structure prediction by ZEFSAII (Michael W. Deem and Ramdas Pophale) SiO2 
 PCOD9299608
Probable space group: C 2/C
;
_chemical_formula_sum "Si O2"
_cell_formula_units_Z 60
_cell_length_a 16.272523
_cell_length_b 21.197829
_cell_length_c 13.384378
_cell_angle_alpha 90.000000
_cell_angle_beta 142.067119
_cell_angle_gamma 90.000000
_cell_volume 2838.144409
_symmetry_space_group_name_H-M "C 2/C"
_symmetry_group_IT_number 15
_symmetry_cell_setting 'monoclinic'
loop_
_space_group_symop_operation_xyz
x,y,z
-x,y,1/2-z
-x,-y,-z
x,-y,1/2+z
1/2+x,1/2+y,z
1/2-x,1/2+y,1/2-z
1/2-x,1/2-y,-z
1/2+x,1/2-y,1/2+z
loop_
_atom_site_type_symbol
_atom_site_label
_atom_site_fract_x
_atom_site_fract_y
_atom_site_fract_z
Si Si1 0.500000 0.845633 0.250000
Si Si2 0.133999 0.121054 0.167628
Si Si3 0.677042 0.102933 0.521332
Si Si4 0.846438 0.841570 0.336218
Si Si5 0.212060 0.437032 0.354658
Si Si6 0.123066 0.989832 0.809004
Si Si7 0.123853 0.579532 0.240645
Si Si8 0.205393 0.725728 0.065395
O O1 0.606945 0.889966 0.301117
O O2 0.565271 0.806439 0.402452
O O3 0.093303 0.058016 0.190271
O O4 0.263108 0.105221 0.224569
O O5 0.186629 0.175323 0.292431
O O6 0.004916 0.145594 0.983660
O O7 0.765439 0.158030 0.654958
O O8 0.652725 0.106468 0.379221
O O9 0.530495 0.095731 0.430689
O O10 0.766180 0.039747 0.617741
O O11 0.783804 0.901778 0.333650
O O12 0.815974 0.780776 0.374848
O O13 0.316091 0.448898 0.543096
O O14 0.144289 0.503831 0.264098
O O15 0.000000 0.022442 0.750000
O O16 0.250000 0.750000 0.000000
#
# Coordination Sequence:
#
# PCOD9299608 Si02
#       8
#     4   8   8   8   8   8   8   8
#     4  12  22  40  70  96 138 188 216 272 344 400
#     4  12  26  42  67 103 140 181 229 283 340 415
#     4  10  25  44  67  95 135 180 230 288 340 406
#     4  12  26  41  64  99 134 184 232 276 339 406
#     4  11  22  38  66 100 139 172 225 273 346 409
#     4  11  21  39  66 101 145 177 216 277 352 413
#     4  10  25  46  69 100 135 175 236 288 346 410
#     4  12  26  45  67  97 140 182 231 280 335 408
#
# _framework density 21.140573
#
# number of rings (size 3 to 8) (size 9 to 14) (size 15 to 20)
#    0.000    0.800    4.000    3.200    5.600    2.133 
#    0.000    0.667    0.000    0.000    0.000    0.000 
#    0.000    0.000    0.000    0.000    0.000    0.000 
#
# Total GULP energy -167691.790091 kJ/mol
# GULP energy per Si atom -5589.726336 kJ/mol
# Density = 2.109246 g / cm^3
# Si number density = 21.140573 Si / 1000 Ang^3
#
#
#
# Elastic Constant Matrix: (Units=GPa)
#
#
# Indices 1 2 3 4 5 6 
#
# 1 105.4672 34.3980 32.5885 0.0000 20.6815 0.0000
# 2 34.3980 60.7264 42.4961 0.0000 -6.7887 0.0000
# 3 32.5885 42.4961 120.1606 0.0000 14.6748 0.0000
# 4 0.0000 0.0000 0.0000 33.2086 0.0000 25.7191
# 5 20.6815 -6.7887 14.6748 0.0000 29.7333 0.0000
# 6 0.0000 0.0000 0.0000 25.7191 0.0000 184.2254
#
#
#
# Elastic Compliance Matrix: (Units=1/GPa)
#
#
# Indices 1 2 3 4 5 6 
#
# 1 0.015526 -0.011496 0.001590 0.000000 -0.014209 0.000000
# 2 -0.011496 0.033165 -0.011187 0.000000 0.021090 0.000000
# 3 0.001590 -0.011187 0.013083 0.000000 -0.010117 0.000000
# 4 0.000000 0.000000 0.000000 0.033763 0.000000 -0.004714
# 5 -0.014209 0.021090 -0.010117 0.000000 0.053324 0.000000
# 6 0.000000 0.000000 0.000000 -0.004714 0.000000 0.006086
#
#
# Mechanical properties :
#
#
# Convention : Reuss Voigt Hill
#
# Bulk Modulus (GPa) = 51.04981 56.14659 53.59820
# Shear Modulus (GPa) = 24.55037 61.22490 42.88764
#
# Velocity S-wave (km/s) = 3.41147 5.38737 4.50898
# Velocity P-wave (km/s) = 6.30220 8.08175 7.24680
#
# Compressibility (1/GPa) = 0.01958871
#
# Stress axis : x y z
#
# Youngs Moduli (GPa) = 64.40866 30.15191 76.43498
#
# Poissons Ratio (x) = 0.34662 -0.12154
# Poissons Ratio (y) = 0.74042 0.85509
# Poissons Ratio (z) = -0.10242 0.33732
#
# Static dielectric constant tensor:
#      x y z
#    x 1.823310 0.000000 0.000700 
#    y 0.000000 1.791110 0.000000 
#    z 0.000700 0.000000 1.740210 
# 
# From -- ./inp_files/164128.got.cif
#   From: 2010.05.17/outbox.cif.g08.bks.cpg/sg15_83_cif.got.tgz:164128.got - 2010.06.03 18:47:42.
