data_PCOD9299944
_publ_section_title
;
Structure prediction by ZEFSAII (Michael W. Deem and Ramdas Pophale) SiO2 
 PCOD9299944
Probable space group: C 2/C
;
_chemical_formula_sum "Si O2"
_cell_formula_units_Z 40
_cell_length_a 10.090728
_cell_length_b 10.466934
_cell_length_c 14.696834
_cell_angle_alpha 90.000000
_cell_angle_beta 94.228569
_cell_angle_gamma 90.000000
_cell_volume 1548.039154
_symmetry_space_group_name_H-M "C 2/C"
_symmetry_group_IT_number 15
_symmetry_cell_setting 'monoclinic'
loop_
_space_group_symop_operation_xyz
x,y,z
-x,y,1/2-z
-x,-y,-z
x,-y,1/2+z
1/2+x,1/2+y,z
1/2-x,1/2+y,1/2-z
1/2-x,1/2-y,-z
1/2+x,1/2-y,1/2+z
loop_
_atom_site_type_symbol
_atom_site_label
_atom_site_fract_x
_atom_site_fract_y
_atom_site_fract_z
Si Si1 0.500000 0.876302 0.750000
Si Si2 0.843665 0.816954 0.595662
Si Si3 0.719692 0.091635 0.770439
Si Si4 0.719633 0.084261 0.569244
Si Si5 0.027225 0.743612 0.444088
Si Si6 0.500000 0.466058 0.750000
O O1 0.510794 0.792338 0.660115
O O2 0.625132 0.968678 0.774752
O O3 0.802866 0.694404 0.652781
O O4 0.958534 0.881153 0.662588
O O5 0.905760 0.781740 0.502152
O O6 0.738747 0.932902 0.579999
O O7 0.686327 0.142329 0.667061
O O8 0.870806 0.045614 0.771265
O O9 0.861994 0.143995 0.549700
O O10 0.606955 0.125830 0.493890
#
# Coordination Sequence:
#
# PCOD9299944 Si02
#       6
#     4   8   8   8   8   4
#     4  12  29  51  80 120 164 214 278 338 412 480
#     4  11  24  51  82 118 158 213 271 332 400 486
#     4  11  26  50  82 119 163 211 267 338 406 488
#     4  10  25  48  81 117 161 213 270 333 406 483
#     4  11  26  50  80 115 165 214 270 339 402 483
#     4  10  25  49  82 120 168 208 264 334 404 482
#
# _framework density 25.83914
#
# number of rings (size 3 to 8) (size 9 to 14) (size 15 to 20)
#    0.000    1.200    0.000    3.600   11.200    6.400 
#    3.600    5.000    0.000    0.000    0.000    0.000 
#    0.000    0.000    0.000    0.000    0.000    0.000 
#
# Total GULP energy -112359.372304 kJ/mol
# GULP energy per Si atom -5617.968615 kJ/mol
# Density = 2.578033 g / cm^3
# Si number density = 25.839140 Si / 1000 Ang^3
#
#
#
# Elastic Constant Matrix: (Units=GPa)
#
#
# Indices 1 2 3 4 5 6 
#
# 1 118.2149 73.5546 63.7221 0.0000 -11.8352 0.0000
# 2 73.5546 141.0838 89.2973 0.0000 -1.2238 0.0000
# 3 63.7221 89.2973 233.8970 0.0000 -5.8244 0.0000
# 4 0.0000 0.0000 0.0000 42.1464 0.0000 2.2202
# 5 -11.8352 -1.2238 -5.8244 0.0000 55.8570 0.0000
# 6 0.0000 0.0000 0.0000 2.2202 0.0000 31.4128
#
#
#
# Elastic Compliance Matrix: (Units=1/GPa)
#
#
# Indices 1 2 3 4 5 6 
#
# 1 0.013133 -0.006066 -0.001199 0.000000 0.002525 0.000000
# 2 -0.006066 0.012150 -0.003019 0.000000 -0.001334 0.000000
# 3 -0.001199 -0.003019 0.005762 0.000000 0.000281 0.000000
# 4 0.000000 0.000000 0.000000 0.023815 0.000000 -0.001683
# 5 0.002525 -0.001334 0.000281 0.000000 0.018438 0.000000
# 6 0.000000 0.000000 0.000000 -0.001683 0.000000 0.031953
#
#
# Mechanical properties :
#
#
# Convention : Reuss Voigt Hill
#
# Bulk Modulus (GPa) = 95.45840 105.14931 100.30386
# Shear Modulus (GPa) = 38.66652 43.65800 41.16226
#
# Velocity S-wave (km/s) = 3.87257 4.11494 3.99560
# Velocity P-wave (km/s) = 7.55111 7.95985 7.75817
#
# Compressibility (1/GPa) = 0.01047577
#
# Stress axis : x y z
#
# Youngs Moduli (GPa) = 76.14686 82.30542 173.55877
#
# Poissons Ratio (x) = 0.49925 0.20811
# Poissons Ratio (y) = 0.46190 0.52402
# Poissons Ratio (z) = 0.09131 0.24850
#
# Static dielectric constant tensor:
#      x y z
#    x 2.099510 0.000000 0.016970 
#    y 0.000000 2.010000 0.000000 
#    z 0.016970 0.000000 2.005760 
# 
# From -- ./inp_files/141872.got.cif
#   From: 2010.05.17/outbox.cif.g08.bks.cpg/sg15_71_cif.got.tgz:141872.got - 2010.06.03 18:47:42.
