data_PCOD9299716
_publ_section_title
;
Structure prediction by ZEFSAII (Michael W. Deem and Ramdas Pophale) SiO2 
 PCOD9299716
Probable space group: C 2/C
;
_chemical_formula_sum "Si O2"
_cell_formula_units_Z 36
_cell_length_a 22.505159
_cell_length_b 16.414431
_cell_length_c 9.617489
_cell_angle_alpha 90.000000
_cell_angle_beta 152.344575
_cell_angle_gamma 90.000000
_cell_volume 1649.038742
_symmetry_space_group_name_H-M "C 2/C"
_symmetry_group_IT_number 15
_symmetry_cell_setting 'monoclinic'
loop_
_space_group_symop_operation_xyz
x,y,z
-x,y,1/2-z
-x,-y,-z
x,-y,1/2+z
1/2+x,1/2+y,z
1/2-x,1/2+y,1/2-z
1/2-x,1/2-y,-z
1/2+x,1/2-y,1/2+z
loop_
_atom_site_type_symbol
_atom_site_label
_atom_site_fract_x
_atom_site_fract_y
_atom_site_fract_z
Si Si1 0.174235 0.459537 0.369704
Si Si2 0.500000 0.301727 0.750000
Si Si3 0.408459 0.577244 0.817820
Si Si4 0.758702 0.709710 0.371697
Si Si5 0.500000 0.315487 0.250000
Si Si6 0.500000 0.034473 0.250000
O O1 0.266868 0.536818 0.529296
O O2 0.246290 0.385781 0.598081
O O3 0.077265 0.485570 0.291533
O O4 0.107568 0.430504 0.084929
O O5 0.440496 0.362668 0.511783
O O6 0.385885 0.242352 0.563028
O O7 0.451165 0.628391 0.773492
O O8 0.500000 0.500000 0.000000
O O9 0.750000 0.750000 0.500000
O O10 0.626893 0.737095 0.029455
#
# Coordination Sequence:
#
# PCOD9299716 Si02
#       6
#     8   4   8   8   4   4
#     4  11  24  45  74 105 146 193 247 298 367 439
#     4  12  28  50  76 110 154 194 244 306 378 440
#     4  12  25  45  80 109 138 192 256 303 352 436
#     4  12  26  47  70 110 150 192 239 306 372 438
#     4  12  25  47  76 108 148 196 246 308 363 443
#     4  10  25  45  70 106 144 190 240 308 361 437
#
# _framework density 21.830901000000001
#
# number of rings (size 3 to 8) (size 9 to 14) (size 15 to 20)
#    0.000    0.444    4.444    2.667    6.222    3.556 
#    4.000    0.000    0.000    0.000    0.000    0.000 
#    0.000    0.000    0.000    0.000    0.000    0.000 
#
# Total GULP energy -100216.501004 kJ/mol
# GULP energy per Si atom -5567.583389 kJ/mol
# Density = 2.178121 g / cm^3
# Si number density = 21.830901 Si / 1000 Ang^3
#
#
#
# Elastic Constant Matrix: (Units=GPa)
#
#
# Indices 1 2 3 4 5 6 
#
# 1 160.2874 42.2002 63.8596 0.0000 7.7767 0.0000
# 2 42.2002 66.3309 36.8646 0.0000 6.9501 0.0000
# 3 63.8596 36.8646 143.4603 0.0000 14.7501 0.0000
# 4 0.0000 0.0000 0.0000 26.9845 0.0000 -5.0165
# 5 7.7767 6.9501 14.7501 0.0000 48.9055 0.0000
# 6 0.0000 0.0000 0.0000 -5.0165 0.0000 -25.7424
#
#
#
# Elastic Compliance Matrix: (Units=1/GPa)
#
#
# Indices 1 2 3 4 5 6 
#
# 1 0.008322 -0.003777 -0.002738 0.000000 0.000039 0.000000
# 2 -0.003777 0.019367 -0.003173 0.000000 -0.001195 0.000000
# 3 -0.002738 -0.003173 0.009199 0.000000 -0.001888 0.000000
# 4 0.000000 0.000000 0.000000 0.035763 0.000000 -0.006969
# 5 0.000039 -0.001195 -0.001888 0.000000 0.021181 0.000000
# 6 0.000000 0.000000 0.000000 -0.006969 0.000000 -0.037488
#
#
# Mechanical properties :
#
#
# Convention : Reuss Voigt Hill
#
# Bulk Modulus (GPa) = 57.10049 72.88083 64.99066
# Shear Modulus (GPa) = 61.30749 25.17314 43.24031
#
# Velocity S-wave (km/s) = 5.30508 3.39941 4.45533
# Velocity P-wave (km/s) = 7.98359 6.99033 7.50341
#
# Compressibility (1/GPa) = 0.01751298
#
# Stress axis : x y z
#
# Youngs Moduli (GPa) = 120.16174 51.63329 108.71072
#
# Poissons Ratio (x) = 0.19502 0.29764
# Poissons Ratio (y) = 0.45386 0.34490
# Poissons Ratio (z) = 0.32900 0.16381
#
# Static dielectric constant tensor:
#      x y z
#    x 1.773710 0.000000 -0.085300 
#    y 0.000000 1.477220 0.000000 
#    z -0.085300 0.000000 2.165180 
# 
# From -- ./inp_files/56916.got.cif
#   From: 2010.05.17/outbox.cif.g08.bks.cpg/sg15_29_cif.got.tgz:56916.got - 2010.06.03 18:47:42.
