data_PCOD9299407
_publ_section_title
;
Structure prediction by ZEFSAII (Michael W. Deem and Ramdas Pophale) SiO2 
 PCOD9299407
Probable space group: C 2/C
;
_chemical_formula_sum "Si O2"
_cell_formula_units_Z 44
_cell_length_a 15.876617
_cell_length_b 5.802559
_cell_length_c 21.284841
_cell_angle_alpha 90.000000
_cell_angle_beta 123.936441
_cell_angle_gamma 90.000000
_cell_volume 1626.847056
_symmetry_space_group_name_H-M "C 2/C"
_symmetry_group_IT_number 15
_symmetry_cell_setting 'monoclinic'
loop_
_space_group_symop_operation_xyz
x,y,z
-x,y,1/2-z
-x,-y,-z
x,-y,1/2+z
1/2+x,1/2+y,z
1/2-x,1/2+y,1/2-z
1/2-x,1/2-y,-z
1/2+x,1/2-y,1/2+z
loop_
_atom_site_type_symbol
_atom_site_label
_atom_site_fract_x
_atom_site_fract_y
_atom_site_fract_z
Si Si1 0.331804 0.603921 0.493953
Si Si2 0.525121 0.098193 0.078916
Si Si3 0.581162 0.727920 0.379933
Si Si4 0.262259 0.704102 0.172445
Si Si5 0.296255 0.821695 0.680658
Si Si6 0.000000 0.125864 0.750000
O O1 0.250000 0.750000 0.500000
O O2 0.443443 0.701787 0.550048
O O3 0.352285 0.356044 0.532404
O O4 0.293128 0.642272 0.407286
O O5 0.640236 0.186602 0.123985
O O6 0.491947 0.921667 0.120401
O O7 0.500000 0.000000 0.000000
O O8 0.671929 0.748044 0.364954
O O9 0.507916 0.546736 0.312896
O O10 0.291684 0.442304 0.201550
O O11 0.291739 0.944384 0.218500
O O12 0.408073 0.800735 0.699167
#
# Coordination Sequence:
#
# PCOD9299407 Si02
#       6
#     8   8   8   8   8   4
#     4  12  22  42  73 118 148 202 267 334 400 478
#     4  12  25  43  77 121 161 209 263 350 421 486
#     4  11  26  47  79 114 162 219 273 338 419 499
#     4  11  25  46  74 114 161 200 269 331 404 488
#     4  11  24  44  76 111 156 205 265 332 395 488
#     4  10  24  50  76 112 150 226 276 328 416 516
#
# _framework density 27.046181000000001
#
# number of rings (size 3 to 8) (size 9 to 14) (size 15 to 20)
#    0.000    0.727    5.455    2.182    2.545    6.545 
#    0.000    0.000   16.000    0.000    0.000    0.000 
#    0.000    0.000    0.000    0.000    0.000    0.000 
#
# Total GULP energy -122713.632619 kJ/mol
# GULP energy per Si atom -5577.892392 kJ/mol
# Density = 2.698462 g / cm^3
# Si number density = 27.046181 Si / 1000 Ang^3
#
#
#
# Elastic Constant Matrix: (Units=GPa)
#
#
# Indices 1 2 3 4 5 6 
#
# 1 193.1001 61.0148 53.0439 0.0000 10.1770 0.0000
# 2 61.0148 180.3504 36.6450 0.0000 5.4048 0.0000
# 3 53.0439 36.6450 121.6532 0.0000 7.9447 0.0000
# 4 0.0000 0.0000 0.0000 -46.2654 0.0000 73.4886
# 5 10.1770 5.4048 7.9447 0.0000 68.6241 0.0000
# 6 0.0000 0.0000 0.0000 73.4886 0.0000 -8.1594
#
#
#
# Elastic Compliance Matrix: (Units=1/GPa)
#
#
# Indices 1 2 3 4 5 6 
#
# 1 0.006350 -0.001679 -0.002227 0.000000 -0.000552 0.000000
# 2 -0.001679 0.006355 -0.001175 0.000000 -0.000115 0.000000
# 3 -0.002227 -0.001175 0.009590 0.000000 -0.000687 0.000000
# 4 0.000000 0.000000 0.000000 0.001624 0.000000 0.014630
# 5 -0.000552 -0.000115 -0.000687 0.000000 0.014743 0.000000
# 6 0.000000 0.000000 0.000000 0.014630 0.000000 0.009211
#
#
# Mechanical properties :
#
#
# Convention : Reuss Voigt Hill
#
# Bulk Modulus (GPa) = 82.41740 88.50124 85.45932
# Shear Modulus (GPa) = 80.54336 25.79987 53.17161
#
# Velocity S-wave (km/s) = 5.46302 3.09191 4.43872
# Velocity P-wave (km/s) = 8.38640 6.74832 7.61156
#
# Compressibility (1/GPa) = 0.01213336
#
# Stress axis : x y z
#
# Youngs Moduli (GPa) = 157.47837 157.35645 104.27778
#
# Poissons Ratio (x) = 0.26425 0.23222
# Poissons Ratio (y) = 0.26445 0.12248
# Poissons Ratio (z) = 0.35069 0.18482
#
# Static dielectric constant tensor:
#      x y z
#    x 2.278420 0.000000 -0.089200 
#    y 0.000000 2.339350 0.000000 
#    z -0.089200 0.000000 2.130390 
# 
# From -- ./inp_files/297872.got.cif
#   From: 2010.05.17/outbox.cif.g08.bks.cpg/sg15_149_cif.got.tgz:297872.got - 2010.06.03 18:47:42.
