data_PCOD9299000
_publ_section_title
;
Structure prediction by ZEFSAII (Michael W. Deem and Ramdas Pophale) SiO2 
 PCOD9299000
Probable space group: C 2/C
;
_chemical_formula_sum "Si O2"
_cell_formula_units_Z 36
_cell_length_a 20.107955
_cell_length_b 7.753620
_cell_length_c 9.834150
_cell_angle_alpha 90.000000
_cell_angle_beta 73.014006
_cell_angle_gamma 90.000000
_cell_volume 1466.351219
_symmetry_space_group_name_H-M "C 2/C"
_symmetry_group_IT_number 15
_symmetry_cell_setting 'monoclinic'
loop_
_space_group_symop_operation_xyz
x,y,z
-x,y,1/2-z
-x,-y,-z
x,-y,1/2+z
1/2+x,1/2+y,z
1/2-x,1/2+y,1/2-z
1/2-x,1/2-y,-z
1/2+x,1/2-y,1/2+z
loop_
_atom_site_type_symbol
_atom_site_label
_atom_site_fract_x
_atom_site_fract_y
_atom_site_fract_z
Si Si1 0.000000 0.132410 0.750000
Si Si2 0.276537 0.436584 0.032428
Si Si3 0.937575 0.449527 0.937282
Si Si4 0.856263 0.420621 0.237831
Si Si5 0.859877 0.988693 0.731114
O O1 0.042209 0.257099 0.621884
O O2 0.059942 0.024251 0.785655
O O3 0.211234 0.509154 0.156256
O O4 0.337409 0.419162 0.106814
O O5 0.250000 0.250000 0.000000
O O6 0.309005 0.539286 0.886666
O O7 0.918454 0.544218 0.808174
O O8 0.872604 0.480155 0.076190
O O9 0.000000 0.500000 0.000000
O O10 0.848954 0.215888 0.225884
#
# Coordination Sequence:
#
# PCOD9299000 Si02
#       5
#     4   8   8   8   8
#     4  12  28  42  76 104 154 184 250 290 370 434
#     4  10  24  46  73 104 144 182 240 299 363 420
#     4  12  25  44  67 103 141 189 234 292 362 425
#     4  11  25  46  74 100 145 189 241 298 355 429
#     4  11  26  46  73 112 141 194 239 304 357 431
#
# _framework density 24.550736000000001
#
# number of rings (size 3 to 8) (size 9 to 14) (size 15 to 20)
#    0.000    0.889    2.222    2.667    9.333    5.333 
#    0.000    7.778    0.000    0.000    0.000    0.000 
#    0.000    0.000    0.000    0.000    0.000    0.000 
#
# Total GULP energy -100696.028748 kJ/mol
# GULP energy per Si atom -5594.223819 kJ/mol
# Density = 2.449486 g / cm^3
# Si number density = 24.550736 Si / 1000 Ang^3
#
#
#
# Elastic Constant Matrix: (Units=GPa)
#
#
# Indices 1 2 3 4 5 6 
#
# 1 88.4209 13.4336 11.2457 0.0000 30.1938 0.0000
# 2 13.4336 61.8364 16.7636 0.0000 9.5298 0.0000
# 3 11.2457 16.7636 153.1766 0.0000 7.7883 0.0000
# 4 0.0000 0.0000 0.0000 14.8608 0.0000 -6.2119
# 5 30.1938 9.5298 7.7883 0.0000 47.9979 0.0000
# 6 0.0000 0.0000 0.0000 -6.2119 0.0000 20.7289
#
#
#
# Elastic Compliance Matrix: (Units=1/GPa)
#
#
# Indices 1 2 3 4 5 6 
#
# 1 0.014626 -0.001703 -0.000440 0.000000 -0.008791 0.000000
# 2 -0.001703 0.017316 -0.001663 0.000000 -0.002097 0.000000
# 3 -0.000440 -0.001663 0.006768 0.000000 -0.000491 0.000000
# 4 0.000000 0.000000 0.000000 0.076927 0.000000 0.023053
# 5 -0.008791 -0.002097 -0.000491 0.000000 0.026860 0.000000
# 6 0.000000 0.000000 0.000000 0.023053 0.000000 0.055150
#
#
# Mechanical properties :
#
#
# Convention : Reuss Voigt Hill
#
# Bulk Modulus (GPa) = 32.15868 42.92440 37.54154
# Shear Modulus (GPa) = 23.18818 34.18359 28.68588
#
# Velocity S-wave (km/s) = 3.07661 3.73549 3.42194
# Velocity P-wave (km/s) = 5.07425 6.01058 5.56215
#
# Compressibility (1/GPa) = 0.03109580
#
# Stress axis : x y z
#
# Youngs Moduli (GPa) = 68.36969 57.75084 147.75977
#
# Poissons Ratio (x) = 0.09836 0.06508
# Poissons Ratio (y) = 0.11645 0.24578
# Poissons Ratio (z) = 0.03011 0.09606
#
# Static dielectric constant tensor:
#      x y z
#    x 1.997300 0.000000 -0.186260 
#    y 0.000000 1.916730 0.000000 
#    z -0.186260 0.000000 1.503700 
# 
# From -- ./inp_files/53638.got.cif
#   From: 2010.05.17/outbox.cif.g08.bks.cpg/sg15_27_cif.got.tgz:53638.got - 2010.06.03 18:47:42.
