data_PCOD9299679
_publ_section_title
;
Structure prediction by ZEFSAII (Michael W. Deem and Ramdas Pophale) SiO2 
 PCOD9299679
Probable space group: C 2/C
;
_chemical_formula_sum "Si O2"
_cell_formula_units_Z 40
_cell_length_a 20.871191
_cell_length_b 9.355537
_cell_length_c 8.956909
_cell_angle_alpha 90.000000
_cell_angle_beta 84.370757
_cell_angle_gamma 90.000000
_cell_volume 1740.502488
_symmetry_space_group_name_H-M "C 2/C"
_symmetry_group_IT_number 15
_symmetry_cell_setting 'monoclinic'
loop_
_space_group_symop_operation_xyz
x,y,z
-x,y,1/2-z
-x,-y,-z
x,-y,1/2+z
1/2+x,1/2+y,z
1/2-x,1/2+y,1/2-z
1/2-x,1/2-y,-z
1/2+x,1/2-y,1/2+z
loop_
_atom_site_type_symbol
_atom_site_label
_atom_site_fract_x
_atom_site_fract_y
_atom_site_fract_z
Si Si1 0.807068 0.839302 0.410173
Si Si2 0.973533 0.145504 0.426054
Si Si3 0.886816 0.621371 0.834628
Si Si4 0.574588 0.153387 0.019264
Si Si5 0.739653 0.607306 0.910020
O O1 0.750000 0.750000 0.500000
O O2 0.874034 0.759131 0.415836
O O3 0.791324 0.861216 0.241642
O O4 0.801934 0.990246 0.494821
O O5 0.904288 0.225585 0.409013
O O6 0.000000 0.136401 0.250000
O O7 0.008249 0.264617 0.518313
O O8 0.000000 0.000000 0.500000
O O9 0.900062 0.633106 0.655941
O O10 0.814217 0.562942 0.870050
O O11 0.929523 0.496060 0.895709
O O12 0.750000 0.750000 0.000000
#
# Coordination Sequence:
#
# PCOD9299679 Si02
#       5
#     8   8   8   8   8
#     4  12  24  43  65  99 134 173 222 268 331 395
#     4  10  25  45  67  96 130 170 221 276 329 390
#     4  11  23  44  66  96 131 173 223 268 327 392
#     4  11  25  43  69  95 135 172 224 273 324 401
#     4  12  26  41  67  98 137 176 216 273 332 393
#
# _framework density 22.981869
#
# number of rings (size 3 to 8) (size 9 to 14) (size 15 to 20)
#    0.000    0.800    4.000    1.800    5.600    3.200 
#    0.000    0.000    0.000    0.000    0.000    0.000 
#    0.000    0.000    0.000    0.000    0.000    0.000 
#
# Total GULP energy -111761.053739 kJ/mol
# GULP energy per Si atom -5588.052687 kJ/mol
# Density = 2.292956 g / cm^3
# Si number density = 22.981869 Si / 1000 Ang^3
#
#
#
# Elastic Constant Matrix: (Units=GPa)
#
#
# Indices 1 2 3 4 5 6 
#
# 1 59.0647 21.2441 16.4873 0.0000 28.8536 0.0000
# 2 21.2441 150.6635 72.1013 0.0000 21.9526 0.0000
# 3 16.4873 72.1013 156.3632 0.0000 40.0459 0.0000
# 4 0.0000 0.0000 0.0000 -28.5219 0.0000 4.4359
# 5 28.8536 21.9526 40.0459 0.0000 28.0257 0.0000
# 6 0.0000 0.0000 0.0000 4.4359 0.0000 50.9791
#
#
#
# Elastic Compliance Matrix: (Units=1/GPa)
#
#
# Indices 1 2 3 4 5 6 
#
# 1 0.044406 -0.003351 0.012459 0.000000 -0.060896 0.000000
# 2 -0.003351 0.008819 -0.004460 0.000000 0.002914 0.000000
# 3 0.012459 -0.004460 0.015028 0.000000 -0.030807 0.000000
# 4 0.000000 0.000000 0.000000 -0.034593 0.000000 0.003010
# 5 -0.060896 0.002914 -0.030807 0.000000 0.140114 0.000000
# 6 0.000000 0.000000 0.000000 0.003010 0.000000 0.019354
#
#
# Mechanical properties :
#
#
# Convention : Reuss Voigt Hill
#
# Bulk Modulus (GPa) = 12.89490 65.08408 38.98949
# Shear Modulus (GPa) = 23.84555 27.18049 25.51302
#
# Velocity S-wave (km/s) = 3.22465 3.44276 3.33549
# Velocity P-wave (km/s) = 4.41447 6.64716 5.64235
#
# Compressibility (1/GPa) = 0.07755003
#
# Stress axis : x y z
#
# Youngs Moduli (GPa) = 22.51940 113.38586 66.54197
#
# Poissons Ratio (x) = 0.37993 -0.82903
# Poissons Ratio (y) = 0.07546 0.29676
# Poissons Ratio (z) = -0.28056 0.50567
#
# Static dielectric constant tensor:
#      x y z
#    x 1.917460 0.000000 0.000360 
#    y 0.000000 1.871890 0.000000 
#    z 0.000360 0.000000 1.783860 
# 
# From -- ./inp_files/59892.got.cif
#   From: 2010.05.17/outbox.cif.g08.bks.cpg/sg15_30_cif.got.tgz:59892.got - 2010.06.03 18:47:42.
