data_PCOD9299108
_publ_section_title
;
Structure prediction by ZEFSAII (Michael W. Deem and Ramdas Pophale) SiO2 
 PCOD9299108
Probable space group: C 2/C
;
_chemical_formula_sum "Si O2"
_cell_formula_units_Z 44
_cell_length_a 14.719543
_cell_length_b 17.410376
_cell_length_c 15.272019
_cell_angle_alpha 90.000000
_cell_angle_beta 149.253667
_cell_angle_gamma 90.000000
_cell_volume 2000.885005
_symmetry_space_group_name_H-M "C 2/C"
_symmetry_group_IT_number 15
_symmetry_cell_setting 'monoclinic'
loop_
_space_group_symop_operation_xyz
x,y,z
-x,y,1/2-z
-x,-y,-z
x,-y,1/2+z
1/2+x,1/2+y,z
1/2-x,1/2+y,1/2-z
1/2-x,1/2-y,-z
1/2+x,1/2-y,1/2+z
loop_
_atom_site_type_symbol
_atom_site_label
_atom_site_fract_x
_atom_site_fract_y
_atom_site_fract_z
Si Si1 0.525005 0.848402 0.980974
Si Si2 0.500000 0.438776 0.750000
Si Si3 0.635045 0.330051 0.598736
Si Si4 0.988814 0.649799 0.835103
Si Si5 0.878835 0.182547 0.035224
Si Si6 0.092051 0.911577 0.238407
O O1 0.344766 0.848240 0.774625
O O2 0.588930 0.759352 0.041159
O O3 0.476892 0.879535 0.038971
O O4 0.700003 0.892228 0.093301
O O5 0.642537 0.379725 0.906203
O O6 0.433503 0.497424 0.768699
O O7 0.556452 0.340773 0.630703
O O8 0.520617 0.380699 0.436613
O O9 0.780962 0.674628 0.664645
O O10 0.000000 0.607354 0.750000
O O11 0.093221 0.730422 0.912008
O O12 0.000000 0.877169 0.250000
#
# Coordination Sequence:
#
# PCOD9299108 Si02
#       6
#     8   4   8   8   8   8
#     4  11  21  41  67 104 128 161 223 272 333 375
#     4  10  26  42  64  88 136 184 214 242 340 394
#     4  11  21  40  71  97 127 166 213 286 326 366
#     4  11  21  35  68 106 129 159 211 277 332 378
#     4  11  21  40  67  97 136 165 207 274 332 385
#     4  10  24  47  61  92 132 178 224 260 318 392
#
# _framework density 21.990269999999999
#
# number of rings (size 3 to 8) (size 9 to 14) (size 15 to 20)
#    0.545    0.727    4.545    3.818    2.545    2.182 
#    0.000    2.727    0.000    0.000    0.000    0.000 
#    0.000    0.000    0.000    0.000    0.000    0.000 
#
# Total GULP energy -122697.611174 kJ/mol
# GULP energy per Si atom -5577.164144 kJ/mol
# Density = 2.194022 g / cm^3
# Si number density = 21.990270 Si / 1000 Ang^3
#
#
#
# Elastic Constant Matrix: (Units=GPa)
#
#
# Indices 1 2 3 4 5 6 
#
# 1 94.5053 19.5806 19.7791 0.0000 8.0869 0.0004
# 2 19.5806 87.4270 19.2365 -0.0002 -0.5357 0.0001
# 3 19.7791 19.2365 149.0825 0.0000 22.1308 0.0005
# 4 0.0000 -0.0002 0.0000 22.5983 -0.0005 -10.6051
# 5 8.0869 -0.5357 22.1308 -0.0005 38.1579 0.0006
# 6 0.0004 0.0001 0.0005 -10.6051 0.0006 1.3453
#
#
#
# Elastic Compliance Matrix: (Units=1/GPa)
#
#
# Indices 1 2 3 4 5 6 
#
# 1 0.011430 -0.002368 -0.000926 0.000000 -0.001918 0.000001
# 2 -0.002368 0.012309 -0.001504 0.000000 0.001547 0.000000
# 3 -0.000926 -0.001504 0.007658 0.000000 -0.004266 0.000000
# 4 0.000000 0.000000 0.000000 -0.016392 0.000002 -0.129224
# 5 -0.001918 0.001547 -0.004266 0.000002 0.029109 0.000002
# 6 0.000001 0.000000 0.000000 -0.129224 0.000002 -0.275360
#
#
# Mechanical properties :
#
#
# Convention : Reuss Voigt Hill
#
# Bulk Modulus (GPa) = 45.86886 49.80079 47.83483
# Shear Modulus (GPa) = -23.32266 30.58154 3.62944
#
# Velocity S-wave (km/s) = -3.26020 3.73323 1.28610
# Velocity P-wave (km/s) = 2.59463 6.42484 4.89953
#
# Compressibility (1/GPa) = 0.02180128
#
# Stress axis : x y z
#
# Youngs Moduli (GPa) = 87.48890 81.24288 130.58415
#
# Poissons Ratio (x) = 0.19238 0.12094
# Poissons Ratio (y) = 0.20717 0.19636
# Poissons Ratio (z) = 0.08102 0.12216
#
# Static dielectric constant tensor:
#      x y z
#    x 1.911840 0.000000 0.044840 
#    y 0.000000 1.780430 0.000000 
#    z 0.044840 0.000000 1.869800 
# 
# From -- ./inp_files/156281.got.cif
#   From: 2010.05.17/outbox.cif.g08.bks.cpg/sg15_79_cif.got.tgz:156281.got - 2010.06.03 18:47:42.
