data_PCOD9299402
_publ_section_title
;
Structure prediction by ZEFSAII (Michael W. Deem and Ramdas Pophale) SiO2 
 PCOD9299402
Probable space group: C 2/C
;
_chemical_formula_sum "Si O2"
_cell_formula_units_Z 36
_cell_length_a 9.222167
_cell_length_b 12.835368
_cell_length_c 14.614672
_cell_angle_alpha 90.000000
_cell_angle_beta 130.474981
_cell_angle_gamma 90.000000
_cell_volume 1315.945164
_symmetry_space_group_name_H-M "C 2/C"
_symmetry_group_IT_number 15
_symmetry_cell_setting 'monoclinic'
loop_
_space_group_symop_operation_xyz
x,y,z
-x,y,1/2-z
-x,-y,-z
x,-y,1/2+z
1/2+x,1/2+y,z
1/2-x,1/2+y,1/2-z
1/2-x,1/2-y,-z
1/2+x,1/2-y,1/2+z
loop_
_atom_site_type_symbol
_atom_site_label
_atom_site_fract_x
_atom_site_fract_y
_atom_site_fract_z
Si Si1 0.210064 0.543125 0.798994
Si Si2 0.724549 0.983549 0.097162
Si Si3 0.750208 0.292798 0.691828
Si Si4 0.500000 0.330570 0.750000
Si Si5 0.546092 0.674550 0.933392
O O1 0.234412 0.418367 0.812545
O O2 0.373467 0.611682 0.912995
O O3 0.000000 0.563450 0.750000
O O4 0.090174 0.770256 0.702821
O O5 0.749830 0.932996 0.207861
O O6 0.833480 0.093434 0.145286
O O7 0.500000 0.000000 0.000000
O O8 0.663522 0.262978 0.557975
O O9 0.943819 0.251625 0.818719
O O10 0.827057 0.084915 0.562349
#
# Coordination Sequence:
#
# PCOD9299402 Si02
#       5
#     8   8   8   4   8
#     4  11  25  48  78 119 159 214 271 337 412 487
#     4  11  23  47  84 113 158 214 273 330 411 481
#     4  11  27  49  79 117 169 208 277 339 411 484
#     4  10  24  50  74 120 162 214 270 346 404 490
#     4  12  26  51  82 121 163 218 275 337 408 492
#
# _framework density 27.356763000000001
#
# number of rings (size 3 to 8) (size 9 to 14) (size 15 to 20)
#    0.000    0.889    4.444    2.000    4.667    6.222 
#    0.000   10.000    0.000    0.000    0.000    0.000 
#    0.000    0.000    0.000    0.000    0.000    0.000 
#
# Total GULP energy -101018.105954 kJ/mol
# GULP energy per Si atom -5612.116997 kJ/mol
# Density = 2.729450 g / cm^3
# Si number density = 27.356763 Si / 1000 Ang^3
#
#
#
# Elastic Constant Matrix: (Units=GPa)
#
#
# Indices 1 2 3 4 5 6 
#
# 1 165.5177 12.2553 64.5573 0.0000 8.4988 0.0000
# 2 12.2553 100.7077 47.3181 0.0000 6.8687 0.0000
# 3 64.5573 47.3181 202.5835 0.0000 4.0506 0.0000
# 4 0.0000 0.0000 0.0000 43.5260 0.0000 13.7050
# 5 8.4988 6.8687 4.0506 0.0000 77.4797 0.0000
# 6 0.0000 0.0000 0.0000 13.7050 0.0000 54.8868
#
#
#
# Elastic Compliance Matrix: (Units=1/GPa)
#
#
# Indices 1 2 3 4 5 6 
#
# 1 0.006937 0.000262 -0.002259 0.000000 -0.000666 0.000000
# 2 0.000262 0.011220 -0.002687 0.000000 -0.000883 0.000000
# 3 -0.002259 -0.002687 0.006280 0.000000 0.000158 0.000000
# 4 0.000000 0.000000 0.000000 0.024935 0.000000 -0.006226
# 5 -0.000666 -0.000883 0.000158 0.000000 0.013050 0.000000
# 6 0.000000 0.000000 0.000000 -0.006226 0.000000 0.019774
#
#
# Mechanical properties :
#
#
# Convention : Reuss Voigt Hill
#
# Bulk Modulus (GPa) = 66.34732 79.67446 73.01089
# Shear Modulus (GPa) = 51.76666 58.15704 54.96185
#
# Velocity S-wave (km/s) = 4.35475 4.61572 4.48714
# Velocity P-wave (km/s) = 7.04205 7.58907 7.32067
#
# Compressibility (1/GPa) = 0.01507220
#
# Stress axis : x y z
#
# Youngs Moduli (GPa) = 144.14631 89.12333 159.22464
#
# Poissons Ratio (x) = -0.02339 0.35965
# Poissons Ratio (y) = -0.03784 0.42780
# Poissons Ratio (z) = 0.32559 0.23945
#
# Static dielectric constant tensor:
#      x y z
#    x 2.104690 0.000000 -0.032090 
#    y 0.000000 2.180490 0.000000 
#    z -0.032090 0.000000 2.186170 
# 
# From -- ./inp_files/197067.got.cif
#   From: 2010.05.17/outbox.cif.g08.bks.cpg/sg15_99_cif.got.tgz:197067.got - 2010.06.03 18:47:42.
