data_PCOD9299794
_publ_section_title
;
Structure prediction by ZEFSAII (Michael W. Deem and Ramdas Pophale) SiO2 
 PCOD9299794
Probable space group: C 2/C
;
_chemical_formula_sum "Si O2"
_cell_formula_units_Z 48
_cell_length_a 5.514893
_cell_length_b 22.929276
_cell_length_c 17.619611
_cell_angle_alpha 90.000000
_cell_angle_beta 76.322803
_cell_angle_gamma 90.000000
_cell_volume 2164.863956
_symmetry_space_group_name_H-M "C 2/C"
_symmetry_group_IT_number 15
_symmetry_cell_setting 'monoclinic'
loop_
_space_group_symop_operation_xyz
x,y,z
-x,y,1/2-z
-x,-y,-z
x,-y,1/2+z
1/2+x,1/2+y,z
1/2-x,1/2+y,1/2-z
1/2-x,1/2-y,-z
1/2+x,1/2-y,1/2+z
loop_
_atom_site_type_symbol
_atom_site_label
_atom_site_fract_x
_atom_site_fract_y
_atom_site_fract_z
Si Si1 0.905269 0.935299 0.603989
Si Si2 0.500000 0.309629 0.250000
Si Si3 0.500000 0.513427 0.250000
Si Si4 0.674760 0.042810 0.531842
Si Si5 0.430039 0.690218 0.057859
Si Si6 0.355768 0.090258 0.681296
Si Si7 0.103929 0.245325 0.896217
O O1 0.807314 0.873070 0.585470
O O2 0.885495 0.945977 0.694191
O O3 0.176089 0.927406 0.546416
O O4 0.820888 0.997212 0.575023
O O5 0.315913 0.353476 0.307803
O O6 0.359723 0.275414 0.193389
O O7 0.305767 0.469433 0.304572
O O8 0.535601 0.086880 0.596800
O O9 0.500000 0.000000 0.500000
O O10 0.656917 0.715117 0.095022
O O11 0.176963 0.728017 0.082911
O O12 0.560069 0.695930 0.964900
O O13 0.500000 0.091147 0.750000
#
# Coordination Sequence:
#
# PCOD9299794 Si02
#       7
#     8   4   4   8   8   8   8
#     4  11  25  39  67  98 131 184 223 281 341 427
#     4  11  28  40  74 100 136 178 240 297 358 408
#     4  11  22  42  56 100 132 166 228 269 334 412
#     4  11  24  40  66  99 139 174 227 270 345 433
#     4  10  25  46  71  94 136 178 229 286 351 410
#     4  11  24  41  64  98 139 179 214 290 346 409
#     4  10  25  47  67 101 131 174 235 295 339 412
#
# _framework density 22.172293
#
# number of rings (size 3 to 8) (size 9 to 14) (size 15 to 20)
#    0.000    1.333    3.333    0.000    9.333    2.667 
#    0.000    0.000    0.000    0.000    0.000    0.000 
#    0.000    0.000    0.000    0.000    0.000    0.000 
#
# Total GULP energy -133757.401748 kJ/mol
# GULP energy per Si atom -5573.225073 kJ/mol
# Density = 2.212183 g / cm^3
# Si number density = 22.172293 Si / 1000 Ang^3
#
#
#
# Elastic Constant Matrix: (Units=GPa)
#
#
# Indices 1 2 3 4 5 6 
#
# 1 67.7770 -3.7872 5.0503 0.0000 -4.1101 0.0000
# 2 -3.7872 51.8175 10.4317 0.0000 -7.2369 0.0000
# 3 5.0503 10.4317 87.3249 0.0000 4.7638 0.0000
# 4 0.0000 0.0000 0.0000 5.8612 0.0000 5.9052
# 5 -4.1101 -7.2369 4.7638 0.0000 33.2054 0.0000
# 6 0.0000 0.0000 0.0000 5.9052 0.0000 3.5074
#
#
#
# Elastic Compliance Matrix: (Units=1/GPa)
#
#
# Indices 1 2 3 4 5 6 
#
# 1 0.015084 0.001681 -0.001204 0.000000 0.002406 0.000000
# 2 0.001681 0.020712 -0.002851 0.000000 0.005131 0.000000
# 3 -0.001204 -0.002851 0.011998 0.000000 -0.002492 0.000000
# 4 0.000000 0.000000 0.000000 -0.245046 0.000000 0.412566
# 5 0.002406 0.005131 -0.002492 0.000000 0.031889 0.000000
# 6 0.000000 0.000000 0.000000 0.412566 0.000000 -0.409496
#
#
# Mechanical properties :
#
#
# Convention : Reuss Voigt Hill
#
# Bulk Modulus (GPa) = 23.23208 25.58988 24.41098
# Shear Modulus (GPa) = -8.99666 21.52977 6.26655
#
# Velocity S-wave (km/s) = -2.01654 3.11950 1.68298
# Velocity P-wave (km/s) = 2.25363 4.95394 3.84840
#
# Compressibility (1/GPa) = 0.04304393
#
# Stress axis : x y z
#
# Youngs Moduli (GPa) = 66.29602 48.28117 83.34935
#
# Poissons Ratio (x) = -0.08116 0.10039
# Poissons Ratio (y) = -0.11144 0.23766
# Poissons Ratio (z) = 0.07985 0.13767
#
# Static dielectric constant tensor:
#      x y z
#    x 1.907610 0.000000 0.001630 
#    y 0.000000 1.390910 0.000000 
#    z 0.001630 0.000000 1.748870 
# 
# From -- ./inp_files/185252.got.cif
#   From: 2010.05.17/outbox.cif.g08.bks.cpg/sg15_93_cif.got.tgz:185252.got - 2010.06.03 18:47:42.
