data_PCOD9299659
_publ_section_title
;
Structure prediction by ZEFSAII (Michael W. Deem and Ramdas Pophale) SiO2 
 PCOD9299659
Probable space group: C 2/C
;
_chemical_formula_sum "Si O2"
_cell_formula_units_Z 64
_cell_length_a 14.087286
_cell_length_b 14.668063
_cell_length_c 17.502749
_cell_angle_alpha 90.000000
_cell_angle_beta 48.654928
_cell_angle_gamma 90.000000
_cell_volume 2715.180103
_symmetry_space_group_name_H-M "C 2/C"
_symmetry_group_IT_number 15
_symmetry_cell_setting 'monoclinic'
loop_
_space_group_symop_operation_xyz
x,y,z
-x,y,1/2-z
-x,-y,-z
x,-y,1/2+z
1/2+x,1/2+y,z
1/2-x,1/2+y,1/2-z
1/2-x,1/2-y,-z
1/2+x,1/2-y,1/2+z
loop_
_atom_site_type_symbol
_atom_site_label
_atom_site_fract_x
_atom_site_fract_y
_atom_site_fract_z
Si Si1 0.217001 0.853707 0.535882
Si Si2 0.334101 0.781220 0.134596
Si Si3 0.066280 0.489152 0.134073
Si Si4 0.659942 0.193504 0.106094
Si Si5 0.791063 0.528151 0.731292
Si Si6 0.686645 0.652725 0.225694
Si Si7 0.400270 0.420976 0.050791
Si Si8 0.962995 0.738536 0.098095
O O1 0.250000 0.750000 0.500000
O O2 0.342241 0.916720 0.456290
O O3 0.158628 0.854464 0.651330
O O4 0.120565 0.888081 0.523511
O O5 0.228170 0.718914 0.149001
O O6 0.281728 0.877805 0.189966
O O7 0.384535 0.723372 0.180439
O O8 0.440506 0.801868 0.015562
O O9 0.142322 0.584528 0.105243
O O10 0.000000 0.460384 0.250000
O O11 0.937176 0.503232 0.153593
O O12 0.750000 0.250000 0.000000
O O13 0.522738 0.227653 0.150197
O O14 0.699988 0.449033 0.749888
O O15 0.736317 0.550477 0.844102
O O16 0.827959 0.694842 0.156078
O O17 0.500000 0.500000 0.000000
O O18 0.451631 0.342840 0.078952
#
# Coordination Sequence:
#
# PCOD9299659 Si02
#       8
#     8   8   8   8   8   8   8   8
#     4  12  27  48  72 108 149 199 253 315 376 458
#     4  11  25  45  71 111 151 192 243 321 380 447
#     4  12  25  44  79 108 140 195 256 308 370 457
#     4  10  25  44  75 111 145 189 243 305 386 454
#     4  12  25  46  74 110 146 191 249 312 373 449
#     4  12  25  46  72 107 150 190 251 310 373 453
#     4  12  27  49  72 103 150 200 246 306 383 449
#     4  11  23  45  71 104 144 195 239 309 373 446
#
# _framework density 23.571182
#
# number of rings (size 3 to 8) (size 9 to 14) (size 15 to 20)
#    0.000    0.500    5.000    2.250    7.000    1.000 
#    0.000    3.750    0.000    0.000    0.000    0.000 
#    0.000    0.000    0.000    0.000    0.000    0.000 
#
# Total GULP energy -178980.533364 kJ/mol
# GULP energy per Si atom -5593.141668 kJ/mol
# Density = 2.351753 g / cm^3
# Si number density = 23.571182 Si / 1000 Ang^3
#
#
#
# Elastic Constant Matrix: (Units=GPa)
#
#
# Indices 1 2 3 4 5 6 
#
# 1 65.4957 25.5301 16.0655 0.0000 14.0280 0.0000
# 2 25.5301 116.1402 -10.5147 0.0000 23.2106 0.0000
# 3 16.0655 -10.5147 86.3911 0.0000 16.6277 0.0000
# 4 0.0000 0.0000 0.0000 38.9368 0.0000 -2.4438
# 5 14.0280 23.2106 16.6277 0.0000 48.0661 0.0000
# 6 0.0000 0.0000 0.0000 -2.4438 0.0000 46.7203
#
#
#
# Elastic Compliance Matrix: (Units=1/GPa)
#
#
# Indices 1 2 3 4 5 6 
#
# 1 0.018076 -0.003831 -0.003394 0.000000 -0.002251 0.000000
# 2 -0.003831 0.010746 0.003004 0.000000 -0.005110 0.000000
# 3 -0.003394 0.003004 0.013564 0.000000 -0.005152 0.000000
# 4 0.000000 0.000000 0.000000 0.025767 0.000000 0.001348
# 5 -0.002251 -0.005110 -0.005152 0.000000 0.025712 0.000000
# 6 0.000000 0.000000 0.000000 0.001348 0.000000 0.021474
#
#
# Mechanical properties :
#
#
# Convention : Reuss Voigt Hill
#
# Bulk Modulus (GPa) = 29.46171 36.68764 33.07468
# Shear Modulus (GPa) = 37.01063 42.54102 39.77582
#
# Velocity S-wave (km/s) = 3.96683 4.25289 4.11235
# Velocity P-wave (km/s) = 5.78854 6.30194 6.05069
#
# Compressibility (1/GPa) = 0.03394236
#
# Stress axis : x y z
#
# Youngs Moduli (GPa) = 55.32100 93.06144 73.72614
#
# Poissons Ratio (x) = 0.35651 0.25026
# Poissons Ratio (y) = 0.21193 -0.22146
# Poissons Ratio (z) = 0.18779 -0.27954
#
# Static dielectric constant tensor:
#      x y z
#    x 1.945010 0.000000 -0.015870 
#    y 0.000000 1.849710 0.000000 
#    z -0.015870 0.000000 1.884840 
# 
# From -- ./inp_files/205722.got.cif
#   From: 2010.05.17/outbox.cif.g08.bks.cpg/sg15_103_cif.got.tgz:205722.got - 2010.06.03 18:47:42.
