data_PCOD9299440
_publ_section_title
;
Structure prediction by ZEFSAII (Michael W. Deem and Ramdas Pophale) SiO2 
 PCOD9299440
Probable space group: C 2/C
;
_chemical_formula_sum "Si O2"
_cell_formula_units_Z 52
_cell_length_a 20.797341
_cell_length_b 21.927669
_cell_length_c 9.497744
_cell_angle_alpha 90.000000
_cell_angle_beta 146.373405
_cell_angle_gamma 90.000000
_cell_volume 2398.592777
_symmetry_space_group_name_H-M "C 2/C"
_symmetry_group_IT_number 15
_symmetry_cell_setting 'monoclinic'
loop_
_space_group_symop_operation_xyz
x,y,z
-x,y,1/2-z
-x,-y,-z
x,-y,1/2+z
1/2+x,1/2+y,z
1/2-x,1/2+y,1/2-z
1/2-x,1/2-y,-z
1/2+x,1/2-y,1/2+z
loop_
_atom_site_type_symbol
_atom_site_label
_atom_site_fract_x
_atom_site_fract_y
_atom_site_fract_z
Si Si1 0.500000 0.377423 0.250000
Si Si2 0.143925 0.712683 0.238162
Si Si3 0.423592 0.268336 0.924371
Si Si4 0.133190 0.921485 0.984658
Si Si5 0.261880 0.918741 0.681928
Si Si6 0.805766 0.790083 0.410539
Si Si7 0.768760 0.012903 0.105597
O O1 0.526960 0.331473 0.426589
O O2 0.619579 0.412687 0.432093
O O3 0.250000 0.750000 0.500000
O O4 0.185319 0.646380 0.264111
O O5 0.113709 0.754894 0.050284
O O6 0.025288 0.718202 0.108316
O O7 0.317407 0.243492 0.822421
O O8 0.361676 0.282722 0.664616
O O9 0.000000 0.903290 0.750000
O O10 0.159462 0.947160 0.876383
O O11 0.207321 0.861026 0.146829
O O12 0.159501 0.970159 0.155408
O O13 0.294382 0.966807 0.618322
O O14 0.296518 0.943133 0.901203
#
# Coordination Sequence:
#
# PCOD9299440 Si02
#       7
#     4   8   8   8   8   8   8
#     4  12  22  38  66  92 136 168 210 276 318 408
#     4  12  22  41  67  96 126 173 213 266 333 390
#     4  11  23  40  61  99 132 165 211 259 344 388
#     4  11  22  37  60  87 127 164 217 263 322 382
#     4  11  24  39  66  91 135 167 222 267 326 391
#     4  11  24  39  62  97 130 165 208 272 325 394
#     4  10  25  39  57  92 127 174 213 268 323 382
#
# _framework density 21.679378
#
# number of rings (size 3 to 8) (size 9 to 14) (size 15 to 20)
#    0.000    0.923    3.077    3.692   10.769    0.000 
#    0.000    0.000    0.000    5.538    0.000    0.000 
#    0.000    0.000    0.000    0.000    0.000    0.000 
#
# Total GULP energy -145199.106612 kJ/mol
# GULP energy per Si atom -5584.581024 kJ/mol
# Density = 2.163003 g / cm^3
# Si number density = 21.679378 Si / 1000 Ang^3
#
#
#
# Elastic Constant Matrix: (Units=GPa)
#
#
# Indices 1 2 3 4 5 6 
#
# 1 81.8392 33.4453 29.2036 0.0000 -18.9239 0.0000
# 2 33.4453 125.1173 15.9083 0.0000 -11.5744 0.0000
# 3 29.2036 15.9083 48.1900 0.0000 -22.9867 0.0000
# 4 0.0000 0.0000 0.0000 17.2210 0.0000 -7.9021
# 5 -18.9239 -11.5744 -22.9867 0.0000 40.0881 0.0000
# 6 0.0000 0.0000 0.0000 -7.9021 0.0000 35.0093
#
#
#
# Elastic Compliance Matrix: (Units=1/GPa)
#
#
# Indices 1 2 3 4 5 6 
#
# 1 0.017005 -0.003295 -0.008042 0.000000 0.002465 0.000000
# 2 -0.003295 0.009019 -0.000661 0.000000 0.000669 0.000000
# 3 -0.008042 -0.000661 0.032955 0.000000 0.014909 0.000000
# 4 0.000000 0.000000 0.000000 0.064778 0.000000 0.014621
# 5 0.002465 0.000669 0.014909 0.000000 0.034851 0.000000
# 6 0.000000 0.000000 0.000000 0.014621 0.000000 0.031864
#
#
# Mechanical properties :
#
#
# Convention : Reuss Voigt Hill
#
# Bulk Modulus (GPa) = 28.58549 45.80676 37.19613
# Shear Modulus (GPa) = 22.11123 30.23630 26.17377
#
# Velocity S-wave (km/s) = 3.19708 3.73862 3.47841
# Velocity P-wave (km/s) = 5.18099 6.30963 5.77296
#
# Compressibility (1/GPa) = 0.03498278
#
# Stress axis : x y z
#
# Youngs Moduli (GPa) = 58.80503 110.87281 30.34481
#
# Poissons Ratio (x) = 0.36535 0.24403
# Poissons Ratio (y) = 0.19377 0.02006
# Poissons Ratio (z) = 0.47290 0.07331
#
# Static dielectric constant tensor:
#      x y z
#    x 1.708820 0.000000 0.060780 
#    y 0.000000 1.796340 0.000000 
#    z 0.060780 0.000000 1.650140 
# 
# From -- ./inp_files/58669.got.cif
#   From: 2010.05.17/outbox.cif.g08.bks.cpg/sg15_30_cif.got.tgz:58669.got - 2010.06.03 18:47:42.
