data_PCOD9299799
_publ_section_title
;
Structure prediction by ZEFSAII (Michael W. Deem and Ramdas Pophale) SiO2 
 PCOD9299799
Probable space group: C 2/C
;
_chemical_formula_sum "Si O2"
_cell_formula_units_Z 24
_cell_length_a 9.284209
_cell_length_b 10.450841
_cell_length_c 18.732546
_cell_angle_alpha 90.000000
_cell_angle_beta 152.962087
_cell_angle_gamma 90.000000
_cell_volume 826.234389
_symmetry_space_group_name_H-M "C 2/C"
_symmetry_group_IT_number 15
_symmetry_cell_setting 'monoclinic'
loop_
_space_group_symop_operation_xyz
x,y,z
-x,y,1/2-z
-x,-y,-z
x,-y,1/2+z
1/2+x,1/2+y,z
1/2-x,1/2+y,1/2-z
1/2-x,1/2-y,-z
1/2+x,1/2-y,1/2+z
loop_
_atom_site_type_symbol
_atom_site_label
_atom_site_fract_x
_atom_site_fract_y
_atom_site_fract_z
Si Si1 0.171898 0.099939 0.392808
Si Si2 0.925972 0.472887 0.805843
Si Si3 0.518180 0.683703 0.956060
O O1 0.753425 0.400576 0.200817
O O2 0.398193 0.018445 0.542835
O O3 0.357535 0.218515 0.440234
O O4 0.000000 0.029481 0.250000
O O5 0.642590 0.373951 0.699003
O O6 0.225959 0.413541 0.896770
O O7 0.750000 0.750000 0.000000
#
# Coordination Sequence:
#
# PCOD9299799 Si02
#       3
#     8   8   8
#     4  11  22  43  74 102 136 186 230 282 351 408
#     4  10  25  46  72 101 141 178 232 291 338 413
#     4  11  24  43  73 104 134 187 232 279 353 411
#
# _framework density 29.047447999999999
#
# number of rings (size 3 to 8) (size 9 to 14) (size 15 to 20)
#    0.000    1.333    3.333    1.000    4.667    1.333 
#    0.000    1.667    0.000    0.000    0.000    0.000 
#    0.000    0.000    0.000    0.000    0.000    0.000 
#
# Total GULP energy -67259.629765 kJ/mol
# GULP energy per Si atom -5604.969147 kJ/mol
# Density = 2.898133 g / cm^3
# Si number density = 29.047448 Si / 1000 Ang^3
#
#
#
# Elastic Constant Matrix: (Units=GPa)
#
#
# Indices 1 2 3 4 5 6 
#
# 1 209.7961 94.1852 70.4861 0.0051 65.2642 0.0000
# 2 94.1852 174.1050 83.8283 0.0081 33.0436 0.0022
# 3 70.4861 83.8283 219.3245 0.0374 42.2902 0.0112
# 4 0.0051 0.0081 0.0374 44.3039 0.0097 18.4311
# 5 65.2642 33.0436 42.2902 0.0097 76.1861 0.0012
# 6 0.0000 0.0022 0.0112 18.4311 0.0012 99.9739
#
#
#
# Elastic Compliance Matrix: (Units=1/GPa)
#
#
# Indices 1 2 3 4 5 6 
#
# 1 0.007911 -0.003123 -0.000340 0.000001 -0.005234 0.000000
# 2 -0.003123 0.008485 -0.002291 0.000001 0.000266 0.000000
# 3 -0.000340 -0.002291 0.005931 -0.000004 -0.002008 0.000000
# 4 0.000001 0.000001 -0.000004 0.024446 -0.000002 -0.004507
# 5 -0.005234 0.000266 -0.002008 -0.000002 0.018608 0.000000
# 6 0.000000 0.000000 0.000000 -0.004507 0.000000 0.010834
#
#
# Mechanical properties :
#
#
# Convention : Reuss Voigt Hill
#
# Bulk Modulus (GPa) = 92.41347 122.24719 107.33033
# Shear Modulus (GPa) = 54.74719 67.74117 61.24418
#
# Velocity S-wave (km/s) = 4.34608 4.83441 4.59673
# Velocity P-wave (km/s) = 7.55436 8.56380 8.07487
#
# Compressibility (1/GPa) = 0.01082093
#
# Stress axis : x y z
#
# Youngs Moduli (GPa) = 126.41294 117.84947 168.59326
#
# Poissons Ratio (x) = 0.36799 0.05726
# Poissons Ratio (y) = 0.39473 0.38626
# Poissons Ratio (z) = 0.04294 0.27000
#
# Static dielectric constant tensor:
#      x y z
#    x 2.439910 0.000000 -0.151020 
#    y 0.000000 2.331970 -0.000020 
#    z -0.151020 -0.000020 2.309800 
# 
# From -- ./inp_files/36235.got.cif
#   From: 2010.05.17/outbox.cif.g08.bks.cpg/sg15_19_cif.got.tgz:36235.got - 2010.06.03 18:47:42.
