data_PCOD9299958
_publ_section_title
;
Structure prediction by ZEFSAII (Michael W. Deem and Ramdas Pophale) SiO2 
 PCOD9299958
Probable space group: C 2/C
;
_chemical_formula_sum "Si O2"
_cell_formula_units_Z 36
_cell_length_a 17.844814
_cell_length_b 15.803672
_cell_length_c 7.506298
_cell_angle_alpha 90.000000
_cell_angle_beta 134.811206
_cell_angle_gamma 90.000000
_cell_volume 1501.782938
_symmetry_space_group_name_H-M "C 2/C"
_symmetry_group_IT_number 15
_symmetry_cell_setting 'monoclinic'
loop_
_space_group_symop_operation_xyz
x,y,z
-x,y,1/2-z
-x,-y,-z
x,-y,1/2+z
1/2+x,1/2+y,z
1/2-x,1/2+y,1/2-z
1/2-x,1/2-y,-z
1/2+x,1/2-y,1/2+z
loop_
_atom_site_type_symbol
_atom_site_label
_atom_site_fract_x
_atom_site_fract_y
_atom_site_fract_z
Si Si1 0.791892 0.088640 0.336629
Si Si2 0.878625 0.086005 0.091175
Si Si3 0.937314 0.578482 0.476445
Si Si4 0.000000 0.678650 0.250000
Si Si5 0.278125 0.228991 0.752173
O O1 0.850810 0.100862 0.249575
O O2 0.764109 0.185417 0.345520
O O3 0.858468 0.015229 0.541453
O O4 0.674557 0.049654 0.133170
O O5 0.000000 0.105770 0.250000
O O6 0.797166 0.146379 0.842118
O O7 0.000000 0.616381 0.750000
O O8 0.000000 0.500000 0.500000
O O9 0.932899 0.634785 0.294180
O O10 0.096551 0.716247 0.523882
O O11 0.250000 0.250000 0.500000
#
# Coordination Sequence:
#
# PCOD9299958 Si02
#       5
#     8   8   8   4   8
#     4  11  25  45  71 107 146 193 254 318 385 458
#     4  11  25  47  74 103 150 204 251 315 391 463
#     4  12  24  43  73 111 154 196 258 330 394 465
#     4  12  26  46  80 112 150 208 262 324 410 456
#     4  10  25  49  76 112 158 200 264 327 393 475
#
# _framework density 23.971506999999999
#
# number of rings (size 3 to 8) (size 9 to 14) (size 15 to 20)
#    0.000    0.889    1.111    6.000    4.667    5.333 
#    0.000    0.000    0.000    0.000    0.000    0.000 
#    0.000    0.000    0.000    0.000    0.000    0.000 
#
# Total GULP energy -100267.337685 kJ/mol
# GULP energy per Si atom -5570.407649 kJ/mol
# Density = 2.391695 g / cm^3
# Si number density = 23.971507 Si / 1000 Ang^3
#
#
#
# Elastic Constant Matrix: (Units=GPa)
#
#
# Indices 1 2 3 4 5 6 
#
# 1 137.3043 5.6126 37.3358 0.0000 28.7117 0.0000
# 2 5.6126 103.5921 17.4623 0.0000 8.0878 0.0000
# 3 37.3358 17.4623 126.2155 0.0000 22.6215 0.0000
# 4 0.0000 0.0000 0.0000 37.8241 0.0000 -14.3487
# 5 28.7117 8.0878 22.6215 0.0000 59.6601 0.0000
# 6 0.0000 0.0000 0.0000 -14.3487 0.0000 24.8894
#
#
#
# Elastic Compliance Matrix: (Units=1/GPa)
#
#
# Indices 1 2 3 4 5 6 
#
# 1 0.008509 0.000128 -0.001929 0.000000 -0.003381 0.000000
# 2 0.000128 0.009929 -0.001244 0.000000 -0.000936 0.000000
# 3 -0.001929 -0.001244 0.009087 0.000000 -0.002348 0.000000
# 4 0.000000 0.000000 0.000000 0.033839 0.000000 0.019508
# 5 -0.003381 -0.000936 -0.002348 0.000000 0.019406 0.000000
# 6 0.000000 0.000000 0.000000 0.019508 0.000000 0.051424
#
#
# Mechanical properties :
#
#
# Convention : Reuss Voigt Hill
#
# Bulk Modulus (GPa) = 46.65107 54.21482 50.43294
# Shear Modulus (GPa) = 34.38119 44.92146 39.65133
#
# Velocity S-wave (km/s) = 3.79126 4.33361 4.07148
# Velocity P-wave (km/s) = 6.21837 6.90693 6.57168
#
# Compressibility (1/GPa) = 0.02143573
#
# Stress axis : x y z
#
# Youngs Moduli (GPa) = 117.51721 100.71450 110.05281
#
# Poissons Ratio (x) = -0.01290 0.21228
# Poissons Ratio (y) = -0.01505 0.13689
# Poissons Ratio (z) = 0.22668 0.12527
#
# Static dielectric constant tensor:
#      x y z
#    x 1.874450 0.000000 0.066540 
#    y 0.000000 2.351380 0.000000 
#    z 0.066540 0.000000 1.744220 
# 
# From -- ./inp_files/48854.got.cif
#   From: 2010.05.17/outbox.cif.g08.bks.cpg/sg15_25_cif.got.tgz:48854.got - 2010.06.03 18:47:42.
