data_PCOD9299582
_publ_section_title
;
Structure prediction by ZEFSAII (Michael W. Deem and Ramdas Pophale) SiO2 
 PCOD9299582
Probable space group: C 2/C
;
_chemical_formula_sum "Si O2"
_cell_formula_units_Z 40
_cell_length_a 9.366510
_cell_length_b 23.926004
_cell_length_c 14.881946
_cell_angle_alpha 90.000000
_cell_angle_beta 147.402152
_cell_angle_gamma 90.000000
_cell_volume 1796.744099
_symmetry_space_group_name_H-M "C 2/C"
_symmetry_group_IT_number 15
_symmetry_cell_setting 'monoclinic'
loop_
_space_group_symop_operation_xyz
x,y,z
-x,y,1/2-z
-x,-y,-z
x,-y,1/2+z
1/2+x,1/2+y,z
1/2-x,1/2+y,1/2-z
1/2-x,1/2-y,-z
1/2+x,1/2-y,1/2+z
loop_
_atom_site_type_symbol
_atom_site_label
_atom_site_fract_x
_atom_site_fract_y
_atom_site_fract_z
Si Si1 0.434940 0.359626 0.961571
Si Si2 0.320995 0.661495 0.734972
Si Si3 0.500000 0.768987 0.750000
Si Si4 0.723558 0.641137 0.437283
Si Si5 0.764071 0.508024 0.445517
Si Si6 0.500000 0.050834 0.250000
O O1 0.616753 0.372775 0.142936
O O2 0.243788 0.310068 0.893010
O O3 0.624095 0.340535 0.982092
O O4 0.232969 0.409879 0.831627
O O5 0.500000 0.637184 0.750000
O O6 0.416226 0.726238 0.784216
O O7 0.009117 0.660674 0.555591
O O8 0.500000 0.659707 0.250000
O O9 0.729237 0.573920 0.444549
O O10 0.500000 0.489603 0.250000
O O11 0.000000 0.500000 0.500000
O O12 0.856392 0.480901 0.590262
#
# Coordination Sequence:
#
# PCOD9299582 Si02
#       6
#     8   8   4   8   8   4
#     4  11  24  44  71 104 141 176 238 297 342 421
#     4  10  25  43  74 100 135 185 233 281 363 419
#     4   9  24  44  74 100 140 180 232 283 366 424
#     4  11  26  44  67 105 142 180 232 293 347 412
#     4  11  27  45  69 101 146 190 238 289 352 419
#     4  11  26  42  74 104 140 192 240 289 356 422
#
# _framework density 22.262491000000001
#
# number of rings (size 3 to 8) (size 9 to 14) (size 15 to 20)
#    0.600    0.800    0.000    3.600   14.000    2.400 
#    0.000    0.000    0.000    0.000    0.000    0.000 
#    0.000    0.000    0.000    0.000    0.000    0.000 
#
# Total GULP energy -111605.318113 kJ/mol
# GULP energy per Si atom -5580.265906 kJ/mol
# Density = 2.221182 g / cm^3
# Si number density = 22.262491 Si / 1000 Ang^3
#
#
#
# Elastic Constant Matrix: (Units=GPa)
#
#
# Indices 1 2 3 4 5 6 
#
# 1 129.0346 -2.9489 97.4004 0.0007 16.9445 0.0002
# 2 -2.9489 55.0114 25.6679 0.0007 4.9931 0.0002
# 3 97.4004 25.6679 169.3551 0.0036 11.1850 0.0010
# 4 0.0007 0.0007 0.0036 350.6910 0.0028 107.0559
# 5 16.9445 4.9931 11.1850 0.0028 49.6336 0.0009
# 6 0.0002 0.0002 0.0010 107.0559 0.0009 64.5841
#
#
#
# Elastic Compliance Matrix: (Units=1/GPa)
#
#
# Indices 1 2 3 4 5 6 
#
# 1 0.015603 0.005647 -0.009583 0.000000 -0.003735 0.000000
# 2 0.005647 0.021690 -0.006358 0.000000 -0.002677 0.000000
# 3 -0.009583 -0.006358 0.012304 0.000000 0.001138 0.000000
# 4 0.000000 0.000000 0.000000 0.005773 0.000000 -0.009569
# 5 -0.003735 -0.002677 0.001138 0.000000 0.021436 0.000000
# 6 0.000000 0.000000 0.000000 -0.009569 0.000000 0.031345
#
#
# Mechanical properties :
#
#
# Convention : Reuss Voigt Hill
#
# Bulk Modulus (GPa) = 34.47180 65.95999 50.21589
# Shear Modulus (GPa) = 36.12478 108.53385 72.32931
#
# Velocity S-wave (km/s) = 4.03261 6.98983 5.70612
# Velocity P-wave (km/s) = 6.09922 9.73839 8.12517
#
# Compressibility (1/GPa) = 0.02900922
#
# Stress axis : x y z
#
# Youngs Moduli (GPa) = 64.09103 46.10336 81.27111
#
# Poissons Ratio (x) = -0.26033 0.77880
# Poissons Ratio (y) = -0.36190 0.51674
# Poissons Ratio (z) = 0.61416 0.29313
#
# Static dielectric constant tensor:
#      x y z
#    x 1.760570 0.000000 -0.073650 
#    y 0.000000 1.851350 0.000000 
#    z -0.073650 0.000000 1.734610 
# 
# From -- ./inp_files/139955.got.cif
#   From: 2010.05.17/outbox.cif.g08.bks.cpg/sg15_70_cif.got.tgz:139955.got - 2010.06.03 18:47:42.
