data_PCOD9299009
_publ_section_title
;
Structure prediction by ZEFSAII (Michael W. Deem and Ramdas Pophale) SiO2 
 PCOD9299009
Probable space group: C 2/C
;
_chemical_formula_sum "Si O2"
_cell_formula_units_Z 32
_cell_length_a 5.582066
_cell_length_b 13.982134
_cell_length_c 19.821102
_cell_angle_alpha 90.000000
_cell_angle_beta 65.011693
_cell_angle_gamma 90.000000
_cell_volume 1402.210625
_symmetry_space_group_name_H-M "C 2/C"
_symmetry_group_IT_number 15
_symmetry_cell_setting 'monoclinic'
loop_
_space_group_symop_operation_xyz
x,y,z
-x,y,1/2-z
-x,-y,-z
x,-y,1/2+z
1/2+x,1/2+y,z
1/2-x,1/2+y,1/2-z
1/2-x,1/2-y,-z
1/2+x,1/2-y,1/2+z
loop_
_atom_site_type_symbol
_atom_site_label
_atom_site_fract_x
_atom_site_fract_y
_atom_site_fract_z
Si Si1 0.347066 0.125000 0.518623
Si Si2 0.377650 0.021610 0.907418
Si Si3 0.849903 0.228390 0.592582
Si Si4 0.500000 0.067624 0.250000
Si Si5 0.000000 0.817624 0.750000
O O1 0.374950 0.045302 0.573176
O O2 0.608387 0.182483 0.462870
O O3 0.155522 0.204698 0.573176
O O4 0.253003 0.067517 0.462870
O O5 0.242816 0.125000 0.921456
O O6 0.439361 0.992134 0.824451
O O7 0.662716 0.257866 0.675548
O O8 0.767884 0.125000 0.238077
#
# Coordination Sequence:
#
# PCOD9299009 Si02
#       5
#     8   8   8   4   4
#     4  10  24  46  73 114 144 194 264 314 380 465
#     4  11  24  45  75 107 151 200 254 316 388 458
#     4  11  24  45  75 107 151 200 254 316 388 458
#     4  12  29  50  75 110 158 200 254 323 381 458
#     4  12  29  50  75 110 158 200 254 323 381 458
#
# _framework density 22.821107000000001
#
# number of rings (size 3 to 8) (size 9 to 14) (size 15 to 20)
#    0.000    1.000    2.500    2.250    7.000    2.000 
#    0.000    0.000    0.000    0.000    0.000    0.000 
#    0.000    0.000    0.000    0.000    0.000    0.000 
#
# Total GULP energy -89162.279235 kJ/mol
# GULP energy per Si atom -5572.642452 kJ/mol
# Density = 2.276917 g / cm^3
# Si number density = 22.821107 Si / 1000 Ang^3
#
#
#
# Elastic Constant Matrix: (Units=GPa)
#
#
# Indices 1 2 3 4 5 6 
#
# 1 58.8824 51.8834 88.2264 0.0000 -7.5448 0.0000
# 2 51.8834 157.6118 100.1761 0.0000 -3.8144 0.0000
# 3 88.2264 100.1761 219.0725 0.0000 -5.1080 0.0000
# 4 0.0000 0.0000 0.0000 23.7055 0.0000 1.5511
# 5 -7.5448 -3.8144 -5.1080 0.0000 32.8959 0.0000
# 6 0.0000 0.0000 0.0000 1.5511 0.0000 43.3437
#
#
#
# Elastic Compliance Matrix: (Units=1/GPa)
#
#
# Indices 1 2 3 4 5 6 
#
# 1 0.046968 -0.004747 -0.016566 0.000000 0.007649 0.000000
# 2 -0.004747 0.009429 -0.002409 0.000000 -0.000369 0.000000
# 3 -0.016566 -0.002409 0.012287 0.000000 -0.002171 0.000000
# 4 0.000000 0.000000 0.000000 0.042283 0.000000 -0.001513
# 5 0.007649 -0.000369 -0.002171 0.000000 0.031773 0.000000
# 6 0.000000 0.000000 0.000000 -0.001513 0.000000 0.023126
#
#
# Mechanical properties :
#
#
# Convention : Reuss Voigt Hill
#
# Bulk Modulus (GPa) = 47.07919 101.79318 74.43619
# Shear Modulus (GPa) = 22.68707 33.00775 27.84741
#
# Velocity S-wave (km/s) = 3.15640 3.80724 3.49699
# Velocity P-wave (km/s) = 5.82737 8.00178 6.99953
#
# Compressibility (1/GPa) = 0.02124081
#
# Stress axis : x y z
#
# Youngs Moduli (GPa) = 21.29130 106.05284 81.38519
#
# Poissons Ratio (x) = 0.50339 1.34825
# Poissons Ratio (y) = 0.10106 0.19604
# Poissons Ratio (z) = 0.35272 0.25546
#
# Static dielectric constant tensor:
#      x y z
#    x 2.151970 0.000000 0.030220 
#    y 0.000000 1.914100 0.000000 
#    z 0.030220 0.000000 1.769330 
# 
# From -- ./inp_files/183767.got.cif
#   From: 2010.05.17/outbox.cif.g08.bks.cpg/sg15_92_cif.got.tgz:183767.got - 2010.06.03 18:47:42.
