data_PCOD9299144
_publ_section_title
;
Structure prediction by ZEFSAII (Michael W. Deem and Ramdas Pophale) SiO2 
 PCOD9299144
Probable space group: C 2/C
;
_chemical_formula_sum "Si O2"
_cell_formula_units_Z 60
_cell_length_a 21.311877
_cell_length_b 6.110687
_cell_length_c 21.205684
_cell_angle_alpha 90.000000
_cell_angle_beta 95.912528
_cell_angle_gamma 90.000000
_cell_volume 2746.929729
_symmetry_space_group_name_H-M "C 2/C"
_symmetry_group_IT_number 15
_symmetry_cell_setting 'monoclinic'
loop_
_space_group_symop_operation_xyz
x,y,z
-x,y,1/2-z
-x,-y,-z
x,-y,1/2+z
1/2+x,1/2+y,z
1/2-x,1/2+y,1/2-z
1/2-x,1/2-y,-z
1/2+x,1/2-y,1/2+z
loop_
_atom_site_type_symbol
_atom_site_label
_atom_site_fract_x
_atom_site_fract_y
_atom_site_fract_z
Si Si1 0.467382 0.463468 0.629310
Si Si2 0.360866 0.748807 0.651935
Si Si3 0.392515 0.000594 0.276093
Si Si4 0.500000 0.243389 0.750000
Si Si5 0.298802 0.637984 0.223511
Si Si6 0.257287 0.498297 0.851606
Si Si7 0.968206 0.256101 0.006733
Si Si8 0.392435 0.644855 0.882501
O O1 0.414768 0.651166 0.612531
O O2 0.458409 0.393260 0.700683
O O3 0.453635 0.270016 0.578887
O O4 0.540872 0.536130 0.631962
O O5 0.394001 0.908332 0.705243
O O6 0.332641 0.563983 0.695002
O O7 0.298015 0.867644 0.618652
O O8 0.376841 0.176203 0.327295
O O9 0.461550 0.905449 0.294222
O O10 0.347157 0.794759 0.265118
O O11 0.254286 0.573087 0.277072
O O12 0.265107 0.753831 0.161070
O O13 0.329675 0.495558 0.881231
O O14 0.910755 0.248053 0.951622
O O15 0.000000 0.500000 0.000000
O O16 0.000000 0.000000 0.000000
#
# Coordination Sequence:
#
# PCOD9299144 Si02
#       8
#     8   8   8   4   8   8   8   8
#     4  11  23  42  65  94 133 169 219 286 356 409
#     4  11  22  38  58  91 135 169 210 275 360 404
#     4  11  21  32  58  93 128 165 213 270 340 409
#     4  12  20  32  60  98 132 160 212 280 354 414
#     4  11  19  36  54  87 132 173 202 261 341 412
#     4  11  21  35  60  91 128 175 222 268 337 420
#     4  10  24  47  70  95 133 186 231 285 349 416
#     4  11  22  41  65  96 125 176 237 279 330 422
#
# _framework density 21.842566999999999
#
# number of rings (size 3 to 8) (size 9 to 14) (size 15 to 20)
#    0.000    1.067    4.000    4.000    0.000    2.133 
#    0.000    0.667    0.000    0.800    0.000    0.000 
#    0.000    0.000    0.000    0.000    0.000    0.000 
#
# Total GULP energy -167004.365416 kJ/mol
# GULP energy per Si atom -5566.812181 kJ/mol
# Density = 2.179285 g / cm^3
# Si number density = 21.842567 Si / 1000 Ang^3
#
#
#
# Elastic Constant Matrix: (Units=GPa)
#
#
# Indices 1 2 3 4 5 6 
#
# 1 129.0940 39.9100 20.8984 0.0000 29.1404 0.0000
# 2 39.9100 71.1388 16.1630 0.0000 10.9121 0.0000
# 3 20.8984 16.1630 85.4822 0.0000 13.4056 0.0000
# 4 0.0000 0.0000 0.0000 4.5936 0.0000 -3.1115
# 5 29.1404 10.9121 13.4056 0.0000 19.5986 0.0000
# 6 0.0000 0.0000 0.0000 -3.1115 0.0000 44.5069
#
#
#
# Elastic Compliance Matrix: (Units=1/GPa)
#
#
# Indices 1 2 3 4 5 6 
#
# 1 0.012974 -0.004774 0.000380 0.000000 -0.016892 0.000000
# 2 -0.004774 0.017364 -0.001919 0.000000 -0.001258 0.000000
# 3 0.000380 -0.001919 0.013318 0.000000 -0.008606 0.000000
# 4 0.000000 0.000000 0.000000 0.228513 0.000000 0.015976
# 5 -0.016892 -0.001258 -0.008606 0.000000 0.082727 0.000000
# 6 0.000000 0.000000 0.000000 0.015976 0.000000 0.023585
#
#
# Mechanical properties :
#
#
# Convention : Reuss Voigt Hill
#
# Bulk Modulus (GPa) = 32.22660 48.85089 40.53875
# Shear Modulus (GPa) = 12.45486 27.65606 20.05546
#
# Velocity S-wave (km/s) = 2.39050 3.56217 3.03344
# Velocity P-wave (km/s) = 4.73343 6.27154 5.55597
#
# Compressibility (1/GPa) = 0.03103027
#
# Stress axis : x y z
#
# Youngs Moduli (GPa) = 77.07962 57.59042 75.08675
#
# Poissons Ratio (x) = 0.27491 -0.02853
# Poissons Ratio (y) = 0.36795 0.14409
# Poissons Ratio (z) = -0.02928 0.11051
#
# Static dielectric constant tensor:
#      x y z
#    x 1.936330 0.000000 -0.014960 
#    y 0.000000 1.937250 0.000000 
#    z -0.014960 0.000000 1.792550 
# 
# From -- ./inp_files/281014.got.cif
#   From: 2010.05.17/outbox.cif.g08.bks.cpg/sg15_141_cif.got.tgz:281014.got - 2010.06.03 18:47:42.
