data_PCOD9299820
_publ_section_title
;
Structure prediction by ZEFSAII (Michael W. Deem and Ramdas Pophale) SiO2 
 PCOD9299820
Probable space group: C 2/C
;
_chemical_formula_sum "Si O2"
_cell_formula_units_Z 60
_cell_length_a 20.550548
_cell_length_b 8.563098
_cell_length_c 25.351003
_cell_angle_alpha 90.000000
_cell_angle_beta 145.885956
_cell_angle_gamma 90.000000
_cell_volume 2502.015273
_symmetry_space_group_name_H-M "C 2/C"
_symmetry_group_IT_number 15
_symmetry_cell_setting 'monoclinic'
loop_
_space_group_symop_operation_xyz
x,y,z
-x,y,1/2-z
-x,-y,-z
x,-y,1/2+z
1/2+x,1/2+y,z
1/2-x,1/2+y,1/2-z
1/2-x,1/2-y,-z
1/2+x,1/2-y,1/2+z
loop_
_atom_site_type_symbol
_atom_site_label
_atom_site_fract_x
_atom_site_fract_y
_atom_site_fract_z
Si Si1 0.000000 0.724358 0.250000
Si Si2 0.937300 0.107531 0.616805
Si Si3 0.972638 0.667673 0.512117
Si Si4 0.197034 0.724018 0.734356
Si Si5 0.797035 0.943938 0.208861
Si Si6 0.676892 0.003103 0.317177
Si Si7 0.879910 0.758345 0.972164
Si Si8 0.297117 0.685227 0.976941
O O1 0.094500 0.820046 0.347865
O O2 0.070103 0.616639 0.256109
O O3 0.911951 0.236743 0.554930
O O4 0.069996 0.060997 0.718123
O O5 0.878701 0.955262 0.552674
O O6 0.078915 0.717002 0.621519
O O7 0.999700 0.775459 0.479524
O O8 0.000000 0.500000 0.500000
O O9 0.864986 0.708573 0.478574
O O10 0.289544 0.676529 0.752577
O O11 0.178738 0.590221 0.764859
O O12 0.227481 0.885345 0.783517
O O13 0.703138 0.884679 0.103181
O O14 0.686548 0.882010 0.371573
O O15 0.796401 0.098590 0.401406
O O16 0.250000 0.750000 0.000000
#
# Coordination Sequence:
#
# PCOD9299820 Si02
#       8
#     4   8   8   8   8   8   8   8
#     4  12  28  48  76 108 148 218 258 318 394 476
#     4  11  26  48  78 104 154 203 263 317 391 464
#     4  11  26  43  76 116 147 200 253 318 395 462
#     4  11  25  44  73 110 153 190 250 321 391 455
#     4  11  23  46  73 113 149 194 247 319 394 451
#     4  11  27  45  73 106 148 198 258 318 379 466
#     4  10  25  46  75 111 142 195 254 322 378 455
#     4  11  28  50  72 112 158 207 256 322 393 477
#
# _framework density 23.98067
#
# number of rings (size 3 to 8) (size 9 to 14) (size 15 to 20)
#    0.000    1.067    2.667    1.600    9.333    5.333 
#    0.000    0.000    0.000    0.000    0.000    0.000 
#    0.000    0.000    0.000    0.000    0.000    0.000 
#
# Total GULP energy -167378.935011 kJ/mol
# GULP energy per Si atom -5579.297834 kJ/mol
# Density = 2.392609 g / cm^3
# Si number density = 23.980670 Si / 1000 Ang^3
#
#
#
# Elastic Constant Matrix: (Units=GPa)
#
#
# Indices 1 2 3 4 5 6 
#
# 1 104.1807 44.6808 42.3194 0.0000 -19.0356 0.0000
# 2 44.6808 94.0911 31.1281 0.0000 -18.6989 0.0000
# 3 42.3194 31.1281 111.7427 0.0000 -33.8638 0.0000
# 4 0.0000 0.0000 0.0000 28.1729 0.0000 -8.9311
# 5 -19.0356 -18.6989 -33.8638 0.0000 45.2624 0.0000
# 6 0.0000 0.0000 0.0000 -8.9311 0.0000 32.0873
#
#
#
# Elastic Compliance Matrix: (Units=1/GPa)
#
#
# Indices 1 2 3 4 5 6 
#
# 1 0.013283 -0.005003 -0.003324 0.000000 0.001033 0.000000
# 2 -0.005003 0.013937 -0.001139 0.000000 0.002802 0.000000
# 3 -0.003324 -0.001139 0.012879 0.000000 0.007767 0.000000
# 4 0.000000 0.000000 0.000000 0.038930 0.000000 0.010836
# 5 0.001033 0.002802 0.007767 0.000000 0.029496 0.000000
# 6 0.000000 0.000000 0.000000 0.010836 0.000000 0.034181
#
#
# Mechanical properties :
#
#
# Convention : Reuss Voigt Hill
#
# Bulk Modulus (GPa) = 47.24028 60.69679 53.96854
# Shear Modulus (GPa) = 29.63934 33.89692 31.76813
#
# Velocity S-wave (km/s) = 3.51945 3.76375 3.64365
# Velocity P-wave (km/s) = 6.02141 6.65232 6.34471
#
# Compressibility (1/GPa) = 0.02116837
#
# Stress axis : x y z
#
# Youngs Moduli (GPa) = 75.28254 71.75036 77.64502
#
# Poissons Ratio (x) = 0.35896 0.25810
# Poissons Ratio (y) = 0.37663 0.08841
# Poissons Ratio (z) = 0.25024 0.08170
#
# Static dielectric constant tensor:
#      x y z
#    x 2.002620 0.000000 0.027060 
#    y 0.000000 2.103580 0.000000 
#    z 0.027060 0.000000 1.934310 
# 
# From -- ./inp_files/279726.got.cif
#   From: 2010.05.17/outbox.cif.g08.bks.cpg/sg15_140_cif.got.tgz:279726.got - 2010.06.03 18:47:42.
