data_PCOD9299126
_publ_section_title
;
Structure prediction by ZEFSAII (Michael W. Deem and Ramdas Pophale) SiO2 
 PCOD9299126
Probable space group: C 2/C
;
_chemical_formula_sum "Si O2"
_cell_formula_units_Z 40
_cell_length_a 8.406473
_cell_length_b 18.607773
_cell_length_c 12.206142
_cell_angle_alpha 90.000000
_cell_angle_beta 96.554038
_cell_angle_gamma 90.000000
_cell_volume 1896.876504
_symmetry_space_group_name_H-M "C 2/C"
_symmetry_group_IT_number 15
_symmetry_cell_setting 'monoclinic'
loop_
_space_group_symop_operation_xyz
x,y,z
-x,y,1/2-z
-x,-y,-z
x,-y,1/2+z
1/2+x,1/2+y,z
1/2-x,1/2+y,1/2-z
1/2-x,1/2-y,-z
1/2+x,1/2-y,1/2+z
loop_
_atom_site_type_symbol
_atom_site_label
_atom_site_fract_x
_atom_site_fract_y
_atom_site_fract_z
Si Si1 0.319647 0.072557 0.228303
Si Si2 0.848572 0.167707 0.112173
Si Si3 0.397263 0.573076 0.490499
Si Si4 0.626649 0.164556 0.890850
Si Si5 0.792219 0.411323 0.310614
O O1 0.500000 0.101377 0.250000
O O2 0.198223 0.123958 0.283679
O O3 0.257122 0.062493 0.099879
O O4 0.318624 0.995212 0.287546
O O5 0.880834 0.251098 0.136236
O O6 0.995306 0.133123 0.058502
O O7 0.699435 0.159085 0.017021
O O8 0.500000 0.500000 0.500000
O O9 0.341290 0.594016 0.607184
O O10 0.738493 0.126814 0.808251
O O11 0.455742 0.125572 0.866717
#
# Coordination Sequence:
#
# PCOD9299126 Si02
#       5
#     8   8   8   8   8
#     4  12  25  43  71 101 138 189 234 286 344 424
#     4  11  25  45  70 100 143 175 241 290 348 410
#     4  12  26  41  71 106 140 175 238 297 344 401
#     4  10  24  47  68  98 139 191 223 288 351 428
#     4  11  24  43  73  95 141 185 231 275 357 417
#
# _framework density 21.087299000000002
#
# number of rings (size 3 to 8) (size 9 to 14) (size 15 to 20)
#    0.000    0.800    4.000    3.000    5.600    4.800 
#    7.200    0.000    0.000    0.000    0.000    0.000 
#    0.000    0.000    0.000    0.000    0.000    0.000 
#
# Total GULP energy -111920.026673 kJ/mol
# GULP energy per Si atom -5596.001334 kJ/mol
# Density = 2.103930 g / cm^3
# Si number density = 21.087299 Si / 1000 Ang^3
#
#
#
# Elastic Constant Matrix: (Units=GPa)
#
#
# Indices 1 2 3 4 5 6 
#
# 1 56.4231 16.7945 4.9670 0.0000 -19.3106 0.0000
# 2 16.7945 112.2875 20.5774 0.0000 -20.4007 0.0000
# 3 4.9670 20.5774 76.9393 0.0000 -18.7208 0.0000
# 4 0.0000 0.0000 0.0000 15.9323 0.0000 -28.6317
# 5 -19.3106 -20.4007 -18.7208 0.0000 58.9398 0.0000
# 6 0.0000 0.0000 0.0000 -28.6317 0.0000 -28.2160
#
#
#
# Elastic Compliance Matrix: (Units=1/GPa)
#
#
# Indices 1 2 3 4 5 6 
#
# 1 0.020395 -0.002059 0.000744 0.000000 0.006205 0.000000
# 2 -0.002059 0.009971 -0.002014 0.000000 0.002137 0.000000
# 3 0.000744 -0.002014 0.014498 0.000000 0.004152 0.000000
# 4 0.000000 0.000000 0.000000 0.022229 0.000000 -0.022557
# 5 0.006205 0.002137 0.004152 0.000000 0.021058 0.000000
# 6 0.000000 0.000000 0.000000 -0.022557 0.000000 -0.012552
#
#
# Mechanical properties :
#
#
# Convention : Reuss Voigt Hill
#
# Bulk Modulus (GPa) = 26.17434 36.70309 31.43872
# Shear Modulus (GPa) = 52.63601 22.88530 37.76065
#
# Velocity S-wave (km/s) = 5.00152 3.29791 4.23624
# Velocity P-wave (km/s) = 6.76705 5.65196 6.23448
#
# Compressibility (1/GPa) = 0.03820535
#
# Stress axis : x y z
#
# Youngs Moduli (GPa) = 49.03282 100.29084 68.97495
#
# Poissons Ratio (x) = 0.20653 -0.05132
# Poissons Ratio (y) = 0.10097 0.13891
# Poissons Ratio (z) = -0.03648 0.20197
#
# Static dielectric constant tensor:
#      x y z
#    x 1.777870 0.000000 0.038520 
#    y 0.000000 1.718140 0.000000 
#    z 0.038520 0.000000 1.768450 
# 
# From -- ./inp_files/76800.got.cif
#   From: 2010.05.17/outbox.cif.g08.bks.cpg/sg15_39_cif.got.tgz:76800.got - 2010.06.03 18:47:42.
