data_PCOD9299442
_publ_section_title
;
Structure prediction by ZEFSAII (Michael W. Deem and Ramdas Pophale) SiO2 
 PCOD9299442
Probable space group: C 2/C
;
_chemical_formula_sum "Si O2"
_cell_formula_units_Z 32
_cell_length_a 5.371286
_cell_length_b 9.117711
_cell_length_c 29.115001
_cell_angle_alpha 90.000000
_cell_angle_beta 69.281884
_cell_angle_gamma 90.000000
_cell_volume 1333.665156
_symmetry_space_group_name_H-M "C 2/C"
_symmetry_group_IT_number 15
_symmetry_cell_setting 'monoclinic'
loop_
_space_group_symop_operation_xyz
x,y,z
-x,y,1/2-z
-x,-y,-z
x,-y,1/2+z
1/2+x,1/2+y,z
1/2-x,1/2+y,1/2-z
1/2-x,1/2-y,-z
1/2+x,1/2-y,1/2+z
loop_
_atom_site_type_symbol
_atom_site_label
_atom_site_fract_x
_atom_site_fract_y
_atom_site_fract_z
Si Si1 0.399286 0.209979 0.807876
Si Si2 0.379406 0.982019 0.636361
Si Si3 0.575841 0.693755 0.609622
Si Si4 0.536586 0.332957 0.482129
O O1 0.500000 0.224107 0.750000
O O2 0.564927 0.092492 0.825853
O O3 0.357478 0.367327 0.835283
O O4 0.094634 0.156546 0.833598
O O5 0.312365 0.079033 0.596268
O O6 0.621566 0.867395 0.611420
O O7 0.396660 0.672873 0.576463
O O8 0.500000 0.500000 0.500000
O O9 0.250000 0.250000 0.500000
O O10 0.750000 0.250000 0.500000
#
# Coordination Sequence:
#
# PCOD9299442 Si02
#       4
#     8   8   8   8
#     4  10  26  40  68  94 134 171 223 272 341 404
#     4  10  25  39  67  91 134 167 226 264 351 388
#     4  10  26  42  69  95 136 173 225 281 339 408
#     4  12  28  46  75 104 143 185 239 290 355 417
#
# _framework density 23.994028
#
# number of rings (size 3 to 8) (size 9 to 14) (size 15 to 20)
#    1.500    0.000    0.000    2.250   14.000    0.000 
#    0.000    0.000    0.000    0.000    0.000    0.000 
#    0.000    0.000    0.000    0.000    0.000    0.000 
#
# Total GULP energy -89220.630972 kJ/mol
# GULP energy per Si atom -5576.289436 kJ/mol
# Density = 2.393942 g / cm^3
# Si number density = 23.994028 Si / 1000 Ang^3
#
#
#
# Elastic Constant Matrix: (Units=GPa)
#
#
# Indices 1 2 3 4 5 6 
#
# 1 91.9203 79.2628 17.4764 0.0000 19.7785 0.0000
# 2 79.2628 242.3355 56.0400 0.0000 32.1349 0.0000
# 3 17.4764 56.0400 91.8447 0.0000 -3.1070 0.0000
# 4 0.0000 0.0000 0.0000 30.4425 0.0000 19.3853
# 5 19.7785 32.1349 -3.1070 0.0000 39.7913 0.0000
# 6 0.0000 0.0000 0.0000 19.3853 0.0000 45.6906
#
#
#
# Elastic Compliance Matrix: (Units=1/GPa)
#
#
# Indices 1 2 3 4 5 6 
#
# 1 0.015741 -0.004497 -0.000394 0.000000 -0.004223 0.000000
# 2 -0.004497 0.006873 -0.003459 0.000000 -0.003585 0.000000
# 3 -0.000394 -0.003459 0.013209 0.000000 0.004021 0.000000
# 4 0.000000 0.000000 0.000000 0.045009 0.000000 -0.019096
# 5 -0.004223 -0.003585 0.004021 0.000000 0.030439 0.000000
# 6 0.000000 0.000000 0.000000 -0.019096 0.000000 0.029988
#
#
# Mechanical properties :
#
#
# Convention : Reuss Voigt Hill
#
# Bulk Modulus (GPa) = 52.29501 81.29542 66.79522
# Shear Modulus (GPa) = 30.42592 41.40630 35.91611
#
# Velocity S-wave (km/s) = 3.56485 4.15865 3.87315
# Velocity P-wave (km/s) = 6.22788 7.55078 6.92101
#
# Compressibility (1/GPa) = 0.01912228
#
# Stress axis : x y z
#
# Youngs Moduli (GPa) = 63.53021 145.50140 75.70341
#
# Poissons Ratio (x) = 0.65437 0.02982
# Poissons Ratio (y) = 0.28572 0.26186
# Poissons Ratio (z) = 0.02502 0.50329
#
# Static dielectric constant tensor:
#      x y z
#    x 2.043830 0.000000 -0.079830 
#    y 0.000000 1.983460 0.000000 
#    z -0.079830 0.000000 1.985930 
# 
# From -- ./inp_files/304651.got.cif
#   From: 2010.05.17/outbox.cif.g08.bks.cpg/sg15_153_cif.got.tgz:304651.got - 2010.06.03 18:47:42.
