data_PCOD9299985
_publ_section_title
;
Structure prediction by ZEFSAII (Michael W. Deem and Ramdas Pophale) SiO2 
 PCOD9299985
Probable space group: C 2/C
;
_chemical_formula_sum "Si O2"
_cell_formula_units_Z 32
_cell_length_a 24.512657
_cell_length_b 5.122419
_cell_length_c 9.972291
_cell_angle_alpha 90.000000
_cell_angle_beta 97.547857
_cell_angle_gamma 90.000000
_cell_volume 1241.312378
_symmetry_space_group_name_H-M "C 2/C"
_symmetry_group_IT_number 15
_symmetry_cell_setting 'monoclinic'
loop_
_space_group_symop_operation_xyz
x,y,z
-x,y,1/2-z
-x,-y,-z
x,-y,1/2+z
1/2+x,1/2+y,z
1/2-x,1/2+y,1/2-z
1/2-x,1/2-y,-z
1/2+x,1/2-y,1/2+z
loop_
_atom_site_type_symbol
_atom_site_label
_atom_site_fract_x
_atom_site_fract_y
_atom_site_fract_z
Si Si1 0.213003 0.498083 0.460161
Si Si2 0.964214 0.383085 0.367873
Si Si3 0.640496 0.766753 0.736488
Si Si4 0.130004 0.138436 0.023678
O O1 0.250000 0.750000 0.500000
O O2 0.187712 0.534139 0.303930
O O3 0.158305 0.574006 0.529596
O O4 0.250000 0.250000 0.500000
O O5 0.917380 0.586031 0.302280
O O6 0.929597 0.156381 0.429206
O O7 0.000000 0.308049 0.250000
O O8 0.000000 0.500000 0.500000
O O9 0.659052 0.571300 0.626263
O O10 0.631062 0.579122 0.866351
#
# Coordination Sequence:
#
# PCOD9299985 Si02
#       4
#     8   8   8   8
#     4  10  25  51  83 119 161 225 274 341 430 505
#     4  12  25  47  74 111 163 220 280 357 434 503
#     4  10  26  46  78 121 161 211 289 350 423 519
#     4  10  26  46  79 117 167 210 291 346 425 517
#
# _framework density 25.779167999999999
#
# number of rings (size 3 to 8) (size 9 to 14) (size 15 to 20)
#    1.500    0.000    2.500    0.000   10.500    2.000 
#    4.500    0.000    0.000    1.500    0.000    0.000 
#    0.000    0.000    0.000    0.000    0.000    0.000 
#
# Total GULP energy -89407.708398 kJ/mol
# GULP energy per Si atom -5587.981775 kJ/mol
# Density = 2.572049 g / cm^3
# Si number density = 25.779168 Si / 1000 Ang^3
#
#
#
# Elastic Constant Matrix: (Units=GPa)
#
#
# Indices 1 2 3 4 5 6 
#
# 1 116.0828 24.4858 40.7080 0.0000 -2.0284 0.0000
# 2 24.4858 122.8808 12.2806 0.0000 13.5651 0.0000
# 3 40.7080 12.2806 109.3802 0.0000 20.4582 0.0000
# 4 0.0000 0.0000 0.0000 38.3880 0.0000 -1.4038
# 5 -2.0284 13.5651 20.4582 0.0000 70.7801 0.0000
# 6 0.0000 0.0000 0.0000 -1.4038 0.0000 39.1531
#
#
#
# Elastic Compliance Matrix: (Units=1/GPa)
#
#
# Indices 1 2 3 4 5 6 
#
# 1 0.010453 -0.001882 -0.004020 0.000000 0.001822 0.000000
# 2 -0.001882 0.008700 0.000048 0.000000 -0.001735 0.000000
# 3 -0.004020 0.000048 0.011265 0.000000 -0.003381 0.000000
# 4 0.000000 0.000000 0.000000 0.026084 0.000000 0.000935
# 5 0.001822 -0.001735 -0.003381 0.000000 0.015490 0.000000
# 6 0.000000 0.000000 0.000000 0.000935 0.000000 0.025574
#
#
# Mechanical properties :
#
#
# Convention : Reuss Voigt Hill
#
# Bulk Modulus (GPa) = 53.44566 55.92140 54.68353
# Shear Modulus (GPa) = 43.28585 47.72220 45.50403
#
# Velocity S-wave (km/s) = 4.10213 4.30722 4.20592
# Velocity P-wave (km/s) = 6.57372 6.81731 6.69662
#
# Compressibility (1/GPa) = 0.01871059
#
# Stress axis : x y z
#
# Youngs Moduli (GPa) = 95.66535 114.94547 88.76780
#
# Poissons Ratio (x) = 0.21637 0.35683
# Poissons Ratio (y) = 0.18008 -0.00429
# Poissons Ratio (z) = 0.38456 -0.00556
#
# Static dielectric constant tensor:
#      x y z
#    x 2.798470 0.000000 -0.244830 
#    y 0.000000 2.076470 0.000000 
#    z -0.244830 0.000000 2.263290 
# 
# From -- ./inp_files/115425.got.cif
#   From: 2010.05.17/outbox.cif.g08.bks.cpg/sg15_58_cif.got.tgz:115425.got - 2010.06.03 18:47:42.
