data_PCOD9299776
_publ_section_title
;
Structure prediction by ZEFSAII (Michael W. Deem and Ramdas Pophale) SiO2 
 PCOD9299776
Probable space group: C 2/C
;
_chemical_formula_sum "Si O2"
_cell_formula_units_Z 56
_cell_length_a 9.807069
_cell_length_b 11.732348
_cell_length_c 24.506923
_cell_angle_alpha 90.000000
_cell_angle_beta 60.674892
_cell_angle_gamma 90.000000
_cell_volume 2458.425675
_symmetry_space_group_name_H-M "C 2/C"
_symmetry_group_IT_number 15
_symmetry_cell_setting 'monoclinic'
loop_
_space_group_symop_operation_xyz
x,y,z
-x,y,1/2-z
-x,-y,-z
x,-y,1/2+z
1/2+x,1/2+y,z
1/2-x,1/2+y,1/2-z
1/2-x,1/2-y,-z
1/2+x,1/2-y,1/2+z
loop_
_atom_site_type_symbol
_atom_site_label
_atom_site_fract_x
_atom_site_fract_y
_atom_site_fract_z
Si Si1 0.366883 0.061079 0.111232
Si Si2 0.508085 0.511279 0.665221
Si Si3 0.132737 0.239785 0.973042
Si Si4 0.872498 0.447714 0.384587
Si Si5 0.242803 0.831219 0.741591
Si Si6 0.500000 0.855756 0.250000
Si Si7 0.000000 0.784087 0.250000
Si Si8 0.585423 0.572631 0.436619
O O1 0.401813 0.150538 0.056576
O O2 0.355357 0.125759 0.171568
O O3 0.189694 0.020420 0.136312
O O4 0.495258 0.962278 0.095142
O O5 0.384381 0.428479 0.719922
O O6 0.494484 0.633428 0.697740
O O7 0.467195 0.483082 0.610319
O O8 0.239785 0.151002 0.916384
O O9 0.250000 0.250000 0.000000
O O10 0.978418 0.195186 0.034055
O O11 0.769562 0.561258 0.406111
O O12 0.953526 0.428378 0.311160
O O13 0.345912 0.792804 0.772910
O O14 0.142914 0.724709 0.739531
O O15 0.500000 0.500000 0.500000
#
# Coordination Sequence:
#
# PCOD9299776 Si02
#       8
#     8   8   8   8   8   4   4   8
#     4  12  24  44  70 101 138 180 239 290 350 437
#     4  12  23  48  67 101 147 184 232 299 360 426
#     4  11  23  48  69  95 138 186 234 288 345 422
#     4  11  26  42  70 106 131 185 233 286 364 411
#     4  12  25  44  69 107 144 184 236 291 367 431
#     4  12  21  45  72  96 144 180 223 297 364 426
#     4  12  27  41  70 106 144 188 235 301 356 432
#     4  10  25  46  69  95 143 188 230 289 348 420
#
# _framework density 22.778807
#
# number of rings (size 3 to 8) (size 9 to 14) (size 15 to 20)
#    0.000    0.571    5.714    1.714    6.000    1.143 
#    0.000    0.000    0.000    0.000    0.000    0.000 
#    0.000    0.000    0.000    0.000    0.000    0.000 
#
# Total GULP energy -156425.253734 kJ/mol
# GULP energy per Si atom -5586.616205 kJ/mol
# Density = 2.272696 g / cm^3
# Si number density = 22.778807 Si / 1000 Ang^3
#
#
#
# Elastic Constant Matrix: (Units=GPa)
#
#
# Indices 1 2 3 4 5 6 
#
# 1 121.1712 20.2580 7.5114 0.0000 -4.9670 0.0000
# 2 20.2580 33.7348 3.8411 0.0000 -4.4349 0.0000
# 3 7.5114 3.8411 75.2629 0.0000 25.7635 0.0000
# 4 0.0000 0.0000 0.0000 9.0781 0.0000 -5.8425
# 5 -4.9670 -4.4349 25.7635 0.0000 31.7015 0.0000
# 6 0.0000 0.0000 0.0000 -5.8425 0.0000 22.3200
#
#
#
# Elastic Compliance Matrix: (Units=1/GPa)
#
#
# Indices 1 2 3 4 5 6 
#
# 1 0.009271 -0.005194 -0.001259 0.000000 0.001749 0.000000
# 2 -0.005194 0.034068 -0.003565 0.000000 0.006849 0.000000
# 3 -0.001259 -0.003565 0.019164 0.000000 -0.016270 0.000000
# 4 0.000000 0.000000 0.000000 0.132471 0.000000 0.034676
# 5 0.001749 0.006849 -0.016270 0.000000 0.045999 0.000000
# 6 0.000000 0.000000 0.000000 0.034676 0.000000 0.053880
#
#
# Mechanical properties :
#
#
# Convention : Reuss Voigt Hill
#
# Bulk Modulus (GPa) = 23.54746 32.59888 28.07317
# Shear Modulus (GPa) = 15.19550 25.85715 20.52633
#
# Velocity S-wave (km/s) = 2.58561 3.37284 3.00511
# Velocity P-wave (km/s) = 4.39018 5.43233 4.93882
#
# Compressibility (1/GPa) = 0.04246743
#
# Stress axis : x y z
#
# Youngs Moduli (GPa) = 107.86470 29.35273 52.18161
#
# Poissons Ratio (x) = 0.15246 0.06569
# Poissons Ratio (y) = 0.56025 0.18603
# Poissons Ratio (z) = 0.13579 0.10464
#
# Static dielectric constant tensor:
#      x y z
#    x 1.873630 0.000000 -0.063010 
#    y 0.000000 1.974160 0.000000 
#    z -0.063010 0.000000 2.003690 
# 
# From -- ./inp_files/264646.got.cif
#   From: 2010.05.17/outbox.cif.g08.bks.cpg/sg15_133_cif.got.tgz:264646.got - 2010.06.03 18:47:42.
