data_PCOD9299661
_publ_section_title
;
Structure prediction by ZEFSAII (Michael W. Deem and Ramdas Pophale) SiO2 
 PCOD9299661
Probable space group: C 2/C
;
_chemical_formula_sum "Si O2"
_cell_formula_units_Z 40
_cell_length_a 5.154195
_cell_length_b 30.425010
_cell_length_c 11.563355
_cell_angle_alpha 90.000000
_cell_angle_beta 85.158581
_cell_angle_gamma 90.000000
_cell_volume 1806.854357
_symmetry_space_group_name_H-M "C 2/C"
_symmetry_group_IT_number 15
_symmetry_cell_setting 'monoclinic'
loop_
_space_group_symop_operation_xyz
x,y,z
-x,y,1/2-z
-x,-y,-z
x,-y,1/2+z
1/2+x,1/2+y,z
1/2-x,1/2+y,1/2-z
1/2-x,1/2-y,-z
1/2+x,1/2-y,1/2+z
loop_
_atom_site_type_symbol
_atom_site_label
_atom_site_fract_x
_atom_site_fract_y
_atom_site_fract_z
Si Si1 0.248877 0.125958 0.951160
Si Si2 0.500000 0.177900 0.750000
Si Si3 0.233233 0.353247 0.598453
Si Si4 0.000000 0.923777 0.750000
Si Si5 0.756023 0.029026 0.472999
Si Si6 0.720455 0.246505 0.140900
O O1 0.307804 0.146532 0.825628
O O2 0.458956 0.141242 0.041870
O O3 0.262933 0.073408 0.951210
O O4 0.964256 0.141901 0.997449
O O5 0.594353 0.212834 0.839458
O O6 0.305714 0.392158 0.684797
O O7 0.264237 0.305700 0.656365
O O8 0.825765 0.952936 0.842518
O O9 0.500000 0.000000 0.500000
O O10 0.000000 0.000000 0.500000
O O11 0.500000 0.255062 0.250000
O O12 0.750000 0.250000 0.000000
#
# Coordination Sequence:
#
# PCOD9299661 Si02
#       6
#     8   4   8   4   8   8
#     4  11  26  46  72 105 148 195 246 314 379 454
#     4  12  27  44  72 106 162 202 248 312 389 440
#     4  11  25  45  72 108 143 196 260 300 368 440
#     4  10  25  44  76 102 144 194 242 310 375 456
#     4  11  25  46  71 106 140 182 247 310 379 453
#     4  12  27  45  74 109 155 201 259 311 368 450
#
# _framework density 22.137924000000002
#
# number of rings (size 3 to 8) (size 9 to 14) (size 15 to 20)
#    0.000    0.800    2.000    4.200    8.400    7.200 
#    0.000    0.000    0.000    0.000    0.000    0.000 
#    0.000    0.000    0.000    0.000    0.000    0.000 
#
# Total GULP energy -111552.047159 kJ/mol
# GULP energy per Si atom -5577.602358 kJ/mol
# Density = 2.208754 g / cm^3
# Si number density = 22.137924 Si / 1000 Ang^3
#
#
#
# Elastic Constant Matrix: (Units=GPa)
#
#
# Indices 1 2 3 4 5 6 
#
# 1 67.1859 33.7743 13.6880 0.0000 -5.0507 0.0000
# 2 33.7743 160.9056 37.2572 0.0000 -8.1150 0.0000
# 3 13.6880 37.2572 143.1780 0.0000 -9.4028 0.0000
# 4 0.0000 0.0000 0.0000 -8.9483 0.0000 17.3485
# 5 -5.0507 -8.1150 -9.4028 0.0000 29.6493 0.0000
# 6 0.0000 0.0000 0.0000 17.3485 0.0000 9.9284
#
#
#
# Elastic Compliance Matrix: (Units=1/GPa)
#
#
# Indices 1 2 3 4 5 6 
#
# 1 0.016800 -0.003291 -0.000634 0.000000 0.001760 0.000000
# 2 -0.003291 0.007307 -0.001524 0.000000 0.000956 0.000000
# 3 -0.000634 -0.001524 0.007565 0.000000 0.001874 0.000000
# 4 0.000000 0.000000 0.000000 -0.025470 0.000000 0.044505
# 5 0.001760 0.000956 0.001874 0.000000 0.034883 0.000000
# 6 0.000000 0.000000 0.000000 0.044505 0.000000 0.022955
#
#
# Mechanical properties :
#
#
# Convention : Reuss Voigt Hill
#
# Bulk Modulus (GPa) = 48.13865 60.07875 54.10870
# Shear Modulus (GPa) = 61.07824 25.22920 43.15372
#
# Velocity S-wave (km/s) = 5.25830 3.37951 4.41989
# Velocity P-wave (km/s) = 7.65888 6.51348 7.10929
#
# Compressibility (1/GPa) = 0.02077333
#
# Stress axis : x y z
#
# Youngs Moduli (GPa) = 59.52447 136.86224 132.19554
#
# Poissons Ratio (x) = 0.45037 0.08384
# Poissons Ratio (y) = 0.19588 0.20146
# Poissons Ratio (z) = 0.03775 0.20857
#
# Static dielectric constant tensor:
#      x y z
#    x 1.857710 0.000000 -0.006640 
#    y 0.000000 1.857040 0.000000 
#    z -0.006640 0.000000 1.927670 
# 
# From -- ./inp_files/73159.got.cif
#   From: 2010.05.17/outbox.cif.g08.bks.cpg/sg15_37_cif.got.tgz:73159.got - 2010.06.03 18:47:42.
