data_PCOD9299007
_publ_section_title
;
Structure prediction by ZEFSAII (Michael W. Deem and Ramdas Pophale) SiO2 
 PCOD9299007
Probable space group: C 2/C
;
_chemical_formula_sum "Si O2"
_cell_formula_units_Z 28
_cell_length_a 13.726642
_cell_length_b 13.645237
_cell_length_c 5.149260
_cell_angle_alpha 90.000000
_cell_angle_beta 84.830043
_cell_angle_gamma 90.000000
_cell_volume 960.549620
_symmetry_space_group_name_H-M "C 2/C"
_symmetry_group_IT_number 15
_symmetry_cell_setting 'monoclinic'
loop_
_space_group_symop_operation_xyz
x,y,z
-x,y,1/2-z
-x,-y,-z
x,-y,1/2+z
1/2+x,1/2+y,z
1/2-x,1/2+y,1/2-z
1/2-x,1/2-y,-z
1/2+x,1/2-y,1/2+z
loop_
_atom_site_type_symbol
_atom_site_label
_atom_site_fract_x
_atom_site_fract_y
_atom_site_fract_z
Si Si1 0.718008 0.939654 0.863971
Si Si2 0.000000 0.418850 0.250000
Si Si3 0.068223 0.093493 0.422021
Si Si4 0.363719 0.776814 0.915366
O O1 0.832631 0.925420 0.766085
O O2 0.651378 0.846341 0.827286
O O3 0.697348 0.020438 0.650595
O O4 0.074601 0.339724 0.388909
O O5 0.000000 0.500000 0.500000
O O6 0.096699 0.167266 0.642295
O O7 0.000000 0.154239 0.250000
O O8 0.000000 0.000000 0.500000
O O9 0.250000 0.750000 0.000000
#
# Coordination Sequence:
#
# PCOD9299007 Si02
#       4
#     8   4   8   8
#     4  11  23  43  72 103 144 189 239 302 369 440
#     4  12  26  52  80 114 158 208 258 322 396 472
#     4  11  21  42  71 105 146 191 248 305 371 441
#     4  10  24  46  73 111 152 197 258 314 383 459
#
# _framework density 29.149978000000001
#
# number of rings (size 3 to 8) (size 9 to 14) (size 15 to 20)
#    0.000    1.143    4.286    1.714    0.000    0.000 
#    2.571   28.571    0.000    0.000    0.000    0.000 
#    0.000    0.000    0.000    0.000    0.000    0.000 
#
# Total GULP energy -78003.028291 kJ/mol
# GULP energy per Si atom -5571.644878 kJ/mol
# Density = 2.908363 g / cm^3
# Si number density = 29.149978 Si / 1000 Ang^3
#
#
#
# Elastic Constant Matrix: (Units=GPa)
#
#
# Indices 1 2 3 4 5 6 
#
# 1 166.7906 93.0042 39.0671 0.0000 15.5417 0.0000
# 2 93.0042 239.7379 51.6691 0.0000 5.2140 0.0000
# 3 39.0671 51.6691 127.1343 0.0000 -0.4259 0.0000
# 4 0.0000 0.0000 0.0000 17.2109 0.0000 6.8297
# 5 15.5417 5.2140 -0.4259 0.0000 56.3247 0.0000
# 6 0.0000 0.0000 0.0000 6.8297 0.0000 54.9572
#
#
#
# Elastic Compliance Matrix: (Units=1/GPa)
#
#
# Indices 1 2 3 4 5 6 
#
# 1 0.008051 -0.002790 -0.001347 0.000000 -0.001973 0.000000
# 2 -0.002790 0.005549 -0.001397 0.000000 0.000246 0.000000
# 3 -0.001347 -0.001397 0.008849 0.000000 0.000568 0.000000
# 4 0.000000 0.000000 0.000000 0.061117 0.000000 -0.007595
# 5 -0.001973 0.000246 0.000568 0.000000 0.018280 0.000000
# 6 0.000000 0.000000 0.000000 -0.007595 0.000000 0.019140
#
#
# Mechanical properties :
#
#
# Convention : Reuss Voigt Hill
#
# Bulk Modulus (GPa) = 87.86082 100.12707 93.99394
# Shear Modulus (GPa) = 36.80603 49.02672 42.91638
#
# Velocity S-wave (km/s) = 3.55722 4.10552 3.84117
# Velocity P-wave (km/s) = 6.86135 7.54303 7.21025
#
# Compressibility (1/GPa) = 0.01138164
#
# Stress axis : x y z
#
# Youngs Moduli (GPa) = 124.21500 180.20089 113.00441
#
# Poissons Ratio (x) = 0.50276 0.15217
# Poissons Ratio (y) = 0.34656 0.15789
# Poissons Ratio (z) = 0.16726 0.25177
#
# Static dielectric constant tensor:
#      x y z
#    x 3.495040 0.000000 -0.339070 
#    y 0.000000 2.338880 0.000000 
#    z -0.339070 0.000000 2.601240 
# 
# From -- ./inp_files/9402.got.cif
#   From: 2010.05.17/outbox.cif.g08.bks.cpg/sg15_5_cif.got.tgz:9402.got - 2010.06.03 18:47:42.
