data_PCOD9299727
_publ_section_title
;
Structure prediction by ZEFSAII (Michael W. Deem and Ramdas Pophale) SiO2 
 PCOD9299727
Probable space group: C 2/C
;
_chemical_formula_sum "Si O2"
_cell_formula_units_Z 44
_cell_length_a 26.134676
_cell_length_b 8.989012
_cell_length_c 10.077710
_cell_angle_alpha 90.000000
_cell_angle_beta 137.491428
_cell_angle_gamma 90.000000
_cell_volume 1599.724441
_symmetry_space_group_name_H-M "C 2/C"
_symmetry_group_IT_number 15
_symmetry_cell_setting 'monoclinic'
loop_
_space_group_symop_operation_xyz
x,y,z
-x,y,1/2-z
-x,-y,-z
x,-y,1/2+z
1/2+x,1/2+y,z
1/2-x,1/2+y,1/2-z
1/2-x,1/2-y,-z
1/2+x,1/2-y,1/2+z
loop_
_atom_site_type_symbol
_atom_site_label
_atom_site_fract_x
_atom_site_fract_y
_atom_site_fract_z
Si Si1 0.500000 0.307705 0.750000
Si Si2 0.754592 0.553208 0.256302
Si Si3 0.865278 0.725822 0.320605
Si Si4 0.615626 0.914023 0.152831
Si Si5 0.103328 0.963593 0.324834
Si Si6 0.750000 0.250000 0.000000
Si Si7 0.500000 0.217064 0.250000
O O1 0.431297 0.217377 0.556838
O O2 0.461507 0.412856 0.788055
O O3 0.782776 0.699202 0.225945
O O4 0.823547 0.444138 0.351010
O O5 0.743360 0.611316 0.381102
O O6 0.680274 0.486953 0.044822
O O7 0.879987 0.574028 0.266521
O O8 0.875541 0.882638 0.270632
O O9 0.657683 0.784737 0.311507
O O10 0.535243 0.874149 0.939037
O O11 0.068010 0.825990 0.339145
#
# Coordination Sequence:
#
# PCOD9299727 Si02
#       7
#     4   8   8   8   8   4   4
#     4  11  25  44  68 110 147 195 248 304 390 437
#     4  10  26  44  72 108 139 196 248 306 365 445
#     4  10  25  45  72 105 144 195 249 309 366 447
#     4  10  26  43  75 107 147 189 248 301 372 447
#     4  11  24  45  70 102 151 193 250 307 371 446
#     4  12  24  48  76 114 148 196 250 314 368 450
#     4  11  23  46  66 110 145 191 236 304 376 443
#
# _framework density 27.504739000000001
#
# number of rings (size 3 to 8) (size 9 to 14) (size 15 to 20)
#    1.091    0.364    1.818    1.636    5.091    3.636 
#    0.000    0.000    0.000    0.000    0.000    0.000 
#    0.000    0.000    0.000    0.000    0.000    0.000 
#
# Total GULP energy -122643.057348 kJ/mol
# GULP energy per Si atom -5574.684425 kJ/mol
# Density = 2.744214 g / cm^3
# Si number density = 27.504739 Si / 1000 Ang^3
#
#
#
# Elastic Constant Matrix: (Units=GPa)
#
#
# Indices 1 2 3 4 5 6 
#
# 1 96.5587 39.9330 15.9483 0.0000 18.8599 0.0000
# 2 39.9330 66.6616 13.2034 0.0000 15.9888 0.0000
# 3 15.9483 13.2034 128.7519 0.0000 23.9070 0.0000
# 4 0.0000 0.0000 0.0000 19.8876 0.0000 -26.4584
# 5 18.8599 15.9888 23.9070 0.0000 34.2883 0.0000
# 6 0.0000 0.0000 0.0000 -26.4584 0.0000 19.9068
#
#
#
# Elastic Compliance Matrix: (Units=1/GPa)
#
#
# Indices 1 2 3 4 5 6 
#
# 1 0.014330 -0.007529 -0.000220 0.000000 -0.004218 0.000000
# 2 -0.007529 0.020857 -0.000195 0.000000 -0.005449 0.000000
# 3 -0.000220 -0.000195 0.008931 0.000000 -0.006015 0.000000
# 4 0.000000 0.000000 0.000000 -0.065451 0.000000 -0.086992
# 5 -0.004218 -0.005449 -0.006015 0.000000 0.038220 0.000000
# 6 0.000000 0.000000 0.000000 -0.086992 0.000000 -0.065388
#
#
# Mechanical properties :
#
#
# Convention : Reuss Voigt Hill
#
# Bulk Modulus (GPa) = 35.42165 47.79350 41.60758
# Shear Modulus (GPa) = -215.48398 29.67572 -92.90413
#
# Velocity S-wave (km/s) = -8.86083 3.28827 -5.81815
# Velocity P-wave (km/s) = 9.58016 5.64191 5.47487
#
# Compressibility (1/GPa) = 0.02823132
#
# Stress axis : x y z
#
# Youngs Moduli (GPa) = 69.78180 47.94588 111.96955
#
# Poissons Ratio (x) = 0.36100 0.02460
# Poissons Ratio (y) = 0.52540 0.02178
# Poissons Ratio (z) = 0.01533 0.00933
#
# Static dielectric constant tensor:
#      x y z
#    x 2.214270 0.000000 -0.119460 
#    y 0.000000 2.261750 0.000000 
#    z -0.119460 0.000000 2.102930 
# 
# From -- ./inp_files/126322.got.cif
#   From: 2010.05.17/outbox.cif.g08.bks.cpg/sg15_64_cif.got.tgz:126322.got - 2010.06.03 18:47:42.
