data_PCOD9299837
_publ_section_title
;
Structure prediction by ZEFSAII (Michael W. Deem and Ramdas Pophale) SiO2 
 PCOD9299837
Probable space group: C 2/C
;
_chemical_formula_sum "Si O2"
_cell_formula_units_Z 48
_cell_length_a 18.296715
_cell_length_b 19.268206
_cell_length_c 21.813637
_cell_angle_alpha 90.000000
_cell_angle_beta 161.835277
_cell_angle_gamma 90.000000
_cell_volume 2397.446336
_symmetry_space_group_name_H-M "C 2/C"
_symmetry_group_IT_number 15
_symmetry_cell_setting 'monoclinic'
loop_
_space_group_symop_operation_xyz
x,y,z
-x,y,1/2-z
-x,-y,-z
x,-y,1/2+z
1/2+x,1/2+y,z
1/2-x,1/2+y,1/2-z
1/2-x,1/2-y,-z
1/2+x,1/2-y,1/2+z
loop_
_atom_site_type_symbol
_atom_site_label
_atom_site_fract_x
_atom_site_fract_y
_atom_site_fract_z
Si Si1 0.739410 0.696326 0.548748
Si Si2 0.499221 0.680793 0.919155
Si Si3 0.365200 0.423998 0.207108
Si Si4 0.886391 0.080792 0.225815
Si Si5 0.076474 0.331859 0.650663
Si Si6 0.456301 0.812594 0.018372
O O1 0.750000 0.750000 0.500000
O O2 0.554491 0.634569 0.395240
O O3 0.664940 0.745733 0.546488
O O4 0.000000 0.665752 0.750000
O O5 0.482584 0.625935 0.851140
O O6 0.547750 0.758302 0.932407
O O7 0.237116 0.686746 0.738734
O O8 0.692310 0.662699 0.123918
O O9 0.500000 0.421640 0.250000
O O10 0.362033 0.502684 0.229727
O O11 0.104664 0.394579 0.987377
O O12 0.000000 0.075778 0.250000
O O13 0.639558 0.120004 0.023401
O O14 0.121577 0.323599 0.614072
#
# Coordination Sequence:
#
# PCOD9299837 Si02
#       6
#     8   8   8   8   8   8
#     4  12  22  37  65 102 129 179 226 265 318 397
#     4  11  23  42  67 101 126 169 225 276 334 397
#     4  10  25  47  67  92 133 176 215 282 344 391
#     4  11  23  44  62  94 141 175 221 274 331 389
#     4  11  23  42  68  98 131 166 225 279 334 393
#     4  11  22  39  69  96 135 174 216 278 326 392
#
# _framework density 20.021303
#
# number of rings (size 3 to 8) (size 9 to 14) (size 15 to 20)
#    0.000    1.000    6.667    1.000    0.000    4.000 
#    6.000    1.667    0.000    0.000    0.000    0.000 
#    0.000    0.000    0.000    0.000    0.000    0.000 
#
# Total GULP energy -133935.485246 kJ/mol
# GULP energy per Si atom -5580.645219 kJ/mol
# Density = 1.997573 g / cm^3
# Si number density = 20.021303 Si / 1000 Ang^3
#
#
#
# Elastic Constant Matrix: (Units=GPa)
#
#
# Indices 1 2 3 4 5 6 
#
# 1 87.0796 43.1672 44.6241 -0.8360 0.3465 -1.1485
# 2 43.1672 155.6271 42.6610 0.3589 10.6187 0.3357
# 3 44.6241 42.6610 145.3562 0.4998 -3.0484 0.5390
# 4 -0.8360 0.3589 0.4998 76.6908 0.6088 62.2886
# 5 0.3465 10.6187 -3.0484 0.6088 27.1468 0.7245
# 6 -1.1485 0.3357 0.5390 62.2886 0.7245 116.6711
#
#
#
# Elastic Compliance Matrix: (Units=1/GPa)
#
#
# Indices 1 2 3 4 5 6 
#
# 1 0.014926 -0.003188 -0.003634 0.000104 0.000643 0.000113
# 2 -0.003188 0.007916 -0.001412 -0.000026 -0.003213 -0.000014
# 3 -0.003634 -0.001412 0.008442 -0.000062 0.001549 -0.000047
# 4 0.000104 -0.000026 -0.000062 0.023024 -0.000187 -0.012290
# 5 0.000643 -0.003213 0.001549 -0.000187 0.038267 -0.000130
# 6 0.000113 -0.000014 -0.000047 -0.012290 -0.000130 0.015135
#
#
# Mechanical properties :
#
#
# Convention : Reuss Voigt Hill
#
# Bulk Modulus (GPa) = 67.49007 72.10750 69.79879
# Shear Modulus (GPa) = 38.72408 61.27577 49.99993
#
# Velocity S-wave (km/s) = 4.40266 5.53821 5.00276
# Velocity P-wave (km/s) = 7.72184 8.77435 8.26487
#
# Compressibility (1/GPa) = 0.01481699
#
# Stress axis : x y z
#
# Youngs Moduli (GPa) = 66.99508 126.32040 118.44856
#
# Poissons Ratio (x) = 0.40277 0.43043
# Poissons Ratio (y) = 0.21361 0.16723
# Poissons Ratio (z) = 0.24345 0.17834
#
# Static dielectric constant tensor:
#      x y z
#    x 1.735250 -0.000090 -0.004830 
#    y -0.000090 1.750100 -0.000440 
#    z -0.004830 -0.000440 1.822630 
# 
# From -- ./inp_files/249748.got.cif
#   From: 2010.05.17/outbox.cif.g08.bks.cpg/sg15_125_cif.got.tgz:249748.got - 2010.06.03 18:47:42.
