data_PCOD9299028
_publ_section_title
;
Structure prediction by ZEFSAII (Michael W. Deem and Ramdas Pophale) SiO2 
 PCOD9299028
Probable space group: C 2/C
;
_chemical_formula_sum "Si O2"
_cell_formula_units_Z 44
_cell_length_a 14.642189
_cell_length_b 27.099876
_cell_length_c 5.043686
_cell_angle_alpha 90.000000
_cell_angle_beta 90.945816
_cell_angle_gamma 90.000000
_cell_volume 2001.069524
_symmetry_space_group_name_H-M "C 2/C"
_symmetry_group_IT_number 15
_symmetry_cell_setting 'monoclinic'
loop_
_space_group_symop_operation_xyz
x,y,z
-x,y,1/2-z
-x,-y,-z
x,-y,1/2+z
1/2+x,1/2+y,z
1/2-x,1/2+y,1/2-z
1/2-x,1/2-y,-z
1/2+x,1/2-y,1/2+z
loop_
_atom_site_type_symbol
_atom_site_label
_atom_site_fract_x
_atom_site_fract_y
_atom_site_fract_z
Si Si1 0.319874 0.469597 0.660052
Si Si2 0.909860 0.157629 0.585819
Si Si3 0.762556 0.376484 0.053720
Si Si4 0.500000 0.427016 0.750000
Si Si5 0.604757 0.963453 0.286980
Si Si6 0.769062 0.214800 0.249919
O O1 0.293197 0.505301 0.426034
O O2 0.280215 0.415892 0.645381
O O3 0.425898 0.461099 0.614579
O O4 0.821191 0.144448 0.766310
O O5 0.949767 0.107973 0.457957
O O6 0.867173 0.191186 0.346001
O O7 0.000000 0.178027 0.750000
O O8 0.833710 0.413023 0.208852
O O9 0.790829 0.332201 0.856473
O O10 0.500000 0.946563 0.250000
O O11 0.615356 0.994149 0.562049
O O12 0.750000 0.250000 0.500000
O O13 0.750000 0.250000 0.000000
#
# Coordination Sequence:
#
# PCOD9299028 Si02
#       6
#     8   8   8   4   8   8
#     4  12  25  38  60 100 149 198 243 280 339 438
#     4  12  24  47  75 106 152 205 242 301 385 453
#     4  12  25  44  76 103 153 194 252 304 386 441
#     4  12  24  40  64 104 154 210 238 294 342 444
#     4  10  24  46  74 108 147 195 253 312 377 447
#     4  12  27  49  74 104 137 192 257 320 377 448
#
# _framework density 21.988243000000001
#
# number of rings (size 3 to 8) (size 9 to 14) (size 15 to 20)
#    0.000    0.364    5.455    2.727    2.545    0.000 
#    0.000    1.818    0.000    0.000    0.000    0.000 
#    0.000    0.000    0.000    0.000    0.000    0.000 
#
# Total GULP energy -122578.760882 kJ/mol
# GULP energy per Si atom -5571.761858 kJ/mol
# Density = 2.193820 g / cm^3
# Si number density = 21.988243 Si / 1000 Ang^3
#
#
#
# Elastic Constant Matrix: (Units=GPa)
#
#
# Indices 1 2 3 4 5 6 
#
# 1 128.6770 30.4291 15.2894 0.0000 23.8793 0.0000
# 2 30.4291 140.5602 66.1240 0.0000 1.5268 0.0000
# 3 15.2894 66.1240 176.6659 0.0000 1.3824 0.0000
# 4 0.0000 0.0000 0.0000 49.3550 0.0000 4.7357
# 5 23.8793 1.5268 1.3824 0.0000 42.9434 0.0000
# 6 0.0000 0.0000 0.0000 4.7357 0.0000 23.2484
#
#
#
# Elastic Compliance Matrix: (Units=1/GPa)
#
#
# Indices 1 2 3 4 5 6 
#
# 1 0.009160 -0.001910 -0.000038 0.000000 -0.005024 0.000000
# 2 -0.001910 0.009035 -0.003223 0.000000 0.000845 0.000000
# 3 -0.000038 -0.003223 0.006871 0.000000 -0.000085 0.000000
# 4 0.000000 0.000000 0.000000 0.020665 0.000000 -0.004210
# 5 -0.005024 0.000845 -0.000085 0.000000 0.026053 0.000000
# 6 0.000000 0.000000 0.000000 -0.004210 0.000000 0.043871
#
#
# Mechanical properties :
#
#
# Convention : Reuss Voigt Hill
#
# Bulk Modulus (GPa) = 67.92411 74.39868 71.16139
# Shear Modulus (GPa) = 38.19526 45.38007 41.78767
#
# Velocity S-wave (km/s) = 4.17235 4.54787 4.36415
# Velocity P-wave (km/s) = 7.35999 7.84134 7.60448
#
# Compressibility (1/GPa) = 0.01472231
#
# Stress axis : x y z
#
# Youngs Moduli (GPa) = 109.16865 110.68115 145.54542
#
# Poissons Ratio (x) = 0.21144 0.00559
# Poissons Ratio (y) = 0.20855 0.46909
# Poissons Ratio (z) = 0.00419 0.35672
#
# Static dielectric constant tensor:
#      x y z
#    x 1.950080 0.000000 0.052630 
#    y 0.000000 1.791010 0.000000 
#    z 0.052630 0.000000 1.880050 
# 
# From -- ./inp_files/7607.got.cif
#   From: 2010.05.17/outbox.cif.g08.bks.cpg/sg15_4_cif.got.tgz:7607.got - 2010.06.03 18:47:42.
