data_PCOD9299487
_publ_section_title
;
Structure prediction by ZEFSAII (Michael W. Deem and Ramdas Pophale) SiO2 
 PCOD9299487
Probable space group: C 2/C
;
_chemical_formula_sum "Si O2"
_cell_formula_units_Z 64
_cell_length_a 16.362974
_cell_length_b 22.292973
_cell_length_c 21.733802
_cell_angle_alpha 90.000000
_cell_angle_beta 156.995783
_cell_angle_gamma 90.000000
_cell_volume 3098.269871
_symmetry_space_group_name_H-M "C 2/C"
_symmetry_group_IT_number 15
_symmetry_cell_setting 'monoclinic'
loop_
_space_group_symop_operation_xyz
x,y,z
-x,y,1/2-z
-x,-y,-z
x,-y,1/2+z
1/2+x,1/2+y,z
1/2-x,1/2+y,1/2-z
1/2-x,1/2-y,-z
1/2+x,1/2-y,1/2+z
loop_
_atom_site_type_symbol
_atom_site_label
_atom_site_fract_x
_atom_site_fract_y
_atom_site_fract_z
Si Si1 0.220518 0.535612 0.655009
Si Si2 0.310937 0.662958 0.660971
Si Si3 0.023334 0.821082 0.512246
Si Si4 0.612753 0.007898 0.711916
Si Si5 0.285320 0.908907 0.625771
Si Si6 0.432710 0.762728 0.846256
Si Si7 0.280897 0.892324 0.113189
Si Si8 0.165567 0.990726 0.942151
O O1 0.210877 0.604753 0.625444
O O2 0.423446 0.505522 0.763947
O O3 0.000000 0.500000 0.500000
O O4 0.249006 0.529394 0.748928
O O5 0.500000 0.639757 0.750000
O O6 0.410374 0.711462 0.777726
O O7 0.143620 0.697954 0.501375
O O8 0.100422 0.863791 0.510351
O O9 0.236266 0.803342 0.693613
O O10 0.913177 0.767160 0.399944
O O11 0.875600 0.851391 0.458660
O O12 0.653567 0.054337 0.795057
O O13 0.360469 0.006727 0.529724
O O14 0.677912 0.943747 0.784446
O O15 0.500000 0.879110 0.750000
O O16 0.231786 0.957908 0.537291
O O17 0.500000 0.860772 0.250000
O O18 0.181467 0.925887 0.985936
#
# Coordination Sequence:
#
# PCOD9299487 Si02
#       8
#     8   8   8   8   8   8   8   8
#     4  12  26  35  56  89 128 170 200 238 324 384
#     4  11  25  44  65  90 129 168 217 262 312 378
#     4  11  21  38  61  83 122 150 205 262 310 363
#     4   9  19  36  55  87 123 147 198 241 293 374
#     4   9  18  32  61  89 111 152 197 240 298 365
#     4  10  25  42  62  91 115 167 212 267 319 366
#     4   9  18  35  63  88 107 153 199 250 300 361
#     4   9  19  35  56  87 122 154 194 241 296 368
#
# _framework density 20.656690999999999
#
# number of rings (size 3 to 8) (size 9 to 14) (size 15 to 20)
#    0.000    2.000    0.000    4.875    5.250    6.000 
#    0.000    0.625    0.000    0.000    0.000    0.000 
#    0.000    0.000    0.000    0.000    0.000    0.000 
#
# Total GULP energy -178512.357343 kJ/mol
# GULP energy per Si atom -5578.511167 kJ/mol
# Density = 2.060968 g / cm^3
# Si number density = 20.656691 Si / 1000 Ang^3
#
#
#
# Elastic Constant Matrix: (Units=GPa)
#
#
# Indices 1 2 3 4 5 6 
#
# 1 68.9520 35.1428 33.9288 -0.0581 26.4388 0.0402
# 2 35.1428 71.1017 33.8191 0.0377 15.9632 -0.0123
# 3 33.9288 33.8191 107.1669 0.0412 2.0647 0.0044
# 4 -0.0581 0.0377 0.0412 16.9063 -0.0493 4.3894
# 5 26.4388 15.9632 2.0647 -0.0493 35.2292 0.0248
# 6 0.0402 -0.0123 0.0044 4.3894 0.0248 5.0804
#
#
#
# Elastic Compliance Matrix: (Units=1/GPa)
#
#
# Indices 1 2 3 4 5 6 
#
# 1 0.027726 -0.006815 -0.006293 0.000146 -0.017350 -0.000272
# 2 -0.006815 0.020274 -0.004166 -0.000132 -0.003828 0.000239
# 3 -0.006293 -0.004166 0.012525 -0.000033 0.005877 0.000029
# 4 0.000146 -0.000132 -0.000033 0.076257 0.000105 -0.065887
# 5 -0.017350 -0.003828 0.005877 0.000105 0.042797 -0.000177
# 6 -0.000272 0.000239 0.000029 -0.065887 -0.000177 0.253762
#
#
# Mechanical properties :
#
#
# Convention : Reuss Voigt Hill
#
# Bulk Modulus (GPa) = 38.49746 50.33356 44.41551
# Shear Modulus (GPa) = 10.49207 21.06519 15.77863
#
# Velocity S-wave (km/s) = 2.25617 3.19686 2.76678
# Velocity P-wave (km/s) = 5.04622 6.16815 5.63518
#
# Compressibility (1/GPa) = 0.02597574
#
# Stress axis : x y z
#
# Youngs Moduli (GPa) = 36.06703 49.32354 79.83892
#
# Poissons Ratio (x) = 0.33616 0.50243
# Poissons Ratio (y) = 0.24581 0.33265
# Poissons Ratio (z) = 0.22697 0.20551
#
# Static dielectric constant tensor:
#      x y z
#    x 1.800220 -0.000010 -0.049350 
#    y -0.000010 1.739150 -0.000030 
#    z -0.049350 -0.000030 1.811730 
# 
# From -- ./inp_files/278261.got.cif
#   From: 2010.05.17/outbox.cif.g08.bks.cpg/sg15_140_cif.got.tgz:278261.got - 2010.06.03 18:47:42.
