data_PCOD9299709
_publ_section_title
;
Structure prediction by ZEFSAII (Michael W. Deem and Ramdas Pophale) SiO2 
 PCOD9299709
Probable space group: C 2/C
;
_chemical_formula_sum "Si O2"
_cell_formula_units_Z 40
_cell_length_a 22.216562
_cell_length_b 7.874566
_cell_length_c 10.952149
_cell_angle_alpha 90.000000
_cell_angle_beta 62.090374
_cell_angle_gamma 90.000000
_cell_volume 1693.172832
_symmetry_space_group_name_H-M "C 2/C"
_symmetry_group_IT_number 15
_symmetry_cell_setting 'monoclinic'
loop_
_space_group_symop_operation_xyz
x,y,z
-x,y,1/2-z
-x,-y,-z
x,-y,1/2+z
1/2+x,1/2+y,z
1/2-x,1/2+y,1/2-z
1/2-x,1/2-y,-z
1/2+x,1/2-y,1/2+z
loop_
_atom_site_type_symbol
_atom_site_label
_atom_site_fract_x
_atom_site_fract_y
_atom_site_fract_z
Si Si1 0.214426 0.120889 0.941608
Si Si2 0.188130 0.322440 0.715643
Si Si3 0.077395 0.283613 0.628993
Si Si4 0.937983 0.932296 0.906247
Si Si5 0.069490 0.580858 0.476725
O O1 0.210938 0.200619 0.806294
O O2 0.252321 0.939065 0.895480
O O3 0.250000 0.250000 0.000000
O O4 0.137942 0.109677 0.066614
O O5 0.138015 0.236097 0.664292
O O6 0.132373 0.447909 0.828413
O O7 0.091371 0.474642 0.573873
O O8 0.000000 0.291214 0.750000
O O9 0.071627 0.126324 0.539818
O O10 0.946059 0.779296 0.992958
O O11 0.000000 0.925391 0.750000
O O12 0.000000 0.500000 0.500000
#
# Coordination Sequence:
#
# PCOD9299709 Si02
#       5
#     8   8   8   8   8
#     4  11  27  47  70 106 143 193 245 296 373 435
#     4  11  25  45  71 104 143 192 240 300 366 437
#     4  11  23  45  70 106 140 186 244 297 362 431
#     4  10  25  45  70 101 141 185 238 300 352 425
#     4  11  23  42  71 104 141 186 237 295 359 424
#
# _framework density 23.624286000000001
#
# number of rings (size 3 to 8) (size 9 to 14) (size 15 to 20)
#    0.000    1.200    2.000    3.000    8.400    1.600 
#    3.600    0.000    0.000    0.000    0.000    0.000 
#    0.000    0.000    0.000    0.000    0.000    0.000 
#
# Total GULP energy -111465.628799 kJ/mol
# GULP energy per Si atom -5573.281440 kJ/mol
# Density = 2.357052 g / cm^3
# Si number density = 23.624286 Si / 1000 Ang^3
#
#
#
# Elastic Constant Matrix: (Units=GPa)
#
#
# Indices 1 2 3 4 5 6 
#
# 1 158.2037 45.2251 47.4730 0.0000 -12.4503 0.0000
# 2 45.2251 107.3319 27.0668 0.0000 13.1679 0.0000
# 3 47.4730 27.0668 65.3015 0.0000 -19.3976 0.0000
# 4 0.0000 0.0000 0.0000 37.1996 0.0000 4.8879
# 5 -12.4503 13.1679 -19.3976 0.0000 56.4261 0.0000
# 6 0.0000 0.0000 0.0000 4.8879 0.0000 23.1872
#
#
#
# Elastic Compliance Matrix: (Units=1/GPa)
#
#
# Indices 1 2 3 4 5 6 
#
# 1 0.008580 -0.002445 -0.005003 0.000000 0.000744 0.000000
# 2 -0.002445 0.012160 -0.004751 0.000000 -0.005010 0.000000
# 3 -0.005003 -0.004751 0.023301 0.000000 0.008015 0.000000
# 4 0.000000 0.000000 0.000000 0.027648 0.000000 -0.005828
# 5 0.000744 -0.005010 0.008015 0.000000 0.021811 0.000000
# 6 0.000000 0.000000 0.000000 -0.005828 0.000000 0.044356
#
#
# Mechanical properties :
#
#
# Convention : Reuss Voigt Hill
#
# Bulk Modulus (GPa) = 50.91012 63.37411 57.14212
# Shear Modulus (GPa) = 29.62079 37.43404 33.52741
#
# Velocity S-wave (km/s) = 3.54478 3.98497 3.77130
# Velocity P-wave (km/s) = 6.19279 6.93234 6.57298
#
# Compressibility (1/GPa) = 0.01964246
#
# Stress axis : x y z
#
# Youngs Moduli (GPa) = 116.55512 82.23790 42.91686
#
# Poissons Ratio (x) = 0.20104 0.21471
# Poissons Ratio (y) = 0.28494 0.20391
# Poissons Ratio (z) = 0.58313 0.39073
#
# Static dielectric constant tensor:
#      x y z
#    x 1.938720 0.000000 0.077150 
#    y 0.000000 1.969930 0.000000 
#    z 0.077150 0.000000 2.349480 
# 
# From -- ./inp_files/109562.got.cif
#   From: 2010.05.17/outbox.cif.g08.bks.cpg/sg15_55_cif.got.tgz:109562.got - 2010.06.03 18:47:42.
