data_PCOD9299359
_publ_section_title
;
Structure prediction by ZEFSAII (Michael W. Deem and Ramdas Pophale) SiO2 
 PCOD9299359
Probable space group: C 2/C
;
_chemical_formula_sum "Si O2"
_cell_formula_units_Z 36
_cell_length_a 7.947524
_cell_length_b 14.452207
_cell_length_c 12.960141
_cell_angle_alpha 90.000000
_cell_angle_beta 63.174456
_cell_angle_gamma 90.000000
_cell_volume 1328.396955
_symmetry_space_group_name_H-M "C 2/C"
_symmetry_group_IT_number 15
_symmetry_cell_setting 'monoclinic'
loop_
_space_group_symop_operation_xyz
x,y,z
-x,y,1/2-z
-x,-y,-z
x,-y,1/2+z
1/2+x,1/2+y,z
1/2-x,1/2+y,1/2-z
1/2-x,1/2-y,-z
1/2+x,1/2-y,1/2+z
loop_
_atom_site_type_symbol
_atom_site_label
_atom_site_fract_x
_atom_site_fract_y
_atom_site_fract_z
Si Si1 0.278439 0.650245 0.117999
Si Si2 0.198190 0.643887 0.489464
Si Si3 0.714018 0.055301 0.694501
Si Si4 0.500000 0.358766 0.750000
Si Si5 0.240939 0.852348 0.106282
O O1 0.210736 0.555158 0.187140
O O2 0.410447 0.688854 0.174543
O O3 0.168849 0.745760 0.129734
O O4 0.331230 0.618575 0.986916
O O5 0.250000 0.750000 0.500000
O O6 0.279400 0.591375 0.566132
O O7 0.315888 0.602210 0.360712
O O8 0.972516 0.636857 0.533021
O O9 0.500000 0.090927 0.750000
O O10 0.803605 0.095808 0.773894
#
# Coordination Sequence:
#
# PCOD9299359 Si02
#       5
#     8   8   8   4   8
#     4  11  25  46  72 111 143 192 245 302 362 439
#     4  11  23  45  74 103 147 195 239 298 365 436
#     4  10  25  46  76 106 145 194 243 296 368 442
#     4  12  26  42  72 102 148 188 244 300 370 416
#     4  10  24  49  74 106 147 195 244 295 371 440
#
# _framework density 27.100332000000002
#
# number of rings (size 3 to 8) (size 9 to 14) (size 15 to 20)
#    0.000    1.333    2.222    1.333    9.333    2.667 
#    0.000    0.000    0.000    0.000    0.000    0.000 
#    0.000    0.000    0.000    0.000    0.000    0.000 
#
# Total GULP energy -100255.457397 kJ/mol
# GULP energy per Si atom -5569.747633 kJ/mol
# Density = 2.703865 g / cm^3
# Si number density = 27.100332 Si / 1000 Ang^3
#
#
#
# Elastic Constant Matrix: (Units=GPa)
#
#
# Indices 1 2 3 4 5 6 
#
# 1 139.2471 6.4045 72.0289 0.0000 17.8343 0.0000
# 2 6.4045 147.7352 61.2117 0.0000 16.8690 0.0000
# 3 72.0289 61.2117 278.2721 0.0000 46.2844 0.0000
# 4 0.0000 0.0000 0.0000 48.6772 0.0000 12.9466
# 5 17.8343 16.8690 46.2844 0.0000 63.5586 0.0000
# 6 0.0000 0.0000 0.0000 12.9466 0.0000 -34.1729
#
#
#
# Elastic Compliance Matrix: (Units=1/GPa)
#
#
# Indices 1 2 3 4 5 6 
#
# 1 0.008388 0.000637 -0.002152 0.000000 -0.000955 0.000000
# 2 0.000637 0.007541 -0.001662 0.000000 -0.000970 0.000000
# 3 -0.002152 -0.001662 0.004941 0.000000 -0.002553 0.000000
# 4 0.000000 0.000000 0.000000 0.018663 0.000000 0.007071
# 5 -0.000955 -0.000970 -0.002553 0.000000 0.018118 0.000000
# 6 0.000000 0.000000 0.000000 0.007071 0.000000 -0.026584
#
#
# Mechanical properties :
#
#
# Convention : Reuss Voigt Hill
#
# Bulk Modulus (GPa) = 68.89636 93.83830 81.36733
# Shear Modulus (GPa) = 118.31562 43.98654 81.15108
#
# Velocity S-wave (km/s) = 6.61462 4.03314 5.47811
# Velocity P-wave (km/s) = 9.15508 7.50931 8.37273
#
# Compressibility (1/GPa) = 0.01451456
#
# Stress axis : x y z
#
# Youngs Moduli (GPa) = 119.21901 132.61278 202.38538
#
# Poissons Ratio (x) = -0.08451 0.43562
# Poissons Ratio (y) = -0.07598 0.33645
# Poissons Ratio (z) = 0.25661 0.22046
#
# Static dielectric constant tensor:
#      x y z
#    x 2.244610 0.000000 -0.110040 
#    y 0.000000 2.115450 0.000000 
#    z -0.110040 0.000000 2.159250 
# 
# From -- ./inp_files/85382.got.cif
#   From: 2010.05.17/outbox.cif.g08.bks.cpg/sg15_43_cif.got.tgz:85382.got - 2010.06.03 18:47:42.
