data_PCOD9299592
_publ_section_title
;
Structure prediction by ZEFSAII (Michael W. Deem and Ramdas Pophale) SiO2 
 PCOD9299592
Probable space group: C 2/C
;
_chemical_formula_sum "Si O2"
_cell_formula_units_Z 36
_cell_length_a 8.851051
_cell_length_b 29.985663
_cell_length_c 7.791319
_cell_angle_alpha 90.000000
_cell_angle_beta 127.925534
_cell_angle_gamma 90.000000
_cell_volume 1631.142974
_symmetry_space_group_name_H-M "C 2/C"
_symmetry_group_IT_number 15
_symmetry_cell_setting 'monoclinic'
loop_
_space_group_symop_operation_xyz
x,y,z
-x,y,1/2-z
-x,-y,-z
x,-y,1/2+z
1/2+x,1/2+y,z
1/2-x,1/2+y,1/2-z
1/2-x,1/2-y,-z
1/2+x,1/2-y,1/2+z
loop_
_atom_site_type_symbol
_atom_site_label
_atom_site_fract_x
_atom_site_fract_y
_atom_site_fract_z
Si Si1 0.649678 0.704790 0.999188
Si Si2 0.500000 0.328245 0.750000
Si Si3 0.883408 0.959718 0.998389
Si Si4 0.000000 0.482269 0.250000
Si Si5 0.204401 0.597253 0.102216
Si Si6 0.000000 0.361448 0.750000
O O1 0.500000 0.692114 0.750000
O O2 0.750000 0.750000 0.000000
O O3 0.550917 0.701934 0.118577
O O4 0.814856 0.668667 0.118281
O O5 0.686474 0.360970 0.910008
O O6 0.862319 0.920095 0.848972
O O7 0.672429 0.981229 0.862387
O O8 0.000000 0.946507 0.250000
O O9 0.000000 0.000000 0.000000
O O10 0.123620 0.445220 0.443934
O O11 0.022801 0.611897 0.090009
#
# Coordination Sequence:
#
# PCOD9299592 Si02
#       6
#     8   4   8   4   8   4
#     4  11  24  48  76 105 144 180 230 290 355 440
#     4  10  26  48  69 112 142 188 238 286 371 430
#     4  12  25  43  65  95 137 190 252 303 357 417
#     4  12  25  42  65 100 136 192 248 298 361 416
#     4  11  24  43  67  98 145 184 242 301 357 422
#     4  10  25  44  64 108 134 184 230 288 364 422
#
# _framework density 22.070412999999999
#
# number of rings (size 3 to 8) (size 9 to 14) (size 15 to 20)
#    0.000    0.889    3.333    2.667    6.222    4.444 
#    0.000    0.000    0.000    0.000    0.000    0.000 
#    0.000    0.000    0.000    0.000    0.000    0.000 
#
# Total GULP energy -100244.796302 kJ/mol
# GULP energy per Si atom -5569.155350 kJ/mol
# Density = 2.202018 g / cm^3
# Si number density = 22.070413 Si / 1000 Ang^3
#
#
#
# Elastic Constant Matrix: (Units=GPa)
#
#
# Indices 1 2 3 4 5 6 
#
# 1 132.8260 41.2339 41.2833 0.0000 4.6737 0.0000
# 2 41.2339 82.9545 13.5679 0.0000 -14.1259 0.0000
# 3 41.2833 13.5679 131.4319 0.0000 -1.2770 0.0000
# 4 0.0000 0.0000 0.0000 11.6997 0.0000 -17.6452
# 5 4.6737 -14.1259 -1.2770 0.0000 35.3902 0.0000
# 6 0.0000 0.0000 0.0000 -17.6452 0.0000 57.5677
#
#
#
# Elastic Compliance Matrix: (Units=1/GPa)
#
#
# Indices 1 2 3 4 5 6 
#
# 1 0.010086 -0.005172 -0.002668 0.000000 -0.003493 0.000000
# 2 -0.005172 0.015807 0.000061 0.000000 0.006994 0.000000
# 3 -0.002668 0.000061 0.008447 0.000000 0.000681 0.000000
# 4 0.000000 0.000000 0.000000 0.158951 0.000000 0.048721
# 5 -0.003493 0.006994 0.000681 0.000000 0.031534 0.000000
# 6 0.000000 0.000000 0.000000 0.048721 0.000000 0.032304
#
#
# Mechanical properties :
#
#
# Convention : Reuss Voigt Hill
#
# Bulk Modulus (GPa) = 53.24467 59.93140 56.58803
# Shear Modulus (GPa) = 17.92443 37.67335 27.79889
#
# Velocity S-wave (km/s) = 2.85291 4.13602 3.55287
# Velocity P-wave (km/s) = 5.91857 7.07266 6.52119
#
# Compressibility (1/GPa) = 0.01878122
#
# Stress axis : x y z
#
# Youngs Moduli (GPa) = 99.14350 63.26429 118.38593
#
# Poissons Ratio (x) = 0.32720 0.31588
# Poissons Ratio (y) = 0.51276 -0.00719
# Poissons Ratio (z) = 0.26454 -0.00384
#
# Static dielectric constant tensor:
#      x y z
#    x 1.940230 0.000000 -0.049710 
#    y 0.000000 1.876280 0.000000 
#    z -0.049710 0.000000 1.839220 
# 
# From -- ./inp_files/25924.got.cif
#   From: 2010.05.17/outbox.cif.g08.bks.cpg/sg15_13_cif.got.tgz:25924.got - 2010.06.03 18:47:42.
