data_PCOD9299309
_publ_section_title
;
Structure prediction by ZEFSAII (Michael W. Deem and Ramdas Pophale) SiO2 
 PCOD9299309
Probable space group: C 2/C
;
_chemical_formula_sum "Si O2"
_cell_formula_units_Z 52
_cell_length_a 5.121830
_cell_length_b 13.880533
_cell_length_c 28.527931
_cell_angle_alpha 90.000000
_cell_angle_beta 103.485785
_cell_angle_gamma 90.000000
_cell_volume 1972.236298
_symmetry_space_group_name_H-M "C 2/C"
_symmetry_group_IT_number 15
_symmetry_cell_setting 'monoclinic'
loop_
_space_group_symop_operation_xyz
x,y,z
-x,y,1/2-z
-x,-y,-z
x,-y,1/2+z
1/2+x,1/2+y,z
1/2-x,1/2+y,1/2-z
1/2-x,1/2-y,-z
1/2+x,1/2-y,1/2+z
loop_
_atom_site_type_symbol
_atom_site_label
_atom_site_fract_x
_atom_site_fract_y
_atom_site_fract_z
Si Si1 0.500000 0.908569 0.750000
Si Si2 0.141140 0.454743 0.059363
Si Si3 0.310992 0.798392 0.090521
Si Si4 0.364723 0.428886 0.947999
Si Si5 0.493702 0.385510 0.149406
Si Si6 0.750000 0.750000 0.500000
Si Si7 0.237357 0.178852 0.148432
Si Si8 0.000000 0.030441 0.750000
O O1 0.665364 0.852307 0.796678
O O2 0.728948 0.969222 0.733024
O O3 0.414513 0.484033 0.044240
O O4 0.262942 0.451090 0.117399
O O5 0.984378 0.349311 0.053413
O O6 0.912500 0.533024 0.041251
O O7 0.232615 0.883065 0.122174
O O8 0.438455 0.720688 0.130372
O O9 0.102182 0.750557 0.047101
O O10 0.263071 0.401460 0.891130
O O11 0.535029 0.337194 0.972231
O O12 0.397140 0.275329 0.141889
O O13 0.550185 0.410372 0.204809
#
# Coordination Sequence:
#
# PCOD9299309 Si02
#       8
#     4   8   8   8   8   4   8   4
#     4  12  27  48  71 110 140 188 242 298 365 442
#     4  11  23  45  72 102 142 187 236 300 363 424
#     4  10  24  48  76 104 151 193 247 304 374 438
#     4  11  24  45  72 103 147 186 242 301 362 434
#     4  11  24  48  73 105 142 195 237 307 369 442
#     4  10  26  48  68 116 140 206 246 310 372 452
#     4  10  25  43  71 105 143 186 233 301 361 435
#     4  12  29  44  73 102 144 182 248 290 363 446
#
# _framework density 26.366011
#
# number of rings (size 3 to 8) (size 9 to 14) (size 15 to 20)
#    0.000    1.231    1.538    2.308   10.769    1.846 
#    5.538    0.000    0.000    0.000    0.000    0.000 
#    0.000    0.000    0.000    0.000    0.000    0.000 
#
# Total GULP energy -144776.139159 kJ/mol
# GULP energy per Si atom -5568.313045 kJ/mol
# Density = 2.630600 g / cm^3
# Si number density = 26.366011 Si / 1000 Ang^3
#
#
#
# Elastic Constant Matrix: (Units=GPa)
#
#
# Indices 1 2 3 4 5 6 
#
# 1 101.7947 16.9330 31.9755 0.0000 -21.3691 0.0000
# 2 16.9330 103.3429 15.7450 0.0000 -9.1468 0.0000
# 3 31.9755 15.7450 201.4067 0.0000 5.8018 0.0000
# 4 0.0000 0.0000 0.0000 -7.8366 0.0000 0.8513
# 5 -21.3691 -9.1468 5.8018 0.0000 30.6621 0.0000
# 6 0.0000 0.0000 0.0000 0.8513 0.0000 39.7007
#
#
#
# Elastic Compliance Matrix: (Units=1/GPa)
#
#
# Indices 1 2 3 4 5 6 
#
# 1 0.012520 -0.000937 -0.002170 0.000000 0.008857 0.000000
# 2 -0.000937 0.010162 -0.000718 0.000000 0.002514 0.000000
# 3 -0.002170 -0.000718 0.005445 0.000000 -0.002757 0.000000
# 4 0.000000 0.000000 0.000000 -0.127309 0.000000 0.002730
# 5 0.008857 0.002514 -0.002757 0.000000 0.040058 0.000000
# 6 0.000000 0.000000 0.000000 0.002730 0.000000 0.025130
#
#
# Mechanical properties :
#
#
# Convention : Reuss Voigt Hill
#
# Bulk Modulus (GPa) = 48.83304 59.53903 54.18604
# Shear Modulus (GPa) = -256.16089 35.29795 -110.43147
#
# Velocity S-wave (km/s) = -9.86745 3.66289 -6.47881
# Velocity P-wave (km/s) = 10.54802 6.36551 5.94731
#
# Compressibility (1/GPa) = 0.02047794
#
# Stress axis : x y z
#
# Youngs Moduli (GPa) = 79.87027 98.40586 183.65241
#
# Poissons Ratio (x) = 0.09221 0.39845
# Poissons Ratio (y) = 0.07484 0.13188
# Poissons Ratio (z) = 0.17329 0.07066
#
# Static dielectric constant tensor:
#      x y z
#    x 2.251000 0.000000 -0.255140 
#    y 0.000000 1.814620 0.000000 
#    z -0.255140 0.000000 1.837780 
# 
# From -- ./inp_files/305468.got.cif
#   From: 2010.05.17/outbox.cif.g08.bks.cpg/sg15_153_cif.got.tgz:305468.got - 2010.06.03 18:47:42.
