data_PCOD9299967
_publ_section_title
;
Structure prediction by ZEFSAII (Michael W. Deem and Ramdas Pophale) SiO2 
 PCOD9299967
Probable space group: C 2/C
;
_chemical_formula_sum "Si O2"
_cell_formula_units_Z 56
_cell_length_a 21.545657
_cell_length_b 11.992056
_cell_length_c 14.620471
_cell_angle_alpha 90.000000
_cell_angle_beta 143.371535
_cell_angle_gamma 90.000000
_cell_volume 2253.799178
_symmetry_space_group_name_H-M "C 2/C"
_symmetry_group_IT_number 15
_symmetry_cell_setting 'monoclinic'
loop_
_space_group_symop_operation_xyz
x,y,z
-x,y,1/2-z
-x,-y,-z
x,-y,1/2+z
1/2+x,1/2+y,z
1/2-x,1/2+y,1/2-z
1/2-x,1/2-y,-z
1/2+x,1/2-y,1/2+z
loop_
_atom_site_type_symbol
_atom_site_label
_atom_site_fract_x
_atom_site_fract_y
_atom_site_fract_z
Si Si1 0.223418 0.605594 0.870541
Si Si2 0.087508 0.731736 0.933650
Si Si3 0.773661 0.198459 0.626805
Si Si4 0.880489 0.508784 0.079306
Si Si5 0.086861 0.819064 0.687645
Si Si6 0.196977 0.904341 0.639028
Si Si7 0.471919 0.457705 0.362156
O O1 0.188923 0.529097 0.915078
O O2 0.132642 0.696345 0.756596
O O3 0.247349 0.521150 0.815960
O O4 0.320501 0.689826 0.991722
O O5 0.116247 0.602698 0.978248
O O6 0.000000 0.732021 0.750000
O O7 0.035067 0.785280 0.960788
O O8 0.750000 0.250000 0.500000
O O9 0.765095 0.303215 0.683065
O O10 0.882763 0.134017 0.755710
O O11 0.680345 0.111392 0.536473
O O12 0.000000 0.534808 0.250000
O O13 0.160963 0.866967 0.696470
O O14 0.074811 0.929597 0.736625
O O15 0.082634 0.916929 0.454337
O O16 0.500000 0.500000 0.500000
#
# Coordination Sequence:
#
# PCOD9299967 Si02
#       7
#     8   8   8   8   8   8   8
#     4  12  23  44  71 104 143 190 250 309 383 458
#     4  11  23  40  69 103 138 182 245 313 373 452
#     4  12  27  45  74 111 151 203 257 322 392 482
#     4  11  24  44  68 109 149 187 246 327 387 456
#     4  11  24  44  72 102 141 194 250 314 380 469
#     4  11  27  43  73 103 148 199 250 313 392 482
#     4  10  25  50  71 102 151 201 253 307 388 475
#
# _framework density 24.846934000000001
#
# number of rings (size 3 to 8) (size 9 to 14) (size 15 to 20)
#    0.000    0.857    5.714    1.286    8.000    0.000 
#    0.000    0.714    0.000    0.000    0.000    0.000 
#    0.000    0.000    0.000    0.000    0.000    0.000 
#
# Total GULP energy -156380.748088 kJ/mol
# GULP energy per Si atom -5585.026717 kJ/mol
# Density = 2.479038 g / cm^3
# Si number density = 24.846934 Si / 1000 Ang^3
#
#
#
# Elastic Constant Matrix: (Units=GPa)
#
#
# Indices 1 2 3 4 5 6 
#
# 1 60.2908 22.0158 29.6005 0.0000 26.2932 0.0000
# 2 22.0158 175.9475 46.7684 0.0000 11.0457 0.0000
# 3 29.6005 46.7684 101.4321 0.0000 23.2900 0.0000
# 4 0.0000 0.0000 0.0000 47.0939 0.0000 18.9237
# 5 26.2932 11.0457 23.2900 0.0000 33.6314 0.0000
# 6 0.0000 0.0000 0.0000 18.9237 0.0000 52.7696
#
#
#
# Elastic Compliance Matrix: (Units=1/GPa)
#
#
# Indices 1 2 3 4 5 6 
#
# 1 0.026467 -0.001398 -0.002893 0.000000 -0.018229 0.000000
# 2 -0.001398 0.006551 -0.002818 0.000000 0.000893 0.000000
# 3 -0.002893 -0.002818 0.013401 0.000000 -0.006093 0.000000
# 4 0.000000 0.000000 0.000000 0.024809 0.000000 -0.008897
# 5 -0.018229 0.000893 -0.006093 0.000000 0.047912 0.000000
# 6 0.000000 0.000000 0.000000 -0.008897 0.000000 0.022141
#
#
# Mechanical properties :
#
#
# Convention : Reuss Voigt Hill
#
# Bulk Modulus (GPa) = 31.05456 59.38220 45.21838
# Shear Modulus (GPa) = 30.07790 42.65135 36.36463
#
# Velocity S-wave (km/s) = 3.48304 4.14764 3.82978
# Velocity P-wave (km/s) = 5.35732 6.84750 6.14773
#
# Compressibility (1/GPa) = 0.03220139
#
# Stress axis : x y z
#
# Youngs Moduli (GPa) = 37.78234 152.63943 74.61903
#
# Poissons Ratio (x) = 0.21343 0.21591
# Poissons Ratio (y) = 0.05283 0.21025
# Poissons Ratio (z) = 0.10932 0.43008
#
# Static dielectric constant tensor:
#      x y z
#    x 2.016020 0.000000 -0.103870 
#    y 0.000000 2.002010 0.000000 
#    z -0.103870 0.000000 2.107390 
# 
# From -- ./inp_files/255485.got.cif
#   From: 2010.05.17/outbox.cif.g08.bks.cpg/sg15_128_cif.got.tgz:255485.got - 2010.06.03 18:47:42.
