data_PCOD9299960
_publ_section_title
;
Structure prediction by ZEFSAII (Michael W. Deem and Ramdas Pophale) SiO2 
 PCOD9299960
Probable space group: C 2/C
;
_chemical_formula_sum "Si O2"
_cell_formula_units_Z 24
_cell_length_a 10.037728
_cell_length_b 10.521943
_cell_length_c 10.222328
_cell_angle_alpha 90.000000
_cell_angle_beta 63.016990
_cell_angle_gamma 90.000000
_cell_volume 962.116488
_symmetry_space_group_name_H-M "C 2/C"
_symmetry_group_IT_number 15
_symmetry_cell_setting 'monoclinic'
loop_
_space_group_symop_operation_xyz
x,y,z
-x,y,1/2-z
-x,-y,-z
x,-y,1/2+z
1/2+x,1/2+y,z
1/2-x,1/2+y,1/2-z
1/2-x,1/2-y,-z
1/2+x,1/2-y,1/2+z
loop_
_atom_site_type_symbol
_atom_site_label
_atom_site_fract_x
_atom_site_fract_y
_atom_site_fract_z
Si Si1 0.301426 0.754671 0.626168
Si Si2 0.823577 0.970389 0.307107
Si Si3 0.936916 0.599238 0.422711
O O1 0.250000 0.750000 0.500000
O O2 0.223790 0.885694 0.707818
O O3 0.267036 0.629376 0.723167
O O4 0.479626 0.773707 0.566688
O O5 0.000000 0.966889 0.250000
O O6 0.738047 0.920091 0.476086
O O7 0.000000 0.576580 0.250000
O O8 0.000000 0.500000 0.500000
#
# Coordination Sequence:
#
# PCOD9299960 Si02
#       3
#     8   8   8
#     4  11  28  49  81 120 168 212 272 341 415 484
#     4  11  28  52  83 117 165 212 280 332 412 485
#     4  10  25  49  79 114 161 213 268 331 410 477
#
# _framework density 24.945004999999998
#
# number of rings (size 3 to 8) (size 9 to 14) (size 15 to 20)
#    0.000    1.333    0.000    1.000   23.333    6.667 
#    0.000    0.000    0.000    0.000    0.000    0.000 
#    0.000    0.000    0.000    0.000    0.000    0.000 
#
# Total GULP energy -67080.259490 kJ/mol
# GULP energy per Si atom -5590.021624 kJ/mol
# Density = 2.488823 g / cm^3
# Si number density = 24.945005 Si / 1000 Ang^3
#
#
#
# Elastic Constant Matrix: (Units=GPa)
#
#
# Indices 1 2 3 4 5 6 
#
# 1 141.6333 64.4367 101.3179 0.0000 -7.6069 0.0000
# 2 64.4367 195.1627 56.0190 0.0000 18.0204 0.0000
# 3 101.3179 56.0190 169.1483 0.0000 -0.8271 0.0000
# 4 0.0000 0.0000 0.0000 41.2179 0.0000 2.1377
# 5 -7.6069 18.0204 -0.8271 0.0000 66.9455 0.0000
# 6 0.0000 0.0000 0.0000 2.1377 0.0000 47.8528
#
#
#
# Elastic Compliance Matrix: (Units=1/GPa)
#
#
# Indices 1 2 3 4 5 6 
#
# 1 0.013530 -0.002588 -0.007237 0.000000 0.002145 0.000000
# 2 -0.002588 0.006322 -0.000553 0.000000 -0.002003 0.000000
# 3 -0.007237 -0.000553 0.010427 0.000000 -0.000544 0.000000
# 4 0.000000 0.000000 0.000000 0.024318 0.000000 -0.001086
# 5 0.002145 -0.002003 -0.000544 0.000000 0.015714 0.000000
# 6 0.000000 0.000000 0.000000 -0.001086 0.000000 0.020946
#
#
# Mechanical properties :
#
#
# Convention : Reuss Voigt Hill
#
# Bulk Modulus (GPa) = 105.00670 105.49905 105.25287
# Shear Modulus (GPa) = 43.40772 50.14796 46.77784
#
# Velocity S-wave (km/s) = 4.17602 4.48855 4.33510
# Velocity P-wave (km/s) = 8.08943 8.32149 8.20628
#
# Compressibility (1/GPa) = 0.00952320
#
# Stress axis : x y z
#
# Youngs Moduli (GPa) = 73.91081 158.17353 95.90250
#
# Poissons Ratio (x) = 0.40935 0.69401
# Poissons Ratio (y) = 0.19128 0.05308
# Poissons Ratio (z) = 0.53487 0.08754
#
# Static dielectric constant tensor:
#      x y z
#    x 2.047960 0.000000 -0.081470 
#    y 0.000000 3.046590 0.000000 
#    z -0.081470 0.000000 2.115550 
# 
# From -- ./inp_files/84866.got.cif
#   From: 2010.05.17/outbox.cif.g08.bks.cpg/sg15_43_cif.got.tgz:84866.got - 2010.06.03 18:47:42.
