data_PCOD9299472
_publ_section_title
;
Structure prediction by ZEFSAII (Michael W. Deem and Ramdas Pophale) SiO2 
 PCOD9299472
Probable space group: C 2/C
;
_chemical_formula_sum "Si O2"
_cell_formula_units_Z 64
_cell_length_a 21.700010
_cell_length_b 15.625468
_cell_length_c 24.252144
_cell_angle_alpha 90.000000
_cell_angle_beta 159.138013
_cell_angle_gamma 90.000000
_cell_volume 2928.445725
_symmetry_space_group_name_H-M "C 2/C"
_symmetry_group_IT_number 15
_symmetry_cell_setting 'monoclinic'
loop_
_space_group_symop_operation_xyz
x,y,z
-x,y,1/2-z
-x,-y,-z
x,-y,1/2+z
1/2+x,1/2+y,z
1/2-x,1/2+y,1/2-z
1/2-x,1/2-y,-z
1/2+x,1/2-y,1/2+z
loop_
_atom_site_type_symbol
_atom_site_label
_atom_site_fract_x
_atom_site_fract_y
_atom_site_fract_z
Si Si1 0.462111 0.283671 0.995711
Si Si2 0.297900 0.401022 0.773256
Si Si3 0.814263 0.659768 0.622836
Si Si4 0.138149 0.973869 0.914476
Si Si5 0.062642 0.059549 0.655582
Si Si6 0.177925 0.311860 0.579026
Si Si7 0.438796 0.902483 0.512496
Si Si8 0.980123 0.539765 0.631315
O O1 0.542153 0.352540 0.104719
O O2 0.573547 0.244381 0.037765
O O3 0.412514 0.199763 0.988933
O O4 0.320146 0.337924 0.843295
O O5 0.418915 0.482922 0.873291
O O6 0.329866 0.352754 0.742751
O O7 0.093462 0.421371 0.598942
O O8 0.667303 0.622247 0.460563
O O9 0.751195 0.745104 0.597596
O O10 0.000000 0.673875 0.750000
O O11 0.858854 0.583839 0.703749
O O12 0.000000 0.980074 0.750000
O O13 0.328755 0.986441 0.047578
O O14 0.075296 0.035000 0.912171
O O15 0.250754 0.060660 0.841887
O O16 0.083197 0.387191 0.465406
O O17 0.513242 0.951902 0.627338
#
# Coordination Sequence:
#
# PCOD9299472 Si02
#       8
#     8   8   8   8   8   8   8   8
#     4  11  26  40  64 103 134 176 229 280 337 405
#     4  11  23  39  65  98 133 179 217 274 338 407
#     4  10  25  41  67 103 136 176 224 276 328 411
#     4  11  23  45  68  97 132 178 230 273 340 402
#     4  12  24  43  67  96 134 180 223 285 339 406
#     4  11  22  41  66 102 142 176 218 274 341 411
#     4  11  23  42  64  90 133 173 224 272 337 402
#     4  11  24  42  69  96 132 183 221 277 340 404
#
# _framework density 21.854596999999998
#
# number of rings (size 3 to 8) (size 9 to 14) (size 15 to 20)
#    0.000    1.000    2.500    3.750    5.250    4.500 
#    0.000    0.625    0.000    0.000    0.000    0.000 
#    0.000    0.000    0.000    0.000    0.000    0.000 
#
# Total GULP energy -178587.173467 kJ/mol
# GULP energy per Si atom -5580.849171 kJ/mol
# Density = 2.180485 g / cm^3
# Si number density = 21.854597 Si / 1000 Ang^3
#
#
#
# Elastic Constant Matrix: (Units=GPa)
#
#
# Indices 1 2 3 4 5 6 
#
# 1 90.3679 55.3849 14.7663 -0.0006 10.2043 -0.0017
# 2 55.3849 144.0348 16.6747 0.0467 -0.0361 0.0069
# 3 14.7663 16.6747 35.6346 0.0440 -2.6255 0.0061
# 4 -0.0006 0.0467 0.0440 31.0795 0.0073 -3.6488
# 5 10.2043 -0.0361 -2.6255 0.0073 35.3763 0.0005
# 6 -0.0017 0.0069 0.0061 -3.6488 0.0005 42.9790
#
#
#
# Elastic Compliance Matrix: (Units=1/GPa)
#
#
# Indices 1 2 3 4 5 6 
#
# 1 0.015713 -0.005549 -0.004273 0.000016 -0.004855 0.000004
# 2 -0.005549 0.009302 -0.001945 -0.000012 0.001466 -0.000002
# 3 -0.004273 -0.001945 0.031004 -0.000043 0.003531 -0.000008
# 4 0.000016 -0.000012 -0.000043 0.032500 -0.000015 0.002759
# 5 -0.004855 0.001466 0.003531 -0.000015 0.029932 -0.000003
# 6 0.000004 -0.000002 -0.000008 0.002759 -0.000003 0.023501
#
#
# Mechanical properties :
#
#
# Convention : Reuss Voigt Hill
#
# Bulk Modulus (GPa) = 30.78307 49.29879 40.04093
# Shear Modulus (GPa) = 28.35873 34.10107 31.22990
#
# Velocity S-wave (km/s) = 3.60614 3.95443 3.78429
# Velocity P-wave (km/s) = 5.60847 6.59216 6.12011
#
# Compressibility (1/GPa) = 0.03248539
#
# Stress axis : x y z
#
# Youngs Moduli (GPa) = 63.64204 107.50458 32.25421
#
# Poissons Ratio (x) = 0.59650 0.13781
# Poissons Ratio (y) = 0.35312 0.06275
# Poissons Ratio (z) = 0.27191 0.20915
#
# Static dielectric constant tensor:
#      x y z
#    x 1.895680 -0.000010 -0.011210 
#    y -0.000010 1.842820 -0.000010 
#    z -0.011210 -0.000010 1.845360 
# 
# From -- ./inp_files/280509.got.cif
#   From: 2010.05.17/outbox.cif.g08.bks.cpg/sg15_141_cif.got.tgz:280509.got - 2010.06.03 18:47:42.
