data_PCOD9299112
_publ_section_title
;
Structure prediction by ZEFSAII (Michael W. Deem and Ramdas Pophale) SiO2 
 PCOD9299112
Probable space group: C 2/C
;
_chemical_formula_sum "Si O2"
_cell_formula_units_Z 48
_cell_length_a 9.922917
_cell_length_b 10.116583
_cell_length_c 21.710271
_cell_angle_alpha 90.000000
_cell_angle_beta 83.800521
_cell_angle_gamma 90.000000
_cell_volume 2166.662263
_symmetry_space_group_name_H-M "C 2/C"
_symmetry_group_IT_number 15
_symmetry_cell_setting 'monoclinic'
loop_
_space_group_symop_operation_xyz
x,y,z
-x,y,1/2-z
-x,-y,-z
x,-y,1/2+z
1/2+x,1/2+y,z
1/2-x,1/2+y,1/2-z
1/2-x,1/2-y,-z
1/2+x,1/2-y,1/2+z
loop_
_atom_site_type_symbol
_atom_site_label
_atom_site_fract_x
_atom_site_fract_y
_atom_site_fract_z
Si Si1 0.335069 0.080956 0.038360
Si Si2 0.116426 0.404279 0.574195
Si Si3 0.368335 0.953214 0.299570
Si Si4 0.141222 0.059626 0.717228
Si Si5 0.683034 0.802232 0.390065
Si Si6 0.608152 0.309347 0.630878
O O1 0.338981 0.943063 0.076510
O O2 0.477264 0.146866 0.050522
O O3 0.206501 0.161015 0.068478
O O4 0.337013 0.030520 0.968463
O O5 0.097370 0.452529 0.644975
O O6 0.229000 0.292371 0.571323
O O7 0.500000 0.943661 0.250000
O O8 0.238223 0.994634 0.266405
O O9 0.336773 0.809815 0.329987
O O10 0.230571 0.165390 0.675447
O O11 0.000000 0.114353 0.750000
O O12 0.105015 0.940979 0.672441
O O13 0.541065 0.734608 0.381882
#
# Coordination Sequence:
#
# PCOD9299112 Si02
#       6
#     8   8   8   8   8   8
#     4  10  24  47  66 100 132 173 228 275 329 391
#     4  11  24  43  70  98 134 175 224 276 329 394
#     4  12  23  42  68  98 134 177 214 273 337 388
#     4  11  25  40  64 101 130 171 226 265 331 405
#     4  11  23  46  67  97 134 175 218 278 331 387
#     4  11  23  45  69  93 137 175 216 279 330 394
#
# _framework density 22.153891999999999
#
# number of rings (size 3 to 8) (size 9 to 14) (size 15 to 20)
#    0.000    1.000    3.333    3.000    4.667    2.000 
#    0.000    0.000    0.000    0.000    0.000    0.000 
#    0.000    0.000    0.000    0.000    0.000    0.000 
#
# Total GULP energy -134380.121350 kJ/mol
# GULP energy per Si atom -5599.171723 kJ/mol
# Density = 2.210347 g / cm^3
# Si number density = 22.153892 Si / 1000 Ang^3
#
#
#
# Elastic Constant Matrix: (Units=GPa)
#
#
# Indices 1 2 3 4 5 6 
#
# 1 108.1997 33.0022 12.6720 0.0000 -4.9434 0.0000
# 2 33.0022 54.6576 -3.1288 0.0000 6.3816 0.0000
# 3 12.6720 -3.1288 79.7158 0.0000 -9.8922 0.0000
# 4 0.0000 0.0000 0.0000 21.6122 0.0000 1.1680
# 5 -4.9434 6.3816 -9.8922 0.0000 40.4536 0.0000
# 6 0.0000 0.0000 0.0000 1.1680 0.0000 29.5101
#
#
#
# Elastic Compliance Matrix: (Units=1/GPa)
#
#
# Indices 1 2 3 4 5 6 
#
# 1 0.011860 -0.007524 -0.001911 0.000000 0.002169 0.000000
# 2 -0.007524 0.023423 0.001591 0.000000 -0.004225 0.000000
# 3 -0.001911 0.001591 0.013253 0.000000 0.002756 0.000000
# 4 0.000000 0.000000 0.000000 0.046369 0.000000 -0.001835
# 5 0.002169 -0.004225 0.002756 0.000000 0.026325 0.000000
# 6 0.000000 0.000000 0.000000 -0.001835 0.000000 0.033959
#
#
# Mechanical properties :
#
#
# Convention : Reuss Voigt Hill
#
# Bulk Modulus (GPa) = 30.44374 36.40708 33.42541
# Shear Modulus (GPa) = 27.49864 31.65034 29.57449
#
# Velocity S-wave (km/s) = 3.52697 3.78386 3.65767
# Velocity P-wave (km/s) = 5.50979 5.96318 5.74096
#
# Compressibility (1/GPa) = 0.03284747
#
# Stress axis : x y z
#
# Youngs Moduli (GPa) = 84.31760 42.69326 75.45519
#
# Poissons Ratio (x) = 0.32121 0.14423
# Poissons Ratio (y) = 0.63438 -0.12005
# Poissons Ratio (z) = 0.16117 -0.06793
#
# Static dielectric constant tensor:
#      x y z
#    x 1.781510 0.000000 -0.019330 
#    y 0.000000 1.810750 0.000000 
#    z -0.019330 0.000000 1.845400 
# 
# From -- ./inp_files/263154.got.cif
#   From: 2010.05.17/outbox.cif.g08.bks.cpg/sg15_132_cif.got.tgz:263154.got - 2010.06.03 18:47:42.
