data_PCOD9299758
_publ_section_title
;
Structure prediction by ZEFSAII (Michael W. Deem and Ramdas Pophale) SiO2 
 PCOD9299758
Probable space group: C 2/C
;
_chemical_formula_sum "Si O2"
_cell_formula_units_Z 40
_cell_length_a 8.769984
_cell_length_b 10.366326
_cell_length_c 20.175012
_cell_angle_alpha 90.000000
_cell_angle_beta 114.925300
_cell_angle_gamma 90.000000
_cell_volume 1663.323634
_symmetry_space_group_name_H-M "C 2/C"
_symmetry_group_IT_number 15
_symmetry_cell_setting 'monoclinic'
loop_
_space_group_symop_operation_xyz
x,y,z
-x,y,1/2-z
-x,-y,-z
x,-y,1/2+z
1/2+x,1/2+y,z
1/2-x,1/2+y,1/2-z
1/2-x,1/2-y,-z
1/2+x,1/2-y,1/2+z
loop_
_atom_site_type_symbol
_atom_site_label
_atom_site_fract_x
_atom_site_fract_y
_atom_site_fract_z
Si Si1 0.920203 0.174033 0.106891
Si Si2 0.692623 0.043326 0.527721
Si Si3 0.566792 0.683949 0.999421
Si Si4 0.695925 0.289906 0.166297
Si Si5 0.328621 0.551853 0.262978
O O1 0.853033 0.282596 0.143685
O O2 0.105030 0.128748 0.160504
O O3 0.796360 0.051950 0.092331
O O4 0.926618 0.197263 0.030405
O O5 0.680868 0.194147 0.540650
O O6 0.810445 0.059573 0.483133
O O7 0.500000 0.000000 0.500000
O O8 0.465717 0.694695 0.911260
O O9 0.716732 0.408791 0.220866
O O10 0.700243 0.151404 0.204756
O O11 0.500000 0.544460 0.250000
#
# Coordination Sequence:
#
# PCOD9299758 Si02
#       5
#     8   8   8   8   8
#     4  11  23  44  73 105 144 183 245 311 370 432
#     4  11  23  39  66 110 143 181 232 300 369 439
#     4  11  24  42  72 109 143 183 242 308 373 434
#     4  11  23  46  73 103 143 201 244 302 367 440
#     4  10  25  46  66  98 149 193 245 301 366 444
#
# _framework density 24.048235999999999
#
# number of rings (size 3 to 8) (size 9 to 14) (size 15 to 20)
#    0.000    1.200    4.000    1.200    0.000    3.200 
#    0.000    7.000    0.000    0.000    0.000    0.000 
#    0.000    0.000    0.000    0.000    0.000    0.000 
#
# Total GULP energy -111390.248509 kJ/mol
# GULP energy per Si atom -5569.512425 kJ/mol
# Density = 2.399350 g / cm^3
# Si number density = 24.048236 Si / 1000 Ang^3
#
#
#
# Elastic Constant Matrix: (Units=GPa)
#
#
# Indices 1 2 3 4 5 6 
#
# 1 102.6861 45.1114 36.4654 0.0000 -3.0175 0.0000
# 2 45.1114 119.1358 46.8216 0.0000 -14.6166 0.0000
# 3 36.4654 46.8216 105.1468 0.0000 1.0719 0.0000
# 4 0.0000 0.0000 0.0000 37.6375 0.0000 0.0192
# 5 -3.0175 -14.6166 1.0719 0.0000 24.6070 0.0000
# 6 0.0000 0.0000 0.0000 0.0192 0.0000 49.4636
#
#
#
# Elastic Compliance Matrix: (Units=1/GPa)
#
#
# Indices 1 2 3 4 5 6 
#
# 1 0.012269 -0.003693 -0.002605 0.000000 -0.000575 0.000000
# 2 -0.003693 0.012344 -0.004288 0.000000 0.007067 0.000000
# 3 -0.002605 -0.004288 0.012358 0.000000 -0.003405 0.000000
# 4 0.000000 0.000000 0.000000 0.026569 0.000000 -0.000010
# 5 -0.000575 0.007067 -0.003405 0.000000 0.044914 0.000000
# 6 0.000000 0.000000 0.000000 -0.000010 0.000000 0.020217
#
#
# Mechanical properties :
#
#
# Convention : Reuss Voigt Hill
#
# Bulk Modulus (GPa) = 63.29118 64.86283 64.07701
# Shear Modulus (GPa) = 32.23536 35.57965 33.90750
#
# Velocity S-wave (km/s) = 3.66518 3.85061 3.75904
# Velocity P-wave (km/s) = 6.65485 6.84107 6.74860
#
# Compressibility (1/GPa) = 0.01579999
#
# Stress axis : x y z
#
# Youngs Moduli (GPa) = 81.50852 81.00892 80.91839
#
# Poissons Ratio (x) = 0.29913 0.21077
# Poissons Ratio (y) = 0.30097 0.34701
# Poissons Ratio (z) = 0.21230 0.34739
#
# Static dielectric constant tensor:
#      x y z
#    x 2.209980 0.000000 -0.080480 
#    y 0.000000 1.964590 0.000000 
#    z -0.080480 0.000000 2.018840 
# 
# From -- ./inp_files/230005.got.cif
#   From: 2010.05.17/outbox.cif.g08.bks.cpg/sg15_116_cif.got.tgz:230005.got - 2010.06.03 18:47:42.
