data_PCOD9299639
_publ_section_title
;
Structure prediction by ZEFSAII (Michael W. Deem and Ramdas Pophale) SiO2 
 PCOD9299639
Probable space group: C 2/C
;
_chemical_formula_sum "Si O2"
_cell_formula_units_Z 56
_cell_length_a 31.033980
_cell_length_b 15.380128
_cell_length_c 13.115745
_cell_angle_alpha 90.000000
_cell_angle_beta 24.712678
_cell_angle_gamma 90.000000
_cell_volume 2617.203017
_symmetry_space_group_name_H-M "C 2/C"
_symmetry_group_IT_number 15
_symmetry_cell_setting 'monoclinic'
loop_
_space_group_symop_operation_xyz
x,y,z
-x,y,1/2-z
-x,-y,-z
x,-y,1/2+z
1/2+x,1/2+y,z
1/2-x,1/2+y,1/2-z
1/2-x,1/2-y,-z
1/2+x,1/2-y,1/2+z
loop_
_atom_site_type_symbol
_atom_site_label
_atom_site_fract_x
_atom_site_fract_y
_atom_site_fract_z
Si Si1 0.778695 0.670685 0.365180
Si Si2 0.082305 0.668779 0.991885
Si Si3 0.397522 0.215942 0.910660
Si Si4 0.883781 0.128426 0.093199
Si Si5 0.004473 0.598890 0.527158
Si Si6 0.388693 0.554689 0.868099
Si Si7 0.309613 0.373687 0.973575
O O1 0.750000 0.750000 0.500000
O O2 0.878885 0.622301 0.193593
O O3 0.682497 0.607167 0.557263
O O4 0.812365 0.702904 0.180486
O O5 0.000000 0.635683 0.250000
O O6 0.032968 0.656784 0.987145
O O7 0.102630 0.770924 0.966211
O O8 0.191380 0.620579 0.762791
O O9 0.500000 0.247882 0.750000
O O10 0.432907 0.128301 0.776011
O O11 0.358114 0.285476 0.913561
O O12 0.811670 0.125665 0.346560
O O13 0.850971 0.075280 0.064241
O O14 0.994881 0.089630 0.886615
O O15 0.000000 0.500000 0.500000
O O16 0.375862 0.453927 0.871934
#
# Coordination Sequence:
#
# PCOD9299639 Si02
#       7
#     8   8   8   8   8   8   8
#     4  11  25  45  70 102 144 190 235 298 371 435
#     4  12  25  46  71 104 140 189 239 295 362 433
#     4  10  25  44  71 100 143 183 236 296 367 438
#     4  11  24  46  73 101 147 183 240 299 354 433
#     4  11  25  46  72 100 140 190 245 303 359 438
#     4  11  25  43  71 108 143 183 243 298 351 434
#     4  12  26  44  74 105 140 192 237 295 368 430
#
# _framework density 21.396888000000001
#
# number of rings (size 3 to 8) (size 9 to 14) (size 15 to 20)
#    0.000    0.857    2.857    3.429    8.000    4.000 
#    0.000    0.000    0.000    0.000    0.000    0.000 
#    0.000    0.000    0.000    0.000    0.000    0.000 
#
# Total GULP energy -156716.273881 kJ/mol
# GULP energy per Si atom -5597.009781 kJ/mol
# Density = 2.134819 g / cm^3
# Si number density = 21.396888 Si / 1000 Ang^3
#
#
#
# Elastic Constant Matrix: (Units=GPa)
#
#
# Indices 1 2 3 4 5 6 
#
# 1 83.2200 25.6325 19.2044 0.0000 2.3706 0.0000
# 2 25.6325 98.2552 26.2045 0.0000 2.3048 0.0000
# 3 19.2044 26.2045 116.3462 0.0000 13.0271 0.0000
# 4 0.0000 0.0000 0.0000 19.7203 0.0000 -1.8081
# 5 2.3706 2.3048 13.0271 0.0000 44.0828 0.0000
# 6 0.0000 0.0000 0.0000 -1.8081 0.0000 23.8663
#
#
#
# Elastic Compliance Matrix: (Units=1/GPa)
#
#
# Indices 1 2 3 4 5 6 
#
# 1 0.013310 -0.003072 -0.001492 0.000000 -0.000114 0.000000
# 2 -0.003072 0.011538 -0.002113 0.000000 0.000186 0.000000
# 3 -0.001492 -0.002113 0.009614 0.000000 -0.002650 0.000000
# 4 0.000000 0.000000 0.000000 0.051064 0.000000 0.003869
# 5 -0.000114 0.000186 -0.002650 0.000000 0.023464 0.000000
# 6 0.000000 0.000000 0.000000 0.003869 0.000000 0.042193
#
#
# Mechanical properties :
#
#
# Convention : Reuss Voigt Hill
#
# Bulk Modulus (GPa) = 47.37337 48.87823 48.12580
# Shear Modulus (GPa) = 29.14218 32.65255 30.89736
#
# Velocity S-wave (km/s) = 3.69451 3.91070 3.80414
# Velocity P-wave (km/s) = 6.35512 6.57910 6.46808
#
# Compressibility (1/GPa) = 0.02110890
#
# Stress axis : x y z
#
# Youngs Moduli (GPa) = 75.13112 86.67069 104.01572
#
# Poissons Ratio (x) = 0.26622 0.15523
# Poissons Ratio (y) = 0.23077 0.21973
# Poissons Ratio (z) = 0.11213 0.18309
#
# Static dielectric constant tensor:
#      x y z
#    x 1.757100 0.000000 -0.001020 
#    y 0.000000 1.759900 0.000000 
#    z -0.001020 0.000000 1.779440 
# 
# From -- ./inp_files/126997.got.cif
#   From: 2010.05.17/outbox.cif.g08.bks.cpg/sg15_64_cif.got.tgz:126997.got - 2010.06.03 18:47:42.
