data_PCOD9299703
_publ_section_title
;
Structure prediction by ZEFSAII (Michael W. Deem and Ramdas Pophale) SiO2 
 PCOD9299703
Probable space group: C 2/C
;
_chemical_formula_sum "Si O2"
_cell_formula_units_Z 36
_cell_length_a 17.987768
_cell_length_b 18.995899
_cell_length_c 8.726667
_cell_angle_alpha 90.000000
_cell_angle_beta 32.860853
_cell_angle_gamma 90.000000
_cell_volume 1617.952806
_symmetry_space_group_name_H-M "C 2/C"
_symmetry_group_IT_number 15
_symmetry_cell_setting 'monoclinic'
loop_
_space_group_symop_operation_xyz
x,y,z
-x,y,1/2-z
-x,-y,-z
x,-y,1/2+z
1/2+x,1/2+y,z
1/2-x,1/2+y,1/2-z
1/2-x,1/2-y,-z
1/2+x,1/2-y,1/2+z
loop_
_atom_site_type_symbol
_atom_site_label
_atom_site_fract_x
_atom_site_fract_y
_atom_site_fract_z
Si Si1 0.775913 0.432283 0.946883
Si Si2 0.018371 0.147355 0.040283
Si Si3 0.892363 0.288710 0.220735
Si Si4 0.761611 0.412786 0.608886
Si Si5 0.000000 0.354969 0.750000
O O1 0.775017 0.424345 0.766238
O O2 0.912205 0.401248 0.786386
O O3 0.650842 0.388103 0.237391
O O4 0.766177 0.513304 0.012879
O O5 0.000000 0.126246 0.250000
O O6 0.012753 0.232807 0.045900
O O7 0.886558 0.120599 0.174183
O O8 0.750000 0.250000 0.500000
O O9 0.876801 0.359841 0.344709
O O10 0.902477 0.308363 0.025141
#
# Coordination Sequence:
#
# PCOD9299703 Si02
#       5
#     8   8   8   8   4
#     4  12  26  45  75 104 144 192 245 297 362 432
#     4  11  24  45  73 106 145 187 240 301 360 433
#     4  10  25  45  69 103 146 184 237 295 360 428
#     4  11  25  47  73 107 142 189 240 303 362 430
#     4  12  28  46  70 104 146 190 240 296 360 432
#
# _framework density 22.250340000000001
#
# number of rings (size 3 to 8) (size 9 to 14) (size 15 to 20)
#    0.000    0.889    0.000    6.667    9.333    4.444 
#    0.000    0.000    0.000    0.000    0.000    0.000 
#    0.000    0.000    0.000    0.000    0.000    0.000 
#
# Total GULP energy -100792.116673 kJ/mol
# GULP energy per Si atom -5599.562037 kJ/mol
# Density = 2.219970 g / cm^3
# Si number density = 22.250340 Si / 1000 Ang^3
#
#
#
# Elastic Constant Matrix: (Units=GPa)
#
#
# Indices 1 2 3 4 5 6 
#
# 1 180.8197 53.4680 55.0878 0.0000 30.1253 0.0000
# 2 53.4680 163.0201 75.2007 0.0001 16.0326 0.0001
# 3 55.0878 75.2007 110.0321 0.0000 25.7371 0.0000
# 4 0.0000 0.0001 0.0000 28.1829 0.0000 9.1562
# 5 30.1253 16.0326 25.7371 0.0000 52.6116 0.0000
# 6 0.0000 0.0001 0.0000 9.1562 0.0000 34.3778
#
#
#
# Elastic Compliance Matrix: (Units=1/GPa)
#
#
# Indices 1 2 3 4 5 6 
#
# 1 0.006923 -0.001017 -0.002164 0.000000 -0.002596 0.000000
# 2 -0.001017 0.009112 -0.005878 0.000000 0.000681 0.000000
# 3 -0.002164 -0.005878 0.015222 0.000000 -0.004416 0.000000
# 4 0.000000 0.000000 0.000000 0.038844 0.000000 -0.010346
# 5 -0.002596 0.000681 -0.004416 0.000000 0.022446 0.000000
# 6 0.000000 0.000000 0.000000 -0.010346 0.000000 0.031844
#
#
# Mechanical properties :
#
#
# Convention : Reuss Voigt Hill
#
# Bulk Modulus (GPa) = 76.10633 91.26500 83.68567
# Shear Modulus (GPa) = 34.03972 41.04215 37.54094
#
# Velocity S-wave (km/s) = 3.91558 4.29950 4.11202
# Velocity P-wave (km/s) = 7.39737 8.10888 7.76129
#
# Compressibility (1/GPa) = 0.01313951
#
# Stress axis : x y z
#
# Youngs Moduli (GPa) = 144.45160 109.74229 65.69653
#
# Poissons Ratio (x) = 0.11163 0.14214
# Poissons Ratio (y) = 0.14694 0.38615
# Poissons Ratio (z) = 0.31253 0.64503
#
# Static dielectric constant tensor:
#      x y z
#    x 1.789700 0.000000 -0.033690 
#    y 0.000000 1.866020 0.000000 
#    z -0.033690 0.000000 1.850560 
# 
# From -- ./inp_files/50536.got.cif
#   From: 2010.05.17/outbox.cif.g08.bks.cpg/sg15_26_cif.got.tgz:50536.got - 2010.06.03 18:47:42.
