data_PCOD9299443
_publ_section_title
;
Structure prediction by ZEFSAII (Michael W. Deem and Ramdas Pophale) SiO2 
 PCOD9299443
Probable space group: C 2/C
;
_chemical_formula_sum "Si O2"
_cell_formula_units_Z 56
_cell_length_a 9.663220
_cell_length_b 15.671347
_cell_length_c 26.635617
_cell_angle_alpha 90.000000
_cell_angle_beta 134.452129
_cell_angle_gamma 90.000000
_cell_volume 2879.315725
_symmetry_space_group_name_H-M "C 2/C"
_symmetry_group_IT_number 15
_symmetry_cell_setting 'monoclinic'
loop_
_space_group_symop_operation_xyz
x,y,z
-x,y,1/2-z
-x,-y,-z
x,-y,1/2+z
1/2+x,1/2+y,z
1/2-x,1/2+y,1/2-z
1/2-x,1/2-y,-z
1/2+x,1/2-y,1/2+z
loop_
_atom_site_type_symbol
_atom_site_label
_atom_site_fract_x
_atom_site_fract_y
_atom_site_fract_z
Si Si1 0.029892 0.870867 0.121208
Si Si2 0.192005 0.482781 0.764967
Si Si3 0.042080 0.161990 0.126079
Si Si4 0.392464 0.212195 0.668860
Si Si5 0.449155 0.938884 0.362131
Si Si6 0.641091 0.484525 0.988169
Si Si7 0.329838 0.306401 0.165224
O O1 0.172178 0.814710 0.123268
O O2 0.924397 0.812728 0.134941
O O3 0.170854 0.937316 0.186388
O O4 0.888725 0.932069 0.053848
O O5 0.305134 0.398173 0.807297
O O6 0.000000 0.488265 0.750000
O O7 0.136881 0.485711 0.693000
O O8 0.169377 0.232946 0.129840
O O9 0.916132 0.209475 0.136527
O O10 0.927162 0.099717 0.059478
O O11 0.500000 0.224874 0.750000
O O12 0.489031 0.132707 0.663550
O O13 0.640249 0.968679 0.439027
O O14 0.284594 0.894631 0.353406
O O15 0.500000 0.500000 0.000000
O O16 0.500000 0.295750 0.250000
#
# Coordination Sequence:
#
# PCOD9299443 Si02
#       7
#     8   8   8   8   8   8   8
#     4  11  20  39  68  89 127 167 220 250 327 394
#     4  11  18  38  66  94 116 169 221 266 303 384
#     4  10  25  39  67  96 129 158 225 272 318 378
#     4  11  19  39  65  97 119 168 212 269 317 382
#     4  11  20  38  70  88 131 169 218 260 327 376
#     4  11  23  43  67  95 121 180 221 259 313 403
#     4  11  22  39  64  97 129 168 207 278 332 379
#
# _framework density 19.449065000000001
#
# number of rings (size 3 to 8) (size 9 to 14) (size 15 to 20)
#    0.000    1.143    5.714    2.143    0.000    2.857 
#    5.143    0.714    3.143    0.000    0.000    0.000 
#    0.000    0.000    0.000    0.000    0.000    0.000 
#
# Total GULP energy -156450.854286 kJ/mol
# GULP energy per Si atom -5587.530510 kJ/mol
# Density = 1.940480 g / cm^3
# Si number density = 19.449065 Si / 1000 Ang^3
#
#
#
# Elastic Constant Matrix: (Units=GPa)
#
#
# Indices 1 2 3 4 5 6 
#
# 1 76.5436 22.1389 -3.2197 0.0000 -8.7879 0.0000
# 2 22.1389 70.4319 31.7706 0.0000 -6.1256 0.0000
# 3 -3.2197 31.7706 96.4886 0.0000 -0.9953 0.0000
# 4 0.0000 0.0000 0.0000 14.1648 0.0000 -7.4800
# 5 -8.7879 -6.1256 -0.9953 0.0000 24.2801 0.0000
# 6 0.0000 0.0000 0.0000 -7.4800 0.0000 71.8145
#
#
#
# Elastic Compliance Matrix: (Units=1/GPa)
#
#
# Indices 1 2 3 4 5 6 
#
# 1 0.015235 -0.005485 0.002358 0.000000 0.004227 0.000000
# 2 -0.005485 0.019044 -0.006427 0.000000 0.002556 0.000000
# 3 0.002358 -0.006427 0.012556 0.000000 -0.000253 0.000000
# 4 0.000000 0.000000 0.000000 0.074707 0.000000 0.007781
# 5 0.004227 0.002556 -0.000253 0.000000 0.043350 0.000000
# 6 0.000000 0.000000 0.000000 0.007781 0.000000 0.014735
#
#
# Mechanical properties :
#
#
# Convention : Reuss Voigt Hill
#
# Bulk Modulus (GPa) = 36.06580 38.31597 37.19089
# Shear Modulus (GPa) = 24.04101 34.90351 29.47226
#
# Velocity S-wave (km/s) = 3.51964 4.24088 3.89698
# Velocity P-wave (km/s) = 5.92462 6.61238 6.27792
#
# Compressibility (1/GPa) = 0.02772710
#
# Stress axis : x y z
#
# Youngs Moduli (GPa) = 65.63672 52.51091 79.64175
#
# Poissons Ratio (x) = 0.28802 -0.18780
# Poissons Ratio (y) = 0.36001 0.51187
# Poissons Ratio (z) = -0.15477 0.33749
#
# Static dielectric constant tensor:
#      x y z
#    x 1.694220 0.000000 -0.007480 
#    y 0.000000 1.679390 0.000000 
#    z -0.007480 0.000000 1.686240 
# 
# From -- ./inp_files/232570.got.cif
#   From: 2010.05.17/outbox.cif.g08.bks.cpg/sg15_117_cif.got.tgz:232570.got - 2010.06.03 18:47:42.
