data_PCOD9299476
_publ_section_title
;
Structure prediction by ZEFSAII (Michael W. Deem and Ramdas Pophale) SiO2 
 PCOD9299476
Probable space group: C 2/C
;
_chemical_formula_sum "Si O2"
_cell_formula_units_Z 48
_cell_length_a 14.662994
_cell_length_b 14.039205
_cell_length_c 31.113582
_cell_angle_alpha 90.000000
_cell_angle_beta 19.591779
_cell_angle_gamma 90.000000
_cell_volume 2147.681993
_symmetry_space_group_name_H-M "C 2/C"
_symmetry_group_IT_number 15
_symmetry_cell_setting 'monoclinic'
loop_
_space_group_symop_operation_xyz
x,y,z
-x,y,1/2-z
-x,-y,-z
x,-y,1/2+z
1/2+x,1/2+y,z
1/2-x,1/2+y,1/2-z
1/2-x,1/2-y,-z
1/2+x,1/2-y,1/2+z
loop_
_atom_site_type_symbol
_atom_site_label
_atom_site_fract_x
_atom_site_fract_y
_atom_site_fract_z
Si Si1 0.012605 0.387139 0.999711
Si Si2 0.500000 0.727623 0.250000
Si Si3 0.000000 0.772460 0.250000
Si Si4 0.277789 0.361414 0.499731
Si Si5 0.232270 0.337273 0.723037
Si Si6 0.219181 0.439721 0.999583
Si Si7 0.123549 0.662855 0.777358
O O1 0.231179 0.338536 0.870799
O O2 0.124771 0.381821 0.999362
O O3 0.000000 0.500000 0.000000
O O4 0.715922 0.338464 0.128680
O O5 0.530659 0.792769 0.194477
O O6 0.809674 0.707328 0.304909
O O7 0.250000 0.250000 0.500000
O O8 0.203878 0.446268 0.499467
O O9 0.595215 0.375607 0.367052
O O10 0.063853 0.375849 0.632651
O O11 0.476033 0.409764 0.622801
O O12 0.301774 0.250105 0.724159
O O13 0.033676 0.409528 0.122263
#
# Coordination Sequence:
#
# PCOD9299476 Si02
#       7
#     8   4   4   8   8   8   8
#     4  12  28  41  69 110 147 181 240 304 360 426
#     4  12  25  46  69 106 146 184 240 291 363 428
#     4  12  25  46  69 106 146 184 240 291 363 428
#     4  10  25  41  68 100 138 183 237 293 349 415
#     4  11  23  44  70 101 144 189 231 292 352 433
#     4  12  24  47  71 104 143 192 241 288 366 433
#     4  11  23  44  70 101 144 189 231 292 352 433
#
# _framework density 22.349677
#
# number of rings (size 3 to 8) (size 9 to 14) (size 15 to 20)
#    0.000    0.667    3.333    4.000    9.333    2.667 
#    0.000    5.000    0.000    0.000    0.000    0.000 
#    0.000    0.000    0.000    0.000    0.000    0.000 
#
# Total GULP energy -134052.016040 kJ/mol
# GULP energy per Si atom -5585.500668 kJ/mol
# Density = 2.229881 g / cm^3
# Si number density = 22.349677 Si / 1000 Ang^3
#
#
#
# Elastic Constant Matrix: (Units=GPa)
#
#
# Indices 1 2 3 4 5 6 
#
# 1 82.0688 21.9397 -8.5981 -0.0305 3.6088 -0.0073
# 2 21.9397 104.2711 35.6639 -0.0564 -1.1535 -0.0240
# 3 -8.5981 35.6639 153.1267 0.0960 -10.2254 -0.0738
# 4 -0.0305 -0.0564 0.0960 6.6596 -0.0051 2.3489
# 5 3.6088 -1.1535 -10.2254 -0.0051 25.2805 0.0084
# 6 -0.0073 -0.0240 -0.0738 2.3489 0.0084 35.0983
#
#
#
# Elastic Compliance Matrix: (Units=1/GPa)
#
#
# Indices 1 2 3 4 5 6 
#
# 1 0.013278 -0.003294 0.001414 0.000010 -0.001474 0.000003
# 2 -0.003294 0.011244 -0.002814 0.000123 -0.000155 -0.000007
# 3 0.001414 -0.002814 0.007445 -0.000130 0.002681 0.000022
# 4 0.000010 0.000123 -0.000130 0.153793 -0.000014 -0.010292
# 5 -0.001474 -0.000155 0.002681 -0.000014 0.040844 -0.000004
# 6 0.000003 -0.000007 0.000022 -0.010292 -0.000004 0.029180
#
#
# Mechanical properties :
#
#
# Convention : Reuss Voigt Hill
#
# Bulk Modulus (GPa) = 44.28771 48.60862 46.44817
# Shear Modulus (GPa) = 18.33525 32.77175 25.55350
#
# Velocity S-wave (km/s) = 2.86734 3.83341 3.38501
# Velocity P-wave (km/s) = 5.55167 6.43348 6.00877
#
# Compressibility (1/GPa) = 0.02257963
#
# Stress axis : x y z
#
# Youngs Moduli (GPa) = 75.30987 88.93330 134.32700
#
# Poissons Ratio (x) = 0.29294 -0.18999
# Poissons Ratio (y) = 0.24807 0.37803
# Poissons Ratio (z) = -0.10652 0.25028
#
# Static dielectric constant tensor:
#      x y z
#    x 1.853200 0.000060 0.003790 
#    y 0.000060 1.871790 -0.000070 
#    z 0.003790 -0.000070 1.816710 
# 
# From -- ./inp_files/314101.got.cif
#   From: 2010.05.17/outbox.cif.g08.bks.cpg/sg15_158_cif.got.tgz:314101.got - 2010.06.03 18:47:42.
