data_PCOD9299641
_publ_section_title
;
Structure prediction by ZEFSAII (Michael W. Deem and Ramdas Pophale) SiO2 
 PCOD9299641
Probable space group: C 2/C
;
_chemical_formula_sum "Si O2"
_cell_formula_units_Z 64
_cell_length_a 8.896178
_cell_length_b 14.812786
_cell_length_c 27.350397
_cell_angle_alpha 90.000000
_cell_angle_beta 123.999302
_cell_angle_gamma 90.000000
_cell_volume 2988.007129
_symmetry_space_group_name_H-M "C 2/C"
_symmetry_group_IT_number 15
_symmetry_cell_setting 'monoclinic'
loop_
_space_group_symop_operation_xyz
x,y,z
-x,y,1/2-z
-x,-y,-z
x,-y,1/2+z
1/2+x,1/2+y,z
1/2-x,1/2+y,1/2-z
1/2-x,1/2-y,-z
1/2+x,1/2-y,1/2+z
loop_
_atom_site_type_symbol
_atom_site_label
_atom_site_fract_x
_atom_site_fract_y
_atom_site_fract_z
Si Si1 0.298746 0.759719 0.432479
Si Si2 0.302748 0.679648 0.236718
Si Si3 0.797400 0.802158 0.195814
Si Si4 0.396696 0.258438 0.392296
Si Si5 0.829112 0.669451 0.480304
Si Si6 0.754518 0.551102 0.653938
Si Si7 0.318073 0.025603 0.775761
Si Si8 0.993421 0.930057 0.954314
O O1 0.239112 0.773234 0.365649
O O2 0.455348 0.833927 0.470752
O O3 0.398500 0.662844 0.454715
O O4 0.115410 0.763363 0.430822
O O5 0.500000 0.675043 0.250000
O O6 0.317572 0.741956 0.287334
O O7 0.170538 0.722518 0.172186
O O8 0.235182 0.578569 0.233715
O O9 0.759992 0.908199 0.197299
O O10 0.000000 0.782513 0.250000
O O11 0.320337 0.196749 0.421898
O O12 0.314285 0.357776 0.383683
O O13 0.750000 0.750000 0.500000
O O14 0.695189 0.588873 0.470427
O O15 0.745578 0.563054 0.710714
O O16 0.631129 0.471033 0.611211
O O17 0.965047 0.532930 0.681988
O O18 0.000000 0.000000 0.000000
#
# Coordination Sequence:
#
# PCOD9299641 Si02
#       8
#     8   8   8   8   8   8   8   8
#     4  11  24  46  73  99 145 187 241 298 356 431
#     4  12  26  41  68 102 144 183 235 296 352 432
#     4  12  24  45  69 105 142 187 237 287 370 424
#     4  12  24  46  70 104 139 187 239 297 358 425
#     4  10  25  44  71 101 132 192 233 292 357 418
#     4  11  23  42  68 101 141 184 236 293 357 433
#     4  11  25  41  67 102 143 186 234 290 361 431
#     4  11  25  45  70 104 138 189 245 295 361 427
#
# _framework density 21.418956999999999
#
# number of rings (size 3 to 8) (size 9 to 14) (size 15 to 20)
#    0.000    0.750    2.500    4.500   12.250    0.000 
#    0.000    1.250    0.000    0.000    0.000    0.000 
#    0.000    0.000    0.000    0.000    0.000    0.000 
#
# Total GULP energy -179031.256690 kJ/mol
# GULP energy per Si atom -5594.726772 kJ/mol
# Density = 2.137021 g / cm^3
# Si number density = 21.418957 Si / 1000 Ang^3
#
#
#
# Elastic Constant Matrix: (Units=GPa)
#
#
# Indices 1 2 3 4 5 6 
#
# 1 92.4998 16.5589 37.9732 0.0000 9.7486 0.0000
# 2 16.5589 73.6437 24.9463 0.0000 6.8886 0.0000
# 3 37.9732 24.9463 99.8656 0.0000 12.8946 0.0000
# 4 0.0000 0.0000 0.0000 31.2433 0.0000 0.6750
# 5 9.7486 6.8886 12.8946 0.0000 39.3046 0.0000
# 6 0.0000 0.0000 0.0000 0.6750 0.0000 38.3783
#
#
#
# Elastic Compliance Matrix: (Units=1/GPa)
#
#
# Indices 1 2 3 4 5 6 
#
# 1 0.013023 -0.001282 -0.004431 0.000000 -0.001552 0.000000
# 2 -0.001282 0.015039 -0.003101 0.000000 -0.001300 0.000000
# 3 -0.004431 -0.003101 0.012803 0.000000 -0.002558 0.000000
# 4 0.000000 0.000000 0.000000 0.032019 0.000000 -0.000563
# 5 -0.001552 -0.001300 -0.002558 0.000000 0.026894 0.000000
# 6 0.000000 0.000000 0.000000 -0.000563 0.000000 0.026066
#
#
# Mechanical properties :
#
#
# Convention : Reuss Voigt Hill
#
# Bulk Modulus (GPa) = 43.03618 47.21841 45.12729
# Shear Modulus (GPa) = 33.06434 34.22062 33.64248
#
# Velocity S-wave (km/s) = 3.93325 4.00143 3.96749
# Velocity P-wave (km/s) = 6.38463 6.59103 6.48865
#
# Compressibility (1/GPa) = 0.02323626
#
# Stress axis : x y z
#
# Youngs Moduli (GPa) = 76.78716 66.49205 78.10410
#
# Poissons Ratio (x) = 0.08525 0.34610
# Poissons Ratio (y) = 0.09844 0.24223
# Poissons Ratio (z) = 0.34027 0.20622
#
# Static dielectric constant tensor:
#      x y z
#    x 1.780870 0.000000 -0.005920 
#    y 0.000000 1.773290 0.000000 
#    z -0.005920 0.000000 1.776070 
# 
# From -- ./inp_files/308308.got.cif
#   From: 2010.05.17/outbox.cif.g08.bks.cpg/sg15_155_cif.got.tgz:308308.got - 2010.06.03 18:47:42.
