data_PCOD9299841
_publ_section_title
;
Structure prediction by ZEFSAII (Michael W. Deem and Ramdas Pophale) SiO2 
 PCOD9299841
Probable space group: C 2/C
;
_chemical_formula_sum "Si O2"
_cell_formula_units_Z 60
_cell_length_a 14.125296
_cell_length_b 23.335479
_cell_length_c 9.441782
_cell_angle_alpha 90.000000
_cell_angle_beta 70.217598
_cell_angle_gamma 90.000000
_cell_volume 2928.537830
_symmetry_space_group_name_H-M "C 2/C"
_symmetry_group_IT_number 15
_symmetry_cell_setting 'monoclinic'
loop_
_space_group_symop_operation_xyz
x,y,z
-x,y,1/2-z
-x,-y,-z
x,-y,1/2+z
1/2+x,1/2+y,z
1/2-x,1/2+y,1/2-z
1/2-x,1/2-y,-z
1/2+x,1/2-y,1/2+z
loop_
_atom_site_type_symbol
_atom_site_label
_atom_site_fract_x
_atom_site_fract_y
_atom_site_fract_z
Si Si1 0.850444 0.365398 0.325504
Si Si2 0.000000 0.736330 0.750000
Si Si3 0.643750 0.583684 0.925186
Si Si4 0.901732 0.424291 0.009238
Si Si5 0.965723 0.845746 0.610316
Si Si6 0.380900 0.488481 0.337969
Si Si7 0.727926 0.401503 0.900334
Si Si8 0.127388 0.555732 0.412878
O O1 0.730858 0.369238 0.367050
O O2 0.899265 0.397762 0.167175
O O3 0.867181 0.402409 0.457088
O O4 0.903243 0.304305 0.311363
O O5 0.988693 0.778436 0.620319
O O6 0.656048 0.537701 0.792814
O O7 0.538875 0.617884 0.972463
O O8 0.650340 0.547667 0.068443
O O9 0.865490 0.490307 0.038078
O O10 0.822106 0.388079 0.956997
O O11 0.017150 0.431294 0.903084
O O12 0.849910 0.856142 0.627801
O O13 0.000000 0.867012 0.750000
O O14 0.500000 0.492612 0.250000
O O15 0.344626 0.442143 0.471307
O O16 0.786765 0.432131 0.743687
#
# Coordination Sequence:
#
# PCOD9299841 Si02
#       8
#     8   4   8   8   8   8   8   8
#     4  12  23  44  71 100 140 184 238 283 348 431
#     4  10  26  50  72  96 130 188 258 302 342 412
#     4  12  25  40  69 106 145 188 220 282 354 439
#     4  11  22  40  66 107 148 183 221 292 350 434
#     4  10  25  47  68  95 138 180 248 299 347 403
#     4  12  25  40  67 106 153 185 216 271 365 444
#     4  12  24  41  66 104 142 184 231 291 349 428
#     4  11  23  39  67 104 151 187 224 270 362 438
#
# _framework density 20.488040000000002
#
# number of rings (size 3 to 8) (size 9 to 14) (size 15 to 20)
#    0.400    0.267    4.000    4.400    3.733    2.667 
#    0.000    0.667    0.000    1.600    0.000    0.000 
#    0.000    0.000    0.000    0.000    0.000    0.000 
#
# Total GULP energy -167366.084607 kJ/mol
# GULP energy per Si atom -5578.869487 kJ/mol
# Density = 2.044141 g / cm^3
# Si number density = 20.488040 Si / 1000 Ang^3
#
#
#
# Elastic Constant Matrix: (Units=GPa)
#
#
# Indices 1 2 3 4 5 6 
#
# 1 142.4380 47.4737 45.1331 0.0000 -21.3413 0.0000
# 2 47.4737 101.0622 45.4090 0.0000 -6.4477 0.0000
# 3 45.1331 45.4090 117.9204 0.0000 -2.0096 0.0000
# 4 0.0000 0.0000 0.0000 14.0135 0.0000 2.9452
# 5 -21.3413 -6.4477 -2.0096 0.0000 31.4769 0.0000
# 6 0.0000 0.0000 0.0000 2.9452 0.0000 17.6990
#
#
#
# Elastic Compliance Matrix: (Units=1/GPa)
#
#
# Indices 1 2 3 4 5 6 
#
# 1 0.009683 -0.003094 -0.002416 0.000000 0.005777 0.000000
# 2 -0.003094 0.013102 -0.003855 0.000000 0.000340 0.000000
# 3 -0.002416 -0.003855 0.010860 0.000000 -0.001734 0.000000
# 4 0.000000 0.000000 0.000000 0.073946 0.000000 -0.012305
# 5 0.005777 0.000340 -0.001734 0.000000 0.035645 0.000000
# 6 0.000000 0.000000 0.000000 -0.012305 0.000000 0.058548
#
#
# Mechanical properties :
#
#
# Convention : Reuss Voigt Hill
#
# Bulk Modulus (GPa) = 67.05151 70.82802 68.93976
# Shear Modulus (GPa) = 22.17419 27.53155 24.85287
#
# Velocity S-wave (km/s) = 3.29340 3.66975 3.48665
# Velocity P-wave (km/s) = 6.87460 7.25269 7.06618
#
# Compressibility (1/GPa) = 0.01491391
#
# Stress axis : x y z
#
# Youngs Moduli (GPa) = 103.27303 76.32158 92.08033
#
# Poissons Ratio (x) = 0.23617 0.22247
# Poissons Ratio (y) = 0.31957 0.35500
# Poissons Ratio (z) = 0.24951 0.29425
#
# Static dielectric constant tensor:
#      x y z
#    x 1.842900 0.000000 0.023240 
#    y 0.000000 1.693500 0.000000 
#    z 0.023240 0.000000 1.743090 
# 
# From -- ./inp_files/42609.got.cif
#   From: 2010.05.17/outbox.cif.g08.bks.cpg/sg15_22_cif.got.tgz:42609.got - 2010.06.03 18:47:42.
