data_PCOD9299318
_publ_section_title
;
Structure prediction by ZEFSAII (Michael W. Deem and Ramdas Pophale) SiO2 
 PCOD9299318
Probable space group: C 2/C
;
_chemical_formula_sum "Si O2"
_cell_formula_units_Z 36
_cell_length_a 4.781591
_cell_length_b 12.975976
_cell_length_c 21.124785
_cell_angle_alpha 90.000000
_cell_angle_beta 81.303859
_cell_angle_gamma 90.000000
_cell_volume 1295.636635
_symmetry_space_group_name_H-M "C 2/C"
_symmetry_group_IT_number 15
_symmetry_cell_setting 'monoclinic'
loop_
_space_group_symop_operation_xyz
x,y,z
-x,y,1/2-z
-x,-y,-z
x,-y,1/2+z
1/2+x,1/2+y,z
1/2-x,1/2+y,1/2-z
1/2-x,1/2-y,-z
1/2+x,1/2-y,1/2+z
loop_
_atom_site_type_symbol
_atom_site_label
_atom_site_fract_x
_atom_site_fract_y
_atom_site_fract_z
Si Si1 0.500000 0.875553 0.250000
Si Si2 0.427621 0.453621 0.685096
Si Si3 0.322887 0.174376 0.423126
Si Si4 0.795292 0.898227 0.003125
Si Si5 0.328280 0.873513 0.125413
O O1 0.398119 0.821276 0.190486
O O2 0.735150 0.952196 0.214921
O O3 0.500000 0.399394 0.750000
O O4 0.272436 0.388407 0.636442
O O5 0.687753 0.516652 0.645486
O O6 0.035211 0.182880 0.474431
O O7 0.382393 0.291122 0.399202
O O8 0.562137 0.116538 0.455216
O O9 0.600942 0.890275 0.071889
O O10 0.000000 0.000000 0.000000
#
# Coordination Sequence:
#
# PCOD9299318 Si02
#       5
#     4   8   8   8   8
#     4  10  24  48  76 114 158 216 256 346 402 496
#     4  10  26  50  79 116 166 211 270 341 413 489
#     4  12  29  49  85 118 159 217 276 342 410 501
#     4  12  29  50  82 121 165 217 272 344 418 493
#     4  11  27  51  81 118 165 210 283 337 419 490
#
# _framework density 27.78557
#
# number of rings (size 3 to 8) (size 9 to 14) (size 15 to 20)
#    0.000    0.889    0.000    3.333   20.222    0.000 
#    6.000    0.000    0.000    0.000    0.000    0.000 
#    0.000    0.000    0.000    0.000    0.000    0.000 
#
# Total GULP energy -100834.336297 kJ/mol
# GULP energy per Si atom -5601.907572 kJ/mol
# Density = 2.772233 g / cm^3
# Si number density = 27.785570 Si / 1000 Ang^3
#
#
#
# Elastic Constant Matrix: (Units=GPa)
#
#
# Indices 1 2 3 4 5 6 
#
# 1 202.3481 57.4037 113.5258 0.0000 15.0778 0.0000
# 2 57.4037 115.7373 78.5633 0.0000 7.8924 0.0000
# 3 113.5258 78.5633 252.7734 0.0000 34.4736 0.0000
# 4 0.0000 0.0000 0.0000 37.9563 0.0000 19.8801
# 5 15.0778 7.8924 34.4736 0.0000 81.3225 0.0000
# 6 0.0000 0.0000 0.0000 19.8801 0.0000 24.3762
#
#
#
# Elastic Compliance Matrix: (Units=1/GPa)
#
#
# Indices 1 2 3 4 5 6 
#
# 1 0.006849 -0.001660 -0.002557 0.000000 -0.000025 0.000000
# 2 -0.001660 0.011365 -0.002843 0.000000 0.000410 0.000000
# 3 -0.002557 -0.002843 0.006247 0.000000 -0.001898 0.000000
# 4 0.000000 0.000000 0.000000 0.045992 0.000000 -0.037509
# 5 -0.000025 0.000410 -0.001898 0.000000 0.013066 0.000000
# 6 0.000000 0.000000 0.000000 -0.037509 0.000000 0.071614
#
#
# Mechanical properties :
#
#
# Convention : Reuss Voigt Hill
#
# Bulk Modulus (GPa) = 96.68910 118.87159 107.78034
# Shear Modulus (GPa) = 28.95196 50.15538 39.55367
#
# Velocity S-wave (km/s) = 3.23147 4.25324 3.77707
# Velocity P-wave (km/s) = 6.98549 8.18503 7.60894
#
# Compressibility (1/GPa) = 0.01034243
#
# Stress axis : x y z
#
# Youngs Moduli (GPa) = 146.00259 87.98739 160.07962
#
# Poissons Ratio (x) = 0.14604 0.40930
# Poissons Ratio (y) = 0.24233 0.45508
# Poissons Ratio (z) = 0.37331 0.25013
#
# Static dielectric constant tensor:
#      x y z
#    x 2.268070 0.000000 0.072040 
#    y 0.000000 2.212550 0.000000 
#    z 0.072040 0.000000 2.286900 
# 
# From -- ./inp_files/259947.got.cif
#   From: 2010.05.17/outbox.cif.g08.bks.cpg/sg15_130_cif.got.tgz:259947.got - 2010.06.03 18:47:42.
