data_PCOD9299175
_publ_section_title
;
Structure prediction by ZEFSAII (Michael W. Deem and Ramdas Pophale) SiO2 
 PCOD9299175
Probable space group: C 2/C
;
_chemical_formula_sum "Si O2"
_cell_formula_units_Z 40
_cell_length_a 25.401008
_cell_length_b 4.925474
_cell_length_c 12.790537
_cell_angle_alpha 90.000000
_cell_angle_beta 65.844607
_cell_angle_gamma 90.000000
_cell_volume 1460.130226
_symmetry_space_group_name_H-M "C 2/C"
_symmetry_group_IT_number 15
_symmetry_cell_setting 'monoclinic'
loop_
_space_group_symop_operation_xyz
x,y,z
-x,y,1/2-z
-x,-y,-z
x,-y,1/2+z
1/2+x,1/2+y,z
1/2-x,1/2+y,1/2-z
1/2-x,1/2-y,-z
1/2+x,1/2-y,1/2+z
loop_
_atom_site_type_symbol
_atom_site_label
_atom_site_fract_x
_atom_site_fract_y
_atom_site_fract_z
Si Si1 0.750000 0.250000 0.500000
Si Si2 0.226357 0.365621 0.320556
Si Si3 0.403378 0.858616 0.030428
Si Si4 0.434580 0.359420 0.121577
Si Si5 0.376383 0.485342 0.859438
Si Si6 0.000000 0.003909 0.250000
O O1 0.759072 0.491377 0.581984
O O2 0.678798 0.312462 0.563932
O O3 0.248154 0.056251 0.292693
O O4 0.158638 0.360791 0.362080
O O5 0.441680 0.653176 0.066475
O O6 0.427131 0.153700 0.034064
O O7 0.387294 0.726025 0.933317
O O8 0.377423 0.380438 0.242901
O O9 0.485039 0.312091 0.163840
O O10 0.439564 0.337478 0.807206
#
# Coordination Sequence:
#
# PCOD9299175 Si02
#       6
#     4   8   8   8   8   4
#     4  12  24  46  80 108 156 198 254 320 380 456
#     4  12  27  46  72 113 151 199 249 318 387 462
#     4  12  24  45  77 107 150 202 261 306 393 450
#     4  10  25  47  73 109 155 200 250 331 365 464
#     4  10  24  47  73 117 150 204 259 314 387 464
#     4   8  24  52  70 116 150 210 252 324 388 452
#
# _framework density 27.394818000000001
#
# number of rings (size 3 to 8) (size 9 to 14) (size 15 to 20)
#    1.200    0.000    0.000    6.000    0.000   10.400 
#    0.000    0.000    0.000    0.000    0.000    0.000 
#    0.000    0.000    0.000    0.000    0.000    0.000 
#
# Total GULP energy -111409.117829 kJ/mol
# GULP energy per Si atom -5570.455891 kJ/mol
# Density = 2.733247 g / cm^3
# Si number density = 27.394818 Si / 1000 Ang^3
#
#
#
# Elastic Constant Matrix: (Units=GPa)
#
#
# Indices 1 2 3 4 5 6 
#
# 1 143.9179 20.4438 29.2452 0.0000 -37.6317 0.0000
# 2 20.4438 70.9757 37.6857 0.0000 -6.3736 0.0000
# 3 29.2452 37.6857 135.8892 0.0000 2.3366 0.0000
# 4 0.0000 0.0000 0.0000 34.9074 0.0000 -7.2282
# 5 -37.6317 -6.3736 2.3366 0.0000 61.9526 0.0000
# 6 0.0000 0.0000 0.0000 -7.2282 0.0000 21.8830
#
#
#
# Elastic Compliance Matrix: (Units=1/GPa)
#
#
# Indices 1 2 3 4 5 6 
#
# 1 0.008845 -0.001186 -0.001666 0.000000 0.005313 0.000000
# 2 -0.001186 0.016902 -0.004452 0.000000 0.001186 0.000000
# 3 -0.001666 -0.004452 0.008983 0.000000 -0.001809 0.000000
# 4 0.000000 0.000000 0.000000 0.030750 0.000000 0.010157
# 5 0.005313 0.001186 -0.001809 0.000000 0.019559 0.000000
# 6 0.000000 0.000000 0.000000 0.010157 0.000000 0.049053
#
#
# Mechanical properties :
#
#
# Convention : Reuss Voigt Hill
#
# Bulk Modulus (GPa) = 49.69932 58.39245 54.04589
# Shear Modulus (GPa) = 32.17346 41.30914 36.74130
#
# Velocity S-wave (km/s) = 3.43072 3.88740 3.66618
# Velocity P-wave (km/s) = 5.82017 6.44288 6.13942
#
# Compressibility (1/GPa) = 0.02012100
#
# Stress axis : x y z
#
# Youngs Moduli (GPa) = 113.06136 59.16628 111.31700
#
# Poissons Ratio (x) = 0.07017 0.18545
# Poissons Ratio (y) = 0.13408 0.49563
# Poissons Ratio (z) = 0.18836 0.26343
#
# Static dielectric constant tensor:
#      x y z
#    x 2.062470 0.000000 -0.115490 
#    y 0.000000 2.087230 0.000000 
#    z -0.115490 0.000000 2.237780 
# 
# From -- ./inp_files/175334.got.cif
#   From: 2010.05.17/outbox.cif.g08.bks.cpg/sg15_88_cif.got.tgz:175334.got - 2010.06.03 18:47:42.
