data_PCOD9299579
_publ_section_title
;
Structure prediction by ZEFSAII (Michael W. Deem and Ramdas Pophale) SiO2 
 PCOD9299579
Probable space group: C 2/C
;
_chemical_formula_sum "Si O2"
_cell_formula_units_Z 32
_cell_length_a 14.949804
_cell_length_b 17.456957
_cell_length_c 5.189813
_cell_angle_alpha 90.000000
_cell_angle_beta 61.135174
_cell_angle_gamma 90.000000
_cell_volume 1186.154816
_symmetry_space_group_name_H-M "C 2/C"
_symmetry_group_IT_number 15
_symmetry_cell_setting 'monoclinic'
loop_
_space_group_symop_operation_xyz
x,y,z
-x,y,1/2-z
-x,-y,-z
x,-y,1/2+z
1/2+x,1/2+y,z
1/2-x,1/2+y,1/2-z
1/2-x,1/2-y,-z
1/2+x,1/2-y,1/2+z
loop_
_atom_site_type_symbol
_atom_site_label
_atom_site_fract_x
_atom_site_fract_y
_atom_site_fract_z
Si Si1 0.620463 0.718113 0.896216
Si Si2 0.326980 0.163036 0.790888
Si Si3 0.218614 0.044758 0.297262
Si Si4 0.500000 0.404648 0.250000
Si Si5 0.000000 0.343880 0.750000
O O1 0.622695 0.757573 0.174886
O O2 0.551359 0.647931 0.900194
O O3 0.579273 0.788228 0.784457
O O4 0.735425 0.685945 0.726982
O O5 0.271048 0.119583 0.103764
O O6 0.576633 0.115221 0.948587
O O7 0.095542 0.053223 0.484299
O O8 0.246967 0.018994 0.544387
#
# Coordination Sequence:
#
# PCOD9299579 Si02
#       5
#     8   8   8   4   4
#     4  10  25  43  72 120 145 192 240 335 394 451
#     4  11  26  44  75 108 161 194 259 310 389 459
#     4  12  29  51  77 109 157 214 260 308 372 467
#     4  11  26  48  82 114 156 186 259 324 406 445
#     4  11  24  42  72 110 154 192 245 310 404 447
#
# _framework density 26.977927000000001
#
# number of rings (size 3 to 8) (size 9 to 14) (size 15 to 20)
#    0.000    1.000    0.000    3.750   24.500    2.000 
#    0.000    1.250    0.000    0.000    0.000    0.000 
#    0.000    0.000    0.000    0.000    0.000    0.000 
#
# Total GULP energy -89493.097305 kJ/mol
# GULP energy per Si atom -5593.318582 kJ/mol
# Density = 2.691652 g / cm^3
# Si number density = 26.977927 Si / 1000 Ang^3
#
#
#
# Elastic Constant Matrix: (Units=GPa)
#
#
# Indices 1 2 3 4 5 6 
#
# 1 152.6968 36.6798 79.8979 0.0000 0.6466 0.0000
# 2 36.6798 66.9624 42.6371 0.0000 -3.3888 0.0000
# 3 79.8979 42.6371 167.9546 0.0000 -47.2103 0.0000
# 4 0.0000 0.0000 0.0000 45.7510 0.0000 8.4617
# 5 0.6466 -3.3888 -47.2103 0.0000 55.3605 0.0000
# 6 0.0000 0.0000 0.0000 8.4617 0.0000 37.8084
#
#
#
# Elastic Compliance Matrix: (Units=1/GPa)
#
#
# Indices 1 2 3 4 5 6 
#
# 1 0.010051 -0.002158 -0.005660 0.000000 -0.005076 0.000000
# 2 -0.002158 0.018852 -0.004508 0.000000 -0.002665 0.000000
# 3 -0.005660 -0.004508 0.012800 0.000000 0.010706 0.000000
# 4 0.000000 0.000000 0.000000 0.022801 0.000000 -0.005103
# 5 -0.005076 -0.002665 0.010706 0.000000 0.027089 0.000000
# 6 0.000000 0.000000 0.000000 -0.005103 0.000000 0.027591
#
#
# Mechanical properties :
#
#
# Convention : Reuss Voigt Hill
#
# Bulk Modulus (GPa) = 58.65325 78.44929 68.55127
# Shear Modulus (GPa) = 33.44017 43.01058 38.22537
#
# Velocity S-wave (km/s) = 3.52453 3.99718 3.76827
# Velocity P-wave (km/s) = 6.19285 7.10250 6.66322
#
# Compressibility (1/GPa) = 0.01704935
#
# Stress axis : x y z
#
# Youngs Moduli (GPa) = 99.49732 53.04596 78.12252
#
# Poissons Ratio (x) = 0.11449 0.44219
# Poissons Ratio (y) = 0.21474 0.35219
# Poissons Ratio (z) = 0.56317 0.23914
#
# Static dielectric constant tensor:
#      x y z
#    x 2.036280 0.000000 0.002890 
#    y 0.000000 2.129280 0.000000 
#    z 0.002890 0.000000 2.293400 
# 
# From -- ./inp_files/4062.got.cif
#   From: 2010.05.17/outbox.cif.g08.bks.cpg/sg15_3_cif.got.tgz:4062.got - 2010.06.03 18:47:42.
