data_PCOD9299823
_publ_section_title
;
Structure prediction by ZEFSAII (Michael W. Deem and Ramdas Pophale) SiO2 
 PCOD9299823
Probable space group: C 2/C
;
_chemical_formula_sum "Si O2"
_cell_formula_units_Z 32
_cell_length_a 17.308516
_cell_length_b 7.566963
_cell_length_c 12.263593
_cell_angle_alpha 90.000000
_cell_angle_beta 53.197497
_cell_angle_gamma 90.000000
_cell_volume 1286.091367
_symmetry_space_group_name_H-M "C 2/C"
_symmetry_group_IT_number 15
_symmetry_cell_setting 'monoclinic'
loop_
_space_group_symop_operation_xyz
x,y,z
-x,y,1/2-z
-x,-y,-z
x,-y,1/2+z
1/2+x,1/2+y,z
1/2-x,1/2+y,1/2-z
1/2-x,1/2-y,-z
1/2+x,1/2-y,1/2+z
loop_
_atom_site_type_symbol
_atom_site_label
_atom_site_fract_x
_atom_site_fract_y
_atom_site_fract_z
Si Si1 0.875384 0.751725 0.621653
Si Si2 0.153092 0.147673 0.814205
Si Si3 0.549050 0.822939 0.103461
Si Si4 0.861674 0.690941 0.399548
O O1 0.769430 0.667253 0.717419
O O2 0.902990 0.784509 0.472295
O O3 0.954451 0.631681 0.612125
O O4 0.871368 0.942989 0.679211
O O5 0.112562 0.253637 0.744272
O O6 0.113567 0.215161 0.963647
O O7 0.500000 0.731098 0.250000
O O8 0.610321 0.987823 0.098601
O O9 0.750000 0.750000 0.500000
#
# Coordination Sequence:
#
# PCOD9299823 Si02
#       4
#     8   8   8   8
#     4  11  26  48  79 113 154 206 260 322 387 461
#     4  11  26  50  77 113 160 200 263 321 389 455
#     4  12  29  46  78 113 157 205 262 312 392 459
#     4  10  25  46  76 110 149 200 257 319 383 455
#
# _framework density 24.881589999999999
#
# number of rings (size 3 to 8) (size 9 to 14) (size 15 to 20)
#    0.000    1.000    0.000    4.500   17.500    1.000 
#    0.000    0.000    0.000    0.000    0.000    0.000 
#    0.000    0.000    0.000    0.000    0.000    0.000 
#
# Total GULP energy -89467.972830 kJ/mol
# GULP energy per Si atom -5591.748302 kJ/mol
# Density = 2.482496 g / cm^3
# Si number density = 24.881590 Si / 1000 Ang^3
#
#
#
# Elastic Constant Matrix: (Units=GPa)
#
#
# Indices 1 2 3 4 5 6 
#
# 1 150.0887 42.3374 98.3538 0.0000 8.2473 0.0000
# 2 42.3374 150.0810 92.3441 -0.0001 26.2532 0.0001
# 3 98.3538 92.3441 269.3012 0.0000 37.2666 0.0000
# 4 0.0000 -0.0001 0.0000 36.4993 0.0000 13.3965
# 5 8.2473 26.2532 37.2666 0.0000 74.0580 0.0000
# 6 0.0000 0.0001 0.0000 13.3965 0.0000 42.7307
#
#
#
# Elastic Compliance Matrix: (Units=1/GPa)
#
#
# Indices 1 2 3 4 5 6 
#
# 1 0.008854 -0.000739 -0.003096 0.000000 0.000834 0.000000
# 2 -0.000739 0.008699 -0.002470 0.000000 -0.001759 0.000000
# 3 -0.003096 -0.002470 0.005935 0.000000 -0.001766 0.000000
# 4 0.000000 0.000000 0.000000 0.030960 0.000000 -0.009706
# 5 0.000834 -0.001759 -0.001766 0.000000 0.014922 0.000000
# 6 0.000000 0.000000 0.000000 -0.009706 0.000000 0.026445
#
#
# Mechanical properties :
#
#
# Convention : Reuss Voigt Hill
#
# Bulk Modulus (GPa) = 91.91438 115.06017 103.48727
# Shear Modulus (GPa) = 44.62274 53.08664 48.85469
#
# Velocity S-wave (km/s) = 4.23945 4.62407 4.43593
# Velocity P-wave (km/s) = 7.80928 8.65175 8.24129
#
# Compressibility (1/GPa) = 0.01087969
#
# Stress axis : x y z
#
# Youngs Moduli (GPa) = 112.94455 114.96046 168.48670
#
# Poissons Ratio (x) = 0.08493 0.52158
# Poissons Ratio (y) = 0.08344 0.41610
# Poissons Ratio (z) = 0.34964 0.28391
#
# Static dielectric constant tensor:
#      x y z
#    x 1.967980 0.000000 -0.007570 
#    y 0.000000 1.936320 0.000000 
#    z -0.007570 0.000000 2.038940 
# 
# From -- ./inp_files/102394.got.cif
#   From: 2010.05.17/outbox.cif.g08.bks.cpg/sg15_52_cif.got.tgz:102394.got - 2010.06.03 18:47:42.
