data_PCOD9299807
_publ_section_title
;
Structure prediction by ZEFSAII (Michael W. Deem and Ramdas Pophale) SiO2 
 PCOD9299807
Probable space group: C 2/C
;
_chemical_formula_sum "Si O2"
_cell_formula_units_Z 32
_cell_length_a 16.275345
_cell_length_b 13.203510
_cell_length_c 10.950873
_cell_angle_alpha 90.000000
_cell_angle_beta 149.235782
_cell_angle_gamma 90.000000
_cell_volume 1203.703046
_symmetry_space_group_name_H-M "C 2/C"
_symmetry_group_IT_number 15
_symmetry_cell_setting 'monoclinic'
loop_
_space_group_symop_operation_xyz
x,y,z
-x,y,1/2-z
-x,-y,-z
x,-y,1/2+z
1/2+x,1/2+y,z
1/2-x,1/2+y,1/2-z
1/2-x,1/2-y,-z
1/2+x,1/2-y,1/2+z
loop_
_atom_site_type_symbol
_atom_site_label
_atom_site_fract_x
_atom_site_fract_y
_atom_site_fract_z
Si Si1 0.423919 0.216157 0.269526
Si Si2 0.498651 0.619306 0.472357
Si Si3 0.666133 0.077339 0.684230
Si Si4 0.327255 0.081782 0.533232
O O1 0.500000 0.164610 0.250000
O O2 0.508334 0.321793 0.410051
O O3 0.501355 0.143352 0.471488
O O4 0.250000 0.250000 0.000000
O O5 0.500000 0.500000 0.500000
O O6 0.672539 0.643741 0.636183
O O7 0.337189 0.643144 0.193416
O O8 0.687627 0.034540 0.848990
O O9 0.667380 0.997019 0.574086
O O10 0.500000 0.135413 0.750000
#
# Coordination Sequence:
#
# PCOD9299807 Si02
#       4
#     8   8   8   8
#     4  12  26  47  77 111 157 205 262 321 391 462
#     4  10  25  46  73 108 149 201 254 316 381 458
#     4  11  25  48  75 114 154 202 259 318 388 466
#     4  11  25  43  76 111 154 197 252 315 388 458
#
# _framework density 26.584631000000002
#
# number of rings (size 3 to 8) (size 9 to 14) (size 15 to 20)
#    0.000    1.000    2.500    2.250    7.000    9.000 
#    0.000    0.000    0.000    0.000    0.000    0.000 
#    0.000    0.000    0.000    0.000    0.000    0.000 
#
# Total GULP energy -89202.828672 kJ/mol
# GULP energy per Si atom -5575.176792 kJ/mol
# Density = 2.652412 g / cm^3
# Si number density = 26.584631 Si / 1000 Ang^3
#
#
#
# Elastic Constant Matrix: (Units=GPa)
#
#
# Indices 1 2 3 4 5 6 
#
# 1 124.6673 16.4359 69.1281 0.0000 -28.3748 0.0000
# 2 16.4359 53.0597 46.7062 0.0000 -14.0102 0.0000
# 3 69.1281 46.7062 272.0024 0.0000 25.0411 0.0000
# 4 0.0000 0.0000 0.0000 47.8107 0.0000 -6.6274
# 5 -28.3748 -14.0102 25.0411 0.0000 76.1417 0.0000
# 6 0.0000 0.0000 0.0000 -6.6274 0.0000 34.0982
#
#
#
# Elastic Compliance Matrix: (Units=1/GPa)
#
#
# Indices 1 2 3 4 5 6 
#
# 1 0.011068 0.001107 -0.003508 0.000000 0.005482 0.000000
# 2 0.001107 0.024803 -0.005154 0.000000 0.006671 0.000000
# 3 -0.003508 -0.005154 0.005837 0.000000 -0.004175 0.000000
# 4 0.000000 0.000000 0.000000 0.021495 0.000000 0.004178
# 5 0.005482 0.006671 -0.004175 0.000000 0.017777 0.000000
# 6 0.000000 0.000000 0.000000 0.004178 0.000000 0.030139
#
#
# Mechanical properties :
#
#
# Convention : Reuss Voigt Hill
#
# Bulk Modulus (GPa) = 37.59784 79.36332 58.48058
# Shear Modulus (GPa) = 37.01091 52.77406 44.89248
#
# Velocity S-wave (km/s) = 3.73526 4.46032 4.11379
# Velocity P-wave (km/s) = 5.72506 7.51291 6.67907
#
# Compressibility (1/GPa) = 0.02659728
#
# Stress axis : x y z
#
# Youngs Moduli (GPa) = 90.34988 40.31842 171.31181
#
# Poissons Ratio (x) = -0.04461 0.60089
# Poissons Ratio (y) = -0.09997 0.88299
# Poissons Ratio (z) = 0.31691 0.20781
#
# Static dielectric constant tensor:
#      x y z
#    x 2.136750 0.000000 0.030050 
#    y 0.000000 2.135710 0.000000 
#    z 0.030050 0.000000 2.182960 
# 
# From -- ./inp_files/105606.got.cif
#   From: 2010.05.17/outbox.cif.g08.bks.cpg/sg15_53_cif.got.tgz:105606.got - 2010.06.03 18:47:42.
