data_PCOD9299561
_publ_section_title
;
Structure prediction by ZEFSAII (Michael W. Deem and Ramdas Pophale) SiO2 
 PCOD9299561
Probable space group: C 2/C
;
_chemical_formula_sum "Si O2"
_cell_formula_units_Z 60
_cell_length_a 19.823982
_cell_length_b 17.787458
_cell_length_c 9.239481
_cell_angle_alpha 90.000000
_cell_angle_beta 62.320113
_cell_angle_gamma 90.000000
_cell_volume 2885.152384
_symmetry_space_group_name_H-M "C 2/C"
_symmetry_group_IT_number 15
_symmetry_cell_setting 'monoclinic'
loop_
_space_group_symop_operation_xyz
x,y,z
-x,y,1/2-z
-x,-y,-z
x,-y,1/2+z
1/2+x,1/2+y,z
1/2-x,1/2+y,1/2-z
1/2-x,1/2-y,-z
1/2+x,1/2-y,1/2+z
loop_
_atom_site_type_symbol
_atom_site_label
_atom_site_fract_x
_atom_site_fract_y
_atom_site_fract_z
Si Si1 0.909998 0.792164 0.692507
Si Si2 0.075125 0.039368 0.369019
Si Si3 0.182677 0.009446 0.009242
Si Si4 0.794551 0.818394 0.036818
Si Si5 0.076217 0.546085 0.468426
Si Si6 0.210199 0.718855 0.897873
Si Si7 0.500000 0.165960 0.750000
Si Si8 0.336347 0.070730 0.419349
O O1 0.942529 0.871799 0.612330
O O2 0.843527 0.773226 0.643401
O O3 0.960236 0.719217 0.670529
O O4 0.877301 0.807426 0.886921
O O5 0.106596 0.014395 0.182042
O O6 0.148821 0.016749 0.390722
O O7 0.000000 0.000000 0.500000
O O8 0.221237 0.093010 0.976641
O O9 0.247929 0.950978 0.986832
O O10 0.776351 0.806900 0.221780
O O11 0.750000 0.750000 0.000000
O O12 0.120152 0.570392 0.278281
O O13 0.127779 0.490313 0.510157
O O14 0.000000 0.500000 0.500000
O O15 0.055095 0.613061 0.600037
O O16 0.250000 0.750000 0.000000
O O17 0.159737 0.649546 0.002504
#
# Coordination Sequence:
#
# PCOD9299561 Si02
#       8
#     8   8   8   8   8   8   4   8
#     4  10  25  43  68  96 136 184 234 280 354 425
#     4  11  24  44  69  98 134 177 236 286 349 406
#     4  11  23  42  66 101 130 177 229 284 341 415
#     4   9  21  39  66  95 136 174 227 279 348 419
#     4  12  25  45  69 103 139 186 231 286 346 427
#     4  11  23  41  66 102 139 173 224 292 351 411
#     4  12  26  44  72  98 142 184 242 276 356 440
#     4  12  25  42  71  99 140 179 231 284 349 413
#
# _framework density 20.796129000000001
#
# number of rings (size 3 to 8) (size 9 to 14) (size 15 to 20)
#    0.000    1.067    1.333    4.400    9.333    1.067 
#    0.000    2.667    0.000    0.000    0.000    0.000 
#    0.000    0.000    0.000    0.000    0.000    0.000 
#
# Total GULP energy -167420.977572 kJ/mol
# GULP energy per Si atom -5580.699252 kJ/mol
# Density = 2.074880 g / cm^3
# Si number density = 20.796129 Si / 1000 Ang^3
#
#
#
# Elastic Constant Matrix: (Units=GPa)
#
#
# Indices 1 2 3 4 5 6 
#
# 1 73.0173 17.2854 16.8217 0.0000 4.2972 0.0000
# 2 17.2854 107.2659 53.6986 0.0000 -8.9105 0.0000
# 3 16.8217 53.6986 148.7630 0.0000 5.5327 0.0000
# 4 0.0000 0.0000 0.0000 34.0113 0.0000 -2.0074
# 5 4.2972 -8.9105 5.5327 0.0000 28.4438 0.0000
# 6 0.0000 0.0000 0.0000 -2.0074 0.0000 38.5528
#
#
#
# Elastic Compliance Matrix: (Units=1/GPa)
#
#
# Indices 1 2 3 4 5 6 
#
# 1 0.014550 -0.002197 -0.000750 0.000000 -0.002740 0.000000
# 2 -0.002197 0.012283 -0.004373 0.000000 0.005030 0.000000
# 3 -0.000750 -0.004373 0.008494 0.000000 -0.002909 0.000000
# 4 0.000000 0.000000 0.000000 0.029493 0.000000 0.001536
# 5 -0.002740 0.005030 -0.002909 0.000000 0.037713 0.000000
# 6 0.000000 0.000000 0.000000 0.001536 0.000000 0.026018
#
#
# Mechanical properties :
#
#
# Convention : Reuss Voigt Hill
#
# Bulk Modulus (GPa) = 48.33891 56.07308 52.20599
# Shear Modulus (GPa) = 33.31442 36.28427 34.79935
#
# Velocity S-wave (km/s) = 4.00678 4.18157 4.09511
# Velocity P-wave (km/s) = 6.68583 7.09477 6.89333
#
# Compressibility (1/GPa) = 0.02068727
#
# Stress axis : x y z
#
# Youngs Moduli (GPa) = 68.73081 81.41036 117.73703
#
# Poissons Ratio (x) = 0.17882 0.08835
# Poissons Ratio (y) = 0.15097 0.51482
# Poissons Ratio (z) = 0.05158 0.35598
#
# Static dielectric constant tensor:
#      x y z
#    x 1.751000 0.000000 0.012370 
#    y 0.000000 1.783700 0.000000 
#    z 0.012370 0.000000 1.752800 
# 
# From -- ./inp_files/57006.got.cif
#   From: 2010.05.17/outbox.cif.g08.bks.cpg/sg15_29_cif.got.tgz:57006.got - 2010.06.03 18:47:42.
