data_PCOD9299395
_publ_section_title
;
Structure prediction by ZEFSAII (Michael W. Deem and Ramdas Pophale) SiO2 
 PCOD9299395
Probable space group: C 2/C
;
_chemical_formula_sum "Si O2"
_cell_formula_units_Z 52
_cell_length_a 31.070028
_cell_length_b 11.058441
_cell_length_c 7.930266
_cell_angle_alpha 90.000000
_cell_angle_beta 59.913716
_cell_angle_gamma 90.000000
_cell_volume 2357.630167
_symmetry_space_group_name_H-M "C 2/C"
_symmetry_group_IT_number 15
_symmetry_cell_setting 'monoclinic'
loop_
_space_group_symop_operation_xyz
x,y,z
-x,y,1/2-z
-x,-y,-z
x,-y,1/2+z
1/2+x,1/2+y,z
1/2-x,1/2+y,1/2-z
1/2-x,1/2-y,-z
1/2+x,1/2-y,1/2+z
loop_
_atom_site_type_symbol
_atom_site_label
_atom_site_fract_x
_atom_site_fract_y
_atom_site_fract_z
Si Si1 0.667889 0.505185 0.191788
Si Si2 0.184463 0.246052 0.964380
Si Si3 0.735540 0.606583 0.337995
Si Si4 0.328282 0.081131 0.685937
Si Si5 0.065271 0.131729 0.845561
Si Si6 0.126676 0.644112 0.261401
Si Si7 0.000000 0.982346 0.750000
O O1 0.689564 0.574953 0.308473
O O2 0.614508 0.444471 0.297903
O O3 0.671598 0.611549 0.044944
O O4 0.709184 0.402509 0.069136
O O5 0.239375 0.274187 0.785059
O O6 0.149863 0.287904 0.878593
O O7 0.179447 0.328791 0.141969
O O8 0.780007 0.506726 0.256773
O O9 0.342175 0.135995 0.475803
O O10 0.372613 0.992438 0.667419
O O11 0.079595 0.272325 0.809383
O O12 0.044563 0.070653 0.717431
O O13 0.021537 0.102964 0.062732
#
# Coordination Sequence:
#
# PCOD9299395 Si02
#       7
#     8   8   8   8   8   8   4
#     4  12  24  38  62 101 130 177 243 274 321 407
#     4  11  23  41  60  93 146 193 225 281 316 372
#     4  11  21  37  55  91 142 182 225 272 312 363
#     4  11  22  41  64  95 142 196 222 265 325 378
#     4  11  25  45  72 102 125 173 220 288 353 421
#     4  11  22  42  69 100 129 179 235 264 330 409
#     4  10  24  50  70  98 138 156 212 294 384 402
#
# _framework density 22.056047
#
# number of rings (size 3 to 8) (size 9 to 14) (size 15 to 20)
#    0.000    0.923    4.615    4.154    4.308    0.000 
#    0.000    3.846    0.000    2.769    0.000    0.000 
#    0.000    0.000    0.000    0.000    0.000    0.000 
#
# Total GULP energy -145161.069863 kJ/mol
# GULP energy per Si atom -5583.118072 kJ/mol
# Density = 2.200585 g / cm^3
# Si number density = 22.056047 Si / 1000 Ang^3
#
#
#
# Elastic Constant Matrix: (Units=GPa)
#
#
# Indices 1 2 3 4 5 6 
#
# 1 76.1901 23.9147 9.4394 0.0000 5.9271 0.0000
# 2 23.9147 101.8915 35.1050 0.0000 0.3015 0.0000
# 3 9.4394 35.1050 74.6263 0.0000 17.6910 0.0000
# 4 0.0000 0.0000 0.0000 30.7780 0.0000 10.2896
# 5 5.9271 0.3015 17.6910 0.0000 33.2464 0.0000
# 6 0.0000 0.0000 0.0000 10.2896 0.0000 39.2568
#
#
#
# Elastic Compliance Matrix: (Units=1/GPa)
#
#
# Indices 1 2 3 4 5 6 
#
# 1 0.014393 -0.003547 0.000513 0.000000 -0.002807 0.000000
# 2 -0.003547 0.012898 -0.006570 0.000000 0.004011 0.000000
# 3 0.000513 -0.006570 0.018806 0.000000 -0.010039 0.000000
# 4 0.000000 0.000000 0.000000 0.035611 0.000000 -0.009334
# 5 -0.002807 0.004011 -0.010039 0.000000 0.035884 0.000000
# 6 0.000000 0.000000 0.000000 -0.009334 0.000000 0.027920
#
#
# Mechanical properties :
#
#
# Convention : Reuss Voigt Hill
#
# Bulk Modulus (GPa) = 37.18798 43.29179 40.23988
# Shear Modulus (GPa) = 28.78814 32.93947 30.86381
#
# Velocity S-wave (km/s) = 3.61671 3.86870 3.74483
# Velocity P-wave (km/s) = 5.85987 6.29496 6.08131
#
# Compressibility (1/GPa) = 0.02689041
#
# Stress axis : x y z
#
# Youngs Moduli (GPa) = 69.47777 77.52852 53.17589
#
# Poissons Ratio (x) = 0.27497 -0.02729
# Poissons Ratio (y) = 0.24642 0.34936
# Poissons Ratio (z) = -0.03566 0.50935
#
# Static dielectric constant tensor:
#      x y z
#    x 1.838340 0.000000 0.054220 
#    y 0.000000 1.898340 0.000000 
#    z 0.054220 0.000000 1.872610 
# 
# From -- ./inp_files/69002.got.cif
#   From: 2010.05.17/outbox.cif.g08.bks.cpg/sg15_35_cif.got.tgz:69002.got - 2010.06.03 18:47:42.
