data_PCOD9299573
_publ_section_title
;
Structure prediction by ZEFSAII (Michael W. Deem and Ramdas Pophale) SiO2 
 PCOD9299573
Probable space group: C 2/C
;
_chemical_formula_sum "Si O2"
_cell_formula_units_Z 48
_cell_length_a 5.341628
_cell_length_b 22.711913
_cell_length_c 16.265310
_cell_angle_alpha 90.000000
_cell_angle_beta 104.541578
_cell_angle_gamma 90.000000
_cell_volume 1910.071678
_symmetry_space_group_name_H-M "C 2/C"
_symmetry_group_IT_number 15
_symmetry_cell_setting 'monoclinic'
loop_
_space_group_symop_operation_xyz
x,y,z
-x,y,1/2-z
-x,-y,-z
x,-y,1/2+z
1/2+x,1/2+y,z
1/2-x,1/2+y,1/2-z
1/2-x,1/2-y,-z
1/2+x,1/2-y,1/2+z
loop_
_atom_site_type_symbol
_atom_site_label
_atom_site_fract_x
_atom_site_fract_y
_atom_site_fract_z
Si Si1 0.690102 0.076684 0.439031
Si Si2 0.000904 0.099215 0.877669
Si Si3 0.893802 0.164926 0.327624
Si Si4 0.717328 0.272747 0.374565
Si Si5 0.483250 0.034895 0.837827
Si Si6 0.399920 0.184294 0.469072
O O1 0.926645 0.082922 0.521918
O O2 0.738730 0.113118 0.359154
O O3 0.481409 0.116668 0.467747
O O4 0.589671 0.012357 0.411464
O O5 0.058998 0.166834 0.859443
O O6 0.204241 0.059684 0.841583
O O7 0.700589 0.084990 0.844070
O O8 0.763001 0.228855 0.302489
O O9 0.000000 0.143534 0.250000
O O10 0.111398 0.181829 0.412772
O O11 0.567057 0.227357 0.423429
O O12 0.994484 0.294975 0.434419
O O13 0.500000 0.004474 0.750000
#
# Coordination Sequence:
#
# PCOD9299573 Si02
#       6
#     8   8   8   8   8   8
#     4  10  25  43  71 100 138 182 242 293 344 424
#     4  11  26  47  74 104 138 194 238 280 351 430
#     4  11  24  38  69 106 139 181 226 296 360 410
#     4   9  21  41  65  96 135 177 228 284 334 429
#     4  12  28  47  71 103 142 184 239 300 355 409
#     4   9  20  40  67  97 128 179 228 279 352 410
#
# _framework density 25.129949
#
# number of rings (size 3 to 8) (size 9 to 14) (size 15 to 20)
#    0.000    1.667    0.000    3.000   11.667    2.667 
#    3.000    0.000    0.000    0.000    0.000    0.000 
#    0.000    0.000    0.000    0.000    0.000    0.000 
#
# Total GULP energy -134086.349233 kJ/mol
# GULP energy per Si atom -5586.931218 kJ/mol
# Density = 2.507275 g / cm^3
# Si number density = 25.129949 Si / 1000 Ang^3
#
#
#
# Elastic Constant Matrix: (Units=GPa)
#
#
# Indices 1 2 3 4 5 6 
#
# 1 78.3893 16.2297 25.2143 0.0000 10.9171 0.0000
# 2 16.2297 79.3552 17.2464 0.0000 4.4310 0.0000
# 3 25.2143 17.2464 65.9569 0.0000 -10.1451 0.0000
# 4 0.0000 0.0000 0.0000 40.8014 0.0000 3.9803
# 5 10.9171 4.4310 -10.1451 0.0000 50.5433 0.0000
# 6 0.0000 0.0000 0.0000 3.9803 0.0000 19.3524
#
#
#
# Elastic Compliance Matrix: (Units=1/GPa)
#
#
# Indices 1 2 3 4 5 6 
#
# 1 0.015743 -0.001599 -0.006296 0.000000 -0.004524 0.000000
# 2 -0.001599 0.013709 -0.003204 0.000000 -0.001500 0.000000
# 3 -0.006296 -0.003204 0.019253 0.000000 0.005505 0.000000
# 4 0.000000 0.000000 0.000000 0.025011 0.000000 -0.005144
# 5 -0.004524 -0.001500 0.005505 0.000000 0.021999 0.000000
# 6 0.000000 0.000000 0.000000 -0.005144 0.000000 0.052731
#
#
# Mechanical properties :
#
#
# Convention : Reuss Voigt Hill
#
# Bulk Modulus (GPa) = 37.72625 37.89802 37.81214
# Shear Modulus (GPa) = 27.85846 33.14016 30.49931
#
# Velocity S-wave (km/s) = 3.33314 3.63540 3.48755
# Velocity P-wave (km/s) = 5.46426 5.72146 5.59434
#
# Compressibility (1/GPa) = 0.02650674
#
# Stress axis : x y z
#
# Youngs Moduli (GPa) = 63.51995 72.94681 51.94025
#
# Poissons Ratio (x) = 0.11663 0.32702
# Poissons Ratio (y) = 0.10156 0.16642
# Poissons Ratio (z) = 0.39993 0.23372
#
# Static dielectric constant tensor:
#      x y z
#    x 2.021930 0.000000 0.022050 
#    y 0.000000 1.937120 0.000000 
#    z 0.022050 0.000000 2.088530 
# 
# From -- ./inp_files/185247.got.cif
#   From: 2010.05.17/outbox.cif.g08.bks.cpg/sg15_93_cif.got.tgz:185247.got - 2010.06.03 18:47:42.
