data_PCOD9299092
_publ_section_title
;
Structure prediction by ZEFSAII (Michael W. Deem and Ramdas Pophale) SiO2 
 PCOD9299092
Probable space group: C 2/C
;
_chemical_formula_sum "Si O2"
_cell_formula_units_Z 56
_cell_length_a 14.052280
_cell_length_b 11.580649
_cell_length_c 18.109672
_cell_angle_alpha 90.000000
_cell_angle_beta 136.826386
_cell_angle_gamma 90.000000
_cell_volume 2016.417869
_symmetry_space_group_name_H-M "C 2/C"
_symmetry_group_IT_number 15
_symmetry_cell_setting 'monoclinic'
loop_
_space_group_symop_operation_xyz
x,y,z
-x,y,1/2-z
-x,-y,-z
x,-y,1/2+z
1/2+x,1/2+y,z
1/2-x,1/2+y,1/2-z
1/2-x,1/2-y,-z
1/2+x,1/2-y,1/2+z
loop_
_atom_site_type_symbol
_atom_site_label
_atom_site_fract_x
_atom_site_fract_y
_atom_site_fract_z
Si Si1 0.003860 0.943975 0.594190
Si Si2 0.000000 0.828303 0.750000
Si Si3 0.211893 0.320887 0.790026
Si Si4 0.773220 0.857696 0.102498
Si Si5 0.932747 0.548420 0.538696
Si Si6 0.211846 0.226226 0.561984
Si Si7 0.000000 0.521652 0.250000
Si Si8 0.522284 0.294610 0.403438
O O1 0.145805 0.880047 0.650633
O O2 0.987414 0.920102 0.413808
O O3 0.990532 0.908467 0.672781
O O4 0.862198 0.896044 0.476888
O O5 0.859275 0.751950 0.683873
O O6 0.216575 0.181021 0.807344
O O7 0.132915 0.395881 0.808364
O O8 0.093163 0.306095 0.660473
O O9 0.912145 0.826057 0.138828
O O10 0.655829 0.763696 0.015689
O O11 0.714547 0.980609 0.047652
O O12 0.911270 0.680544 0.503269
O O13 0.979472 0.535999 0.653771
O O14 0.000000 0.500000 0.500000
O O15 0.250000 0.250000 0.500000
#
# Coordination Sequence:
#
# PCOD9299092 Si02
#       8
#     8   4   8   8   8   8   4   8
#     4  11  27  45  75 118 159 218 282 349 425 513
#     4  10  24  46  80 102 162 218 274 346 418 522
#     4  12  25  45  76 118 165 216 285 348 432 504
#     4  11  22  46  79 110 154 224 280 365 413 507
#     4  12  27  47  83 119 170 221 289 356 436 515
#     4  10  24  49  72 117 162 219 279 343 430 515
#     4  12  26  52  76 122 172 222 290 360 426 508
#     4  11  24  47  76 113 159 218 285 353 427 501
#
# _framework density 27.772020999999999
#
# number of rings (size 3 to 8) (size 9 to 14) (size 15 to 20)
#    0.000    0.857    2.857    3.429    6.000    5.143 
#    0.000    1.429    0.000    0.000    0.000    0.000 
#    0.000    0.000    0.000    0.000    0.000    0.000 
#
# Total GULP energy -156298.117110 kJ/mol
# GULP energy per Si atom -5582.075611 kJ/mol
# Density = 2.770881 g / cm^3
# Si number density = 27.772021 Si / 1000 Ang^3
#
#
#
# Elastic Constant Matrix: (Units=GPa)
#
#
# Indices 1 2 3 4 5 6 
#
# 1 161.1138 34.9119 46.8630 0.0000 5.4975 0.0000
# 2 34.9119 86.9890 31.1234 0.0000 12.2403 0.0000
# 3 46.8630 31.1234 113.7810 0.0000 -5.4954 0.0000
# 4 0.0000 0.0000 0.0000 42.4170 0.0000 9.1947
# 5 5.4975 12.2403 -5.4954 0.0000 57.1394 0.0000
# 6 0.0000 0.0000 0.0000 9.1947 0.0000 35.9856
#
#
#
# Elastic Compliance Matrix: (Units=1/GPa)
#
#
# Indices 1 2 3 4 5 6 
#
# 1 0.007390 -0.001988 -0.002525 0.000000 -0.000528 0.000000
# 2 -0.001988 0.013841 -0.003116 0.000000 -0.003073 0.000000
# 3 -0.002525 -0.003116 0.010775 0.000000 0.001947 0.000000
# 4 0.000000 0.000000 0.000000 0.024958 0.000000 -0.006377
# 5 -0.000528 -0.003073 0.001947 0.000000 0.018397 0.000000
# 6 0.000000 0.000000 0.000000 -0.006377 0.000000 0.029418
#
#
# Mechanical properties :
#
#
# Convention : Reuss Voigt Hill
#
# Bulk Modulus (GPa) = 59.70897 65.29783 62.50340
# Shear Modulus (GPa) = 39.80237 43.70742 41.75490
#
# Velocity S-wave (km/s) = 3.78985 3.97141 3.88169
# Velocity P-wave (km/s) = 6.37942 6.67777 6.53030
#
# Compressibility (1/GPa) = 0.01674790
#
# Stress axis : x y z
#
# Youngs Moduli (GPa) = 135.31439 72.25037 92.80540
#
# Poissons Ratio (x) = 0.14364 0.23438
# Poissons Ratio (y) = 0.26902 0.28914
# Poissons Ratio (z) = 0.34173 0.22510
#
# Static dielectric constant tensor:
#      x y z
#    x 2.020330 0.000000 -0.145770 
#    y 0.000000 2.225780 0.000000 
#    z -0.145770 0.000000 2.265700 
# 
# From -- ./inp_files/205512.got.cif
#   From: 2010.05.17/outbox.cif.g08.bks.cpg/sg15_103_cif.got.tgz:205512.got - 2010.06.03 18:47:42.
