data_PCOD9299458
_publ_section_title
;
Structure prediction by ZEFSAII (Michael W. Deem and Ramdas Pophale) SiO2 
 PCOD9299458
Probable space group: C 2/C
;
_chemical_formula_sum "Si O2"
_cell_formula_units_Z 56
_cell_length_a 16.325193
_cell_length_b 9.063398
_cell_length_c 22.352397
_cell_angle_alpha 90.000000
_cell_angle_beta 116.285533
_cell_angle_gamma 90.000000
_cell_volume 2965.318708
_symmetry_space_group_name_H-M "C 2/C"
_symmetry_group_IT_number 15
_symmetry_cell_setting 'monoclinic'
loop_
_space_group_symop_operation_xyz
x,y,z
-x,y,1/2-z
-x,-y,-z
x,-y,1/2+z
1/2+x,1/2+y,z
1/2-x,1/2+y,1/2-z
1/2-x,1/2-y,-z
1/2+x,1/2-y,1/2+z
loop_
_atom_site_type_symbol
_atom_site_label
_atom_site_fract_x
_atom_site_fract_y
_atom_site_fract_z
Si Si1 0.282362 0.047374 0.128200
Si Si2 0.581011 0.093927 0.735625
Si Si3 0.498385 0.209167 0.008333
Si Si4 0.830854 0.163641 0.994547
Si Si5 0.374117 0.283721 0.863747
Si Si6 0.020207 0.037792 0.907064
Si Si7 0.534739 0.146664 0.372809
O O1 0.224584 0.171745 0.143713
O O2 0.361236 0.110262 0.110453
O O3 0.337490 0.953246 0.194804
O O4 0.213224 0.946711 0.067974
O O5 0.500000 0.164015 0.750000
O O6 0.618707 0.195726 0.695328
O O7 0.531992 0.951195 0.689436
O O8 0.425995 0.192491 0.932393
O O9 0.515688 0.887691 0.936941
O O10 0.599293 0.221994 0.014148
O O11 0.480584 0.371841 0.030865
O O12 0.750000 0.250000 0.000000
O O13 0.892005 0.068321 0.060843
O O14 0.432761 0.433808 0.873714
O O15 0.020899 0.176420 0.862064
#
# Coordination Sequence:
#
# PCOD9299458 Si02
#       7
#     8   8   8   8   8   8   8
#     4  11  21  40  60  85 126 159 196 250 302 359
#     4  10  25  41  58  82 122 168 200 242 303 360
#     4   9  19  39  63  86 119 154 189 244 313 347
#     4  11  21  35  62  94 121 151 199 251 299 356
#     4  11  20  39  66  86 115 156 207 245 294 361
#     4   9  19  40  62  86 118 156 187 246 307 349
#     4   9  21  40  59  86 125 154 190 243 309 357
#
# _framework density 18.884985
#
# number of rings (size 3 to 8) (size 9 to 14) (size 15 to 20)
#    0.857    1.143    2.857    0.857    8.000    5.143 
#    2.571    3.571    0.000    0.000    0.000    0.000 
#    0.000    0.000    0.000    0.000    0.000    0.000 
#
# Total GULP energy -156059.796864 kJ/mol
# GULP energy per Si atom -5573.564174 kJ/mol
# Density = 1.884200 g / cm^3
# Si number density = 18.884985 Si / 1000 Ang^3
#
#
#
# Elastic Constant Matrix: (Units=GPa)
#
#
# Indices 1 2 3 4 5 6 
#
# 1 115.6082 31.9953 8.5108 0.0000 -1.4164 0.0000
# 2 31.9953 58.3633 6.2911 0.0000 -5.5866 0.0000
# 3 8.5108 6.2911 22.4039 0.0000 -4.5644 0.0000
# 4 0.0000 0.0000 0.0000 11.0177 0.0000 -22.9318
# 5 -1.4164 -5.5866 -4.5644 0.0000 30.0290 0.0000
# 6 0.0000 0.0000 0.0000 -22.9318 0.0000 28.9415
#
#
#
# Elastic Compliance Matrix: (Units=1/GPa)
#
#
# Indices 1 2 3 4 5 6 
#
# 1 0.010346 -0.005482 -0.002579 0.000000 -0.000924 0.000000
# 2 -0.005482 0.020775 -0.003113 0.000000 0.003133 0.000000
# 3 -0.002579 -0.003113 0.047827 0.000000 0.006569 0.000000
# 4 0.000000 0.000000 0.000000 -0.139815 0.000000 -0.110783
# 5 -0.000924 0.003133 0.006569 0.000000 0.034839 0.000000
# 6 0.000000 0.000000 0.000000 -0.110783 0.000000 -0.053226
#
#
# Mechanical properties :
#
#
# Convention : Reuss Voigt Hill
#
# Bulk Modulus (GPa) = 17.66783 32.21887 24.94335
# Shear Modulus (GPa) = -131.43774 23.96953 -53.73410
#
# Velocity S-wave (km/s) = -8.35166 3.56650 -5.33995
# Velocity P-wave (km/s) = 9.14464 5.83588 4.97830
#
# Compressibility (1/GPa) = 0.05660006
#
# Stress axis : x y z
#
# Youngs Moduli (GPa) = 96.65921 48.13527 20.90861
#
# Poissons Ratio (x) = 0.26388 0.05392
# Poissons Ratio (y) = 0.52989 0.06508
# Poissons Ratio (z) = 0.24928 0.14984
#
# Static dielectric constant tensor:
#      x y z
#    x 1.652800 0.000000 -0.026150 
#    y 0.000000 1.681970 0.000000 
#    z -0.026150 0.000000 1.640920 
# 
# From -- ./inp_files/273258.got.cif
#   From: 2010.05.17/outbox.cif.g08.bks.cpg/sg15_137_cif.got.tgz:273258.got - 2010.06.03 18:47:42.
