data_PCOD9299611
_publ_section_title
;
Structure prediction by ZEFSAII (Michael W. Deem and Ramdas Pophale) SiO2 
 PCOD9299611
Probable space group: C 2/C
;
_chemical_formula_sum "Si O2"
_cell_formula_units_Z 24
_cell_length_a 7.210104
_cell_length_b 12.194019
_cell_length_c 11.444593
_cell_angle_alpha 90.000000
_cell_angle_beta 93.141326
_cell_angle_gamma 90.000000
_cell_volume 1004.698351
_symmetry_space_group_name_H-M "C 2/C"
_symmetry_group_IT_number 15
_symmetry_cell_setting 'monoclinic'
loop_
_space_group_symop_operation_xyz
x,y,z
-x,y,1/2-z
-x,-y,-z
x,-y,1/2+z
1/2+x,1/2+y,z
1/2-x,1/2+y,1/2-z
1/2-x,1/2-y,-z
1/2+x,1/2-y,1/2+z
loop_
_atom_site_type_symbol
_atom_site_label
_atom_site_fract_x
_atom_site_fract_y
_atom_site_fract_z
Si Si1 0.827437 0.355496 0.436213
Si Si2 0.810364 0.235914 0.803685
Si Si3 0.742252 0.403510 0.985164
O O1 0.750000 0.250000 0.500000
O O2 0.801896 0.327656 0.299369
O O3 0.724442 0.467756 0.468061
O O4 0.041255 0.377107 0.477242
O O5 0.706385 0.335592 0.865107
O O6 0.000000 0.277285 0.750000
O O7 0.859898 0.150459 0.908462
#
# Coordination Sequence:
#
# PCOD9299611 Si02
#       3
#     8   8   8
#     4  11  23  43  71  95 135 183 228 276 348 403
#     4  11  23  43  66  99 138 174 229 286 335 404
#     4  10  25  44  67  99 136 180 226 281 344 404
#
# _framework density 23.887767
#
# number of rings (size 3 to 8) (size 9 to 14) (size 15 to 20)
#    0.000    1.333    3.333    1.000    4.667    1.333 
#    0.000    0.000    0.000    0.000    0.000    0.000 
#    0.000    0.000    0.000    0.000    0.000    0.000 
#
# Total GULP energy -67204.179343 kJ/mol
# GULP energy per Si atom -5600.348279 kJ/mol
# Density = 2.383340 g / cm^3
# Si number density = 23.887767 Si / 1000 Ang^3
#
#
#
# Elastic Constant Matrix: (Units=GPa)
#
#
# Indices 1 2 3 4 5 6 
#
# 1 44.9142 17.9069 13.9721 0.0000 2.9002 0.0000
# 2 17.9069 226.2155 84.9178 0.0000 -3.4649 0.0000
# 3 13.9721 84.9178 163.2787 0.0000 -13.8715 0.0000
# 4 0.0000 0.0000 0.0000 25.5859 0.0000 4.5601
# 5 2.9002 -3.4649 -13.8715 0.0000 37.0093 0.0000
# 6 0.0000 0.0000 0.0000 4.5601 0.0000 32.8535
#
#
#
# Elastic Compliance Matrix: (Units=1/GPa)
#
#
# Indices 1 2 3 4 5 6 
#
# 1 0.023431 -0.001317 -0.001535 0.000000 -0.002535 0.000000
# 2 -0.001317 0.005579 -0.002826 0.000000 -0.000434 0.000000
# 3 -0.001535 -0.002826 0.007967 0.000000 0.002842 0.000000
# 4 0.000000 0.000000 0.000000 0.040075 0.000000 -0.005562
# 5 -0.002535 -0.000434 0.002842 0.000000 0.028243 0.000000
# 6 0.000000 0.000000 0.000000 -0.005562 0.000000 0.031210
#
#
# Mechanical properties :
#
#
# Convention : Reuss Voigt Hill
#
# Bulk Modulus (GPa) = 39.03121 74.22245 56.62683
# Shear Modulus (GPa) = 31.96883 40.26385 36.11634
#
# Velocity S-wave (km/s) = 3.66224 4.10999 3.89256
# Velocity P-wave (km/s) = 5.85299 7.32540 6.63020
#
# Compressibility (1/GPa) = 0.02562052
#
# Stress axis : x y z
#
# Youngs Moduli (GPa) = 42.67826 179.24784 125.52058
#
# Poissons Ratio (x) = 0.23612 0.19271
# Poissons Ratio (y) = 0.05622 0.35467
# Poissons Ratio (z) = 0.06552 0.50648
#
# Static dielectric constant tensor:
#      x y z
#    x 2.025700 0.000000 0.009690 
#    y 0.000000 1.864910 0.000000 
#    z 0.009690 0.000000 1.901890 
# 
# From -- ./inp_files/74763.got.cif
#   From: 2010.05.17/outbox.cif.g08.bks.cpg/sg15_38_cif.got.tgz:74763.got - 2010.06.03 18:47:42.
