data_PCOD9299706
_publ_section_title
;
Structure prediction by ZEFSAII (Michael W. Deem and Ramdas Pophale) SiO2 
 PCOD9299706
Probable space group: C 2/C
;
_chemical_formula_sum "Si O2"
_cell_formula_units_Z 56
_cell_length_a 11.989452
_cell_length_b 22.759747
_cell_length_c 12.329724
_cell_angle_alpha 90.000000
_cell_angle_beta 44.656318
_cell_angle_gamma 90.000000
_cell_volume 2364.745279
_symmetry_space_group_name_H-M "C 2/C"
_symmetry_group_IT_number 15
_symmetry_cell_setting 'monoclinic'
loop_
_space_group_symop_operation_xyz
x,y,z
-x,y,1/2-z
-x,-y,-z
x,-y,1/2+z
1/2+x,1/2+y,z
1/2-x,1/2+y,1/2-z
1/2-x,1/2-y,-z
1/2+x,1/2-y,1/2+z
loop_
_atom_site_type_symbol
_atom_site_label
_atom_site_fract_x
_atom_site_fract_y
_atom_site_fract_z
Si Si1 0.895493 0.543566 0.720383
Si Si2 0.307122 0.254960 0.201906
Si Si3 0.538374 0.570924 0.036202
Si Si4 0.407250 0.451536 0.409069
Si Si5 0.489433 0.697122 0.376632
Si Si6 0.577465 0.931989 0.547590
Si Si7 0.854459 0.299605 0.988698
O O1 0.713708 0.558221 0.868807
O O2 0.936853 0.569430 0.573275
O O3 0.000000 0.565615 0.750000
O O4 0.932508 0.473364 0.685001
O O5 0.165381 0.208169 0.300711
O O6 0.234852 0.303658 0.332490
O O7 0.356902 0.276816 0.048240
O O8 0.470413 0.227758 0.129882
O O9 0.422269 0.580512 0.013813
O O10 0.500241 0.512250 0.128808
O O11 0.542118 0.628387 0.104708
O O12 0.500000 0.417906 0.250000
O O13 0.235499 0.465550 0.479514
O O14 0.500000 0.723927 0.250000
O O15 0.613771 0.866826 0.567503
O O16 0.750000 0.250000 0.000000
#
# Coordination Sequence:
#
# PCOD9299706 Si02
#       7
#     8   8   8   8   8   8   8
#     4  11  23  44  66 104 148 188 248 297 378 456
#     4  10  25  45  69 107 140 190 255 304 371 451
#     4  11  24  41  67 103 139 191 240 301 372 448
#     4  11  23  40  64  98 141 183 242 296 369 448
#     4  11  24  47  74 100 145 192 251 311 374 444
#     4  11  25  42  71 101 147 196 242 307 373 448
#     4  11  25  45  72 109 148 196 248 312 381 453
#
# _framework density 23.681197000000001
#
# number of rings (size 3 to 8) (size 9 to 14) (size 15 to 20)
#    0.000    1.143    2.857    2.143    4.000    4.571 
#    0.000    3.571    0.000    0.000    0.000    0.000 
#    0.000    0.000    0.000    0.000    0.000    0.000 
#
# Total GULP energy -156365.261507 kJ/mol
# GULP energy per Si atom -5584.473625 kJ/mol
# Density = 2.362730 g / cm^3
# Si number density = 23.681197 Si / 1000 Ang^3
#
#
#
# Elastic Constant Matrix: (Units=GPa)
#
#
# Indices 1 2 3 4 5 6 
#
# 1 117.8434 6.4379 39.0172 0.0000 1.3109 0.0000
# 2 6.4379 104.2212 22.1797 0.0000 -5.2439 0.0000
# 3 39.0172 22.1797 143.5326 0.0000 4.3316 0.0000
# 4 0.0000 0.0000 0.0000 5.5647 0.0000 -8.6027
# 5 1.3109 -5.2439 4.3316 0.0000 47.7287 0.0000
# 6 0.0000 0.0000 0.0000 -8.6027 0.0000 17.8171
#
#
#
# Elastic Compliance Matrix: (Units=1/GPa)
#
#
# Indices 1 2 3 4 5 6 
#
# 1 0.009325 -0.000040 -0.002528 0.000000 -0.000031 0.000000
# 2 -0.000040 0.009994 -0.001571 0.000000 0.001242 0.000000
# 3 -0.002528 -0.001571 0.007922 0.000000 -0.000822 0.000000
# 4 0.000000 0.000000 0.000000 0.708677 0.000000 0.342172
# 5 -0.000031 0.001242 -0.000822 0.000000 0.021164 0.000000
# 6 0.000000 0.000000 0.000000 0.342172 0.000000 0.221338
#
#
# Mechanical properties :
#
#
# Convention : Reuss Voigt Hill
#
# Bulk Modulus (GPa) = 52.73099 55.65186 54.19142
# Shear Modulus (GPa) = 5.03515 34.08625 19.56070
#
# Velocity S-wave (km/s) = 1.45974 3.79803 2.87714
# Velocity P-wave (km/s) = 5.01562 6.54101 5.82844
#
# Compressibility (1/GPa) = 0.01896418
#
# Stress axis : x y z
#
# Youngs Moduli (GPa) = 107.23492 100.05747 126.23373
#
# Poissons Ratio (x) = 0.00397 0.31910
# Poissons Ratio (y) = 0.00425 0.19832
# Poissons Ratio (z) = 0.27108 0.15720
#
# Static dielectric constant tensor:
#      x y z
#    x 1.971990 0.000000 0.070700 
#    y 0.000000 1.917230 0.000000 
#    z 0.070700 0.000000 1.923010 
# 
# From -- ./inp_files/148515.got.cif
#   From: 2010.05.17/outbox.cif.g08.bks.cpg/sg15_75_cif.got.tgz:148515.got - 2010.06.03 18:47:42.
