data_PCOD9299915
_publ_section_title
;
Structure prediction by ZEFSAII (Michael W. Deem and Ramdas Pophale) SiO2 
 PCOD9299915
Probable space group: C 2/C
;
_chemical_formula_sum "Si O2"
_cell_formula_units_Z 40
_cell_length_a 14.031553
_cell_length_b 17.710732
_cell_length_c 8.169497
_cell_angle_alpha 90.000000
_cell_angle_beta 70.780746
_cell_angle_gamma 90.000000
_cell_volume 1917.042900
_symmetry_space_group_name_H-M "C 2/C"
_symmetry_group_IT_number 15
_symmetry_cell_setting 'monoclinic'
loop_
_space_group_symop_operation_xyz
x,y,z
-x,y,1/2-z
-x,-y,-z
x,-y,1/2+z
1/2+x,1/2+y,z
1/2-x,1/2+y,1/2-z
1/2-x,1/2-y,-z
1/2+x,1/2-y,1/2+z
loop_
_atom_site_type_symbol
_atom_site_label
_atom_site_fract_x
_atom_site_fract_y
_atom_site_fract_z
Si Si1 0.000000 0.485450 0.750000
Si Si2 0.659821 0.548228 0.850118
Si Si3 0.846670 0.239324 0.063492
Si Si4 0.881670 0.892898 0.773270
Si Si5 0.626857 0.088555 0.919165
Si Si6 0.000000 0.149808 0.750000
O O1 0.052804 0.541261 0.846764
O O2 0.087452 0.433782 0.621440
O O3 0.629426 0.460638 0.851838
O O4 0.761216 0.562473 0.690462
O O5 0.573091 0.597124 0.813946
O O6 0.669166 0.577177 0.030729
O O7 0.832740 0.181721 0.222650
O O8 0.878102 0.322197 0.103590
O O9 0.750000 0.250000 0.000000
O O10 0.933961 0.201492 0.906262
O O11 0.000000 0.880671 0.750000
#
# Coordination Sequence:
#
# PCOD9299915 Si02
#       6
#     4   8   8   8   8   4
#     4  10  25  48  73  94 134 188 234 296 331 430
#     4  12  24  44  75 104 139 190 238 297 355 430
#     4  12  27  45  67 102 147 188 229 295 361 419
#     4  12  25  43  71 106 145 183 236 295 360 419
#     4  11  25  47  71  99 136 183 239 285 355 417
#     4  12  23  46  69 102 148 182 236 296 359 422
#
# _framework density 20.865469999999998
#
# number of rings (size 3 to 8) (size 9 to 14) (size 15 to 20)
#    0.000    0.400    5.000    3.600    4.200    0.800 
#    3.600    0.000    0.000    0.000    0.000    0.000 
#    0.000    0.000    0.000    0.000    0.000    0.000 
#
# Total GULP energy -111926.721442 kJ/mol
# GULP energy per Si atom -5596.336072 kJ/mol
# Density = 2.081798 g / cm^3
# Si number density = 20.865470 Si / 1000 Ang^3
#
#
#
# Elastic Constant Matrix: (Units=GPa)
#
#
# Indices 1 2 3 4 5 6 
#
# 1 90.3658 70.2576 45.1812 0.0000 -6.7579 0.0000
# 2 70.2576 169.6374 46.0846 0.0000 10.0136 0.0000
# 3 45.1812 46.0846 112.0446 0.0000 2.3683 0.0000
# 4 0.0000 0.0000 0.0000 -620.7391 0.0000 222.9910
# 5 -6.7579 10.0136 2.3683 0.0000 30.9629 0.0000
# 6 0.0000 0.0000 0.0000 222.9910 0.0000 -35.7989
#
#
#
# Elastic Compliance Matrix: (Units=1/GPa)
#
#
# Indices 1 2 3 4 5 6 
#
# 1 0.019772 -0.007203 -0.005159 0.000000 0.007039 0.000000
# 2 -0.007203 0.009379 -0.000857 0.000000 -0.004540 0.000000
# 3 -0.005159 -0.000857 0.011394 0.000000 -0.001720 0.000000
# 4 0.000000 0.000000 0.000000 0.001302 0.000000 0.008108
# 5 0.007039 -0.004540 -0.001720 0.000000 0.035433 0.000000
# 6 0.000000 0.000000 0.000000 0.008108 0.000000 0.022570
#
#
# Mechanical properties :
#
#
# Convention : Reuss Voigt Hill
#
# Bulk Modulus (GPa) = 70.88678 77.23273 74.05975
# Shear Modulus (GPa) = 38.17076 -111.08004 -36.45464
#
# Velocity S-wave (km/s) = 4.28176 -7.30424 -4.18440
# Velocity P-wave (km/s) = 7.64798 5.83445 3.49648
#
# Compressibility (1/GPa) = 0.01410700
#
# Stress axis : x y z
#
# Youngs Moduli (GPa) = 50.57621 106.62219 87.76281
#
# Poissons Ratio (x) = 0.76798 0.45279
# Poissons Ratio (y) = 0.36429 0.07523
# Poissons Ratio (z) = 0.26093 0.09139
#
# Static dielectric constant tensor:
#      x y z
#    x 1.733580 0.000000 -0.001350 
#    y 0.000000 1.713310 0.000000 
#    z -0.001350 0.000000 1.826230 
# 
# From -- ./inp_files/37912.got.cif
#   From: 2010.05.17/outbox.cif.g08.bks.cpg/sg15_19_cif.got.tgz:37912.got - 2010.06.03 18:47:42.
