data_PCOD9299327
_publ_section_title
;
Structure prediction by ZEFSAII (Michael W. Deem and Ramdas Pophale) SiO2 
 PCOD9299327
Probable space group: C 2/C
;
_chemical_formula_sum "Si O2"
_cell_formula_units_Z 28
_cell_length_a 18.111978
_cell_length_b 5.693929
_cell_length_c 11.678339
_cell_angle_alpha 90.000000
_cell_angle_beta 118.935911
_cell_angle_gamma 90.000000
_cell_volume 1054.015959
_symmetry_space_group_name_H-M "C 2/C"
_symmetry_group_IT_number 15
_symmetry_cell_setting 'monoclinic'
loop_
_space_group_symop_operation_xyz
x,y,z
-x,y,1/2-z
-x,-y,-z
x,-y,1/2+z
1/2+x,1/2+y,z
1/2-x,1/2+y,1/2-z
1/2-x,1/2-y,-z
1/2+x,1/2-y,1/2+z
loop_
_atom_site_type_symbol
_atom_site_label
_atom_site_fract_x
_atom_site_fract_y
_atom_site_fract_z
Si Si1 0.664071 0.621057 0.970406
Si Si2 0.060652 0.681621 0.606643
Si Si3 0.735030 0.166619 0.802167
Si Si4 0.500000 0.497766 0.250000
O O1 0.616981 0.730966 0.043686
O O2 0.699198 0.374481 0.045720
O O3 0.750000 0.750000 0.000000
O O4 0.590890 0.626275 0.820586
O O5 0.135754 0.626531 0.753515
O O6 0.002370 0.857348 0.634188
O O7 0.000000 0.500000 0.500000
O O8 0.747179 0.435265 0.766322
#
# Coordination Sequence:
#
# PCOD9299327 Si02
#       4
#     8   8   8   4
#     4  11  28  47  80 113 162 210 275 334 412 486
#     4  11  27  47  77 113 162 207 276 331 407 488
#     4  10  24  48  78 111 158 209 267 333 402 480
#     4  12  28  48  78 116 164 216 270 340 412 486
#
# _framework density 26.565059000000002
#
# number of rings (size 3 to 8) (size 9 to 14) (size 15 to 20)
#    0.000    1.143    0.000    2.571   24.000    1.143 
#    0.000    0.000    0.000    0.000    0.000    0.000 
#    0.000    0.000    0.000    0.000    0.000    0.000 
#
# Total GULP energy -78140.227143 kJ/mol
# GULP energy per Si atom -5581.444796 kJ/mol
# Density = 2.650460 g / cm^3
# Si number density = 26.565059 Si / 1000 Ang^3
#
#
#
# Elastic Constant Matrix: (Units=GPa)
#
#
# Indices 1 2 3 4 5 6 
#
# 1 179.4117 69.1864 47.2146 0.0000 20.3634 0.0000
# 2 69.1864 114.6576 39.7608 0.0000 0.8188 0.0000
# 3 47.2146 39.7608 141.8853 0.0000 49.6958 0.0000
# 4 0.0000 0.0000 0.0000 57.9236 0.0000 5.7808
# 5 20.3634 0.8188 49.6958 0.0000 74.4355 0.0000
# 6 0.0000 0.0000 0.0000 5.7808 0.0000 56.8881
#
#
#
# Elastic Compliance Matrix: (Units=1/GPa)
#
#
# Indices 1 2 3 4 5 6 
#
# 1 0.007616 -0.004307 -0.000802 0.000000 -0.001501 0.000000
# 2 -0.004307 0.012386 -0.003136 0.000000 0.003136 0.000000
# 3 -0.000802 -0.003136 0.010578 0.000000 -0.006809 0.000000
# 4 0.000000 0.000000 0.000000 0.017441 0.000000 -0.001772
# 5 -0.001501 0.003136 -0.006809 0.000000 0.018356 0.000000
# 6 0.000000 0.000000 0.000000 -0.001772 0.000000 0.017758
#
#
# Mechanical properties :
#
#
# Convention : Reuss Voigt Hill
#
# Bulk Modulus (GPa) = 70.96864 83.14204 77.05534
# Shear Modulus (GPa) = 47.47376 56.50231 51.98804
#
# Velocity S-wave (km/s) = 4.23197 4.61688 4.42861
# Velocity P-wave (km/s) = 7.11705 7.73216 7.43097
#
# Compressibility (1/GPa) = 0.01409073
#
# Stress axis : x y z
#
# Youngs Moduli (GPa) = 131.30324 80.73937 94.53357
#
# Poissons Ratio (x) = 0.34773 0.07579
# Poissons Ratio (y) = 0.56551 0.29645
# Poissons Ratio (z) = 0.10527 0.25319
#
# Static dielectric constant tensor:
#      x y z
#    x 2.088770 0.000000 0.001680 
#    y 0.000000 2.196440 0.000000 
#    z 0.001680 0.000000 2.412460 
# 
# From -- ./inp_files/158092.got.cif
#   From: 2010.05.17/outbox.cif.g08.bks.cpg/sg15_80_cif.got.tgz:158092.got - 2010.06.03 18:47:42.
