data_PCOD9299617
_publ_section_title
;
Structure prediction by ZEFSAII (Michael W. Deem and Ramdas Pophale) SiO2 
 PCOD9299617
Probable space group: C 2/C
;
_chemical_formula_sum "Si O2"
_cell_formula_units_Z 56
_cell_length_a 17.479361
_cell_length_b 8.184163
_cell_length_c 15.719098
_cell_angle_alpha 90.000000
_cell_angle_beta 82.013180
_cell_angle_gamma 90.000000
_cell_volume 2226.866838
_symmetry_space_group_name_H-M "C 2/C"
_symmetry_group_IT_number 15
_symmetry_cell_setting 'monoclinic'
loop_
_space_group_symop_operation_xyz
x,y,z
-x,y,1/2-z
-x,-y,-z
x,-y,1/2+z
1/2+x,1/2+y,z
1/2-x,1/2+y,1/2-z
1/2-x,1/2-y,-z
1/2+x,1/2-y,1/2+z
loop_
_atom_site_type_symbol
_atom_site_label
_atom_site_fract_x
_atom_site_fract_y
_atom_site_fract_z
Si Si1 0.506696 0.296953 0.436602
Si Si2 0.643880 0.118500 0.972974
Si Si3 0.529109 0.372694 0.838703
Si Si4 0.337952 0.677947 0.475289
Si Si5 0.694131 0.410054 0.891146
Si Si6 0.559602 0.998850 0.330315
Si Si7 0.655075 0.927180 0.150264
O O1 0.430975 0.234148 0.497436
O O2 0.497639 0.482506 0.404924
O O3 0.584193 0.278298 0.482435
O O4 0.516645 0.167348 0.357726
O O5 0.711790 0.229055 0.922695
O O6 0.622616 0.008172 0.895773
O O7 0.649668 0.019851 0.059551
O O8 0.500000 0.415957 0.750000
O O9 0.621212 0.392510 0.840107
O O10 0.515579 0.175638 0.849265
O O11 0.250000 0.750000 0.500000
O O12 0.325037 0.501436 0.517403
O O13 0.353135 0.737479 0.376354
O O14 0.759384 0.516566 0.835824
O O15 0.401392 0.986131 0.267427
#
# Coordination Sequence:
#
# PCOD9299617 Si02
#       7
#     8   8   8   8   8   8   8
#     4  11  24  46  71 104 147 183 236 299 350 425
#     4  11  24  44  71 105 141 189 232 300 357 417
#     4  10  25  44  68 105 141 181 238 291 351 418
#     4   9  20  43  72  98 137 185 233 283 361 420
#     4   9  22  46  67 101 141 183 242 290 353 434
#     4  11  26  44  70 105 143 181 244 287 351 433
#     4  11  23  43  72 102 139 191 232 293 362 420
#
# _framework density 25.147442000000002
#
# number of rings (size 3 to 8) (size 9 to 14) (size 15 to 20)
#    0.000    1.714    1.429    0.857    4.000    7.429 
#   15.429    1.429    0.000    0.000    0.000    0.000 
#    0.000    0.000    0.000    0.000    0.000    0.000 
#
# Total GULP energy -156077.930263 kJ/mol
# GULP energy per Si atom -5574.211795 kJ/mol
# Density = 2.509021 g / cm^3
# Si number density = 25.147442 Si / 1000 Ang^3
#
#
#
# Elastic Constant Matrix: (Units=GPa)
#
#
# Indices 1 2 3 4 5 6 
#
# 1 92.2072 33.9231 41.3851 0.0000 1.6600 0.0000
# 2 33.9231 124.1932 42.2852 0.0000 -3.7786 0.0000
# 3 41.3851 42.2852 151.4037 0.0000 -1.2752 0.0000
# 4 0.0000 0.0000 0.0000 39.7435 0.0000 -3.4774
# 5 1.6600 -3.7786 -1.2752 0.0000 48.1622 0.0000
# 6 0.0000 0.0000 0.0000 -3.4774 0.0000 30.6428
#
#
#
# Elastic Compliance Matrix: (Units=1/GPa)
#
#
# Indices 1 2 3 4 5 6 
#
# 1 0.013107 -0.002631 -0.002854 0.000000 -0.000734 0.000000
# 2 -0.002631 0.009445 -0.001912 0.000000 0.000781 0.000000
# 3 -0.002854 -0.001912 0.007920 0.000000 0.000158 0.000000
# 4 0.000000 0.000000 0.000000 0.025414 0.000000 0.002884
# 5 -0.000734 0.000781 0.000158 0.000000 0.020854 0.000000
# 6 0.000000 0.000000 0.000000 0.002884 0.000000 0.032961
#
#
# Mechanical properties :
#
#
# Convention : Reuss Voigt Hill
#
# Bulk Modulus (GPa) = 63.78129 66.99898 65.39013
# Shear Modulus (GPa) = 38.54374 40.39044 39.46709
#
# Velocity S-wave (km/s) = 3.91923 4.01202 3.96590
# Velocity P-wave (km/s) = 6.77484 6.93989 6.85786
#
# Compressibility (1/GPa) = 0.01567858
#
# Stress axis : x y z
#
# Youngs Moduli (GPa) = 76.29369 105.87143 126.25534
#
# Poissons Ratio (x) = 0.27852 0.36036
# Poissons Ratio (y) = 0.20071 0.24144
# Poissons Ratio (z) = 0.21776 0.20246
#
# Static dielectric constant tensor:
#      x y z
#    x 2.085410 0.000000 0.037200 
#    y 0.000000 2.041860 0.000000 
#    z 0.037200 0.000000 1.964240 
# 
# From -- ./inp_files/276072.got.cif
#   From: 2010.05.17/outbox.cif.g08.bks.cpg/sg15_139_cif.got.tgz:276072.got - 2010.06.03 18:47:42.
