data_PCOD9299284
_publ_section_title
;
Structure prediction by ZEFSAII (Michael W. Deem and Ramdas Pophale) SiO2 
 PCOD9299284
Probable space group: C 2/C
;
_chemical_formula_sum "Si O2"
_cell_formula_units_Z 44
_cell_length_a 11.675218
_cell_length_b 28.625172
_cell_length_c 8.886927
_cell_angle_alpha 90.000000
_cell_angle_beta 46.553550
_cell_angle_gamma 90.000000
_cell_volume 2156.312743
_symmetry_space_group_name_H-M "C 2/C"
_symmetry_group_IT_number 15
_symmetry_cell_setting 'monoclinic'
loop_
_space_group_symop_operation_xyz
x,y,z
-x,y,1/2-z
-x,-y,-z
x,-y,1/2+z
1/2+x,1/2+y,z
1/2-x,1/2+y,1/2-z
1/2-x,1/2-y,-z
1/2+x,1/2-y,1/2+z
loop_
_atom_site_type_symbol
_atom_site_label
_atom_site_fract_x
_atom_site_fract_y
_atom_site_fract_z
Si Si1 0.837215 0.809683 0.661583
Si Si2 0.283853 0.122061 0.695098
Si Si3 0.836484 0.897825 0.863585
Si Si4 0.461170 0.049809 0.963792
Si Si5 0.000000 0.863113 0.250000
Si Si6 0.521787 0.786048 0.551175
O O1 0.879289 0.850271 0.738908
O O2 0.650749 0.802076 0.844154
O O3 0.923378 0.759929 0.587369
O O4 0.891787 0.831185 0.453934
O O5 0.427142 0.086086 0.548858
O O6 0.351235 0.173075 0.592341
O O7 0.127654 0.110760 0.739187
O O8 0.241306 0.117666 0.909156
O O9 0.000000 0.923744 0.750000
O O10 0.715586 0.929146 0.876563
O O11 0.500000 0.047726 0.750000
O O12 0.500000 0.000000 0.000000
O O13 0.500000 0.776667 0.750000
#
# Coordination Sequence:
#
# PCOD9299284 Si02
#       6
#     8   8   8   8   4   8
#     4  12  24  39  63  93 137 183 230 275 325 385
#     4  11  24  43  66  98 134 176 222 280 335 392
#     4  11  24  45  67  98 139 173 217 280 334 395
#     4  10  24  48  72  98 133 167 216 277 339 407
#     4  12  22  40  64  96 134 180 230 274 330 390
#     4  12  23  39  62  95 138 181 234 278 319 384
#
# _framework density 20.405203
#
# number of rings (size 3 to 8) (size 9 to 14) (size 15 to 20)
#    0.000    0.727    6.364    1.636    0.000    2.909 
#    1.636    1.818    0.000    0.000    0.000    0.000 
#    0.000    0.000    0.000    0.000    0.000    0.000 
#
# Total GULP energy -122835.997390 kJ/mol
# GULP energy per Si atom -5583.454427 kJ/mol
# Density = 2.035876 g / cm^3
# Si number density = 20.405203 Si / 1000 Ang^3
#
#
#
# Elastic Constant Matrix: (Units=GPa)
#
#
# Indices 1 2 3 4 5 6 
#
# 1 144.1700 64.0111 28.4592 0.0000 -27.8411 0.0000
# 2 64.0111 111.3903 21.7085 0.0000 -3.7162 0.0000
# 3 28.4592 21.7085 60.1994 0.0000 -10.3449 0.0000
# 4 0.0000 0.0000 0.0000 12.4966 0.0000 15.8183
# 5 -27.8411 -3.7162 -10.3449 0.0000 33.7853 0.0000
# 6 0.0000 0.0000 0.0000 15.8183 0.0000 7.6389
#
#
#
# Elastic Compliance Matrix: (Units=1/GPa)
#
#
# Indices 1 2 3 4 5 6 
#
# 1 0.011580 -0.006011 -0.001879 0.000000 0.008306 0.000000
# 2 -0.006011 0.012776 -0.002507 0.000000 -0.004316 0.000000
# 3 -0.001879 -0.002507 0.019095 0.000000 0.004022 0.000000
# 4 0.000000 0.000000 0.000000 -0.049360 0.000000 0.102213
# 5 0.008306 -0.004316 0.004022 0.000000 0.037200 0.000000
# 6 0.000000 0.000000 0.000000 0.102213 0.000000 -0.080749
#
#
# Mechanical properties :
#
#
# Convention : Reuss Voigt Hill
#
# Bulk Modulus (GPa) = 44.13801 60.45745 52.29773
# Shear Modulus (GPa) = -236.86984 24.22289 -106.32347
#
# Velocity S-wave (km/s) = -10.78587 3.44916 -7.22628
# Velocity P-wave (km/s) = 11.55144 6.74945 6.62875
#
# Compressibility (1/GPa) = 0.02265621
#
# Stress axis : x y z
#
# Youngs Moduli (GPa) = 86.35375 78.26881 52.36893
#
# Poissons Ratio (x) = 0.47050 0.09843
# Poissons Ratio (y) = 0.51910 0.13130
# Poissons Ratio (z) = 0.16230 0.19623
#
# Static dielectric constant tensor:
#      x y z
#    x 1.797500 0.000000 -0.016160 
#    y 0.000000 1.694820 0.000000 
#    z -0.016160 0.000000 1.739240 
# 
# From -- ./inp_files/33998.got.cif
#   From: 2010.05.17/outbox.cif.g08.bks.cpg/sg15_17_cif.got.tgz:33998.got - 2010.06.03 18:47:42.
