data_PCOD9299101
_publ_section_title
;
Structure prediction by ZEFSAII (Michael W. Deem and Ramdas Pophale) SiO2 
 PCOD9299101
Probable space group: C 2/C
;
_chemical_formula_sum "Si O2"
_cell_formula_units_Z 40
_cell_length_a 10.313227
_cell_length_b 20.764964
_cell_length_c 7.368260
_cell_angle_alpha 90.000000
_cell_angle_beta 113.862790
_cell_angle_gamma 90.000000
_cell_volume 1443.053478
_symmetry_space_group_name_H-M "C 2/C"
_symmetry_group_IT_number 15
_symmetry_cell_setting 'monoclinic'
loop_
_space_group_symop_operation_xyz
x,y,z
-x,y,1/2-z
-x,-y,-z
x,-y,1/2+z
1/2+x,1/2+y,z
1/2-x,1/2+y,1/2-z
1/2-x,1/2-y,-z
1/2+x,1/2-y,1/2+z
loop_
_atom_site_type_symbol
_atom_site_label
_atom_site_fract_x
_atom_site_fract_y
_atom_site_fract_z
Si Si1 0.091049 0.267920 0.474806
Si Si2 0.500000 0.066673 0.750000
Si Si3 0.849380 0.395844 0.820600
Si Si4 0.441802 0.363332 0.981595
Si Si5 0.251349 0.931990 0.385650
Si Si6 0.000000 0.033801 0.250000
O O1 0.250000 0.250000 0.500000
O O2 0.077031 0.326808 0.606890
O O3 0.000000 0.291078 0.250000
O O4 0.017049 0.203669 0.503405
O O5 0.352090 0.082547 0.776621
O O6 0.346697 0.930882 0.624879
O O7 0.911721 0.442253 0.007932
O O8 0.687351 0.370357 0.738836
O O9 0.358948 0.374412 0.123225
O O10 0.523873 0.424796 0.948133
O O11 0.143370 0.991657 0.311861
#
# Coordination Sequence:
#
# PCOD9299101 Si02
#       6
#     8   4   8   8   8   4
#     4  12  20  42  82 128 169 218 280 356 427 511
#     4  12  24  53  88 114 174 225 280 360 434 492
#     4  10  24  46  81 125 165 215 282 353 427 513
#     4  10  24  47  83 127 166 219 292 343 430 513
#     4  10  27  49  84 126 163 222 290 349 427 503
#     4  12  22  51  86 120 172 225 284 360 410 518
#
# _framework density 27.719000000000001
#
# number of rings (size 3 to 8) (size 9 to 14) (size 15 to 20)
#    1.200    0.000    4.000    1.200    0.000    4.800 
#    0.000    5.000   13.200    2.400    0.000    0.000 
#    0.000    0.000    0.000    0.000    0.000    0.000 
#
# Total GULP energy -111581.864323 kJ/mol
# GULP energy per Si atom -5579.093216 kJ/mol
# Density = 2.765591 g / cm^3
# Si number density = 27.719000 Si / 1000 Ang^3
#
#
#
# Elastic Constant Matrix: (Units=GPa)
#
#
# Indices 1 2 3 4 5 6 
#
# 1 249.8672 82.4082 60.4806 0.0000 -11.5858 0.0000
# 2 82.4082 208.8234 60.6396 0.0000 -7.8204 0.0000
# 3 60.4806 60.6396 130.6645 0.0000 -9.1863 0.0000
# 4 0.0000 0.0000 0.0000 48.4738 0.0000 -1.2578
# 5 -11.5858 -7.8204 -9.1863 0.0000 62.1768 0.0000
# 6 0.0000 0.0000 0.0000 -1.2578 0.0000 4.6107
#
#
#
# Elastic Compliance Matrix: (Units=1/GPa)
#
#
# Indices 1 2 3 4 5 6 
#
# 1 0.004881 -0.001458 -0.001547 0.000000 0.000497 0.000000
# 2 -0.001458 0.005976 -0.002087 0.000000 0.000172 0.000000
# 3 -0.001547 -0.002087 0.009397 0.000000 0.000838 0.000000
# 4 0.000000 0.000000 0.000000 0.020777 0.000000 0.005668
# 5 0.000497 0.000172 0.000838 0.000000 0.016321 0.000000
# 6 0.000000 0.000000 0.000000 0.005668 0.000000 0.218434
#
#
# Mechanical properties :
#
#
# Convention : Reuss Voigt Hill
#
# Bulk Modulus (GPa) = 99.30954 110.71242 105.01098
# Shear Modulus (GPa) = 17.28152 48.77403 33.02777
#
# Velocity S-wave (km/s) = 2.49961 4.19930 3.45559
# Velocity P-wave (km/s) = 6.65100 7.97119 7.34083
#
# Compressibility (1/GPa) = 0.01006953
#
# Stress axis : x y z
#
# Youngs Moduli (GPa) = 204.89149 167.32208 106.42003
#
# Poissons Ratio (x) = 0.24397 0.16468
# Poissons Ratio (y) = 0.29874 0.22206
# Poissons Ratio (z) = 0.31706 0.34914
#
# Static dielectric constant tensor:
#      x y z
#    x 2.186410 0.000000 0.064320 
#    y 0.000000 2.450250 0.000000 
#    z 0.064320 0.000000 2.340560 
# 
# From -- ./inp_files/88668.got.cif
#   From: 2010.05.17/outbox.cif.g08.bks.cpg/sg15_45_cif.got.tgz:88668.got - 2010.06.03 18:47:42.
