data_PCOD9299338
_publ_section_title
;
Structure prediction by ZEFSAII (Michael W. Deem and Ramdas Pophale) SiO2 
 PCOD9299338
Probable space group: C 2/C
;
_chemical_formula_sum "Si O2"
_cell_formula_units_Z 40
_cell_length_a 17.797768
_cell_length_b 16.219468
_cell_length_c 9.208780
_cell_angle_alpha 90.000000
_cell_angle_beta 37.281257
_cell_angle_gamma 90.000000
_cell_volume 1610.208071
_symmetry_space_group_name_H-M "C 2/C"
_symmetry_group_IT_number 15
_symmetry_cell_setting 'monoclinic'
loop_
_space_group_symop_operation_xyz
x,y,z
-x,y,1/2-z
-x,-y,-z
x,-y,1/2+z
1/2+x,1/2+y,z
1/2-x,1/2+y,1/2-z
1/2-x,1/2-y,-z
1/2+x,1/2-y,1/2+z
loop_
_atom_site_type_symbol
_atom_site_label
_atom_site_fract_x
_atom_site_fract_y
_atom_site_fract_z
Si Si1 0.347072 0.858230 0.112118
Si Si2 0.996698 0.794693 0.434042
Si Si3 0.552945 0.132131 0.507610
Si Si4 0.374195 0.401346 0.852268
Si Si5 0.720812 0.413689 0.013434
O O1 0.406647 0.769358 0.989437
O O2 0.454172 0.903020 0.041218
O O3 0.231212 0.852948 0.398031
O O4 0.696668 0.897801 0.469524
O O5 0.907059 0.858265 0.652210
O O6 0.054290 0.729991 0.463627
O O7 0.106426 0.849802 0.198687
O O8 0.500000 0.120273 0.750000
O O9 0.688014 0.098089 0.263139
O O10 0.500000 0.401432 0.750000
O O11 0.330723 0.494667 0.902504
#
# Coordination Sequence:
#
# PCOD9299338 Si02
#       5
#     8   8   8   8   8
#     4  10  26  47  81 111 161 203 261 313 395 470
#     4  10  24  48  81 117 151 205 260 322 383 467
#     4  10  25  49  80 112 154 209 263 317 388 466
#     4  12  25  48  78 121 159 202 257 328 396 459
#     4  12  25  50  80 119 159 196 265 330 390 462
#
# _framework density 24.841508000000001
#
# number of rings (size 3 to 8) (size 9 to 14) (size 15 to 20)
#    1.200    0.000    2.000    3.000    0.000    2.400 
#    7.200    0.000    0.000    0.000    0.000    0.000 
#    0.000    0.000    0.000    0.000    0.000    0.000 
#
# Total GULP energy -112029.424050 kJ/mol
# GULP energy per Si atom -5601.471203 kJ/mol
# Density = 2.478497 g / cm^3
# Si number density = 24.841508 Si / 1000 Ang^3
#
#
#
# Elastic Constant Matrix: (Units=GPa)
#
#
# Indices 1 2 3 4 5 6 
#
# 1 65.4458 21.0541 50.4842 0.0000 -9.2002 0.0000
# 2 21.0541 103.5872 55.5510 0.0000 -15.0510 0.0000
# 3 50.4842 55.5510 206.5307 0.0000 2.5708 0.0000
# 4 0.0000 0.0000 0.0000 41.7093 0.0000 -1.0738
# 5 -9.2002 -15.0510 2.5708 0.0000 41.2150 0.0000
# 6 0.0000 0.0000 0.0000 -1.0738 0.0000 32.1914
#
#
#
# Elastic Compliance Matrix: (Units=1/GPa)
#
#
# Indices 1 2 3 4 5 6 
#
# 1 0.019766 -0.000889 -0.004647 0.000000 0.004377 0.000000
# 2 -0.000889 0.012142 -0.003104 0.000000 0.004429 0.000000
# 3 -0.004647 -0.003104 0.006845 0.000000 -0.002598 0.000000
# 4 0.000000 0.000000 0.000000 0.023996 0.000000 0.000800
# 5 0.004377 0.004429 -0.002598 0.000000 0.027020 0.000000
# 6 0.000000 0.000000 0.000000 0.000800 0.000000 0.031091
#
#
# Mechanical properties :
#
#
# Convention : Reuss Voigt Hill
#
# Bulk Modulus (GPa) = 46.56952 69.97138 58.27045
# Shear Modulus (GPa) = 34.41219 39.58811 37.00015
#
# Velocity S-wave (km/s) = 3.72596 3.99636 3.86352
# Velocity P-wave (km/s) = 6.10719 7.03724 6.58864
#
# Compressibility (1/GPa) = 0.02147327
#
# Stress axis : x y z
#
# Youngs Moduli (GPa) = 50.59252 82.35542 146.09421
#
# Poissons Ratio (x) = 0.07325 0.67887
# Poissons Ratio (y) = 0.04500 0.45343
# Poissons Ratio (z) = 0.23509 0.25561
#
# Static dielectric constant tensor:
#      x y z
#    x 2.046120 0.000000 0.028370 
#    y 0.000000 1.924210 0.000000 
#    z 0.028370 0.000000 1.937820 
# 
# From -- ./inp_files/178684.got.cif
#   From: 2010.05.17/outbox.cif.g08.bks.cpg/sg15_90_cif.got.tgz:178684.got - 2010.06.03 18:47:42.
