data_PCOD9299685
_publ_section_title
;
Structure prediction by ZEFSAII (Michael W. Deem and Ramdas Pophale) SiO2 
 PCOD9299685
Probable space group: C 2/C
;
_chemical_formula_sum "Si O2"
_cell_formula_units_Z 44
_cell_length_a 23.961909
_cell_length_b 15.337454
_cell_length_c 11.156476
_cell_angle_alpha 90.000000
_cell_angle_beta 32.101969
_cell_angle_gamma 90.000000
_cell_volume 2178.943171
_symmetry_space_group_name_H-M "C 2/C"
_symmetry_group_IT_number 15
_symmetry_cell_setting 'monoclinic'
loop_
_space_group_symop_operation_xyz
x,y,z
-x,y,1/2-z
-x,-y,-z
x,-y,1/2+z
1/2+x,1/2+y,z
1/2-x,1/2+y,1/2-z
1/2-x,1/2-y,-z
1/2+x,1/2-y,1/2+z
loop_
_atom_site_type_symbol
_atom_site_label
_atom_site_fract_x
_atom_site_fract_y
_atom_site_fract_z
Si Si1 0.233042 0.332423 0.946867
Si Si2 0.890401 0.030469 0.258096
Si Si3 0.838356 0.741033 0.173015
Si Si4 0.716686 0.110691 0.035169
Si Si5 0.941518 0.529822 0.729094
Si Si6 0.000000 0.143413 0.250000
O O1 0.329004 0.399721 0.787520
O O2 0.216561 0.296860 0.844268
O O3 0.250000 0.250000 0.000000
O O4 0.127605 0.384883 0.172790
O O5 0.918090 0.081247 0.330279
O O6 0.810911 0.949096 0.416716
O O7 0.000000 0.000000 0.000000
O O8 0.766184 0.813777 0.365433
O O9 0.849319 0.659893 0.242293
O O10 0.942973 0.792574 0.946694
O O11 0.642276 0.047507 0.096072
O O12 0.000000 0.543193 0.750000
O O13 0.000000 0.500000 0.500000
#
# Coordination Sequence:
#
# PCOD9299685 Si02
#       6
#     8   8   8   8   8   4
#     4  11  25  42  69  97 133 174 224 280 336 401
#     4  11  24  44  66  99 129 179 224 273 336 399
#     4  11  24  44  66 101 136 177 223 285 340 401
#     4  10  25  45  67  98 142 174 225 285 339 399
#     4  11  26  44  71 100 139 184 231 279 349 416
#     4  12  24  40  76  92 138 178 228 272 338 406
#
# _framework density 20.193276999999998
#
# number of rings (size 3 to 8) (size 9 to 14) (size 15 to 20)
#    0.000    1.091    3.636    1.091    8.909    0.000 
#    0.000    0.000    0.000    0.000    0.000    0.000 
#    0.000    0.000    0.000    0.000    0.000    0.000 
#
# Total GULP energy -122912.706547 kJ/mol
# GULP energy per Si atom -5586.941207 kJ/mol
# Density = 2.014732 g / cm^3
# Si number density = 20.193277 Si / 1000 Ang^3
#
#
#
# Elastic Constant Matrix: (Units=GPa)
#
#
# Indices 1 2 3 4 5 6 
#
# 1 88.8746 52.6226 30.8877 0.0000 -7.3341 0.0000
# 2 52.6226 145.2773 48.6360 0.0000 -4.6611 0.0000
# 3 30.8877 48.6360 89.3561 0.0000 -2.7708 0.0000
# 4 0.0000 0.0000 0.0000 20.3805 0.0000 1.8821
# 5 -7.3341 -4.6611 -2.7708 0.0000 28.0370 0.0000
# 6 0.0000 0.0000 0.0000 1.8821 0.0000 33.1563
#
#
#
# Elastic Compliance Matrix: (Units=1/GPa)
#
#
# Indices 1 2 3 4 5 6 
#
# 1 0.015072 -0.004465 -0.002689 0.000000 0.002935 0.000000
# 2 -0.004465 0.009765 -0.003769 0.000000 0.000083 0.000000
# 3 -0.002689 -0.003769 0.014174 0.000000 0.000071 0.000000
# 4 0.000000 0.000000 0.000000 0.049325 0.000000 -0.002800
# 5 0.002935 0.000083 0.000071 0.000000 0.036456 0.000000
# 6 0.000000 0.000000 0.000000 -0.002800 0.000000 0.030319
#
#
# Mechanical properties :
#
#
# Convention : Reuss Voigt Hill
#
# Bulk Modulus (GPa) = 58.25523 65.31120 61.78322
# Shear Modulus (GPa) = 27.37032 29.07219 28.22125
#
# Velocity S-wave (km/s) = 3.68559 3.79845 3.74245
# Velocity P-wave (km/s) = 6.85733 7.18685 7.02402
#
# Compressibility (1/GPa) = 0.01716584
#
# Stress axis : x y z
#
# Youngs Moduli (GPa) = 66.34704 102.40354 70.55042
#
# Poissons Ratio (x) = 0.45726 0.18968
# Poissons Ratio (y) = 0.29626 0.26591
# Poissons Ratio (z) = 0.17838 0.38597
#
# Static dielectric constant tensor:
#      x y z
#    x 1.710290 0.000000 0.009340 
#    y 0.000000 1.714730 0.000000 
#    z 0.009340 0.000000 1.763270 
# 
# From -- ./inp_files/123259.got.cif
#   From: 2010.05.17/outbox.cif.g08.bks.cpg/sg15_62_cif.got.tgz:123259.got - 2010.06.03 18:47:42.
