data_PCOD9299875
_publ_section_title
;
Structure prediction by ZEFSAII (Michael W. Deem and Ramdas Pophale) SiO2 
 PCOD9299875
Probable space group: C 2/C
;
_chemical_formula_sum "Si O2"
_cell_formula_units_Z 56
_cell_length_a 16.221641
_cell_length_b 5.652558
_cell_length_c 27.112784
_cell_angle_alpha 90.000000
_cell_angle_beta 71.885199
_cell_angle_gamma 90.000000
_cell_volume 2362.852170
_symmetry_space_group_name_H-M "C 2/C"
_symmetry_group_IT_number 15
_symmetry_cell_setting 'monoclinic'
loop_
_space_group_symop_operation_xyz
x,y,z
-x,y,1/2-z
-x,-y,-z
x,-y,1/2+z
1/2+x,1/2+y,z
1/2-x,1/2+y,1/2-z
1/2-x,1/2-y,-z
1/2+x,1/2-y,1/2+z
loop_
_atom_site_type_symbol
_atom_site_label
_atom_site_fract_x
_atom_site_fract_y
_atom_site_fract_z
Si Si1 0.928356 0.059012 0.936224
Si Si2 0.185014 0.806294 0.467864
Si Si3 0.019951 0.674508 0.640863
Si Si4 0.813058 0.345602 0.896971
Si Si5 0.136462 0.622819 0.757989
Si Si6 0.694315 0.378942 0.204097
Si Si7 0.944937 0.444815 0.558800
O O1 0.846274 0.227768 0.941429
O O2 0.016417 0.196187 0.929639
O O3 0.940833 0.924140 0.882412
O O4 0.899029 0.905032 0.987842
O O5 0.250000 0.750000 0.500000
O O6 0.231522 0.990491 0.423660
O O7 0.152300 0.585984 0.441864
O O8 0.955269 0.658712 0.698126
O O9 0.965593 0.610655 0.601045
O O10 0.101801 0.502958 0.631666
O O11 0.794750 0.172737 0.855430
O O12 0.213876 0.626021 0.784218
O O13 0.143542 0.358344 0.733278
O O14 0.153533 0.860427 0.722061
O O15 0.000000 0.500000 0.500000
#
# Coordination Sequence:
#
# PCOD9299875 Si02
#       7
#     8   8   8   8   8   8   8
#     4  11  24  44  64  98 143 182 232 280 352 430
#     4  12  23  43  68 100 146 182 229 293 345 423
#     4  11  25  45  68 100 138 183 233 290 357 431
#     4  11  26  43  68 104 137 187 236 293 358 425
#     4  10  25  47  75 102 141 183 236 302 360 429
#     4  10  25  48  73 106 136 182 245 297 360 427
#     4  11  24  42  67  99 138 184 236 283 351 428
#
# _framework density 23.700171999999998
#
# number of rings (size 3 to 8) (size 9 to 14) (size 15 to 20)
#    0.000    1.143    2.857    1.714    8.000    4.000 
#    0.000    0.000    0.000    0.000    0.000    0.000 
#    0.000    0.000    0.000    0.000    0.000    0.000 
#
# Total GULP energy -156563.959842 kJ/mol
# GULP energy per Si atom -5591.569994 kJ/mol
# Density = 2.364623 g / cm^3
# Si number density = 23.700172 Si / 1000 Ang^3
#
#
#
# Elastic Constant Matrix: (Units=GPa)
#
#
# Indices 1 2 3 4 5 6 
#
# 1 50.2851 19.1941 19.2379 -0.0002 3.9629 -0.0002
# 2 19.1941 86.4177 18.7260 -0.0010 -8.8244 -0.0002
# 3 19.2379 18.7260 77.7075 -0.0005 -11.6352 -0.0001
# 4 -0.0002 -0.0010 -0.0005 36.6081 0.0000 1.7650
# 5 3.9629 -8.8244 -11.6352 0.0000 50.4156 0.0000
# 6 -0.0002 -0.0002 -0.0001 1.7650 0.0000 36.7701
#
#
#
# Elastic Compliance Matrix: (Units=1/GPa)
#
#
# Indices 1 2 3 4 5 6 
#
# 1 0.024017 -0.004559 -0.005437 0.000000 -0.003941 0.000000
# 2 -0.004559 0.013187 -0.001709 0.000000 0.002272 0.000000
# 3 -0.005437 -0.001709 0.015170 0.000000 0.003629 0.000000
# 4 0.000000 0.000000 0.000000 0.027380 0.000000 -0.001314
# 5 -0.003941 0.002272 0.003629 0.000000 0.021380 0.000000
# 6 0.000000 0.000000 0.000000 -0.001314 0.000000 0.027259
#
#
# Mechanical properties :
#
#
# Convention : Reuss Voigt Hill
#
# Bulk Modulus (GPa) = 34.52548 36.52513 35.52531
# Shear Modulus (GPa) = 30.96780 35.24222 33.10501
#
# Velocity S-wave (km/s) = 3.61868 3.86035 3.74147
# Velocity P-wave (km/s) = 5.66207 5.94260 5.80403
#
# Compressibility (1/GPa) = 0.02896411
#
# Stress axis : x y z
#
# Youngs Moduli (GPa) = 41.63632 75.83493 65.91888
#
# Poissons Ratio (x) = 0.34570 0.35843
# Poissons Ratio (y) = 0.18980 0.11265
# Poissons Ratio (z) = 0.22640 0.12960
#
# Static dielectric constant tensor:
#      x y z
#    x 1.961220 0.000000 0.046030 
#    y 0.000000 1.986290 0.000000 
#    z 0.046030 0.000000 1.882150 
# 
# From -- ./inp_files/297709.got.cif
#   From: 2010.05.17/outbox.cif.g08.bks.cpg/sg15_149_cif.got.tgz:297709.got - 2010.06.03 18:47:42.
