data_PCOD9299357
_publ_section_title
;
Structure prediction by ZEFSAII (Michael W. Deem and Ramdas Pophale) SiO2 
 PCOD9299357
Probable space group: C 2/C
;
_chemical_formula_sum "Si O2"
_cell_formula_units_Z 48
_cell_length_a 16.512259
_cell_length_b 8.204139
_cell_length_c 15.242192
_cell_angle_alpha 90.000000
_cell_angle_beta 60.815898
_cell_angle_gamma 90.000000
_cell_volume 1802.726045
_symmetry_space_group_name_H-M "C 2/C"
_symmetry_group_IT_number 15
_symmetry_cell_setting 'monoclinic'
loop_
_space_group_symop_operation_xyz
x,y,z
-x,y,1/2-z
-x,-y,-z
x,-y,1/2+z
1/2+x,1/2+y,z
1/2-x,1/2+y,1/2-z
1/2-x,1/2-y,-z
1/2+x,1/2-y,1/2+z
loop_
_atom_site_type_symbol
_atom_site_label
_atom_site_fract_x
_atom_site_fract_y
_atom_site_fract_z
Si Si1 0.955324 0.263454 0.565893
Si Si2 0.357592 0.783866 0.447098
Si Si3 0.106503 0.381361 0.605271
Si Si4 0.788725 0.965397 0.220962
Si Si5 0.394415 0.522235 0.830546
Si Si6 0.661121 0.760843 0.399780
O O1 0.900239 0.346592 0.516092
O O2 0.875953 0.147516 0.646971
O O3 0.001601 0.363119 0.621078
O O4 0.052338 0.208717 0.466420
O O5 0.250000 0.750000 0.500000
O O6 0.392403 0.600128 0.413306
O O7 0.381652 0.933750 0.369740
O O8 0.123035 0.214429 0.648761
O O9 0.174590 0.351264 0.485187
O O10 0.827846 0.046424 0.290058
O O11 0.696055 0.875639 0.302187
O O12 0.780654 0.097634 0.149020
O O13 0.500000 0.511919 0.750000
#
# Coordination Sequence:
#
# PCOD9299357 Si02
#       6
#     8   8   8   8   8   8
#     4  10  24  49  73 103 151 197 247 304 380 454
#     4  12  27  45  78 107 146 195 249 311 380 445
#     4  10  25  50  72 103 152 201 237 307 383 441
#     4  12  24  44  77 108 147 199 252 310 377 454
#     4  12  25  48  72 109 150 192 253 311 373 448
#     4  10  25  43  72 108 141 195 250 302 374 451
#
# _framework density 26.626342999999999
#
# number of rings (size 3 to 8) (size 9 to 14) (size 15 to 20)
#    1.000    0.000    1.667    4.000    4.667    4.667 
#    0.000    0.000    0.000    0.000    0.000    0.000 
#    0.000    0.000    0.000    0.000    0.000    0.000 
#
# Total GULP energy -133926.246579 kJ/mol
# GULP energy per Si atom -5580.260274 kJ/mol
# Density = 2.656574 g / cm^3
# Si number density = 26.626343 Si / 1000 Ang^3
#
#
#
# Elastic Constant Matrix: (Units=GPa)
#
#
# Indices 1 2 3 4 5 6 
#
# 1 85.9805 22.5315 7.3144 0.0000 -10.6898 0.0000
# 2 22.5315 103.3338 29.2639 0.0000 -1.1027 0.0000
# 3 7.3144 29.2639 111.1634 0.0000 -34.6850 0.0000
# 4 0.0000 0.0000 0.0000 37.6970 0.0000 -2.7235
# 5 -10.6898 -1.1027 -34.6850 0.0000 40.8965 0.0000
# 6 0.0000 0.0000 0.0000 -2.7235 0.0000 28.0302
#
#
#
# Elastic Compliance Matrix: (Units=1/GPa)
#
#
# Indices 1 2 3 4 5 6 
#
# 1 0.012893 -0.003151 0.001368 0.000000 0.004446 0.000000
# 2 -0.003151 0.011467 -0.004041 0.000000 -0.003942 0.000000
# 3 0.001368 -0.004041 0.013663 0.000000 0.011836 0.000000
# 4 0.000000 0.000000 0.000000 0.026715 0.000000 0.002596
# 5 0.004446 -0.003942 0.011836 0.000000 0.035546 0.000000
# 6 0.000000 0.000000 0.000000 0.002596 0.000000 0.035928
#
#
# Mechanical properties :
#
#
# Convention : Reuss Voigt Hill
#
# Bulk Modulus (GPa) = 37.91636 46.52192 42.21914
# Shear Modulus (GPa) = 31.91807 37.41594 34.66700
#
# Velocity S-wave (km/s) = 3.46604 3.75270 3.61221
# Velocity P-wave (km/s) = 5.50354 6.02387 5.76958
#
# Compressibility (1/GPa) = 0.02637384
#
# Stress axis : x y z
#
# Youngs Moduli (GPa) = 77.56364 87.20741 73.19178
#
# Poissons Ratio (x) = 0.27481 -0.10015
# Poissons Ratio (y) = 0.24442 0.29579
# Poissons Ratio (z) = -0.10613 0.35243
#
# Static dielectric constant tensor:
#      x y z
#    x 2.109900 0.000000 0.112490 
#    y 0.000000 2.121810 0.000000 
#    z 0.112490 0.000000 2.107770 
# 
# From -- ./inp_files/208939.got.cif
#   From: 2010.05.17/outbox.cif.g08.bks.cpg/sg15_105_cif.got.tgz:208939.got - 2010.06.03 18:47:42.
