data_PCOD9299325
_publ_section_title
;
Structure prediction by ZEFSAII (Michael W. Deem and Ramdas Pophale) SiO2 
 PCOD9299325
Probable space group: C 2/C
;
_chemical_formula_sum "Si O2"
_cell_formula_units_Z 36
_cell_length_a 19.345960
_cell_length_b 7.379692
_cell_length_c 15.797042
_cell_angle_alpha 90.000000
_cell_angle_beta 146.517672
_cell_angle_gamma 90.000000
_cell_volume 1244.203290
_symmetry_space_group_name_H-M "C 2/C"
_symmetry_group_IT_number 15
_symmetry_cell_setting 'monoclinic'
loop_
_space_group_symop_operation_xyz
x,y,z
-x,y,1/2-z
-x,-y,-z
x,-y,1/2+z
1/2+x,1/2+y,z
1/2-x,1/2+y,1/2-z
1/2-x,1/2-y,-z
1/2+x,1/2-y,1/2+z
loop_
_atom_site_type_symbol
_atom_site_label
_atom_site_fract_x
_atom_site_fract_y
_atom_site_fract_z
Si Si1 0.747831 0.998644 0.922510
Si Si2 0.000000 0.002809 0.250000
Si Si3 0.028680 0.215235 0.601749
Si Si4 0.846196 0.579416 0.003106
Si Si5 0.725810 0.288009 0.761084
O O1 0.650797 0.990193 0.899277
O O2 0.873039 0.094259 0.088975
O O3 0.792378 0.787808 0.955337
O O4 0.711188 0.108293 0.802805
O O5 0.960907 0.897146 0.298144
O O6 0.907847 0.161654 0.419391
O O7 0.975533 0.402785 0.585663
O O8 0.151155 0.247502 0.670778
O O9 0.763635 0.447770 0.862418
#
# Coordination Sequence:
#
# PCOD9299325 Si02
#       5
#     8   4   8   8   8
#     4  10  24  49  80 114 163 221 263 328 420 494
#     4  10  24  48  78 106 162 218 250 318 420 478
#     4  11  27  50  84 117 163 212 275 336 412 484
#     4  10  24  49  75 113 165 210 263 330 413 482
#     4  12  27  50  82 123 158 209 279 344 394 488
#
# _framework density 28.934180000000001
#
# number of rings (size 3 to 8) (size 9 to 14) (size 15 to 20)
#    0.000    1.333    0.000    2.667    9.333    6.222 
#   24.000    0.000    0.000    0.000    0.000    0.000 
#    0.000    0.000    0.000    0.000    0.000    0.000 
#
# Total GULP energy -100755.996110 kJ/mol
# GULP energy per Si atom -5597.555339 kJ/mol
# Density = 2.886832 g / cm^3
# Si number density = 28.934180 Si / 1000 Ang^3
#
#
#
# Elastic Constant Matrix: (Units=GPa)
#
#
# Indices 1 2 3 4 5 6 
#
# 1 273.8529 83.6760 75.0587 0.0000 -17.1492 0.0000
# 2 83.6760 155.1294 61.5203 0.0000 -6.1152 0.0000
# 3 75.0587 61.5203 208.8308 0.0000 -20.7961 0.0000
# 4 0.0000 0.0000 0.0000 46.8160 0.0000 4.9356
# 5 -17.1492 -6.1152 -20.7961 0.0000 45.7243 0.0000
# 6 0.0000 0.0000 0.0000 4.9356 0.0000 27.7011
#
#
#
# Elastic Compliance Matrix: (Units=1/GPa)
#
#
# Indices 1 2 3 4 5 6 
#
# 1 0.004607 -0.002070 -0.000944 0.000000 0.001022 0.000000
# 2 -0.002070 0.008229 -0.001726 0.000000 -0.000461 0.000000
# 3 -0.000944 -0.001726 0.005843 0.000000 0.002072 0.000000
# 4 0.000000 0.000000 0.000000 0.021769 0.000000 -0.003879
# 5 0.001022 -0.000461 0.002072 0.000000 0.023134 0.000000
# 6 0.000000 0.000000 0.000000 -0.003879 0.000000 0.036791
#
#
# Mechanical properties :
#
#
# Convention : Reuss Voigt Hill
#
# Bulk Modulus (GPa) = 108.72065 119.81368 114.26717
# Shear Modulus (GPa) = 44.27906 51.88548 48.08227
#
# Velocity S-wave (km/s) = 3.91620 4.23924 4.08092
# Velocity P-wave (km/s) = 7.62270 8.09077 7.86022
#
# Compressibility (1/GPa) = 0.00919788
#
# Stress axis : x y z
#
# Youngs Moduli (GPa) = 217.06450 121.51767 171.15025
#
# Poissons Ratio (x) = 0.25157 0.16161
# Poissons Ratio (y) = 0.44937 0.29542
# Poissons Ratio (z) = 0.20496 0.20975
#
# Static dielectric constant tensor:
#      x y z
#    x 2.280740 0.000000 0.039480 
#    y 0.000000 2.333880 0.000000 
#    z 0.039480 0.000000 2.425260 
# 
# From -- ./inp_files/172621.got.cif
#   From: 2010.05.17/outbox.cif.g08.bks.cpg/sg15_87_cif.got.tgz:172621.got - 2010.06.03 18:47:42.
