data_PCOD9299456
_publ_section_title
;
Structure prediction by ZEFSAII (Michael W. Deem and Ramdas Pophale) SiO2 
 PCOD9299456
Probable space group: C 2/C
;
_chemical_formula_sum "Si O2"
_cell_formula_units_Z 32
_cell_length_a 5.421188
_cell_length_b 8.986504
_cell_length_c 29.602737
_cell_angle_alpha 90.000000
_cell_angle_beta 79.917570
_cell_angle_gamma 90.000000
_cell_volume 1419.900565
_symmetry_space_group_name_H-M "C 2/C"
_symmetry_group_IT_number 15
_symmetry_cell_setting 'monoclinic'
loop_
_space_group_symop_operation_xyz
x,y,z
-x,y,1/2-z
-x,-y,-z
x,-y,1/2+z
1/2+x,1/2+y,z
1/2-x,1/2+y,1/2-z
1/2-x,1/2-y,-z
1/2+x,1/2-y,1/2+z
loop_
_atom_site_type_symbol
_atom_site_label
_atom_site_fract_x
_atom_site_fract_y
_atom_site_fract_z
Si Si1 0.899106 0.631957 0.839899
Si Si2 0.199450 0.419173 0.880646
Si Si3 0.899742 0.081464 0.202698
Si Si4 0.266970 0.419841 0.982988
O O1 0.686610 0.748686 0.863784
O O2 0.834789 0.520334 0.801301
O O3 0.963884 0.524565 0.879692
O O4 0.108181 0.748559 0.814832
O O5 0.394997 0.484038 0.838304
O O6 0.298748 0.421368 0.927859
O O7 0.000000 0.078637 0.250000
O O8 0.500000 0.500000 0.000000
O O9 0.250000 0.250000 0.000000
O O10 0.000000 0.500000 0.000000
#
# Coordination Sequence:
#
# PCOD9299456 Si02
#       4
#     8   8   8   8
#     4  10  25  40  67  94 134 171 226 266 351 388
#     4  10  26  42  70  94 138 172 226 281 339 408
#     4  10  26  40  68  95 134 172 223 272 341 404
#     4  12  28  47  74 106 141 187 238 291 355 417
#
# _framework density 22.536788999999999
#
# number of rings (size 3 to 8) (size 9 to 14) (size 15 to 20)
#    1.500    0.000    0.000    2.250   14.000    0.000 
#    0.000    0.000    0.000    0.000    0.000    0.000 
#    0.000    0.000    0.000    0.000    0.000    0.000 
#
# Total GULP energy -89156.087285 kJ/mol
# GULP energy per Si atom -5572.255455 kJ/mol
# Density = 2.248549 g / cm^3
# Si number density = 22.536789 Si / 1000 Ang^3
#
#
#
# Elastic Constant Matrix: (Units=GPa)
#
#
# Indices 1 2 3 4 5 6 
#
# 1 83.7189 85.0142 34.4731 0.0000 22.2063 0.0000
# 2 85.0142 222.0386 67.4625 0.0000 41.4457 0.0000
# 3 34.4731 67.4625 170.6577 0.0000 37.1816 0.0000
# 4 0.0000 0.0000 0.0000 55.9456 0.0000 4.2397
# 5 22.2063 41.4457 37.1816 0.0000 41.7395 0.0000
# 6 0.0000 0.0000 0.0000 4.2397 0.0000 56.0609
#
#
#
# Elastic Compliance Matrix: (Units=1/GPa)
#
#
# Indices 1 2 3 4 5 6 
#
# 1 0.020055 -0.006877 -0.000615 0.000000 -0.003293 0.000000
# 2 -0.006877 0.008102 -0.001065 0.000000 -0.003438 0.000000
# 3 -0.000615 -0.001065 0.007573 0.000000 -0.005362 0.000000
# 4 0.000000 0.000000 0.000000 0.017978 0.000000 -0.001360
# 5 -0.003293 -0.003438 -0.005362 0.000000 0.033900 0.000000
# 6 0.000000 0.000000 0.000000 -0.001360 0.000000 0.017941
#
#
# Mechanical properties :
#
#
# Convention : Reuss Voigt Hill
#
# Bulk Modulus (GPa) = 53.71621 94.47942 74.09781
# Shear Modulus (GPa) = 38.79970 50.04688 44.42329
#
# Velocity S-wave (km/s) = 4.15374 4.71752 4.44458
# Velocity P-wave (km/s) = 6.84773 8.46679 7.69993
#
# Compressibility (1/GPa) = 0.01861635
#
# Stress axis : x y z
#
# Youngs Moduli (GPa) = 49.86288 123.42639 132.04936
#
# Poissons Ratio (x) = 0.84882 0.08122
# Poissons Ratio (y) = 0.34291 0.14058
# Poissons Ratio (z) = 0.03067 0.13140
#
# Static dielectric constant tensor:
#      x y z
#    x 1.558090 0.000000 0.132050 
#    y 0.000000 1.817740 0.000000 
#    z 0.132050 0.000000 1.776390 
# 
# From -- ./inp_files/304614.got.cif
#   From: 2010.05.17/outbox.cif.g08.bks.cpg/sg15_153_cif.got.tgz:304614.got - 2010.06.03 18:47:42.
