data_PCOD9299481
_publ_section_title
;
Structure prediction by ZEFSAII (Michael W. Deem and Ramdas Pophale) SiO2 
 PCOD9299481
Probable space group: C 2/C
;
_chemical_formula_sum "Si O2"
_cell_formula_units_Z 40
_cell_length_a 11.546898
_cell_length_b 8.955686
_cell_length_c 16.302479
_cell_angle_alpha 90.000000
_cell_angle_beta 66.101067
_cell_angle_gamma 90.000000
_cell_volume 1541.303870
_symmetry_space_group_name_H-M "C 2/C"
_symmetry_group_IT_number 15
_symmetry_cell_setting 'monoclinic'
loop_
_space_group_symop_operation_xyz
x,y,z
-x,y,1/2-z
-x,-y,-z
x,-y,1/2+z
1/2+x,1/2+y,z
1/2-x,1/2+y,1/2-z
1/2-x,1/2-y,-z
1/2+x,1/2-y,1/2+z
loop_
_atom_site_type_symbol
_atom_site_label
_atom_site_fract_x
_atom_site_fract_y
_atom_site_fract_z
Si Si1 0.141502 0.434421 0.746211
Si Si2 0.191858 0.808246 0.334700
Si Si3 0.925527 0.123127 0.967116
Si Si4 0.930531 0.374956 0.076423
Si Si5 0.089508 0.139249 0.142788
O O1 0.196375 0.270773 0.745059
O O2 0.250997 0.528058 0.670039
O O3 0.132492 0.526979 0.833911
O O4 0.000000 0.438313 0.750000
O O5 0.045110 0.793316 0.393586
O O6 0.281286 0.713470 0.366651
O O7 0.873076 0.015575 0.911648
O O8 0.859448 0.254904 0.037186
O O9 0.000000 0.000000 0.000000
O O10 0.021733 0.259324 0.101835
O O11 0.000000 0.500000 0.000000
O O12 0.000000 0.118297 0.250000
#
# Coordination Sequence:
#
# PCOD9299481 Si02
#       5
#     8   8   8   8   8
#     4  12  26  47  71 102 139 181 239 288 335 431
#     4  12  24  44  76  99 133 195 230 276 365 405
#     4  10  25  41  70 101 140 177 230 290 343 412
#     4  11  21  46  66  99 147 176 218 303 342 392
#     4  11  22  46  72  99 141 185 234 288 338 422
#
# _framework density 25.952051999999998
#
# number of rings (size 3 to 8) (size 9 to 14) (size 15 to 20)
#    0.000    0.800    6.000    1.200    2.800    5.600 
#    0.000    1.000    0.000    0.000    0.000    0.000 
#    0.000    0.000    0.000    0.000    0.000    0.000 
#
# Total GULP energy -111678.105610 kJ/mol
# GULP energy per Si atom -5583.905281 kJ/mol
# Density = 2.589298 g / cm^3
# Si number density = 25.952052 Si / 1000 Ang^3
#
#
#
# Elastic Constant Matrix: (Units=GPa)
#
#
# Indices 1 2 3 4 5 6 
#
# 1 39.6274 14.0254 0.7256 0.0000 6.7779 0.0000
# 2 14.0254 143.4744 35.1634 0.0000 12.2322 0.0000
# 3 0.7256 35.1634 78.8129 0.0000 12.5513 0.0000
# 4 0.0000 0.0000 0.0000 49.7477 0.0000 -11.3813
# 5 6.7779 12.2322 12.5513 0.0000 21.6112 0.0000
# 6 0.0000 0.0000 0.0000 -11.3813 0.0000 24.4877
#
#
#
# Elastic Compliance Matrix: (Units=1/GPa)
#
#
# Indices 1 2 3 4 5 6 
#
# 1 0.027538 -0.002511 0.002221 0.000000 -0.008505 0.000000
# 2 -0.002511 0.008194 -0.003327 0.000000 -0.001918 0.000000
# 3 0.002221 -0.003327 0.015387 0.000000 -0.007750 0.000000
# 4 0.000000 0.000000 0.000000 0.022493 0.000000 0.010454
# 5 -0.008505 -0.001918 -0.007750 0.000000 0.054526 0.000000
# 6 0.000000 0.000000 0.000000 0.010454 0.000000 0.045696
#
#
# Mechanical properties :
#
#
# Convention : Reuss Voigt Hill
#
# Bulk Modulus (GPa) = 22.78714 40.19372 31.49043
# Shear Modulus (GPa) = 25.54972 33.30268 29.42620
#
# Velocity S-wave (km/s) = 3.14107 3.58612 3.37095
# Velocity P-wave (km/s) = 4.68558 5.71562 5.22604
#
# Compressibility (1/GPa) = 0.04388440
#
# Stress axis : x y z
#
# Youngs Moduli (GPa) = 36.31342 122.03437 64.99178
#
# Poissons Ratio (x) = 0.30646 -0.14438
# Poissons Ratio (y) = 0.09119 0.21626
# Poissons Ratio (z) = -0.08067 0.40607
#
# Static dielectric constant tensor:
#      x y z
#    x 2.017140 0.000000 0.035950 
#    y 0.000000 2.140680 0.000000 
#    z 0.035950 0.000000 2.128630 
# 
# From -- ./inp_files/195111.got.cif
#   From: 2010.05.17/outbox.cif.g08.bks.cpg/sg15_98_cif.got.tgz:195111.got - 2010.06.03 18:47:42.
