data_PCOD9299801
_publ_section_title
;
Structure prediction by ZEFSAII (Michael W. Deem and Ramdas Pophale) SiO2 
 PCOD9299801
Probable space group: C 2/C
;
_chemical_formula_sum "Si O2"
_cell_formula_units_Z 36
_cell_length_a 23.794205
_cell_length_b 6.068672
_cell_length_c 18.331246
_cell_angle_alpha 90.000000
_cell_angle_beta 148.591641
_cell_angle_gamma 90.000000
_cell_volume 1379.451340
_symmetry_space_group_name_H-M "C 2/C"
_symmetry_group_IT_number 15
_symmetry_cell_setting 'monoclinic'
loop_
_space_group_symop_operation_xyz
x,y,z
-x,y,1/2-z
-x,-y,-z
x,-y,1/2+z
1/2+x,1/2+y,z
1/2-x,1/2+y,1/2-z
1/2-x,1/2-y,-z
1/2+x,1/2-y,1/2+z
loop_
_atom_site_type_symbol
_atom_site_label
_atom_site_fract_x
_atom_site_fract_y
_atom_site_fract_z
Si Si1 0.177739 0.865696 0.482021
Si Si2 0.404834 0.701389 0.226522
Si Si3 0.220744 0.919334 0.298645
Si Si4 0.000000 0.419962 0.750000
Si Si5 0.927302 0.329280 0.966298
O O1 0.250000 0.750000 0.500000
O O2 0.249396 0.820021 0.632408
O O3 0.070016 0.727289 0.380705
O O4 0.124883 0.071225 0.381564
O O5 0.316651 0.599565 0.182834
O O6 0.415638 0.942104 0.203636
O O7 0.510137 0.718189 0.395877
O O8 0.121941 0.866981 0.136599
O O9 0.324399 0.027547 0.377284
O O10 0.000000 0.500000 0.000000
#
# Coordination Sequence:
#
# PCOD9299801 Si02
#       5
#     8   8   8   4   8
#     4  10  25  46  72 106 151 193 255 317 377 452
#     4  11  26  47  78 111 152 197 259 314 389 447
#     4  11  26  50  75 115 154 204 258 318 381 470
#     4  12  24  46  76 112 146 200 248 322 384 450
#     4  12  27  49  79 111 159 205 258 311 392 460
#
# _framework density 26.097332000000002
#
# number of rings (size 3 to 8) (size 9 to 14) (size 15 to 20)
#    0.000    0.889    2.222    2.667    6.222    8.889 
#    4.000    0.000    0.000    0.000    0.000    0.000 
#    0.000    0.000    0.000    0.000    0.000    0.000 
#
# Total GULP energy -100428.801208 kJ/mol
# GULP energy per Si atom -5579.377845 kJ/mol
# Density = 2.603793 g / cm^3
# Si number density = 26.097332 Si / 1000 Ang^3
#
#
#
# Elastic Constant Matrix: (Units=GPa)
#
#
# Indices 1 2 3 4 5 6 
#
# 1 144.3695 63.5403 41.1772 0.0000 12.3173 0.0000
# 2 63.5403 87.2124 55.4599 0.0001 14.8114 0.0001
# 3 41.1772 55.4599 164.4796 0.0000 -14.5862 0.0000
# 4 0.0000 0.0001 0.0000 39.3247 0.0000 4.2091
# 5 12.3173 14.8114 -14.5862 0.0000 40.8477 0.0000
# 6 0.0000 0.0001 0.0000 4.2091 0.0000 32.0558
#
#
#
# Elastic Compliance Matrix: (Units=1/GPa)
#
#
# Indices 1 2 3 4 5 6 
#
# 1 0.010205 -0.007252 -0.000154 0.000000 -0.000503 0.000000
# 2 -0.007252 0.022197 -0.006391 0.000000 -0.008144 0.000000
# 3 -0.000154 -0.006391 0.008761 0.000000 0.005492 0.000000
# 4 0.000000 0.000000 0.000000 0.025792 0.000000 -0.003387
# 5 -0.000503 -0.008144 0.005492 0.000000 0.029547 0.000000
# 6 0.000000 0.000000 0.000000 -0.003387 0.000000 0.031640
#
#
# Mechanical properties :
#
#
# Convention : Reuss Voigt Hill
#
# Bulk Modulus (GPa) = 73.70140 79.60183 76.65162
# Shear Modulus (GPa) = 31.19944 38.17126 34.68535
#
# Velocity S-wave (km/s) = 3.46136 3.82861 3.64960
# Velocity P-wave (km/s) = 6.65409 7.07902 6.86984
#
# Compressibility (1/GPa) = 0.01356826
#
# Stress axis : x y z
#
# Youngs Moduli (GPa) = 97.98908 45.05099 114.14852
#
# Poissons Ratio (x) = 0.32669 0.01762
# Poissons Ratio (y) = 0.71058 0.72956
# Poissons Ratio (z) = 0.01512 0.28793
#
# Static dielectric constant tensor:
#      x y z
#    x 2.033040 0.000000 0.002150 
#    y 0.000000 2.141990 0.000000 
#    z 0.002150 0.000000 2.077350 
# 
# From -- ./inp_files/256829.got.cif
#   From: 2010.05.17/outbox.cif.g08.bks.cpg/sg15_129_cif.got.tgz:256829.got - 2010.06.03 18:47:42.
