data_PCOD9299168
_publ_section_title
;
Structure prediction by ZEFSAII (Michael W. Deem and Ramdas Pophale) SiO2 
 PCOD9299168
Probable space group: C 2/C
;
_chemical_formula_sum "Si O2"
_cell_formula_units_Z 60
_cell_length_a 17.753345
_cell_length_b 18.988324
_cell_length_c 15.722126
_cell_angle_alpha 90.000000
_cell_angle_beta 149.761902
_cell_angle_gamma 90.000000
_cell_volume 2669.064669
_symmetry_space_group_name_H-M "C 2/C"
_symmetry_group_IT_number 15
_symmetry_cell_setting 'monoclinic'
loop_
_space_group_symop_operation_xyz
x,y,z
-x,y,1/2-z
-x,-y,-z
x,-y,1/2+z
1/2+x,1/2+y,z
1/2-x,1/2+y,1/2-z
1/2-x,1/2-y,-z
1/2+x,1/2-y,1/2+z
loop_
_atom_site_type_symbol
_atom_site_label
_atom_site_fract_x
_atom_site_fract_y
_atom_site_fract_z
Si Si1 0.464428 0.580496 0.437504
Si Si2 0.216397 0.213636 0.876805
Si Si3 0.741849 0.437622 0.613289
Si Si4 0.000000 0.888121 0.250000
Si Si5 0.969646 0.331010 0.892504
Si Si6 0.727880 0.395718 0.089104
Si Si7 0.507044 0.200140 0.884516
Si Si8 0.659767 0.657145 0.338221
O O1 0.500000 0.500000 0.500000
O O2 0.356075 0.600401 0.408149
O O3 0.619429 0.619977 0.564788
O O4 0.372039 0.594251 0.260543
O O5 0.149726 0.273584 0.753650
O O6 0.083184 0.158851 0.761175
O O7 0.250000 0.250000 0.000000
O O8 0.368057 0.181639 0.989365
O O9 0.639692 0.426253 0.430342
O O10 0.902636 0.402798 0.786940
O O11 0.755152 0.521551 0.628442
O O12 0.981554 0.316831 0.004175
O O13 0.882413 0.355501 0.235483
O O14 0.351003 0.374220 0.576841
O O15 0.441364 0.275879 0.790752
O O16 0.670916 0.186381 0.006811
#
# Coordination Sequence:
#
# PCOD9299168 Si02
#       8
#     8   8   8   4   8   8   8   8
#     4  10  24  47  73 102 145 189 239 303 359 443
#     4  12  23  43  69 102 146 186 233 308 364 441
#     4  11  26  48  71 107 145 193 246 296 367 447
#     4  12  26  42  74 102 142 188 240 298 368 434
#     4  12  24  45  72 105 146 187 249 300 374 437
#     4  11  27  49  71 105 146 195 244 301 370 435
#     4  12  27  47  78 108 144 196 243 316 362 438
#     4  12  25  49  76 110 147 191 251 303 372 439
#
# _framework density 22.479786000000001
#
# number of rings (size 3 to 8) (size 9 to 14) (size 15 to 20)
#    0.000    0.533    4.000    2.800    7.467    1.600 
#    4.800    0.000    0.000    0.000    0.000    0.000 
#    0.000    0.000    0.000    0.000    0.000    0.000 
#
# Total GULP energy -167527.144328 kJ/mol
# GULP energy per Si atom -5584.238144 kJ/mol
# Density = 2.242862 g / cm^3
# Si number density = 22.479786 Si / 1000 Ang^3
#
#
#
# Elastic Constant Matrix: (Units=GPa)
#
#
# Indices 1 2 3 4 5 6 
#
# 1 105.1536 42.2255 46.1100 0.0001 0.9318 0.0000
# 2 42.2255 113.8958 63.9473 0.0001 5.6140 0.0000
# 3 46.1100 63.9473 141.7681 0.0003 -4.9482 0.0001
# 4 0.0001 0.0001 0.0003 -19.8316 0.0002 -3.3123
# 5 0.9318 5.6140 -4.9482 0.0002 57.3470 0.0001
# 6 0.0000 0.0000 0.0001 -3.3123 0.0001 25.3692
#
#
#
# Elastic Compliance Matrix: (Units=1/GPa)
#
#
# Indices 1 2 3 4 5 6 
#
# 1 0.011799 -0.002962 -0.002506 0.000000 -0.000118 0.000000
# 2 -0.002962 0.012652 -0.004800 0.000000 -0.001605 0.000000
# 3 -0.002506 -0.004800 0.010082 0.000000 0.001380 0.000000
# 4 0.000000 0.000000 0.000000 -0.049349 0.000000 -0.006443
# 5 -0.000118 -0.001605 0.001380 0.000000 0.017716 0.000000
# 6 0.000000 0.000000 0.000000 -0.006443 0.000000 0.038577
#
#
# Mechanical properties :
#
#
# Convention : Reuss Voigt Hill
#
# Bulk Modulus (GPa) = 71.43544 73.93144 72.68344
# Shear Modulus (GPa) = 74.98847 26.47925 50.73386
#
# Velocity S-wave (km/s) = 5.78192 3.43580 4.75580
# Velocity P-wave (km/s) = 8.74190 6.97846 7.90948
#
# Compressibility (1/GPa) = 0.01399865
#
# Stress axis : x y z
#
# Youngs Moduli (GPa) = 84.75274 79.04032 99.18748
#
# Poissons Ratio (x) = 0.23409 0.24855
# Poissons Ratio (y) = 0.25100 0.47606
# Poissons Ratio (z) = 0.21238 0.37936
#
# Static dielectric constant tensor:
#      x y z
#    x 1.855220 0.000000 0.019230 
#    y 0.000000 1.866160 0.000000 
#    z 0.019230 0.000000 2.045370 
# 
# From -- ./inp_files/256124.got.cif
#   From: 2010.05.17/outbox.cif.g08.bks.cpg/sg15_129_cif.got.tgz:256124.got - 2010.06.03 18:47:42.
