data_PCOD9299445
_publ_section_title
;
Structure prediction by ZEFSAII (Michael W. Deem and Ramdas Pophale) SiO2 
 PCOD9299445
Probable space group: C 2/C
;
_chemical_formula_sum "Si O2"
_cell_formula_units_Z 32
_cell_length_a 5.813970
_cell_length_b 7.977722
_cell_length_c 27.069099
_cell_angle_alpha 90.000000
_cell_angle_beta 84.033058
_cell_angle_gamma 90.000000
_cell_volume 1248.722962
_symmetry_space_group_name_H-M "C 2/C"
_symmetry_group_IT_number 15
_symmetry_cell_setting 'monoclinic'
loop_
_space_group_symop_operation_xyz
x,y,z
-x,y,1/2-z
-x,-y,-z
x,-y,1/2+z
1/2+x,1/2+y,z
1/2-x,1/2+y,1/2-z
1/2-x,1/2-y,-z
1/2+x,1/2-y,1/2+z
loop_
_atom_site_type_symbol
_atom_site_label
_atom_site_fract_x
_atom_site_fract_y
_atom_site_fract_z
Si Si1 0.849517 0.463411 0.802168
Si Si2 0.009974 0.812836 0.482058
Si Si3 0.914266 0.823882 0.849437
Si Si4 0.346308 0.694041 0.879829
O O1 0.846927 0.639516 0.831156
O O2 0.946819 0.310035 0.833483
O O3 0.000000 0.478253 0.750000
O O4 0.587607 0.398390 0.802751
O O5 0.250000 0.750000 0.500000
O O6 0.013418 0.792017 0.422633
O O7 0.750000 0.750000 0.500000
O O8 0.000000 0.000000 0.500000
O O9 0.093547 0.778427 0.890580
O O10 0.802330 0.999859 0.868560
#
# Coordination Sequence:
#
# PCOD9299445 Si02
#       4
#     8   8   8   8
#     4  10  26  41  71 100 145 192 256 309 382 455
#     4  12  28  50  82 116 157 203 265 324 396 470
#     4  10  25  39  70  96 145 188 249 303 388 445
#     4  10  26  46  72 103 153 193 253 314 392 451
#
# _framework density 25.626180000000002
#
# number of rings (size 3 to 8) (size 9 to 14) (size 15 to 20)
#    1.500    0.000    0.000    2.250   10.500    3.000 
#    0.000    0.000    0.000    0.000    0.000    0.000 
#    0.000    0.000    0.000    0.000    0.000    0.000 
#
# Total GULP energy -89200.778000 kJ/mol
# GULP energy per Si atom -5575.048625 kJ/mol
# Density = 2.556785 g / cm^3
# Si number density = 25.626180 Si / 1000 Ang^3
#
#
#
# Elastic Constant Matrix: (Units=GPa)
#
#
# Indices 1 2 3 4 5 6 
#
# 1 98.5235 92.5573 28.6080 0.0000 18.4333 0.0000
# 2 92.5573 246.9011 43.8228 0.0000 21.3710 0.0000
# 3 28.6080 43.8228 116.5637 0.0000 18.8658 0.0000
# 4 0.0000 0.0000 0.0000 29.1948 0.0000 -7.2376
# 5 18.4333 21.3710 18.8658 0.0000 32.4303 0.0000
# 6 0.0000 0.0000 0.0000 -7.2376 0.0000 45.8015
#
#
#
# Elastic Compliance Matrix: (Units=1/GPa)
#
#
# Indices 1 2 3 4 5 6 
#
# 1 0.016727 -0.005620 -0.001162 0.000000 -0.005128 0.000000
# 2 -0.005620 0.006363 -0.000940 0.000000 -0.000452 0.000000
# 3 -0.001162 -0.000940 0.009947 0.000000 -0.004507 0.000000
# 4 0.000000 0.000000 0.000000 0.035649 0.000000 0.005633
# 5 -0.005128 -0.000452 -0.004507 0.000000 0.036669 0.000000
# 6 0.000000 0.000000 0.000000 0.005633 0.000000 0.022724
#
#
# Mechanical properties :
#
#
# Convention : Reuss Voigt Hill
#
# Bulk Modulus (GPa) = 56.84402 87.99606 72.42004
# Shear Modulus (GPa) = 33.47005 41.28533 37.37769
#
# Velocity S-wave (km/s) = 3.61791 4.01816 3.82327
# Velocity P-wave (km/s) = 6.29940 7.47933 6.91458
#
# Compressibility (1/GPa) = 0.01759200
#
# Stress axis : x y z
#
# Youngs Moduli (GPa) = 59.78482 157.15795 100.53345
#
# Poissons Ratio (x) = 0.88327 0.11685
# Poissons Ratio (y) = 0.33601 0.09447
# Poissons Ratio (z) = 0.06949 0.14768
#
# Static dielectric constant tensor:
#      x y z
#    x 2.333140 0.000000 -0.051940 
#    y 0.000000 1.914520 0.000000 
#    z -0.051940 0.000000 2.090910 
# 
# From -- ./inp_files/304615.got.cif
#   From: 2010.05.17/outbox.cif.g08.bks.cpg/sg15_153_cif.got.tgz:304615.got - 2010.06.03 18:47:42.
