data_PCOD9299624
_publ_section_title
;
Structure prediction by ZEFSAII (Michael W. Deem and Ramdas Pophale) SiO2 
 PCOD9299624
Probable space group: C 2/C
;
_chemical_formula_sum "Si O2"
_cell_formula_units_Z 48
_cell_length_a 8.387143
_cell_length_b 11.571186
_cell_length_c 23.422963
_cell_angle_alpha 90.000000
_cell_angle_beta 101.002753
_cell_angle_gamma 90.000000
_cell_volume 2231.394070
_symmetry_space_group_name_H-M "C 2/C"
_symmetry_group_IT_number 15
_symmetry_cell_setting 'monoclinic'
loop_
_space_group_symop_operation_xyz
x,y,z
-x,y,1/2-z
-x,-y,-z
x,-y,1/2+z
1/2+x,1/2+y,z
1/2-x,1/2+y,1/2-z
1/2-x,1/2-y,-z
1/2+x,1/2-y,1/2+z
loop_
_atom_site_type_symbol
_atom_site_label
_atom_site_fract_x
_atom_site_fract_y
_atom_site_fract_z
Si Si1 0.272446 0.597244 0.280871
Si Si2 0.519081 0.755325 0.367662
Si Si3 0.037774 0.357903 0.663783
Si Si4 0.338348 0.378068 0.340068
Si Si5 0.957540 0.022134 0.062180
Si Si6 0.095704 0.472708 0.065231
O O1 0.400440 0.691825 0.313300
O O2 0.195132 0.621641 0.214386
O O3 0.331808 0.464790 0.286326
O O4 0.120220 0.598301 0.314125
O O5 0.672510 0.813234 0.346052
O O6 0.559319 0.652590 0.415172
O O7 0.448953 0.858415 0.401842
O O8 0.028225 0.220790 0.657411
O O9 0.060655 0.421502 0.605896
O O10 0.396487 0.462825 0.393703
O O11 0.785041 0.965718 0.063813
O O12 0.000000 0.000000 0.000000
O O13 0.000000 0.500000 0.000000
#
# Coordination Sequence:
#
# PCOD9299624 Si02
#       6
#     8   8   8   8   8   8
#     4  10  25  44  69 101 132 182 223 286 344 408
#     4  11  24  45  72  97 137 179 229 280 346 409
#     4  11  24  44  68 100 138 174 230 281 344 407
#     4  11  23  45  68  98 137 175 230 283 344 408
#     4  11  26  44  68 100 134 183 230 283 338 411
#     4  12  26  43  71 101 137 187 228 280 350 410
#
# _framework density 21.511216000000001
#
# number of rings (size 3 to 8) (size 9 to 14) (size 15 to 20)
#    0.000    1.000    3.333    2.000    7.000    2.667 
#    0.000    0.000    0.000    0.000    0.000    0.000 
#    0.000    0.000    0.000    0.000    0.000    0.000 
#
# Total GULP energy -134131.371612 kJ/mol
# GULP energy per Si atom -5588.807150 kJ/mol
# Density = 2.146226 g / cm^3
# Si number density = 21.511216 Si / 1000 Ang^3
#
#
#
# Elastic Constant Matrix: (Units=GPa)
#
#
# Indices 1 2 3 4 5 6 
#
# 1 93.9428 27.9022 30.6048 0.0000 8.1363 0.0000
# 2 27.9022 137.8781 42.8907 0.0000 7.6552 0.0000
# 3 30.6048 42.8907 94.0716 0.0000 9.4878 0.0000
# 4 0.0000 0.0000 0.0000 13.1781 0.0000 4.1076
# 5 8.1363 7.6552 9.4878 0.0000 29.4221 0.0000
# 6 0.0000 0.0000 0.0000 4.1076 0.0000 36.1861
#
#
#
# Elastic Compliance Matrix: (Units=1/GPa)
#
#
# Indices 1 2 3 4 5 6 
#
# 1 0.012258 -0.001388 -0.003152 0.000000 -0.002012 0.000000
# 2 -0.001388 0.008637 -0.003409 0.000000 -0.000764 0.000000
# 3 -0.003152 -0.003409 0.013471 0.000000 -0.002585 0.000000
# 4 0.000000 0.000000 0.000000 0.078667 0.000000 -0.008930
# 5 -0.002012 -0.000764 -0.002585 0.000000 0.035577 0.000000
# 6 0.000000 0.000000 0.000000 -0.008930 0.000000 0.028649
#
#
# Mechanical properties :
#
#
# Convention : Reuss Voigt Hill
#
# Bulk Modulus (GPa) = 54.15177 58.74310 56.44744
# Shear Modulus (GPa) = 25.08623 30.72358 27.90491
#
# Velocity S-wave (km/s) = 3.41866 3.78333 3.60561
# Velocity P-wave (km/s) = 6.38838 6.81559 6.60544
#
# Compressibility (1/GPa) = 0.01846662
#
# Stress axis : x y z
#
# Youngs Moduli (GPa) = 81.57717 115.78581 74.23506
#
# Poissons Ratio (x) = 0.16076 0.23400
# Poissons Ratio (y) = 0.11326 0.25307
# Poissons Ratio (z) = 0.25714 0.39472
#
# Static dielectric constant tensor:
#      x y z
#    x 1.807750 0.000000 -0.016820 
#    y 0.000000 1.847950 0.000000 
#    z -0.016820 0.000000 1.861810 
# 
# From -- ./inp_files/263063.got.cif
#   From: 2010.05.17/outbox.cif.g08.bks.cpg/sg15_132_cif.got.tgz:263063.got - 2010.06.03 18:47:42.
