data_PCOD9299220
_publ_section_title
;
Structure prediction by ZEFSAII (Michael W. Deem and Ramdas Pophale) SiO2 
 PCOD9299220
Probable space group: C 2/C
;
_chemical_formula_sum "Si O2"
_cell_formula_units_Z 48
_cell_length_a 14.433317
_cell_length_b 20.970157
_cell_length_c 8.101928
_cell_angle_alpha 90.000000
_cell_angle_beta 47.669429
_cell_angle_gamma 90.000000
_cell_volume 1812.843889
_symmetry_space_group_name_H-M "C 2/C"
_symmetry_group_IT_number 15
_symmetry_cell_setting 'monoclinic'
loop_
_space_group_symop_operation_xyz
x,y,z
-x,y,1/2-z
-x,-y,-z
x,-y,1/2+z
1/2+x,1/2+y,z
1/2-x,1/2+y,1/2-z
1/2-x,1/2-y,-z
1/2+x,1/2-y,1/2+z
loop_
_atom_site_type_symbol
_atom_site_label
_atom_site_fract_x
_atom_site_fract_y
_atom_site_fract_z
Si Si1 0.000000 0.398869 0.750000
Si Si2 0.841148 0.928682 0.166462
Si Si3 0.867401 0.287755 0.793171
Si Si4 0.079910 0.569876 0.814114
Si Si5 0.227689 0.679845 0.449119
Si Si6 0.500345 0.307899 0.568830
Si Si7 0.500000 0.478881 0.250000
O O1 0.112447 0.347391 0.609960
O O2 0.988893 0.428739 0.582714
O O3 0.706120 0.952149 0.262847
O O4 0.888594 0.938906 0.296893
O O5 0.882704 0.856261 0.076776
O O6 0.933163 0.973772 0.954812
O O7 0.836599 0.314134 0.649834
O O8 0.982719 0.240822 0.601855
O O9 0.750000 0.250000 0.000000
O O10 0.141308 0.634773 0.664502
O O11 0.000000 0.545016 0.750000
O O12 0.250000 0.750000 0.500000
O O13 0.368056 0.655216 0.231678
O O14 0.500000 0.275605 0.750000
#
# Coordination Sequence:
#
# PCOD9299220 Si02
#       7
#     4   8   8   8   8   8   4
#     4  12  26  41  62  98 148 200 248 283 334 402
#     4  11  23  48  74 108 135 172 229 301 379 440
#     4  12  24  38  58  97 143 189 246 291 332 402
#     4  12  25  47  69 102 147 196 240 289 353 431
#     4  12  22  37  64  90 139 193 240 291 335 396
#     4  12  22  38  65  96 136 183 238 291 352 414
#     4  10  24  47  82 106 134 162 222 315 390 448
#
# _framework density 26.477736
#
# number of rings (size 3 to 8) (size 9 to 14) (size 15 to 20)
#    0.000    0.333    5.833    4.000    0.000    3.333 
#    6.000    0.833    0.000    0.000    0.000    0.000 
#    0.000    0.000    0.000    0.000    0.000    0.000 
#
# Total GULP energy -133925.806405 kJ/mol
# GULP energy per Si atom -5580.241934 kJ/mol
# Density = 2.641747 g / cm^3
# Si number density = 26.477736 Si / 1000 Ang^3
#
#
#
# Elastic Constant Matrix: (Units=GPa)
#
#
# Indices 1 2 3 4 5 6 
#
# 1 169.0396 25.8022 30.3336 0.0000 13.1064 0.0000
# 2 25.8022 35.8372 21.4494 0.0000 13.8736 0.0000
# 3 30.3336 21.4494 111.4742 0.0000 13.6132 0.0000
# 4 0.0000 0.0000 0.0000 -21.0506 0.0000 -5.1622
# 5 13.1064 13.8736 13.6132 0.0000 66.7017 0.0000
# 6 0.0000 0.0000 0.0000 -5.1622 0.0000 35.6599
#
#
#
# Elastic Compliance Matrix: (Units=1/GPa)
#
#
# Indices 1 2 3 4 5 6 
#
# 1 0.006751 -0.004160 -0.001005 0.000000 -0.000256 0.000000
# 2 -0.004160 0.036162 -0.005136 0.000000 -0.005656 0.000000
# 3 -0.001005 -0.005136 0.010335 0.000000 -0.000844 0.000000
# 4 0.000000 0.000000 0.000000 -0.045876 0.000000 -0.006641
# 5 -0.000256 -0.005656 -0.000844 0.000000 0.016391 0.000000
# 6 0.000000 0.000000 0.000000 -0.006641 0.000000 0.027081
#
#
# Mechanical properties :
#
#
# Convention : Reuss Voigt Hill
#
# Bulk Modulus (GPa) = 30.63026 52.39126 41.51076
# Shear Modulus (GPa) = 60.73200 32.17991 46.45595
#
# Velocity S-wave (km/s) = 4.79446 3.48998 4.19325
# Velocity P-wave (km/s) = 6.49942 6.00581 6.25749
#
# Compressibility (1/GPa) = 0.03264746
#
# Stress axis : x y z
#
# Youngs Moduli (GPa) = 148.12662 27.65308 96.75438
#
# Poissons Ratio (x) = 0.11503 0.09727
# Poissons Ratio (y) = 0.61617 0.49689
# Poissons Ratio (z) = 0.14892 0.14201
#
# Static dielectric constant tensor:
#      x y z
#    x 2.316500 0.000000 -0.084830 
#    y 0.000000 2.146500 0.000000 
#    z -0.084830 0.000000 2.102960 
# 
# From -- ./inp_files/43872.got.cif
#   From: 2010.05.17/outbox.cif.g08.bks.cpg/sg15_22_cif.got.tgz:43872.got - 2010.06.03 18:47:42.
