data_PCOD9299909
_publ_section_title
;
Structure prediction by ZEFSAII (Michael W. Deem and Ramdas Pophale) SiO2 
 PCOD9299909
Probable space group: C 2/C
;
_chemical_formula_sum "Si O2"
_cell_formula_units_Z 44
_cell_length_a 6.072233
_cell_length_b 26.580144
_cell_length_c 14.734014
_cell_angle_alpha 90.000000
_cell_angle_beta 120.470809
_cell_angle_gamma 90.000000
_cell_volume 2049.639501
_symmetry_space_group_name_H-M "C 2/C"
_symmetry_group_IT_number 15
_symmetry_cell_setting 'monoclinic'
loop_
_space_group_symop_operation_xyz
x,y,z
-x,y,1/2-z
-x,-y,-z
x,-y,1/2+z
1/2+x,1/2+y,z
1/2-x,1/2+y,1/2-z
1/2-x,1/2-y,-z
1/2+x,1/2-y,1/2+z
loop_
_atom_site_type_symbol
_atom_site_label
_atom_site_fract_x
_atom_site_fract_y
_atom_site_fract_z
Si Si1 0.789685 0.161516 0.020518
Si Si2 0.500000 0.293665 0.250000
Si Si3 0.500000 0.011969 0.250000
Si Si4 0.500000 0.461623 0.250000
Si Si5 0.054507 0.247915 0.581924
Si Si6 0.289941 0.879415 0.419723
Si Si7 0.702609 0.889593 0.864766
O O1 0.679583 0.202387 0.067355
O O2 0.025493 0.131049 0.109097
O O3 0.854422 0.197543 0.949845
O O4 0.581656 0.120274 0.948217
O O5 0.372590 0.258698 0.298174
O O6 0.678125 0.330320 0.345860
O O7 0.741635 0.986901 0.243681
O O8 0.351332 0.050802 0.152162
O O9 0.621219 0.425912 0.352784
O O10 0.750000 0.250000 0.500000
O O11 0.306995 0.875353 0.531647
O O12 0.500000 0.867994 0.750000
#
# Coordination Sequence:
#
# PCOD9299909 Si02
#       7
#     8   4   4   4   8   8   8
#     4  11  23  46  72 101 143 206 250 300 382 436
#     4  11  22  46  67 106 152 186 252 311 370 435
#     4  10  28  50  77 117 150 197 252 319 400 462
#     4  11  28  50  80 119 148 193 250 326 398 461
#     4  11  23  46  65 106 147 192 252 309 355 449
#     4  11  25  46  77 105 149 194 251 311 382 458
#     4  10  25  48  72 104 153 193 254 308 382 460
#
# _framework density 21.467188
#
# number of rings (size 3 to 8) (size 9 to 14) (size 15 to 20)
#    0.545    0.727    3.636    0.000    5.091    2.909 
#    9.818    0.000    0.000    0.000    0.000    0.000 
#    0.000    0.000    0.000    0.000    0.000    0.000 
#
# Total GULP energy -122523.517260 kJ/mol
# GULP energy per Si atom -5569.250785 kJ/mol
# Density = 2.141833 g / cm^3
# Si number density = 21.467188 Si / 1000 Ang^3
#
#
#
# Elastic Constant Matrix: (Units=GPa)
#
#
# Indices 1 2 3 4 5 6 
#
# 1 136.9314 63.7158 58.9757 0.0000 12.3149 0.0000
# 2 63.7158 78.9189 40.5472 0.0000 7.1713 0.0000
# 3 58.9757 40.5472 146.9628 0.0000 -5.8562 0.0000
# 4 0.0000 0.0000 0.0000 -24.7111 0.0000 43.4205
# 5 12.3149 7.1713 -5.8562 0.0000 46.7719 0.0000
# 6 0.0000 0.0000 0.0000 43.4205 0.0000 24.8103
#
#
#
# Elastic Compliance Matrix: (Units=1/GPa)
#
#
# Indices 1 2 3 4 5 6 
#
# 1 0.012749 -0.008620 -0.002833 0.000000 -0.002390 0.000000
# 2 -0.008620 0.020964 -0.002374 0.000000 -0.001242 0.000000
# 3 -0.002833 -0.002374 0.008684 0.000000 0.002197 0.000000
# 4 0.000000 0.000000 0.000000 -0.009930 0.000000 0.017379
# 5 -0.002390 -0.001242 0.002197 0.000000 0.022475 0.000000
# 6 0.000000 0.000000 0.000000 0.017379 0.000000 0.009891
#
#
# Mechanical properties :
#
#
# Convention : Reuss Voigt Hill
#
# Bulk Modulus (GPa) = 67.83489 76.58785 72.21137
# Shear Modulus (GPa) = 51.33417 22.67919 37.00668
#
# Velocity S-wave (km/s) = 4.89538 3.25385 4.15646
# Velocity P-wave (km/s) = 7.97627 7.06193 7.53299
#
# Compressibility (1/GPa) = 0.01474168
#
# Stress axis : x y z
#
# Youngs Moduli (GPa) = 78.43604 47.70176 115.15584
#
# Poissons Ratio (x) = 0.41121 0.32624
# Poissons Ratio (y) = 0.67615 0.27338
# Poissons Ratio (z) = 0.22221 0.11324
#
# Static dielectric constant tensor:
#      x y z
#    x 1.945470 0.000000 0.008880 
#    y 0.000000 1.787350 0.000000 
#    z 0.008880 0.000000 1.779020 
# 
# From -- ./inp_files/130536.got.cif
#   From: 2010.05.17/outbox.cif.g08.bks.cpg/sg15_66_cif.got.tgz:130536.got - 2010.06.03 18:47:42.
