data_PCOD9299298
_publ_section_title
;
Structure prediction by ZEFSAII (Michael W. Deem and Ramdas Pophale) SiO2 
 PCOD9299298
Probable space group: C 2/C
;
_chemical_formula_sum "Si O2"
_cell_formula_units_Z 32
_cell_length_a 16.284512
_cell_length_b 10.554386
_cell_length_c 18.104815
_cell_angle_alpha 90.000000
_cell_angle_beta 22.992215
_cell_angle_gamma 90.000000
_cell_volume 1215.460309
_symmetry_space_group_name_H-M "C 2/C"
_symmetry_group_IT_number 15
_symmetry_cell_setting 'monoclinic'
loop_
_space_group_symop_operation_xyz
x,y,z
-x,y,1/2-z
-x,-y,-z
x,-y,1/2+z
1/2+x,1/2+y,z
1/2-x,1/2+y,1/2-z
1/2-x,1/2-y,-z
1/2+x,1/2-y,1/2+z
loop_
_atom_site_type_symbol
_atom_site_label
_atom_site_fract_x
_atom_site_fract_y
_atom_site_fract_z
Si Si1 0.738714 0.452151 0.301848
Si Si2 0.455365 0.850680 0.873794
Si Si3 0.908629 0.924774 0.228351
Si Si4 0.764742 0.638738 0.927834
O O1 0.500000 0.500000 0.500000
O O2 0.765755 0.430366 0.192998
O O3 0.765319 0.336324 0.338363
O O4 0.877279 0.562610 0.222588
O O5 0.500000 0.842209 0.750000
O O6 0.469614 0.705739 0.889023
O O7 0.230267 0.907320 0.083305
O O8 0.066107 0.043984 0.099919
O O9 0.000000 0.587807 0.750000
O O10 0.750000 0.750000 0.000000
#
# Coordination Sequence:
#
# PCOD9299298 Si02
#       4
#     8   8   8   8
#     4  10  24  48  74 109 152 200 255 311 382 460
#     4  12  26  49  80 113 154 203 259 323 387 457
#     4  11  26  51  78 112 155 206 258 318 386 461
#     4  11  27  48  75 114 155 197 253 320 386 458
#
# _framework density 26.327473999999999
#
# number of rings (size 3 to 8) (size 9 to 14) (size 15 to 20)
#    0.000    1.000    0.000    5.250    0.000   13.000 
#    0.000   11.250    0.000    0.000    0.000    0.000 
#    0.000    0.000    0.000    0.000    0.000    0.000 
#
# Total GULP energy -89559.167669 kJ/mol
# GULP energy per Si atom -5597.447979 kJ/mol
# Density = 2.626755 g / cm^3
# Si number density = 26.327474 Si / 1000 Ang^3
#
#
#
# Elastic Constant Matrix: (Units=GPa)
#
#
# Indices 1 2 3 4 5 6 
#
# 1 232.5616 76.8997 44.8059 0.0019 -5.8842 -0.0006
# 2 76.8997 147.9358 47.5860 0.0047 -9.3748 -0.0001
# 3 44.8059 47.5860 172.5854 -0.0021 -8.2233 0.0023
# 4 0.0019 0.0047 -0.0021 46.0202 -0.0004 -12.0465
# 5 -5.8842 -9.3748 -8.2233 -0.0004 48.3055 0.0004
# 6 -0.0006 -0.0001 0.0023 -12.0465 0.0004 38.6573
#
#
#
# Elastic Compliance Matrix: (Units=1/GPa)
#
#
# Indices 1 2 3 4 5 6 
#
# 1 0.005262 -0.002518 -0.000670 0.000000 0.000038 0.000000
# 2 -0.002518 0.008680 -0.001688 -0.000001 0.001091 0.000000
# 3 -0.000670 -0.001688 0.006467 0.000000 0.000692 0.000000
# 4 0.000000 -0.000001 0.000000 0.023660 0.000000 0.007373
# 5 0.000038 0.001091 0.000692 0.000000 0.021036 0.000000
# 6 0.000000 0.000000 0.000000 0.007373 0.000000 0.028166
#
#
# Mechanical properties :
#
#
# Convention : Reuss Voigt Hill
#
# Bulk Modulus (GPa) = 93.82426 99.07400 96.44913
# Shear Modulus (GPa) = 46.91555 52.18268 49.54911
#
# Velocity S-wave (km/s) = 4.22595 4.45687 4.34294
# Velocity P-wave (km/s) = 7.71533 8.01236 7.86525
#
# Compressibility (1/GPa) = 0.01065822
#
# Stress axis : x y z
#
# Youngs Moduli (GPa) = 190.02412 115.20245 154.64133
#
# Poissons Ratio (x) = 0.29002 0.10365
# Poissons Ratio (y) = 0.47839 0.26101
# Poissons Ratio (z) = 0.12737 0.19444
#
# Static dielectric constant tensor:
#      x y z
#    x 2.376530 -0.000010 0.076210 
#    y -0.000010 2.122860 0.000010 
#    z 0.076210 0.000010 2.113900 
# 
# From -- ./inp_files/243204.got.cif
#   From: 2010.05.17/outbox.cif.g08.bks.cpg/sg15_122_cif.got.tgz:243204.got - 2010.06.03 18:47:42.
