data_PCOD9299609
_publ_section_title
;
Structure prediction by ZEFSAII (Michael W. Deem and Ramdas Pophale) SiO2 
 PCOD9299609
Probable space group: C 2/C
;
_chemical_formula_sum "Si O2"
_cell_formula_units_Z 48
_cell_length_a 14.937597
_cell_length_b 23.517048
_cell_length_c 15.910893
_cell_angle_alpha 90.000000
_cell_angle_beta 158.629266
_cell_angle_gamma 90.000000
_cell_volume 2036.750612
_symmetry_space_group_name_H-M "C 2/C"
_symmetry_group_IT_number 15
_symmetry_cell_setting 'monoclinic'
loop_
_space_group_symop_operation_xyz
x,y,z
-x,y,1/2-z
-x,-y,-z
x,-y,1/2+z
1/2+x,1/2+y,z
1/2-x,1/2+y,1/2-z
1/2-x,1/2-y,-z
1/2+x,1/2-y,1/2+z
loop_
_atom_site_type_symbol
_atom_site_label
_atom_site_fract_x
_atom_site_fract_y
_atom_site_fract_z
Si Si1 0.625277 0.899189 0.520280
Si Si2 0.603910 0.018958 0.430640
Si Si3 0.205385 0.892390 0.296203
Si Si4 0.674802 0.770657 0.028228
Si Si5 0.138949 0.939977 0.619893
Si Si6 0.851608 0.729930 0.499070
O O1 0.625813 0.951533 0.456926
O O2 0.388033 0.898896 0.375035
O O3 0.850718 0.912338 0.779999
O O4 0.643291 0.837953 0.496712
O O5 0.500000 0.035758 0.250000
O O6 0.821463 0.054553 0.663078
O O7 0.402148 0.038951 0.321105
O O8 0.284072 0.837467 0.417366
O O9 0.948255 0.893110 0.022865
O O10 0.881193 0.742908 0.271442
O O11 0.750000 0.750000 0.000000
O O12 0.000000 0.000000 0.500000
O O13 0.750000 0.750000 0.500000
O O14 0.637757 0.749331 0.245862
#
# Coordination Sequence:
#
# PCOD9299609 Si02
#       6
#     8   8   8   8   8   8
#     4  11  24  44  71 100 140 186 236 297 363 436
#     4  11  25  40  69 107 139 176 234 299 377 434
#     4  11  24  44  72  97 140 187 231 298 360 434
#     4  10  25  44  67  97 140 183 237 289 346 412
#     4  11  21  45  68 102 141 183 234 288 366 449
#     4  10  25  47  70 100 145 190 246 303 358 419
#
# _framework density 23.566949999999999
#
# number of rings (size 3 to 8) (size 9 to 14) (size 15 to 20)
#    0.000    1.333    3.333    1.000   11.667    3.333 
#    3.000    0.000    0.000    0.000    0.000    0.000 
#    0.000    0.000    0.000    0.000    0.000    0.000 
#
# Total GULP energy -133817.464996 kJ/mol
# GULP energy per Si atom -5575.727708 kJ/mol
# Density = 2.351331 g / cm^3
# Si number density = 23.566950 Si / 1000 Ang^3
#
#
#
# Elastic Constant Matrix: (Units=GPa)
#
#
# Indices 1 2 3 4 5 6 
#
# 1 62.3571 13.4910 1.9168 -0.0006 -10.3565 -0.0004
# 2 13.4910 135.3402 24.4055 -0.0005 -18.2308 -0.0003
# 3 1.9168 24.4055 134.3493 -0.0003 -11.6209 -0.0009
# 4 -0.0006 -0.0005 -0.0003 44.8779 0.0001 -14.6418
# 5 -10.3565 -18.2308 -11.6209 0.0001 23.1808 -0.0003
# 6 -0.0004 -0.0003 -0.0009 -14.6418 -0.0003 38.7426
#
#
#
# Elastic Compliance Matrix: (Units=1/GPa)
#
#
# Indices 1 2 3 4 5 6 
#
# 1 0.017431 -0.000839 0.000544 0.000000 0.007400 0.000000
# 2 -0.000839 0.008430 -0.001023 0.000000 0.005743 0.000000
# 3 0.000544 -0.001023 0.007916 0.000000 0.003407 0.000000
# 4 0.000000 0.000000 0.000000 0.025417 0.000000 0.009606
# 5 0.007400 0.005743 0.003407 0.000000 0.052670 0.000001
# 6 0.000000 0.000000 0.000000 0.009606 0.000001 0.029442
#
#
# Mechanical properties :
#
#
# Convention : Reuss Voigt Hill
#
# Bulk Modulus (GPa) = 32.11138 45.74147 38.92642
# Shear Modulus (GPa) = 32.40000 40.84246 36.62123
#
# Velocity S-wave (km/s) = 3.71186 4.16750 3.94626
# Velocity P-wave (km/s) = 5.65913 6.52753 6.10878
#
# Compressibility (1/GPa) = 0.03114161
#
# Stress axis : x y z
#
# Youngs Moduli (GPa) = 57.37067 118.61850 126.32620
#
# Poissons Ratio (x) = 0.09949 -0.06870
# Poissons Ratio (y) = 0.04812 0.12920
# Poissons Ratio (z) = -0.03120 0.12132
#
# Static dielectric constant tensor:
#      x y z
#    x 1.831670 0.000000 0.041930 
#    y 0.000000 1.583300 0.000000 
#    z 0.041930 0.000000 1.984420 
# 
# From -- ./inp_files/212054.got.cif
#   From: 2010.05.17/outbox.cif.g08.bks.cpg/sg15_107_cif.got.tgz:212054.got - 2010.06.03 18:47:42.
