data_PCOD9299489
_publ_section_title
;
Structure prediction by ZEFSAII (Michael W. Deem and Ramdas Pophale) SiO2 
 PCOD9299489
Probable space group: C 2/C
;
_chemical_formula_sum "Si O2"
_cell_formula_units_Z 56
_cell_length_a 14.696581
_cell_length_b 19.973404
_cell_length_c 16.313355
_cell_angle_alpha 90.000000
_cell_angle_beta 149.252326
_cell_angle_gamma 90.000000
_cell_volume 2448.228618
_symmetry_space_group_name_H-M "C 2/C"
_symmetry_group_IT_number 15
_symmetry_cell_setting 'monoclinic'
loop_
_space_group_symop_operation_xyz
x,y,z
-x,y,1/2-z
-x,-y,-z
x,-y,1/2+z
1/2+x,1/2+y,z
1/2-x,1/2+y,1/2-z
1/2-x,1/2-y,-z
1/2+x,1/2-y,1/2+z
loop_
_atom_site_type_symbol
_atom_site_label
_atom_site_fract_x
_atom_site_fract_y
_atom_site_fract_z
Si Si1 0.135143 0.520967 0.176678
Si Si2 0.500000 0.951244 0.750000
Si Si3 0.629273 0.397518 0.141660
Si Si4 0.428905 0.790479 0.369610
Si Si5 0.626443 0.427850 0.422570
Si Si6 0.286785 0.654851 0.225836
Si Si7 0.876459 0.088435 0.056979
Si Si8 0.000000 0.342069 0.250000
O O1 0.070509 0.511277 0.221226
O O2 0.296706 0.471584 0.284304
O O3 0.199269 0.595785 0.210783
O O4 0.000000 0.500000 0.000000
O O5 0.334409 0.911227 0.583966
O O6 0.455199 0.394218 0.060530
O O7 0.778369 0.343195 0.280422
O O8 0.606606 0.398821 0.027543
O O9 0.377330 0.714517 0.347098
O O10 0.619835 0.810677 0.551594
O O11 0.438797 0.797947 0.278912
O O12 0.500000 0.407853 0.250000
O O13 0.623428 0.509607 0.423120
O O14 0.430750 0.622737 0.273538
O O15 0.676165 0.117196 0.917499
#
# Coordination Sequence:
#
# PCOD9299489 Si02
#       8
#     8   4   8   8   8   8   8   4
#     4  12  24  46  77 109 144 193 247 308 369 439
#     4  12  27  42  72 112 152 181 248 316 368 435
#     4  11  22  46  67  98 141 181 235 298 369 426
#     4  11  26  44  67  97 141 191 233 296 363 452
#     4  12  25  39  67 107 140 186 241 305 367 433
#     4  12  26  44  70  97 139 195 237 287 370 437
#     4  11  23  39  66  94 139 185 226 297 356 435
#     4  10  25  42  62  98 140 183 244 288 358 437
#
# _framework density 22.87368
#
# number of rings (size 3 to 8) (size 9 to 14) (size 15 to 20)
#    0.000    0.571    4.286    4.286    4.000    2.286 
#    0.000    0.000    1.571    1.714    0.000    0.000 
#    0.000    0.000    0.000    0.000    0.000    0.000 
#
# Total GULP energy -156477.846800 kJ/mol
# GULP energy per Si atom -5588.494529 kJ/mol
# Density = 2.282162 g / cm^3
# Si number density = 22.873680 Si / 1000 Ang^3
#
#
#
# Elastic Constant Matrix: (Units=GPa)
#
#
# Indices 1 2 3 4 5 6 
#
# 1 70.7328 19.1822 28.0434 0.0023 9.1137 0.0004
# 2 19.1822 120.3300 29.0475 0.0022 8.6787 0.0005
# 3 28.0434 29.0475 144.3636 0.0147 14.7905 0.0024
# 4 0.0023 0.0022 0.0147 29.5203 0.0041 1.2406
# 5 9.1137 8.6787 14.7905 0.0041 39.6919 0.0001
# 6 0.0004 0.0005 0.0024 1.2406 0.0001 20.7171
#
#
#
# Elastic Compliance Matrix: (Units=1/GPa)
#
#
# Indices 1 2 3 4 5 6 
#
# 1 0.015907 -0.001765 -0.002495 0.000000 -0.002337 0.000000
# 2 -0.001765 0.008996 -0.001359 0.000000 -0.001055 0.000000
# 3 -0.002495 -0.001359 0.007898 -0.000003 -0.002073 -0.000001
# 4 0.000000 0.000000 -0.000003 0.033960 -0.000002 -0.002034
# 5 -0.002337 -0.001055 -0.002073 -0.000002 0.026734 0.000000
# 6 0.000000 0.000000 -0.000001 -0.002034 0.000000 0.048391
#
#
# Mechanical properties :
#
#
# Convention : Reuss Voigt Hill
#
# Bulk Modulus (GPa) = 46.37910 54.21917 50.29913
# Shear Modulus (GPa) = 31.18929 35.26277 33.22603
#
# Velocity S-wave (km/s) = 3.69663 3.93062 3.81542
# Velocity P-wave (km/s) = 6.20808 6.65995 6.43798
#
# Compressibility (1/GPa) = 0.02156144
#
# Stress axis : x y z
#
# Youngs Moduli (GPa) = 62.86633 111.16026 126.62162
#
# Poissons Ratio (x) = 0.19618 0.31598
# Poissons Ratio (y) = 0.11095 0.17210
# Poissons Ratio (z) = 0.15688 0.15108
#
# Static dielectric constant tensor:
#      x y z
#    x 1.839150 0.000000 0.015430 
#    y 0.000000 1.833620 0.000000 
#    z 0.015430 0.000000 2.212350 
# 
# From -- ./inp_files/207015.got.cif
#   From: 2010.05.17/outbox.cif.g08.bks.cpg/sg15_104_cif.got.tgz:207015.got - 2010.06.03 18:47:42.
