data_PCOD9299645
_publ_section_title
;
Structure prediction by ZEFSAII (Michael W. Deem and Ramdas Pophale) SiO2 
 PCOD9299645
Probable space group: C 2/C
;
_chemical_formula_sum "Si O2"
_cell_formula_units_Z 32
_cell_length_a 8.822213
_cell_length_b 16.236850
_cell_length_c 11.277221
_cell_angle_alpha 90.000000
_cell_angle_beta 122.712377
_cell_angle_gamma 90.000000
_cell_volume 1359.192128
_symmetry_space_group_name_H-M "C 2/C"
_symmetry_group_IT_number 15
_symmetry_cell_setting 'monoclinic'
loop_
_space_group_symop_operation_xyz
x,y,z
-x,y,1/2-z
-x,-y,-z
x,-y,1/2+z
1/2+x,1/2+y,z
1/2-x,1/2+y,1/2-z
1/2-x,1/2-y,-z
1/2+x,1/2-y,1/2+z
loop_
_atom_site_type_symbol
_atom_site_label
_atom_site_fract_x
_atom_site_fract_y
_atom_site_fract_z
Si Si1 0.799966 0.678852 0.925221
Si Si2 0.988788 0.801022 0.605957
Si Si3 0.789187 0.423073 0.636176
Si Si4 0.282960 0.111458 0.669604
O O1 0.714531 0.658440 0.760131
O O2 0.987513 0.717090 0.959083
O O3 0.750000 0.750000 0.000000
O O4 0.779244 0.595958 0.991551
O O5 0.816642 0.847214 0.482559
O O6 0.000000 0.786358 0.750000
O O7 0.160168 0.858965 0.647623
O O8 0.735544 0.514840 0.649904
O O9 0.000000 0.408205 0.750000
O O10 0.500000 0.111443 0.750000
#
# Coordination Sequence:
#
# PCOD9299645 Si02
#       4
#     8   8   8   8
#     4  10  25  44  71 104 145 188 238 289 359 423
#     4  11  26  45  73 106 146 189 239 296 361 427
#     4  10  25  45  73 103 146 188 238 296 358 426
#     4  11  26  45  73 108 142 188 241 300 355 423
#
# _framework density 23.543398
#
# number of rings (size 3 to 8) (size 9 to 14) (size 15 to 20)
#    0.000    1.500    0.000    1.500   14.000    7.000 
#    0.000    0.000    0.000    0.000    0.000    0.000 
#    0.000    0.000    0.000    0.000    0.000    0.000 
#
# Total GULP energy -89259.016066 kJ/mol
# GULP energy per Si atom -5578.688504 kJ/mol
# Density = 2.348981 g / cm^3
# Si number density = 23.543398 Si / 1000 Ang^3
#
#
#
# Elastic Constant Matrix: (Units=GPa)
#
#
# Indices 1 2 3 4 5 6 
#
# 1 107.3881 42.3734 47.5150 0.0000 -23.1955 0.0000
# 2 42.3734 116.3202 24.8415 0.0000 -19.0798 0.0000
# 3 47.5150 24.8415 124.6753 0.0000 -31.0614 0.0000
# 4 0.0000 0.0000 0.0000 35.7488 0.0000 -0.2505
# 5 -23.1955 -19.0798 -31.0614 0.0000 42.0923 0.0000
# 6 0.0000 0.0000 0.0000 -0.2505 0.0000 11.5810
#
#
#
# Elastic Compliance Matrix: (Units=1/GPa)
#
#
# Indices 1 2 3 4 5 6 
#
# 1 0.012850 -0.003455 -0.003473 0.000000 0.002952 0.000000
# 2 -0.003455 0.010316 -0.000059 0.000000 0.002729 0.000000
# 3 -0.003473 -0.000059 0.010871 0.000000 0.006082 0.000000
# 4 0.000000 0.000000 0.000000 0.027977 0.000000 0.000605
# 5 0.002952 0.002729 0.006082 0.000000 0.031109 0.000000
# 6 0.000000 0.000000 0.000000 0.000605 0.000000 0.086361
#
#
# Mechanical properties :
#
#
# Convention : Reuss Voigt Hill
#
# Bulk Modulus (GPa) = 49.84427 64.20482 57.02455
# Shear Modulus (GPa) = 24.98179 33.46133 29.22156
#
# Velocity S-wave (km/s) = 3.26098 3.77405 3.52686
# Velocity P-wave (km/s) = 5.94944 6.80598 6.39207
#
# Compressibility (1/GPa) = 0.02006249
#
# Stress axis : x y z
#
# Youngs Moduli (GPa) = 77.82304 96.93978 91.98381
#
# Poissons Ratio (x) = 0.33492 0.31949
# Poissons Ratio (y) = 0.26888 0.00542
# Poissons Ratio (z) = 0.27030 0.00571
#
# Static dielectric constant tensor:
#      x y z
#    x 1.913290 0.000000 0.012010 
#    y 0.000000 1.946560 0.000000 
#    z 0.012010 0.000000 1.914690 
# 
# From -- ./inp_files/76199.got.cif
#   From: 2010.05.17/outbox.cif.g08.bks.cpg/sg15_39_cif.got.tgz:76199.got - 2010.06.03 18:47:42.
