data_PCOD9299688
_publ_section_title
;
Structure prediction by ZEFSAII (Michael W. Deem and Ramdas Pophale) SiO2 
 PCOD9299688
Probable space group: C 2/C
;
_chemical_formula_sum "Si O2"
_cell_formula_units_Z 36
_cell_length_a 13.771954
_cell_length_b 13.344930
_cell_length_c 11.241340
_cell_angle_alpha 90.000000
_cell_angle_beta 54.835766
_cell_angle_gamma 90.000000
_cell_volume 1688.962998
_symmetry_space_group_name_H-M "C 2/C"
_symmetry_group_IT_number 15
_symmetry_cell_setting 'monoclinic'
loop_
_space_group_symop_operation_xyz
x,y,z
-x,y,1/2-z
-x,-y,-z
x,-y,1/2+z
1/2+x,1/2+y,z
1/2-x,1/2+y,1/2-z
1/2-x,1/2-y,-z
1/2+x,1/2-y,1/2+z
loop_
_atom_site_type_symbol
_atom_site_label
_atom_site_fract_x
_atom_site_fract_y
_atom_site_fract_z
Si Si1 0.180704 0.273801 0.245522
Si Si2 0.500000 0.372943 0.750000
Si Si3 0.229016 0.950185 0.471696
Si Si4 0.161173 0.380811 0.737690
Si Si5 0.896015 0.593948 0.478312
O O1 0.076284 0.199633 0.280641
O O2 0.221920 0.344794 0.109222
O O3 0.288445 0.205631 0.216273
O O4 0.137807 0.344793 0.382498
O O5 0.596431 0.438067 0.611304
O O6 0.316087 0.995499 0.511491
O O7 0.245028 0.030206 0.353418
O O8 0.036469 0.425517 0.870659
O O9 0.135078 0.343473 0.620685
#
# Coordination Sequence:
#
# PCOD9299688 Si02
#       5
#     8   4   8   8   8
#     4  12  24  44  71 103 136 179 229 279 340 403
#     4  12  28  44  64 106 144 176 220 290 336 404
#     4  10  25  45  68 102 137 175 228 277 345 392
#     4   9  22  45  72 101 131 180 228 275 338 403
#     4   9  22  46  72  98 132 180 229 276 332 409
#
# _framework density 21.314855000000001
#
# number of rings (size 3 to 8) (size 9 to 14) (size 15 to 20)
#    1.333    0.444    0.000    2.667    6.222    1.778 
#    4.000    0.000    0.000    0.000    0.000    0.000 
#    0.000    0.000    0.000    0.000    0.000    0.000 
#
# Total GULP energy -100539.693521 kJ/mol
# GULP energy per Si atom -5585.538529 kJ/mol
# Density = 2.126634 g / cm^3
# Si number density = 21.314855 Si / 1000 Ang^3
#
#
#
# Elastic Constant Matrix: (Units=GPa)
#
#
# Indices 1 2 3 4 5 6 
#
# 1 111.8182 44.0317 49.8187 0.0000 -23.0545 0.0000
# 2 44.0317 93.0440 46.8394 0.0000 -19.5509 0.0000
# 3 49.8187 46.8394 93.6476 0.0000 -37.1068 0.0000
# 4 0.0000 0.0000 0.0000 42.9405 0.0000 1.7082
# 5 -23.0545 -19.5509 -37.1068 0.0000 45.3276 0.0000
# 6 0.0000 0.0000 0.0000 1.7082 0.0000 36.5783
#
#
#
# Elastic Compliance Matrix: (Units=1/GPa)
#
#
# Indices 1 2 3 4 5 6 
#
# 1 0.012537 -0.003424 -0.004463 0.000000 0.001246 0.000000
# 2 -0.003424 0.015306 -0.005785 0.000000 0.000125 0.000000
# 3 -0.004463 -0.005785 0.020807 0.000000 0.012268 0.000000
# 4 0.000000 0.000000 0.000000 0.023331 0.000000 -0.001090
# 5 0.001246 0.000125 0.012268 0.000000 0.032793 0.000000
# 6 0.000000 0.000000 0.000000 -0.001090 0.000000 0.027390
#
#
# Mechanical properties :
#
#
# Convention : Reuss Voigt Hill
#
# Bulk Modulus (GPa) = 46.93403 64.43216 55.68309
# Shear Modulus (GPa) = 30.01033 35.49061 32.75047
#
# Velocity S-wave (km/s) = 3.75634 4.08495 3.92409
# Velocity P-wave (km/s) = 6.39380 7.24869 6.83462
#
# Compressibility (1/GPa) = 0.02130650
#
# Stress axis : x y z
#
# Youngs Moduli (GPa) = 79.76525 65.33222 48.06093
#
# Poissons Ratio (x) = 0.22372 0.21449
# Poissons Ratio (y) = 0.27315 0.27801
# Poissons Ratio (z) = 0.35598 0.37792
#
# Static dielectric constant tensor:
#      x y z
#    x 1.751480 0.000000 0.032830 
#    y 0.000000 1.770280 0.000000 
#    z 0.032830 0.000000 1.782860 
# 
# From -- ./inp_files/87037.got.cif
#   From: 2010.05.17/outbox.cif.g08.bks.cpg/sg15_44_cif.got.tgz:87037.got - 2010.06.03 18:47:42.
