data_PCOD9299258
_publ_section_title
;
Structure prediction by ZEFSAII (Michael W. Deem and Ramdas Pophale) SiO2 
 PCOD9299258
Probable space group: C 2/C
;
_chemical_formula_sum "Si O2"
_cell_formula_units_Z 40
_cell_length_a 6.578354
_cell_length_b 14.793223
_cell_length_c 17.455059
_cell_angle_alpha 90.000000
_cell_angle_beta 97.362599
_cell_angle_gamma 90.000000
_cell_volume 1684.634829
_symmetry_space_group_name_H-M "C 2/C"
_symmetry_group_IT_number 15
_symmetry_cell_setting 'monoclinic'
loop_
_space_group_symop_operation_xyz
x,y,z
-x,y,1/2-z
-x,-y,-z
x,-y,1/2+z
1/2+x,1/2+y,z
1/2-x,1/2+y,1/2-z
1/2-x,1/2-y,-z
1/2+x,1/2-y,1/2+z
loop_
_atom_site_type_symbol
_atom_site_label
_atom_site_fract_x
_atom_site_fract_y
_atom_site_fract_z
Si Si1 0.500000 0.775895 0.250000
Si Si2 0.555120 0.402562 0.967144
Si Si3 0.000000 0.483115 0.750000
Si Si4 0.702295 0.174866 0.355318
Si Si5 0.366937 0.495605 0.174179
Si Si6 0.630490 0.673520 0.625543
O O1 0.344476 0.722456 0.298684
O O2 0.661396 0.820810 0.316936
O O3 0.348275 0.350628 0.933266
O O4 0.665743 0.429940 0.893186
O O5 0.500000 0.500000 0.000000
O O6 0.669878 0.346625 0.037922
O O7 0.880195 0.417118 0.686293
O O8 0.842570 0.534721 0.796656
O O9 0.512644 0.239183 0.367951
O O10 0.500000 0.535519 0.250000
O O11 0.493968 0.410742 0.149186
#
# Coordination Sequence:
#
# PCOD9299258 Si02
#       6
#     4   8   4   8   8   8
#     4  12  24  45  78 107 146 188 248 296 361 420
#     4  10  24  48  70 106 151 188 240 299 360 433
#     4  12  24  43  78 107 140 194 244 296 361 434
#     4  12  23  46  74 105 144 192 242 299 357 430
#     4  11  23  45  71 101 146 191 243 296 360 432
#     4  11  26  46  72 108 145 189 246 300 362 428
#
# _framework density 23.744019999999999
#
# number of rings (size 3 to 8) (size 9 to 14) (size 15 to 20)
#    0.000    0.800    4.000    3.000    0.000    4.000 
#    3.600    2.000    0.000    0.000    0.000    0.000 
#    0.000    0.000    0.000    0.000    0.000    0.000 
#
# Total GULP energy -111951.732115 kJ/mol
# GULP energy per Si atom -5597.586606 kJ/mol
# Density = 2.368998 g / cm^3
# Si number density = 23.744020 Si / 1000 Ang^3
#
#
#
# Elastic Constant Matrix: (Units=GPa)
#
#
# Indices 1 2 3 4 5 6 
#
# 1 121.2795 33.6844 56.3899 0.0000 12.1931 0.0000
# 2 33.6844 66.8116 42.0286 0.0000 10.7638 0.0000
# 3 56.3899 42.0286 172.5228 0.0000 25.7868 0.0000
# 4 0.0000 0.0000 0.0000 17.7854 0.0000 -12.4907
# 5 12.1931 10.7638 25.7868 0.0000 45.5264 0.0000
# 6 0.0000 0.0000 0.0000 -12.4907 0.0000 41.8540
#
#
#
# Elastic Compliance Matrix: (Units=1/GPa)
#
#
# Indices 1 2 3 4 5 6 
#
# 1 0.010449 -0.003641 -0.002446 0.000000 -0.000552 0.000000
# 2 -0.003641 0.019097 -0.003204 0.000000 -0.001725 0.000000
# 3 -0.002446 -0.003204 0.007828 0.000000 -0.003021 0.000000
# 4 0.000000 0.000000 0.000000 0.071135 0.000000 0.021229
# 5 -0.000552 -0.001725 -0.003021 0.000000 0.024232 0.000000
# 6 0.000000 0.000000 0.000000 0.021229 0.000000 0.030228
#
#
# Mechanical properties :
#
#
# Convention : Reuss Voigt Hill
#
# Bulk Modulus (GPa) = 53.21388 69.42441 61.31915
# Shear Modulus (GPa) = 26.62183 36.26723 31.44453
#
# Velocity S-wave (km/s) = 3.35207 3.91247 3.64306
# Velocity P-wave (km/s) = 6.11898 7.05068 6.60129
#
# Compressibility (1/GPa) = 0.01879209
#
# Stress axis : x y z
#
# Youngs Moduli (GPa) = 95.69949 52.36532 127.74632
#
# Poissons Ratio (x) = 0.19064 0.31246
# Poissons Ratio (y) = 0.34840 0.40935
# Poissons Ratio (z) = 0.23408 0.16780
#
# Static dielectric constant tensor:
#      x y z
#    x 1.941660 0.000000 0.032020 
#    y 0.000000 1.994650 0.000000 
#    z 0.032020 0.000000 1.958710 
# 
# From -- ./inp_files/184294.got.cif
#   From: 2010.05.17/outbox.cif.g08.bks.cpg/sg15_93_cif.got.tgz:184294.got - 2010.06.03 18:47:42.
