data_PCOD9299678
_publ_section_title
;
Structure prediction by ZEFSAII (Michael W. Deem and Ramdas Pophale) SiO2 
 PCOD9299678
Probable space group: C 2/C
;
_chemical_formula_sum "Si O2"
_cell_formula_units_Z 48
_cell_length_a 10.383608
_cell_length_b 9.747122
_cell_length_c 23.610745
_cell_angle_alpha 90.000000
_cell_angle_beta 100.458078
_cell_angle_gamma 90.000000
_cell_volume 2349.953526
_symmetry_space_group_name_H-M "C 2/C"
_symmetry_group_IT_number 15
_symmetry_cell_setting 'monoclinic'
loop_
_space_group_symop_operation_xyz
x,y,z
-x,y,1/2-z
-x,-y,-z
x,-y,1/2+z
1/2+x,1/2+y,z
1/2-x,1/2+y,1/2-z
1/2-x,1/2-y,-z
1/2+x,1/2-y,1/2+z
loop_
_atom_site_type_symbol
_atom_site_label
_atom_site_fract_x
_atom_site_fract_y
_atom_site_fract_z
Si Si1 0.227613 0.127911 0.813826
Si Si2 0.552599 0.145176 0.574123
Si Si3 0.524297 0.325523 0.140386
Si Si4 0.577458 0.558815 0.059839
Si Si5 0.353824 0.877215 0.762479
Si Si6 0.626085 0.892504 0.948644
O O1 0.327872 0.120636 0.873874
O O2 0.079756 0.108586 0.824256
O O3 0.223627 0.281270 0.787792
O O4 0.275965 0.012676 0.773907
O O5 0.508046 0.302573 0.575847
O O6 0.598228 0.123257 0.512995
O O7 0.440675 0.034123 0.576563
O O8 0.588504 0.444524 0.108897
O O9 0.619397 0.223687 0.181953
O O10 0.441079 0.230659 0.090793
O O11 0.721294 0.602520 0.051575
O O12 0.500000 0.500000 0.000000
O O13 0.500000 0.909670 0.750000
#
# Coordination Sequence:
#
# PCOD9299678 Si02
#       6
#     8   8   8   8   8   8
#     4  11  23  45  68  91 129 168 216 269 321 378
#     4  11  23  41  67  94 132 176 209 260 328 385
#     4  11  23  43  67  94 130 168 210 265 323 378
#     4  12  24  39  66 100 131 167 212 260 315 389
#     4  10  25  45  66  92 126 170 216 270 320 376
#     4  11  23  43  65  95 136 173 207 260 327 390
#
# _framework density 20.425937999999999
#
# number of rings (size 3 to 8) (size 9 to 14) (size 15 to 20)
#    0.000    1.000    5.000    1.500    2.333    2.000 
#    3.000    0.000    0.000    0.000    0.000    0.000 
#    0.000    0.000    0.000    0.000    0.000    0.000 
#
# Total GULP energy -134226.613624 kJ/mol
# GULP energy per Si atom -5592.775568 kJ/mol
# Density = 2.037945 g / cm^3
# Si number density = 20.425938 Si / 1000 Ang^3
#
#
#
# Elastic Constant Matrix: (Units=GPa)
#
#
# Indices 1 2 3 4 5 6 
#
# 1 40.6407 29.9629 4.2050 0.0000 4.3270 0.0000
# 2 29.9629 96.7822 -6.7718 0.0000 -13.6891 0.0000
# 3 4.2050 -6.7718 49.6657 0.0000 0.9442 0.0000
# 4 0.0000 0.0000 0.0000 38.3692 0.0000 -2.1261
# 5 4.3270 -13.6891 0.9442 0.0000 29.5331 0.0000
# 6 0.0000 0.0000 0.0000 -2.1261 0.0000 36.6836
#
#
#
# Elastic Compliance Matrix: (Units=1/GPa)
#
#
# Indices 1 2 3 4 5 6 
#
# 1 0.035845 -0.012993 -0.004595 0.000000 -0.011127 0.000000
# 2 -0.012993 0.015867 0.003089 0.000000 0.009159 0.000000
# 3 -0.004595 0.003089 0.020918 0.000000 0.001436 0.000000
# 4 0.000000 0.000000 0.000000 0.026147 0.000000 0.001515
# 5 -0.011127 0.009159 0.001436 0.000000 0.039690 0.000000
# 6 0.000000 0.000000 0.000000 0.001515 0.000000 0.027348
#
#
# Mechanical properties :
#
#
# Convention : Reuss Voigt Hill
#
# Bulk Modulus (GPa) = 22.91859 26.87565 24.89712
# Shear Modulus (GPa) = 23.88295 31.56337 27.72316
#
# Velocity S-wave (km/s) = 3.42313 3.93524 3.68809
# Velocity P-wave (km/s) = 5.18348 5.81673 5.50921
#
# Compressibility (1/GPa) = 0.04363270
#
# Stress axis : x y z
#
# Youngs Moduli (GPa) = 27.89786 63.02571 47.80679
#
# Poissons Ratio (x) = 0.81887 0.21966
# Poissons Ratio (y) = 0.36247 -0.14769
# Poissons Ratio (z) = 0.12819 -0.19470
#
# Static dielectric constant tensor:
#      x y z
#    x 1.689930 0.000000 -0.002970 
#    y 0.000000 1.759640 0.000000 
#    z -0.002970 0.000000 1.751070 
# 
# From -- ./inp_files/267742.got.cif
#   From: 2010.05.17/outbox.cif.g08.bks.cpg/sg15_134_cif.got.tgz:267742.got - 2010.06.03 18:47:42.
