data_PCOD9299335
_publ_section_title
;
Structure prediction by ZEFSAII (Michael W. Deem and Ramdas Pophale) SiO2 
 PCOD9299335
Probable space group: C 2/C
;
_chemical_formula_sum "Si O2"
_cell_formula_units_Z 36
_cell_length_a 14.740788
_cell_length_b 12.153992
_cell_length_c 10.636064
_cell_angle_alpha 90.000000
_cell_angle_beta 51.780986
_cell_angle_gamma 90.000000
_cell_volume 1497.099283
_symmetry_space_group_name_H-M "C 2/C"
_symmetry_group_IT_number 15
_symmetry_cell_setting 'monoclinic'
loop_
_space_group_symop_operation_xyz
x,y,z
-x,y,1/2-z
-x,-y,-z
x,-y,1/2+z
1/2+x,1/2+y,z
1/2-x,1/2+y,1/2-z
1/2-x,1/2-y,-z
1/2+x,1/2-y,1/2+z
loop_
_atom_site_type_symbol
_atom_site_label
_atom_site_fract_x
_atom_site_fract_y
_atom_site_fract_z
Si Si1 0.500000 0.026462 0.750000
Si Si2 0.759997 0.572772 0.863162
Si Si3 0.042272 0.801762 0.573390
Si Si4 0.916431 0.877069 0.441557
Si Si5 0.413561 0.862219 0.021971
O O1 0.510702 0.943400 0.623651
O O2 0.374339 0.080507 0.848572
O O3 0.805393 0.579734 0.680850
O O4 0.677138 0.676518 0.952137
O O5 0.687183 0.464252 0.961126
O O6 0.000000 0.823785 0.750000
O O7 0.986036 0.880560 0.514675
O O8 0.995472 0.686305 0.562139
O O9 0.878574 0.747772 0.474409
O O10 0.000000 0.896062 0.250000
#
# Coordination Sequence:
#
# PCOD9299335 Si02
#       5
#     4   8   8   8   8
#     4  12  28  46  74 112 154 202 250 316 378 452
#     4  12  27  44  77 109 156 191 260 310 380 449
#     4  10  25  48  75 108 149 200 250 311 379 446
#     4  10  24  48  81 109 148 203 258 305 374 456
#     4  10  26  47  72 111 149 198 252 308 380 437
#
# _framework density 24.046499000000001
#
# number of rings (size 3 to 8) (size 9 to 14) (size 15 to 20)
#    1.333    0.000    1.111    2.000   10.889    1.778 
#    0.000    0.000    0.000    0.000    0.000    0.000 
#    0.000    0.000    0.000    0.000    0.000    0.000 
#
# Total GULP energy -100572.291397 kJ/mol
# GULP energy per Si atom -5587.349522 kJ/mol
# Density = 2.399177 g / cm^3
# Si number density = 24.046499 Si / 1000 Ang^3
#
#
#
# Elastic Constant Matrix: (Units=GPa)
#
#
# Indices 1 2 3 4 5 6 
#
# 1 137.2591 25.3467 64.7195 0.0000 -5.1707 0.0000
# 2 25.3467 95.9342 43.2788 0.0000 -14.2042 0.0000
# 3 64.7195 43.2788 193.3171 0.0000 7.3047 0.0000
# 4 0.0000 0.0000 0.0000 20.0802 0.0000 -5.4525
# 5 -5.1707 -14.2042 7.3047 0.0000 48.9043 0.0000
# 6 0.0000 0.0000 0.0000 -5.4525 0.0000 -18.0454
#
#
#
# Elastic Compliance Matrix: (Units=1/GPa)
#
#
# Indices 1 2 3 4 5 6 
#
# 1 0.008808 -0.000910 -0.002786 0.000000 0.001083 0.000000
# 2 -0.000910 0.012427 -0.002625 0.000000 0.003905 0.000000
# 3 -0.002786 -0.002625 0.006771 0.000000 -0.002068 0.000000
# 4 0.000000 0.000000 0.000000 0.046024 0.000000 -0.013906
# 5 0.001083 0.003905 -0.002068 0.000000 0.022006 0.000000
# 6 0.000000 0.000000 0.000000 -0.013906 0.000000 -0.051214
#
#
# Mechanical properties :
#
#
# Convention : Reuss Voigt Hill
#
# Bulk Modulus (GPa) = 65.08622 77.02227 71.05424
# Shear Modulus (GPa) = 79.89106 29.73218 54.81162
#
# Velocity S-wave (km/s) = 5.77024 3.52013 4.77949
# Velocity P-wave (km/s) = 8.45694 6.97293 7.75054
#
# Compressibility (1/GPa) = 0.01536424
#
# Stress axis : x y z
#
# Youngs Moduli (GPa) = 113.53383 80.47242 147.68082
#
# Poissons Ratio (x) = 0.07322 0.41144
# Poissons Ratio (y) = 0.10331 0.38765
# Poissons Ratio (z) = 0.31630 0.21123
#
# Static dielectric constant tensor:
#      x y z
#    x 1.994480 0.000000 0.050780 
#    y 0.000000 1.999060 0.000000 
#    z 0.050780 0.000000 1.856350 
# 
# From -- ./inp_files/96783.got.cif
#   From: 2010.05.17/outbox.cif.g08.bks.cpg/sg15_49_cif.got.tgz:96783.got - 2010.06.03 18:47:42.
