data_PCOD9299243
_publ_section_title
;
Structure prediction by ZEFSAII (Michael W. Deem and Ramdas Pophale) SiO2 
 PCOD9299243
Probable space group: C 2/C
;
_chemical_formula_sum "Si O2"
_cell_formula_units_Z 52
_cell_length_a 19.683835
_cell_length_b 12.925133
_cell_length_c 10.072530
_cell_angle_alpha 90.000000
_cell_angle_beta 98.083907
_cell_angle_gamma 90.000000
_cell_volume 2537.150456
_symmetry_space_group_name_H-M "C 2/C"
_symmetry_group_IT_number 15
_symmetry_cell_setting 'monoclinic'
loop_
_space_group_symop_operation_xyz
x,y,z
-x,y,1/2-z
-x,-y,-z
x,-y,1/2+z
1/2+x,1/2+y,z
1/2-x,1/2+y,1/2-z
1/2-x,1/2-y,-z
1/2+x,1/2-y,1/2+z
loop_
_atom_site_type_symbol
_atom_site_label
_atom_site_fract_x
_atom_site_fract_y
_atom_site_fract_z
Si Si1 0.370533 0.380623 0.808208
Si Si2 0.423361 0.094344 0.187018
Si Si3 0.143649 0.467928 0.558597
Si Si4 0.729241 0.439940 0.286427
Si Si5 0.500000 0.487457 0.250000
Si Si6 0.310893 0.793389 0.106746
Si Si7 0.103112 0.172088 0.892780
O O1 0.309862 0.466002 0.797724
O O2 0.441131 0.441162 0.797519
O O3 0.350918 0.299377 0.688654
O O4 0.377819 0.321130 0.948055
O O5 0.500000 0.066825 0.250000
O O6 0.377530 0.051854 0.295553
O O7 0.416241 0.217491 0.171927
O O8 0.401832 0.045813 0.040357
O O9 0.221011 0.511353 0.588761
O O10 0.141979 0.361447 0.476618
O O11 0.775859 0.368710 0.205305
O O12 0.668989 0.372260 0.333949
O O13 0.458513 0.410529 0.141077
O O14 0.250000 0.750000 0.000000
#
# Coordination Sequence:
#
# PCOD9299243 Si02
#       7
#     8   8   8   8   4   8   8
#     4  11  25  42  71 102 140 182 229 288 345 418
#     4  12  27  48  71 100 139 188 232 281 343 414
#     4  12  25  46  71 100 144 180 231 290 339 412
#     4  11  24  43  69 105 137 181 226 291 347 407
#     4  10  24  48  68 102 136 180 230 292 346 410
#     4  12  24  42  67 104 138 177 230 282 352 404
#     4  11  24  44  73 100 138 178 235 282 353 416
#
# _framework density 20.495433999999999
#
# number of rings (size 3 to 8) (size 9 to 14) (size 15 to 20)
#    0.000    0.615    3.846    3.692    2.154    2.462 
#    1.385    0.000    0.000    0.000    0.000    0.000 
#    0.000    0.000    0.000    0.000    0.000    0.000 
#
# Total GULP energy -145420.806412 kJ/mol
# GULP energy per Si atom -5593.107939 kJ/mol
# Density = 2.044879 g / cm^3
# Si number density = 20.495434 Si / 1000 Ang^3
#
#
#
# Elastic Constant Matrix: (Units=GPa)
#
#
# Indices 1 2 3 4 5 6 
#
# 1 77.5480 34.7728 18.5353 0.0000 20.2621 0.0000
# 2 34.7728 98.5583 31.5124 0.0000 -2.2973 0.0000
# 3 18.5353 31.5124 94.7946 0.0000 11.9630 0.0000
# 4 0.0000 0.0000 0.0000 31.5576 0.0000 12.2272
# 5 20.2621 -2.2973 11.9630 0.0000 23.2136 0.0000
# 6 0.0000 0.0000 0.0000 12.2272 0.0000 22.5784
#
#
#
# Elastic Compliance Matrix: (Units=1/GPa)
#
#
# Indices 1 2 3 4 5 6 
#
# 1 0.021793 -0.008536 0.001159 0.000000 -0.020464 0.000000
# 2 -0.008536 0.014935 -0.004730 0.000000 0.011367 0.000000
# 3 0.001159 -0.004730 0.012922 0.000000 -0.008139 0.000000
# 4 0.000000 0.000000 0.000000 0.040103 0.000000 -0.021717
# 5 -0.020464 0.011367 -0.008139 0.000000 0.066260 0.000000
# 6 0.000000 0.000000 0.000000 -0.021717 0.000000 0.056051
#
#
# Mechanical properties :
#
#
# Convention : Reuss Voigt Hill
#
# Bulk Modulus (GPa) = 39.31555 48.94911 44.13233
# Shear Modulus (GPa) = 20.42834 27.87528 24.15181
#
# Velocity S-wave (km/s) = 3.16052 3.69192 3.43651
# Velocity P-wave (km/s) = 5.70463 6.48910 6.10947
#
# Compressibility (1/GPa) = 0.02543523
#
# Stress axis : x y z
#
# Youngs Moduli (GPa) = 45.88632 66.95471 77.38657
#
# Poissons Ratio (x) = 0.57156 -0.08970
# Poissons Ratio (y) = 0.39171 0.36606
# Poissons Ratio (z) = -0.05319 0.31672
#
# Static dielectric constant tensor:
#      x y z
#    x 1.720290 0.000000 -0.009930 
#    y 0.000000 1.721110 0.000000 
#    z -0.009930 0.000000 1.717600 
# 
# From -- ./inp_files/55365.got.cif
#   From: 2010.05.17/outbox.cif.g08.bks.cpg/sg15_28_cif.got.tgz:55365.got - 2010.06.03 18:47:42.
