data_PCOD9299771
_publ_section_title
;
Structure prediction by ZEFSAII (Michael W. Deem and Ramdas Pophale) SiO2 
 PCOD9299771
Probable space group: C 2/C
;
_chemical_formula_sum "Si O2"
_cell_formula_units_Z 32
_cell_length_a 14.782279
_cell_length_b 10.124291
_cell_length_c 17.304697
_cell_angle_alpha 90.000000
_cell_angle_beta 29.374939
_cell_angle_gamma 90.000000
_cell_volume 1270.366612
_symmetry_space_group_name_H-M "C 2/C"
_symmetry_group_IT_number 15
_symmetry_cell_setting 'monoclinic'
loop_
_space_group_symop_operation_xyz
x,y,z
-x,y,1/2-z
-x,-y,-z
x,-y,1/2+z
1/2+x,1/2+y,z
1/2-x,1/2+y,1/2-z
1/2-x,1/2-y,-z
1/2+x,1/2-y,1/2+z
loop_
_atom_site_type_symbol
_atom_site_label
_atom_site_fract_x
_atom_site_fract_y
_atom_site_fract_z
Si Si1 0.349411 0.107482 0.800303
Si Si2 0.318807 0.609986 0.979164
Si Si3 0.730847 0.439207 0.154181
Si Si4 0.047363 0.682117 0.495872
O O1 0.500000 0.160460 0.750000
O O2 0.157880 0.187901 0.936637
O O3 0.444804 0.124067 0.647243
O O4 0.296715 0.960806 0.868184
O O5 0.291574 0.526892 0.919671
O O6 0.536452 0.607333 0.831625
O O7 0.250000 0.750000 0.000000
O O8 0.800205 0.573801 0.141677
O O9 0.885057 0.326480 0.053698
#
# Coordination Sequence:
#
# PCOD9299771 Si02
#       4
#     8   8   8   8
#     4  12  25  45  77 107 143 196 245 303 367 436
#     4  11  26  47  72 100 148 196 246 294 373 437
#     4  10  25  46  69 104 149 189 237 311 361 434
#     4  11  25  45  74 110 147 183 252 304 367 434
#
# _framework density 25.189581
#
# number of rings (size 3 to 8) (size 9 to 14) (size 15 to 20)
#    0.000    1.000    2.500    2.250   10.500    1.000 
#    4.500    0.000    0.000    0.000    0.000    0.000 
#    0.000    0.000    0.000    0.000    0.000    0.000 
#
# Total GULP energy -89553.890667 kJ/mol
# GULP energy per Si atom -5597.118167 kJ/mol
# Density = 2.513225 g / cm^3
# Si number density = 25.189581 Si / 1000 Ang^3
#
#
#
# Elastic Constant Matrix: (Units=GPa)
#
#
# Indices 1 2 3 4 5 6 
#
# 1 109.8110 22.0484 32.8442 0.0001 -27.1357 0.0000
# 2 22.0484 118.8812 53.9204 0.0002 -19.5571 -0.0002
# 3 32.8442 53.9204 131.4139 0.0001 -25.0808 -0.0002
# 4 0.0001 0.0002 0.0001 34.1439 0.0000 -1.6797
# 5 -27.1357 -19.5571 -25.0808 0.0000 56.0231 0.0001
# 6 0.0000 -0.0002 -0.0002 -1.6797 0.0001 19.6265
#
#
#
# Elastic Compliance Matrix: (Units=1/GPa)
#
#
# Indices 1 2 3 4 5 6 
#
# 1 0.010769 -0.000543 -0.001650 0.000000 0.004288 0.000000
# 2 -0.000543 0.010545 -0.003869 0.000000 0.001686 0.000000
# 3 -0.001650 -0.003869 0.010059 0.000000 0.002353 0.000000
# 4 0.000000 0.000000 0.000000 0.029412 0.000000 0.002517
# 5 0.004288 0.001686 0.002353 0.000000 0.021568 0.000000
# 6 0.000000 0.000000 0.000000 0.002517 0.000000 0.051167
#
#
# Mechanical properties :
#
#
# Convention : Reuss Voigt Hill
#
# Bulk Modulus (GPa) = 51.95680 64.19247 58.07463
# Shear Modulus (GPa) = 32.88173 38.71156 35.79664
#
# Velocity S-wave (km/s) = 3.61691 3.92447 3.77382
# Velocity P-wave (km/s) = 6.17364 6.78781 6.48799
#
# Compressibility (1/GPa) = 0.01924676
#
# Stress axis : x y z
#
# Youngs Moduli (GPa) = 92.86138 94.83408 99.41752
#
# Poissons Ratio (x) = 0.05154 0.16405
# Poissons Ratio (y) = 0.05046 0.38465
# Poissons Ratio (z) = 0.15324 0.36692
#
# Static dielectric constant tensor:
#      x y z
#    x 2.110360 0.000000 -0.015230 
#    y 0.000000 2.029030 0.000000 
#    z -0.015230 0.000000 1.963150 
# 
# From -- ./inp_files/203760.got.cif
#   From: 2010.05.17/outbox.cif.g08.bks.cpg/sg15_102_cif.got.tgz:203760.got - 2010.06.03 18:47:42.
