data_PCOD9299212
_publ_section_title
;
Structure prediction by ZEFSAII (Michael W. Deem and Ramdas Pophale) SiO2 
 PCOD9299212
Probable space group: C 2/C
;
_chemical_formula_sum "Si O2"
_cell_formula_units_Z 36
_cell_length_a 12.416268
_cell_length_b 9.217621
_cell_length_c 11.343327
_cell_angle_alpha 90.000000
_cell_angle_beta 88.021699
_cell_angle_gamma 90.000000
_cell_volume 1297.452445
_symmetry_space_group_name_H-M "C 2/C"
_symmetry_group_IT_number 15
_symmetry_cell_setting 'monoclinic'
loop_
_space_group_symop_operation_xyz
x,y,z
-x,y,1/2-z
-x,-y,-z
x,-y,1/2+z
1/2+x,1/2+y,z
1/2-x,1/2+y,1/2-z
1/2-x,1/2-y,-z
1/2+x,1/2-y,1/2+z
loop_
_atom_site_type_symbol
_atom_site_label
_atom_site_fract_x
_atom_site_fract_y
_atom_site_fract_z
Si Si1 0.000000 0.862461 0.750000
Si Si2 0.613201 0.084422 0.977187
Si Si3 0.801991 0.826947 0.887095
Si Si4 0.374917 0.916716 0.759698
Si Si5 0.386937 0.569982 0.039371
O O1 0.921492 0.778491 0.843005
O O2 0.093858 0.946831 0.819185
O O3 0.662319 0.048088 0.106649
O O4 0.631953 0.041698 0.839228
O O5 0.618217 0.258686 0.980752
O O6 0.500000 0.000000 0.000000
O O7 0.787043 0.692843 0.210154
O O8 0.750000 0.750000 0.000000
O O9 0.814536 0.988642 0.944444
O O10 0.500000 0.865013 0.750000
O O11 0.500000 0.500000 0.000000
#
# Coordination Sequence:
#
# PCOD9299212 Si02
#       5
#     4   8   8   8   8
#     4  10  26  50  80 122 170 214 294 360 446 522
#     4  10  24  47  78 121 164 226 286 360 433 534
#     4  11  27  50  82 124 172 230 289 366 449 529
#     4  10  25  46  82 115 168 222 294 352 443 519
#     4  10  25  48  79 119 166 222 288 358 443 526
#
# _framework density 27.746680999999999
#
# number of rings (size 3 to 8) (size 9 to 14) (size 15 to 20)
#    0.000    1.778    0.000    0.000   20.222    4.444 
#   10.000    0.000    0.000    0.000    0.000    0.000 
#    0.000    0.000    0.000    0.000    0.000    0.000 
#
# Total GULP energy -100267.076382 kJ/mol
# GULP energy per Si atom -5570.393132 kJ/mol
# Density = 2.768353 g / cm^3
# Si number density = 27.746681 Si / 1000 Ang^3
#
#
#
# Elastic Constant Matrix: (Units=GPa)
#
#
# Indices 1 2 3 4 5 6 
#
# 1 164.7913 8.7530 64.9979 0.0000 33.9576 0.0000
# 2 8.7530 111.6351 38.2482 0.0000 6.7238 0.0000
# 3 64.9979 38.2482 205.4971 0.0000 16.3185 0.0000
# 4 0.0000 0.0000 0.0000 47.2148 0.0000 8.1403
# 5 33.9576 6.7238 16.3185 0.0000 80.7862 0.0000
# 6 0.0000 0.0000 0.0000 8.1403 0.0000 28.1785
#
#
#
# Elastic Compliance Matrix: (Units=1/GPa)
#
#
# Indices 1 2 3 4 5 6 
#
# 1 0.007486 0.000336 -0.002214 0.000000 -0.002727 0.000000
# 2 0.000336 0.009599 -0.001848 0.000000 -0.000567 0.000000
# 3 -0.002214 -0.001848 0.005919 0.000000 -0.000111 0.000000
# 4 0.000000 0.000000 0.000000 0.022290 0.000000 -0.006439
# 5 -0.002727 -0.000567 -0.000111 0.000000 0.013594 0.000000
# 6 0.000000 0.000000 0.000000 -0.006439 0.000000 0.037348
#
#
# Mechanical properties :
#
#
# Convention : Reuss Voigt Hill
#
# Bulk Modulus (GPa) = 64.29954 78.43576 71.36765
# Shear Modulus (GPa) = 45.92586 55.89752 50.91169
#
# Velocity S-wave (km/s) = 4.07281 4.49326 4.28819
# Velocity P-wave (km/s) = 6.73358 7.43297 7.09190
#
# Compressibility (1/GPa) = 0.01555221
#
# Stress axis : x y z
#
# Youngs Moduli (GPa) = 133.59116 104.18143 168.94326
#
# Poissons Ratio (x) = -0.03498 0.37397
# Poissons Ratio (y) = -0.04485 0.31216
# Poissons Ratio (z) = 0.29571 0.19250
#
# Static dielectric constant tensor:
#      x y z
#    x 2.811520 0.000000 0.226670 
#    y 0.000000 2.089570 0.000000 
#    z 0.226670 0.000000 2.538250 
# 
# From -- ./inp_files/150164.got.cif
#   From: 2010.05.17/outbox.cif.g08.bks.cpg/sg15_76_cif.got.tgz:150164.got - 2010.06.03 18:47:42.
