data_PCOD9299982
_publ_section_title
;
Structure prediction by ZEFSAII (Michael W. Deem and Ramdas Pophale) SiO2 
 PCOD9299982
Probable space group: C 2/C
;
_chemical_formula_sum "Si O2"
_cell_formula_units_Z 28
_cell_length_a 10.779279
_cell_length_b 8.342130
_cell_length_c 26.540891
_cell_angle_alpha 90.000000
_cell_angle_beta 154.464639
_cell_angle_gamma 90.000000
_cell_volume 1028.793021
_symmetry_space_group_name_H-M "C 2/C"
_symmetry_group_IT_number 15
_symmetry_cell_setting 'monoclinic'
loop_
_space_group_symop_operation_xyz
x,y,z
-x,y,1/2-z
-x,-y,-z
x,-y,1/2+z
1/2+x,1/2+y,z
1/2-x,1/2+y,1/2-z
1/2-x,1/2-y,-z
1/2+x,1/2-y,1/2+z
loop_
_atom_site_type_symbol
_atom_site_label
_atom_site_fract_x
_atom_site_fract_y
_atom_site_fract_z
Si Si1 0.552488 0.895887 0.674541
Si Si2 0.998928 0.310159 0.512679
Si Si3 0.500000 0.866701 0.250000
Si Si4 0.172141 0.688004 0.653223
O O1 0.823009 0.795708 0.794675
O O2 0.300080 0.765724 0.577208
O O3 0.513650 0.013896 0.707790
O O4 0.585672 0.012346 0.639839
O O5 0.236085 0.245381 0.637548
O O6 0.000000 0.500000 0.500000
O O7 0.014853 0.240661 0.460819
O O8 0.500000 0.678628 0.750000
#
# Coordination Sequence:
#
# PCOD9299982 Si02
#       4
#     8   8   4   8
#     4  11  25  49  84 115 165 211 264 333 405 474
#     4  11  27  49  80 120 164 208 271 329 400 481
#     4  12  26  50  82 118 160 216 268 328 408 476
#     4  10  25  51  77 118 164 207 269 325 401 478
#
# _framework density 27.216360000000002
#
# number of rings (size 3 to 8) (size 9 to 14) (size 15 to 20)
#    0.000    1.143    4.286    0.857   10.000    2.286 
#    5.143    0.000    0.000    0.000    0.000    0.000 
#    0.000    0.000    0.000    0.000    0.000    0.000 
#
# Total GULP energy -78392.682291 kJ/mol
# GULP energy per Si atom -5599.477306 kJ/mol
# Density = 2.715441 g / cm^3
# Si number density = 27.216360 Si / 1000 Ang^3
#
#
#
# Elastic Constant Matrix: (Units=GPa)
#
#
# Indices 1 2 3 4 5 6 
#
# 1 77.7442 28.9995 21.7802 0.0000 -19.0640 0.0000
# 2 28.9995 170.7396 38.5802 0.0000 10.2450 0.0000
# 3 21.7802 38.5802 194.3635 0.0008 -6.3602 0.0000
# 4 0.0000 0.0000 0.0008 43.6276 0.0000 -8.5041
# 5 -19.0640 10.2450 -6.3602 0.0000 37.9693 -0.0001
# 6 0.0000 0.0000 0.0000 -8.5041 -0.0001 77.1334
#
#
#
# Elastic Compliance Matrix: (Units=1/GPa)
#
#
# Indices 1 2 3 4 5 6 
#
# 1 0.016490 -0.003128 -0.000934 0.000000 0.008967 0.000000
# 2 -0.003128 0.006860 -0.001129 0.000000 -0.003611 0.000000
# 3 -0.000934 -0.001129 0.005499 0.000000 0.000757 0.000000
# 4 0.000000 0.000000 0.000000 0.023425 0.000000 0.002583
# 5 0.008967 -0.003611 0.000757 0.000000 0.031940 0.000000
# 6 0.000000 0.000000 0.000000 0.002583 0.000000 0.013249
#
#
# Mechanical properties :
#
#
# Convention : Reuss Voigt Hill
#
# Bulk Modulus (GPa) = 54.15095 69.06301 61.60698
# Shear Modulus (GPa) = 43.85980 55.31188 49.58584
#
# Velocity S-wave (km/s) = 4.01873 4.51300 4.27302
# Velocity P-wave (km/s) = 6.43998 7.25168 6.85785
#
# Compressibility (1/GPa) = 0.01846690
#
# Stress axis : x y z
#
# Youngs Moduli (GPa) = 60.64361 145.77355 181.86620
#
# Poissons Ratio (x) = 0.45596 0.16978
# Poissons Ratio (y) = 0.18968 0.20538
# Poissons Ratio (z) = 0.05661 0.16462
#
# Static dielectric constant tensor:
#      x y z
#    x 2.209020 0.000000 0.004640 
#    y 0.000000 2.170980 0.000000 
#    z 0.004640 0.000000 2.205080 
# 
# From -- ./inp_files/291405.got.cif
#   From: 2010.05.17/outbox.cif.g08.bks.cpg/sg15_146_cif.got.tgz:291405.got - 2010.06.03 18:47:42.
