data_PCOD9299828
_publ_section_title
;
Structure prediction by ZEFSAII (Michael W. Deem and Ramdas Pophale) SiO2 
 PCOD9299828
Probable space group: C 2/C
;
_chemical_formula_sum "Si O2"
_cell_formula_units_Z 56
_cell_length_a 17.438026
_cell_length_b 21.250656
_cell_length_c 9.364095
_cell_angle_alpha 90.000000
_cell_angle_beta 142.020483
_cell_angle_gamma 90.000000
_cell_volume 2135.397140
_symmetry_space_group_name_H-M "C 2/C"
_symmetry_group_IT_number 15
_symmetry_cell_setting 'monoclinic'
loop_
_space_group_symop_operation_xyz
x,y,z
-x,y,1/2-z
-x,-y,-z
x,-y,1/2+z
1/2+x,1/2+y,z
1/2-x,1/2+y,1/2-z
1/2-x,1/2-y,-z
1/2+x,1/2-y,1/2+z
loop_
_atom_site_type_symbol
_atom_site_label
_atom_site_fract_x
_atom_site_fract_y
_atom_site_fract_z
Si Si1 0.659338 0.191035 0.328790
Si Si2 0.535369 0.547832 0.668644
Si Si3 0.803336 0.129030 0.275574
Si Si4 0.151416 0.447693 0.311200
Si Si5 0.369020 0.702193 0.105467
Si Si6 0.311165 0.067142 0.969768
Si Si7 0.093713 0.683973 0.677363
O O1 0.750000 0.250000 0.500000
O O2 0.718531 0.155425 0.277580
O O3 0.642746 0.137532 0.426776
O O4 0.479876 0.212010 0.421081
O O5 0.500000 0.505114 0.750000
O O6 0.500000 0.500000 0.500000
O O7 0.428017 0.599666 0.523416
O O8 0.673164 0.568356 0.835044
O O9 0.851543 0.183238 0.243288
O O10 0.744027 0.079772 0.072226
O O11 0.116763 0.515137 0.326384
O O12 0.192764 0.452994 0.204015
O O13 0.059015 0.388392 0.161082
O O14 0.500000 0.673421 0.250000
O O15 0.387719 0.776634 0.149593
O O16 0.239997 0.684196 0.838530
#
# Coordination Sequence:
#
# PCOD9299828 Si02
#       7
#     8   8   8   8   8   8   8
#     4  12  30  53  80 117 171 221 279 347 424 508
#     4  12  24  42  73 114 158 206 267 335 420 489
#     4  11  26  46  79 120 159 213 267 347 416 511
#     4  11  26  49  81 113 156 212 286 338 426 501
#     4  10  25  46  79 118 155 207 272 339 425 497
#     4  12  26  49  74 117 158 216 271 352 414 497
#     4  10  27  49  78 114 161 213 275 344 417 498
#
# _framework density 26.224630000000001
#
# number of rings (size 3 to 8) (size 9 to 14) (size 15 to 20)
#    0.000    0.857    2.857    1.714   14.000    1.143 
#    0.000    1.429    0.000    0.000    0.000    0.000 
#    0.000    0.000    0.000    0.000    0.000    0.000 
#
# Total GULP energy -156245.187302 kJ/mol
# GULP energy per Si atom -5580.185261 kJ/mol
# Density = 2.616494 g / cm^3
# Si number density = 26.224630 Si / 1000 Ang^3
#
#
#
# Elastic Constant Matrix: (Units=GPa)
#
#
# Indices 1 2 3 4 5 6 
#
# 1 170.2630 27.4008 76.5555 0.0000 -5.0372 0.0000
# 2 27.4008 127.1470 51.8791 0.0000 -1.6565 0.0000
# 3 76.5555 51.8791 168.0615 0.0000 7.5059 0.0000
# 4 0.0000 0.0000 0.0000 3277.7428 0.0000 1668.0198
# 5 -5.0372 -1.6565 7.5059 0.0000 73.8938 0.0000
# 6 0.0000 0.0000 0.0000 1668.0198 0.0000 890.6494
#
#
#
# Elastic Compliance Matrix: (Units=1/GPa)
#
#
# Indices 1 2 3 4 5 6 
#
# 1 0.007445 -0.000222 -0.003360 0.000000 0.000844 0.000000
# 2 -0.000222 0.009022 -0.002704 0.000000 0.000462 0.000000
# 3 -0.003360 -0.002704 0.008367 0.000000 -0.001140 0.000000
# 4 0.000000 0.000000 0.000000 0.006500 0.000000 -0.012173
# 5 0.000844 0.000462 -0.001140 0.000000 0.013717 0.000000
# 6 0.000000 0.000000 0.000000 -0.012173 0.000000 0.023920
#
#
# Mechanical properties :
#
#
# Convention : Reuss Voigt Hill
#
# Bulk Modulus (GPa) = 81.56872 86.34916 83.95894
# Shear Modulus (GPa) = 58.39006 869.09962 463.74484
#
# Velocity S-wave (km/s) = 4.72374 18.22431 13.31238
# Velocity P-wave (km/s) = 7.80532 21.81357 16.38223
#
# Compressibility (1/GPa) = 0.01225960
#
# Stress axis : x y z
#
# Youngs Moduli (GPa) = 134.31928 110.83621 119.52188
#
# Poissons Ratio (x) = 0.02464 0.40164
# Poissons Ratio (y) = 0.02986 0.32324
# Poissons Ratio (z) = 0.45137 0.29975
#
# Static dielectric constant tensor:
#      x y z
#    x 1.987150 0.000000 0.069480 
#    y 0.000000 1.600990 0.000000 
#    z 0.069480 0.000000 2.181760 
# 
# From -- ./inp_files/51570.got.cif
#   From: 2010.05.17/outbox.cif.g08.bks.cpg/sg15_26_cif.got.tgz:51570.got - 2010.06.03 18:47:42.
