data_PCOD9299870
_publ_section_title
;
Structure prediction by ZEFSAII (Michael W. Deem and Ramdas Pophale) SiO2 
 PCOD9299870
Probable space group: C 2/C
;
_chemical_formula_sum "Si O2"
_cell_formula_units_Z 52
_cell_length_a 17.887568
_cell_length_b 7.113247
_cell_length_c 14.295487
_cell_angle_alpha 90.000000
_cell_angle_beta 92.187860
_cell_angle_gamma 90.000000
_cell_volume 1817.613074
_symmetry_space_group_name_H-M "C 2/C"
_symmetry_group_IT_number 15
_symmetry_cell_setting 'monoclinic'
loop_
_space_group_symop_operation_xyz
x,y,z
-x,y,1/2-z
-x,-y,-z
x,-y,1/2+z
1/2+x,1/2+y,z
1/2-x,1/2+y,1/2-z
1/2-x,1/2-y,-z
1/2+x,1/2-y,1/2+z
loop_
_atom_site_type_symbol
_atom_site_label
_atom_site_fract_x
_atom_site_fract_y
_atom_site_fract_z
Si Si1 0.574492 0.198518 0.087857
Si Si2 0.340547 0.992452 0.166355
Si Si3 0.345632 0.440740 0.183979
Si Si4 0.651493 0.280541 0.664435
Si Si5 0.781864 0.491061 0.959499
Si Si6 0.992986 0.301201 0.101530
Si Si7 0.500000 0.575783 0.750000
O O1 0.545621 0.291810 0.179962
O O2 0.662491 0.167033 0.080436
O O3 0.543691 0.986531 0.082410
O O4 0.537509 0.289625 0.994859
O O5 0.325428 0.882356 0.261311
O O6 0.422549 0.903343 0.146965
O O7 0.342295 0.216270 0.180818
O O8 0.291842 0.965968 0.070358
O O9 0.319420 0.535466 0.280449
O O10 0.297415 0.518788 0.095558
O O11 0.685062 0.198474 0.570080
O O12 0.561479 0.311465 0.652922
O O13 0.932407 0.005980 0.182439
#
# Coordination Sequence:
#
# PCOD9299870 Si02
#       7
#     8   8   8   8   8   8   4
#     4   9  19  39  70  99 140 187 240 291 369 432
#     4  11  23  47  77 103 148 199 248 311 377 448
#     4  12  27  44  71 109 147 193 253 308 375 443
#     4  11  26  43  74 107 147 188 251 308 373 447
#     4  10  25  47  73 110 148 200 249 314 377 446
#     4   9  18  39  68 101 137 182 235 299 364 432
#     4  12  24  40  72 110 146 194 250 304 368 448
#
# _framework density 28.608948000000002
#
# number of rings (size 3 to 8) (size 9 to 14) (size 15 to 20)
#    0.000    1.538    1.538    3.692    6.462    0.615 
#    0.000    5.385    0.000    0.000    0.000    0.000 
#    0.000    0.000    0.000    0.000    0.000    0.000 
#
# Total GULP energy -145675.510274 kJ/mol
# GULP energy per Si atom -5602.904241 kJ/mol
# Density = 2.854383 g / cm^3
# Si number density = 28.608948 Si / 1000 Ang^3
#
#
#
# Elastic Constant Matrix: (Units=GPa)
#
#
# Indices 1 2 3 4 5 6 
#
# 1 182.5274 41.7916 71.6281 0.0000 60.2971 0.0000
# 2 41.7916 133.5665 56.3820 0.0000 15.5385 0.0000
# 3 71.6281 56.3820 205.9959 0.0000 30.3295 0.0000
# 4 0.0000 0.0000 0.0000 39.0759 0.0000 14.1105
# 5 60.2971 15.5385 30.3295 0.0000 58.0615 0.0000
# 6 0.0000 0.0000 0.0000 14.1105 0.0000 31.8178
#
#
#
# Elastic Compliance Matrix: (Units=1/GPa)
#
#
# Indices 1 2 3 4 5 6 
#
# 1 0.009141 -0.001207 -0.001623 0.000000 -0.008322 0.000000
# 2 -0.001207 0.008695 -0.001952 0.000000 -0.000054 0.000000
# 3 -0.001623 -0.001952 0.006097 0.000000 -0.000977 0.000000
# 4 0.000000 0.000000 0.000000 0.030471 0.000000 -0.013513
# 5 -0.008322 -0.000054 -0.000977 0.000000 0.026391 0.000000
# 6 0.000000 0.000000 0.000000 -0.013513 0.000000 0.037422
#
#
# Mechanical properties :
#
#
# Convention : Reuss Voigt Hill
#
# Bulk Modulus (GPa) = 69.59491 95.74368 82.66930
# Shear Modulus (GPa) = 37.71604 49.27693 43.49649
#
# Velocity S-wave (km/s) = 3.63482 4.15472 3.90344
# Velocity P-wave (km/s) = 6.48035 7.52028 7.01960
#
# Compressibility (1/GPa) = 0.01436887
#
# Stress axis : x y z
#
# Youngs Moduli (GPa) = 109.39697 115.01006 164.01651
#
# Poissons Ratio (x) = 0.13881 0.26617
# Poissons Ratio (y) = 0.13203 0.32020
# Poissons Ratio (z) = 0.17753 0.22453
#
# Static dielectric constant tensor:
#      x y z
#    x 2.322260 0.000000 -0.021090 
#    y 0.000000 2.286870 0.000000 
#    z -0.021090 0.000000 2.266170 
# 
# From -- ./inp_files/166316.got.cif
#   From: 2010.05.17/outbox.cif.g08.bks.cpg/sg15_84_cif.got.tgz:166316.got - 2010.06.03 18:47:42.
