data_PCOD9299073
_publ_section_title
;
Structure prediction by ZEFSAII (Michael W. Deem and Ramdas Pophale) SiO2 
 PCOD9299073
Probable space group: C 2/C
;
_chemical_formula_sum "Si O2"
_cell_formula_units_Z 24
_cell_length_a 9.284171
_cell_length_b 10.084360
_cell_length_c 16.448527
_cell_angle_alpha 90.000000
_cell_angle_beta 146.306972
_cell_angle_gamma 90.000000
_cell_volume 854.300109
_symmetry_space_group_name_H-M "C 2/C"
_symmetry_group_IT_number 15
_symmetry_cell_setting 'monoclinic'
loop_
_space_group_symop_operation_xyz
x,y,z
-x,y,1/2-z
-x,-y,-z
x,-y,1/2+z
1/2+x,1/2+y,z
1/2-x,1/2+y,1/2-z
1/2-x,1/2-y,-z
1/2+x,1/2-y,1/2+z
loop_
_atom_site_type_symbol
_atom_site_label
_atom_site_fract_x
_atom_site_fract_y
_atom_site_fract_z
Si Si1 0.679378 0.468215 0.506697
Si Si2 0.895555 0.643524 0.479266
Si Si3 0.141132 0.732388 0.211728
O O1 0.500000 0.500000 0.500000
O O2 0.523833 0.366896 0.375988
O O3 0.736440 0.602666 0.484375
O O4 0.953599 0.390715 0.646002
O O5 0.140477 0.731582 0.621272
O O6 0.000000 0.500000 0.500000
O O7 0.768185 0.703850 0.338468
#
# Coordination Sequence:
#
# PCOD9299073 Si02
#       3
#     8   8   8
#     4  10  24  46  77 111 147 194 257 322 379 447
#     4  10  24  48  75 108 154 203 252 313 385 462
#     4  10  24  47  75 107 150 200 251 312 386 460
#
# _framework density 28.093171000000002
#
# number of rings (size 3 to 8) (size 9 to 14) (size 15 to 20)
#    0.000    2.000    0.000    0.000    0.000   22.667 
#    0.000   16.667    0.000    0.000    0.000    0.000 
#    0.000    0.000    0.000    0.000    0.000    0.000 
#
# Total GULP energy -67331.209108 kJ/mol
# GULP energy per Si atom -5610.934092 kJ/mol
# Density = 2.802923 g / cm^3
# Si number density = 28.093171 Si / 1000 Ang^3
#
#
#
# Elastic Constant Matrix: (Units=GPa)
#
#
# Indices 1 2 3 4 5 6 
#
# 1 270.3958 57.3094 71.4518 0.0000 -2.5658 -0.0001
# 2 57.3094 161.5305 64.0758 0.0000 9.2445 0.0000
# 3 71.4518 64.0758 142.7030 0.0002 -21.9223 0.0002
# 4 0.0000 0.0000 0.0002 26.0146 0.0001 1.0916
# 5 -2.5658 9.2445 -21.9223 0.0001 37.7041 -0.0001
# 6 -0.0001 0.0000 0.0002 1.0916 -0.0001 70.7972
#
#
#
# Elastic Compliance Matrix: (Units=1/GPa)
#
#
# Indices 1 2 3 4 5 6 
#
# 1 0.004365 -0.000734 -0.001957 0.000000 -0.000661 0.000000
# 2 -0.000734 0.008310 -0.004046 0.000000 -0.004440 0.000000
# 3 -0.001957 -0.004046 0.010911 0.000000 0.007203 0.000000
# 4 0.000000 0.000000 0.000000 0.038465 0.000000 -0.000593
# 5 -0.000661 -0.004440 0.007203 0.000000 0.031754 0.000000
# 6 0.000000 0.000000 0.000000 -0.000593 0.000000 0.014134
#
#
# Mechanical properties :
#
#
# Convention : Reuss Voigt Hill
#
# Bulk Modulus (GPa) = 98.90308 106.70037 102.80173
# Shear Modulus (GPa) = 40.06931 52.35599 46.21265
#
# Velocity S-wave (km/s) = 3.78074 4.32169 4.06023
# Velocity P-wave (km/s) = 7.37160 7.93511 7.65854
#
# Compressibility (1/GPa) = 0.01011091
#
# Stress axis : x y z
#
# Youngs Moduli (GPa) = 229.10194 120.33216 91.65313
#
# Poissons Ratio (x) = 0.08837 0.17939
# Poissons Ratio (y) = 0.16825 0.37081
# Poissons Ratio (z) = 0.44842 0.48684
#
# Static dielectric constant tensor:
#      x y z
#    x 2.353530 0.000000 0.032400 
#    y 0.000000 2.134010 0.000000 
#    z 0.032400 0.000000 2.177750 
# 
# From -- ./inp_files/187522.got.cif
#   From: 2010.05.17/outbox.cif.g08.bks.cpg/sg15_94_cif.got.tgz:187522.got - 2010.06.03 18:47:42.
