data_PCOD9299171
_publ_section_title
;
Structure prediction by ZEFSAII (Michael W. Deem and Ramdas Pophale) SiO2 
 PCOD9299171
Probable space group: C 2/C
;
_chemical_formula_sum "Si O2"
_cell_formula_units_Z 44
_cell_length_a 5.313101
_cell_length_b 24.978077
_cell_length_c 14.426591
_cell_angle_alpha 90.000000
_cell_angle_beta 79.671236
_cell_angle_gamma 90.000000
_cell_volume 1883.542694
_symmetry_space_group_name_H-M "C 2/C"
_symmetry_group_IT_number 15
_symmetry_cell_setting 'monoclinic'
loop_
_space_group_symop_operation_xyz
x,y,z
-x,y,1/2-z
-x,-y,-z
x,-y,1/2+z
1/2+x,1/2+y,z
1/2-x,1/2+y,1/2-z
1/2-x,1/2-y,-z
1/2+x,1/2-y,1/2+z
loop_
_atom_site_type_symbol
_atom_site_label
_atom_site_fract_x
_atom_site_fract_y
_atom_site_fract_z
Si Si1 0.857925 0.394741 0.165881
Si Si2 0.800318 0.275029 0.596532
Si Si3 0.687499 0.574720 0.351607
Si Si4 0.000000 0.201260 0.750000
Si Si5 0.500000 0.479279 0.250000
Si Si6 0.000000 0.163886 0.250000
Si Si7 0.383859 0.893232 0.544250
O O1 0.722085 0.338132 0.197074
O O2 0.643197 0.440092 0.169336
O O3 0.000000 0.409884 0.250000
O O4 0.049396 0.394140 0.068048
O O5 0.750000 0.250000 0.500000
O O6 0.920200 0.236794 0.666474
O O7 0.543803 0.296757 0.661722
O O8 0.938757 0.331722 0.571431
O O9 0.673701 0.519669 0.297116
O O10 0.712297 0.622264 0.273185
O O11 0.407395 0.588601 0.415205
O O12 0.909884 0.573299 0.411724
#
# Coordination Sequence:
#
# PCOD9299171 Si02
#       7
#     8   8   8   4   4   4   8
#     4  11  27  46  66 101 146 184 235 301 363 434
#     4  11  24  42  73 106 143 201 242 294 365 438
#     4  10  24  47  73 104 136 188 234 308 355 422
#     4  11  26  43  68 100 148 193 242 299 356 434
#     4  10  26  46  76  98 140 184 236 292 384 422
#     4   9  22  41  68 102 146 175 246 299 350 420
#     4  11  26  45  73 104 146 179 249 292 356 432
#
# _framework density 23.360233999999998
#
# number of rings (size 3 to 8) (size 9 to 14) (size 15 to 20)
#    0.000    1.455    0.000    2.182   16.545    7.273 
#    0.000    0.000    0.000    0.000    0.000    0.000 
#    0.000    0.000    0.000    0.000    0.000    0.000 
#
# Total GULP energy -122983.525493 kJ/mol
# GULP energy per Si atom -5590.160250 kJ/mol
# Density = 2.330706 g / cm^3
# Si number density = 23.360234 Si / 1000 Ang^3
#
#
#
# Elastic Constant Matrix: (Units=GPa)
#
#
# Indices 1 2 3 4 5 6 
#
# 1 91.9137 22.0728 39.9435 0.0000 -0.8234 0.0000
# 2 22.0728 130.3365 47.5691 0.0000 1.4822 0.0000
# 3 39.9435 47.5691 172.8084 0.0000 -5.2193 0.0000
# 4 0.0000 0.0000 0.0000 -398.6777 0.0000 -110.2909
# 5 -0.8234 1.4822 -5.2193 0.0000 43.0727 0.0000
# 6 0.0000 0.0000 0.0000 -110.2909 0.0000 -8.6881
#
#
#
# Elastic Compliance Matrix: (Units=1/GPa)
#
#
# Indices 1 2 3 4 5 6 
#
# 1 0.012250 -0.001157 -0.002514 0.000000 -0.000031 0.000000
# 2 -0.001157 0.008653 -0.002132 0.000000 -0.000578 0.000000
# 3 -0.002514 -0.002132 0.006981 0.000000 0.000871 0.000000
# 4 0.000000 0.000000 0.000000 0.000999 0.000000 -0.012677
# 5 -0.000031 -0.000578 0.000871 0.000000 0.023341 0.000000
# 6 0.000000 0.000000 0.000000 -0.012677 0.000000 0.045823
#
#
# Mechanical properties :
#
#
# Convention : Reuss Voigt Hill
#
# Bulk Modulus (GPa) = 61.43068 68.24772 64.83920
# Shear Modulus (GPa) = 43.44855 -53.82707 -5.18926
#
# Velocity S-wave (km/s) = 4.31738 -4.80543 -1.49206
# Velocity P-wave (km/s) = 7.15592 1.22916 4.98479
#
# Compressibility (1/GPa) = 0.01627851
#
# Stress axis : x y z
#
# Youngs Moduli (GPa) = 81.63417 115.56634 143.24495
#
# Poissons Ratio (x) = 0.13367 0.36012
# Poissons Ratio (y) = 0.09442 0.30540
# Poissons Ratio (z) = 0.20523 0.24639
#
# Static dielectric constant tensor:
#      x y z
#    x 2.003430 0.000000 -0.054130 
#    y 0.000000 1.873000 0.000000 
#    z -0.054130 0.000000 1.913160 
# 
# From -- ./inp_files/129408.got.cif
#   From: 2010.05.17/outbox.cif.g08.bks.cpg/sg15_65_cif.got.tgz:129408.got - 2010.06.03 18:47:42.
