data_PCOD9299738
_publ_section_title
;
Structure prediction by ZEFSAII (Michael W. Deem and Ramdas Pophale) SiO2 
 PCOD9299738
Probable space group: C 2/C
;
_chemical_formula_sum "Si O2"
_cell_formula_units_Z 40
_cell_length_a 10.637694
_cell_length_b 11.174421
_cell_length_c 23.273908
_cell_angle_alpha 90.000000
_cell_angle_beta 144.416833
_cell_angle_gamma 90.000000
_cell_volume 1609.823634
_symmetry_space_group_name_H-M "C 2/C"
_symmetry_group_IT_number 15
_symmetry_cell_setting 'monoclinic'
loop_
_space_group_symop_operation_xyz
x,y,z
-x,y,1/2-z
-x,-y,-z
x,-y,1/2+z
1/2+x,1/2+y,z
1/2-x,1/2+y,1/2-z
1/2-x,1/2-y,-z
1/2+x,1/2-y,1/2+z
loop_
_atom_site_type_symbol
_atom_site_label
_atom_site_fract_x
_atom_site_fract_y
_atom_site_fract_z
Si Si1 0.130426 0.284566 0.355104
Si Si2 0.585807 0.559026 0.177519
Si Si3 0.386054 0.345267 0.940241
Si Si4 0.217604 0.851872 0.438049
Si Si5 0.948709 0.505923 0.107570
O O1 0.384479 0.311506 0.445711
O O2 0.050133 0.365926 0.378524
O O3 0.000000 0.324401 0.250000
O O4 0.069030 0.147734 0.344600
O O5 0.582441 0.604459 0.111067
O O6 0.505100 0.422533 0.147506
O O7 0.826467 0.564505 0.291344
O O8 0.259508 0.219928 0.895878
O O9 0.241488 0.440457 0.921871
O O10 0.250000 0.750000 0.500000
O O11 0.384019 0.954072 0.520055
#
# Coordination Sequence:
#
# PCOD9299738 Si02
#       5
#     8   8   8   8   8
#     4  12  26  44  73 106 147 192 241 301 367 435
#     4  12  26  47  68 112 145 191 245 306 365 442
#     4  11  24  47  73 101 143 193 243 298 364 434
#     4  10  25  45  74 104 141 189 243 298 362 436
#     4  11  25  44  75 102 143 188 251 294 367 440
#
# _framework density 24.847441
#
# number of rings (size 3 to 8) (size 9 to 14) (size 15 to 20)
#    0.000    0.800    2.000    4.200   14.000    0.800 
#    3.600    0.000    0.000    0.000    0.000    0.000 
#    0.000    0.000    0.000    0.000    0.000    0.000 
#
# Total GULP energy -111997.179411 kJ/mol
# GULP energy per Si atom -5599.858971 kJ/mol
# Density = 2.479089 g / cm^3
# Si number density = 24.847441 Si / 1000 Ang^3
#
#
#
# Elastic Constant Matrix: (Units=GPa)
#
#
# Indices 1 2 3 4 5 6 
#
# 1 69.4169 35.3986 25.7083 0.0000 15.0681 0.0000
# 2 35.3986 95.4219 -4.1459 0.0001 13.6501 0.0000
# 3 25.7083 -4.1459 118.2778 -0.0001 36.0274 0.0000
# 4 0.0000 0.0001 -0.0001 30.9183 0.0000 9.6455
# 5 15.0681 13.6501 36.0274 0.0000 32.6244 0.0000
# 6 0.0000 0.0000 0.0000 9.6455 0.0000 51.3994
#
#
#
# Elastic Compliance Matrix: (Units=1/GPa)
#
#
# Indices 1 2 3 4 5 6 
#
# 1 0.020051 -0.007386 -0.004125 0.000000 -0.001615 0.000000
# 2 -0.007386 0.014485 0.004400 0.000000 -0.007508 0.000000
# 3 -0.004125 0.004400 0.014294 0.000000 -0.015721 0.000000
# 4 0.000000 0.000000 0.000000 0.034355 0.000000 -0.006447
# 5 -0.001615 -0.007508 -0.015721 0.000000 0.051900 0.000000
# 6 0.000000 0.000000 0.000000 -0.006447 0.000000 0.020665
#
#
# Mechanical properties :
#
#
# Convention : Reuss Voigt Hill
#
# Bulk Modulus (GPa) = 28.89575 44.11542 36.50559
# Shear Modulus (GPa) = 27.54701 38.06546 32.80623
#
# Velocity S-wave (km/s) = 3.33325 3.91828 3.63754
# Velocity P-wave (km/s) = 5.14476 6.18576 5.68912
#
# Compressibility (1/GPa) = 0.03460716
#
# Stress axis : x y z
#
# Youngs Moduli (GPa) = 49.87384 69.03628 69.95893
#
# Poissons Ratio (x) = 0.50993 0.28859
# Poissons Ratio (y) = 0.36839 -0.30783
# Poissons Ratio (z) = 0.20574 -0.30377
#
# Static dielectric constant tensor:
#      x y z
#    x 2.025660 0.000000 0.006490 
#    y 0.000000 2.019830 0.000000 
#    z 0.006490 0.000000 1.936490 
# 
# From -- ./inp_files/122833.got.cif
#   From: 2010.05.17/outbox.cif.g08.bks.cpg/sg15_62_cif.got.tgz:122833.got - 2010.06.03 18:47:42.
