data_PCOD9299386
_publ_section_title
;
Structure prediction by ZEFSAII (Michael W. Deem and Ramdas Pophale) SiO2 
 PCOD9299386
Probable space group: C 2/C
;
_chemical_formula_sum "Si O2"
_cell_formula_units_Z 44
_cell_length_a 7.198870
_cell_length_b 12.782052
_cell_length_c 20.188921
_cell_angle_alpha 90.000000
_cell_angle_beta 100.207556
_cell_angle_gamma 90.000000
_cell_volume 1828.307047
_symmetry_space_group_name_H-M "C 2/C"
_symmetry_group_IT_number 15
_symmetry_cell_setting 'monoclinic'
loop_
_space_group_symop_operation_xyz
x,y,z
-x,y,1/2-z
-x,-y,-z
x,-y,1/2+z
1/2+x,1/2+y,z
1/2-x,1/2+y,1/2-z
1/2-x,1/2-y,-z
1/2+x,1/2-y,1/2+z
loop_
_atom_site_type_symbol
_atom_site_label
_atom_site_fract_x
_atom_site_fract_y
_atom_site_fract_z
Si Si1 0.000000 0.175820 0.750000
Si Si2 0.730803 0.508903 0.935672
Si Si3 0.704671 0.730596 0.889551
Si Si4 0.836600 0.390571 0.186653
Si Si5 0.298201 0.453724 0.916980
Si Si6 0.810185 0.272520 0.928190
O O1 0.880611 0.240549 0.689296
O O2 0.855431 0.108138 0.782982
O O3 0.790689 0.615253 0.902949
O O4 0.501656 0.507198 0.921492
O O5 0.792845 0.396302 0.913539
O O6 0.782781 0.519805 0.016087
O O7 0.830507 0.830520 0.912008
O O8 0.527755 0.741069 0.928725
O O9 0.840458 0.497962 0.146115
O O10 0.809282 0.297065 0.131530
O O11 0.000000 0.374509 0.250000
O O12 0.750000 0.250000 0.000000
#
# Coordination Sequence:
#
# PCOD9299386 Si02
#       6
#     4   8   8   8   8   8
#     4  10  24  50  64 100 156 186 238 302 356 438
#     4  11  22  45  71  99 143 181 230 305 365 418
#     4  11  25  45  68 105 144 184 242 295 359 439
#     4  11  25  48  72 108 145 194 248 296 372 449
#     4  11  23  45  71 101 140 182 237 304 357 432
#     4  11  22  46  72 102 144 183 240 302 358 432
#
# _framework density 24.06598
#
# number of rings (size 3 to 8) (size 9 to 14) (size 15 to 20)
#    0.000    1.091    5.455    1.636    3.818    2.182 
#    4.909    0.000    0.000    0.000    0.000    0.000 
#    0.000    0.000    0.000    0.000    0.000    0.000 
#
# Total GULP energy -123268.492617 kJ/mol
# GULP energy per Si atom -5603.113301 kJ/mol
# Density = 2.401120 g / cm^3
# Si number density = 24.065980 Si / 1000 Ang^3
#
#
#
# Elastic Constant Matrix: (Units=GPa)
#
#
# Indices 1 2 3 4 5 6 
#
# 1 58.5437 26.7186 34.8306 0.0000 -2.8504 0.0000
# 2 26.7186 211.0994 49.8241 0.0000 3.8216 0.0000
# 3 34.8306 49.8241 162.7677 0.0000 6.1291 0.0000
# 4 0.0000 0.0000 0.0000 16.2243 0.0000 6.1946
# 5 -2.8504 3.8216 6.1291 0.0000 30.5788 0.0000
# 6 0.0000 0.0000 0.0000 6.1946 0.0000 33.3130
#
#
#
# Elastic Compliance Matrix: (Units=1/GPa)
#
#
# Indices 1 2 3 4 5 6 
#
# 1 0.020343 -0.001697 -0.003943 0.000000 0.002899 0.000000
# 2 -0.001697 0.005251 -0.001223 0.000000 -0.000569 0.000000
# 3 -0.003943 -0.001223 0.007426 0.000000 -0.001703 0.000000
# 4 0.000000 0.000000 0.000000 0.066346 0.000000 -0.012337
# 5 0.002899 -0.000569 -0.001703 0.000000 0.033385 0.000000
# 6 0.000000 0.000000 0.000000 -0.012337 0.000000 0.032312
#
#
# Mechanical properties :
#
#
# Convention : Reuss Voigt Hill
#
# Bulk Modulus (GPa) = 51.82799 72.79527 62.31163
# Shear Modulus (GPa) = 26.99506 37.42572 32.21039
#
# Velocity S-wave (km/s) = 3.35283 3.94779 3.66241
# Velocity P-wave (km/s) = 6.04741 7.14800 6.62062
#
# Compressibility (1/GPa) = 0.01929459
#
# Stress axis : x y z
#
# Youngs Moduli (GPa) = 49.15816 190.44888 134.66382
#
# Poissons Ratio (x) = 0.32311 0.53096
# Poissons Ratio (y) = 0.08340 0.16467
# Poissons Ratio (z) = 0.19383 0.23288
#
# Static dielectric constant tensor:
#      x y z
#    x 1.962740 0.000000 0.010640 
#    y 0.000000 1.885590 0.000000 
#    z 0.010640 0.000000 1.938140 
# 
# From -- ./inp_files/230242.got.cif
#   From: 2010.05.17/outbox.cif.g08.bks.cpg/sg15_116_cif.got.tgz:230242.got - 2010.06.03 18:47:42.
