data_PCOD9299169
_publ_section_title
;
Structure prediction by ZEFSAII (Michael W. Deem and Ramdas Pophale) SiO2 
 PCOD9299169
Probable space group: C 2/C
;
_chemical_formula_sum "Si O2"
_cell_formula_units_Z 36
_cell_length_a 7.016953
_cell_length_b 13.150077
_cell_length_c 19.571100
_cell_angle_alpha 90.000000
_cell_angle_beta 55.269307
_cell_angle_gamma 90.000000
_cell_volume 1484.153521
_symmetry_space_group_name_H-M "C 2/C"
_symmetry_group_IT_number 15
_symmetry_cell_setting 'monoclinic'
loop_
_space_group_symop_operation_xyz
x,y,z
-x,y,1/2-z
-x,-y,-z
x,-y,1/2+z
1/2+x,1/2+y,z
1/2-x,1/2+y,1/2-z
1/2-x,1/2-y,-z
1/2+x,1/2-y,1/2+z
loop_
_atom_site_type_symbol
_atom_site_label
_atom_site_fract_x
_atom_site_fract_y
_atom_site_fract_z
Si Si1 0.854973 0.896597 0.017135
Si Si2 0.677409 0.718769 0.343304
Si Si3 0.437349 0.292185 0.408482
Si Si4 0.833674 0.436095 0.123130
Si Si5 0.500000 0.600169 0.250000
O O1 0.980249 0.825052 0.935649
O O2 0.849393 0.826744 0.087852
O O3 0.600751 0.934459 0.047836
O O4 0.000000 0.000000 0.000000
O O5 0.906173 0.719479 0.347631
O O6 0.675819 0.838251 0.324825
O O7 0.616745 0.660193 0.287759
O O8 0.250000 0.250000 0.500000
O O9 0.332005 0.397604 0.402931
O O10 0.712603 0.532996 0.178183
#
# Coordination Sequence:
#
# PCOD9299169 Si02
#       5
#     8   8   8   8   4
#     4  11  21  43  76 112 136 185 254 312 371 423
#     4   9  23  46  70 101 146 194 240 311 361 439
#     4   8  19  41  70 102 137 178 241 306 363 419
#     4  10  24  47  73 103 144 192 248 307 368 445
#     4  12  24  50  70 106 158 208 252 284 392 476
#
# _framework density 24.256250999999999
#
# number of rings (size 3 to 8) (size 9 to 14) (size 15 to 20)
#    1.333    0.889    0.000    2.000    0.000    3.556 
#   16.000    0.000    0.000    0.000    0.000    0.000 
#    0.000    0.000    0.000    0.000    0.000    0.000 
#
# Total GULP energy -100219.801136 kJ/mol
# GULP energy per Si atom -5567.766730 kJ/mol
# Density = 2.420104 g / cm^3
# Si number density = 24.256251 Si / 1000 Ang^3
#
#
#
# Elastic Constant Matrix: (Units=GPa)
#
#
# Indices 1 2 3 4 5 6 
#
# 1 131.7920 28.8236 54.0667 -0.0003 11.7551 -0.0004
# 2 28.8236 98.9054 55.9520 0.0001 21.2526 -0.0002
# 3 54.0667 55.9520 118.0459 -0.0001 50.9463 -0.0001
# 4 -0.0003 0.0001 -0.0001 60.2867 0.0000 7.7271
# 5 11.7551 21.2526 50.9463 0.0000 37.8483 0.0004
# 6 -0.0004 -0.0002 -0.0001 7.7271 0.0004 44.4050
#
#
#
# Elastic Compliance Matrix: (Units=1/GPa)
#
#
# Indices 1 2 3 4 5 6 
#
# 1 0.010146 -0.000153 -0.007759 0.000000 0.007379 0.000000
# 2 -0.000153 0.013919 -0.007576 0.000000 0.002429 0.000000
# 3 -0.007759 -0.007576 0.030401 0.000000 -0.034258 0.000000
# 4 0.000000 0.000000 0.000000 0.016966 0.000000 -0.002952
# 5 0.007379 0.002429 -0.034258 0.000000 0.068878 -0.000001
# 6 0.000000 0.000000 0.000000 -0.002952 -0.000001 0.023034
#
#
# Mechanical properties :
#
#
# Convention : Reuss Voigt Hill
#
# Bulk Modulus (GPa) = 42.57101 69.60309 56.08705
# Shear Modulus (GPa) = 24.73413 42.50141 33.61777
#
# Velocity S-wave (km/s) = 3.19674 4.19045 3.72686
# Velocity P-wave (km/s) = 5.58696 7.22291 6.45695
#
# Compressibility (1/GPa) = 0.02349017
#
# Stress axis : x y z
#
# Youngs Moduli (GPa) = 98.55921 71.84457 32.89383
#
# Poissons Ratio (x) = 0.01099 0.25523
# Poissons Ratio (y) = 0.01507 0.24919
# Poissons Ratio (z) = 0.76475 0.54427
#
# Static dielectric constant tensor:
#      x y z
#    x 1.940990 0.000000 -0.018540 
#    y 0.000000 1.907550 0.000000 
#    z -0.018540 0.000000 1.995110 
# 
# From -- ./inp_files/152855.got.cif
#   From: 2010.05.17/outbox.cif.g08.bks.cpg/sg15_77_cif.got.tgz:152855.got - 2010.06.03 18:47:42.
