data_PCOD9299437
_publ_section_title
;
Structure prediction by ZEFSAII (Michael W. Deem and Ramdas Pophale) SiO2 
 PCOD9299437
Probable space group: C 2/C
;
_chemical_formula_sum "Si O2"
_cell_formula_units_Z 28
_cell_length_a 17.539149
_cell_length_b 4.643285
_cell_length_c 12.853366
_cell_angle_alpha 90.000000
_cell_angle_beta 117.884446
_cell_angle_gamma 90.000000
_cell_volume 925.231145
_symmetry_space_group_name_H-M "C 2/C"
_symmetry_group_IT_number 15
_symmetry_cell_setting 'monoclinic'
loop_
_space_group_symop_operation_xyz
x,y,z
-x,y,1/2-z
-x,-y,-z
x,-y,1/2+z
1/2+x,1/2+y,z
1/2-x,1/2+y,1/2-z
1/2-x,1/2-y,-z
1/2+x,1/2-y,1/2+z
loop_
_atom_site_type_symbol
_atom_site_label
_atom_site_fract_x
_atom_site_fract_y
_atom_site_fract_z
Si Si1 0.500000 0.500000 0.500000
Si Si2 0.668046 0.482016 0.463737
Si Si3 0.797178 0.373624 0.822181
Si Si4 0.074155 0.624667 0.728046
O O1 0.585422 0.363495 0.475989
O O2 0.527844 0.301118 0.610242
O O3 0.750000 0.250000 0.500000
O O4 0.804465 0.766420 0.437709
O O5 0.632281 0.660765 0.338454
O O6 0.728039 0.201972 0.709608
O O7 0.883320 0.362366 0.809607
O O8 0.000000 0.494020 0.750000
#
# Coordination Sequence:
#
# PCOD9299437 Si02
#       4
#     4   8   8   8
#     4  10  24  54  98 144 190 252 332 408 484 606
#     4  11  28  56  98 143 196 261 324 407 503 590
#     4  12  30  57  92 142 194 247 326 403 479 605
#     4  10  26  56  92 143 197 255 324 407 500 581
#
# _framework density 30.262709999999998
#
# number of rings (size 3 to 8) (size 9 to 14) (size 15 to 20)
#    0.000    1.143    0.000    1.714   12.000    6.857 
#    5.143    1.429    0.000    0.000    0.000    0.000 
#    0.000    0.000    0.000    0.000    0.000    0.000 
#
# Total GULP energy -77938.212818 kJ/mol
# GULP energy per Si atom -5567.015201 kJ/mol
# Density = 3.019383 g / cm^3
# Si number density = 30.262710 Si / 1000 Ang^3
#
#
#
# Elastic Constant Matrix: (Units=GPa)
#
#
# Indices 1 2 3 4 5 6 
#
# 1 199.3409 42.2387 35.6154 0.0000 -50.4110 0.0000
# 2 42.2387 101.0443 50.4012 0.0000 -24.6461 0.0000
# 3 35.6154 50.4012 211.0568 0.0000 -54.2622 0.0000
# 4 0.0000 0.0000 0.0000 57.5555 0.0000 -22.6882
# 5 -50.4110 -24.6461 -54.2622 0.0000 57.2457 0.0000
# 6 0.0000 0.0000 0.0000 -22.6882 0.0000 63.4042
#
#
#
# Elastic Compliance Matrix: (Units=1/GPa)
#
#
# Indices 1 2 3 4 5 6 
#
# 1 0.006753 -0.001777 0.000816 0.000000 0.005955 0.000000
# 2 -0.001777 0.012116 -0.002188 0.000000 0.001577 0.000000
# 3 0.000816 -0.002188 0.006698 0.000000 0.006125 0.000000
# 4 0.000000 0.000000 0.000000 0.020228 0.000000 0.007238
# 5 0.005955 0.001577 0.006125 0.000000 0.029198 0.000000
# 6 0.000000 0.000000 0.000000 0.007238 0.000000 0.018362
#
#
# Mechanical properties :
#
#
# Convention : Reuss Voigt Hill
#
# Bulk Modulus (GPa) = 51.90002 85.32804 68.61403
# Shear Modulus (GPa) = 47.13626 61.18686 54.16156
#
# Velocity S-wave (km/s) = 3.95089 4.50138 4.23509
# Velocity P-wave (km/s) = 6.16439 7.43462 6.82910
#
# Compressibility (1/GPa) = 0.01926782
#
# Stress axis : x y z
#
# Youngs Moduli (GPa) = 148.07366 82.53782 149.30727
#
# Poissons Ratio (x) = 0.14671 -0.12182
# Poissons Ratio (y) = 0.26320 0.32666
# Poissons Ratio (z) = -0.12082 0.18058
#
# Static dielectric constant tensor:
#      x y z
#    x 2.565080 0.000000 -0.197670 
#    y 0.000000 3.477740 0.000000 
#    z -0.197670 0.000000 2.272470 
# 
# From -- ./inp_files/157945.got.cif
#   From: 2010.05.17/outbox.cif.g08.bks.cpg/sg15_79_cif.got.tgz:157945.got - 2010.06.03 18:47:42.
