data_PCOD9299805
_publ_section_title
;
Structure prediction by ZEFSAII (Michael W. Deem and Ramdas Pophale) SiO2 
 PCOD9299805
Probable space group: C 2/C
;
_chemical_formula_sum "Si O2"
_cell_formula_units_Z 48
_cell_length_a 10.595883
_cell_length_b 15.851293
_cell_length_c 13.460077
_cell_angle_alpha 90.000000
_cell_angle_beta 112.255231
_cell_angle_gamma 90.000000
_cell_volume 2092.322369
_symmetry_space_group_name_H-M "C 2/C"
_symmetry_group_IT_number 15
_symmetry_cell_setting 'monoclinic'
loop_
_space_group_symop_operation_xyz
x,y,z
-x,y,1/2-z
-x,-y,-z
x,-y,1/2+z
1/2+x,1/2+y,z
1/2-x,1/2+y,1/2-z
1/2-x,1/2-y,-z
1/2+x,1/2-y,1/2+z
loop_
_atom_site_type_symbol
_atom_site_label
_atom_site_fract_x
_atom_site_fract_y
_atom_site_fract_z
Si Si1 0.500000 0.063383 0.250000
Si Si2 0.233073 0.134723 0.221263
Si Si3 0.013334 0.596837 0.639311
Si Si4 0.275410 0.784726 0.395673
Si Si5 0.000000 0.136913 0.750000
Si Si6 0.751958 0.657109 0.450971
Si Si7 0.489996 0.521109 0.110919
O O1 0.363676 0.114643 0.192279
O O2 0.462214 0.001356 0.329566
O O3 0.152745 0.208550 0.142091
O O4 0.282080 0.164802 0.343083
O O5 0.132825 0.055538 0.196604
O O6 0.126502 0.636655 0.600844
O O7 0.000000 0.633184 0.750000
O O8 0.869444 0.608466 0.544456
O O9 0.250000 0.750000 0.500000
O O10 0.134133 0.805463 0.295864
O O11 0.031698 0.070065 0.846646
O O12 0.750000 0.750000 0.500000
O O13 0.619507 0.596469 0.412807
O O14 0.500000 0.500000 0.000000
#
# Coordination Sequence:
#
# PCOD9299805 Si02
#       7
#     4   8   8   8   4   8   8
#     4  10  25  46  73 104 148 194 238 316 367 448
#     4  12  25  47  72 109 149 189 259 301 386 454
#     4  10  25  47  72 105 149 193 252 306 385 454
#     4  12  28  47  76 110 153 202 248 313 386 455
#     4  12  27  50  73 108 154 188 258 316 369 458
#     4  12  26  44  78 108 148 195 244 315 382 452
#     4  12  26  48  78 108 144 198 252 314 378 454
#
# _framework density 22.941015
#
# number of rings (size 3 to 8) (size 9 to 14) (size 15 to 20)
#    0.500    0.000    1.667    5.500    9.333    0.667 
#    0.000    0.000    0.000    0.000    0.000    0.000 
#    0.000    0.000    0.000    0.000    0.000    0.000 
#
# Total GULP energy -133968.575510 kJ/mol
# GULP energy per Si atom -5582.023980 kJ/mol
# Density = 2.288880 g / cm^3
# Si number density = 22.941015 Si / 1000 Ang^3
#
#
#
# Elastic Constant Matrix: (Units=GPa)
#
#
# Indices 1 2 3 4 5 6 
#
# 1 97.2609 25.8762 30.1172 0.0000 12.4631 0.0000
# 2 25.8762 101.6393 17.1652 0.0000 -9.1339 0.0000
# 3 30.1172 17.1652 126.4378 0.0000 -17.9320 0.0000
# 4 0.0000 0.0000 0.0000 37.6049 0.0000 -2.3209
# 5 12.4631 -9.1339 -17.9320 0.0000 52.3040 0.0000
# 6 0.0000 0.0000 0.0000 -2.3209 0.0000 40.8121
#
#
#
# Elastic Compliance Matrix: (Units=1/GPa)
#
#
# Indices 1 2 3 4 5 6 
#
# 1 0.012725 -0.003109 -0.003275 0.000000 -0.004698 0.000000
# 2 -0.003109 0.010921 -0.000385 0.000000 0.002516 0.000000
# 3 -0.003275 -0.000385 0.009295 0.000000 0.003900 0.000000
# 4 0.000000 0.000000 0.000000 0.026686 0.000000 0.001518
# 5 -0.004698 0.002516 0.003900 0.000000 0.022015 0.000000
# 6 0.000000 0.000000 0.000000 0.001518 0.000000 0.024589
#
#
# Mechanical properties :
#
#
# Convention : Reuss Voigt Hill
#
# Bulk Modulus (GPa) = 51.54080 52.40616 51.97348
# Shear Modulus (GPa) = 39.60824 42.95615 41.28219
#
# Velocity S-wave (km/s) = 4.15966 4.33189 4.24664
# Velocity P-wave (km/s) = 6.75172 6.92198 6.83738
#
# Compressibility (1/GPa) = 0.01940211
#
# Stress axis : x y z
#
# Youngs Moduli (GPa) = 78.58623 91.56411 107.58942
#
# Poissons Ratio (x) = 0.28464 0.35239
# Poissons Ratio (y) = 0.24430 0.04146
# Poissons Ratio (z) = 0.25739 0.03529
#
# Static dielectric constant tensor:
#      x y z
#    x 1.865550 0.000000 -0.036430 
#    y 0.000000 1.834500 0.000000 
#    z -0.036430 0.000000 1.943780 
# 
# From -- ./inp_files/144408.got.cif
#   From: 2010.05.17/outbox.cif.g08.bks.cpg/sg15_73_cif.got.tgz:144408.got - 2010.06.03 18:47:42.
