data_PCOD9299133
_publ_section_title
;
Structure prediction by ZEFSAII (Michael W. Deem and Ramdas Pophale) SiO2 
 PCOD9299133
Probable space group: C 2/C
;
_chemical_formula_sum "Si O2"
_cell_formula_units_Z 64
_cell_length_a 14.962964
_cell_length_b 20.657266
_cell_length_c 17.625177
_cell_angle_alpha 90.000000
_cell_angle_beta 32.666506
_cell_angle_gamma 90.000000
_cell_volume 2940.459764
_symmetry_space_group_name_H-M "C 2/C"
_symmetry_group_IT_number 15
_symmetry_cell_setting 'monoclinic'
loop_
_space_group_symop_operation_xyz
x,y,z
-x,y,1/2-z
-x,-y,-z
x,-y,1/2+z
1/2+x,1/2+y,z
1/2-x,1/2+y,1/2-z
1/2-x,1/2-y,-z
1/2+x,1/2-y,1/2+z
loop_
_atom_site_type_symbol
_atom_site_label
_atom_site_fract_x
_atom_site_fract_y
_atom_site_fract_z
Si Si1 0.800881 0.109512 0.403447
Si Si2 0.259087 0.806988 0.226737
Si Si3 0.544505 0.213077 0.629472
Si Si4 0.321885 0.031237 0.140069
Si Si5 0.671978 0.979772 0.580469
Si Si6 0.135986 0.054421 0.413612
Si Si7 0.323464 0.583683 0.835822
Si Si8 0.025211 0.195606 0.452078
O O1 0.715128 0.175291 0.493648
O O2 0.000000 0.110739 0.250000
O O3 0.714380 0.094343 0.383918
O O4 0.740307 0.049541 0.500867
O O5 0.404439 0.827667 0.182243
O O6 0.219383 0.859921 0.192261
O O7 0.110206 0.789575 0.388260
O O8 0.318780 0.741367 0.144369
O O9 0.500000 0.217848 0.750000
O O10 0.968185 0.220352 0.409921
O O11 0.181917 0.981720 0.209821
O O12 0.292385 0.040004 0.249018
O O13 0.500000 0.000000 0.000000
O O14 0.500000 0.986954 0.750000
O O15 0.801896 0.947942 0.545622
O O16 0.684253 0.931900 0.499133
O O17 0.063433 0.121059 0.434326
O O18 0.000000 0.000000 0.500000
O O19 0.500000 0.592822 0.750000
#
# Coordination Sequence:
#
# PCOD9299133 Si02
#       8
#     8   8   8   8   8   8   8   8
#     4  11  23  41  68 105 147 193 247 304 372 450
#     4  10  24  47  70 100 143 192 248 305 375 452
#     4  10  25  47  70 102 148 195 247 304 372 455
#     4  11  23  38  68 103 137 189 244 302 368 433
#     4  11  24  41  67 109 148 189 252 314 376 447
#     4  12  24  44  72 102 139 189 243 311 379 437
#     4  11  22  44  70 102 148 193 249 311 372 445
#     4  10  26  46  71 103 145 192 250 305 370 456
#
# _framework density 21.765304
#
# number of rings (size 3 to 8) (size 9 to 14) (size 15 to 20)
#    0.750    0.500    0.000    7.125    1.750    5.500 
#    0.000    6.875    0.000    0.750    0.000    0.000 
#    0.000    0.000    0.000    0.000    0.000    0.000 
#
# Total GULP energy -178749.758176 kJ/mol
# GULP energy per Si atom -5585.929943 kJ/mol
# Density = 2.171576 g / cm^3
# Si number density = 21.765304 Si / 1000 Ang^3
#
#
#
# Elastic Constant Matrix: (Units=GPa)
#
#
# Indices 1 2 3 4 5 6 
#
# 1 134.8417 35.8559 37.7533 -0.0068 13.2480 0.0083
# 2 35.8559 81.7367 20.1795 -0.0128 -1.2278 0.0151
# 3 37.7533 20.1795 160.9677 -0.0363 -0.0345 0.0197
# 4 -0.0068 -0.0128 -0.0363 21.1834 0.0131 3.2910
# 5 13.2480 -1.2278 -0.0345 0.0131 36.9430 -0.0038
# 6 0.0083 0.0151 0.0197 3.2910 -0.0038 32.4629
#
#
#
# Elastic Compliance Matrix: (Units=1/GPa)
#
#
# Indices 1 2 3 4 5 6 
#
# 1 0.009204 -0.003669 -0.001699 0.000000 -0.003424 0.000000
# 2 -0.003669 0.014095 -0.000906 0.000006 0.001783 -0.000005
# 3 -0.001699 -0.000906 0.006725 0.000011 0.000586 -0.000004
# 4 0.000000 0.000006 0.000011 0.047962 -0.000017 -0.004862
# 5 -0.003424 0.001783 0.000586 -0.000017 0.028357 0.000005
# 6 0.000000 -0.000005 -0.000004 -0.004862 0.000005 0.031297
#
#
# Mechanical properties :
#
#
# Convention : Reuss Voigt Hill
#
# Bulk Modulus (GPa) = 57.22891 62.79148 60.01020
# Shear Modulus (GPa) = 32.04846 37.03500 34.54173
#
# Velocity S-wave (km/s) = 3.84142 4.12947 3.98805
# Velocity P-wave (km/s) = 6.78425 7.18670 6.98838
#
# Compressibility (1/GPa) = 0.01747369
#
# Stress axis : x y z
#
# Youngs Moduli (GPa) = 108.64730 70.94934 148.70525
#
# Poissons Ratio (x) = 0.26035 0.25272
# Poissons Ratio (y) = 0.39868 0.13472
# Poissons Ratio (z) = 0.18464 0.06427
#
# Static dielectric constant tensor:
#      x y z
#    x 1.788640 0.000000 -0.015810 
#    y 0.000000 1.820550 0.000010 
#    z -0.015810 0.000010 1.927920 
# 
# From -- ./inp_files/207342.got.cif
#   From: 2010.05.17/outbox.cif.g08.bks.cpg/sg15_104_cif.got.tgz:207342.got - 2010.06.03 18:47:42.
