data_PCOD9299129
_publ_section_title
;
Structure prediction by ZEFSAII (Michael W. Deem and Ramdas Pophale) SiO2 
 PCOD9299129
Probable space group: C 2/C
;
_chemical_formula_sum "Si O2"
_cell_formula_units_Z 40
_cell_length_a 8.248031
_cell_length_b 9.387567
_cell_length_c 21.582336
_cell_angle_alpha 90.000000
_cell_angle_beta 88.880054
_cell_angle_gamma 90.000000
_cell_volume 1670.778245
_symmetry_space_group_name_H-M "C 2/C"
_symmetry_group_IT_number 15
_symmetry_cell_setting 'monoclinic'
loop_
_space_group_symop_operation_xyz
x,y,z
-x,y,1/2-z
-x,-y,-z
x,-y,1/2+z
1/2+x,1/2+y,z
1/2-x,1/2+y,1/2-z
1/2-x,1/2-y,-z
1/2+x,1/2-y,1/2+z
loop_
_atom_site_type_symbol
_atom_site_label
_atom_site_fract_x
_atom_site_fract_y
_atom_site_fract_z
Si Si1 0.000000 0.830187 0.750000
Si Si2 0.655560 0.779013 0.704110
Si Si3 0.250000 0.750000 0.000000
Si Si4 0.685914 0.004083 0.601394
Si Si5 0.398635 0.282144 0.955768
Si Si6 0.550682 0.474222 0.129836
O O1 0.826671 0.756639 0.737848
O O2 0.971174 0.929341 0.809367
O O3 0.500000 0.762676 0.750000
O O4 0.646686 0.927857 0.667145
O O5 0.646816 0.663377 0.649454
O O6 0.183144 0.612817 0.046621
O O7 0.433731 0.699316 0.010681
O O8 0.870990 0.058868 0.607394
O O9 0.579412 0.143448 0.588408
O O10 0.360080 0.425787 0.919232
O O11 0.250000 0.250000 0.000000
#
# Coordination Sequence:
#
# PCOD9299129 Si02
#       6
#     4   8   4   8   8   8
#     4  10  24  48  68 110 140 176 244 290 340 432
#     4  11  25  49  74 101 144 188 230 294 355 409
#     4  10  24  48  70 106 140 178 242 288 334 432
#     4  10  25  46  70 109 138 183 242 283 352 422
#     4  11  26  46  73 102 144 188 229 292 356 410
#     4  10  24  47  69 105 144 176 241 292 339 429
#
# _framework density 23.940939
#
# number of rings (size 3 to 8) (size 9 to 14) (size 15 to 20)
#    0.000    1.600    1.000    0.600    8.400    1.600 
#   18.000    0.000    0.000    0.000    0.000    0.000 
#    0.000    0.000    0.000    0.000    0.000    0.000 
#
# Total GULP energy -111470.654460 kJ/mol
# GULP energy per Si atom -5573.532723 kJ/mol
# Density = 2.388645 g / cm^3
# Si number density = 23.940939 Si / 1000 Ang^3
#
#
#
# Elastic Constant Matrix: (Units=GPa)
#
#
# Indices 1 2 3 4 5 6 
#
# 1 98.4741 43.6503 38.9004 0.0000 -14.4767 0.0000
# 2 43.6503 85.9969 37.6527 0.0000 2.5046 0.0000
# 3 38.9004 37.6527 67.1324 0.0000 -0.5068 0.0000
# 4 0.0000 0.0000 0.0000 36.9226 0.0000 12.1683
# 5 -14.4767 2.5046 -0.5068 0.0000 28.8890 0.0000
# 6 0.0000 0.0000 0.0000 12.1683 0.0000 -1.3737
#
#
#
# Elastic Compliance Matrix: (Units=1/GPa)
#
#
# Indices 1 2 3 4 5 6 
#
# 1 0.016492 -0.005922 -0.006169 0.000000 0.008669 0.000000
# 2 -0.005922 0.017604 -0.006477 0.000000 -0.004608 0.000000
# 3 -0.006169 -0.006477 0.022087 0.000000 -0.002142 0.000000
# 4 0.000000 0.000000 0.000000 0.006910 0.000000 0.061212
# 5 0.008669 -0.004608 -0.002142 0.000000 0.039321 0.000000
# 6 0.000000 0.000000 0.000000 0.061212 0.000000 -0.185739
#
#
# Mechanical properties :
#
#
# Convention : Reuss Voigt Hill
#
# Bulk Modulus (GPa) = 52.50261 54.66781 53.58521
# Shear Modulus (GPa) = -125.50736 21.64759 -51.92989
#
# Velocity S-wave (km/s) = -7.24828 3.01027 -4.66239
# Velocity P-wave (km/s) = 6.93343 5.91323 2.55989
#
# Compressibility (1/GPa) = 0.01904667
#
# Stress axis : x y z
#
# Youngs Moduli (GPa) = 60.63707 56.80416 45.27509
#
# Poissons Ratio (x) = 0.33641 0.27931
# Poissons Ratio (y) = 0.35911 0.29324
# Poissons Ratio (z) = 0.37408 0.36791
#
# Static dielectric constant tensor:
#      x y z
#    x 1.850500 0.000000 -0.008730 
#    y 0.000000 1.941740 0.000000 
#    z -0.008730 0.000000 1.977450 
# 
# From -- ./inp_files/262535.got.cif
#   From: 2010.05.17/outbox.cif.g08.bks.cpg/sg15_132_cif.got.tgz:262535.got - 2010.06.03 18:47:42.
