data_PCOD9299553
_publ_section_title
;
Structure prediction by ZEFSAII (Michael W. Deem and Ramdas Pophale) SiO2 
 PCOD9299553
Probable space group: C 2/C
;
_chemical_formula_sum "Si O2"
_cell_formula_units_Z 48
_cell_length_a 24.124732
_cell_length_b 4.965056
_cell_length_c 19.289200
_cell_angle_alpha 90.000000
_cell_angle_beta 109.236078
_cell_angle_gamma 90.000000
_cell_volume 2181.477053
_symmetry_space_group_name_H-M "C 2/C"
_symmetry_group_IT_number 15
_symmetry_cell_setting 'monoclinic'
loop_
_space_group_symop_operation_xyz
x,y,z
-x,y,1/2-z
-x,-y,-z
x,-y,1/2+z
1/2+x,1/2+y,z
1/2-x,1/2+y,1/2-z
1/2-x,1/2-y,-z
1/2+x,1/2-y,1/2+z
loop_
_atom_site_type_symbol
_atom_site_label
_atom_site_fract_x
_atom_site_fract_y
_atom_site_fract_z
Si Si1 0.620103 0.751323 0.801983
Si Si2 0.466125 0.391955 0.054467
Si Si3 0.371973 0.572275 0.413639
Si Si4 0.074803 0.568905 0.133839
Si Si5 0.251789 0.182960 0.199185
Si Si6 0.055622 0.263492 0.324217
O O1 0.592194 0.843617 0.717602
O O2 0.689387 0.780468 0.820980
O O3 0.600973 0.447845 0.808487
O O4 0.589762 0.954134 0.844035
O O5 0.506891 0.141998 0.093310
O O6 0.464028 0.608638 0.114716
O O7 0.500000 0.500000 0.000000
O O8 0.400411 0.347923 0.998799
O O9 0.388192 0.264993 0.401917
O O10 0.303910 0.621670 0.372031
O O11 0.406194 0.766148 0.373541
O O12 0.240354 0.443845 0.241914
O O13 0.000000 0.293617 0.250000
#
# Coordination Sequence:
#
# PCOD9299553 Si02
#       6
#     8   8   8   8   8   8
#     4  12  24  40  66  98 133 167 225 267 329 381
#     4  10  25  43  67  97 132 174 219 270 331 396
#     4  11  22  40  64  98 130 169 219 271 323 373
#     4  11  21  39  66  98 129 164 216 275 318 385
#     4  12  22  40  67  97 132 173 225 270 315 389
#     4  12  26  43  65  96 135 173 212 276 334 394
#
# _framework density 22.003440000000001
#
# number of rings (size 3 to 8) (size 9 to 14) (size 15 to 20)
#    0.000    0.667    5.000    3.000    2.333    2.667 
#    0.000    1.667    0.000    0.000    0.000    0.000 
#    0.000    0.000    0.000    0.000    0.000    0.000 
#
# Total GULP energy -134360.181360 kJ/mol
# GULP energy per Si atom -5598.340890 kJ/mol
# Density = 2.195336 g / cm^3
# Si number density = 22.003440 Si / 1000 Ang^3
#
#
#
# Elastic Constant Matrix: (Units=GPa)
#
#
# Indices 1 2 3 4 5 6 
#
# 1 178.0233 20.5703 34.7723 0.0000 28.5886 0.0000
# 2 20.5703 72.7065 -24.4586 0.0000 4.3829 0.0001
# 3 34.7723 -24.4586 76.2412 0.0000 21.0683 0.0000
# 4 0.0000 0.0000 0.0000 6.4671 0.0000 1.5825
# 5 28.5886 4.3829 21.0683 0.0000 35.3084 0.0000
# 6 0.0000 0.0001 0.0000 1.5825 0.0000 34.6460
#
#
#
# Elastic Compliance Matrix: (Units=1/GPa)
#
#
# Indices 1 2 3 4 5 6 
#
# 1 0.007142 -0.002892 -0.003217 0.000000 -0.003505 0.000000
# 2 -0.002892 0.017659 0.008313 0.000000 -0.004811 0.000000
# 3 -0.003217 0.008313 0.020136 0.000000 -0.010442 0.000000
# 4 0.000000 0.000000 0.000000 0.156378 0.000000 -0.007143
# 5 -0.003505 -0.004811 -0.010442 0.000000 0.037988 0.000000
# 6 0.000000 0.000000 0.000000 -0.007143 0.000000 0.029190
#
#
# Mechanical properties :
#
#
# Convention : Reuss Voigt Hill
#
# Bulk Modulus (GPa) = 20.26456 43.19321 31.72889
# Shear Modulus (GPa) = 17.82333 35.02342 26.42338
#
# Velocity S-wave (km/s) = 2.84918 3.99397 3.46912
# Velocity P-wave (km/s) = 4.47811 6.39859 5.52247
#
# Compressibility (1/GPa) = 0.04934723
#
# Stress axis : x y z
#
# Youngs Moduli (GPa) = 140.00710 56.62940 49.66244
#
# Poissons Ratio (x) = 0.16375 0.15975
# Poissons Ratio (y) = 0.40484 -0.41286
# Poissons Ratio (z) = 0.45036 -0.47078
#
# Static dielectric constant tensor:
#      x y z
#    x 1.827330 0.000000 -0.014620 
#    y 0.000000 1.810160 0.000000 
#    z -0.014620 0.000000 1.830250 
# 
# From -- ./inp_files/217589.got.cif
#   From: 2010.05.17/outbox.cif.g08.bks.cpg/sg15_109_cif.got.tgz:217589.got - 2010.06.03 18:47:42.
