data_PCOD9299427
_publ_section_title
;
Structure prediction by ZEFSAII (Michael W. Deem and Ramdas Pophale) SiO2 
 PCOD9299427
Probable space group: C 2/C
;
_chemical_formula_sum "Si O2"
_cell_formula_units_Z 44
_cell_length_a 5.548451
_cell_length_b 17.569110
_cell_length_c 21.845261
_cell_angle_alpha 90.000000
_cell_angle_beta 121.282419
_cell_angle_gamma 90.000000
_cell_volume 1819.914115
_symmetry_space_group_name_H-M "C 2/C"
_symmetry_group_IT_number 15
_symmetry_cell_setting 'monoclinic'
loop_
_space_group_symop_operation_xyz
x,y,z
-x,y,1/2-z
-x,-y,-z
x,-y,1/2+z
1/2+x,1/2+y,z
1/2-x,1/2+y,1/2-z
1/2-x,1/2-y,-z
1/2+x,1/2-y,1/2+z
loop_
_atom_site_type_symbol
_atom_site_label
_atom_site_fract_x
_atom_site_fract_y
_atom_site_fract_z
Si Si1 0.468987 0.619971 0.633522
Si Si2 0.285296 0.684864 0.055522
Si Si3 0.302748 0.073527 0.555557
Si Si4 0.000000 0.984081 0.250000
Si Si5 0.146347 0.276637 0.831431
Si Si6 0.514775 0.916899 0.618054
O O1 0.644362 0.597618 0.596738
O O2 0.599798 0.573656 0.708890
O O3 0.462286 0.711310 0.637699
O O4 0.131980 0.600267 0.591356
O O5 0.519003 0.722912 0.129040
O O6 0.066385 0.646205 0.072276
O O7 0.250000 0.750000 0.000000
O O8 0.356259 0.612059 0.022179
O O9 0.334019 0.983150 0.563023
O O10 0.778642 0.038296 0.184652
O O11 0.000000 0.257017 0.750000
O O12 0.093242 0.363744 0.842109
#
# Coordination Sequence:
#
# PCOD9299427 Si02
#       6
#     8   8   8   4   8   8
#     4  11  25  49  77 110 149 207 258 318 392 474
#     4  12  26  49  75 112 158 207 263 329 394 479
#     4  11  27  47  79 109 153 202 263 324 394 458
#     4  10  24  52  72 110 156 200 256 322 392 464
#     4  12  27  46  76 113 151 210 261 328 396 481
#     4  11  27  45  76 111 157 203 263 329 395 472
#
# _framework density 24.176964999999999
#
# number of rings (size 3 to 8) (size 9 to 14) (size 15 to 20)
#    0.000    0.727    2.727    2.727   10.182    4.364 
#    0.000    0.000    0.000    0.000    0.000    0.000 
#    0.000    0.000    0.000    0.000    0.000    0.000 
#
# Total GULP energy -122775.884461 kJ/mol
# GULP energy per Si atom -5580.722021 kJ/mol
# Density = 2.412194 g / cm^3
# Si number density = 24.176965 Si / 1000 Ang^3
#
#
#
# Elastic Constant Matrix: (Units=GPa)
#
#
# Indices 1 2 3 4 5 6 
#
# 1 92.4717 30.2594 30.4323 0.0000 -11.6299 0.0000
# 2 30.2594 145.8185 2.5695 0.0000 20.9187 0.0000
# 3 30.4323 2.5695 57.4231 0.0000 3.9852 0.0000
# 4 0.0000 0.0000 0.0000 27.9895 0.0000 -7.7788
# 5 -11.6299 20.9187 3.9852 0.0000 30.6330 0.0000
# 6 0.0000 0.0000 0.0000 -7.7788 0.0000 43.7691
#
#
#
# Elastic Compliance Matrix: (Units=1/GPa)
#
#
# Indices 1 2 3 4 5 6 
#
# 1 0.016955 -0.004935 -0.009532 0.000000 0.011047 0.000000
# 2 -0.004935 0.009039 0.002795 0.000000 -0.008410 0.000000
# 3 -0.009532 0.002795 0.022932 0.000000 -0.008511 0.000000
# 4 0.000000 0.000000 0.000000 0.037584 0.000000 0.006680
# 5 0.011047 -0.008410 -0.008511 0.000000 0.043689 0.000000
# 6 0.000000 0.000000 0.000000 0.006680 0.000000 0.024034
#
#
# Mechanical properties :
#
#
# Convention : Reuss Voigt Hill
#
# Bulk Modulus (GPa) = 39.09035 46.91508 43.00271
# Shear Modulus (GPa) = 26.86651 35.97512 31.42082
#
# Velocity S-wave (km/s) = 3.33715 3.86163 3.60893
# Velocity P-wave (km/s) = 5.57246 6.27136 5.93221
#
# Compressibility (1/GPa) = 0.02558176
#
# Stress axis : x y z
#
# Youngs Moduli (GPa) = 58.97833 110.62890 43.60788
#
# Poissons Ratio (x) = 0.54599 0.41565
# Poissons Ratio (y) = 0.29108 -0.12187
# Poissons Ratio (z) = 0.56216 -0.30918
#
# Static dielectric constant tensor:
#      x y z
#    x 2.246770 0.000000 0.183340 
#    y 0.000000 1.980090 0.000000 
#    z 0.183340 0.000000 2.013550 
# 
# From -- ./inp_files/227066.got.cif
#   From: 2010.05.17/outbox.cif.g08.bks.cpg/sg15_114_cif.got.tgz:227066.got - 2010.06.03 18:47:42.
