data_PCOD9299548
_publ_section_title
;
Structure prediction by ZEFSAII (Michael W. Deem and Ramdas Pophale) SiO2 
 PCOD9299548
Probable space group: C 2/C
;
_chemical_formula_sum "Si O2"
_cell_formula_units_Z 60
_cell_length_a 24.462890
_cell_length_b 12.523281
_cell_length_c 15.068518
_cell_angle_alpha 90.000000
_cell_angle_beta 34.152108
_cell_angle_gamma 90.000000
_cell_volume 2591.567533
_symmetry_space_group_name_H-M "C 2/C"
_symmetry_group_IT_number 15
_symmetry_cell_setting 'monoclinic'
loop_
_space_group_symop_operation_xyz
x,y,z
-x,y,1/2-z
-x,-y,-z
x,-y,1/2+z
1/2+x,1/2+y,z
1/2-x,1/2+y,1/2-z
1/2-x,1/2-y,-z
1/2+x,1/2-y,1/2+z
loop_
_atom_site_type_symbol
_atom_site_label
_atom_site_fract_x
_atom_site_fract_y
_atom_site_fract_z
Si Si1 0.788289 0.297091 0.041608
Si Si2 0.426426 0.773963 0.007658
Si Si3 0.657297 0.717733 0.063956
Si Si4 0.157759 0.050017 0.808363
Si Si5 0.714644 0.052061 0.714225
Si Si6 0.090788 0.437490 0.735714
Si Si7 0.000000 0.617811 0.750000
Si Si8 0.049551 0.113148 0.362780
O O1 0.864358 0.237435 0.004342
O O2 0.698609 0.336610 0.221495
O O3 0.750000 0.250000 0.000000
O O4 0.846811 0.403523 0.933666
O O5 0.363154 0.863676 0.143460
O O6 0.444148 0.682222 0.055574
O O7 0.524199 0.835473 0.847443
O O8 0.598709 0.814794 0.097314
O O9 0.574774 0.679132 0.243012
O O10 0.750000 0.750000 0.000000
O O11 0.701349 0.624652 0.943997
O O12 0.236150 0.997330 0.767343
O O13 0.131489 0.977668 0.760225
O O14 0.056563 0.063271 0.995446
O O15 0.663064 0.971837 0.716687
O O16 0.026667 0.539861 0.795937
#
# Coordination Sequence:
#
# PCOD9299548 Si02
#       8
#     8   8   8   8   8   8   4   8
#     4  11  24  42  67  99 133 176 226 275 339 410
#     4  11  23  42  64 100 133 171 222 277 336 398
#     4  12  23  41  68  98 135 177 224 271 350 407
#     4  10  25  43  66  96 132 174 225 279 334 404
#     4  11  24  41  65 100 129 174 225 275 340 412
#     4  12  23  42  66  97 136 175 228 279 343 400
#     4  12  24  40  68 100 134 178 216 294 330 408
#     4  11  23  46  65  93 136 174 223 280 335 400
#
# _framework density 23.152010000000001
#
# number of rings (size 3 to 8) (size 9 to 14) (size 15 to 20)
#    0.000    0.800    4.000    2.800    1.867    0.000 
#    0.000    0.000    0.000    0.000    0.000    0.000 
#    0.000    0.000    0.000    0.000    0.000    0.000 
#
# Total GULP energy -167744.943305 kJ/mol
# GULP energy per Si atom -5591.498110 kJ/mol
# Density = 2.309932 g / cm^3
# Si number density = 23.152010 Si / 1000 Ang^3
#
#
#
# Elastic Constant Matrix: (Units=GPa)
#
#
# Indices 1 2 3 4 5 6 
#
# 1 100.7401 1.6945 11.1223 0.0000 -15.6598 0.0000
# 2 1.6945 28.8924 14.8309 0.0000 -13.9746 0.0000
# 3 11.1223 14.8309 64.9003 0.0000 -4.9254 0.0000
# 4 0.0000 0.0000 0.0000 29.6171 0.0000 -0.3796
# 5 -15.6598 -13.9746 -4.9254 0.0000 33.2991 0.0000
# 6 0.0000 0.0000 0.0000 -0.3796 0.0000 38.6648
#
#
#
# Elastic Compliance Matrix: (Units=1/GPa)
#
#
# Indices 1 2 3 4 5 6 
#
# 1 0.011108 0.003594 -0.002239 0.000000 0.006401 0.000000
# 2 0.003594 0.049969 -0.010432 0.000000 0.021118 0.000000
# 3 -0.002239 -0.010432 0.017965 0.000000 -0.002774 0.000000
# 4 0.000000 0.000000 0.000000 0.033769 0.000000 0.000332
# 5 0.006401 0.021118 -0.002774 0.000000 0.041493 0.000000
# 6 0.000000 0.000000 0.000000 0.000332 0.000000 0.025867
#
#
# Mechanical properties :
#
#
# Convention : Reuss Voigt Hill
#
# Bulk Modulus (GPa) = 16.42350 27.75870 22.09110
# Shear Modulus (GPa) = 22.87046 31.44187 27.15616
#
# Velocity S-wave (km/s) = 3.14640 3.68919 3.42855
# Velocity P-wave (km/s) = 4.50654 5.49205 5.02352
#
# Compressibility (1/GPa) = 0.06088837
#
# Stress axis : x y z
#
# Youngs Moduli (GPa) = 90.02250 20.01222 55.66244
#
# Poissons Ratio (x) = -0.07192 0.12464
# Poissons Ratio (y) = -0.32354 0.58068
# Poissons Ratio (z) = 0.20158 0.20877
#
# Static dielectric constant tensor:
#      x y z
#    x 1.897220 0.000000 -0.038170 
#    y 0.000000 1.886180 0.000000 
#    z -0.038170 0.000000 1.875630 
# 
# From -- ./inp_files/222543.got.cif
#   From: 2010.05.17/outbox.cif.g08.bks.cpg/sg15_112_cif.got.tgz:222543.got - 2010.06.03 18:47:42.
