data_PCOD9299558
_publ_section_title
;
Structure prediction by ZEFSAII (Michael W. Deem and Ramdas Pophale) SiO2 
 PCOD9299558
Probable space group: C 2/C
;
_chemical_formula_sum "Si O2"
_cell_formula_units_Z 32
_cell_length_a 10.533725
_cell_length_b 13.929818
_cell_length_c 16.547131
_cell_angle_alpha 90.000000
_cell_angle_beta 145.351663
_cell_angle_gamma 90.000000
_cell_volume 1380.414780
_symmetry_space_group_name_H-M "C 2/C"
_symmetry_group_IT_number 15
_symmetry_cell_setting 'monoclinic'
loop_
_space_group_symop_operation_xyz
x,y,z
-x,y,1/2-z
-x,-y,-z
x,-y,1/2+z
1/2+x,1/2+y,z
1/2-x,1/2+y,1/2-z
1/2-x,1/2-y,-z
1/2+x,1/2-y,1/2+z
loop_
_atom_site_type_symbol
_atom_site_label
_atom_site_fract_x
_atom_site_fract_y
_atom_site_fract_z
Si Si1 0.617998 0.959343 0.982582
Si Si2 0.500000 0.261525 0.750000
Si Si3 0.648720 0.374787 0.991167
Si Si4 0.817699 0.647385 0.216971
Si Si5 0.000000 0.165373 0.750000
O O1 0.685146 0.046169 0.958200
O O2 0.847662 0.902408 0.116561
O O3 0.500000 0.000000 0.000000
O O4 0.437203 0.881306 0.860956
O O5 0.536902 0.323226 0.851970
O O6 0.286181 0.192309 0.624912
O O7 0.420440 0.400592 0.917215
O O8 0.832427 0.761585 0.208808
O O9 0.000000 0.607521 0.250000
#
# Coordination Sequence:
#
# PCOD9299558 Si02
#       5
#     8   4   8   8   4
#     4  12  25  46  72 108 143 193 241 300 365 431
#     4  10  25  43  72 106 140 196 232 309 361 428
#     4  11  25  46  73 104 148 185 249 298 365 435
#     4  10  26  44  71 103 141 192 235 297 364 429
#     4  10  25  43  68 104 144 188 238 293 359 440
#
# _framework density 23.181439000000001
#
# number of rings (size 3 to 8) (size 9 to 14) (size 15 to 20)
#    0.750    0.500    0.000    4.500   12.250    1.000 
#    0.000    0.000    0.000    0.000    0.000    0.000 
#    0.000    0.000    0.000    0.000    0.000    0.000 
#
# Total GULP energy -89145.544667 kJ/mol
# GULP energy per Si atom -5571.596542 kJ/mol
# Density = 2.312868 g / cm^3
# Si number density = 23.181439 Si / 1000 Ang^3
#
#
#
# Elastic Constant Matrix: (Units=GPa)
#
#
# Indices 1 2 3 4 5 6 
#
# 1 71.8253 15.7307 -2.3569 -0.0002 23.2168 0.0000
# 2 15.7307 75.1281 20.4009 -0.0001 -6.1245 0.0000
# 3 -2.3569 20.4009 116.4102 -0.0008 7.5248 0.0002
# 4 -0.0002 -0.0001 -0.0008 -66.1553 -0.0004 34.3020
# 5 23.2168 -6.1245 7.5248 -0.0004 45.1580 0.0001
# 6 0.0000 0.0000 0.0002 34.3020 0.0001 4.8069
#
#
#
# Elastic Compliance Matrix: (Units=1/GPa)
#
#
# Indices 1 2 3 4 5 6 
#
# 1 0.018573 -0.005293 0.001989 0.000000 -0.010598 0.000000
# 2 -0.005293 0.015731 -0.003212 0.000000 0.005390 0.000000
# 3 0.001989 -0.003212 0.009389 0.000000 -0.003023 0.000000
# 4 0.000000 0.000000 0.000000 -0.003216 0.000000 0.022950
# 5 -0.010598 0.005390 -0.003023 0.000000 0.028828 0.000000
# 6 0.000000 0.000000 0.000000 0.022950 0.000000 0.044262
#
#
# Mechanical properties :
#
#
# Convention : Reuss Voigt Hill
#
# Bulk Modulus (GPa) = 32.61663 36.76812 34.69237
# Shear Modulus (GPa) = 36.54473 12.06785 24.30629
#
# Velocity S-wave (km/s) = 3.97478 2.28410 3.24160
# Velocity P-wave (km/s) = 5.93008 4.78034 5.38598
#
# Compressibility (1/GPa) = 0.03065921
#
# Stress axis : x y z
#
# Youngs Moduli (GPa) = 53.84224 63.57069 106.50845
#
# Poissons Ratio (x) = 0.33647 -0.21181
# Poissons Ratio (y) = 0.28498 0.34214
# Poissons Ratio (z) = -0.10707 0.20421
#
# Static dielectric constant tensor:
#      x y z
#    x 2.004930 0.000000 -0.053300 
#    y 0.000000 1.843210 0.000000 
#    z -0.053300 0.000000 2.053240 
# 
# From -- ./inp_files/85914.got.cif
#   From: 2010.05.17/outbox.cif.g08.bks.cpg/sg15_43_cif.got.tgz:85914.got - 2010.06.03 18:47:42.
