data_PCOD9299800
_publ_section_title
;
Structure prediction by ZEFSAII (Michael W. Deem and Ramdas Pophale) SiO2 
 PCOD9299800
Probable space group: C 2/C
;
_chemical_formula_sum "Si O2"
_cell_formula_units_Z 28
_cell_length_a 14.158544
_cell_length_b 14.952044
_cell_length_c 8.890782
_cell_angle_alpha 90.000000
_cell_angle_beta 145.431308
_cell_angle_gamma 90.000000
_cell_volume 1067.932410
_symmetry_space_group_name_H-M "C 2/C"
_symmetry_group_IT_number 15
_symmetry_cell_setting 'monoclinic'
loop_
_space_group_symop_operation_xyz
x,y,z
-x,y,1/2-z
-x,-y,-z
x,-y,1/2+z
1/2+x,1/2+y,z
1/2-x,1/2+y,1/2-z
1/2-x,1/2-y,-z
1/2+x,1/2-y,1/2+z
loop_
_atom_site_type_symbol
_atom_site_label
_atom_site_fract_x
_atom_site_fract_y
_atom_site_fract_z
Si Si1 0.090015 0.875373 0.519279
Si Si2 0.769777 0.807211 0.270303
Si Si3 0.000000 0.424461 0.750000
Si Si4 0.677093 0.911930 0.431848
O O1 0.221684 0.794599 0.669680
O O2 0.196094 0.938268 0.767768
O O3 0.000000 0.908974 0.250000
O O4 0.942422 0.831657 0.421581
O O5 0.764936 0.843989 0.434377
O O6 0.622507 0.864001 0.003131
O O7 0.890840 0.491616 0.711003
O O8 0.500000 0.868435 0.250000
#
# Coordination Sequence:
#
# PCOD9299800 Si02
#       4
#     8   8   4   8
#     4  12  26  43  75 109 143 183 244 294 354 420
#     4  12  24  46  74 107 144 189 238 296 352 424
#     4  10  26  44  78 100 152 182 238 290 368 414
#     4  10  25  46  72 105 143 187 235 291 357 423
#
# _framework density 26.218886000000001
#
# number of rings (size 3 to 8) (size 9 to 14) (size 15 to 20)
#    0.857    0.000    1.429    5.143    4.000    1.143 
#    0.000    0.000    0.000    0.000    0.000    0.000 
#    0.000    0.000    0.000    0.000    0.000    0.000 
#
# Total GULP energy -78381.944932 kJ/mol
# GULP energy per Si atom -5598.710352 kJ/mol
# Density = 2.615921 g / cm^3
# Si number density = 26.218886 Si / 1000 Ang^3
#
#
#
# Elastic Constant Matrix: (Units=GPa)
#
#
# Indices 1 2 3 4 5 6 
#
# 1 83.7147 -34.6592 23.3117 0.0000 8.5351 0.0000
# 2 -34.6592 58.8249 3.5850 0.0000 -6.7822 0.0000
# 3 23.3117 3.5850 197.6637 0.0000 -8.6568 0.0000
# 4 0.0000 0.0000 0.0000 35.0113 0.0000 1.3421
# 5 8.5351 -6.7822 -8.6568 0.0000 44.5493 0.0000
# 6 0.0000 0.0000 0.0000 1.3421 0.0000 25.0781
#
#
#
# Elastic Compliance Matrix: (Units=1/GPa)
#
#
# Indices 1 2 3 4 5 6 
#
# 1 0.016864 0.009823 -0.002262 0.000000 -0.002175 0.000000
# 2 0.009823 0.023033 -0.001518 0.000000 0.001330 0.000000
# 3 -0.002262 -0.001518 0.005408 0.000000 0.001253 0.000000
# 4 0.000000 0.000000 0.000000 0.028621 0.000000 -0.001532
# 5 -0.002175 0.001330 0.001253 0.000000 0.023310 0.000000
# 6 0.000000 0.000000 0.000000 -0.001532 0.000000 0.039957
#
#
# Mechanical properties :
#
#
# Convention : Reuss Voigt Hill
#
# Bulk Modulus (GPa) = 17.42419 36.07537 26.74978
# Shear Modulus (GPa) = 34.66486 44.12546 39.39516
#
# Velocity S-wave (km/s) = 3.64006 4.10685 3.88048
# Velocity P-wave (km/s) = 4.93222 6.02307 5.50474
#
# Compressibility (1/GPa) = 0.05739148
#
# Stress axis : x y z
#
# Youngs Moduli (GPa) = 59.29770 43.41556 184.90011
#
# Poissons Ratio (x) = -0.42648 0.41830
# Poissons Ratio (y) = -0.58250 0.28069
# Poissons Ratio (z) = 0.13415 0.06591
#
# Static dielectric constant tensor:
#      x y z
#    x 2.183340 0.000000 -0.101970 
#    y 0.000000 2.062940 0.000000 
#    z -0.101970 0.000000 2.017690 
# 
# From -- ./inp_files/22456.got.cif
#   From: 2010.05.17/outbox.cif.g08.bks.cpg/sg15_12_cif.got.tgz:22456.got - 2010.06.03 18:47:42.
