data_PCOD9299132
_publ_section_title
;
Structure prediction by ZEFSAII (Michael W. Deem and Ramdas Pophale) SiO2 
 PCOD9299132
Probable space group: C 2/C
;
_chemical_formula_sum "Si O2"
_cell_formula_units_Z 64
_cell_length_a 17.565693
_cell_length_b 29.259057
_cell_length_c 8.478576
_cell_angle_alpha 90.000000
_cell_angle_beta 135.087005
_cell_angle_gamma 90.000000
_cell_volume 3076.614226
_symmetry_space_group_name_H-M "C 2/C"
_symmetry_group_IT_number 15
_symmetry_cell_setting 'monoclinic'
loop_
_space_group_symop_operation_xyz
x,y,z
-x,y,1/2-z
-x,-y,-z
x,-y,1/2+z
1/2+x,1/2+y,z
1/2-x,1/2+y,1/2-z
1/2-x,1/2-y,-z
1/2+x,1/2-y,1/2+z
loop_
_atom_site_type_symbol
_atom_site_label
_atom_site_fract_x
_atom_site_fract_y
_atom_site_fract_z
Si Si1 0.621263 0.516061 0.636475
Si Si2 0.085176 0.129851 0.009013
Si Si3 0.037525 0.791252 0.986992
Si Si4 0.265328 0.162285 0.754348
Si Si5 0.889383 0.095176 0.132812
Si Si6 0.594766 0.889305 0.777328
Si Si7 0.230119 0.938844 0.602501
Si Si8 0.516592 0.809574 0.085088
O O1 0.500000 0.500000 0.500000
O O2 0.616242 0.550345 0.479765
O O3 0.701143 0.475949 0.693420
O O4 0.667318 0.543234 0.854765
O O5 0.000000 0.119629 0.750000
O O6 0.044835 0.176845 0.030923
O O7 0.087077 0.092666 0.149812
O O8 0.196588 0.114287 0.092986
O O9 0.160511 0.810111 0.164939
O O10 0.000000 0.787494 0.750000
O O11 0.031310 0.739295 0.038363
O O12 0.212367 0.125975 0.555676
O O13 0.358961 0.188549 0.794780
O O14 0.320948 0.135330 0.979503
O O15 0.000000 0.120509 0.250000
O O16 0.500000 0.906488 0.750000
O O17 0.646957 0.931431 0.762012
O O18 0.544732 0.850936 0.590020
O O19 0.500000 0.813866 0.250000
#
# Coordination Sequence:
#
# PCOD9299132 Si02
#       8
#     8   8   8   8   8   8   8   8
#     4  12  25  40  65 104 141 168 211 274 334 413
#     4  12  23  35  62  99 135 173 220 261 326 417
#     4  11  23  42  65 100 137 173 224 274 335 409
#     4  11  21  42  70  85 132 181 213 267 343 391
#     4  12  21  40  63  93 133 176 214 260 335 402
#     4  10  24  47  69  92 130 181 233 273 324 401
#     4  12  24  41  66  99 137 180 214 270 346 388
#     4  10  26  44  66  99 130 170 233 288 328 390
#
# _framework density 20.802088999999999
#
# number of rings (size 3 to 8) (size 9 to 14) (size 15 to 20)
#    0.000    0.750    3.750    4.875    1.750    5.000 
#    0.000    0.625    0.000    0.000    0.000    0.000 
#    0.000    0.000    0.000    0.000    0.000    0.000 
#
# Total GULP energy -178313.545200 kJ/mol
# GULP energy per Si atom -5572.298287 kJ/mol
# Density = 2.075474 g / cm^3
# Si number density = 20.802089 Si / 1000 Ang^3
#
#
#
# Elastic Constant Matrix: (Units=GPa)
#
#
# Indices 1 2 3 4 5 6 
#
# 1 116.7896 51.3668 15.2454 0.0000 9.7374 0.0000
# 2 51.3668 94.0641 7.7149 0.0000 11.5179 0.0000
# 3 15.2454 7.7149 55.2523 0.0000 1.0866 0.0000
# 4 0.0000 0.0000 0.0000 5.8931 0.0000 12.5210
# 5 9.7374 11.5179 1.0866 0.0000 41.9898 0.0000
# 6 0.0000 0.0000 0.0000 12.5210 0.0000 27.4926
#
#
#
# Elastic Compliance Matrix: (Units=1/GPa)
#
#
# Indices 1 2 3 4 5 6 
#
# 1 0.011598 -0.006022 -0.002340 0.000000 -0.000977 0.000000
# 2 -0.006022 0.014249 -0.000279 0.000000 -0.002505 0.000000
# 3 -0.002340 -0.000279 0.018781 0.000000 0.000133 0.000000
# 4 0.000000 0.000000 0.000000 5.245318 0.000000 -2.388885
# 5 -0.000977 -0.002505 0.000133 0.000000 0.024726 0.000000
# 6 0.000000 0.000000 0.000000 -2.388885 0.000000 1.124348
#
#
# Mechanical properties :
#
#
# Convention : Reuss Voigt Hill
#
# Bulk Modulus (GPa) = 36.56792 46.08445 41.32618
# Shear Modulus (GPa) = 0.77335 27.86034 14.31684
#
# Velocity S-wave (km/s) = 0.61039 3.66362 2.62628
# Velocity P-wave (km/s) = 4.25604 6.33230 5.39499
#
# Compressibility (1/GPa) = 0.02734638
#
# Stress axis : x y z
#
# Youngs Moduli (GPa) = 86.22253 70.18007 53.24586
#
# Poissons Ratio (x) = 0.42261 0.12460
# Poissons Ratio (y) = 0.51922 0.01484
# Poissons Ratio (z) = 0.20177 0.01956
#
# Static dielectric constant tensor:
#      x y z
#    x 1.506020 0.000000 0.249770 
#    y 0.000000 1.787720 0.000000 
#    z 0.249770 0.000000 1.550710 
# 
# From -- ./inp_files/52854.got.cif
#   From: 2010.05.17/outbox.cif.g08.bks.cpg/sg15_27_cif.got.tgz:52854.got - 2010.06.03 18:47:42.
