data_PCOD9299330
_publ_section_title
;
Structure prediction by ZEFSAII (Michael W. Deem and Ramdas Pophale) SiO2 
 PCOD9299330
Probable space group: C 2/C
;
_chemical_formula_sum "Si O2"
_cell_formula_units_Z 60
_cell_length_a 8.678637
_cell_length_b 24.562215
_cell_length_c 11.462377
_cell_angle_alpha 90.000000
_cell_angle_beta 109.180999
_cell_angle_gamma 90.000000
_cell_volume 2307.751173
_symmetry_space_group_name_H-M "C 2/C"
_symmetry_group_IT_number 15
_symmetry_cell_setting 'monoclinic'
loop_
_space_group_symop_operation_xyz
x,y,z
-x,y,1/2-z
-x,-y,-z
x,-y,1/2+z
1/2+x,1/2+y,z
1/2-x,1/2+y,1/2-z
1/2-x,1/2-y,-z
1/2+x,1/2-y,1/2+z
loop_
_atom_site_type_symbol
_atom_site_label
_atom_site_fract_x
_atom_site_fract_y
_atom_site_fract_z
Si Si1 0.190364 0.236874 0.804212
Si Si2 0.435193 0.177625 0.979120
Si Si3 0.678183 0.544845 0.653043
Si Si4 0.113550 0.586023 0.374415
Si Si5 0.904247 0.848215 0.846540
Si Si6 0.315566 0.521938 0.586774
Si Si7 0.000000 0.378848 0.250000
Si Si8 0.869420 0.215488 0.950649
O O1 0.244319 0.192527 0.913854
O O2 0.295055 0.292335 0.817001
O O3 0.219203 0.204702 0.690989
O O4 0.000000 0.247171 0.750000
O O5 0.498453 0.154272 0.872691
O O6 0.474996 0.139402 0.097018
O O7 0.495800 0.237386 0.024031
O O8 0.483663 0.556885 0.617206
O O9 0.697685 0.507885 0.778856
O O10 0.682678 0.520882 0.521232
O O11 0.832670 0.584935 0.703953
O O12 0.281117 0.605076 0.355429
O O13 0.159852 0.556199 0.505362
O O14 0.000000 0.558449 0.250000
O O15 0.000000 0.857365 0.750000
O O16 0.050391 0.836578 0.972726
O O17 0.750000 0.250000 0.000000
#
# Coordination Sequence:
#
# PCOD9299330 Si02
#       8
#     8   8   8   8   8   8   4   8
#     4  11  22  40  64  89 129 188 235 288 354 415
#     4  11  25  41  63 101 136 177 243 292 348 413
#     4  10  24  48  79 107 147 180 240 285 372 442
#     4  12  26  45  67 100 144 183 235 297 364 431
#     4  11  23  40  58  93 133 178 238 290 351 417
#     4  10  24  51  74 108 142 190 229 298 360 449
#     4  12  24  42  74 108 140 188 230 302 354 434
#     4  11  21  37  62  88 129 184 231 290 343 409
#
# _framework density 25.999337000000001
#
# number of rings (size 3 to 8) (size 9 to 14) (size 15 to 20)
#    0.000    1.067    2.667    3.600    2.800    6.933 
#    4.800    0.000    0.000    0.000    0.000    0.000 
#    0.000    0.000    0.000    0.000    0.000    0.000 
#
# Total GULP energy -167383.158102 kJ/mol
# GULP energy per Si atom -5579.438603 kJ/mol
# Density = 2.594016 g / cm^3
# Si number density = 25.999337 Si / 1000 Ang^3
#
#
#
# Elastic Constant Matrix: (Units=GPa)
#
#
# Indices 1 2 3 4 5 6 
#
# 1 85.5491 16.7366 34.1509 0.0000 -8.4960 0.0000
# 2 16.7366 41.5307 25.8455 0.0000 -3.8607 0.0000
# 3 34.1509 25.8455 162.7103 0.0000 -4.6425 0.0000
# 4 0.0000 0.0000 0.0000 29.7280 0.0000 -5.0477
# 5 -8.4960 -3.8607 -4.6425 0.0000 51.1985 0.0000
# 6 0.0000 0.0000 0.0000 -5.0477 0.0000 35.3587
#
#
#
# Elastic Compliance Matrix: (Units=1/GPa)
#
#
# Indices 1 2 3 4 5 6 
#
# 1 0.013493 -0.003933 -0.002158 0.000000 0.001747 0.000000
# 2 -0.003933 0.028003 -0.003590 0.000000 0.001133 0.000000
# 3 -0.002158 -0.003590 0.007170 0.000000 0.000021 0.000000
# 4 0.000000 0.000000 0.000000 0.034474 0.000000 0.004921
# 5 0.001747 0.001133 0.000021 0.000000 0.019909 0.000000
# 6 0.000000 0.000000 0.000000 0.004921 0.000000 0.028984
#
#
# Mechanical properties :
#
#
# Convention : Reuss Voigt Hill
#
# Bulk Modulus (GPa) = 34.12388 49.25069 41.68729
# Shear Modulus (GPa) = 31.02450 37.46084 34.24267
#
# Velocity S-wave (km/s) = 3.45814 3.79996 3.63307
# Velocity P-wave (km/s) = 5.39429 6.18361 5.80239
#
# Compressibility (1/GPa) = 0.02930499
#
# Stress axis : x y z
#
# Youngs Moduli (GPa) = 74.11051 35.71026 139.47664
#
# Poissons Ratio (x) = 0.14044 0.30093
# Poissons Ratio (y) = 0.29145 0.50077
# Poissons Ratio (z) = 0.15990 0.12821
#
# Static dielectric constant tensor:
#      x y z
#    x 2.255240 0.000000 -0.069060 
#    y 0.000000 2.086370 0.000000 
#    z -0.069060 0.000000 2.149620 
# 
# From -- ./inp_files/82637.got.cif
#   From: 2010.05.17/outbox.cif.g08.bks.cpg/sg15_42_cif.got.tgz:82637.got - 2010.06.03 18:47:42.
