data_PCOD9299576
_publ_section_title
;
Structure prediction by ZEFSAII (Michael W. Deem and Ramdas Pophale) SiO2 
 PCOD9299576
Probable space group: C 2/C
;
_chemical_formula_sum "Si O2"
_cell_formula_units_Z 48
_cell_length_a 21.681325
_cell_length_b 12.491011
_cell_length_c 9.361599
_cell_angle_alpha 90.000000
_cell_angle_beta 136.224424
_cell_angle_gamma 90.000000
_cell_volume 1754.026902
_symmetry_space_group_name_H-M "C 2/C"
_symmetry_group_IT_number 15
_symmetry_cell_setting 'monoclinic'
loop_
_space_group_symop_operation_xyz
x,y,z
-x,y,1/2-z
-x,-y,-z
x,-y,1/2+z
1/2+x,1/2+y,z
1/2-x,1/2+y,1/2-z
1/2-x,1/2-y,-z
1/2+x,1/2-y,1/2+z
loop_
_atom_site_type_symbol
_atom_site_label
_atom_site_fract_x
_atom_site_fract_y
_atom_site_fract_z
Si Si1 0.499706 0.303850 0.007142
Si Si2 0.623415 0.434645 0.033101
Si Si3 0.582450 0.074988 0.606889
Si Si4 0.815098 0.485788 0.481863
Si Si5 0.631873 0.341028 0.455733
Si Si6 0.209242 0.724856 0.088708
O O1 0.468424 0.599228 0.041408
O O2 0.590278 0.282235 0.250300
O O3 0.451496 0.190742 0.890958
O O4 0.432909 0.346694 0.014990
O O5 0.712873 0.455739 0.279720
O O6 0.633146 0.530811 0.936473
O O7 0.642916 0.320843 0.995971
O O8 0.500000 0.000000 0.500000
O O9 0.615606 0.082382 0.498142
O O10 0.662160 0.006826 0.814978
O O11 0.832689 0.608801 0.466470
O O12 0.717857 0.282570 0.662749
O O13 0.250000 0.750000 0.000000
#
# Coordination Sequence:
#
# PCOD9299576 Si02
#       6
#     8   8   8   8   8   8
#     4  11  25  47  70 107 147 197 241 309 374 447
#     4  11  25  43  76 106 145 197 252 303 374 451
#     4  12  27  47  77 109 155 196 253 310 385 453
#     4  11  26  46  75 113 148 201 251 316 375 450
#     4  10  25  43  72 102 147 190 245 307 370 441
#     4  11  24  45  72 104 149 193 249 311 372 444
#
# _framework density 27.365600000000001
#
# number of rings (size 3 to 8) (size 9 to 14) (size 15 to 20)
#    0.000    1.000    0.000    5.000   16.333    0.667 
#    6.000    0.000    0.000    0.000    0.000    0.000 
#    0.000    0.000    0.000    0.000    0.000    0.000 
#
# Total GULP energy -134039.343331 kJ/mol
# GULP energy per Si atom -5584.972639 kJ/mol
# Density = 2.730331 g / cm^3
# Si number density = 27.365600 Si / 1000 Ang^3
#
#
#
# Elastic Constant Matrix: (Units=GPa)
#
#
# Indices 1 2 3 4 5 6 
#
# 1 87.4133 37.3273 17.6139 0.0000 4.2644 0.0000
# 2 37.3273 168.4700 21.7315 0.0000 6.4011 0.0000
# 3 17.6139 21.7315 91.0131 0.0000 -0.8215 0.0000
# 4 0.0000 0.0000 0.0000 51.8448 0.0000 12.3488
# 5 4.2644 6.4011 -0.8215 0.0000 34.0481 0.0000
# 6 0.0000 0.0000 0.0000 12.3488 0.0000 44.4900
#
#
#
# Elastic Compliance Matrix: (Units=1/GPa)
#
#
# Indices 1 2 3 4 5 6 
#
# 1 0.012986 -0.002586 -0.001906 0.000000 -0.001186 0.000000
# 2 -0.002586 0.006688 -0.001105 0.000000 -0.000960 0.000000
# 3 -0.001906 -0.001105 0.011627 0.000000 0.000727 0.000000
# 4 0.000000 0.000000 0.000000 0.020654 0.000000 -0.005733
# 5 -0.001186 -0.000960 0.000727 0.000000 0.029717 0.000000
# 6 0.000000 0.000000 0.000000 -0.005733 0.000000 0.024068
#
#
# Mechanical properties :
#
#
# Convention : Reuss Voigt Hill
#
# Bulk Modulus (GPa) = 49.73780 55.58240 52.66010
# Shear Modulus (GPa) = 40.44091 44.09149 42.26620
#
# Velocity S-wave (km/s) = 3.84839 4.01833 3.93428
# Velocity P-wave (km/s) = 6.16129 6.47182 6.31847
#
# Compressibility (1/GPa) = 0.02010543
#
# Stress axis : x y z
#
# Youngs Moduli (GPa) = 77.00398 149.52512 86.00825
#
# Poissons Ratio (x) = 0.38672 0.16397
# Poissons Ratio (y) = 0.19916 0.09504
# Poissons Ratio (z) = 0.14680 0.16523
#
# Static dielectric constant tensor:
#      x y z
#    x 2.065860 0.000000 -0.094940 
#    y 0.000000 2.259240 0.000000 
#    z -0.094940 0.000000 2.362080 
# 
# From -- ./inp_files/126914.got.cif
#   From: 2010.05.17/outbox.cif.g08.bks.cpg/sg15_64_cif.got.tgz:126914.got - 2010.06.03 18:47:42.
