data_PCOD9299109
_publ_section_title
;
Structure prediction by ZEFSAII (Michael W. Deem and Ramdas Pophale) SiO2 
 PCOD9299109
Probable space group: C 2/C
;
_chemical_formula_sum "Si O2"
_cell_formula_units_Z 44
_cell_length_a 20.285056
_cell_length_b 13.498980
_cell_length_c 11.836920
_cell_angle_alpha 90.000000
_cell_angle_beta 141.119792
_cell_angle_gamma 90.000000
_cell_volume 2034.529467
_symmetry_space_group_name_H-M "C 2/C"
_symmetry_group_IT_number 15
_symmetry_cell_setting 'monoclinic'
loop_
_space_group_symop_operation_xyz
x,y,z
-x,y,1/2-z
-x,-y,-z
x,-y,1/2+z
1/2+x,1/2+y,z
1/2-x,1/2+y,1/2-z
1/2-x,1/2-y,-z
1/2+x,1/2-y,1/2+z
loop_
_atom_site_type_symbol
_atom_site_label
_atom_site_fract_x
_atom_site_fract_y
_atom_site_fract_z
Si Si1 0.412798 0.499196 0.228757
Si Si2 0.000000 0.478598 0.250000
Si Si3 0.436971 0.786779 0.057672
Si Si4 0.545526 0.661239 0.025103
Si Si5 0.196742 0.591999 0.429553
Si Si6 0.256048 0.249145 0.826319
O O1 0.500000 0.522851 0.250000
O O2 0.415549 0.580604 0.331267
O O3 0.454044 0.394729 0.335195
O O4 0.293209 0.482037 0.031013
O O5 0.063331 0.403774 0.417554
O O6 0.084835 0.540679 0.294196
O O7 0.500000 0.746354 0.250000
O O8 0.502930 0.754212 0.037587
O O9 0.321819 0.742776 0.884204
O O10 0.637015 0.697551 0.066261
O O11 0.199469 0.677714 0.339702
O O12 0.221176 0.646331 0.581418
#
# Coordination Sequence:
#
# PCOD9299109 Si02
#       6
#     8   4   8   8   8   8
#     4  11  22  43  69 100 133 171 233 284 336 408
#     4  10  26  46  66 100 142 180 226 280 346 406
#     4  10  24  47  61  98 138 179 225 270 351 410
#     4  11  23  42  69  97 133 179 225 281 344 409
#     4  11  24  44  71 100 132 176 232 284 335 407
#     4  11  24  42  71  97 133 179 227 281 343 402
#
# _framework density 21.626622000000001
#
# number of rings (size 3 to 8) (size 9 to 14) (size 15 to 20)
#    0.545    0.727    3.636    1.636    2.545    1.455 
#    6.545    0.000    0.000    0.000    0.000    0.000 
#    0.000    0.000    0.000    0.000    0.000    0.000 
#
# Total GULP energy -122910.314894 kJ/mol
# GULP energy per Si atom -5586.832495 kJ/mol
# Density = 2.157740 g / cm^3
# Si number density = 21.626622 Si / 1000 Ang^3
#
#
#
# Elastic Constant Matrix: (Units=GPa)
#
#
# Indices 1 2 3 4 5 6 
#
# 1 96.8500 24.6743 -4.4761 0.0000 13.6904 0.0000
# 2 24.6743 45.6315 -14.1910 0.0000 0.1326 0.0000
# 3 -4.4761 -14.1910 54.8313 0.0000 8.9378 0.0000
# 4 0.0000 0.0000 0.0000 14.2188 0.0000 4.8478
# 5 13.6904 0.1326 8.9378 0.0000 21.7674 0.0000
# 6 0.0000 0.0000 0.0000 4.8478 0.0000 1.7857
#
#
#
# Elastic Compliance Matrix: (Units=1/GPa)
#
#
# Indices 1 2 3 4 5 6 
#
# 1 0.013358 -0.006983 0.000692 0.000000 -0.008643 0.000000
# 2 -0.006983 0.027652 0.006321 0.000000 0.001628 0.000000
# 3 0.000692 0.006321 0.021443 0.000000 -0.009278 0.000000
# 4 0.000000 0.000000 0.000000 0.944894 0.000000 -2.565139
# 5 -0.008643 0.001628 -0.009278 0.000000 0.055176 0.000000
# 6 0.000000 0.000000 0.000000 -2.565139 0.000000 7.523669
#
#
# Mechanical properties :
#
#
# Convention : Reuss Voigt Hill
#
# Bulk Modulus (GPa) = 15.99657 23.25858 19.62758
# Shear Modulus (GPa) = 0.58092 20.30808 10.44450
#
# Velocity S-wave (km/s) = 0.51884 3.06769 2.19999
# Velocity P-wave (km/s) = 2.78778 4.82965 3.94317
#
# Compressibility (1/GPa) = 0.06251340
#
# Stress axis : x y z
#
# Youngs Moduli (GPa) = 74.86187 36.16434 46.63601
#
# Poissons Ratio (x) = 0.25252 -0.03228
# Poissons Ratio (y) = 0.52274 -0.29479
# Poissons Ratio (z) = -0.05181 -0.22860
#
# Static dielectric constant tensor:
#      x y z
#    x 1.768860 0.000000 -0.020150 
#    y 0.000000 1.768980 0.000000 
#    z -0.020150 0.000000 1.826520 
# 
# From -- ./inp_files/96589.got.cif
#   From: 2010.05.17/outbox.cif.g08.bks.cpg/sg15_49_cif.got.tgz:96589.got - 2010.06.03 18:47:42.
