data_PCOD9299598
_publ_section_title
;
Structure prediction by ZEFSAII (Michael W. Deem and Ramdas Pophale) SiO2 
 PCOD9299598
Probable space group: C 2/C
;
_chemical_formula_sum "Si O2"
_cell_formula_units_Z 48
_cell_length_a 9.004476
_cell_length_b 18.339194
_cell_length_c 14.692282
_cell_angle_alpha 90.000000
_cell_angle_beta 81.066324
_cell_angle_gamma 90.000000
_cell_volume 2396.774625
_symmetry_space_group_name_H-M "C 2/C"
_symmetry_group_IT_number 15
_symmetry_cell_setting 'monoclinic'
loop_
_space_group_symop_operation_xyz
x,y,z
-x,y,1/2-z
-x,-y,-z
x,-y,1/2+z
1/2+x,1/2+y,z
1/2-x,1/2+y,1/2-z
1/2-x,1/2-y,-z
1/2+x,1/2-y,1/2+z
loop_
_atom_site_type_symbol
_atom_site_label
_atom_site_fract_x
_atom_site_fract_y
_atom_site_fract_z
Si Si1 0.914074 0.839406 0.537228
Si Si2 0.143870 0.441297 0.881290
Si Si3 0.978920 0.410102 0.357520
Si Si4 0.927762 0.324400 0.990637
Si Si5 0.631179 0.435299 0.803108
Si Si6 0.671742 0.443666 0.454543
O O1 0.966689 0.760250 0.498536
O O2 0.736117 0.838407 0.535133
O O3 0.923743 0.860789 0.643156
O O4 0.017494 0.899345 0.477323
O O5 0.028735 0.508537 0.882512
O O6 0.225803 0.429131 0.776997
O O7 0.265401 0.460434 0.949451
O O8 0.050466 0.371236 0.923761
O O9 0.078333 0.356494 0.407309
O O10 0.000000 0.402522 0.250000
O O11 0.806772 0.396226 0.400084
O O12 0.500000 0.463866 0.750000
O O13 0.659139 0.489631 0.885134
#
# Coordination Sequence:
#
# PCOD9299598 Si02
#       6
#     8   8   8   8   8   8
#     4  11  24  44  63  93 130 174 210 268 325 380
#     4  11  23  43  66  98 128 175 212 265 328 382
#     4  11  22  40  65  97 122 166 214 264 315 386
#     4  10  25  44  65  87 133 172 214 262 326 387
#     4  12  24  39  69 101 127 166 221 269 315 385
#     4  11  23  41  67  94 131 166 211 269 324 372
#
# _framework density 20.026913
#
# number of rings (size 3 to 8) (size 9 to 14) (size 15 to 20)
#    0.000    1.000    3.333    4.500    2.333    3.333 
#    3.000    0.000    0.000    0.000    0.000    0.000 
#    0.000    0.000    0.000    0.000    0.000    0.000 
#
# Total GULP energy -133976.178060 kJ/mol
# GULP energy per Si atom -5582.340753 kJ/mol
# Density = 1.998133 g / cm^3
# Si number density = 20.026913 Si / 1000 Ang^3
#
#
#
# Elastic Constant Matrix: (Units=GPa)
#
#
# Indices 1 2 3 4 5 6 
#
# 1 66.5311 36.4722 36.9750 0.0000 -13.0250 0.0000
# 2 36.4722 73.6448 57.8285 0.0000 -4.7570 0.0000
# 3 36.9750 57.8285 141.8386 0.0000 -16.9252 0.0000
# 4 0.0000 0.0000 0.0000 13.3857 0.0000 4.7662
# 5 -13.0250 -4.7570 -16.9252 0.0000 25.4824 0.0000
# 6 0.0000 0.0000 0.0000 4.7662 0.0000 22.8855
#
#
#
# Elastic Compliance Matrix: (Units=1/GPa)
#
#
# Indices 1 2 3 4 5 6 
#
# 1 0.022798 -0.010141 -0.000699 0.000000 0.009295 0.000000
# 2 -0.010141 0.024562 -0.008083 0.000000 -0.005967 0.000000
# 3 -0.000699 -0.008083 0.011192 0.000000 0.005568 0.000000
# 4 0.000000 0.000000 0.000000 0.080690 0.000000 -0.016805
# 5 0.009295 -0.005967 0.005568 0.000000 0.046578 0.000000
# 6 0.000000 0.000000 0.000000 -0.016805 0.000000 0.047196
#
#
# Mechanical properties :
#
#
# Convention : Reuss Voigt Hill
#
# Bulk Modulus (GPa) = 48.29336 60.50734 54.40035
# Shear Modulus (GPa) = 18.00080 22.39998 20.20039
#
# Velocity S-wave (km/s) = 3.00130 3.34802 3.17939
# Velocity P-wave (km/s) = 6.01473 6.72490 6.37970
#
# Compressibility (1/GPa) = 0.02070678
#
# Stress axis : x y z
#
# Youngs Moduli (GPa) = 43.86272 40.71264 89.34749
#
# Poissons Ratio (x) = 0.41288 0.06248
# Poissons Ratio (y) = 0.44482 0.72216
# Poissons Ratio (z) = 0.03067 0.32906
#
# Static dielectric constant tensor:
#      x y z
#    x 1.738090 0.000000 0.002530 
#    y 0.000000 1.731140 0.000000 
#    z 0.002530 0.000000 1.696530 
# 
# From -- ./inp_files/135501.got.cif
#   From: 2010.05.17/outbox.cif.g08.bks.cpg/sg15_68_cif.got.tgz:135501.got - 2010.06.03 18:47:42.
