data_PCOD9299968
_publ_section_title
;
Structure prediction by ZEFSAII (Michael W. Deem and Ramdas Pophale) SiO2 
 PCOD9299968
Probable space group: C 2/C
;
_chemical_formula_sum "Si O2"
_cell_formula_units_Z 60
_cell_length_a 13.017088
_cell_length_b 21.687814
_cell_length_c 14.483252
_cell_angle_alpha 90.000000
_cell_angle_beta 40.693329
_cell_angle_gamma 90.000000
_cell_volume 2665.938034
_symmetry_space_group_name_H-M "C 2/C"
_symmetry_group_IT_number 15
_symmetry_cell_setting 'monoclinic'
loop_
_space_group_symop_operation_xyz
x,y,z
-x,y,1/2-z
-x,-y,-z
x,-y,1/2+z
1/2+x,1/2+y,z
1/2-x,1/2+y,1/2-z
1/2-x,1/2-y,-z
1/2+x,1/2-y,1/2+z
loop_
_atom_site_type_symbol
_atom_site_label
_atom_site_fract_x
_atom_site_fract_y
_atom_site_fract_z
Si Si1 0.177574 0.724103 0.279238
Si Si2 0.183772 0.285646 0.135331
Si Si3 0.891657 0.595198 0.082846
Si Si4 0.908066 0.173964 0.978282
Si Si5 0.354512 0.376714 0.906133
Si Si6 0.500000 0.406568 0.250000
Si Si7 0.936541 0.933848 0.011694
Si Si8 0.228080 0.539103 0.807560
O O1 0.287554 0.749852 0.288588
O O2 0.115054 0.657104 0.352765
O O3 0.267675 0.712114 0.121997
O O4 0.044503 0.775999 0.367059
O O5 0.000000 0.299891 0.250000
O O6 0.250000 0.250000 0.000000
O O7 0.296730 0.343432 0.039151
O O8 0.794419 0.612339 0.056380
O O9 0.804630 0.533753 0.177927
O O10 0.069648 0.573492 0.946956
O O11 0.898446 0.135971 0.889935
O O12 0.954948 0.121224 0.021704
O O13 0.500000 0.347288 0.750000
O O14 0.427865 0.435401 0.906720
O O15 0.628107 0.443838 0.222519
O O16 0.772131 0.933969 0.178595
O O17 0.000000 0.000000 0.000000
#
# Coordination Sequence:
#
# PCOD9299968 Si02
#       8
#     8   8   8   8   8   4   8   8
#     4  12  25  44  68 104 150 189 230 303 367 435
#     4  12  25  39  62 100 146 188 234 281 350 448
#     4  11  26  44  74 104 149 183 240 304 372 431
#     4  11  26  44  72 103 141 193 244 301 366 432
#     4  12  25  40  70 105 143 191 237 287 366 436
#     4  10  26  50  78 100 140 190 262 302 372 434
#     4  11  24  42  71 102 145 188 249 295 362 441
#     4  10  25  50  71 105 138 191 245 311 364 433
#
# _framework density 22.506150000000002
#
# number of rings (size 3 to 8) (size 9 to 14) (size 15 to 20)
#    0.000    0.800    2.667    3.600   10.267    0.533 
#    0.000    0.000    0.000    0.000    0.000    0.000 
#    0.000    0.000    0.000    0.000    0.000    0.000 
#
# Total GULP energy -167503.804883 kJ/mol
# GULP energy per Si atom -5583.460163 kJ/mol
# Density = 2.245492 g / cm^3
# Si number density = 22.506150 Si / 1000 Ang^3
#
#
#
# Elastic Constant Matrix: (Units=GPa)
#
#
# Indices 1 2 3 4 5 6 
#
# 1 43.0860 23.3177 26.0665 0.0003 -1.4321 -0.0002
# 2 23.3177 112.7188 45.8469 0.0010 -7.2445 -0.0006
# 3 26.0665 45.8469 128.3023 0.0020 -5.8257 -0.0010
# 4 0.0003 0.0010 0.0020 42.2493 -0.0009 4.0581
# 5 -1.4321 -7.2445 -5.8257 -0.0009 35.4003 0.0004
# 6 -0.0002 -0.0006 -0.0010 4.0581 0.0004 27.3424
#
#
#
# Elastic Compliance Matrix: (Units=1/GPa)
#
#
# Indices 1 2 3 4 5 6 
#
# 1 0.027974 -0.004088 -0.004241 0.000000 -0.000403 0.000000
# 2 -0.004088 0.011060 -0.003049 0.000000 0.001596 0.000000
# 3 -0.004241 -0.003049 0.009782 0.000000 0.000814 0.000000
# 4 0.000000 0.000000 0.000000 0.024011 0.000001 -0.003564
# 5 -0.000403 0.001596 0.000814 0.000001 0.028693 0.000000
# 6 0.000000 0.000000 0.000000 -0.003564 0.000000 0.037102
#
#
# Mechanical properties :
#
#
# Convention : Reuss Voigt Hill
#
# Bulk Modulus (GPa) = 38.37222 52.72992 45.55107
# Shear Modulus (GPa) = 29.40050 33.59013 31.49532
#
# Velocity S-wave (km/s) = 3.61824 3.86746 3.74493
# Velocity P-wave (km/s) = 5.87726 6.58961 6.24361
#
# Compressibility (1/GPa) = 0.02606052
#
# Stress axis : x y z
#
# Youngs Moduli (GPa) = 35.74747 90.41538 102.22613
#
# Poissons Ratio (x) = 0.36960 0.43353
# Poissons Ratio (y) = 0.14613 0.31170
# Poissons Ratio (z) = 0.15160 0.27569
#
# Static dielectric constant tensor:
#      x y z
#    x 2.562590 0.000070 0.255970 
#    y 0.000070 3.112630 0.000060 
#    z 0.255970 0.000060 2.172160 
# 
# From -- ./inp_files/156339.got.cif
#   From: 2010.05.17/outbox.cif.g08.bks.cpg/sg15_79_cif.got.tgz:156339.got - 2010.06.03 18:47:42.
