data_PCOD9299264
_publ_section_title
;
Structure prediction by ZEFSAII (Michael W. Deem and Ramdas Pophale) SiO2 
 PCOD9299264
Probable space group: C 2/C
;
_chemical_formula_sum "Si O2"
_cell_formula_units_Z 60
_cell_length_a 14.204479
_cell_length_b 12.215376
_cell_length_c 21.945502
_cell_angle_alpha 90.000000
_cell_angle_beta 48.956434
_cell_angle_gamma 90.000000
_cell_volume 2871.906197
_symmetry_space_group_name_H-M "C 2/C"
_symmetry_group_IT_number 15
_symmetry_cell_setting 'monoclinic'
loop_
_space_group_symop_operation_xyz
x,y,z
-x,y,1/2-z
-x,-y,-z
x,-y,1/2+z
1/2+x,1/2+y,z
1/2-x,1/2+y,1/2-z
1/2-x,1/2-y,-z
1/2+x,1/2-y,1/2+z
loop_
_atom_site_type_symbol
_atom_site_label
_atom_site_fract_x
_atom_site_fract_y
_atom_site_fract_z
Si Si1 0.647395 0.540693 0.693381
Si Si2 0.400949 0.414264 0.064044
Si Si3 0.500000 0.881191 0.250000
Si Si4 0.185889 0.345054 0.067850
Si Si5 0.409913 0.779893 0.739446
Si Si6 0.926730 0.772476 0.448007
Si Si7 0.773831 0.557918 0.514223
Si Si8 0.781717 0.493528 0.762080
O O1 0.500000 0.506433 0.750000
O O2 0.642602 0.672031 0.706235
O O3 0.706327 0.515718 0.603200
O O4 0.738809 0.502854 0.709573
O O5 0.297717 0.395643 0.058778
O O6 0.471802 0.302321 0.045662
O O7 0.337135 0.457912 0.152268
O O8 0.500000 0.500000 0.000000
O O9 0.582189 0.817008 0.163617
O O10 0.600618 0.945804 0.252314
O O11 0.250000 0.250000 0.000000
O O12 0.150291 0.455249 0.045410
O O13 0.500000 0.836949 0.750000
O O14 0.498474 0.743190 0.646634
O O15 0.306879 0.865753 0.763209
O O16 0.862684 0.659385 0.491263
O O17 0.830081 0.874502 0.481890
#
# Coordination Sequence:
#
# PCOD9299264 Si02
#       8
#     8   8   4   8   8   8   8   8
#     4  11  23  43  63 101 141 171 230 292 348 415
#     4  11  23  40  66  98 135 178 234 282 347 424
#     4  10  24  48  70  98 138 188 240 278 340 428
#     4  11  26  48  69 100 143 187 230 287 353 428
#     4  11  21  39  66  94 131 175 228 285 337 405
#     4  11  22  40  66 101 129 172 234 293 338 407
#     4  11  23  40  69 100 134 176 226 292 356 402
#     4  11  23  41  70  96 136 187 232 282 348 420
#
# _framework density 20.892047000000002
#
# number of rings (size 3 to 8) (size 9 to 14) (size 15 to 20)
#    0.000    1.067    6.000    0.800    3.733    2.133 
#    1.200    2.000    0.000    0.000    0.000    0.000 
#    0.000    0.000    0.000    0.000    0.000    0.000 
#
# Total GULP energy -167090.872654 kJ/mol
# GULP energy per Si atom -5569.695755 kJ/mol
# Density = 2.084450 g / cm^3
# Si number density = 20.892047 Si / 1000 Ang^3
#
#
#
# Elastic Constant Matrix: (Units=GPa)
#
#
# Indices 1 2 3 4 5 6 
#
# 1 68.6594 4.1009 -1.6119 0.0000 -5.1776 0.0000
# 2 4.1009 54.2452 21.0101 0.0000 -4.4709 0.0000
# 3 -1.6119 21.0101 94.6184 0.0000 -5.1505 0.0000
# 4 0.0000 0.0000 0.0000 19.7346 0.0000 -12.9927
# 5 -5.1776 -4.4709 -5.1505 0.0000 19.7738 0.0000
# 6 0.0000 0.0000 0.0000 -12.9927 0.0000 74.9717
#
#
#
# Elastic Compliance Matrix: (Units=1/GPa)
#
#
# Indices 1 2 3 4 5 6 
#
# 1 0.014936 -0.001085 0.000705 0.000000 0.003849 0.000000
# 2 -0.001085 0.020482 -0.004392 0.000000 0.003203 0.000000
# 3 0.000705 -0.004392 0.011678 0.000000 0.002233 0.000000
# 4 0.000000 0.000000 0.000000 0.057199 0.000000 0.009913
# 5 0.003849 0.003203 0.002233 0.000000 0.052886 0.000000
# 6 0.000000 0.000000 0.000000 0.009913 0.000000 0.015056
#
#
# Mechanical properties :
#
#
# Convention : Reuss Voigt Hill
#
# Bulk Modulus (GPa) = 26.63013 29.39124 28.01068
# Shear Modulus (GPa) = 25.73367 35.83094 30.78230
#
# Velocity S-wave (km/s) = 3.51343 4.14581 3.84265
# Velocity P-wave (km/s) = 5.40677 6.08405 5.75538
#
# Compressibility (1/GPa) = 0.03755145
#
# Stress axis : x y z
#
# Youngs Moduli (GPa) = 66.95107 48.82343 85.63387
#
# Poissons Ratio (x) = 0.05297 -0.06036
# Poissons Ratio (y) = 0.07264 0.37612
# Poissons Ratio (z) = -0.04719 0.21444
#
# Static dielectric constant tensor:
#      x y z
#    x 1.712640 0.000000 -0.051220 
#    y 0.000000 1.783190 0.000000 
#    z -0.051220 0.000000 1.754270 
# 
# From -- ./inp_files/273844.got.cif
#   From: 2010.05.17/outbox.cif.g08.bks.cpg/sg15_137_cif.got.tgz:273844.got - 2010.06.03 18:47:42.
