data_PCOD9299918
_publ_section_title
;
Structure prediction by ZEFSAII (Michael W. Deem and Ramdas Pophale) SiO2 
 PCOD9299918
Probable space group: C 2/C
;
_chemical_formula_sum "Si O2"
_cell_formula_units_Z 32
_cell_length_a 10.839980
_cell_length_b 7.680053
_cell_length_c 16.661909
_cell_angle_alpha 90.000000
_cell_angle_beta 73.983432
_cell_angle_gamma 90.000000
_cell_volume 1333.285215
_symmetry_space_group_name_H-M "C 2/C"
_symmetry_group_IT_number 15
_symmetry_cell_setting 'monoclinic'
loop_
_space_group_symop_operation_xyz
x,y,z
-x,y,1/2-z
-x,-y,-z
x,-y,1/2+z
1/2+x,1/2+y,z
1/2-x,1/2+y,1/2-z
1/2-x,1/2-y,-z
1/2+x,1/2-y,1/2+z
loop_
_atom_site_type_symbol
_atom_site_label
_atom_site_fract_x
_atom_site_fract_y
_atom_site_fract_z
Si Si1 0.826576 0.895504 0.828039
Si Si2 0.319489 0.803031 0.070884
Si Si3 0.899390 0.812958 0.981814
Si Si4 0.186961 0.966780 0.339213
O O1 0.918056 0.891374 0.888996
O O2 0.785792 0.696242 0.816232
O O3 0.711282 0.010807 0.885384
O O4 0.864740 0.995709 0.740480
O O5 0.472658 0.799700 0.032778
O O6 0.264149 0.656400 0.141503
O O7 0.250000 0.750000 0.000000
O O8 0.750000 0.750000 0.000000
O O9 0.893741 0.918147 0.066060
#
# Coordination Sequence:
#
# PCOD9299918 Si02
#       4
#     8   8   8   8
#     4  11  24  46  73 107 157 189 251 309 371 446
#     4  12  25  47  79 107 146 198 246 311 378 435
#     4  10  25  48  74 107 149 192 248 306 364 446
#     4  11  23  45  71 110 144 197 244 301 373 442
#
# _framework density 24.000867
#
# number of rings (size 3 to 8) (size 9 to 14) (size 15 to 20)
#    0.000    1.000    5.000    0.750    0.000    5.000 
#    0.000    0.000    0.000    0.000    0.000    0.000 
#    0.000    0.000    0.000    0.000    0.000    0.000 
#
# Total GULP energy -89078.222333 kJ/mol
# GULP energy per Si atom -5567.388896 kJ/mol
# Density = 2.394624 g / cm^3
# Si number density = 24.000867 Si / 1000 Ang^3
#
#
#
# Elastic Constant Matrix: (Units=GPa)
#
#
# Indices 1 2 3 4 5 6 
#
# 1 144.3778 36.6914 70.0897 0.0000 15.6534 0.0000
# 2 36.6914 124.0869 31.5569 0.0000 6.7747 0.0000
# 3 70.0897 31.5569 242.6300 0.0000 32.5622 0.0000
# 4 0.0000 0.0000 0.0000 62.9441 0.0000 -3.1159
# 5 15.6534 6.7747 32.5622 0.0000 46.8235 0.0000
# 6 0.0000 0.0000 0.0000 -3.1159 0.0000 25.5080
#
#
#
# Elastic Compliance Matrix: (Units=1/GPa)
#
#
# Indices 1 2 3 4 5 6 
#
# 1 0.008544 -0.001940 -0.002063 0.000000 -0.001141 0.000000
# 2 -0.001940 0.008785 -0.000550 0.000000 -0.000240 0.000000
# 3 -0.002063 -0.000550 0.005168 0.000000 -0.002825 0.000000
# 4 0.000000 0.000000 0.000000 0.015984 0.000000 0.001952
# 5 -0.001141 -0.000240 -0.002825 0.000000 0.023738 0.000000
# 6 0.000000 0.000000 0.000000 0.001952 0.000000 0.039442
#
#
# Mechanical properties :
#
#
# Convention : Reuss Voigt Hill
#
# Bulk Modulus (GPa) = 74.66722 87.53008 81.09865
# Shear Modulus (GPa) = 43.39139 51.90557 47.64848
#
# Velocity S-wave (km/s) = 4.25656 4.65548 4.46048
# Velocity P-wave (km/s) = 7.43879 8.08991 7.77117
#
# Compressibility (1/GPa) = 0.01339276
#
# Stress axis : x y z
#
# Youngs Moduli (GPa) = 117.03666 113.82526 193.49667
#
# Poissons Ratio (x) = 0.22077 0.39915
# Poissons Ratio (y) = 0.22700 0.10645
# Poissons Ratio (z) = 0.24142 0.06262
#
# Static dielectric constant tensor:
#      x y z
#    x 1.941930 0.000000 -0.048630 
#    y 0.000000 2.041370 0.000000 
#    z -0.048630 0.000000 1.952920 
# 
# From -- ./inp_files/140527.got.cif
#   From: 2010.05.17/outbox.cif.g08.bks.cpg/sg15_71_cif.got.tgz:140527.got - 2010.06.03 18:47:42.
