data_PCOD9299235
_publ_section_title
;
Structure prediction by ZEFSAII (Michael W. Deem and Ramdas Pophale) SiO2 
 PCOD9299235
Probable space group: C 2/C
;
_chemical_formula_sum "Si O2"
_cell_formula_units_Z 36
_cell_length_a 8.752709
_cell_length_b 16.541036
_cell_length_c 15.998922
_cell_angle_alpha 90.000000
_cell_angle_beta 37.762543
_cell_angle_gamma 90.000000
_cell_volume 1418.483419
_symmetry_space_group_name_H-M "C 2/C"
_symmetry_group_IT_number 15
_symmetry_cell_setting 'monoclinic'
loop_
_space_group_symop_operation_xyz
x,y,z
-x,y,1/2-z
-x,-y,-z
x,-y,1/2+z
1/2+x,1/2+y,z
1/2-x,1/2+y,1/2-z
1/2-x,1/2-y,-z
1/2+x,1/2-y,1/2+z
loop_
_atom_site_type_symbol
_atom_site_label
_atom_site_fract_x
_atom_site_fract_y
_atom_site_fract_z
Si Si1 0.284155 0.343810 0.002599
Si Si2 0.186463 0.812794 0.953717
Si Si3 0.500000 0.947868 0.750000
Si Si4 0.000000 0.933426 0.750000
Si Si5 0.500000 0.314146 0.250000
Si Si6 0.234397 0.560264 0.768459
O O1 0.426185 0.344951 0.030333
O O2 0.438904 0.381632 0.858376
O O3 0.250000 0.250000 0.000000
O O4 0.024692 0.392029 0.116523
O O5 0.375156 0.888277 0.871461
O O6 0.272939 0.748624 0.843526
O O7 0.250000 0.750000 0.000000
O O8 0.712984 0.004025 0.696748
O O9 0.774160 0.994000 0.824418
O O10 0.544219 0.375011 0.308998
#
# Coordination Sequence:
#
# PCOD9299235 Si02
#       6
#     8   8   4   4   4   8
#     4  12  26  46  77 111 142 207 251 306 383 461
#     4  11  26  47  71 103 151 196 254 307 377 448
#     4  11  26  46  72 107 144 196 246 317 376 444
#     4  11  26  50  72 109 160 190 254 325 374 444
#     4  10  24  48  66 106 148 202 234 320 370 442
#     4  11  25  45  74 107 149 194 253 307 386 441
#
# _framework density 25.37922
#
# number of rings (size 3 to 8) (size 9 to 14) (size 15 to 20)
#    0.000    0.889    4.444    0.667    6.222    5.333 
#    0.000    0.000    0.000    0.000    0.000    0.000 
#    0.000    0.000    0.000    0.000    0.000    0.000 
#
# Total GULP energy -100468.107301 kJ/mol
# GULP energy per Si atom -5581.561517 kJ/mol
# Density = 2.532146 g / cm^3
# Si number density = 25.379220 Si / 1000 Ang^3
#
#
#
# Elastic Constant Matrix: (Units=GPa)
#
#
# Indices 1 2 3 4 5 6 
#
# 1 168.7700 80.5641 30.7499 0.0067 -16.7536 -0.0027
# 2 80.5641 202.7190 51.5148 -0.0001 -13.6584 -0.0037
# 3 30.7499 51.5148 55.4152 -0.0159 -20.9563 -0.0098
# 4 0.0067 -0.0001 -0.0159 11.3353 0.0061 -26.3242
# 5 -16.7536 -13.6584 -20.9563 0.0061 30.0261 0.0050
# 6 -0.0027 -0.0037 -0.0098 -26.3242 0.0050 43.7167
#
#
#
# Elastic Compliance Matrix: (Units=1/GPa)
#
#
# Indices 1 2 3 4 5 6 
#
# 1 0.007578 -0.002636 -0.000827 0.000019 0.002452 0.000011
# 2 -0.002636 0.007440 -0.006426 0.000019 -0.002572 0.000011
# 3 -0.000827 -0.006426 0.031517 -0.000112 0.018612 -0.000063
# 4 0.000019 0.000019 -0.000112 -0.221440 0.000008 -0.133341
# 5 0.002452 -0.002572 0.018612 0.000008 0.046493 0.000004
# 6 0.000011 0.000011 -0.000063 -0.133341 0.000004 -0.057417
#
#
# Mechanical properties :
#
#
# Convention : Reuss Voigt Hill
#
# Bulk Modulus (GPa) = 37.37488 83.61797 60.49643
# Shear Modulus (GPa) = -31.82047 34.62065 1.40009
#
# Velocity S-wave (km/s) = -3.54475 3.69743 0.74355
# Velocity P-wave (km/s) = 1.41248 7.15869 4.96245
#
# Compressibility (1/GPa) = 0.02675594
#
# Stress axis : x y z
#
# Youngs Moduli (GPa) = 131.96640 134.40154 31.72876
#
# Poissons Ratio (x) = 0.35430 0.02624
# Poissons Ratio (y) = 0.34788 0.20390
# Poissons Ratio (z) = 0.10915 0.86372
#
# Static dielectric constant tensor:
#      x y z
#    x 2.110890 0.000000 0.117860 
#    y 0.000000 1.950650 0.000000 
#    z 0.117860 0.000000 2.264970 
# 
# From -- ./inp_files/190160.got.cif
#   From: 2010.05.17/outbox.cif.g08.bks.cpg/sg15_96_cif.got.tgz:190160.got - 2010.06.03 18:47:42.
