data_PCOD9299315
_publ_section_title
;
Structure prediction by ZEFSAII (Michael W. Deem and Ramdas Pophale) SiO2 
 PCOD9299315
Probable space group: C 2/C
;
_chemical_formula_sum "Si O2"
_cell_formula_units_Z 28
_cell_length_a 17.325983
_cell_length_b 11.147706
_cell_length_c 7.704398
_cell_angle_alpha 90.000000
_cell_angle_beta 134.429317
_cell_angle_gamma 90.000000
_cell_volume 1062.649403
_symmetry_space_group_name_H-M "C 2/C"
_symmetry_group_IT_number 15
_symmetry_cell_setting 'monoclinic'
loop_
_space_group_symop_operation_xyz
x,y,z
-x,y,1/2-z
-x,-y,-z
x,-y,1/2+z
1/2+x,1/2+y,z
1/2-x,1/2+y,1/2-z
1/2-x,1/2-y,-z
1/2+x,1/2-y,1/2+z
loop_
_atom_site_type_symbol
_atom_site_label
_atom_site_fract_x
_atom_site_fract_y
_atom_site_fract_z
Si Si1 0.573283 0.615322 0.088913
Si Si2 0.313499 0.941191 0.107757
Si Si3 0.500000 0.794535 0.250000
Si Si4 0.161403 0.308732 0.981265
O O1 0.690311 0.573987 0.349174
O O2 0.504867 0.710966 0.091291
O O3 0.500000 0.500000 0.000000
O O4 0.601658 0.689300 0.959657
O O5 0.390516 0.866843 0.101436
O O6 0.313594 0.878578 0.297266
O O7 0.367895 0.073414 0.180795
O O8 0.250000 0.250000 0.000000
#
# Coordination Sequence:
#
# PCOD9299315 Si02
#       4
#     8   8   4   8
#     4  11  27  47  80 121 164 216 275 338 414 491
#     4  11  26  49  79 114 162 215 278 335 414 494
#     4  10  24  48  76 108 164 212 270 342 410 484
#     4  11  25  50  79 114 163 215 272 341 409 484
#
# _framework density 26.349236999999999
#
# number of rings (size 3 to 8) (size 9 to 14) (size 15 to 20)
#    0.000    1.143    0.000    5.143   12.000    4.571 
#    5.143    1.429    0.000    0.000    0.000    0.000 
#    0.000    0.000    0.000    0.000    0.000    0.000 
#
# Total GULP energy -78187.477058 kJ/mol
# GULP energy per Si atom -5584.819790 kJ/mol
# Density = 2.628926 g / cm^3
# Si number density = 26.349237 Si / 1000 Ang^3
#
#
#
# Elastic Constant Matrix: (Units=GPa)
#
#
# Indices 1 2 3 4 5 6 
#
# 1 288.2217 113.3998 68.8064 0.0000 -22.2479 0.0000
# 2 113.3998 229.2722 34.9810 0.0000 2.9306 0.0000
# 3 68.8064 34.9810 92.6779 0.0000 6.0422 0.0000
# 4 0.0000 0.0000 0.0000 9.8739 0.0000 5.3604
# 5 -22.2479 2.9306 6.0422 0.0000 46.3604 0.0000
# 6 0.0000 0.0000 0.0000 5.3604 0.0000 87.6478
#
#
#
# Elastic Compliance Matrix: (Units=1/GPa)
#
#
# Indices 1 2 3 4 5 6 
#
# 1 0.005379 -0.002186 -0.003374 0.000000 0.003159 0.000000
# 2 -0.002186 0.005517 -0.000371 0.000000 -0.001349 0.000000
# 3 -0.003374 -0.000371 0.013656 0.000000 -0.003376 0.000000
# 4 0.000000 0.000000 0.000000 0.104756 0.000000 -0.006407
# 5 0.003159 -0.001349 -0.003376 0.000000 0.023612 0.000000
# 6 0.000000 0.000000 0.000000 -0.006407 0.000000 0.011801
#
#
# Mechanical properties :
#
#
# Convention : Reuss Voigt Hill
#
# Bulk Modulus (GPa) = 78.81602 116.06071 97.43836
# Shear Modulus (GPa) = 27.65296 54.97538 41.31417
#
# Velocity S-wave (km/s) = 3.24308 4.57268 3.96402
# Velocity P-wave (km/s) = 6.63328 8.48657 7.61651
#
# Compressibility (1/GPa) = 0.01268778
#
# Stress axis : x y z
#
# Youngs Moduli (GPa) = 185.90495 181.26518 73.23035
#
# Poissons Ratio (x) = 0.39626 0.24711
# Poissons Ratio (y) = 0.40640 0.02719
# Poissons Ratio (z) = 0.62732 0.06731
#
# Static dielectric constant tensor:
#      x y z
#    x 1.883990 0.000000 0.016090 
#    y 0.000000 2.341870 0.000000 
#    z 0.016090 0.000000 2.270570 
# 
# From -- ./inp_files/36909.got.cif
#   From: 2010.05.17/outbox.cif.g08.bks.cpg/sg15_19_cif.got.tgz:36909.got - 2010.06.03 18:47:42.
