data_PCOD9299903
_publ_section_title
;
Structure prediction by ZEFSAII (Michael W. Deem and Ramdas Pophale) SiO2 
 PCOD9299903
Probable space group: C 2/C
;
_chemical_formula_sum "Si O2"
_cell_formula_units_Z 44
_cell_length_a 11.971365
_cell_length_b 8.586825
_cell_length_c 17.514324
_cell_angle_alpha 90.000000
_cell_angle_beta 79.538392
_cell_angle_gamma 90.000000
_cell_volume 1770.474274
_symmetry_space_group_name_H-M "C 2/C"
_symmetry_group_IT_number 15
_symmetry_cell_setting 'monoclinic'
loop_
_space_group_symop_operation_xyz
x,y,z
-x,y,1/2-z
-x,-y,-z
x,-y,1/2+z
1/2+x,1/2+y,z
1/2-x,1/2+y,1/2-z
1/2-x,1/2-y,-z
1/2+x,1/2-y,1/2+z
loop_
_atom_site_type_symbol
_atom_site_label
_atom_site_fract_x
_atom_site_fract_y
_atom_site_fract_z
Si Si1 0.904561 0.637914 0.938104
Si Si2 0.024912 0.886613 0.330714
Si Si3 0.849591 0.640198 0.668345
Si Si4 0.000000 0.804754 0.750000
Si Si5 0.321273 0.792817 0.916661
Si Si6 0.797338 0.311196 0.613827
O O1 0.862211 0.468446 0.917345
O O2 0.822042 0.763863 0.908299
O O3 0.035468 0.647511 0.897349
O O4 0.879574 0.654295 0.031007
O O5 0.144434 0.828443 0.346944
O O6 0.000000 0.813819 0.250000
O O7 0.927818 0.822579 0.397421
O O8 0.012916 0.069362 0.316557
O O9 0.894799 0.690632 0.745744
O O10 0.757659 0.757627 0.646074
O O11 0.797545 0.467726 0.664607
O O12 0.250000 0.750000 0.000000
#
# Coordination Sequence:
#
# PCOD9299903 Si02
#       6
#     8   8   8   4   8   8
#     4  11  25  45  72 113 143 188 244 308 378 432
#     4  10  25  48  70 104 151 197 242 302 365 444
#     4  12  25  45  72 104 145 193 244 302 359 453
#     4  10  28  46  66 106 144 202 254 286 370 444
#     4  12  24  46  78 109 148 189 249 308 376 437
#     4  11  23  44  75 104 146 189 239 307 368 436
#
# _framework density 24.852097000000001
#
# number of rings (size 3 to 8) (size 9 to 14) (size 15 to 20)
#    0.545    0.364    3.636    2.727    3.818    1.455 
#    0.000    4.545    0.000    0.000    0.000    0.000 
#    0.000    0.000    0.000    0.000    0.000    0.000 
#
# Total GULP energy -123224.095765 kJ/mol
# GULP energy per Si atom -5601.095262 kJ/mol
# Density = 2.479553 g / cm^3
# Si number density = 24.852097 Si / 1000 Ang^3
#
#
#
# Elastic Constant Matrix: (Units=GPa)
#
#
# Indices 1 2 3 4 5 6 
#
# 1 123.1031 40.8188 4.3072 0.0000 19.9465 0.0000
# 2 40.8188 153.4392 25.6204 0.0000 21.2991 0.0000
# 3 4.3072 25.6204 68.9990 0.0000 4.9876 0.0000
# 4 0.0000 0.0000 0.0000 37.5571 0.0000 14.9497
# 5 19.9465 21.2991 4.9876 0.0000 55.9831 0.0000
# 6 0.0000 0.0000 0.0000 14.9497 0.0000 56.9954
#
#
#
# Elastic Compliance Matrix: (Units=1/GPa)
#
#
# Indices 1 2 3 4 5 6 
#
# 1 0.009236 -0.002179 0.000413 0.000000 -0.002499 0.000000
# 2 -0.002179 0.007807 -0.002621 0.000000 -0.001960 0.000000
# 3 0.000413 -0.002621 0.015479 0.000000 -0.000529 0.000000
# 4 0.000000 0.000000 0.000000 0.029730 0.000000 -0.007798
# 5 -0.002499 -0.001960 -0.000529 0.000000 0.019546 0.000000
# 6 0.000000 0.000000 0.000000 -0.007798 0.000000 0.019591
#
#
# Mechanical properties :
#
#
# Convention : Reuss Voigt Hill
#
# Bulk Modulus (GPa) = 42.10967 54.11490 48.11229
# Shear Modulus (GPa) = 42.34486 48.42679 45.38582
#
# Velocity S-wave (km/s) = 4.13228 4.41908 4.27809
# Velocity P-wave (km/s) = 6.30464 6.91808 6.61847
#
# Compressibility (1/GPa) = 0.02374751
#
# Stress axis : x y z
#
# Youngs Moduli (GPa) = 108.26899 128.09498 64.60514
#
# Poissons Ratio (x) = 0.27915 -0.02670
# Poissons Ratio (y) = 0.23595 0.16933
# Poissons Ratio (z) = -0.04474 0.33574
#
# Static dielectric constant tensor:
#      x y z
#    x 1.943400 0.000000 -0.048060 
#    y 0.000000 1.917350 0.000000 
#    z -0.048060 0.000000 2.135330 
# 
# From -- ./inp_files/236132.got.cif
#   From: 2010.05.17/outbox.cif.g08.bks.cpg/sg15_119_cif.got.tgz:236132.got - 2010.06.03 18:47:42.
