data_PCOD9299447
_publ_section_title
;
Structure prediction by ZEFSAII (Michael W. Deem and Ramdas Pophale) SiO2 
 PCOD9299447
Probable space group: C 2/C
;
_chemical_formula_sum "Si O2"
_cell_formula_units_Z 56
_cell_length_a 22.371425
_cell_length_b 7.670172
_cell_length_c 23.190948
_cell_angle_alpha 90.000000
_cell_angle_beta 141.559542
_cell_angle_gamma 90.000000
_cell_volume 2473.995054
_symmetry_space_group_name_H-M "C 2/C"
_symmetry_group_IT_number 15
_symmetry_cell_setting 'monoclinic'
loop_
_space_group_symop_operation_xyz
x,y,z
-x,y,1/2-z
-x,-y,-z
x,-y,1/2+z
1/2+x,1/2+y,z
1/2-x,1/2+y,1/2-z
1/2-x,1/2-y,-z
1/2+x,1/2-y,1/2+z
loop_
_atom_site_type_symbol
_atom_site_label
_atom_site_fract_x
_atom_site_fract_y
_atom_site_fract_z
Si Si1 0.707509 0.727038 0.255874
Si Si2 0.694022 0.334087 0.386768
Si Si3 0.456986 0.883186 0.416732
Si Si4 0.828343 0.342016 0.962365
Si Si5 0.183892 0.009823 0.993681
Si Si6 0.049481 0.135233 0.993999
Si Si7 0.866164 0.837385 0.287585
O O1 0.629139 0.884114 0.194610
O O2 0.774812 0.718753 0.363388
O O3 0.782681 0.746833 0.260920
O O4 0.649181 0.544996 0.213492
O O5 0.785473 0.466036 0.444418
O O6 0.726486 0.141793 0.431268
O O7 0.640722 0.430287 0.399548
O O8 0.640397 0.314952 0.285657
O O9 0.556351 0.837558 0.459253
O O10 0.402765 0.756655 0.422483
O O11 0.500000 0.000000 0.500000
O O12 0.801595 0.195298 0.988711
O O13 0.119330 0.055318 0.000309
O O14 0.965235 0.221443 0.892102
O O15 0.000000 0.000000 0.000000
#
# Coordination Sequence:
#
# PCOD9299447 Si02
#       7
#     8   8   8   8   8   8   8
#     4  11  22  36  59  91 128 162 207 266 325 386
#     4  10  25  40  61  93 120 172 215 261 310 392
#     4  12  23  37  59  95 132 160 207 273 325 384
#     4  11  22  41  64  93 123 170 214 263 326 381
#     4  11  22  43  64  83 130 168 215 261 320 381
#     4  12  21  38  61  89 118 163 206 258 326 377
#     4  11  22  37  58  91 127 158 216 261 322 384
#
# _framework density 22.635452999999998
#
# number of rings (size 3 to 8) (size 9 to 14) (size 15 to 20)
#    0.000    0.857    4.286    3.857    2.000    0.571 
#    0.000    0.000    0.000    4.286    0.000    0.000 
#    0.000    0.000    0.000    0.000    0.000    0.000 
#
# Total GULP energy -156065.068507 kJ/mol
# GULP energy per Si atom -5573.752447 kJ/mol
# Density = 2.258393 g / cm^3
# Si number density = 22.635453 Si / 1000 Ang^3
#
#
#
# Elastic Constant Matrix: (Units=GPa)
#
#
# Indices 1 2 3 4 5 6 
#
# 1 82.2576 7.6244 15.0040 0.0000 -26.5175 0.0000
# 2 7.6244 38.1901 -4.3747 0.0000 -0.1267 0.0000
# 3 15.0040 -4.3747 91.4571 0.0000 -7.1465 0.0000
# 4 0.0000 0.0000 0.0000 29.2521 0.0000 -9.5849
# 5 -26.5175 -0.1267 -7.1465 0.0000 46.5449 0.0000
# 6 0.0000 0.0000 0.0000 -9.5849 0.0000 28.7916
#
#
#
# Elastic Compliance Matrix: (Units=1/GPa)
#
#
# Indices 1 2 3 4 5 6 
#
# 1 0.015599 -0.003321 -0.002049 0.000000 0.008563 0.000000
# 2 -0.003321 0.027039 0.001717 0.000000 -0.001555 0.000000
# 3 -0.002049 0.001717 0.011398 0.000000 0.000588 0.000000
# 4 0.000000 0.000000 0.000000 0.038371 0.000000 0.012774
# 5 0.008563 -0.001555 0.000588 0.000000 0.026449 0.000000
# 6 0.000000 0.000000 0.000000 0.012774 0.000000 0.038985
#
#
# Mechanical properties :
#
#
# Convention : Reuss Voigt Hill
#
# Bulk Modulus (GPa) = 21.39901 27.60136 24.50018
# Shear Modulus (GPa) = 27.66645 33.82778 30.74712
#
# Velocity S-wave (km/s) = 3.49988 3.87002 3.68959
# Velocity P-wave (km/s) = 5.08001 5.67360 5.38499
#
# Compressibility (1/GPa) = 0.04673114
#
# Stress axis : x y z
#
# Youngs Moduli (GPa) = 64.10657 36.98331 87.73296
#
# Poissons Ratio (x) = 0.12280 0.17975
# Poissons Ratio (y) = 0.21287 -0.15061
# Poissons Ratio (z) = 0.13134 -0.06349
#
# Static dielectric constant tensor:
#      x y z
#    x 1.828400 0.000000 0.025210 
#    y 0.000000 2.136110 0.000000 
#    z 0.025210 0.000000 1.908080 
# 
# From -- ./inp_files/251973.got.cif
#   From: 2010.05.17/outbox.cif.g08.bks.cpg/sg15_126_cif.got.tgz:251973.got - 2010.06.03 18:47:42.
