data_PCOD9299269
_publ_section_title
;
Structure prediction by ZEFSAII (Michael W. Deem and Ramdas Pophale) SiO2 
 PCOD9299269
Probable space group: C 2/C
;
_chemical_formula_sum "Si O2"
_cell_formula_units_Z 44
_cell_length_a 10.920632
_cell_length_b 20.924366
_cell_length_c 11.561646
_cell_angle_alpha 90.000000
_cell_angle_beta 41.665180
_cell_angle_gamma 90.000000
_cell_volume 1756.286631
_symmetry_space_group_name_H-M "C 2/C"
_symmetry_group_IT_number 15
_symmetry_cell_setting 'monoclinic'
loop_
_space_group_symop_operation_xyz
x,y,z
-x,y,1/2-z
-x,-y,-z
x,-y,1/2+z
1/2+x,1/2+y,z
1/2-x,1/2+y,1/2-z
1/2-x,1/2-y,-z
1/2+x,1/2-y,1/2+z
loop_
_atom_site_type_symbol
_atom_site_label
_atom_site_fract_x
_atom_site_fract_y
_atom_site_fract_z
Si Si1 0.948065 0.722947 0.530357
Si Si2 0.000000 0.681145 0.750000
Si Si3 0.690408 0.032797 0.074842
Si Si4 0.137451 0.905217 0.502737
Si Si5 0.709452 0.350279 0.825609
Si Si6 0.821036 0.889526 0.297094
O O1 0.973180 0.721207 0.651850
O O2 0.906721 0.795488 0.524882
O O3 0.771980 0.679355 0.629829
O O4 0.119725 0.688005 0.349333
O O5 0.815086 0.639142 0.903248
O O6 0.500000 0.002296 0.250000
O O7 0.727625 0.092012 0.136075
O O8 0.837627 0.976615 0.970870
O O9 0.676827 0.062023 0.957359
O O10 0.143500 0.909051 0.358380
O O11 0.933939 0.877286 0.668061
O O12 0.000000 0.894350 0.250000
#
# Coordination Sequence:
#
# PCOD9299269 Si02
#       6
#     8   4   8   8   8   8
#     4  11  26  46  72 105 144 185 239 289 351 420
#     4  10  24  48  72 102 144 190 230 298 346 416
#     4  12  25  47  73 106 144 187 234 292 353 421
#     4  11  25  47  71 105 143 185 240 287 352 420
#     4  12  26  45  72 107 140 186 236 290 353 422
#     4  11  24  44  72 104 144 188 233 289 350 416
#
# _framework density 25.052858000000001
#
# number of rings (size 3 to 8) (size 9 to 14) (size 15 to 20)
#    0.000    0.727    4.545    2.727    0.000    7.273 
#    0.000    0.000    0.000    0.000    0.000    0.000 
#    0.000    0.000    0.000    0.000    0.000    0.000 
#
# Total GULP energy -123285.958254 kJ/mol
# GULP energy per Si atom -5603.907193 kJ/mol
# Density = 2.499584 g / cm^3
# Si number density = 25.052858 Si / 1000 Ang^3
#
#
#
# Elastic Constant Matrix: (Units=GPa)
#
#
# Indices 1 2 3 4 5 6 
#
# 1 57.3840 -0.1842 1.6544 0.0000 -2.2854 0.0001
# 2 -0.1842 118.0534 11.6782 0.0000 -4.1655 0.0000
# 3 1.6544 11.6782 90.6318 0.0000 -25.6099 0.0001
# 4 0.0000 0.0000 0.0000 23.4156 0.0000 -1.1141
# 5 -2.2854 -4.1655 -25.6099 0.0000 34.7632 -0.0001
# 6 0.0001 0.0000 0.0001 -1.1141 -0.0001 0.7342
#
#
#
# Elastic Compliance Matrix: (Units=1/GPa)
#
#
# Indices 1 2 3 4 5 6 
#
# 1 0.017473 0.000068 -0.000001 0.000000 0.001156 -0.000002
# 2 0.000068 0.008582 -0.001030 0.000000 0.000274 0.000000
# 3 -0.000001 -0.001030 0.014058 0.000000 0.010233 -0.000001
# 4 0.000000 0.000000 0.000000 0.046030 0.000000 0.069845
# 5 0.001156 0.000274 0.010233 0.000000 0.036413 0.000002
# 6 -0.000002 0.000000 -0.000001 0.069845 0.000002 1.467918
#
#
# Mechanical properties :
#
#
# Convention : Reuss Voigt Hill
#
# Bulk Modulus (GPa) = 26.18621 32.48512 29.33567
# Shear Modulus (GPa) = 3.11502 28.64399 15.87950
#
# Velocity S-wave (km/s) = 1.11628 3.38500 2.52035
# Velocity P-wave (km/s) = 3.48375 5.31718 4.49494
#
# Compressibility (1/GPa) = 0.03818803
#
# Stress axis : x y z
#
# Youngs Moduli (GPa) = 57.23199 116.51779 71.13456
#
# Poissons Ratio (x) = -0.00794 0.00007
# Poissons Ratio (y) = -0.00390 0.07324
# Poissons Ratio (z) = 0.00006 0.11996
#
# Static dielectric constant tensor:
#      x y z
#    x 1.965150 0.000000 -0.051710 
#    y 0.000000 1.931700 0.000000 
#    z -0.051710 0.000000 2.071310 
# 
# From -- ./inp_files/91142.got.cif
#   From: 2010.05.17/outbox.cif.g08.bks.cpg/sg15_46_cif.got.tgz:91142.got - 2010.06.03 18:47:42.
