data_PCOD9299230
_publ_section_title
;
Structure prediction by ZEFSAII (Michael W. Deem and Ramdas Pophale) SiO2 
 PCOD9299230
Probable space group: C 2/C
;
_chemical_formula_sum "Si O2"
_cell_formula_units_Z 44
_cell_length_a 13.967009
_cell_length_b 14.113794
_cell_length_c 10.950744
_cell_angle_alpha 90.000000
_cell_angle_beta 116.912550
_cell_angle_gamma 90.000000
_cell_volume 1924.902802
_symmetry_space_group_name_H-M "C 2/C"
_symmetry_group_IT_number 15
_symmetry_cell_setting 'monoclinic'
loop_
_space_group_symop_operation_xyz
x,y,z
-x,y,1/2-z
-x,-y,-z
x,-y,1/2+z
1/2+x,1/2+y,z
1/2-x,1/2+y,1/2-z
1/2-x,1/2-y,-z
1/2+x,1/2-y,1/2+z
loop_
_atom_site_type_symbol
_atom_site_label
_atom_site_fract_x
_atom_site_fract_y
_atom_site_fract_z
Si Si1 0.813489 0.175834 0.954084
Si Si2 0.766714 0.689036 0.222929
Si Si3 0.735596 0.477410 0.900124
Si Si4 0.082703 0.608271 0.393993
Si Si5 0.027774 0.210280 0.993607
Si Si6 0.500000 0.429580 0.250000
O O1 0.795972 0.213147 0.807634
O O2 0.940274 0.186670 0.045452
O O3 0.750000 0.250000 0.000000
O O4 0.775738 0.073622 0.973656
O O5 0.767982 0.601026 0.318239
O O6 0.840784 0.670340 0.149735
O O7 0.645831 0.698898 0.110788
O O8 0.614953 0.515822 0.803386
O O9 0.835689 0.547881 0.976762
O O10 0.016442 0.682356 0.438173
O O11 0.000000 0.559014 0.250000
O O12 0.013033 0.136271 0.875815
#
# Coordination Sequence:
#
# PCOD9299230 Si02
#       6
#     8   8   8   8   8   4
#     4  10  24  48  66 100 140 186 235 285 363 422
#     4  11  24  46  71 100 145 186 237 289 360 425
#     4  11  27  43  71 109 141 180 240 302 347 414
#     4  12  25  46  70 105 141 191 239 281 356 432
#     4  12  24  43  75  98 140 190 230 294 354 426
#     4  12  24  42  74 106 138 174 244 294 356 408
#
# _framework density 22.858297
#
# number of rings (size 3 to 8) (size 9 to 14) (size 15 to 20)
#    0.000    0.727    4.545    1.636    5.091    4.364 
#    6.545    0.000    0.000    0.000    0.000    0.000 
#    0.000    0.000    0.000    0.000    0.000    0.000 
#
# Total GULP energy -123027.681516 kJ/mol
# GULP energy per Si atom -5592.167342 kJ/mol
# Density = 2.280627 g / cm^3
# Si number density = 22.858297 Si / 1000 Ang^3
#
#
#
# Elastic Constant Matrix: (Units=GPa)
#
#
# Indices 1 2 3 4 5 6 
#
# 1 78.2118 -6.9343 -19.5074 0.0000 7.5497 0.0000
# 2 -6.9343 64.2466 11.3714 0.0000 -3.6385 0.0000
# 3 -19.5074 11.3714 60.1319 0.0000 12.2261 0.0000
# 4 0.0000 0.0000 0.0000 23.6385 0.0000 6.3602
# 5 7.5497 -3.6385 12.2261 0.0000 29.4568 0.0000
# 6 0.0000 0.0000 0.0000 6.3602 0.0000 38.5674
#
#
#
# Elastic Compliance Matrix: (Units=1/GPa)
#
#
# Indices 1 2 3 4 5 6 
#
# 1 0.014935 0.000173 0.006101 0.000000 -0.006339 0.000000
# 2 0.000173 0.016454 -0.003778 0.000000 0.003556 0.000000
# 3 0.006101 -0.003778 0.021556 0.000000 -0.010977 0.000000
# 4 0.000000 0.000000 0.000000 0.044268 0.000000 -0.007300
# 5 -0.006339 0.003556 -0.010977 0.000000 0.040568 0.000000
# 6 0.000000 0.000000 0.000000 -0.007300 0.000000 0.027133
#
#
# Mechanical properties :
#
#
# Convention : Reuss Voigt Hill
#
# Bulk Modulus (GPa) = 17.26051 19.16108 18.21080
# Shear Modulus (GPa) = 27.89655 32.84324 30.36990
#
# Velocity S-wave (km/s) = 3.49723 3.79465 3.64897
# Velocity P-wave (km/s) = 4.88620 5.25356 5.07321
#
# Compressibility (1/GPa) = 0.05793570
#
# Stress axis : x y z
#
# Youngs Moduli (GPa) = 66.95816 60.77593 46.39124
#
# Poissons Ratio (x) = -0.01052 -0.28303
# Poissons Ratio (y) = -0.01159 0.17529
# Poissons Ratio (z) = -0.40851 0.22964
#
# Static dielectric constant tensor:
#      x y z
#    x 1.729610 0.000000 -0.005000 
#    y 0.000000 1.865630 0.000000 
#    z -0.005000 0.000000 1.869350 
# 
# From -- ./inp_files/96092.got.cif
#   From: 2010.05.17/outbox.cif.g08.bks.cpg/sg15_49_cif.got.tgz:96092.got - 2010.06.03 18:47:42.
