data_PCOD9299560
_publ_section_title
;
Structure prediction by ZEFSAII (Michael W. Deem and Ramdas Pophale) SiO2 
 PCOD9299560
Probable space group: C 2/C
;
_chemical_formula_sum "Si O2"
_cell_formula_units_Z 48
_cell_length_a 18.196777
_cell_length_b 14.593069
_cell_length_c 9.788162
_cell_angle_alpha 90.000000
_cell_angle_beta 45.053005
_cell_angle_gamma 90.000000
_cell_volume 1839.622273
_symmetry_space_group_name_H-M "C 2/C"
_symmetry_group_IT_number 15
_symmetry_cell_setting 'monoclinic'
loop_
_space_group_symop_operation_xyz
x,y,z
-x,y,1/2-z
-x,-y,-z
x,-y,1/2+z
1/2+x,1/2+y,z
1/2-x,1/2+y,1/2-z
1/2-x,1/2-y,-z
1/2+x,1/2-y,1/2+z
loop_
_atom_site_type_symbol
_atom_site_label
_atom_site_fract_x
_atom_site_fract_y
_atom_site_fract_z
Si Si1 0.545977 0.938838 0.814842
Si Si2 0.697618 0.904892 0.075220
Si Si3 0.815084 0.303914 0.687335
Si Si4 0.096706 0.000831 0.211927
Si Si5 0.537442 0.653877 0.965610
Si Si6 0.381285 0.796346 0.059245
O O1 0.625995 0.868722 0.783406
O O2 0.608475 0.021924 0.661484
O O3 0.437947 0.882495 0.915126
O O4 0.500000 0.000000 0.000000
O O5 0.658732 0.833926 0.241072
O O6 0.721476 0.857105 0.899553
O O7 0.798728 0.961961 0.992279
O O8 0.896358 0.225354 0.533466
O O9 0.716655 0.251889 0.880073
O O10 0.000000 0.965612 0.250000
O O11 0.043619 0.088351 0.353095
O O12 0.115537 0.916855 0.289424
O O13 0.469181 0.719515 0.960069
#
# Coordination Sequence:
#
# PCOD9299560 Si02
#       6
#     8   8   8   8   8   8
#     4  11  30  47  74 109 152 196 246 304 379 437
#     4  12  27  46  81 112 144 198 247 306 372 439
#     4  11  26  48  79 103 152 190 254 304 365 442
#     4  11  25  45  74 105 153 186 245 297 371 433
#     4  10  25  43  68 112 141 193 235 302 361 435
#     4  11  25  49  73 111 146 191 251 301 372 433
#
# _framework density 26.092313000000001
#
# number of rings (size 3 to 8) (size 9 to 14) (size 15 to 20)
#    0.000    1.000    1.667    2.000   14.000    3.333 
#    0.000    0.000    0.000    0.000    0.000    0.000 
#    0.000    0.000    0.000    0.000    0.000    0.000 
#
# Total GULP energy -134231.836875 kJ/mol
# GULP energy per Si atom -5592.993203 kJ/mol
# Density = 2.603293 g / cm^3
# Si number density = 26.092313 Si / 1000 Ang^3
#
#
#
# Elastic Constant Matrix: (Units=GPa)
#
#
# Indices 1 2 3 4 5 6 
#
# 1 100.4122 32.2735 18.4882 0.0000 -17.5175 0.0000
# 2 32.2735 127.4840 40.5721 0.0000 -22.8326 0.0000
# 3 18.4882 40.5721 70.4437 0.0000 -25.0801 0.0000
# 4 0.0000 0.0000 0.0000 36.6683 0.0000 -12.8890
# 5 -17.5175 -22.8326 -25.0801 0.0000 34.7160 0.0000
# 6 0.0000 0.0000 0.0000 -12.8890 0.0000 53.0851
#
#
#
# Elastic Compliance Matrix: (Units=1/GPa)
#
#
# Indices 1 2 3 4 5 6 
#
# 1 0.011402 -0.002032 -0.000336 0.000000 0.004174 0.000000
# 2 -0.002032 0.010225 -0.004479 0.000000 0.002464 0.000000
# 3 -0.000336 -0.004479 0.021210 0.000000 0.012208 0.000000
# 4 0.000000 0.000000 0.000000 0.029816 0.000000 0.007239
# 5 0.004174 0.002464 0.012208 0.000000 0.041351 0.000000
# 6 0.000000 0.000000 0.000000 0.007239 0.000000 0.020595
#
#
# Mechanical properties :
#
#
# Convention : Reuss Voigt Hill
#
# Bulk Modulus (GPa) = 34.31259 53.44528 43.87894
# Shear Modulus (GPa) = 31.64403 38.69427 35.16915
#
# Velocity S-wave (km/s) = 3.48627 3.85512 3.67532
# Velocity P-wave (km/s) = 5.42074 6.35166 5.90457
#
# Compressibility (1/GPa) = 0.02914382
#
# Stress axis : x y z
#
# Youngs Moduli (GPa) = 87.70272 97.79756 47.14844
#
# Poissons Ratio (x) = 0.19872 0.01584
# Poissons Ratio (y) = 0.17821 0.21116
# Poissons Ratio (z) = 0.02947 0.43799
#
# Static dielectric constant tensor:
#      x y z
#    x 2.693790 0.000000 0.360880 
#    y 0.000000 1.878370 0.000000 
#    z 0.360880 0.000000 2.255880 
# 
# From -- ./inp_files/112943.got.cif
#   From: 2010.05.17/outbox.cif.g08.bks.cpg/sg15_57_cif.got.tgz:112943.got - 2010.06.03 18:47:42.
