data_PCOD9299860
_publ_section_title
;
Structure prediction by ZEFSAII (Michael W. Deem and Ramdas Pophale) SiO2 
 PCOD9299860
Probable space group: C 2/C
;
_chemical_formula_sum "Si O2"
_cell_formula_units_Z 40
_cell_length_a 14.957857
_cell_length_b 12.571971
_cell_length_c 15.653321
_cell_angle_alpha 90.000000
_cell_angle_beta 145.340934
_cell_angle_gamma 90.000000
_cell_volume 1674.003518
_symmetry_space_group_name_H-M "C 2/C"
_symmetry_group_IT_number 15
_symmetry_cell_setting 'monoclinic'
loop_
_space_group_symop_operation_xyz
x,y,z
-x,y,1/2-z
-x,-y,-z
x,-y,1/2+z
1/2+x,1/2+y,z
1/2-x,1/2+y,1/2-z
1/2-x,1/2-y,-z
1/2+x,1/2-y,1/2+z
loop_
_atom_site_type_symbol
_atom_site_label
_atom_site_fract_x
_atom_site_fract_y
_atom_site_fract_z
Si Si1 0.445538 0.457105 0.048131
Si Si2 0.033327 0.661773 0.877000
Si Si3 0.129349 0.451678 0.721492
Si Si4 0.833410 0.127130 0.221416
Si Si5 0.426755 0.752861 0.608416
O O1 0.551139 0.525236 0.195927
O O2 0.469296 0.330699 0.069246
O O3 0.500000 0.500000 0.000000
O O4 0.256996 0.469227 0.897853
O O5 0.945641 0.565354 0.856668
O O6 0.947998 0.773338 0.829648
O O7 0.000000 0.644284 0.750000
O O8 0.214998 0.655344 0.050467
O O9 0.221043 0.400500 0.713560
O O10 0.997358 0.367607 0.645305
O O11 0.500000 0.703262 0.750000
O O12 0.250000 0.750000 0.500000
#
# Coordination Sequence:
#
# PCOD9299860 Si02
#       5
#     8   8   8   8   8
#     4  10  25  47  72 106 150 192 249 301 373 446
#     4  12  27  47  73 108 152 191 252 310 374 439
#     4  11  26  46  75 106 151 195 254 306 369 452
#     4  11  27  46  78 106 147 204 249 305 376 454
#     4  12  26  44  74 110 151 192 247 315 378 433
#
# _framework density 23.894812000000002
#
# number of rings (size 3 to 8) (size 9 to 14) (size 15 to 20)
#    0.000    0.800    2.000    3.000   14.000    0.800 
#    0.000    0.000    0.000    0.000    0.000    0.000 
#    0.000    0.000    0.000    0.000    0.000    0.000 
#
# Total GULP energy -111778.609077 kJ/mol
# GULP energy per Si atom -5588.930454 kJ/mol
# Density = 2.384043 g / cm^3
# Si number density = 23.894812 Si / 1000 Ang^3
#
#
#
# Elastic Constant Matrix: (Units=GPa)
#
#
# Indices 1 2 3 4 5 6 
#
# 1 99.2564 32.2888 27.2699 -0.0001 4.0728 -0.0001
# 2 32.2888 144.9314 53.2622 -0.0001 31.5702 0.0000
# 3 27.2699 53.2622 194.8160 -0.0002 24.1309 -0.0002
# 4 -0.0001 -0.0001 -0.0002 38.2171 -0.0001 11.2212
# 5 4.0728 31.5702 24.1309 -0.0001 40.9652 -0.0001
# 6 -0.0001 0.0000 -0.0002 11.2212 -0.0001 37.9424
#
#
#
# Elastic Compliance Matrix: (Units=1/GPa)
#
#
# Indices 1 2 3 4 5 6 
#
# 1 0.011085 -0.002371 -0.001071 0.000000 0.001357 0.000000
# 2 -0.002371 0.009283 -0.001455 0.000000 -0.006061 0.000000
# 3 -0.001071 -0.001455 0.005964 0.000000 -0.002285 0.000000
# 4 0.000000 0.000000 0.000000 0.028655 0.000000 -0.008474
# 5 0.001357 -0.006061 -0.002285 0.000000 0.030293 0.000000
# 6 0.000000 0.000000 0.000000 -0.008474 0.000000 0.028862
#
#
# Mechanical properties :
#
#
# Convention : Reuss Voigt Hill
#
# Bulk Modulus (GPa) = 60.47359 73.84952 67.16155
# Shear Modulus (GPa) = 38.62495 45.17048 41.89771
#
# Velocity S-wave (km/s) = 4.02488 4.35258 4.19193
# Velocity P-wave (km/s) = 6.85294 7.49887 7.18317
#
# Compressibility (1/GPa) = 0.01653614
#
# Stress axis : x y z
#
# Youngs Moduli (GPa) = 90.21185 107.72089 167.67469
#
# Poissons Ratio (x) = 0.25545 0.17964
# Poissons Ratio (y) = 0.21392 0.24402
# Poissons Ratio (z) = 0.09665 0.15677
#
# Static dielectric constant tensor:
#      x y z
#    x 1.656300 0.000000 0.031120 
#    y 0.000000 1.912460 0.000000 
#    z 0.031120 0.000000 1.957320 
# 
# From -- ./inp_files/46076.got.cif
#   From: 2010.05.17/outbox.cif.g08.bks.cpg/sg15_24_cif.got.tgz:46076.got - 2010.06.03 18:47:42.
