data_PCOD9299254
_publ_section_title
;
Structure prediction by ZEFSAII (Michael W. Deem and Ramdas Pophale) SiO2 
 PCOD9299254
Probable space group: C 2/C
;
_chemical_formula_sum "Si O2"
_cell_formula_units_Z 56
_cell_length_a 21.536813
_cell_length_b 5.347905
_cell_length_c 21.237755
_cell_angle_alpha 90.000000
_cell_angle_beta 86.318919
_cell_angle_gamma 90.000000
_cell_volume 2441.050685
_symmetry_space_group_name_H-M "C 2/C"
_symmetry_group_IT_number 15
_symmetry_cell_setting 'monoclinic'
loop_
_space_group_symop_operation_xyz
x,y,z
-x,y,1/2-z
-x,-y,-z
x,-y,1/2+z
1/2+x,1/2+y,z
1/2-x,1/2+y,1/2-z
1/2-x,1/2-y,-z
1/2+x,1/2-y,1/2+z
loop_
_atom_site_type_symbol
_atom_site_label
_atom_site_fract_x
_atom_site_fract_y
_atom_site_fract_z
Si Si1 0.875944 0.188410 0.354675
Si Si2 0.066044 0.725780 0.873621
Si Si3 0.311689 0.314189 0.269992
Si Si4 0.375119 0.263537 0.081770
Si Si5 0.248617 0.438607 0.142560
Si Si6 0.955094 0.837706 0.959003
Si Si7 0.065024 0.513367 0.245002
O O1 0.813339 0.319851 0.382632
O O2 0.915013 0.040765 0.404482
O O3 0.921556 0.395754 0.323465
O O4 0.849832 0.044279 0.295811
O O5 0.115790 0.511519 0.889241
O O6 0.054758 0.688674 0.800641
O O7 0.005796 0.665311 0.920693
O O8 0.086014 0.011584 0.886415
O O9 0.269369 0.339039 0.211080
O O10 0.271807 0.214395 0.332414
O O11 0.368941 0.139680 0.246148
O O12 0.305831 0.372405 0.094151
O O13 0.402914 0.237165 0.009876
O O14 0.000000 0.000000 0.000000
O O15 0.000000 0.665321 0.250000
#
# Coordination Sequence:
#
# PCOD9299254 Si02
#       7
#     8   8   8   8   8   8   8
#     4  11  24  43  66  99 141 178 235 287 350 422
#     4  11  23  44  70 102 136 180 233 291 358 413
#     4  11  23  40  67  97 141 179 222 297 363 421
#     4  11  25  43  73  98 134 190 236 282 341 421
#     4  11  23  40  66  97 136 180 228 283 357 422
#     4  10  24  48  69  98 137 188 239 290 344 409
#     4  11  23  39  65 106 135 172 230 297 365 422
#
# _framework density 22.940942
#
# number of rings (size 3 to 8) (size 9 to 14) (size 15 to 20)
#    0.000    1.143    4.286    1.286    4.000    3.429 
#   10.286    0.714    0.000    0.000    0.000    0.000 
#    0.000    0.000    0.000    0.000    0.000    0.000 
#
# Total GULP energy -155933.166559 kJ/mol
# GULP energy per Si atom -5569.041663 kJ/mol
# Density = 2.288873 g / cm^3
# Si number density = 22.940942 Si / 1000 Ang^3
#
#
#
# Elastic Constant Matrix: (Units=GPa)
#
#
# Indices 1 2 3 4 5 6 
#
# 1 133.5760 2.4638 34.4832 0.0000 -10.7488 0.0000
# 2 2.4638 29.6223 -12.6247 0.0000 12.7530 0.0000
# 3 34.4832 -12.6247 55.0524 0.0000 3.7046 0.0000
# 4 0.0000 0.0000 0.0000 13.6988 0.0000 -8.3078
# 5 -10.7488 12.7530 3.7046 0.0000 53.6492 0.0000
# 6 0.0000 0.0000 0.0000 -8.3078 0.0000 13.9924
#
#
#
# Elastic Compliance Matrix: (Units=1/GPa)
#
#
# Indices 1 2 3 4 5 6 
#
# 1 0.009930 -0.005848 -0.007825 0.000000 0.003920 0.000000
# 2 -0.005848 0.046433 0.015203 0.000000 -0.013259 0.000000
# 3 -0.007825 0.015203 0.027026 0.000000 -0.007048 0.000000
# 4 0.000000 0.000000 0.000000 0.114075 0.000000 0.067730
# 5 0.003920 -0.013259 -0.007048 0.000000 0.023063 0.000000
# 6 0.000000 0.000000 0.000000 0.067730 0.000000 0.111681
#
#
# Mechanical properties :
#
#
# Convention : Reuss Voigt Hill
#
# Bulk Modulus (GPa) = 11.56738 29.65502 20.61120
# Shear Modulus (GPa) = 13.96793 29.19666 21.58229
#
# Velocity S-wave (km/s) = 2.47020 3.57135 3.07054
# Velocity P-wave (km/s) = 3.63167 5.47364 4.64488
#
# Compressibility (1/GPa) = 0.08644998
#
# Stress axis : x y z
#
# Youngs Moduli (GPa) = 100.70883 21.53656 37.00095
#
# Poissons Ratio (x) = 0.12595 0.28951
# Poissons Ratio (y) = 0.58897 -0.56254
# Poissons Ratio (z) = 0.78800 -0.32743
#
# Static dielectric constant tensor:
#      x y z
#    x 1.921110 0.000000 0.035430 
#    y 0.000000 1.943630 0.000000 
#    z 0.035430 0.000000 1.941320 
# 
# From -- ./inp_files/278667.got.cif
#   From: 2010.05.17/outbox.cif.g08.bks.cpg/sg15_140_cif.got.tgz:278667.got - 2010.06.03 18:47:42.
