data_PCOD9299390
_publ_section_title
;
Structure prediction by ZEFSAII (Michael W. Deem and Ramdas Pophale) SiO2 
 PCOD9299390
Probable space group: C 2/C
;
_chemical_formula_sum "Si O2"
_cell_formula_units_Z 52
_cell_length_a 22.452905
_cell_length_b 9.633853
_cell_length_c 12.695830
_cell_angle_alpha 90.000000
_cell_angle_beta 114.525619
_cell_angle_gamma 90.000000
_cell_volume 2498.434751
_symmetry_space_group_name_H-M "C 2/C"
_symmetry_group_IT_number 15
_symmetry_cell_setting 'monoclinic'
loop_
_space_group_symop_operation_xyz
x,y,z
-x,y,1/2-z
-x,-y,-z
x,-y,1/2+z
1/2+x,1/2+y,z
1/2-x,1/2+y,1/2-z
1/2-x,1/2-y,-z
1/2+x,1/2-y,1/2+z
loop_
_atom_site_type_symbol
_atom_site_label
_atom_site_fract_x
_atom_site_fract_y
_atom_site_fract_z
Si Si1 0.680276 0.779857 0.498397
Si Si2 0.819006 0.959597 0.776915
Si Si3 0.317112 0.697613 0.602635
Si Si4 0.823903 0.576021 0.278034
Si Si5 0.898304 0.001301 0.527488
Si Si6 0.617796 0.815052 0.252718
Si Si7 0.500000 0.366711 0.750000
O O1 0.750000 0.750000 0.500000
O O2 0.678785 0.847168 0.611685
O O3 0.644600 0.632491 0.473870
O O4 0.641559 0.870083 0.384135
O O5 0.752149 0.970349 0.795393
O O6 0.831489 0.803019 0.748703
O O7 0.808159 0.064485 0.672796
O O8 0.884235 0.993488 0.892417
O O9 0.250000 0.750000 0.500000
O O10 0.341643 0.817405 0.698801
O O11 0.367480 0.641878 0.552237
O O12 0.872936 0.446098 0.315718
O O13 0.965024 0.963544 0.636590
O O14 0.550570 0.734112 0.225374
#
# Coordination Sequence:
#
# PCOD9299390 Si02
#       7
#     8   8   8   8   8   8   4
#     4  11  20  38  63  94 139 172 215 283 356 410
#     4  12  22  40  68 101 134 175 224 282 356 412
#     4  12  24  39  64 105 140 170 223 290 349 413
#     4  12  24  37  67 108 138 167 221 295 368 399
#     4  11  23  42  67  96 129 185 231 278 330 413
#     4  11  25  42  67  96 138 186 229 278 341 411
#     4  10  24  50  66  90 140 194 238 264 328 420
#
# _framework density 20.813030000000001
#
# number of rings (size 3 to 8) (size 9 to 14) (size 15 to 20)
#    0.000    0.615    7.692    1.846    2.154    0.615 
#    0.000    3.846    0.000    0.000    0.000    0.000 
#    0.000    0.000    0.000    0.000    0.000    0.000 
#
# Total GULP energy -145076.204581 kJ/mol
# GULP energy per Si atom -5579.854022 kJ/mol
# Density = 2.076566 g / cm^3
# Si number density = 20.813030 Si / 1000 Ang^3
#
#
#
# Elastic Constant Matrix: (Units=GPa)
#
#
# Indices 1 2 3 4 5 6 
#
# 1 72.1836 29.8244 24.3685 0.0000 7.3773 0.0000
# 2 29.8244 104.5404 33.1503 0.0000 -5.3940 0.0000
# 3 24.3685 33.1503 140.0938 0.0000 7.3202 0.0000
# 4 0.0000 0.0000 0.0000 28.5410 0.0000 -8.9150
# 5 7.3773 -5.3940 7.3202 0.0000 25.9322 0.0000
# 6 0.0000 0.0000 0.0000 -8.9150 0.0000 40.5822
#
#
#
# Elastic Compliance Matrix: (Units=1/GPa)
#
#
# Indices 1 2 3 4 5 6 
#
# 1 0.016812 -0.004573 -0.001566 0.000000 -0.005292 0.000000
# 2 -0.004573 0.011803 -0.002226 0.000000 0.004384 0.000000
# 3 -0.001566 -0.002226 0.008057 0.000000 -0.002292 0.000000
# 4 0.000000 0.000000 0.000000 0.037619 0.000000 0.008264
# 5 -0.005292 0.004384 -0.002292 0.000000 0.041627 0.000000
# 6 0.000000 0.000000 0.000000 0.008264 0.000000 0.026457
#
#
# Mechanical properties :
#
#
# Convention : Reuss Voigt Hill
#
# Bulk Modulus (GPa) = 50.14653 54.61156 52.37905
# Shear Modulus (GPa) = 30.16558 34.30937 32.23748
#
# Velocity S-wave (km/s) = 3.81118 4.06452 3.93989
# Velocity P-wave (km/s) = 6.59643 6.95149 6.77629
#
# Compressibility (1/GPa) = 0.01994156
#
# Stress axis : x y z
#
# Youngs Moduli (GPa) = 59.47966 84.72738 124.11485
#
# Poissons Ratio (x) = 0.38746 0.19434
# Poissons Ratio (y) = 0.27200 0.27634
# Poissons Ratio (z) = 0.09313 0.18864
#
# Static dielectric constant tensor:
#      x y z
#    x 1.775650 0.000000 -0.030070 
#    y 0.000000 1.759440 0.000000 
#    z -0.030070 0.000000 1.870650 
# 
# From -- ./inp_files/172034.got.cif
#   From: 2010.05.17/outbox.cif.g08.bks.cpg/sg15_87_cif.got.tgz:172034.got - 2010.06.03 18:47:42.
