data_PCOD9299136
_publ_section_title
;
Structure prediction by ZEFSAII (Michael W. Deem and Ramdas Pophale) SiO2 
 PCOD9299136
Probable space group: C 2/C
;
_chemical_formula_sum "Si O2"
_cell_formula_units_Z 40
_cell_length_a 11.607493
_cell_length_b 24.968013
_cell_length_c 13.077926
_cell_angle_alpha 90.000000
_cell_angle_beta 156.152873
_cell_angle_gamma 90.000000
_cell_volume 1532.366308
_symmetry_space_group_name_H-M "C 2/C"
_symmetry_group_IT_number 15
_symmetry_cell_setting 'monoclinic'
loop_
_space_group_symop_operation_xyz
x,y,z
-x,y,1/2-z
-x,-y,-z
x,-y,1/2+z
1/2+x,1/2+y,z
1/2-x,1/2+y,1/2-z
1/2-x,1/2-y,-z
1/2+x,1/2-y,1/2+z
loop_
_atom_site_type_symbol
_atom_site_label
_atom_site_fract_x
_atom_site_fract_y
_atom_site_fract_z
Si Si1 0.000000 0.037890 0.750000
Si Si2 0.699932 0.389261 0.588939
Si Si3 0.975670 0.715018 0.370148
Si Si4 0.299768 0.564356 0.183045
Si Si5 0.879199 0.346652 0.338487
Si Si6 0.500000 0.215993 0.750000
O O1 0.186392 0.071393 0.981369
O O2 0.192772 0.998557 0.836322
O O3 0.955548 0.346307 0.812122
O O4 0.644773 0.420614 0.652565
O O5 0.419587 0.352195 0.347374
O O6 0.908854 0.695324 0.432365
O O7 0.256568 0.750414 0.623835
O O8 0.500000 0.585056 0.250000
O O9 0.006425 0.594888 0.929522
O O10 0.834777 0.321923 0.193855
O O11 0.250000 0.250000 0.500000
#
# Coordination Sequence:
#
# PCOD9299136 Si02
#       6
#     4   8   8   8   8   4
#     4  10  24  47  70 102 146 193 256 306 374 432
#     4  11  23  43  72 105 146 192 250 303 369 444
#     4  11  22  42  71 103 141 189 234 299 363 434
#     4   9  22  42  67 101 144 184 239 305 375 432
#     4  11  23  40  68 104 144 191 241 297 370 452
#     4  12  28  37  66 110 148 191 240 300 374 442
#
# _framework density 26.103418000000001
#
# number of rings (size 3 to 8) (size 9 to 14) (size 15 to 20)
#    0.600    0.800    2.000    3.000    7.000    0.800 
#    0.000    9.000    0.000    0.000    0.000    0.000 
#    0.000    0.000    0.000    0.000    0.000    0.000 
#
# Total GULP energy -111493.267184 kJ/mol
# GULP energy per Si atom -5574.663359 kJ/mol
# Density = 2.604401 g / cm^3
# Si number density = 26.103418 Si / 1000 Ang^3
#
#
#
# Elastic Constant Matrix: (Units=GPa)
#
#
# Indices 1 2 3 4 5 6 
#
# 1 97.1852 71.6161 43.1490 0.0017 -37.1155 0.0011
# 2 71.6161 186.5761 91.7377 -0.0002 -24.6070 -0.0007
# 3 43.1490 91.7377 158.7495 0.0024 -23.4642 0.0036
# 4 0.0017 -0.0002 0.0024 49.9799 0.0024 -14.4187
# 5 -37.1155 -24.6070 -23.4642 0.0024 51.3395 0.0030
# 6 0.0011 -0.0007 0.0036 -14.4187 0.0030 -13.5610
#
#
#
# Elastic Compliance Matrix: (Units=1/GPa)
#
#
# Indices 1 2 3 4 5 6 
#
# 1 0.018602 -0.005621 -0.000234 0.000000 0.010647 0.000004
# 2 -0.005621 0.009331 -0.004080 0.000000 -0.001456 -0.000002
# 3 -0.000234 -0.004080 0.009015 0.000000 0.001996 0.000003
# 4 0.000000 0.000000 0.000000 0.015311 0.000000 -0.016280
# 5 0.010647 -0.001456 0.001996 0.000000 0.027390 0.000007
# 6 0.000004 -0.000002 0.000003 -0.016280 0.000007 -0.056431
#
#
# Mechanical properties :
#
#
# Convention : Reuss Voigt Hill
#
# Bulk Modulus (GPa) = 58.55171 95.05737 76.80454
# Shear Modulus (GPa) = 102.49962 33.28553 67.89257
#
# Velocity S-wave (km/s) = 6.27312 3.57479 5.10544
# Velocity P-wave (km/s) = 8.65729 7.31666 8.01505
#
# Compressibility (1/GPa) = 0.01707892
#
# Stress axis : x y z
#
# Youngs Moduli (GPa) = 53.75845 107.16729 110.92091
#
# Poissons Ratio (x) = 0.60236 0.02598
# Poissons Ratio (y) = 0.30216 0.45252
# Poissons Ratio (z) = 0.01259 0.43721
#
# Static dielectric constant tensor:
#      x y z
#    x 2.253630 0.000000 -0.057310 
#    y 0.000000 2.034720 0.000000 
#    z -0.057310 0.000000 2.204210 
# 
# From -- ./inp_files/157286.got.cif
#   From: 2010.05.17/outbox.cif.g08.bks.cpg/sg15_79_cif.got.tgz:157286.got - 2010.06.03 18:47:42.
