data_PCOD9299912
_publ_section_title
;
Structure prediction by ZEFSAII (Michael W. Deem and Ramdas Pophale) SiO2 
 PCOD9299912
Probable space group: C 2/C
;
_chemical_formula_sum "Si O2"
_cell_formula_units_Z 24
_cell_length_a 9.703986
_cell_length_b 18.990195
_cell_length_c 5.834949
_cell_angle_alpha 90.000000
_cell_angle_beta 61.350726
_cell_angle_gamma 90.000000
_cell_volume 943.623836
_symmetry_space_group_name_H-M "C 2/C"
_symmetry_group_IT_number 15
_symmetry_cell_setting 'monoclinic'
loop_
_space_group_symop_operation_xyz
x,y,z
-x,y,1/2-z
-x,-y,-z
x,-y,1/2+z
1/2+x,1/2+y,z
1/2-x,1/2+y,1/2-z
1/2-x,1/2-y,-z
1/2+x,1/2-y,1/2+z
loop_
_atom_site_type_symbol
_atom_site_label
_atom_site_fract_x
_atom_site_fract_y
_atom_site_fract_z
Si Si1 0.641218 0.214094 0.773645
Si Si2 0.847947 0.855762 0.481607
Si Si3 0.683645 0.974956 0.851278
O O1 0.500000 0.179308 0.750000
O O2 0.750000 0.250000 0.500000
O O3 0.728328 0.161909 0.872974
O O4 0.589204 0.281999 0.964447
O O5 0.745654 0.896249 0.751469
O O6 0.000000 0.892578 0.250000
O O7 0.742879 0.007822 0.560386
O O8 0.500000 0.000000 0.000000
#
# Coordination Sequence:
#
# PCOD9299912 Si02
#       3
#     8   8   8
#     4  11  24  44  73 111 151 201 251 320 398 464
#     4  11  25  45  72 112 155 199 264 321 391 470
#     4  10  25  48  72 110 147 206 264 319 387 459
#
# _framework density 25.433866999999999
#
# number of rings (size 3 to 8) (size 9 to 14) (size 15 to 20)
#    0.000    1.333    3.333    0.000    4.667    6.667 
#    0.000    0.000    0.000    0.000    0.000    0.000 
#    0.000    0.000    0.000    0.000    0.000    0.000 
#
# Total GULP energy -67048.475301 kJ/mol
# GULP energy per Si atom -5587.372942 kJ/mol
# Density = 2.537598 g / cm^3
# Si number density = 25.433867 Si / 1000 Ang^3
#
#
#
# Elastic Constant Matrix: (Units=GPa)
#
#
# Indices 1 2 3 4 5 6 
#
# 1 112.7082 34.0978 44.7514 0.0000 11.9729 0.0000
# 2 34.0978 76.4952 51.5942 0.0000 -3.1926 0.0000
# 3 44.7514 51.5942 202.7127 0.0000 16.5370 0.0000
# 4 0.0000 0.0000 0.0000 71.2100 0.0000 9.9079
# 5 11.9729 -3.1926 16.5370 0.0000 57.4386 0.0000
# 6 0.0000 0.0000 0.0000 9.9079 0.0000 27.4371
#
#
#
# Elastic Compliance Matrix: (Units=1/GPa)
#
#
# Indices 1 2 3 4 5 6 
#
# 1 0.010810 -0.004125 -0.001161 0.000000 -0.002148 0.000000
# 2 -0.004125 0.017603 -0.003809 0.000000 0.002935 0.000000
# 3 -0.001161 -0.003809 0.006305 0.000000 -0.001785 0.000000
# 4 0.000000 0.000000 0.000000 0.014786 0.000000 -0.005339
# 5 -0.002148 0.002935 -0.001785 0.000000 0.018535 0.000000
# 6 0.000000 0.000000 0.000000 -0.005339 0.000000 0.038375
#
#
# Mechanical properties :
#
#
# Convention : Reuss Voigt Hill
#
# Bulk Modulus (GPa) = 60.50784 72.53367 66.52076
# Shear Modulus (GPa) = 38.42838 48.64867 43.53852
#
# Velocity S-wave (km/s) = 3.89126 4.37825 4.14192
# Velocity P-wave (km/s) = 6.63560 7.35793 7.00608
#
# Compressibility (1/GPa) = 0.01652678
#
# Stress axis : x y z
#
# Youngs Moduli (GPa) = 92.51002 56.80852 158.61571
#
# Poissons Ratio (x) = 0.23432 0.18420
# Poissons Ratio (y) = 0.38159 0.60418
# Poissons Ratio (z) = 0.10743 0.21639
#
# Static dielectric constant tensor:
#      x y z
#    x 1.987500 0.000000 -0.028240 
#    y 0.000000 2.106870 0.000000 
#    z -0.028240 0.000000 1.984880 
# 
# From -- ./inp_files/3814.got.cif
#   From: 2010.05.17/outbox.cif.g08.bks.cpg/sg15_2_cif.got.tgz:3814.got - 2010.06.03 18:47:42.
