data_PCOD9299421
_publ_section_title
;
Structure prediction by ZEFSAII (Michael W. Deem and Ramdas Pophale) SiO2 
 PCOD9299421
Probable space group: C 2/C
;
_chemical_formula_sum "Si O2"
_cell_formula_units_Z 44
_cell_length_a 7.071585
_cell_length_b 23.236870
_cell_length_c 10.209378
_cell_angle_alpha 90.000000
_cell_angle_beta 68.816326
_cell_angle_gamma 90.000000
_cell_volume 1564.258157
_symmetry_space_group_name_H-M "C 2/C"
_symmetry_group_IT_number 15
_symmetry_cell_setting 'monoclinic'
loop_
_space_group_symop_operation_xyz
x,y,z
-x,y,1/2-z
-x,-y,-z
x,-y,1/2+z
1/2+x,1/2+y,z
1/2-x,1/2+y,1/2-z
1/2-x,1/2-y,-z
1/2+x,1/2-y,1/2+z
loop_
_atom_site_type_symbol
_atom_site_label
_atom_site_fract_x
_atom_site_fract_y
_atom_site_fract_z
Si Si1 0.108150 0.385050 0.851539
Si Si2 0.224915 0.758257 0.236379
Si Si3 0.500000 0.010447 0.250000
Si Si4 0.652507 0.118056 0.837396
Si Si5 0.596707 0.319604 0.535391
Si Si6 0.864637 0.948231 0.085864
O O1 0.164535 0.448316 0.782723
O O2 0.257763 0.339182 0.879870
O O3 0.000000 0.362912 0.750000
O O4 0.945568 0.397465 0.002399
O O5 0.261053 0.819297 0.156262
O O6 0.402917 0.716534 0.134848
O O7 0.000000 0.743358 0.250000
O O8 0.206633 0.781870 0.393554
O O9 0.635471 0.973371 0.116606
O O10 0.500000 0.127408 0.750000
O O11 0.810805 0.071295 0.747545
O O12 0.563959 0.385877 0.490281
O O13 0.000000 0.000000 0.000000
#
# Coordination Sequence:
#
# PCOD9299421 Si02
#       6
#     8   8   4   8   8   8
#     4  10  24  50  93 132 183 239 311 376 460 562
#     4  11  26  52  95 131 179 245 313 385 478 550
#     4  10  24  50  84 124 186 238 310 372 470 560
#     4  11  22  52  90 122 181 239 306 388 468 539
#     4  11  25  56  91 132 186 244 310 393 465 561
#     4  11  24  49  89 132 175 245 309 385 471 561
#
# _framework density 28.128349
#
# number of rings (size 3 to 8) (size 9 to 14) (size 15 to 20)
#    0.545    0.727    4.545    0.545    0.000    6.545 
#    4.909   10.000    0.000    0.000    0.000    0.000 
#    0.000    0.000    0.000    0.000    0.000    0.000 
#
# Total GULP energy -122697.283950 kJ/mol
# GULP energy per Si atom -5577.149270 kJ/mol
# Density = 2.806433 g / cm^3
# Si number density = 28.128349 Si / 1000 Ang^3
#
#
#
# Elastic Constant Matrix: (Units=GPa)
#
#
# Indices 1 2 3 4 5 6 
#
# 1 163.1252 67.2316 77.9319 0.0000 -15.6509 0.0000
# 2 67.2316 287.5660 116.1279 0.0000 -27.0009 0.0000
# 3 77.9319 116.1279 236.1863 0.0000 -9.2998 0.0000
# 4 0.0000 0.0000 0.0000 98.4093 0.0000 -16.2983
# 5 -15.6509 -27.0009 -9.2998 0.0000 43.9161 0.0000
# 6 0.0000 0.0000 0.0000 -16.2983 0.0000 25.6192
#
#
#
# Elastic Compliance Matrix: (Units=1/GPa)
#
#
# Indices 1 2 3 4 5 6 
#
# 1 0.007606 -0.000779 -0.002056 0.000000 0.001796 0.000000
# 2 -0.000779 0.004648 -0.001943 0.000000 0.002168 0.000000
# 3 -0.002056 -0.001943 0.005840 0.000000 -0.000690 0.000000
# 4 0.000000 0.000000 0.000000 0.011358 0.000000 0.007226
# 5 0.001796 0.002168 -0.000690 0.000000 0.024598 0.000000
# 6 0.000000 0.000000 0.000000 0.007226 0.000000 0.043630
#
#
# Mechanical properties :
#
#
# Convention : Reuss Voigt Hill
#
# Bulk Modulus (GPa) = 117.11840 134.38446 125.75143
# Shear Modulus (GPa) = 45.42064 61.96132 53.69098
#
# Velocity S-wave (km/s) = 4.02277 4.69850 4.37370
# Velocity P-wave (km/s) = 7.95641 8.79282 8.38505
#
# Compressibility (1/GPa) = 0.00853837
#
# Stress axis : x y z
#
# Youngs Moduli (GPa) = 131.47654 215.15537 171.22610
#
# Poissons Ratio (x) = 0.16770 0.35199
# Poissons Ratio (y) = 0.10248 0.33263
# Poissons Ratio (z) = 0.27028 0.41797
#
# Static dielectric constant tensor:
#      x y z
#    x 2.361790 0.000000 0.002020 
#    y 0.000000 2.404240 0.000000 
#    z 0.002020 0.000000 2.090580 
# 
# From -- ./inp_files/81106.got.cif
#   From: 2010.05.17/outbox.cif.g08.bks.cpg/sg15_41_cif.got.tgz:81106.got - 2010.06.03 18:47:42.
