data_PCOD9299450
_publ_section_title
;
Structure prediction by ZEFSAII (Michael W. Deem and Ramdas Pophale) SiO2 
 PCOD9299450
Probable space group: C 2/C
;
_chemical_formula_sum "Si O2"
_cell_formula_units_Z 40
_cell_length_a 26.364775
_cell_length_b 5.385358
_cell_length_c 12.561075
_cell_angle_alpha 90.000000
_cell_angle_beta 80.286583
_cell_angle_gamma 90.000000
_cell_volume 1757.900728
_symmetry_space_group_name_H-M "C 2/C"
_symmetry_group_IT_number 15
_symmetry_cell_setting 'monoclinic'
loop_
_space_group_symop_operation_xyz
x,y,z
-x,y,1/2-z
-x,-y,-z
x,-y,1/2+z
1/2+x,1/2+y,z
1/2-x,1/2+y,1/2-z
1/2-x,1/2-y,-z
1/2+x,1/2-y,1/2+z
loop_
_atom_site_type_symbol
_atom_site_label
_atom_site_fract_x
_atom_site_fract_y
_atom_site_fract_z
Si Si1 0.292448 0.448380 0.519877
Si Si2 0.405791 0.022254 0.437627
Si Si3 0.307066 0.151507 0.860360
Si Si4 0.941543 0.026305 0.309118
Si Si5 0.625934 0.752249 0.351442
O O1 0.250000 0.250000 0.500000
O O2 0.312650 0.571591 0.404501
O O3 0.253608 0.613996 0.605832
O O4 0.341160 0.399651 0.575318
O O5 0.427865 0.265242 0.370199
O O6 0.407804 0.064864 0.563640
O O7 0.345318 0.998581 0.425419
O O8 0.431592 0.766788 0.388647
O O9 0.331218 0.114104 0.736816
O O10 0.000000 0.019973 0.250000
O O11 0.907132 0.087673 0.217197
#
# Coordination Sequence:
#
# PCOD9299450 Si02
#       5
#     8   8   8   8   8
#     4  11  23  42  61  97 140 180 231 274 324 413
#     4  11  24  46  70 104 136 173 235 283 340 420
#     4  10  25  40  64 100 139 180 230 278 331 413
#     4  11  27  48  71 102 136 176 232 290 347 415
#     4  11  24  41  71  95 135 189 217 289 345 399
#
# _framework density 22.754413
#
# number of rings (size 3 to 8) (size 9 to 14) (size 15 to 20)
#    0.000    1.200    2.000    3.000    2.800    8.000 
#    0.000    0.000    0.000    0.000    0.000    0.000 
#    0.000    0.000    0.000    0.000    0.000    0.000 
#
# Total GULP energy -111661.156730 kJ/mol
# GULP energy per Si atom -5583.057836 kJ/mol
# Density = 2.270262 g / cm^3
# Si number density = 22.754413 Si / 1000 Ang^3
#
#
#
# Elastic Constant Matrix: (Units=GPa)
#
#
# Indices 1 2 3 4 5 6 
#
# 1 93.0155 22.5622 15.2823 0.0000 -26.9932 0.0000
# 2 22.5622 109.3930 36.5776 0.0000 -11.6968 0.0000
# 3 15.2823 36.5776 104.0971 0.0000 -13.5867 0.0000
# 4 0.0000 0.0000 0.0000 20.2683 0.0000 -13.0887
# 5 -26.9932 -11.6968 -13.5867 0.0000 27.5469 0.0000
# 6 0.0000 0.0000 0.0000 -13.0887 0.0000 35.5162
#
#
#
# Elastic Compliance Matrix: (Units=1/GPa)
#
#
# Indices 1 2 3 4 5 6 
#
# 1 0.015299 -0.001693 0.000226 0.000000 0.014384 0.000000
# 2 -0.001693 0.010749 -0.003366 0.000000 0.001245 0.000000
# 3 0.000226 -0.003366 0.011328 0.000000 0.004379 0.000000
# 4 0.000000 0.000000 0.000000 0.064747 0.000000 0.023861
# 5 0.014384 0.001245 0.004379 0.000000 0.053085 0.000000
# 6 0.000000 0.000000 0.000000 0.023861 0.000000 0.036950
#
#
# Mechanical properties :
#
#
# Convention : Reuss Voigt Hill
#
# Bulk Modulus (GPa) = 36.08818 50.59442 43.34130
# Shear Modulus (GPa) = 23.69007 32.13851 27.91429
#
# Velocity S-wave (km/s) = 3.23014 3.76228 3.50632
# Velocity P-wave (km/s) = 5.45949 6.41531 5.95660
#
# Compressibility (1/GPa) = 0.02770990
#
# Stress axis : x y z
#
# Youngs Moduli (GPa) = 65.36553 93.03068 88.28045
#
# Poissons Ratio (x) = 0.15750 -0.01998
# Poissons Ratio (y) = 0.11066 0.29715
# Poissons Ratio (z) = -0.01479 0.31314
#
# Static dielectric constant tensor:
#      x y z
#    x 1.881070 0.000000 -0.015170 
#    y 0.000000 2.018020 0.000000 
#    z -0.015170 0.000000 1.876760 
# 
# From -- ./inp_files/120833.got.cif
#   From: 2010.05.17/outbox.cif.g08.bks.cpg/sg15_61_cif.got.tgz:120833.got - 2010.06.03 18:47:42.
