data_PCOD9299499
_publ_section_title
;
Structure prediction by ZEFSAII (Michael W. Deem and Ramdas Pophale) SiO2 
 PCOD9299499
Probable space group: C 2/C
;
_chemical_formula_sum "Si O2"
_cell_formula_units_Z 40
_cell_length_a 16.584606
_cell_length_b 16.962325
_cell_length_c 11.546007
_cell_angle_alpha 90.000000
_cell_angle_beta 31.815432
_cell_angle_gamma 90.000000
_cell_volume 1712.320834
_symmetry_space_group_name_H-M "C 2/C"
_symmetry_group_IT_number 15
_symmetry_cell_setting 'monoclinic'
loop_
_space_group_symop_operation_xyz
x,y,z
-x,y,1/2-z
-x,-y,-z
x,-y,1/2+z
1/2+x,1/2+y,z
1/2-x,1/2+y,1/2-z
1/2-x,1/2-y,-z
1/2+x,1/2-y,1/2+z
loop_
_atom_site_type_symbol
_atom_site_label
_atom_site_fract_x
_atom_site_fract_y
_atom_site_fract_z
Si Si1 0.040474 0.801716 0.966853
Si Si2 0.357488 0.025983 0.496122
Si Si3 0.288619 0.846825 0.244759
Si Si4 0.527308 0.456355 0.341176
Si Si5 0.169193 0.347574 0.037572
O O1 0.075689 0.712533 0.961756
O O2 0.187118 0.811612 0.703790
O O3 0.875617 0.817973 0.107156
O O4 0.052276 0.871492 0.047150
O O5 0.500000 0.054092 0.250000
O O6 0.338132 0.066230 0.642937
O O7 0.207212 0.055839 0.615744
O O8 0.357153 0.931632 0.492537
O O9 0.279819 0.854168 0.392734
O O10 0.500000 0.497269 0.250000
O O11 0.500000 0.500000 0.500000
O O12 0.000000 0.308261 0.250000
#
# Coordination Sequence:
#
# PCOD9299499 Si02
#       5
#     8   8   8   8   8
#     4  11  24  44  68 101 139 184 236 291 358 426
#     4  10  25  42  66 102 136 182 229 290 350 419
#     4  11  25  43  69  99 142 186 233 296 361 427
#     4  11  25  44  72 103 140 188 240 294 354 427
#     4  11  23  40  67 102 137 182 239 296 353 421
#
# _framework density 23.360109000000001
#
# number of rings (size 3 to 8) (size 9 to 14) (size 15 to 20)
#    0.000    1.200    2.000    2.400    5.600    7.200 
#    0.000    4.000    0.000    0.000    0.000    0.000 
#    0.000    0.000    0.000    0.000    0.000    0.000 
#
# Total GULP energy -111574.770108 kJ/mol
# GULP energy per Si atom -5578.738505 kJ/mol
# Density = 2.330694 g / cm^3
# Si number density = 23.360109 Si / 1000 Ang^3
#
#
#
# Elastic Constant Matrix: (Units=GPa)
#
#
# Indices 1 2 3 4 5 6 
#
# 1 85.6713 16.6907 48.0284 -0.0002 4.7666 0.0003
# 2 16.6907 100.3838 19.5644 -0.0001 5.5330 0.0001
# 3 48.0284 19.5644 131.4609 -0.0005 -17.9355 0.0002
# 4 -0.0002 -0.0001 -0.0005 35.6847 0.0001 -8.9776
# 5 4.7666 5.5330 -17.9355 0.0001 34.9710 -0.0002
# 6 0.0003 0.0001 0.0002 -8.9776 -0.0002 21.0430
#
#
#
# Elastic Compliance Matrix: (Units=1/GPa)
#
#
# Indices 1 2 3 4 5 6 
#
# 1 0.015695 -0.001100 -0.006278 0.000000 -0.005185 0.000000
# 2 -0.001100 0.010559 -0.001480 0.000000 -0.002280 0.000000
# 3 -0.006278 -0.001480 0.011042 0.000000 0.006753 0.000000
# 4 0.000000 0.000000 0.000000 0.031393 0.000000 0.013393
# 5 -0.005185 -0.002280 0.006753 0.000000 0.033126 0.000000
# 6 0.000000 0.000000 0.000000 0.013393 0.000000 0.053236
#
#
# Mechanical properties :
#
#
# Convention : Reuss Voigt Hill
#
# Bulk Modulus (GPa) = 51.07552 54.00922 52.54237
# Shear Modulus (GPa) = 27.88742 33.88859 30.88800
#
# Velocity S-wave (km/s) = 3.45890 3.81294 3.64023
# Velocity P-wave (km/s) = 6.15336 6.52343 6.34110
#
# Compressibility (1/GPa) = 0.01957885
#
# Stress axis : x y z
#
# Youngs Moduli (GPa) = 63.71623 94.70666 90.56403
#
# Poissons Ratio (x) = 0.10420 0.56852
# Poissons Ratio (y) = 0.07011 0.13408
# Poissons Ratio (z) = 0.39998 0.14021
#
# Static dielectric constant tensor:
#      x y z
#    x 1.874510 0.000000 -0.104630 
#    y 0.000000 2.023380 0.000000 
#    z -0.104630 0.000000 1.699770 
# 
# From -- ./inp_files/106822.got.cif
#   From: 2010.05.17/outbox.cif.g08.bks.cpg/sg15_54_cif.got.tgz:106822.got - 2010.06.03 18:47:42.
