data_PCOD9299346
_publ_section_title
;
Structure prediction by ZEFSAII (Michael W. Deem and Ramdas Pophale) SiO2 
 PCOD9299346
Probable space group: C 2/C
;
_chemical_formula_sum "Si O2"
_cell_formula_units_Z 24
_cell_length_a 7.892832
_cell_length_b 21.359092
_cell_length_c 4.924402
_cell_angle_alpha 90.000000
_cell_angle_beta 88.427812
_cell_angle_gamma 90.000000
_cell_volume 829.861513
_symmetry_space_group_name_H-M "C 2/C"
_symmetry_group_IT_number 15
_symmetry_cell_setting 'monoclinic'
loop_
_space_group_symop_operation_xyz
x,y,z
-x,y,1/2-z
-x,-y,-z
x,-y,1/2+z
1/2+x,1/2+y,z
1/2-x,1/2+y,1/2-z
1/2-x,1/2-y,-z
1/2+x,1/2-y,1/2+z
loop_
_atom_site_type_symbol
_atom_site_label
_atom_site_fract_x
_atom_site_fract_y
_atom_site_fract_z
Si Si1 0.500000 0.104218 0.250000
Si Si2 0.216548 0.164273 0.641129
Si Si3 0.500000 0.255264 0.750000
Si Si4 0.772574 0.041361 0.533484
O O1 0.346779 0.141791 0.396053
O O2 0.579410 0.061418 0.480202
O O3 0.339866 0.209746 0.808620
O O4 0.069217 0.201542 0.489954
O O5 0.166913 0.104896 0.826137
O O6 0.816772 0.014989 0.234461
#
# Coordination Sequence:
#
# PCOD9299346 Si02
#       4
#     4   8   4   8
#     4  12  22  39  70 112 135 184 236 288 360 406
#     4  11  24  45  72 106 139 192 231 297 355 415
#     4  10  24  49  68 102 149 184 244 284 352 434
#     4  12  24  42  74 109 144 181 241 298 352 424
#
# _framework density 28.920487000000001
#
# number of rings (size 3 to 8) (size 9 to 14) (size 15 to 20)
#    0.000    0.667    6.667    1.000    0.000    1.333 
#    0.000    1.667    0.000    0.000    0.000    0.000 
#    0.000    0.000    0.000    0.000    0.000    0.000 
#
# Total GULP energy -67227.984080 kJ/mol
# GULP energy per Si atom -5602.332007 kJ/mol
# Density = 2.885466 g / cm^3
# Si number density = 28.920487 Si / 1000 Ang^3
#
#
#
# Elastic Constant Matrix: (Units=GPa)
#
#
# Indices 1 2 3 4 5 6 
#
# 1 125.4040 73.3910 94.2163 0.0000 58.4177 0.0000
# 2 73.3910 166.8165 42.8257 0.0000 55.3028 0.0000
# 3 94.2163 42.8257 165.1949 0.0000 54.4175 0.0000
# 4 0.0000 0.0000 0.0000 61.3117 0.0000 11.3509
# 5 58.4177 55.3028 54.4175 0.0000 58.1269 0.0000
# 6 0.0000 0.0000 0.0000 11.3509 0.0000 17.5502
#
#
#
# Elastic Compliance Matrix: (Units=1/GPa)
#
#
# Indices 1 2 3 4 5 6 
#
# 1 0.020338 -0.003746 -0.007330 0.000000 -0.010014 0.000000
# 2 -0.003746 0.009501 0.002040 0.000000 -0.007184 0.000000
# 3 -0.007330 0.002040 0.011448 0.000000 -0.005292 0.000000
# 4 0.000000 0.000000 0.000000 0.018529 0.000000 -0.011984
# 5 -0.010014 -0.007184 -0.005292 0.000000 0.039057 0.000000
# 6 0.000000 0.000000 0.000000 -0.011984 0.000000 0.064730
#
#
# Mechanical properties :
#
#
# Convention : Reuss Voigt Hill
#
# Bulk Modulus (GPa) = 43.07482 97.58683 70.33082
# Shear Modulus (GPa) = 26.39720 43.86326 35.13023
#
# Velocity S-wave (km/s) = 3.02445 3.89869 3.48906
# Velocity P-wave (km/s) = 5.20797 7.35410 6.37204
#
# Compressibility (1/GPa) = 0.02321542
#
# Stress axis : x y z
#
# Youngs Moduli (GPa) = 49.16807 105.25542 87.34864
#
# Poissons Ratio (x) = 0.39433 0.64025
# Poissons Ratio (y) = 0.18420 -0.17821
# Poissons Ratio (z) = 0.36039 -0.21474
#
# Static dielectric constant tensor:
#      x y z
#    x 2.380270 0.000000 -0.078410 
#    y 0.000000 2.264720 0.000000 
#    z -0.078410 0.000000 2.295230 
# 
# From -- ./inp_files/1724.got.cif
#   From: 2010.05.17/outbox.cif.g08.bks.cpg/sg15_1_cif.got.tgz:1724.got - 2010.06.03 18:47:42.
