data_PCOD9299337
_publ_section_title
;
Structure prediction by ZEFSAII (Michael W. Deem and Ramdas Pophale) SiO2 
 PCOD9299337
Probable space group: C 2/C
;
_chemical_formula_sum "Si O2"
_cell_formula_units_Z 40
_cell_length_a 10.387113
_cell_length_b 29.095478
_cell_length_c 5.770206
_cell_angle_alpha 90.000000
_cell_angle_beta 78.144833
_cell_angle_gamma 90.000000
_cell_volume 1706.663745
_symmetry_space_group_name_H-M "C 2/C"
_symmetry_group_IT_number 15
_symmetry_cell_setting 'monoclinic'
loop_
_space_group_symop_operation_xyz
x,y,z
-x,y,1/2-z
-x,-y,-z
x,-y,1/2+z
1/2+x,1/2+y,z
1/2-x,1/2+y,1/2-z
1/2-x,1/2-y,-z
1/2+x,1/2-y,1/2+z
loop_
_atom_site_type_symbol
_atom_site_label
_atom_site_fract_x
_atom_site_fract_y
_atom_site_fract_z
Si Si1 0.345980 0.483335 0.575895
Si Si2 0.500000 0.877531 0.250000
Si Si3 0.173871 0.684236 0.342850
Si Si4 0.073175 0.774791 0.509461
Si Si5 0.257585 0.892128 0.048637
Si Si6 0.500000 0.352092 0.250000
O O1 0.500000 0.500000 0.500000
O O2 0.294380 0.503358 0.837931
O O3 0.303993 0.429957 0.600999
O O4 0.423478 0.846197 0.464622
O O5 0.385535 0.904484 0.152421
O O6 0.117627 0.735281 0.316828
O O7 0.298675 0.698070 0.452370
O O8 0.204259 0.653533 0.108545
O O9 0.000000 0.750974 0.750000
O O10 0.978104 0.815399 0.461223
O O11 0.128764 0.881364 0.250384
#
# Coordination Sequence:
#
# PCOD9299337 Si02
#       6
#     8   4   8   8   8   4
#     4  10  24  48  81 117 147 184 240 322 398 466
#     4  12  26  46  64 106 149 199 240 304 380 462
#     4  11  25  43  68 100 150 204 249 309 369 447
#     4  11  23  41  66 102 145 200 266 313 360 415
#     4  12  27  45  76 108 149 193 250 310 389 462
#     4  12  24  40  70 106 141 197 258 314 350 434
#
# _framework density 23.437542000000001
#
# number of rings (size 3 to 8) (size 9 to 14) (size 15 to 20)
#    0.000    0.800    5.000    1.800    5.600    4.000 
#    0.000    1.000    0.000    0.000    0.000    0.000 
#    0.000    0.000    0.000    0.000    0.000    0.000 
#
# Total GULP energy -111498.975967 kJ/mol
# GULP energy per Si atom -5574.948798 kJ/mol
# Density = 2.338420 g / cm^3
# Si number density = 23.437542 Si / 1000 Ang^3
#
#
#
# Elastic Constant Matrix: (Units=GPa)
#
#
# Indices 1 2 3 4 5 6 
#
# 1 137.0494 37.3820 19.7216 0.0000 14.5242 0.0000
# 2 37.3820 59.6628 8.8860 0.0000 10.9609 0.0000
# 3 19.7216 8.8860 70.5502 0.0000 -0.5076 0.0000
# 4 0.0000 0.0000 0.0000 33.8779 0.0000 2.3873
# 5 14.5242 10.9609 -0.5076 0.0000 31.2417 0.0000
# 6 0.0000 0.0000 0.0000 2.3873 0.0000 -15.3675
#
#
#
# Elastic Compliance Matrix: (Units=1/GPa)
#
#
# Indices 1 2 3 4 5 6 
#
# 1 0.009218 -0.005013 -0.001964 0.000000 -0.002558 0.000000
# 2 -0.005013 0.021024 -0.001283 0.000000 -0.005066 0.000000
# 3 -0.001964 -0.001283 0.014896 0.000000 0.001605 0.000000
# 4 0.000000 0.000000 0.000000 0.029198 0.000000 0.004536
# 5 -0.002558 -0.005066 0.001605 0.000000 0.035001 0.000000
# 6 0.000000 0.000000 0.000000 0.004536 0.000000 -0.064368
#
#
# Mechanical properties :
#
#
# Convention : Reuss Voigt Hill
#
# Bulk Modulus (GPa) = 34.94283 44.36017 39.65150
# Shear Modulus (GPa) = 70.39441 23.36862 46.88151
#
# Velocity S-wave (km/s) = 5.48636 3.16105 4.47729
# Velocity P-wave (km/s) = 7.42124 5.68252 6.60930
#
# Compressibility (1/GPa) = 0.02861817
#
# Stress axis : x y z
#
# Youngs Moduli (GPa) = 108.48701 47.56570 67.13023
#
# Poissons Ratio (x) = 0.23844 0.13183
# Poissons Ratio (y) = 0.54383 0.08614
# Poissons Ratio (z) = 0.21304 0.06103
#
# Static dielectric constant tensor:
#      x y z
#    x 1.900780 0.000000 0.052810 
#    y 0.000000 1.893520 0.000000 
#    z 0.052810 0.000000 1.984360 
# 
# From -- ./inp_files/5575.got.cif
#   From: 2010.05.17/outbox.cif.g08.bks.cpg/sg15_3_cif.got.tgz:5575.got - 2010.06.03 18:47:42.
