data_PCOD9299568
_publ_section_title
;
Structure prediction by ZEFSAII (Michael W. Deem and Ramdas Pophale) SiO2 
 PCOD9299568
Probable space group: C 2/C
;
_chemical_formula_sum "Si O2"
_cell_formula_units_Z 48
_cell_length_a 13.977970
_cell_length_b 9.336852
_cell_length_c 27.116972
_cell_angle_alpha 90.000000
_cell_angle_beta 28.689232
_cell_angle_gamma 90.000000
_cell_volume 1698.947906
_symmetry_space_group_name_H-M "C 2/C"
_symmetry_group_IT_number 15
_symmetry_cell_setting 'monoclinic'
loop_
_space_group_symop_operation_xyz
x,y,z
-x,y,1/2-z
-x,-y,-z
x,-y,1/2+z
1/2+x,1/2+y,z
1/2-x,1/2+y,1/2-z
1/2-x,1/2-y,-z
1/2+x,1/2-y,1/2+z
loop_
_atom_site_type_symbol
_atom_site_label
_atom_site_fract_x
_atom_site_fract_y
_atom_site_fract_z
Si Si1 0.883811 0.290664 0.484609
Si Si2 0.779287 0.748126 0.839280
Si Si3 0.273485 0.852536 0.807563
Si Si4 0.773287 0.440171 0.018524
Si Si5 0.811262 0.016810 0.749587
Si Si6 0.839669 0.837641 0.536960
O O1 0.750000 0.250000 0.500000
O O2 0.770435 0.317307 0.585777
O O3 0.956556 0.447147 0.436795
O O4 0.035056 0.166039 0.423688
O O5 0.787561 0.875225 0.795546
O O6 0.581785 0.646742 0.922485
O O7 0.000000 0.684438 0.750000
O O8 0.297372 0.969867 0.753593
O O9 0.311380 0.686679 0.769779
O O10 0.305821 0.878741 0.851901
O O11 0.548751 0.490952 0.128821
O O12 0.763194 0.384556 0.967328
O O13 0.821995 0.333449 0.040578
#
# Coordination Sequence:
#
# PCOD9299568 Si02
#       6
#     8   8   8   8   8   8
#     4  11  21  41  65  96 138 178 233 279 344 415
#     4  11  21  41  68 100 132 183 236 283 342 421
#     4  11  25  44  69 101 140 190 238 291 347 419
#     4  11  22  43  69 102 141 184 229 291 356 421
#     4  12  24  42  69 102 139 182 241 291 348 411
#     4  10  25  43  70 103 142 186 233 286 358 423
#
# _framework density 28.252780999999999
#
# number of rings (size 3 to 8) (size 9 to 14) (size 15 to 20)
#    0.000    1.000    3.333    3.000    0.000    4.667 
#    3.000    0.000    0.000    0.000    0.000    0.000 
#    0.000    0.000    0.000    0.000    0.000    0.000 
#
# Total GULP energy -133703.804058 kJ/mol
# GULP energy per Si atom -5570.991836 kJ/mol
# Density = 2.818848 g / cm^3
# Si number density = 28.252781 Si / 1000 Ang^3
#
#
#
# Elastic Constant Matrix: (Units=GPa)
#
#
# Indices 1 2 3 4 5 6 
#
# 1 72.3935 20.0320 52.9869 0.0000 33.8575 0.0000
# 2 20.0320 122.5336 34.6882 0.0002 16.7950 0.0000
# 3 52.9869 34.6882 130.3720 0.0017 34.0989 0.0003
# 4 0.0000 0.0002 0.0017 21.1244 -0.0001 -19.8852
# 5 33.8575 16.7950 34.0989 -0.0001 63.5915 0.0000
# 6 0.0000 0.0000 0.0003 -19.8852 0.0000 22.6760
#
#
#
# Elastic Compliance Matrix: (Units=1/GPa)
#
#
# Indices 1 2 3 4 5 6 
#
# 1 0.023011 -0.000638 -0.007005 0.000004 -0.008327 0.000003
# 2 -0.000638 0.008929 -0.001848 0.000001 -0.001028 0.000001
# 3 -0.007005 -0.001848 0.011522 -0.000006 -0.001961 -0.000005
# 4 0.000004 0.000001 -0.000006 0.271258 0.000001 0.237874
# 5 -0.008327 -0.001028 -0.001961 0.000001 0.021482 0.000001
# 6 0.000003 0.000001 -0.000005 0.237874 0.000001 0.252698
#
#
# Mechanical properties :
#
#
# Convention : Reuss Voigt Hill
#
# Bulk Modulus (GPa) = 40.84632 60.07926 50.46279
# Shear Modulus (GPa) = 8.11633 35.98452 22.05043
#
# Velocity S-wave (km/s) = 1.69676 3.57271 2.79672
# Velocity P-wave (km/s) = 4.28106 6.19113 5.32248
#
# Compressibility (1/GPa) = 0.02448201
#
# Stress axis : x y z
#
# Youngs Moduli (GPa) = 43.45668 111.99132 86.79206
#
# Poissons Ratio (x) = 0.07140 0.60797
# Poissons Ratio (y) = 0.02771 0.16038
# Poissons Ratio (z) = 0.30441 0.20694
#
# Static dielectric constant tensor:
#      x y z
#    x 2.019000 0.000000 0.235370 
#    y 0.000000 2.345710 0.000000 
#    z 0.235370 0.000000 2.310670 
# 
# From -- ./inp_files/296067.got.cif
#   From: 2010.05.17/outbox.cif.g08.bks.cpg/sg15_149_cif.got.tgz:296067.got - 2010.06.03 18:47:42.
