data_PCOD9299899
_publ_section_title
;
Structure prediction by ZEFSAII (Michael W. Deem and Ramdas Pophale) SiO2 
 PCOD9299899
Probable space group: C 2/C
;
_chemical_formula_sum "Si O2"
_cell_formula_units_Z 48
_cell_length_a 8.172323
_cell_length_b 18.487961
_cell_length_c 27.323969
_cell_angle_alpha 90.000000
_cell_angle_beta 148.309421
_cell_angle_gamma 90.000000
_cell_volume 2168.762377
_symmetry_space_group_name_H-M "C 2/C"
_symmetry_group_IT_number 15
_symmetry_cell_setting 'monoclinic'
loop_
_space_group_symop_operation_xyz
x,y,z
-x,y,1/2-z
-x,-y,-z
x,-y,1/2+z
1/2+x,1/2+y,z
1/2-x,1/2+y,1/2-z
1/2-x,1/2-y,-z
1/2+x,1/2-y,1/2+z
loop_
_atom_site_type_symbol
_atom_site_label
_atom_site_fract_x
_atom_site_fract_y
_atom_site_fract_z
Si Si1 0.124877 0.404053 0.406187
Si Si2 0.490357 0.250438 0.890602
Si Si3 0.696195 0.844965 0.893374
Si Si4 0.741646 0.818795 0.641380
Si Si5 0.168768 0.515192 0.093706
Si Si6 0.603077 0.012830 0.221989
O O1 0.915010 0.332909 0.360329
O O2 0.473687 0.379295 0.507142
O O3 0.011682 0.466393 0.413584
O O4 0.089487 0.443577 0.345578
O O5 0.234149 0.299300 0.852955
O O6 0.634069 0.280259 0.876248
O O7 0.750000 0.250000 0.000000
O O8 0.565073 0.797307 0.905091
O O9 0.473035 0.913575 0.826625
O O10 0.667369 0.900021 0.604946
O O11 0.000000 0.814651 0.750000
O O12 0.532913 0.495145 0.187680
O O13 0.000000 0.500000 0.000000
O O14 0.500000 0.029717 0.250000
#
# Coordination Sequence:
#
# PCOD9299899 Si02
#       6
#     8   8   8   8   8   8
#     4  11  24  46  68 104 144 175 228 300 362 419
#     4  10  25  48  69 107 146 187 236 294 370 430
#     4  11  24  45  77 101 138 194 240 287 358 446
#     4  12  24  45  75 105 141 193 251 295 351 446
#     4  12  24  44  70 100 141 184 234 303 359 417
#     4  12  24  42  68 105 137 183 238 294 355 429
#
# _framework density 22.132439999999999
#
# number of rings (size 3 to 8) (size 9 to 14) (size 15 to 20)
#    0.000    0.667    3.333    5.000    2.333    3.333 
#    9.000    0.000    0.000    0.000    0.000    0.000 
#    0.000    0.000    0.000    0.000    0.000    0.000 
#
# Total GULP energy -134099.856035 kJ/mol
# GULP energy per Si atom -5587.494001 kJ/mol
# Density = 2.208207 g / cm^3
# Si number density = 22.132440 Si / 1000 Ang^3
#
#
#
# Elastic Constant Matrix: (Units=GPa)
#
#
# Indices 1 2 3 4 5 6 
#
# 1 130.6019 23.3968 26.7668 -0.0020 -21.3431 0.0011
# 2 23.3968 92.8140 5.9718 -0.0069 -24.7629 0.0001
# 3 26.7668 5.9718 87.6878 -0.0067 -7.6279 -0.0010
# 4 -0.0020 -0.0069 -0.0067 9.8982 -0.0014 -4.3834
# 5 -21.3431 -24.7629 -7.6279 -0.0014 43.4350 0.0001
# 6 0.0011 0.0001 -0.0010 -4.3834 0.0001 33.0633
#
#
#
# Elastic Compliance Matrix: (Units=1/GPa)
#
#
# Indices 1 2 3 4 5 6 
#
# 1 0.008889 -0.001220 -0.002347 0.000000 0.003260 0.000000
# 2 -0.001220 0.012879 0.000083 0.000010 0.006758 0.000001
# 3 -0.002347 0.000083 0.012205 0.000009 0.001038 0.000002
# 4 0.000000 0.000010 0.000009 0.107330 0.000011 0.014229
# 5 0.003260 0.006758 0.001038 0.000011 0.028660 0.000001
# 6 0.000000 0.000001 0.000002 0.014229 0.000001 0.032131
#
#
# Mechanical properties :
#
#
# Convention : Reuss Voigt Hill
#
# Bulk Modulus (GPa) = 37.02810 47.04163 42.03487
# Shear Modulus (GPa) = 22.92900 34.27716 28.60308
#
# Velocity S-wave (km/s) = 3.22217 3.93966 3.59884
# Velocity P-wave (km/s) = 5.53261 6.48038 6.02516
#
# Compressibility (1/GPa) = 0.02700652
#
# Stress axis : x y z
#
# Youngs Moduli (GPa) = 112.49640 77.64314 81.93329
#
# Poissons Ratio (x) = 0.09472 0.19228
# Poissons Ratio (y) = 0.13724 -0.00681
# Poissons Ratio (z) = 0.26400 -0.00645
#
# Static dielectric constant tensor:
#      x y z
#    x 1.911380 0.000010 -0.037100 
#    y 0.000010 1.904310 0.000000 
#    z -0.037100 0.000000 1.977440 
# 
# From -- ./inp_files/308850.got.cif
#   From: 2010.05.17/outbox.cif.g08.bks.cpg/sg15_155_cif.got.tgz:308850.got - 2010.06.03 18:47:42.
