data_PCOD9299506
_publ_section_title
;
Structure prediction by ZEFSAII (Michael W. Deem and Ramdas Pophale) SiO2 
 PCOD9299506
Probable space group: C 2/C
;
_chemical_formula_sum "Si O2"
_cell_formula_units_Z 52
_cell_length_a 9.329484
_cell_length_b 26.649535
_cell_length_c 10.437190
_cell_angle_alpha 90.000000
_cell_angle_beta 59.697588
_cell_angle_gamma 90.000000
_cell_volume 2240.422737
_symmetry_space_group_name_H-M "C 2/C"
_symmetry_group_IT_number 15
_symmetry_cell_setting 'monoclinic'
loop_
_space_group_symop_operation_xyz
x,y,z
-x,y,1/2-z
-x,-y,-z
x,-y,1/2+z
1/2+x,1/2+y,z
1/2-x,1/2+y,1/2-z
1/2-x,1/2-y,-z
1/2+x,1/2-y,1/2+z
loop_
_atom_site_type_symbol
_atom_site_label
_atom_site_fract_x
_atom_site_fract_y
_atom_site_fract_z
Si Si1 0.803398 0.783715 0.854428
Si Si2 0.794842 0.607007 0.181302
Si Si3 0.680282 0.536532 0.015969
Si Si4 0.595090 0.576101 0.521130
Si Si5 0.194435 0.224984 0.658622
Si Si6 0.853412 0.379392 0.081324
Si Si7 0.000000 0.558804 0.750000
O O1 0.759604 0.842710 0.871105
O O2 0.717289 0.762680 0.765674
O O3 0.000000 0.779064 0.750000
O O4 0.750000 0.750000 0.000000
O O5 0.714424 0.599397 0.356234
O O6 0.718996 0.560926 0.134505
O O7 0.994615 0.609560 0.085085
O O8 0.597601 0.482670 0.057692
O O9 0.857594 0.525619 0.873869
O O10 0.582460 0.576717 0.971188
O O11 0.676577 0.601350 0.608586
O O12 0.250000 0.250000 0.500000
O O13 0.319433 0.178743 0.622068
O O14 0.000000 0.209901 0.750000
O O15 0.917890 0.406965 0.178556
#
# Coordination Sequence:
#
# PCOD9299506 Si02
#       7
#     8   8   8   8   8   8   4
#     4  12  26  45  75 101 141 191 238 294 363 432
#     4  11  24  46  69 102 141 181 238 291 358 430
#     4  10  25  42  68 101 136 182 235 284 352 425
#     4  11  24  43  71 101 139 185 234 296 358 422
#     4  12  27  47  72 108 145 186 244 304 367 436
#     4  11  26  43  71 100 139 183 231 292 356 422
#     4  10  26  42  66  94 144 174 238 280 346 426
#
# _framework density 23.209904999999999
#
# number of rings (size 3 to 8) (size 9 to 14) (size 15 to 20)
#    0.000    0.923    0.000    5.538   11.846    1.231 
#    0.000    0.000    0.000    0.000    0.000    0.000 
#    0.000    0.000    0.000    0.000    0.000    0.000 
#
# Total GULP energy -145288.465655 kJ/mol
# GULP energy per Si atom -5588.017910 kJ/mol
# Density = 2.315708 g / cm^3
# Si number density = 23.209905 Si / 1000 Ang^3
#
#
#
# Elastic Constant Matrix: (Units=GPa)
#
#
# Indices 1 2 3 4 5 6 
#
# 1 87.1301 -12.8402 29.2264 0.0000 -12.0812 0.0000
# 2 -12.8402 57.8202 -1.4635 0.0000 0.0378 0.0000
# 3 29.2264 -1.4635 72.9678 0.0000 -0.2809 0.0000
# 4 0.0000 0.0000 0.0000 19.3718 0.0000 -14.7898
# 5 -12.0812 0.0378 -0.2809 0.0000 40.4378 0.0000
# 6 0.0000 0.0000 0.0000 -14.7898 0.0000 83.7560
#
#
#
# Elastic Compliance Matrix: (Units=1/GPa)
#
#
# Indices 1 2 3 4 5 6 
#
# 1 0.014433 0.003058 -0.005703 0.000000 0.004269 0.000000
# 2 0.003058 0.017952 -0.000861 0.000000 0.000891 0.000000
# 3 -0.005703 -0.000861 0.015966 0.000000 -0.001592 0.000000
# 4 0.000000 0.000000 0.000000 0.059665 0.000000 0.010536
# 5 0.004269 0.000891 -0.001592 0.000000 0.025993 0.000000
# 6 0.000000 0.000000 0.000000 0.010536 0.000000 0.013800
#
#
# Mechanical properties :
#
#
# Convention : Reuss Voigt Hill
#
# Bulk Modulus (GPa) = 24.19135 27.52925 25.86030
# Shear Modulus (GPa) = 29.65600 42.24614 35.95107
#
# Velocity S-wave (km/s) = 3.57841 4.27098 3.93994
# Velocity P-wave (km/s) = 5.24584 6.01735 5.64479
#
# Compressibility (1/GPa) = 0.04133708
#
# Stress axis : x y z
#
# Youngs Moduli (GPa) = 69.28689 55.70500 62.63474
#
# Poissons Ratio (x) = -0.17034 0.35721
# Poissons Ratio (y) = -0.21188 0.05395
# Poissons Ratio (z) = 0.39515 0.04798
#
# Static dielectric constant tensor:
#      x y z
#    x 2.027670 0.000000 0.010020 
#    y 0.000000 1.764190 0.000000 
#    z 0.010020 0.000000 1.880220 
# 
# From -- ./inp_files/81185.got.cif
#   From: 2010.05.17/outbox.cif.g08.bks.cpg/sg15_41_cif.got.tgz:81185.got - 2010.06.03 18:47:42.
