data_PCOD9299303
_publ_section_title
;
Structure prediction by ZEFSAII (Michael W. Deem and Ramdas Pophale) SiO2 
 PCOD9299303
Probable space group: C 2/C
;
_chemical_formula_sum "Si O2"
_cell_formula_units_Z 52
_cell_length_a 5.312028
_cell_length_b 24.526769
_cell_length_c 18.408286
_cell_angle_alpha 90.000000
_cell_angle_beta 119.249402
_cell_angle_gamma 90.000000
_cell_volume 2092.570199
_symmetry_space_group_name_H-M "C 2/C"
_symmetry_group_IT_number 15
_symmetry_cell_setting 'monoclinic'
loop_
_space_group_symop_operation_xyz
x,y,z
-x,y,1/2-z
-x,-y,-z
x,-y,1/2+z
1/2+x,1/2+y,z
1/2-x,1/2+y,1/2-z
1/2-x,1/2-y,-z
1/2+x,1/2-y,1/2+z
loop_
_atom_site_type_symbol
_atom_site_label
_atom_site_fract_x
_atom_site_fract_y
_atom_site_fract_z
Si Si1 0.638029 0.850027 0.848652
Si Si2 0.928942 0.060326 0.458760
Si Si3 0.500000 0.315575 0.250000
Si Si4 0.014154 0.308105 0.393734
Si Si5 0.661884 0.608114 0.638095
Si Si6 0.160932 0.014499 0.197482
Si Si7 0.209297 0.698726 0.074067
O O1 0.500000 0.854471 0.750000
O O2 0.640892 0.907467 0.894365
O O3 0.437295 0.813495 0.870763
O O4 0.973904 0.829122 0.892052
O O5 0.021559 0.048486 0.388086
O O6 0.027297 0.098324 0.539236
O O7 0.000000 0.000000 0.500000
O O8 0.463096 0.352018 0.317850
O O9 0.760813 0.278593 0.313947
O O10 0.050228 0.361436 0.348549
O O11 0.007767 0.320689 0.478107
O O12 0.271406 0.264577 0.427024
O O13 0.669856 0.548769 0.674063
O O14 0.500000 0.028463 0.250000
O O15 0.000000 0.019590 0.250000
#
# Coordination Sequence:
#
# PCOD9299303 Si02
#       7
#     8   8   4   8   8   8   8
#     4  12  26  49  77 112 153 200 258 313 381 458
#     4  10  24  48  75 105 151 197 251 311 392 448
#     4  12  24  40  76 108 156 198 262 316 378 456
#     4  11  26  45  75 108 157 201 263 306 394 453
#     4  11  23  46  68 110 151 199 245 318 378 455
#     4  11  24  46  72 108 145 192 255 313 375 452
#     4  11  28  49  77 110 156 204 251 319 379 462
#
# _framework density 24.849823000000001
#
# number of rings (size 3 to 8) (size 9 to 14) (size 15 to 20)
#    0.000    0.923    2.308    3.231    3.231    4.923 
#    2.769    3.077    0.000    0.000    0.000    0.000 
#    0.000    0.000    0.000    0.000    0.000    0.000 
#
# Total GULP energy -144758.417469 kJ/mol
# GULP energy per Si atom -5567.631441 kJ/mol
# Density = 2.479326 g / cm^3
# Si number density = 24.849823 Si / 1000 Ang^3
#
#
#
# Elastic Constant Matrix: (Units=GPa)
#
#
# Indices 1 2 3 4 5 6 
#
# 1 116.2428 10.3792 76.5954 0.0000 -26.1135 0.0000
# 2 10.3792 74.3859 23.4340 0.0000 -14.5380 0.0000
# 3 76.5954 23.4340 221.1073 0.0000 -21.9847 0.0000
# 4 0.0000 0.0000 0.0000 41.4633 0.0000 0.3327
# 5 -26.1135 -14.5380 -21.9847 0.0000 42.2362 0.0000
# 6 0.0000 0.0000 0.0000 0.3327 0.0000 36.6302
#
#
#
# Elastic Compliance Matrix: (Units=1/GPa)
#
#
# Indices 1 2 3 4 5 6 
#
# 1 0.012346 0.000611 -0.003756 0.000000 0.005888 0.000000
# 2 0.000611 0.014697 -0.001296 0.000000 0.004762 0.000000
# 3 -0.003756 -0.001296 0.005996 0.000000 0.000353 0.000000
# 4 0.000000 0.000000 0.000000 0.024119 0.000000 -0.000219
# 5 0.005888 0.004762 0.000353 0.000000 0.029140 0.000000
# 6 0.000000 0.000000 0.000000 -0.000219 0.000000 0.027302
#
#
# Mechanical properties :
#
#
# Convention : Reuss Voigt Hill
#
# Bulk Modulus (GPa) = 41.39403 70.28370 55.83886
# Shear Modulus (GPa) = 38.30402 44.15444 41.22923
#
# Velocity S-wave (km/s) = 3.93035 4.21984 4.07767
# Velocity P-wave (km/s) = 6.10661 7.21717 6.68499
#
# Compressibility (1/GPa) = 0.02415807
#
# Stress axis : x y z
#
# Youngs Moduli (GPa) = 80.99820 68.04064 166.76886
#
# Poissons Ratio (x) = -0.04161 0.62641
# Poissons Ratio (y) = -0.04953 0.21613
# Poissons Ratio (z) = 0.30424 0.08818
#
# Static dielectric constant tensor:
#      x y z
#    x 2.045250 0.000000 0.080090 
#    y 0.000000 2.112310 0.000000 
#    z 0.080090 0.000000 2.014400 
# 
# From -- ./inp_files/186280.got.cif
#   From: 2010.05.17/outbox.cif.g08.bks.cpg/sg15_94_cif.got.tgz:186280.got - 2010.06.03 18:47:42.
