data_PCOD9299874
_publ_section_title
;
Structure prediction by ZEFSAII (Michael W. Deem and Ramdas Pophale) SiO2 
 PCOD9299874
Probable space group: C 2/C
;
_chemical_formula_sum "Si O2"
_cell_formula_units_Z 40
_cell_length_a 4.740513
_cell_length_b 18.982022
_cell_length_c 17.357977
_cell_angle_alpha 90.000000
_cell_angle_beta 91.980955
_cell_angle_gamma 90.000000
_cell_volume 1561.015800
_symmetry_space_group_name_H-M "C 2/C"
_symmetry_group_IT_number 15
_symmetry_cell_setting 'monoclinic'
loop_
_space_group_symop_operation_xyz
x,y,z
-x,y,1/2-z
-x,-y,-z
x,-y,1/2+z
1/2+x,1/2+y,z
1/2-x,1/2+y,1/2-z
1/2-x,1/2-y,-z
1/2+x,1/2-y,1/2+z
loop_
_atom_site_type_symbol
_atom_site_label
_atom_site_fract_x
_atom_site_fract_y
_atom_site_fract_z
Si Si1 0.750000 0.750000 0.000000
Si Si2 0.538284 0.016604 0.589371
Si Si3 0.042959 0.054403 0.159225
Si Si4 0.842452 0.334190 0.389447
Si Si5 0.000000 0.777656 0.250000
Si Si6 0.272119 0.299530 0.610509
O O1 0.625664 0.673778 0.957277
O O2 0.498024 0.797065 0.945865
O O3 0.861103 0.007105 0.617753
O O4 0.361421 0.962407 0.639130
O O5 0.500000 0.000000 0.500000
O O6 0.469111 0.097792 0.606415
O O7 0.924274 0.126990 0.124529
O O8 0.000000 0.053861 0.250000
O O9 0.702546 0.323501 0.305866
O O10 0.989318 0.257842 0.415141
O O11 0.176703 0.729973 0.193000
#
# Coordination Sequence:
#
# PCOD9299874 Si02
#       6
#     4   8   8   8   4   8
#     4   8  22  46  68 102 150 184 252 312 384 448
#     4  12  29  51  77 112 158 204 258 320 395 470
#     4  12  28  49  80 112 158 207 259 321 393 469
#     4  10  25  47  74 109 151 201 257 321 385 464
#     4  12  24  40  84 110 150 198 276 326 390 462
#     4  10  25  47  76 110 150 200 264 321 389 466
#
# _framework density 25.624338999999999
#
# number of rings (size 3 to 8) (size 9 to 14) (size 15 to 20)
#    1.200    0.000    0.000    4.200    9.800    2.400 
#    0.000    0.000    0.000    0.000    0.000    0.000 
#    0.000    0.000    0.000    0.000    0.000    0.000 
#
# Total GULP energy -111825.906266 kJ/mol
# GULP energy per Si atom -5591.295313 kJ/mol
# Density = 2.556602 g / cm^3
# Si number density = 25.624339 Si / 1000 Ang^3
#
#
#
# Elastic Constant Matrix: (Units=GPa)
#
#
# Indices 1 2 3 4 5 6 
#
# 1 78.6484 39.6351 25.5022 0.0000 -1.6191 0.0000
# 2 39.6351 148.3466 56.8278 0.0000 6.4588 0.0000
# 3 25.5022 56.8278 202.6801 0.0000 6.3256 0.0000
# 4 0.0000 0.0000 0.0000 26.7356 0.0000 11.9800
# 5 -1.6191 6.4588 6.3256 0.0000 54.2749 0.0000
# 6 0.0000 0.0000 0.0000 11.9800 0.0000 50.4381
#
#
#
# Elastic Compliance Matrix: (Units=1/GPa)
#
#
# Indices 1 2 3 4 5 6 
#
# 1 0.014873 -0.003684 -0.000869 0.000000 0.000983 0.000000
# 2 -0.003684 0.008488 -0.001888 0.000000 -0.000900 0.000000
# 3 -0.000869 -0.001888 0.005587 0.000000 -0.000452 0.000000
# 4 0.000000 0.000000 0.000000 0.041858 0.000000 -0.009942
# 5 0.000983 -0.000900 -0.000452 0.000000 0.018614 0.000000
# 6 0.000000 0.000000 0.000000 -0.009942 0.000000 0.022188
#
#
# Mechanical properties :
#
#
# Convention : Reuss Voigt Hill
#
# Bulk Modulus (GPa) = 62.24524 74.84502 68.54513
# Shear Modulus (GPa) = 38.50739 46.80372 42.65556
#
# Velocity S-wave (km/s) = 3.88076 4.27843 4.08444
# Velocity P-wave (km/s) = 6.66518 7.32657 7.00368
#
# Compressibility (1/GPa) = 0.01606549
#
# Stress axis : x y z
#
# Youngs Moduli (GPa) = 67.23447 117.81801 178.99333
#
# Poissons Ratio (x) = 0.43400 0.15560
# Poissons Ratio (y) = 0.24767 0.33798
# Poissons Ratio (z) = 0.05845 0.22247
#
# Static dielectric constant tensor:
#      x y z
#    x 2.121050 0.000000 -0.110360 
#    y 0.000000 2.039580 0.000000 
#    z -0.110360 0.000000 1.997640 
# 
# From -- ./inp_files/184430.got.cif
#   From: 2010.05.17/outbox.cif.g08.bks.cpg/sg15_93_cif.got.tgz:184430.got - 2010.06.03 18:47:42.
