data_PCOD9299647
_publ_section_title
;
Structure prediction by ZEFSAII (Michael W. Deem and Ramdas Pophale) SiO2 
 PCOD9299647
Probable space group: C 2/C
;
_chemical_formula_sum "Si O2"
_cell_formula_units_Z 48
_cell_length_a 11.586386
_cell_length_b 10.699849
_cell_length_c 19.999936
_cell_angle_alpha 90.000000
_cell_angle_beta 54.016033
_cell_angle_gamma 90.000000
_cell_volume 2006.319811
_symmetry_space_group_name_H-M "C 2/C"
_symmetry_group_IT_number 15
_symmetry_cell_setting 'monoclinic'
loop_
_space_group_symop_operation_xyz
x,y,z
-x,y,1/2-z
-x,-y,-z
x,-y,1/2+z
1/2+x,1/2+y,z
1/2-x,1/2+y,1/2-z
1/2-x,1/2-y,-z
1/2+x,1/2-y,1/2+z
loop_
_atom_site_type_symbol
_atom_site_label
_atom_site_fract_x
_atom_site_fract_y
_atom_site_fract_z
Si Si1 0.562310 0.983366 0.155077
Si Si2 0.624050 0.898256 0.902798
Si Si3 0.975426 0.182395 0.649064
Si Si4 0.713146 0.348376 0.163902
Si Si5 0.870594 0.011840 0.494621
Si Si6 0.527142 0.222786 0.573037
O O1 0.500000 0.004824 0.250000
O O2 0.549597 0.838079 0.137712
O O3 0.471217 0.046760 0.126320
O O4 0.725407 0.013134 0.082781
O O5 0.621384 0.758701 0.871077
O O6 0.739312 0.009705 0.873163
O O7 0.569384 0.867960 0.996192
O O8 0.861395 0.127969 0.739475
O O9 0.099508 0.230436 0.658288
O O10 0.081454 0.089587 0.575105
O O11 0.856609 0.267004 0.121594
O O12 0.882236 0.151663 0.462336
O O13 0.000000 0.000000 0.500000
#
# Coordination Sequence:
#
# PCOD9299647 Si02
#       6
#     8   8   8   8   8   8
#     4  11  27  46  73 105 142 189 245 303 371 443
#     4  11  24  46  74  98 146 192 242 301 373 440
#     4  11  25  45  71 106 146 188 248 302 369 438
#     4  10  25  44  71 106 140 194 245 305 365 440
#     4  12  26  43  69 106 143 187 242 297 368 443
#     4  11  24  46  73  97 146 188 243 296 375 437
#
# _framework density 23.924402000000001
#
# number of rings (size 3 to 8) (size 9 to 14) (size 15 to 20)
#    0.000    1.000    1.667    4.500   11.667    1.333 
#    3.000    0.000    0.000    0.000    0.000    0.000 
#    0.000    0.000    0.000    0.000    0.000    0.000 
#
# Total GULP energy -133678.820484 kJ/mol
# GULP energy per Si atom -5569.950854 kJ/mol
# Density = 2.386995 g / cm^3
# Si number density = 23.924402 Si / 1000 Ang^3
#
#
#
# Elastic Constant Matrix: (Units=GPa)
#
#
# Indices 1 2 3 4 5 6 
#
# 1 72.3465 -1.6115 25.1464 0.0000 1.3168 0.0000
# 2 -1.6115 67.7853 40.8937 0.0000 1.5299 0.0000
# 3 25.1464 40.8937 174.9681 0.0000 -1.3489 0.0000
# 4 0.0000 0.0000 0.0000 8.0654 0.0000 18.2877
# 5 1.3168 1.5299 -1.3489 0.0000 38.9906 0.0000
# 6 0.0000 0.0000 0.0000 18.2877 0.0000 26.9943
#
#
#
# Elastic Compliance Matrix: (Units=1/GPa)
#
#
# Indices 1 2 3 4 5 6 
#
# 1 0.014773 0.001921 -0.002577 0.000000 -0.000663 0.000000
# 2 0.001921 0.017450 -0.004361 0.000000 -0.000900 0.000000
# 3 -0.002577 -0.004361 0.007109 0.000000 0.000504 0.000000
# 4 0.000000 0.000000 0.000000 -0.231276 0.000000 0.156682
# 5 -0.000663 -0.000900 0.000504 0.000000 0.025722 0.000000
# 6 0.000000 0.000000 0.000000 0.156682 0.000000 -0.069101
#
#
# Mechanical properties :
#
#
# Convention : Reuss Voigt Hill
#
# Bulk Modulus (GPa) = 34.13397 49.32858 41.73127
# Shear Modulus (GPa) = -23.19935 31.52149 4.16107
#
# Velocity S-wave (km/s) = -3.11737 3.63374 1.32024
# Velocity P-wave (km/s) = 1.15805 6.18617 4.45027
#
# Compressibility (1/GPa) = 0.02929633
#
# Stress axis : x y z
#
# Youngs Moduli (GPa) = 67.69083 57.30794 140.66747
#
# Poissons Ratio (x) = -0.11009 0.36254
# Poissons Ratio (y) = -0.13003 0.61350
# Poissons Ratio (z) = 0.17446 0.24994
#
# Static dielectric constant tensor:
#      x y z
#    x 2.144720 0.000000 0.221380 
#    y 0.000000 -0.403680 0.000000 
#    z 0.221380 0.000000 2.079790 
# 
# From -- ./inp_files/237409.got.cif
#   From: 2010.05.17/outbox.cif.g08.bks.cpg/sg15_119_cif.got.tgz:237409.got - 2010.06.03 18:47:42.
