data_PCOD9299894
_publ_section_title
;
Structure prediction by ZEFSAII (Michael W. Deem and Ramdas Pophale) SiO2 
 PCOD9299894
Probable space group: C 2/C
;
_chemical_formula_sum "Si O2"
_cell_formula_units_Z 44
_cell_length_a 22.890056
_cell_length_b 11.740583
_cell_length_c 7.985190
_cell_angle_alpha 90.000000
_cell_angle_beta 77.856863
_cell_angle_gamma 90.000000
_cell_volume 2097.945173
_symmetry_space_group_name_H-M "C 2/C"
_symmetry_group_IT_number 15
_symmetry_cell_setting 'monoclinic'
loop_
_space_group_symop_operation_xyz
x,y,z
-x,y,1/2-z
-x,-y,-z
x,-y,1/2+z
1/2+x,1/2+y,z
1/2-x,1/2+y,1/2-z
1/2-x,1/2-y,-z
1/2+x,1/2-y,1/2+z
loop_
_atom_site_type_symbol
_atom_site_label
_atom_site_fract_x
_atom_site_fract_y
_atom_site_fract_z
Si Si1 0.058002 0.581813 0.955737
Si Si2 0.742323 0.380408 0.964814
Si Si3 0.000000 0.762317 0.750000
Si Si4 0.163879 0.966468 0.725392
Si Si5 0.898065 0.847921 0.040856
Si Si6 0.126829 0.614700 0.247222
O O1 0.107839 0.495539 0.861900
O O2 0.043797 0.680428 0.831069
O O3 0.080045 0.627420 0.121214
O O4 0.000000 0.500000 0.000000
O O5 0.689318 0.394458 0.862621
O O6 0.807182 0.411764 0.858070
O O7 0.750000 0.250000 0.000000
O O8 0.718533 0.453288 0.134309
O O9 0.961635 0.830961 0.910613
O O10 0.145206 0.886867 0.583838
O O11 0.110707 0.050199 0.819225
O O12 0.878591 0.729285 0.138641
#
# Coordination Sequence:
#
# PCOD9299894 Si02
#       6
#     8   8   4   8   8   8
#     4  12  23  42  67 105 142 167 218 286 331 412
#     4  11  23  44  70 100 132 182 219 281 338 404
#     4  12  26  42  70 100 130 180 224 270 350 392
#     4  10  25  48  65  97 141 168 238 277 329 403
#     4  11  25  44  70  96 132 184 220 286 328 402
#     4  12  23  42  70 102 138 176 221 272 351 392
#
# _framework density 20.972905000000001
#
# number of rings (size 3 to 8) (size 9 to 14) (size 15 to 20)
#    0.000    0.727    5.455    1.091    2.545    1.455 
#    3.273    0.000    0.000    0.000    0.000    0.000 
#    0.000    0.000    0.000    0.000    0.000    0.000 
#
# Total GULP energy -122946.692683 kJ/mol
# GULP energy per Si atom -5588.486031 kJ/mol
# Density = 2.092517 g / cm^3
# Si number density = 20.972905 Si / 1000 Ang^3
#
#
#
# Elastic Constant Matrix: (Units=GPa)
#
#
# Indices 1 2 3 4 5 6 
#
# 1 62.2961 49.1852 32.5464 0.0000 -19.9500 0.0000
# 2 49.1852 117.0148 61.3211 0.0000 -1.6918 0.0000
# 3 32.5464 61.3211 104.8007 0.0000 -7.7879 0.0000
# 4 0.0000 0.0000 0.0000 38.6004 0.0000 5.2603
# 5 -19.9500 -1.6918 -7.7879 0.0000 56.1941 0.0000
# 6 0.0000 0.0000 0.0000 5.2603 0.0000 28.0076
#
#
#
# Elastic Compliance Matrix: (Units=1/GPa)
#
#
# Indices 1 2 3 4 5 6 
#
# 1 0.028767 -0.011027 -0.001765 0.000000 0.009636 0.000000
# 2 -0.011027 0.016575 -0.006595 0.000000 -0.004330 0.000000
# 3 -0.001765 -0.006595 0.014032 0.000000 0.001119 0.000000
# 4 0.000000 0.000000 0.000000 0.026587 0.000000 -0.004993
# 5 0.009636 -0.004330 0.001119 0.000000 0.021241 0.000000
# 6 0.000000 0.000000 0.000000 -0.004993 0.000000 0.036642
#
#
# Mechanical properties :
#
#
# Convention : Reuss Voigt Hill
#
# Bulk Modulus (GPa) = 48.54809 63.35745 55.95277
# Shear Modulus (GPa) = 26.38698 33.96434 30.17566
#
# Velocity S-wave (km/s) = 3.55088 4.02859 3.79726
# Velocity P-wave (km/s) = 6.32534 7.20515 6.77953
#
# Compressibility (1/GPa) = 0.02059813
#
# Stress axis : x y z
#
# Youngs Moduli (GPa) = 34.76189 60.33269 71.26330
#
# Poissons Ratio (x) = 0.66531 0.12581
# Poissons Ratio (y) = 0.38333 0.47001
# Poissons Ratio (z) = 0.06137 0.39792
#
# Static dielectric constant tensor:
#      x y z
#    x 1.485600 0.000000 0.237580 
#    y 0.000000 1.723640 0.000000 
#    z 0.237580 0.000000 1.604550 
# 
# From -- ./inp_files/54446.got.cif
#   From: 2010.05.17/outbox.cif.g08.bks.cpg/sg15_28_cif.got.tgz:54446.got - 2010.06.03 18:47:42.
