data_PCOD9299049
_publ_section_title
;
Structure prediction by ZEFSAII (Michael W. Deem and Ramdas Pophale) SiO2 
 PCOD9299049
Probable space group: C 2/C
;
_chemical_formula_sum "Si O2"
_cell_formula_units_Z 40
_cell_length_a 17.898255
_cell_length_b 9.506187
_cell_length_c 10.294982
_cell_angle_alpha 90.000000
_cell_angle_beta 121.366107
_cell_angle_gamma 90.000000
_cell_volume 1495.645675
_symmetry_space_group_name_H-M "C 2/C"
_symmetry_group_IT_number 15
_symmetry_cell_setting 'monoclinic'
loop_
_space_group_symop_operation_xyz
x,y,z
-x,y,1/2-z
-x,-y,-z
x,-y,1/2+z
1/2+x,1/2+y,z
1/2-x,1/2+y,1/2-z
1/2-x,1/2-y,-z
1/2+x,1/2-y,1/2+z
loop_
_atom_site_type_symbol
_atom_site_label
_atom_site_fract_x
_atom_site_fract_y
_atom_site_fract_z
Si Si1 0.913429 0.919749 0.965063
Si Si2 0.184119 0.703169 0.178663
Si Si3 0.310087 0.541170 0.633117
Si Si4 0.509707 0.155545 0.561936
Si Si5 0.680716 0.912945 0.334255
O O1 0.937437 0.755898 0.989792
O O2 0.850452 0.953148 0.787686
O O3 0.872221 0.965343 0.063168
O O4 0.000000 0.000000 0.000000
O O5 0.218272 0.523291 0.001550
O O6 0.190905 0.800415 0.315124
O O7 0.253846 0.789839 0.153535
O O8 0.186896 0.545255 0.240552
O O9 0.411783 0.218055 0.474246
O O10 0.580735 0.140855 0.742460
O O11 0.500000 0.000000 0.500000
#
# Coordination Sequence:
#
# PCOD9299049 Si02
#       5
#     8   8   8   8   8
#     4  12  24  45  80 110 156 209 264 323 394 478
#     4  11  24  48  76 111 154 207 259 325 400 474
#     4  12  24  45  78 113 153 205 269 317 396 473
#     4  10  24  46  75 113 157 201 263 329 402 468
#     4  11  24  45  77 110 154 203 262 326 393 473
#
# _framework density 26.744304
#
# number of rings (size 3 to 8) (size 9 to 14) (size 15 to 20)
#    0.000    0.800    4.000    2.400    0.000    0.800 
#    0.000    0.000   35.200    0.000    0.000    0.000 
#    0.000    0.000    0.000    0.000    0.000    0.000 
#
# Total GULP energy -112008.039788 kJ/mol
# GULP energy per Si atom -5600.401989 kJ/mol
# Density = 2.668343 g / cm^3
# Si number density = 26.744304 Si / 1000 Ang^3
#
#
#
# Elastic Constant Matrix: (Units=GPa)
#
#
# Indices 1 2 3 4 5 6 
#
# 1 178.2261 38.8411 75.3931 0.0000 43.2900 0.0000
# 2 38.8411 152.8203 9.4601 0.0000 1.7721 0.0000
# 3 75.3931 9.4601 162.0248 0.0000 8.6895 0.0000
# 4 0.0000 0.0000 0.0000 41.3844 0.0000 23.6648
# 5 43.2900 1.7721 8.6895 0.0000 67.2478 0.0000
# 6 0.0000 0.0000 0.0000 23.6648 0.0000 37.5674
#
#
#
# Elastic Compliance Matrix: (Units=1/GPa)
#
#
# Indices 1 2 3 4 5 6 
#
# 1 0.008879 -0.001965 -0.003739 0.000000 -0.005181 0.000000
# 2 -0.001965 0.007003 0.000451 0.000000 0.001022 0.000000
# 3 -0.003739 0.000451 0.007811 0.000000 0.001386 0.000000
# 4 0.000000 0.000000 0.000000 0.037768 0.000000 -0.023791
# 5 -0.005181 0.001022 0.001386 0.000000 0.018000 0.000000
# 6 0.000000 0.000000 0.000000 -0.023791 0.000000 0.041606
#
#
# Mechanical properties :
#
#
# Convention : Reuss Voigt Hill
#
# Bulk Modulus (GPa) = 75.83469 82.27333 79.05401
# Shear Modulus (GPa) = 36.77284 53.86506 45.31895
#
# Velocity S-wave (km/s) = 3.71209 4.49271 4.12093
# Velocity P-wave (km/s) = 6.84031 7.59884 7.22953
#
# Compressibility (1/GPa) = 0.01318658
#
# Stress axis : x y z
#
# Youngs Moduli (GPa) = 112.62194 142.78853 128.02269
#
# Poissons Ratio (x) = 0.28061 0.47869
# Poissons Ratio (y) = 0.22133 -0.05770
# Poissons Ratio (z) = 0.42110 -0.06436
#
# Static dielectric constant tensor:
#      x y z
#    x 2.327730 0.000000 0.010440 
#    y 0.000000 2.245660 0.000000 
#    z 0.010440 0.000000 2.167120 
# 
# From -- ./inp_files/102762.got.cif
#   From: 2010.05.17/outbox.cif.g08.bks.cpg/sg15_52_cif.got.tgz:102762.got - 2010.06.03 18:47:42.
