data_PCOD9299632
_publ_section_title
;
Structure prediction by ZEFSAII (Michael W. Deem and Ramdas Pophale) SiO2 
 PCOD9299632
Probable space group: C 2/C
;
_chemical_formula_sum "Si O2"
_cell_formula_units_Z 24
_cell_length_a 26.881929
_cell_length_b 5.379365
_cell_length_c 6.755691
_cell_angle_alpha 90.000000
_cell_angle_beta 59.826460
_cell_angle_gamma 90.000000
_cell_volume 844.558505
_symmetry_space_group_name_H-M "C 2/C"
_symmetry_group_IT_number 15
_symmetry_cell_setting 'monoclinic'
loop_
_space_group_symop_operation_xyz
x,y,z
-x,y,1/2-z
-x,-y,-z
x,-y,1/2+z
1/2+x,1/2+y,z
1/2-x,1/2+y,1/2-z
1/2-x,1/2-y,-z
1/2+x,1/2-y,1/2+z
loop_
_atom_site_type_symbol
_atom_site_label
_atom_site_fract_x
_atom_site_fract_y
_atom_site_fract_z
Si Si1 0.711740 0.494343 0.576521
Si Si2 0.120255 0.000000 0.509490
Si Si3 0.462480 0.244023 0.075040
O O1 0.750000 0.250000 0.500000
O O2 0.806438 0.000000 0.637123
O O3 0.637093 0.441429 0.725814
O O4 0.750000 0.750000 0.500000
O O5 0.079809 0.231028 0.651226
O O6 0.079809 0.768972 0.529537
O O7 0.500000 0.500000 0.000000
O O8 0.500000 0.000000 0.000000
#
# Coordination Sequence:
#
# PCOD9299632 Si02
#       3
#     8   8   8
#     4  11  24  43  69 102 139 182 234 294 360 436
#     4  10  25  44  70 102 140 186 237 296 362 430
#     4  11  26  45  68 100 140 186 240 298 357 428
#
# _framework density 28.417211999999999
#
# number of rings (size 3 to 8) (size 9 to 14) (size 15 to 20)
#    0.000    1.333    0.000    3.000    0.000   21.333 
#    0.000    5.000    0.000    0.000    0.000    0.000 
#    0.000    0.000    0.000    0.000    0.000    0.000 
#
# Total GULP energy -67038.701098 kJ/mol
# GULP energy per Si atom -5586.558425 kJ/mol
# Density = 2.835253 g / cm^3
# Si number density = 28.417212 Si / 1000 Ang^3
#
#
#
# Elastic Constant Matrix: (Units=GPa)
#
#
# Indices 1 2 3 4 5 6 
#
# 1 359.2331 150.3075 88.2356 0.0000 26.5833 0.0000
# 2 150.3075 296.2847 144.3466 0.0000 -38.5663 0.0000
# 3 88.2356 144.3466 365.8363 0.0000 16.1387 0.0000
# 4 0.0000 0.0000 0.0000 36.1737 0.0000 13.4678
# 5 26.5833 -38.5663 16.1387 0.0000 69.9780 0.0000
# 6 0.0000 0.0000 0.0000 13.4678 0.0000 34.0927
#
#
#
# Elastic Compliance Matrix: (Units=1/GPa)
#
#
# Indices 1 2 3 4 5 6 
#
# 1 0.004002 -0.002480 0.000142 0.000000 -0.002920 0.000000
# 2 -0.002480 0.006294 -0.002101 0.000000 0.004895 0.000000
# 3 0.000142 -0.002101 0.003619 0.000000 -0.002046 0.000000
# 4 0.000000 0.000000 0.000000 0.032411 0.000000 -0.012804
# 5 -0.002920 0.004895 -0.002046 0.000000 0.018569 0.000000
# 6 0.000000 0.000000 0.000000 -0.012804 0.000000 0.034390
#
#
# Mechanical properties :
#
#
# Convention : Reuss Voigt Hill
#
# Bulk Modulus (GPa) = 198.53458 198.57036 198.55247
# Shear Modulus (GPa) = 45.51977 70.61316 58.06647
#
# Velocity S-wave (km/s) = 4.00664 4.99026 4.52525
# Velocity P-wave (km/s) = 9.56138 10.16032 9.86540
#
# Compressibility (1/GPa) = 0.00503691
#
# Stress axis : x y z
#
# Youngs Moduli (GPa) = 249.84820 158.88164 276.34726
#
# Poissons Ratio (x) = 0.39396 -0.03919
# Poissons Ratio (y) = 0.61953 0.58069
# Poissons Ratio (z) = -0.03544 0.33386
#
# Static dielectric constant tensor:
#      x y z
#    x 2.395200 0.000000 0.220320 
#    y 0.000000 2.519620 0.000000 
#    z 0.220320 0.000000 2.429250 
# 
# From -- ./inp_files/108777.got.cif
#   From: 2010.05.17/outbox.cif.g08.bks.cpg/sg15_55_cif.got.tgz:108777.got - 2010.06.03 18:47:42.
