data_PCOD9299273
_publ_section_title
;
Structure prediction by ZEFSAII (Michael W. Deem and Ramdas Pophale) SiO2 
 PCOD9299273
Probable space group: C 2/C
;
_chemical_formula_sum "Si O2"
_cell_formula_units_Z 44
_cell_length_a 20.193877
_cell_length_b 5.291855
_cell_length_c 16.996291
_cell_angle_alpha 90.000000
_cell_angle_beta 107.384566
_cell_angle_gamma 90.000000
_cell_volume 1733.309878
_symmetry_space_group_name_H-M "C 2/C"
_symmetry_group_IT_number 15
_symmetry_cell_setting 'monoclinic'
loop_
_space_group_symop_operation_xyz
x,y,z
-x,y,1/2-z
-x,-y,-z
x,-y,1/2+z
1/2+x,1/2+y,z
1/2-x,1/2+y,1/2-z
1/2-x,1/2-y,-z
1/2+x,1/2-y,1/2+z
loop_
_atom_site_type_symbol
_atom_site_label
_atom_site_fract_x
_atom_site_fract_y
_atom_site_fract_z
Si Si1 0.250000 0.250000 0.000000
Si Si2 0.075366 0.870505 0.262881
Si Si3 0.652505 0.299121 0.682471
Si Si4 0.581638 0.029391 0.521257
Si Si5 0.794780 0.506117 0.161636
Si Si6 0.380020 0.461204 0.561892
O O1 0.208367 0.464707 0.932125
O O2 0.199029 0.031400 0.947062
O O3 0.089467 0.021062 0.187098
O O4 0.000000 0.747370 0.250000
O O5 0.139881 0.680477 0.290492
O O6 0.080813 0.055325 0.340971
O O7 0.620559 0.076839 0.618012
O O8 0.716185 0.405962 0.654080
O O9 0.690740 0.230877 0.777801
O O10 0.596137 0.287142 0.477686
O O11 0.500000 0.000000 0.500000
O O12 0.607611 0.776546 0.488700
#
# Coordination Sequence:
#
# PCOD9299273 Si02
#       6
#     4   8   8   8   8   8
#     4  10  24  48  72 104 150 194 250 308 388 456
#     4  11  27  47  73 106 154 197 258 316 389 460
#     4  12  26  44  77 107 149 198 259 320 379 461
#     4  12  28  49  78 109 155 202 259 319 392 464
#     4  11  25  45  73 108 143 197 253 313 384 455
#     4  11  27  48  75 109 149 201 253 312 388 466
#
# _framework density 25.384958999999998
#
# number of rings (size 3 to 8) (size 9 to 14) (size 15 to 20)
#    0.000    0.727    3.636    1.636   12.727    1.455 
#    0.000    0.000    0.000    0.000    0.000    0.000 
#    0.000    0.000    0.000    0.000    0.000    0.000 
#
# Total GULP energy -122473.012674 kJ/mol
# GULP energy per Si atom -5566.955122 kJ/mol
# Density = 2.532718 g / cm^3
# Si number density = 25.384959 Si / 1000 Ang^3
#
#
#
# Elastic Constant Matrix: (Units=GPa)
#
#
# Indices 1 2 3 4 5 6 
#
# 1 139.4411 39.1020 36.4478 0.0000 -1.8308 0.0000
# 2 39.1020 105.7136 18.5734 0.0000 -17.2361 0.0000
# 3 36.4478 18.5734 65.5531 0.0000 0.6826 0.0000
# 4 0.0000 0.0000 0.0000 38.2369 0.0000 -2.7005
# 5 -1.8308 -17.2361 0.6826 0.0000 17.1799 0.0000
# 6 0.0000 0.0000 0.0000 -2.7005 0.0000 17.2411
#
#
#
# Elastic Compliance Matrix: (Units=1/GPa)
#
#
# Indices 1 2 3 4 5 6 
#
# 1 0.009059 -0.002904 -0.004196 0.000000 -0.001782 0.000000
# 2 -0.002904 0.013014 -0.002206 0.000000 0.012835 0.000000
# 3 -0.004196 -0.002206 0.018248 0.000000 -0.003386 0.000000
# 4 0.000000 0.000000 0.000000 0.026445 0.000000 0.004142
# 5 -0.001782 0.012835 -0.003386 0.000000 0.071029 0.000000
# 6 0.000000 0.000000 0.000000 0.004142 0.000000 0.058650
#
#
# Mechanical properties :
#
#
# Convention : Reuss Voigt Hill
#
# Bulk Modulus (GPa) = 46.06344 55.43935 50.75140
# Shear Modulus (GPa) = 22.49280 28.97054 25.73167
#
# Velocity S-wave (km/s) = 2.97992 3.38190 3.18725
# Velocity P-wave (km/s) = 5.47953 6.09398 5.79490
#
# Compressibility (1/GPa) = 0.02170919
#
# Stress axis : x y z
#
# Youngs Moduli (GPa) = 110.38590 76.84026 54.80094
#
# Poissons Ratio (x) = 0.22316 0.22992
# Poissons Ratio (y) = 0.32058 0.12090
# Poissons Ratio (z) = 0.46312 0.16953
#
# Static dielectric constant tensor:
#      x y z
#    x 2.038270 0.000000 -0.032320 
#    y 0.000000 2.169220 0.000000 
#    z -0.032320 0.000000 2.055000 
# 
# From -- ./inp_files/212976.got.cif
#   From: 2010.05.17/outbox.cif.g08.bks.cpg/sg15_107_cif.got.tgz:212976.got - 2010.06.03 18:47:42.
