data_PCOD9299394
_publ_section_title
;
Structure prediction by ZEFSAII (Michael W. Deem and Ramdas Pophale) SiO2 
 PCOD9299394
Probable space group: C 2/C
;
_chemical_formula_sum "Si O2"
_cell_formula_units_Z 52
_cell_length_a 11.956052
_cell_length_b 8.566839
_cell_length_c 25.918215
_cell_angle_alpha 90.000000
_cell_angle_beta 123.775708
_cell_angle_gamma 90.000000
_cell_volume 2206.630433
_symmetry_space_group_name_H-M "C 2/C"
_symmetry_group_IT_number 15
_symmetry_cell_setting 'monoclinic'
loop_
_space_group_symop_operation_xyz
x,y,z
-x,y,1/2-z
-x,-y,-z
x,-y,1/2+z
1/2+x,1/2+y,z
1/2-x,1/2+y,1/2-z
1/2-x,1/2-y,-z
1/2+x,1/2-y,1/2+z
loop_
_atom_site_type_symbol
_atom_site_label
_atom_site_fract_x
_atom_site_fract_y
_atom_site_fract_z
Si Si1 0.725465 0.824314 0.306667
Si Si2 0.545075 0.311005 0.395162
Si Si3 0.362043 0.635442 0.127026
Si Si4 0.750000 0.250000 0.000000
Si Si5 0.873077 0.671796 0.834571
Si Si6 0.374640 0.857004 0.682288
Si Si7 0.952477 0.468696 0.545766
O O1 0.670490 0.667255 0.321096
O O2 0.688202 0.859476 0.237732
O O3 0.885315 0.839230 0.353099
O O4 0.651956 0.961288 0.318374
O O5 0.620992 0.462293 0.392361
O O6 0.583235 0.179912 0.363963
O O7 0.575934 0.216706 0.455322
O O8 0.502538 0.714700 0.146458
O O9 0.252729 0.722818 0.063926
O O10 0.827132 0.419471 0.026036
O O11 0.757997 0.764497 0.835462
O O12 0.929620 0.533476 0.885246
O O13 0.500000 0.808270 0.750000
O O14 0.000000 0.500000 0.500000
#
# Coordination Sequence:
#
# PCOD9299394 Si02
#       7
#     8   8   8   4   8   8   8
#     4  12  25  48  74 108 156 194 241 317 388 461
#     4  12  27  44  75 114 142 191 255 303 381 458
#     4  11  25  48  74 105 145 196 245 312 376 450
#     4  10  24  50  70 102 144 192 252 300 374 442
#     4  11  25  47  74 107 153 196 250 309 388 453
#     4  12  24  44  70 108 151 196 239 307 381 466
#     4  11  26  50  75 107 150 203 259 321 371 450
#
# _framework density 23.565341
#
# number of rings (size 3 to 8) (size 9 to 14) (size 15 to 20)
#    0.000    0.615    3.077    5.077    4.308    1.846 
#    2.769    2.308    0.000    0.000    0.000    0.000 
#    0.000    0.000    0.000    0.000    0.000    0.000 
#
# Total GULP energy -144775.149800 kJ/mol
# GULP energy per Si atom -5568.274992 kJ/mol
# Density = 2.351171 g / cm^3
# Si number density = 23.565341 Si / 1000 Ang^3
#
#
#
# Elastic Constant Matrix: (Units=GPa)
#
#
# Indices 1 2 3 4 5 6 
#
# 1 95.0029 32.3007 13.1662 0.0000 -10.1565 0.0000
# 2 32.3007 102.5401 20.0160 0.0000 -11.0316 0.0000
# 3 13.1662 20.0160 81.1979 0.0000 -21.2185 0.0000
# 4 0.0000 0.0000 0.0000 41.1664 0.0000 -15.0145
# 5 -10.1565 -11.0316 -21.2185 0.0000 41.4623 0.0000
# 6 0.0000 0.0000 0.0000 -15.0145 0.0000 72.6630
#
#
#
# Elastic Compliance Matrix: (Units=1/GPa)
#
#
# Indices 1 2 3 4 5 6 
#
# 1 0.011973 -0.003464 -0.000649 0.000000 0.001679 0.000000
# 2 -0.003464 0.011347 -0.001926 0.000000 0.001185 0.000000
# 3 -0.000649 -0.001926 0.014684 0.000000 0.006843 0.000000
# 4 0.000000 0.000000 0.000000 0.026272 0.000000 0.005429
# 5 0.001679 0.001185 0.006843 0.000000 0.028347 0.000000
# 6 0.000000 0.000000 0.000000 0.005429 0.000000 0.014884
#
#
# Mechanical properties :
#
#
# Convention : Reuss Voigt Hill
#
# Bulk Modulus (GPa) = 38.57063 45.52295 42.04679
# Shear Modulus (GPa) = 38.99362 45.27553 42.13458
#
# Velocity S-wave (km/s) = 4.07222 4.38799 4.23305
# Velocity P-wave (km/s) = 6.20594 6.71061 6.46320
#
# Compressibility (1/GPa) = 0.02592646
#
# Stress axis : x y z
#
# Youngs Moduli (GPa) = 83.51920 88.12936 68.10255
#
# Poissons Ratio (x) = 0.30531 0.04417
# Poissons Ratio (y) = 0.28934 0.13115
# Poissons Ratio (z) = 0.05417 0.16971
#
# Static dielectric constant tensor:
#      x y z
#    x 1.779230 0.000000 -0.177930 
#    y 0.000000 1.954590 0.000000 
#    z -0.177930 0.000000 1.225220 
# 
# From -- ./inp_files/291690.got.cif
#   From: 2010.05.17/outbox.cif.g08.bks.cpg/sg15_146_cif.got.tgz:291690.got - 2010.06.03 18:47:42.
