data_PCOD9299845
_publ_section_title
;
Structure prediction by ZEFSAII (Michael W. Deem and Ramdas Pophale) SiO2 
 PCOD9299845
Probable space group: C 2/C
;
_chemical_formula_sum "Si O2"
_cell_formula_units_Z 52
_cell_length_a 14.884375
_cell_length_b 28.344372
_cell_length_c 7.242204
_cell_angle_alpha 90.000000
_cell_angle_beta 46.064498
_cell_angle_gamma 90.000000
_cell_volume 2200.259309
_symmetry_space_group_name_H-M "C 2/C"
_symmetry_group_IT_number 15
_symmetry_cell_setting 'monoclinic'
loop_
_space_group_symop_operation_xyz
x,y,z
-x,y,1/2-z
-x,-y,-z
x,-y,1/2+z
1/2+x,1/2+y,z
1/2-x,1/2+y,1/2-z
1/2-x,1/2-y,-z
1/2+x,1/2-y,1/2+z
loop_
_atom_site_type_symbol
_atom_site_label
_atom_site_fract_x
_atom_site_fract_y
_atom_site_fract_z
Si Si1 0.390905 0.268503 0.751233
Si Si2 0.454945 0.372454 0.528482
Si Si3 0.897921 0.470349 0.032810
Si Si4 0.000000 0.371322 0.250000
Si Si5 0.276993 0.397141 0.282680
Si Si6 0.223249 0.432788 0.774165
Si Si7 0.900201 0.319920 0.038644
O O1 0.500000 0.260461 0.750000
O O2 0.402479 0.323417 0.683110
O O3 0.412849 0.235845 0.541608
O O4 0.250000 0.250000 0.000000
O O5 0.500000 0.365186 0.250000
O O6 0.577027 0.392975 0.454571
O O7 0.345067 0.410199 0.689477
O O8 0.810993 0.428126 0.226405
O O9 0.802668 0.513430 0.127888
O O10 0.000000 0.447886 0.750000
O O11 0.000000 0.500000 0.000000
O O12 0.899030 0.403381 0.497099
O O13 0.067557 0.339294 0.305088
O O14 0.248033 0.423570 0.519141
O O15 0.227941 0.343430 0.344910
O O16 0.000000 0.337333 0.750000
#
# Coordination Sequence:
#
# PCOD9299845 Si02
#       7
#     8   8   8   4   8   8   8
#     4  12  26  47  70 106 145 186 244 306 363 442
#     4  10  25  47  69  98 144 195 238 291 369 447
#     4  12  23  40  69 103 137 177 240 299 352 421
#     4  12  22  40  66 108 140 174 244 304 356 414
#     4  11  24  45  67 100 146 190 236 295 372 436
#     4  11  23  42  69 101 142 186 237 304 357 430
#     4  12  24  41  72 103 137 184 239 300 364 423
#
# _framework density 23.633579000000001
#
# number of rings (size 3 to 8) (size 9 to 14) (size 15 to 20)
#    0.000    0.615    4.615    3.692    0.000    0.615 
#    0.000    3.846    0.000    0.000    0.000    0.000 
#    0.000    0.000    0.000    0.000    0.000    0.000 
#
# Total GULP energy -145237.511576 kJ/mol
# GULP energy per Si atom -5586.058138 kJ/mol
# Density = 2.357979 g / cm^3
# Si number density = 23.633579 Si / 1000 Ang^3
#
#
#
# Elastic Constant Matrix: (Units=GPa)
#
#
# Indices 1 2 3 4 5 6 
#
# 1 90.2298 44.6519 51.8184 0.0000 -34.4506 0.0000
# 2 44.6519 146.4960 49.3672 0.0000 -26.8718 0.0000
# 3 51.8184 49.3672 149.7973 0.0000 -27.1284 0.0000
# 4 0.0000 0.0000 0.0000 38.0903 0.0000 -4.5143
# 5 -34.4506 -26.8718 -27.1284 0.0000 54.0925 0.0000
# 6 0.0000 0.0000 0.0000 -4.5143 0.0000 31.0096
#
#
#
# Elastic Compliance Matrix: (Units=1/GPa)
#
#
# Indices 1 2 3 4 5 6 
#
# 1 0.017612 -0.002625 -0.003775 0.000000 0.008019 0.000000
# 2 -0.002625 0.008476 -0.001568 0.000000 0.001753 0.000000
# 3 -0.003775 -0.001568 0.008713 0.000000 0.001187 0.000000
# 4 0.000000 0.000000 0.000000 0.026714 0.000000 0.003889
# 5 0.008019 0.001753 0.001187 0.000000 0.025060 0.000000
# 6 0.000000 0.000000 0.000000 0.003889 0.000000 0.032814
#
#
# Mechanical properties :
#
#
# Convention : Reuss Voigt Hill
#
# Bulk Modulus (GPa) = 53.00749 75.35537 64.18143
# Shear Modulus (GPa) = 35.30743 40.68419 37.99581
#
# Velocity S-wave (km/s) = 3.86936 4.15355 4.01397
# Velocity P-wave (km/s) = 6.51461 7.41328 6.97843
#
# Compressibility (1/GPa) = 0.01886526
#
# Stress axis : x y z
#
# Youngs Moduli (GPa) = 56.78088 117.97947 114.76887
#
# Poissons Ratio (x) = 0.30969 0.43324
# Poissons Ratio (y) = 0.14905 0.17995
# Poissons Ratio (z) = 0.21434 0.18499
#
# Static dielectric constant tensor:
#      x y z
#    x 2.147900 0.000000 0.112090 
#    y 0.000000 1.905720 0.000000 
#    z 0.112090 0.000000 1.993230 
# 
# From -- ./inp_files/44754.got.cif
#   From: 2010.05.17/outbox.cif.g08.bks.cpg/sg15_23_cif.got.tgz:44754.got - 2010.06.03 18:47:42.
