data_PCOD9299090
_publ_section_title
;
Structure prediction by ZEFSAII (Michael W. Deem and Ramdas Pophale) SiO2 
 PCOD9299090
Probable space group: C 2/C
;
_chemical_formula_sum "Si O2"
_cell_formula_units_Z 48
_cell_length_a 18.646247
_cell_length_b 7.912337
_cell_length_c 24.190619
_cell_angle_alpha 90.000000
_cell_angle_beta 149.757810
_cell_angle_gamma 90.000000
_cell_volume 1797.535163
_symmetry_space_group_name_H-M "C 2/C"
_symmetry_group_IT_number 15
_symmetry_cell_setting 'monoclinic'
loop_
_space_group_symop_operation_xyz
x,y,z
-x,y,1/2-z
-x,-y,-z
x,-y,1/2+z
1/2+x,1/2+y,z
1/2-x,1/2+y,1/2-z
1/2-x,1/2-y,-z
1/2+x,1/2-y,1/2+z
loop_
_atom_site_type_symbol
_atom_site_label
_atom_site_fract_x
_atom_site_fract_y
_atom_site_fract_z
Si Si1 0.926449 0.075600 0.306609
Si Si2 0.086054 0.698563 0.248452
Si Si3 0.500000 0.000000 0.000000
Si Si4 0.842861 0.601372 0.004046
Si Si5 0.617458 0.373146 0.605471
Si Si6 0.500000 0.796941 0.250000
Si Si7 0.274935 0.497204 0.971899
O O1 0.825824 0.103358 0.292808
O O2 0.943669 0.198169 0.266485
O O3 0.901740 0.890933 0.264923
O O4 0.074904 0.080133 0.439600
O O5 0.979699 0.609805 0.134562
O O6 0.861619 0.407083 0.141325
O O7 0.000000 0.707979 0.250000
O O8 0.611970 0.977262 0.022672
O O9 0.449171 0.187607 0.944147
O O10 0.730726 0.496079 0.964506
O O11 0.788378 0.795944 0.967806
O O12 0.500000 0.500000 0.500000
O O13 0.761839 0.386350 0.664869
#
# Coordination Sequence:
#
# PCOD9299090 Si02
#       7
#     8   8   4   8   8   4   8
#     4  11  26  51  78 132 171 224 300 365 439 539
#     4  11  27  52  88 121 164 237 296 358 444 540
#     4  12  28  52  80 120 172 230 268 372 438 518
#     4  10  25  48  77 116 160 218 296 347 430 523
#     4  12  30  54  87 127 178 226 296 377 449 530
#     4  12  24  46  86 124 176 228 290 374 446 526
#     4  10  24  46  79 118 164 223 289 358 430 525
#
# _framework density 26.703233999999998
#
# number of rings (size 3 to 8) (size 9 to 14) (size 15 to 20)
#    0.000    1.000    0.833    3.500   12.833    1.333 
#    6.000    0.000    0.000    0.000    0.000    0.000 
#    0.000    0.000    0.000    0.000    0.000    0.000 
#
# Total GULP energy -133784.259286 kJ/mol
# GULP energy per Si atom -5574.344137 kJ/mol
# Density = 2.664246 g / cm^3
# Si number density = 26.703234 Si / 1000 Ang^3
#
#
#
# Elastic Constant Matrix: (Units=GPa)
#
#
# Indices 1 2 3 4 5 6 
#
# 1 176.5974 35.6040 38.0009 0.0002 -32.1032 0.0000
# 2 35.6040 97.2580 17.4525 0.0001 -3.2909 0.0000
# 3 38.0009 17.4525 84.1234 0.0003 17.2108 0.0000
# 4 0.0002 0.0001 0.0003 29.8543 0.0001 4.2850
# 5 -32.1032 -3.2909 17.2108 0.0001 62.0113 0.0000
# 6 0.0000 0.0000 0.0000 4.2850 0.0000 46.1833
#
#
#
# Elastic Compliance Matrix: (Units=1/GPa)
#
#
# Indices 1 2 3 4 5 6 
#
# 1 0.007904 -0.001962 -0.004219 0.000000 0.005158 0.000000
# 2 -0.001962 0.011259 -0.001446 0.000000 -0.000017 0.000000
# 3 -0.004219 -0.001446 0.015432 0.000000 -0.006544 0.000000
# 4 0.000000 0.000000 0.000000 0.033948 0.000000 -0.003150
# 5 0.005158 -0.000017 -0.006544 0.000000 0.020612 0.000000
# 6 0.000000 0.000000 0.000000 -0.003150 0.000000 0.021945
#
#
# Mechanical properties :
#
#
# Convention : Reuss Voigt Hill
#
# Bulk Modulus (GPa) = 51.70323 60.01038 55.85681
# Shear Modulus (GPa) = 37.65060 45.40453 41.52756
#
# Velocity S-wave (km/s) = 3.75902 4.12799 3.94782
# Velocity P-wave (km/s) = 6.18422 6.72624 6.46091
#
# Compressibility (1/GPa) = 0.01934115
#
# Stress axis : x y z
#
# Youngs Moduli (GPa) = 126.52387 88.81747 64.80122
#
# Poissons Ratio (x) = 0.17424 0.27337
# Poissons Ratio (y) = 0.24821 0.09372
# Poissons Ratio (z) = 0.53376 0.12845
#
# Static dielectric constant tensor:
#      x y z
#    x 2.092760 0.000000 -0.018560 
#    y 0.000000 2.098090 0.000000 
#    z -0.018560 0.000000 2.399400 
# 
# From -- ./inp_files/279278.got.cif
#   From: 2010.05.17/outbox.cif.g08.bks.cpg/sg15_140_cif.got.tgz:279278.got - 2010.06.03 18:47:42.
