data_PCOD9299852
_publ_section_title
;
Structure prediction by ZEFSAII (Michael W. Deem and Ramdas Pophale) SiO2 
 PCOD9299852
Probable space group: C 2/C
;
_chemical_formula_sum "Si O2"
_cell_formula_units_Z 48
_cell_length_a 7.839433
_cell_length_b 26.790435
_cell_length_c 10.026118
_cell_angle_alpha 90.000000
_cell_angle_beta 84.071811
_cell_angle_gamma 90.000000
_cell_volume 2094.442510
_symmetry_space_group_name_H-M "C 2/C"
_symmetry_group_IT_number 15
_symmetry_cell_setting 'monoclinic'
loop_
_space_group_symop_operation_xyz
x,y,z
-x,y,1/2-z
-x,-y,-z
x,-y,1/2+z
1/2+x,1/2+y,z
1/2-x,1/2+y,1/2-z
1/2-x,1/2-y,-z
1/2+x,1/2-y,1/2+z
loop_
_atom_site_type_symbol
_atom_site_label
_atom_site_fract_x
_atom_site_fract_y
_atom_site_fract_z
Si Si1 0.994677 0.441007 0.476129
Si Si2 0.704414 0.406850 0.877236
Si Si3 0.250538 0.078499 0.776202
Si Si4 0.000000 0.750347 0.250000
Si Si5 0.539822 0.660736 0.923713
Si Si6 0.812602 0.182298 0.315605
Si Si7 0.500000 0.508880 0.250000
O O1 0.102534 0.419405 0.591782
O O2 0.102468 0.417449 0.345277
O O3 0.000000 0.500000 0.500000
O O4 0.807298 0.433471 0.424911
O O5 0.711582 0.372632 0.745482
O O6 0.584974 0.454570 0.853064
O O7 0.602017 0.374148 0.994604
O O8 0.145201 0.128838 0.806699
O O9 0.151206 0.031310 0.718780
O O10 0.038653 0.788502 0.126759
O O11 0.838861 0.716837 0.223492
O O12 0.673834 0.677002 0.027637
O O13 0.000000 0.200061 0.250000
#
# Coordination Sequence:
#
# PCOD9299852 Si02
#       7
#     8   8   8   4   8   8   4
#     4  11  24  42  61 101 141 181 233 280 334 410
#     4  11  23  44  68  96 137 185 227 289 351 421
#     4  11  26  41  67 101 136 188 228 281 345 411
#     4  12  25  46  74 100 136 186 233 300 370 414
#     4  11  24  48  69 101 137 176 242 287 351 430
#     4  10  25  47  71 105 134 180 238 293 363 427
#     4  12  21  42  66  94 136 184 225 270 340 410
#
# _framework density 22.917793
#
# number of rings (size 3 to 8) (size 9 to 14) (size 15 to 20)
#    0.000    1.000    4.167    3.000    4.667    4.000 
#    6.000    0.000    0.000    0.000    0.000    0.000 
#    0.000    0.000    0.000    0.000    0.000    0.000 
#
# Total GULP energy -133863.625560 kJ/mol
# GULP energy per Si atom -5577.651065 kJ/mol
# Density = 2.286563 g / cm^3
# Si number density = 22.917793 Si / 1000 Ang^3
#
#
#
# Elastic Constant Matrix: (Units=GPa)
#
#
# Indices 1 2 3 4 5 6 
#
# 1 76.6268 44.3160 27.7277 0.0000 32.5853 0.0000
# 2 44.3160 111.3811 34.2837 0.0000 18.7924 0.0000
# 3 27.7277 34.2837 96.3365 0.0000 26.6538 0.0000
# 4 0.0000 0.0000 0.0000 45.3686 0.0000 33.9437
# 5 32.5853 18.7924 26.6538 0.0000 44.6599 0.0000
# 6 0.0000 0.0000 0.0000 33.9437 0.0000 39.1925
#
#
#
# Elastic Compliance Matrix: (Units=1/GPa)
#
#
# Indices 1 2 3 4 5 6 
#
# 1 0.022846 -0.006659 -0.000442 0.000000 -0.013603 0.000000
# 2 -0.006659 0.012265 -0.002832 0.000000 0.001388 0.000000
# 3 -0.000442 -0.002832 0.013291 0.000000 -0.006418 0.000000
# 4 0.000000 0.000000 0.000000 0.062614 0.000000 -0.054229
# 5 -0.013603 0.001388 -0.006418 0.000000 0.035563 0.000000
# 6 0.000000 0.000000 0.000000 -0.054229 0.000000 0.072481
#
#
# Mechanical properties :
#
#
# Convention : Reuss Voigt Hill
#
# Bulk Modulus (GPa) = 35.04339 55.22213 45.13276
# Shear Modulus (GPa) = 20.12564 37.71200 28.91882
#
# Velocity S-wave (km/s) = 2.96660 4.06092 3.55611
# Velocity P-wave (km/s) = 5.20177 6.79236 6.04957
#
# Compressibility (1/GPa) = 0.02853605
#
# Stress axis : x y z
#
# Youngs Moduli (GPa) = 43.77146 81.53177 75.23781
#
# Poissons Ratio (x) = 0.54289 0.03327
# Poissons Ratio (y) = 0.29146 0.21310
# Poissons Ratio (z) = 0.01936 0.23092
#
# Static dielectric constant tensor:
#      x y z
#    x 2.032800 0.000000 0.125290 
#    y 0.000000 1.798260 0.000000 
#    z 0.125290 0.000000 2.003160 
# 
# From -- ./inp_files/79421.got.cif
#   From: 2010.05.17/outbox.cif.g08.bks.cpg/sg15_40_cif.got.tgz:79421.got - 2010.06.03 18:47:42.
