data_PCOD9299997
_publ_section_title
;
Structure prediction by ZEFSAII (Michael W. Deem and Ramdas Pophale) SiO2 
 PCOD9299997
Probable space group: C 2/C
;
_chemical_formula_sum "Si O2"
_cell_formula_units_Z 44
_cell_length_a 10.814369
_cell_length_b 21.620647
_cell_length_c 12.549063
_cell_angle_alpha 90.000000
_cell_angle_beta 132.197891
_cell_angle_gamma 90.000000
_cell_volume 2173.698636
_symmetry_space_group_name_H-M "C 2/C"
_symmetry_group_IT_number 15
_symmetry_cell_setting 'monoclinic'
loop_
_space_group_symop_operation_xyz
x,y,z
-x,y,1/2-z
-x,-y,-z
x,-y,1/2+z
1/2+x,1/2+y,z
1/2-x,1/2+y,1/2-z
1/2-x,1/2-y,-z
1/2+x,1/2-y,1/2+z
loop_
_atom_site_type_symbol
_atom_site_label
_atom_site_fract_x
_atom_site_fract_y
_atom_site_fract_z
Si Si1 0.804192 0.168069 0.984262
Si Si2 0.000000 0.747653 0.750000
Si Si3 0.145729 0.587109 0.075171
Si Si4 0.865952 0.949546 0.383256
Si Si5 0.769822 0.554623 0.915810
Si Si6 0.688321 0.936698 0.829987
O O1 0.666460 0.205857 0.836698
O O2 0.872982 0.111726 0.955457
O O3 0.704513 0.138525 0.027024
O O4 0.948895 0.210210 0.119208
O O5 0.199788 0.519710 0.061922
O O6 0.230660 0.593847 0.241334
O O7 0.947372 0.583947 0.982320
O O8 0.857533 0.936046 0.253679
O O9 0.698503 0.989805 0.310456
O O10 0.000000 0.000000 0.500000
O O11 0.720928 0.576537 0.005854
O O12 0.500000 0.920707 0.750000
#
# Coordination Sequence:
#
# PCOD9299997 Si02
#       6
#     8   4   8   8   8   8
#     4  11  22  41  57  86 120 154 213 241 296 358
#     4  10  26  38  60  82 114 178 202 248 280 342
#     4   9  17  30  58  76 112 152 186 249 273 364
#     4  11  23  31  55  85 122 160 176 258 315 353
#     4   9  17  31  49  86 113 154 185 214 320 368
#     4   9  18  32  50  84 113 153 187 216 311 377
#
# _framework density 20.241996
#
# number of rings (size 3 to 8) (size 9 to 14) (size 15 to 20)
#    0.000    2.182    1.818    2.182    6.364    0.727 
#    0.000    0.000    0.000    0.000    0.000   34.364 
#    0.000    0.000    0.000    0.000    0.000    0.000 
#
# Total GULP energy -122688.066535 kJ/mol
# GULP energy per Si atom -5576.730297 kJ/mol
# Density = 2.019592 g / cm^3
# Si number density = 20.241996 Si / 1000 Ang^3
#
#
#
# Elastic Constant Matrix: (Units=GPa)
#
#
# Indices 1 2 3 4 5 6 
#
# 1 51.3204 27.4479 55.9759 0.0000 -16.5215 0.0000
# 2 27.4479 89.1157 51.5934 0.0000 2.2065 0.0000
# 3 55.9759 51.5934 191.2625 0.0000 -9.2770 0.0000
# 4 0.0000 0.0000 0.0000 31.4600 0.0000 -0.0450
# 5 -16.5215 2.2065 -9.2770 0.0000 36.9812 0.0000
# 6 0.0000 0.0000 0.0000 -0.0450 0.0000 26.2061
#
#
#
# Elastic Compliance Matrix: (Units=1/GPa)
#
#
# Indices 1 2 3 4 5 6 
#
# 1 0.036976 -0.007003 -0.008211 0.000000 0.014877 0.000000
# 2 -0.007003 0.014733 -0.002145 0.000000 -0.004546 0.000000
# 3 -0.008211 -0.002145 0.008137 0.000000 -0.001499 0.000000
# 4 0.000000 0.000000 0.000000 0.031787 0.000000 0.000055
# 5 0.014877 -0.004546 -0.001499 0.000000 0.033582 0.000000
# 6 0.000000 0.000000 0.000000 0.000055 0.000000 0.038159
#
#
# Mechanical properties :
#
#
# Convention : Reuss Voigt Hill
#
# Bulk Modulus (GPa) = 39.79664 66.85921 53.32792
# Shear Modulus (GPa) = 24.21667 32.04156 28.12911
#
# Velocity S-wave (km/s) = 3.46259 3.98292 3.73183
# Velocity P-wave (km/s) = 5.97404 7.36567 6.70605
#
# Compressibility (1/GPa) = 0.02512775
#
# Stress axis : x y z
#
# Youngs Moduli (GPa) = 27.04439 67.87535 122.88987
#
# Poissons Ratio (x) = 0.47536 1.00903
# Poissons Ratio (y) = 0.18941 0.26360
# Poissons Ratio (z) = 0.22206 0.14560
#
# Static dielectric constant tensor:
#      x y z
#    x 1.803830 0.000000 0.059310 
#    y 0.000000 1.694080 0.000000 
#    z 0.059310 0.000000 1.836140 
# 
# From -- ./inp_files/89230.got.cif
#   From: 2010.05.17/outbox.cif.g08.bks.cpg/sg15_45_cif.got.tgz:89230.got - 2010.06.03 18:47:42.
