data_PCOD9299305
_publ_section_title
;
Structure prediction by ZEFSAII (Michael W. Deem and Ramdas Pophale) SiO2 
 PCOD9299305
Probable space group: C 2/C
;
_chemical_formula_sum "Si O2"
_cell_formula_units_Z 48
_cell_length_a 16.841666
_cell_length_b 11.080654
_cell_length_c 11.125370
_cell_angle_alpha 90.000000
_cell_angle_beta 76.667199
_cell_angle_gamma 90.000000
_cell_volume 2020.220304
_symmetry_space_group_name_H-M "C 2/C"
_symmetry_group_IT_number 15
_symmetry_cell_setting 'monoclinic'
loop_
_space_group_symop_operation_xyz
x,y,z
-x,y,1/2-z
-x,-y,-z
x,-y,1/2+z
1/2+x,1/2+y,z
1/2-x,1/2+y,1/2-z
1/2-x,1/2-y,-z
1/2+x,1/2-y,1/2+z
loop_
_atom_site_type_symbol
_atom_site_label
_atom_site_fract_x
_atom_site_fract_y
_atom_site_fract_z
Si Si1 0.169230 0.323047 0.384437
Si Si2 0.089459 0.762489 0.268983
Si Si3 0.673673 0.230214 0.616428
Si Si4 0.670260 0.610057 0.541542
Si Si5 0.903705 0.503127 0.764329
Si Si6 0.573988 0.596871 0.008663
O O1 0.201846 0.264946 0.247240
O O2 0.238029 0.370490 0.450048
O O3 0.131316 0.215471 0.473807
O O4 0.113311 0.429744 0.356393
O O5 0.125540 0.876048 0.184562
O O6 0.130318 0.632935 0.229738
O O7 0.080546 0.799720 0.408393
O O8 0.000000 0.747968 0.250000
O O9 0.750000 0.250000 0.500000
O O10 0.638108 0.093636 0.625616
O O11 0.597852 0.324564 0.620573
O O12 0.652775 0.489204 0.478490
O O13 0.000000 0.501985 0.750000
O O14 0.500000 0.500000 0.000000
#
# Coordination Sequence:
#
# PCOD9299305 Si02
#       6
#     8   8   8   8   8   8
#     4   9  24  45  70 101 147 194 255 304 390 451
#     4  11  24  45  70 106 145 194 251 312 386 458
#     4  10  24  48  75 109 150 204 255 318 388 475
#     4  11  24  43  67 104 147 195 239 323 378 472
#     4   9  23  45  76 104 145 192 259 315 372 470
#     4  12  27  42  74 111 154 196 250 319 395 464
#
# _framework density 23.759784
#
# number of rings (size 3 to 8) (size 9 to 14) (size 15 to 20)
#    1.000    0.667    1.667    1.000    4.667    6.667 
#    0.000    3.333    0.000    0.000    0.000    0.000 
#    0.000    0.000    0.000    0.000    0.000    0.000 
#
# Total GULP energy -133636.993308 kJ/mol
# GULP energy per Si atom -5568.208054 kJ/mol
# Density = 2.370571 g / cm^3
# Si number density = 23.759784 Si / 1000 Ang^3
#
#
#
# Elastic Constant Matrix: (Units=GPa)
#
#
# Indices 1 2 3 4 5 6 
#
# 1 84.4590 54.6622 29.9796 0.0000 16.2388 0.0000
# 2 54.6622 128.2689 22.6543 0.0000 17.2005 0.0000
# 3 29.9796 22.6543 69.5026 0.0000 15.0172 0.0000
# 4 0.0000 0.0000 0.0000 13.2715 0.0000 -22.1045
# 5 16.2388 17.2005 15.0172 0.0000 35.0818 0.0000
# 6 0.0000 0.0000 0.0000 -22.1045 0.0000 13.1620
#
#
#
# Elastic Compliance Matrix: (Units=1/GPa)
#
#
# Indices 1 2 3 4 5 6 
#
# 1 0.018527 -0.006560 -0.005174 0.000000 -0.003145 0.000000
# 2 -0.006560 0.010934 -0.000256 0.000000 -0.002215 0.000000
# 3 -0.005174 -0.000256 0.017805 0.000000 -0.005101 0.000000
# 4 0.000000 0.000000 0.000000 -0.041927 0.000000 -0.070412
# 5 -0.003145 -0.002215 -0.005101 0.000000 0.033230 0.000000
# 6 0.000000 0.000000 0.000000 -0.070412 0.000000 -0.042275
#
#
# Mechanical properties :
#
#
# Convention : Reuss Voigt Hill
#
# Bulk Modulus (GPa) = 42.94212 55.20251 49.07232
# Shear Modulus (GPa) = 178.34977 23.96535 101.15756
#
# Velocity S-wave (km/s) = 8.67333 3.17937 6.53204
# Velocity P-wave (km/s) = 10.88186 6.06316 8.80843
#
# Compressibility (1/GPa) = 0.02328716
#
# Stress axis : x y z
#
# Youngs Moduli (GPa) = 53.97631 91.45990 56.16322
#
# Poissons Ratio (x) = 0.59995 0.29057
# Poissons Ratio (y) = 0.35407 0.01437
# Poissons Ratio (z) = 0.27926 0.02339
#
# Static dielectric constant tensor:
#      x y z
#    x 1.945730 0.000000 0.002110 
#    y 0.000000 1.954800 0.000000 
#    z 0.002110 0.000000 1.947060 
# 
# From -- ./inp_files/103681.got.cif
#   From: 2010.05.17/outbox.cif.g08.bks.cpg/sg15_52_cif.got.tgz:103681.got - 2010.06.03 18:47:42.
