data_PCOD9299625
_publ_section_title
;
Structure prediction by ZEFSAII (Michael W. Deem and Ramdas Pophale) SiO2 
 PCOD9299625
Probable space group: C 2/C
;
_chemical_formula_sum "Si O2"
_cell_formula_units_Z 36
_cell_length_a 14.893621
_cell_length_b 10.184021
_cell_length_c 11.684156
_cell_angle_alpha 90.000000
_cell_angle_beta 73.239763
_cell_angle_gamma 90.000000
_cell_volume 1696.933091
_symmetry_space_group_name_H-M "C 2/C"
_symmetry_group_IT_number 15
_symmetry_cell_setting 'monoclinic'
loop_
_space_group_symop_operation_xyz
x,y,z
-x,y,1/2-z
-x,-y,-z
x,-y,1/2+z
1/2+x,1/2+y,z
1/2-x,1/2+y,1/2-z
1/2-x,1/2-y,-z
1/2+x,1/2-y,1/2+z
loop_
_atom_site_type_symbol
_atom_site_label
_atom_site_fract_x
_atom_site_fract_y
_atom_site_fract_z
Si Si1 0.982287 0.652388 0.481295
Si Si2 0.836048 0.756719 0.720697
Si Si3 0.500000 0.691836 0.750000
Si Si4 0.644087 0.300047 0.536996
Si Si5 0.167806 0.051979 0.824134
O O1 0.905022 0.707634 0.596976
O O2 0.000000 0.500000 0.500000
O O3 0.960848 0.709745 0.363108
O O4 0.082126 0.713328 0.476978
O O5 0.889000 0.778850 0.822231
O O6 0.752564 0.652152 0.766426
O O7 0.800897 0.903784 0.709115
O O8 0.579563 0.599365 0.779282
O O9 0.750000 0.250000 0.500000
O O10 0.642670 0.437118 0.469398
#
# Coordination Sequence:
#
# PCOD9299625 Si02
#       5
#     8   8   4   8   8
#     4  11  26  42  69 102 136 179 227 284 340 399
#     4  11  25  43  73  97 138 179 228 276 343 404
#     4  10  26  44  66 102 140 170 236 282 334 406
#     4   9  22  43  66  95 136 174 219 275 334 398
#     4  10  25  44  69 102 136 180 225 278 339 405
#
# _framework density 21.214742999999999
#
# number of rings (size 3 to 8) (size 9 to 14) (size 15 to 20)
#    0.000    1.778    0.000    0.667   18.667    4.444 
#    0.000    0.000    0.000    0.000    0.000    0.000 
#    0.000    0.000    0.000    0.000    0.000    0.000 
#
# Total GULP energy -100382.003035 kJ/mol
# GULP energy per Si atom -5576.777946 kJ/mol
# Density = 2.116646 g / cm^3
# Si number density = 21.214743 Si / 1000 Ang^3
#
#
#
# Elastic Constant Matrix: (Units=GPa)
#
#
# Indices 1 2 3 4 5 6 
#
# 1 85.7009 20.8974 30.0878 0.0000 -5.1002 0.0000
# 2 20.8974 156.0145 35.5844 0.0000 -6.7552 0.0000
# 3 30.0878 35.5844 158.0599 0.0000 1.2435 0.0000
# 4 0.0000 0.0000 0.0000 20.6739 0.0000 -17.0881
# 5 -5.1002 -6.7552 1.2435 0.0000 28.4318 0.0000
# 6 0.0000 0.0000 0.0000 -17.0881 0.0000 16.6462
#
#
#
# Elastic Compliance Matrix: (Units=1/GPa)
#
#
# Indices 1 2 3 4 5 6 
#
# 1 0.012845 -0.001124 -0.002209 0.000000 0.002134 0.000000
# 2 -0.001124 0.006935 -0.001359 0.000000 0.001506 0.000000
# 3 -0.002209 -0.001359 0.007061 0.000000 -0.001028 0.000000
# 4 0.000000 0.000000 0.000000 0.319256 0.000000 0.327730
# 5 0.002134 0.001506 -0.001028 0.000000 0.035957 0.000000
# 6 0.000000 0.000000 0.000000 0.327730 0.000000 0.396503
#
#
# Mechanical properties :
#
#
# Convention : Reuss Voigt Hill
#
# Bulk Modulus (GPa) = 57.28339 63.65717 60.47028
# Shear Modulus (GPa) = 6.29912 34.03077 20.16494
#
# Velocity S-wave (km/s) = 1.72501 4.00948 3.08639
# Velocity P-wave (km/s) = 5.57027 7.17675 6.42393
#
# Compressibility (1/GPa) = 0.01745707
#
# Stress axis : x y z
#
# Youngs Moduli (GPa) = 77.85072 144.18641 141.61767
#
# Poissons Ratio (x) = 0.16212 0.31281
# Poissons Ratio (y) = 0.08753 0.19249
# Poissons Ratio (z) = 0.17196 0.19598
#
# Static dielectric constant tensor:
#      x y z
#    x 1.736580 0.000000 0.011290 
#    y 0.000000 1.814940 0.000000 
#    z 0.011290 0.000000 1.902590 
# 
# From -- ./inp_files/102642.got.cif
#   From: 2010.05.17/outbox.cif.g08.bks.cpg/sg15_52_cif.got.tgz:102642.got - 2010.06.03 18:47:42.
