data_PCOD9299953
_publ_section_title
;
Structure prediction by ZEFSAII (Michael W. Deem and Ramdas Pophale) SiO2 
 PCOD9299953
Probable space group: C 2/C
;
_chemical_formula_sum "Si O2"
_cell_formula_units_Z 40
_cell_length_a 13.308510
_cell_length_b 13.014585
_cell_length_c 16.587307
_cell_angle_alpha 90.000000
_cell_angle_beta 146.748869
_cell_angle_gamma 90.000000
_cell_volume 1575.293934
_symmetry_space_group_name_H-M "C 2/C"
_symmetry_group_IT_number 15
_symmetry_cell_setting 'monoclinic'
loop_
_space_group_symop_operation_xyz
x,y,z
-x,y,1/2-z
-x,-y,-z
x,-y,1/2+z
1/2+x,1/2+y,z
1/2-x,1/2+y,1/2-z
1/2-x,1/2-y,-z
1/2+x,1/2-y,1/2+z
loop_
_atom_site_type_symbol
_atom_site_label
_atom_site_fract_x
_atom_site_fract_y
_atom_site_fract_z
Si Si1 0.309489 0.196869 0.762549
Si Si2 0.292737 0.820029 0.949014
Si Si3 0.791227 0.986456 0.882147
Si Si4 0.201246 0.946623 0.422863
Si Si5 0.971155 0.305555 0.827028
O O1 0.498044 0.201838 0.936760
O O2 0.326784 0.282346 0.705307
O O3 0.305491 0.090870 0.710396
O O4 0.126653 0.211604 0.692868
O O5 0.250000 0.750000 0.000000
O O6 0.270492 0.942074 0.940018
O O7 0.682212 0.894344 0.767723
O O8 0.792689 0.964107 0.977378
O O9 0.000000 0.000000 0.000000
O O10 0.000000 0.931640 0.250000
O O11 0.343157 0.851349 0.508890
O O12 0.000000 0.291619 0.750000
#
# Coordination Sequence:
#
# PCOD9299953 Si02
#       5
#     8   8   8   8   8
#     4  12  25  45  74 108 147 196 245 311 373 450
#     4  12  24  40  71 111 145 184 250 312 378 436
#     4  11  24  46  72 106 148 198 244 305 376 447
#     4  11  24  45  74 107 151 195 247 315 373 444
#     4  10  25  49  75 106 150 202 252 305 377 449
#
# _framework density 25.392085000000002
#
# number of rings (size 3 to 8) (size 9 to 14) (size 15 to 20)
#    0.000    0.800    4.000    3.000    2.800    2.400 
#    0.000   10.000    0.000    0.000    0.000    0.000 
#    0.000    0.000    0.000    0.000    0.000    0.000 
#
# Total GULP energy -112074.530241 kJ/mol
# GULP energy per Si atom -5603.726512 kJ/mol
# Density = 2.533429 g / cm^3
# Si number density = 25.392085 Si / 1000 Ang^3
#
#
#
# Elastic Constant Matrix: (Units=GPa)
#
#
# Indices 1 2 3 4 5 6 
#
# 1 106.7065 31.8642 25.0424 0.0003 4.1161 0.0002
# 2 31.8642 111.0303 39.8860 -0.0001 6.6943 0.0000
# 3 25.0424 39.8860 165.3198 0.0002 19.8006 0.0001
# 4 0.0003 -0.0001 0.0002 35.8733 -0.0002 12.5329
# 5 4.1161 6.6943 19.8006 -0.0002 38.4869 0.0000
# 6 0.0002 0.0000 0.0001 12.5329 0.0000 43.4815
#
#
#
# Elastic Compliance Matrix: (Units=1/GPa)
#
#
# Indices 1 2 3 4 5 6 
#
# 1 0.010381 -0.002640 -0.000914 0.000000 -0.000181 0.000000
# 2 -0.002640 0.010543 -0.002086 0.000000 -0.000478 0.000000
# 3 -0.000914 -0.002086 0.007071 0.000000 -0.003177 0.000000
# 4 0.000000 0.000000 0.000000 0.030997 0.000000 -0.008934
# 5 -0.000181 -0.000478 -0.003177 0.000000 0.027720 0.000000
# 6 0.000000 0.000000 0.000000 -0.008934 0.000000 0.025574
#
#
# Mechanical properties :
#
#
# Convention : Reuss Voigt Hill
#
# Bulk Modulus (GPa) = 59.82891 64.07133 61.95012
# Shear Modulus (GPa) = 38.71820 42.65259 40.68539
#
# Velocity S-wave (km/s) = 3.90912 4.10293 4.00720
# Velocity P-wave (km/s) = 6.63236 6.90891 6.77204
#
# Compressibility (1/GPa) = 0.01671433
#
# Stress axis : x y z
#
# Youngs Moduli (GPa) = 96.32674 94.85372 141.41763
#
# Poissons Ratio (x) = 0.25042 0.12925
# Poissons Ratio (y) = 0.25431 0.29505
# Poissons Ratio (z) = 0.08804 0.19790
#
# Static dielectric constant tensor:
#      x y z
#    x 1.974220 0.000000 0.018700 
#    y 0.000000 2.190510 0.000000 
#    z 0.018700 0.000000 1.956750 
# 
# From -- ./inp_files/205825.got.cif
#   From: 2010.05.17/outbox.cif.g08.bks.cpg/sg15_103_cif.got.tgz:205825.got - 2010.06.03 18:47:42.
