data_PCOD9299006
_publ_section_title
;
Structure prediction by ZEFSAII (Michael W. Deem and Ramdas Pophale) SiO2 
 PCOD9299006
Probable space group: C 2/C
;
_chemical_formula_sum "Si O2"
_cell_formula_units_Z 20
_cell_length_a 7.341386
_cell_length_b 23.468375
_cell_length_c 7.603967
_cell_angle_alpha 90.000000
_cell_angle_beta 38.441485
_cell_angle_gamma 90.000000
_cell_volume 814.502990
_symmetry_space_group_name_H-M "C 2/C"
_symmetry_group_IT_number 15
_symmetry_cell_setting 'monoclinic'
loop_
_space_group_symop_operation_xyz
x,y,z
-x,y,1/2-z
-x,-y,-z
x,-y,1/2+z
1/2+x,1/2+y,z
1/2-x,1/2+y,1/2-z
1/2-x,1/2-y,-z
1/2+x,1/2-y,1/2+z
loop_
_atom_site_type_symbol
_atom_site_label
_atom_site_fract_x
_atom_site_fract_y
_atom_site_fract_z
Si Si1 0.500000 0.637805 0.750000
Si Si2 0.785341 0.458252 0.258200
Si Si3 0.329871 0.288704 0.708192
O O1 0.289564 0.595281 0.804591
O O2 0.653966 0.673623 0.478396
O O3 0.500000 0.500000 0.500000
O O4 0.000000 0.436831 0.250000
O O5 0.000000 0.500000 0.000000
O O6 0.500000 0.313806 0.750000
O O7 0.514573 0.231969 0.513511
#
# Coordination Sequence:
#
# PCOD9299006 Si02
#       3
#     4   8   8
#     4  12  26  46  82 106 154 204 254 304 392 440
#     4  12  26  48  71 105 148 198 254 308 366 442
#     4  10  24  46  73 111 150 190 252 311 375 460
#
# _framework density 24.554852
#
# number of rings (size 3 to 8) (size 9 to 14) (size 15 to 20)
#    0.000    0.800    4.000    1.200    0.000   14.400 
#    0.000    0.000    0.000    0.000    0.000    0.000 
#    0.000    0.000    0.000    0.000    0.000    0.000 
#
# Total GULP energy -55931.088248 kJ/mol
# GULP energy per Si atom -5593.108825 kJ/mol
# Density = 2.449896 g / cm^3
# Si number density = 24.554852 Si / 1000 Ang^3
#
#
#
# Elastic Constant Matrix: (Units=GPa)
#
#
# Indices 1 2 3 4 5 6 
#
# 1 249.7154 66.3399 31.3761 0.0000 24.1690 0.0000
# 2 66.3399 76.0299 16.0424 0.0000 12.5185 0.0000
# 3 31.3761 16.0424 136.8204 0.0000 -4.6139 0.0000
# 4 0.0000 0.0000 0.0000 13.1193 0.0000 6.1725
# 5 24.1690 12.5185 -4.6139 0.0000 47.7450 0.0000
# 6 0.0000 0.0000 0.0000 6.1725 0.0000 57.0053
#
#
#
# Elastic Compliance Matrix: (Units=1/GPa)
#
#
# Indices 1 2 3 4 5 6 
#
# 1 0.005402 -0.004267 -0.000796 0.000000 -0.001693 0.000000
# 2 -0.004267 0.017542 -0.001164 0.000000 -0.002552 0.000000
# 3 -0.000796 -0.001164 0.007677 0.000000 0.001450 0.000000
# 4 0.000000 0.000000 0.000000 0.080315 0.000000 -0.008697
# 5 -0.001693 -0.002552 0.001450 0.000000 0.022611 0.000000
# 6 0.000000 0.000000 0.000000 -0.008697 0.000000 0.018484
#
#
# Mechanical properties :
#
#
# Convention : Reuss Voigt Hill
#
# Bulk Modulus (GPa) = 55.04583 76.67583 65.86083
# Shear Modulus (GPa) = 29.31875 46.82772 38.07324
#
# Velocity S-wave (km/s) = 3.45919 4.37173 3.94196
# Velocity P-wave (km/s) = 6.19846 7.53504 6.89919
#
# Compressibility (1/GPa) = 0.01816668
#
# Stress axis : x y z
#
# Youngs Moduli (GPa) = 185.12066 57.00725 130.26414
#
# Poissons Ratio (x) = 0.24324 0.10363
# Poissons Ratio (y) = 0.78988 0.15167
# Poissons Ratio (z) = 0.14727 0.06638
#
# Static dielectric constant tensor:
#      x y z
#    x -0.011590 0.000000 -0.082960 
#    y 0.000000 1.852350 0.000000 
#    z -0.082960 0.000000 1.894300 
# 
# From -- ./inp_files/1407.got.cif
#   From: 2010.05.17/outbox.cif.g08.bks.cpg/sg15_1_cif.got.tgz:1407.got - 2010.06.03 18:47:42.
