data_PCOD9299469
_publ_section_title
;
Structure prediction by ZEFSAII (Michael W. Deem and Ramdas Pophale) SiO2 
 PCOD9299469
Probable space group: C 2/C
;
_chemical_formula_sum "Si O2"
_cell_formula_units_Z 60
_cell_length_a 21.025069
_cell_length_b 8.414766
_cell_length_c 13.327101
_cell_angle_alpha 90.000000
_cell_angle_beta 109.541586
_cell_angle_gamma 90.000000
_cell_volume 2222.030220
_symmetry_space_group_name_H-M "C 2/C"
_symmetry_group_IT_number 15
_symmetry_cell_setting 'monoclinic'
loop_
_space_group_symop_operation_xyz
x,y,z
-x,y,1/2-z
-x,-y,-z
x,-y,1/2+z
1/2+x,1/2+y,z
1/2-x,1/2+y,1/2-z
1/2-x,1/2-y,-z
1/2+x,1/2-y,1/2+z
loop_
_atom_site_type_symbol
_atom_site_label
_atom_site_fract_x
_atom_site_fract_y
_atom_site_fract_z
Si Si1 0.099781 0.797117 0.621350
Si Si2 0.279794 0.029110 0.146709
Si Si3 0.445811 0.219493 0.562374
Si Si4 0.000000 0.854201 0.250000
Si Si5 0.243976 0.122299 0.829203
Si Si6 0.908002 0.619014 0.080487
Si Si7 0.817328 0.187360 0.126509
Si Si8 0.105070 0.127032 0.645686
O O1 0.112613 0.665425 0.543094
O O2 0.147617 0.797327 0.744006
O O3 0.021188 0.783177 0.610296
O O4 0.109167 0.971877 0.578216
O O5 0.238548 0.198952 0.121550
O O6 0.346129 0.081426 0.120968
O O7 0.284302 0.982525 0.267330
O O8 0.269439 0.846160 0.097244
O O9 0.382059 0.294862 0.587827
O O10 0.425236 0.232944 0.435040
O O11 0.450427 0.040100 0.599247
O O12 0.046498 0.754095 0.349088
O O13 0.055355 0.928684 0.207555
O O14 0.176223 0.163455 0.730404
O O15 0.219503 0.985280 0.894361
#
# Coordination Sequence:
#
# PCOD9299469 Si02
#       8
#     8   8   8   4   8   8   8   8
#     4  11  24  40  65  97 140 174 217 275 340 416
#     4  11  23  44  69  94 135 178 230 282 333 403
#     4  11  24  40  65  97 140 174 217 275 340 416
#     4  12  24  42  66 102 134 180 218 286 332 416
#     4  11  23  44  69  94 135 178 230 282 333 403
#     4  11  26  40  67  99 135 174 228 271 350 401
#     4  10  25  41  66 100 127 183 224 272 342 404
#     4  11  26  40  67  99 135 174 228 271 350 401
#
# _framework density 27.002333
#
# number of rings (size 3 to 8) (size 9 to 14) (size 15 to 20)
#    0.000    1.067    4.000    1.200   11.200    0.000 
#    0.000    6.667    0.000    0.000    0.000    0.000 
#    0.000    0.000    0.000    0.000    0.000    0.000 
#
# Total GULP energy -167659.446970 kJ/mol
# GULP energy per Si atom -5588.648232 kJ/mol
# Density = 2.694087 g / cm^3
# Si number density = 27.002333 Si / 1000 Ang^3
#
#
#
# Elastic Constant Matrix: (Units=GPa)
#
#
# Indices 1 2 3 4 5 6 
#
# 1 104.3397 48.3960 24.3119 0.0000 -24.8605 0.0000
# 2 48.3960 178.8640 38.0967 0.0000 -7.5101 0.0000
# 3 24.3119 38.0967 89.9150 0.0000 -15.8728 0.0000
# 4 0.0000 0.0000 0.0000 38.7814 0.0000 -9.4053
# 5 -24.8605 -7.5101 -15.8728 0.0000 37.0856 0.0000
# 6 0.0000 0.0000 0.0000 -9.4053 0.0000 36.2518
#
#
#
# Elastic Compliance Matrix: (Units=1/GPa)
#
#
# Indices 1 2 3 4 5 6 
#
# 1 0.013033 -0.003014 -0.000879 0.000000 0.007751 0.000000
# 2 -0.003014 0.006843 -0.002376 0.000000 -0.001652 0.000000
# 3 -0.000879 -0.002376 0.013172 0.000000 0.004567 0.000000
# 4 0.000000 0.000000 0.000000 0.027517 0.000000 0.007139
# 5 0.007751 -0.001652 0.004567 0.000000 0.033781 0.000000
# 6 0.000000 0.000000 0.000000 0.007139 0.000000 0.029437
#
#
# Mechanical properties :
#
#
# Convention : Reuss Voigt Hill
#
# Bulk Modulus (GPa) = 48.75384 66.08087 57.41736
# Shear Modulus (GPa) = 34.92641 39.91137 37.41889
#
# Velocity S-wave (km/s) = 3.60037 3.84874 3.72663
# Velocity P-wave (km/s) = 5.94796 6.65401 6.31086
#
# Compressibility (1/GPa) = 0.02051120
#
# Stress axis : x y z
#
# Youngs Moduli (GPa) = 76.72543 146.13368 75.91709
#
# Poissons Ratio (x) = 0.44043 0.06672
# Poissons Ratio (y) = 0.23124 0.18038
# Poissons Ratio (z) = 0.06743 0.34722
#
# Static dielectric constant tensor:
#      x y z
#    x 2.207860 0.000000 -0.011410 
#    y 0.000000 2.096230 0.000000 
#    z -0.011410 0.000000 2.102120 
# 
# From -- ./inp_files/171912.got.cif
#   From: 2010.05.17/outbox.cif.g08.bks.cpg/sg15_86_cif.got.tgz:171912.got - 2010.06.03 18:47:42.
