data_PCOD9299961
_publ_section_title
;
Structure prediction by ZEFSAII (Michael W. Deem and Ramdas Pophale) SiO2 
 PCOD9299961
Probable space group: C 2/C
;
_chemical_formula_sum "Si O2"
_cell_formula_units_Z 44
_cell_length_a 15.011813
_cell_length_b 27.802947
_cell_length_c 5.215567
_cell_angle_alpha 90.000000
_cell_angle_beta 71.113256
_cell_angle_gamma 90.000000
_cell_volume 2059.634779
_symmetry_space_group_name_H-M "C 2/C"
_symmetry_group_IT_number 15
_symmetry_cell_setting 'monoclinic'
loop_
_space_group_symop_operation_xyz
x,y,z
-x,y,1/2-z
-x,-y,-z
x,-y,1/2+z
1/2+x,1/2+y,z
1/2-x,1/2+y,1/2-z
1/2-x,1/2-y,-z
1/2+x,1/2-y,1/2+z
loop_
_atom_site_type_symbol
_atom_site_label
_atom_site_fract_x
_atom_site_fract_y
_atom_site_fract_z
Si Si1 0.096921 0.336686 0.756708
Si Si2 0.257435 0.790965 0.268269
Si Si3 0.273646 0.380803 0.846904
Si Si4 0.500000 0.236173 0.750000
Si Si5 0.605192 0.531843 0.110663
Si Si6 0.598574 0.309366 0.028089
O O1 0.149528 0.308937 0.475375
O O2 0.172507 0.373580 0.804739
O O3 0.000000 0.359940 0.750000
O O4 0.059653 0.297769 0.001574
O O5 0.250000 0.750000 0.500000
O O6 0.228701 0.840494 0.432687
O O7 0.176570 0.783391 0.130790
O O8 0.310683 0.431066 0.914475
O O9 0.353718 0.359336 0.587947
O O10 0.430709 0.273082 0.670118
O O11 0.500000 0.553805 0.250000
O O12 0.610819 0.490169 0.321311
O O13 0.500000 0.318705 0.250000
#
# Coordination Sequence:
#
# PCOD9299961 Si02
#       6
#     8   8   8   4   8   8
#     4  11  27  45  70  95 146 192 250 293 349 419
#     4  11  28  45  64 104 145 193 245 296 352 422
#     4  11  27  43  70 107 142 186 243 295 356 433
#     4  12  26  44  64  98 140 212 242 292 346 414
#     4  10  25  49  80 109 143 183 231 298 376 442
#     4  11  27  40  66  96 145 193 245 291 343 418
#
# _framework density 21.363011
#
# number of rings (size 3 to 8) (size 9 to 14) (size 15 to 20)
#    0.000    1.091    0.000    2.727   24.182    4.364 
#    0.000    0.000    0.000    1.091    0.000    0.000 
#    0.000    0.000    0.000    0.000    0.000    0.000 
#
# Total GULP energy -122959.676284 kJ/mol
# GULP energy per Si atom -5589.076195 kJ/mol
# Density = 2.131439 g / cm^3
# Si number density = 21.363011 Si / 1000 Ang^3
#
#
#
# Elastic Constant Matrix: (Units=GPa)
#
#
# Indices 1 2 3 4 5 6 
#
# 1 199.3298 34.8165 34.2841 0.0000 1.7056 0.0000
# 2 34.8165 43.9109 -2.2067 0.0000 2.0837 0.0000
# 3 34.2841 -2.2067 86.1616 0.0000 -10.3158 0.0000
# 4 0.0000 0.0000 0.0000 17.9483 0.0000 7.6975
# 5 1.7056 2.0837 -10.3158 0.0000 54.4544 0.0000
# 6 0.0000 0.0000 0.0000 7.6975 0.0000 42.0335
#
#
#
# Elastic Compliance Matrix: (Units=1/GPa)
#
#
# Indices 1 2 3 4 5 6 
#
# 1 0.006399 -0.005186 -0.002741 0.000000 -0.000521 0.000000
# 2 -0.005186 0.027039 0.002713 0.000000 -0.000358 0.000000
# 3 -0.002741 0.002713 0.013060 0.000000 0.002456 0.000000
# 4 0.000000 0.000000 0.000000 0.060464 0.000000 -0.011073
# 5 -0.000521 -0.000358 0.002456 0.000000 0.018859 0.000000
# 6 0.000000 0.000000 0.000000 -0.011073 0.000000 0.025818
#
#
# Mechanical properties :
#
#
# Convention : Reuss Voigt Hill
#
# Bulk Modulus (GPa) = 27.72446 51.46556 39.59501
# Shear Modulus (GPa) = 28.72042 40.38779 34.55410
#
# Velocity S-wave (km/s) = 3.67058 4.35276 4.02615
# Velocity P-wave (km/s) = 5.56509 7.02889 6.33938
#
# Compressibility (1/GPa) = 0.03606923
#
# Stress axis : x y z
#
# Youngs Moduli (GPa) = 156.28239 36.98360 76.56718
#
# Poissons Ratio (x) = 0.19181 0.20989
# Poissons Ratio (y) = 0.81055 -0.20775
# Poissons Ratio (z) = 0.42842 -0.10035
#
# Static dielectric constant tensor:
#      x y z
#    x 1.886680 0.000000 0.002110 
#    y 0.000000 1.748690 0.000000 
#    z 0.002110 0.000000 2.013740 
# 
# From -- ./inp_files/7550.got.cif
#   From: 2010.05.17/outbox.cif.g08.bks.cpg/sg15_4_cif.got.tgz:7550.got - 2010.06.03 18:47:42.
