data_PCOD9299668
_publ_section_title
;
Structure prediction by ZEFSAII (Michael W. Deem and Ramdas Pophale) SiO2 
 PCOD9299668
Probable space group: C 2/C
;
_chemical_formula_sum "Si O2"
_cell_formula_units_Z 36
_cell_length_a 21.635903
_cell_length_b 10.218647
_cell_length_c 10.164210
_cell_angle_alpha 90.000000
_cell_angle_beta 40.643991
_cell_angle_gamma 90.000000
_cell_volume 1463.730513
_symmetry_space_group_name_H-M "C 2/C"
_symmetry_group_IT_number 15
_symmetry_cell_setting 'monoclinic'
loop_
_space_group_symop_operation_xyz
x,y,z
-x,y,1/2-z
-x,-y,-z
x,-y,1/2+z
1/2+x,1/2+y,z
1/2-x,1/2+y,1/2-z
1/2-x,1/2-y,-z
1/2+x,1/2-y,1/2+z
loop_
_atom_site_type_symbol
_atom_site_label
_atom_site_fract_x
_atom_site_fract_y
_atom_site_fract_z
Si Si1 0.000000 0.080003 0.750000
Si Si2 0.932921 0.518274 0.232654
Si Si3 0.402464 0.280666 0.183147
Si Si4 0.671089 0.181393 0.447905
Si Si5 0.306813 0.451717 0.150400
O O1 0.014618 0.162115 0.860847
O O2 0.095547 0.999092 0.573364
O O3 0.872328 0.651455 0.311589
O O4 0.870868 0.390864 0.359988
O O5 0.000000 0.538557 0.250000
O O6 0.000000 0.500000 0.000000
O O7 0.413341 0.224167 0.017087
O O8 0.332730 0.399351 0.256306
O O9 0.725348 0.318960 0.371414
O O10 0.734786 0.071001 0.274709
#
# Coordination Sequence:
#
# PCOD9299668 Si02
#       5
#     4   8   8   8   8
#     4  12  24  46  80 112 156 214 246 322 392 472
#     4  12  23  45  76 112 155 203 258 321 389 461
#     4  10  25  44  77 107 158 196 260 310 394 451
#     4  10  26  47  75 113 156 202 258 322 384 461
#     4  10  26  48  75 113 158 200 261 316 387 464
#
# _framework density 24.59469
#
# number of rings (size 3 to 8) (size 9 to 14) (size 15 to 20)
#    1.333    0.000    3.333    0.667    7.778    3.556 
#    0.000    2.222    0.000    0.000    0.000    0.000 
#    0.000    0.000    0.000    0.000    0.000    0.000 
#
# Total GULP energy -100333.954610 kJ/mol
# GULP energy per Si atom -5574.108589 kJ/mol
# Density = 2.453871 g / cm^3
# Si number density = 24.594690 Si / 1000 Ang^3
#
#
#
# Elastic Constant Matrix: (Units=GPa)
#
#
# Indices 1 2 3 4 5 6 
#
# 1 95.4415 43.1975 15.8219 0.0000 33.6787 0.0000
# 2 43.1975 183.3650 64.9217 0.0000 -5.4286 0.0000
# 3 15.8219 64.9217 123.1903 0.0000 -4.1151 0.0000
# 4 0.0000 0.0000 0.0000 18.4428 0.0000 7.8664
# 5 33.6787 -5.4286 -4.1151 0.0000 27.3478 0.0000
# 6 0.0000 0.0000 0.0000 7.8664 0.0000 56.8278
#
#
#
# Elastic Compliance Matrix: (Units=1/GPa)
#
#
# Indices 1 2 3 4 5 6 
#
# 1 0.024873 -0.006514 -0.000832 0.000000 -0.032050 0.000000
# 2 -0.006514 0.008428 -0.003298 0.000000 0.009199 0.000000
# 3 -0.000832 -0.003298 0.010025 0.000000 0.001879 0.000000
# 4 0.000000 0.000000 0.000000 0.057624 0.000000 -0.007977
# 5 -0.032050 0.009199 0.001879 0.000000 0.078144 0.000000
# 6 0.000000 0.000000 0.000000 -0.007977 0.000000 0.018701
#
#
# Mechanical properties :
#
#
# Convention : Reuss Voigt Hill
#
# Bulk Modulus (GPa) = 45.37505 72.20877 58.79191
# Shear Modulus (GPa) = 22.08194 39.06071 30.57132
#
# Velocity S-wave (km/s) = 2.99964 3.98952 3.52945
# Velocity P-wave (km/s) = 5.52144 7.11652 6.36911
#
# Compressibility (1/GPa) = 0.02203854
#
# Stress axis : x y z
#
# Youngs Moduli (GPa) = 40.20383 118.65134 99.74946
#
# Poissons Ratio (x) = 0.77287 0.08303
# Poissons Ratio (y) = 0.26188 0.32895
# Poissons Ratio (z) = 0.03347 0.39128
#
# Static dielectric constant tensor:
#      x y z
#    x 2.010770 0.000000 0.001890 
#    y 0.000000 2.049990 0.000000 
#    z 0.001890 0.000000 1.907500 
# 
# From -- ./inp_files/103001.got.cif
#   From: 2010.05.17/outbox.cif.g08.bks.cpg/sg15_52_cif.got.tgz:103001.got - 2010.06.03 18:47:42.
