data_PCOD9299949
_publ_section_title
;
Structure prediction by ZEFSAII (Michael W. Deem and Ramdas Pophale) SiO2 
 PCOD9299949
Probable space group: C 2/C
;
_chemical_formula_sum "Si O2"
_cell_formula_units_Z 60
_cell_length_a 7.023038
_cell_length_b 17.732088
_cell_length_c 19.000619
_cell_angle_alpha 90.000000
_cell_angle_beta 113.141607
_cell_angle_gamma 90.000000
_cell_volume 2175.812897
_symmetry_space_group_name_H-M "C 2/C"
_symmetry_group_IT_number 15
_symmetry_cell_setting 'monoclinic'
loop_
_space_group_symop_operation_xyz
x,y,z
-x,y,1/2-z
-x,-y,-z
x,-y,1/2+z
1/2+x,1/2+y,z
1/2-x,1/2+y,1/2-z
1/2-x,1/2-y,-z
1/2+x,1/2-y,1/2+z
loop_
_atom_site_type_symbol
_atom_site_label
_atom_site_fract_x
_atom_site_fract_y
_atom_site_fract_z
Si Si1 0.420450 0.251118 0.387275
Si Si2 0.209233 0.623144 0.440888
Si Si3 0.818507 0.991934 0.556626
Si Si4 0.687927 0.270102 0.729771
Si Si5 0.714028 0.586405 0.586731
Si Si6 0.000000 0.549919 0.750000
Si Si7 0.426381 0.707496 0.072832
Si Si8 0.199559 0.430468 0.693186
O O1 0.250000 0.250000 0.500000
O O2 0.612451 0.204682 0.442705
O O3 0.392269 0.257978 0.299604
O O4 0.229385 0.195759 0.384089
O O5 0.215321 0.568751 0.509357
O O6 0.431613 0.640953 0.437787
O O7 0.039245 0.591171 0.361452
O O8 0.057796 0.017802 0.581384
O O9 0.730326 0.931059 0.486467
O O10 0.784823 0.963916 0.631141
O O11 0.500000 0.239013 0.750000
O O12 0.614567 0.248974 0.640784
O O13 0.705911 0.360876 0.747035
O O14 0.905067 0.588423 0.667416
O O15 0.603607 0.665872 0.586276
O O16 0.816676 0.499541 0.755673
#
# Coordination Sequence:
#
# PCOD9299949 Si02
#       8
#     8   8   8   8   8   4   8   8
#     4  10  25  49  73 110 156 209 262 334 407 487
#     4  11  24  49  77 113 152 202 277 328 408 492
#     4  11  26  49  78 112 156 203 273 343 408 490
#     4   9  22  41  75 105 148 202 270 320 396 482
#     4  11  27  47  74 112 161 208 264 334 415 494
#     4  12  26  44  76 108 158 206 258 332 408 492
#     4  11  24  44  74 113 156 207 262 336 395 478
#     4  11  24  47  79 113 150 210 268 340 401 489
#
# _framework density 27.575901000000002
#
# number of rings (size 3 to 8) (size 9 to 14) (size 15 to 20)
#    0.000    1.333    1.333    2.000    4.667   12.267 
#    2.400    1.333    0.000    0.000    0.000    0.000 
#    0.000    0.000    0.000    0.000    0.000    0.000 
#
# Total GULP energy -167277.904624 kJ/mol
# GULP energy per Si atom -5575.930154 kJ/mol
# Density = 2.751314 g / cm^3
# Si number density = 27.575901 Si / 1000 Ang^3
#
#
#
# Elastic Constant Matrix: (Units=GPa)
#
#
# Indices 1 2 3 4 5 6 
#
# 1 115.6286 28.8553 38.7184 0.0000 1.4737 0.0000
# 2 28.8553 154.8037 52.1552 0.0000 -2.6423 0.0000
# 3 38.7184 52.1552 174.2339 0.0000 13.6055 0.0000
# 4 0.0000 0.0000 0.0000 21.5413 0.0000 7.7417
# 5 1.4737 -2.6423 13.6055 0.0000 67.1499 0.0000
# 6 0.0000 0.0000 0.0000 7.7417 0.0000 41.2500
#
#
#
# Elastic Compliance Matrix: (Units=1/GPa)
#
#
# Indices 1 2 3 4 5 6 
#
# 1 0.009535 -0.001178 -0.001774 0.000000 0.000104 0.000000
# 2 -0.001178 0.007365 -0.001999 0.000000 0.000721 0.000000
# 3 -0.001774 -0.001999 0.006844 0.000000 -0.001426 0.000000
# 4 0.000000 0.000000 0.000000 0.049780 0.000000 -0.009343
# 5 0.000104 0.000721 -0.001426 0.000000 0.015207 0.000000
# 6 0.000000 0.000000 0.000000 -0.009343 0.000000 0.025996
#
#
# Mechanical properties :
#
#
# Convention : Reuss Voigt Hill
#
# Bulk Modulus (GPa) = 72.24924 76.01376 74.13150
# Shear Modulus (GPa) = 38.68667 47.65073 43.16870
#
# Velocity S-wave (km/s) = 3.74962 4.16141 3.96087
# Velocity P-wave (km/s) = 6.70844 7.12144 6.91802
#
# Compressibility (1/GPa) = 0.01384098
#
# Stress axis : x y z
#
# Youngs Moduli (GPa) = 104.87516 135.77366 146.12236
#
# Poissons Ratio (x) = 0.15990 0.25929
# Poissons Ratio (y) = 0.12351 0.29214
# Poissons Ratio (z) = 0.18610 0.27145
#
# Static dielectric constant tensor:
#      x y z
#    x 2.269180 0.000000 -0.102430 
#    y 0.000000 2.272410 0.000000 
#    z -0.102430 0.000000 2.407500 
# 
# From -- ./inp_files/137908.got.cif
#   From: 2010.05.17/outbox.cif.g08.bks.cpg/sg15_69_cif.got.tgz:137908.got - 2010.06.03 18:47:42.
