data_PCOD9299923
_publ_section_title
;
Structure prediction by ZEFSAII (Michael W. Deem and Ramdas Pophale) SiO2 
 PCOD9299923
Probable space group: C 2/C
;
_chemical_formula_sum "Si O2"
_cell_formula_units_Z 40
_cell_length_a 17.951460
_cell_length_b 10.403781
_cell_length_c 9.124578
_cell_angle_alpha 90.000000
_cell_angle_beta 82.995083
_cell_angle_gamma 90.000000
_cell_volume 1691.413908
_symmetry_space_group_name_H-M "C 2/C"
_symmetry_group_IT_number 15
_symmetry_cell_setting 'monoclinic'
loop_
_space_group_symop_operation_xyz
x,y,z
-x,y,1/2-z
-x,-y,-z
x,-y,1/2+z
1/2+x,1/2+y,z
1/2-x,1/2+y,1/2-z
1/2-x,1/2-y,-z
1/2+x,1/2-y,1/2+z
loop_
_atom_site_type_symbol
_atom_site_label
_atom_site_fract_x
_atom_site_fract_y
_atom_site_fract_z
Si Si1 0.217984 0.110685 0.822493
Si Si2 0.967951 0.225412 0.104398
Si Si3 0.384452 0.051595 0.773113
Si Si4 0.391615 0.821379 0.578080
Si Si5 0.184905 0.860381 0.012524
O O1 0.304295 0.114732 0.754386
O O2 0.182287 0.233716 0.909768
O O3 0.170905 0.101533 0.684349
O O4 0.215213 0.985226 0.922302
O O5 0.942951 0.367354 0.163958
O O6 0.893175 0.170396 0.049659
O O7 0.000000 0.164823 0.250000
O O8 0.035614 0.235584 0.972578
O O9 0.390663 0.903938 0.726027
O O10 0.391560 0.078207 0.943484
O O11 0.250000 0.750000 0.000000
#
# Coordination Sequence:
#
# PCOD9299923 Si02
#       5
#     8   8   8   8   8
#     4  12  27  45  78 110 153 198 262 311 379 460
#     4  10  25  48  75 108 157 199 254 311 383 448
#     4  11  23  45  75 104 155 197 250 314 374 453
#     4  11  26  46  73 113 151 203 253 316 383 451
#     4  12  27  51  77 114 153 203 253 317 383 455
#
# _framework density 23.648852999999999
#
# number of rings (size 3 to 8) (size 9 to 14) (size 15 to 20)
#    0.000    0.800    2.000    3.600    8.400    1.600 
#    0.000    0.000    0.000    0.000    0.000    0.000 
#    0.000    0.000    0.000    0.000    0.000    0.000 
#
# Total GULP energy -111853.286274 kJ/mol
# GULP energy per Si atom -5592.664314 kJ/mol
# Density = 2.359503 g / cm^3
# Si number density = 23.648853 Si / 1000 Ang^3
#
#
#
# Elastic Constant Matrix: (Units=GPa)
#
#
# Indices 1 2 3 4 5 6 
#
# 1 115.9192 -10.5808 23.8983 0.0000 -7.0202 0.0000
# 2 -10.5808 41.4945 35.0127 0.0000 -6.2541 0.0000
# 3 23.8983 35.0127 103.7783 0.0000 6.1081 0.0000
# 4 0.0000 0.0000 0.0000 63.8233 0.0000 12.6451
# 5 -7.0202 -6.2541 6.1081 0.0000 44.5430 0.0000
# 6 0.0000 0.0000 0.0000 12.6451 0.0000 26.0287
#
#
#
# Elastic Compliance Matrix: (Units=1/GPa)
#
#
# Indices 1 2 3 4 5 6 
#
# 1 0.010610 0.007633 -0.005222 0.000000 0.003460 0.000000
# 2 0.007633 0.041057 -0.016150 0.000000 0.009182 0.000000
# 3 -0.005222 -0.016150 0.016603 0.000000 -0.005367 0.000000
# 4 0.000000 0.000000 0.000000 0.017337 0.000000 -0.008423
# 5 0.003460 0.009182 -0.005367 0.000000 0.025021 0.000000
# 6 0.000000 0.000000 0.000000 -0.008423 0.000000 0.042511
#
#
# Mechanical properties :
#
#
# Convention : Reuss Voigt Hill
#
# Bulk Modulus (GPa) = 24.51461 39.76137 32.13799
# Shear Modulus (GPa) = 25.74474 41.06977 33.40726
#
# Velocity S-wave (km/s) = 3.30301 4.17183 3.76258
# Velocity P-wave (km/s) = 4.99351 6.32893 5.70046
#
# Compressibility (1/GPa) = 0.04079200
#
# Stress axis : x y z
#
# Youngs Moduli (GPa) = 94.25424 24.35615 60.22951
#
# Poissons Ratio (x) = -0.18592 0.31453
# Poissons Ratio (y) = -0.71947 0.97272
# Poissons Ratio (z) = 0.49221 0.39336
#
# Static dielectric constant tensor:
#      x y z
#    x 1.960490 0.000000 0.016050 
#    y 0.000000 1.928700 0.000000 
#    z 0.016050 0.000000 1.922890 
# 
# From -- ./inp_files/46111.got.cif
#   From: 2010.05.17/outbox.cif.g08.bks.cpg/sg15_24_cif.got.tgz:46111.got - 2010.06.03 18:47:42.
