data_PCOD9299221
_publ_section_title
;
Structure prediction by ZEFSAII (Michael W. Deem and Ramdas Pophale) SiO2 
 PCOD9299221
Probable space group: C 2/C
;
_chemical_formula_sum "Si O2"
_cell_formula_units_Z 48
_cell_length_a 19.400558
_cell_length_b 14.401305
_cell_length_c 7.229702
_cell_angle_alpha 90.000000
_cell_angle_beta 54.193654
_cell_angle_gamma 90.000000
_cell_volume 1638.161814
_symmetry_space_group_name_H-M "C 2/C"
_symmetry_group_IT_number 15
_symmetry_cell_setting 'monoclinic'
loop_
_space_group_symop_operation_xyz
x,y,z
-x,y,1/2-z
-x,-y,-z
x,-y,1/2+z
1/2+x,1/2+y,z
1/2-x,1/2+y,1/2-z
1/2-x,1/2-y,-z
1/2+x,1/2-y,1/2+z
loop_
_atom_site_type_symbol
_atom_site_label
_atom_site_fract_x
_atom_site_fract_y
_atom_site_fract_z
Si Si1 0.084148 0.443385 0.788386
Si Si2 0.312081 0.887105 0.403120
Si Si3 0.534247 0.206571 0.902800
Si Si4 0.081189 0.904520 0.232260
Si Si5 0.618038 0.611691 0.103484
Si Si6 0.744520 0.832200 0.650484
O O1 0.127302 0.530877 0.604380
O O2 0.178471 0.408710 0.691073
O O3 0.000000 0.500000 0.000000
O O4 0.040161 0.339518 0.857471
O O5 0.379754 0.844051 0.157249
O O6 0.219539 0.905439 0.466939
O O7 0.291814 0.810054 0.591025
O O8 0.500000 0.178627 0.750000
O O9 0.598491 0.372902 0.415753
O O10 0.000000 0.866131 0.250000
O O11 0.927174 0.807313 0.709207
O O12 0.077474 0.015639 0.237739
O O13 0.163529 0.877470 0.984879
O O14 0.750000 0.750000 0.500000
#
# Coordination Sequence:
#
# PCOD9299221 Si02
#       6
#     8   8   8   8   8   8
#     4  10  24  47  83 122 168 221 279 362 431 514
#     4  11  24  49  79 121 168 224 280 347 440 514
#     4  11  23  44  80 123 167 213 288 355 426 507
#     4  12  28  50  80 118 172 230 290 354 440 521
#     4  12  26  49  81 118 167 225 289 355 429 518
#     4  12  26  51  83 120 174 223 286 354 429 520
#
# _framework density 29.301136
#
# number of rings (size 3 to 8) (size 9 to 14) (size 15 to 20)
#    0.000    0.667    3.333    3.500    0.000    1.333 
#    0.000    1.667    0.000    0.000    0.000    0.000 
#    0.000    0.000    0.000    0.000    0.000    0.000 
#
# Total GULP energy -133901.333781 kJ/mol
# GULP energy per Si atom -5579.222241 kJ/mol
# Density = 2.923444 g / cm^3
# Si number density = 29.301136 Si / 1000 Ang^3
#
#
#
# Elastic Constant Matrix: (Units=GPa)
#
#
# Indices 1 2 3 4 5 6 
#
# 1 170.0467 47.8403 96.5811 0.0000 -37.3253 0.0000
# 2 47.8403 161.6141 79.5907 0.0000 -10.4242 0.0000
# 3 96.5811 79.5907 229.3260 0.0000 -44.3836 0.0000
# 4 0.0000 0.0000 0.0000 63.7331 0.0000 -6.6829
# 5 -37.3253 -10.4242 -44.3836 0.0000 81.7358 0.0000
# 6 0.0000 0.0000 0.0000 -6.6829 0.0000 43.0681
#
#
#
# Elastic Compliance Matrix: (Units=1/GPa)
#
#
# Indices 1 2 3 4 5 6 
#
# 1 0.008143 -0.000950 -0.002686 0.000000 0.002139 0.000000
# 2 -0.000950 0.007593 -0.002382 0.000000 -0.000759 0.000000
# 3 -0.002686 -0.002382 0.006730 0.000000 0.002124 0.000000
# 4 0.000000 0.000000 0.000000 0.015950 0.000000 0.002475
# 5 0.002139 -0.000759 0.002124 0.000000 0.014268 0.000000
# 6 0.000000 0.000000 0.000000 0.002475 0.000000 0.023603
#
#
# Mechanical properties :
#
#
# Convention : Reuss Voigt Hill
#
# Bulk Modulus (GPa) = 95.87715 112.11234 103.99475
# Shear Modulus (GPa) = 54.46730 60.17237 57.31983
#
# Velocity S-wave (km/s) = 4.31615 4.53657 4.42773
# Velocity P-wave (km/s) = 7.59152 8.11084 7.85547
#
# Compressibility (1/GPa) = 0.01043001
#
# Stress axis : x y z
#
# Youngs Moduli (GPa) = 122.80653 131.70207 148.59881
#
# Poissons Ratio (x) = 0.12509 0.39910
# Poissons Ratio (y) = 0.11664 0.35397
# Poissons Ratio (z) = 0.32983 0.31373
#
# Static dielectric constant tensor:
#      x y z
#    x 2.167570 0.000000 -0.028490 
#    y 0.000000 2.358490 0.000000 
#    z -0.028490 0.000000 2.170860 
# 
# From -- ./inp_files/123437.got.cif
#   From: 2010.05.17/outbox.cif.g08.bks.cpg/sg15_62_cif.got.tgz:123437.got - 2010.06.03 18:47:42.
