data_PCOD9299999
_publ_section_title
;
Structure prediction by ZEFSAII (Michael W. Deem and Ramdas Pophale) SiO2 
 PCOD9299999
Probable space group: C 2/C
;
_chemical_formula_sum "Si O2"
_cell_formula_units_Z 44
_cell_length_a 14.378219
_cell_length_b 5.194991
_cell_length_c 21.806714
_cell_angle_alpha 90.000000
_cell_angle_beta 92.708302
_cell_angle_gamma 90.000000
_cell_volume 1627.027001
_symmetry_space_group_name_H-M "C 2/C"
_symmetry_group_IT_number 15
_symmetry_cell_setting 'monoclinic'
loop_
_space_group_symop_operation_xyz
x,y,z
-x,y,1/2-z
-x,-y,-z
x,-y,1/2+z
1/2+x,1/2+y,z
1/2-x,1/2+y,1/2-z
1/2-x,1/2-y,-z
1/2+x,1/2-y,1/2+z
loop_
_atom_site_type_symbol
_atom_site_label
_atom_site_fract_x
_atom_site_fract_y
_atom_site_fract_z
Si Si1 0.950839 0.716585 0.016617
Si Si2 0.500000 0.240654 0.750000
Si Si3 0.332863 0.367520 0.227057
Si Si4 0.849464 0.832167 0.475854
Si Si5 0.928939 0.501902 0.146014
Si Si6 0.744116 0.217320 0.145935
O O1 0.949173 0.689211 0.090824
O O2 0.070463 0.599240 0.004474
O O3 0.855718 0.861294 0.990535
O O4 0.000000 0.000000 0.000000
O O5 0.591875 0.409797 0.764021
O O6 0.483966 0.137392 0.820385
O O7 0.394861 0.130241 0.208292
O O8 0.279926 0.333884 0.288357
O O9 0.266212 0.425626 0.166930
O O10 0.750000 0.750000 0.500000
O O11 0.836281 0.783466 0.403165
O O12 0.842600 0.324009 0.123214
#
# Coordination Sequence:
#
# PCOD9299999 Si02
#       6
#     8   4   8   8   8   8
#     4  11  27  46  72 103 140 188 247 298 368 434
#     4  10  26  38  66  96 140 178 226 280 356 412
#     4  11  23  42  64 103 136 182 228 290 355 428
#     4  11  26  47  70 102 140 190 240 303 363 440
#     4  11  24  44  66 101 141 179 234 292 353 429
#     4  11  24  41  70  97 138 178 233 284 359 424
#
# _framework density 27.043189000000002
#
# number of rings (size 3 to 8) (size 9 to 14) (size 15 to 20)
#    0.000    1.091    1.818    2.727    7.636    7.273 
#    0.000    0.000    0.000    0.000    0.000    0.000 
#    0.000    0.000    0.000    0.000    0.000    0.000 
#
# Total GULP energy -122551.637751 kJ/mol
# GULP energy per Si atom -5570.528989 kJ/mol
# Density = 2.698164 g / cm^3
# Si number density = 27.043189 Si / 1000 Ang^3
#
#
#
# Elastic Constant Matrix: (Units=GPa)
#
#
# Indices 1 2 3 4 5 6 
#
# 1 98.2687 33.2900 26.2270 0.0000 -8.8440 0.0000
# 2 33.2900 128.9651 22.5854 0.0000 14.0457 0.0000
# 3 26.2270 22.5854 128.1012 0.0000 15.0478 0.0000
# 4 0.0000 0.0000 0.0000 36.6703 0.0000 8.5165
# 5 -8.8440 14.0457 15.0478 0.0000 50.1619 0.0000
# 6 0.0000 0.0000 0.0000 8.5165 0.0000 10.8199
#
#
#
# Elastic Compliance Matrix: (Units=1/GPa)
#
#
# Indices 1 2 3 4 5 6 
#
# 1 0.012216 -0.003144 -0.002387 0.000000 0.003750 0.000000
# 2 -0.003144 0.008986 -0.000601 0.000000 -0.002890 0.000000
# 3 -0.002387 -0.000601 0.008739 0.000000 -0.002874 0.000000
# 4 0.000000 0.000000 0.000000 0.033370 0.000000 -0.026266
# 5 0.003750 -0.002890 -0.002874 0.000000 0.022268 0.000000
# 6 0.000000 0.000000 0.000000 -0.026266 0.000000 0.113096
#
#
# Mechanical properties :
#
#
# Convention : Reuss Voigt Hill
#
# Bulk Modulus (GPa) = 56.57426 57.72665 57.15046
# Shear Modulus (GPa) = 23.05949 37.74594 30.40271
#
# Velocity S-wave (km/s) = 2.92326 3.74005 3.35659
# Velocity P-wave (km/s) = 5.68852 6.32796 6.01674
#
# Compressibility (1/GPa) = 0.01767588
#
# Stress axis : x y z
#
# Youngs Moduli (GPa) = 81.86134 111.29010 114.43370
#
# Poissons Ratio (x) = 0.34985 0.27319
# Poissons Ratio (y) = 0.25734 0.06879
# Poissons Ratio (z) = 0.19543 0.06690
#
# Static dielectric constant tensor:
#      x y z
#    x 3.835440 0.000000 0.299740 
#    y 0.000000 2.292180 0.000000 
#    z 0.299740 0.000000 2.122390 
# 
# From -- ./inp_files/294305.got.cif
#   From: 2010.05.17/outbox.cif.g08.bks.cpg/sg15_148_cif.got.tgz:294305.got - 2010.06.03 18:47:42.
