data_PCOD9299120
_publ_section_title
;
Structure prediction by ZEFSAII (Michael W. Deem and Ramdas Pophale) SiO2 
 PCOD9299120
Probable space group: C 2/C
;
_chemical_formula_sum "Si O2"
_cell_formula_units_Z 44
_cell_length_a 26.285745
_cell_length_b 7.739035
_cell_length_c 12.629548
_cell_angle_alpha 90.000000
_cell_angle_beta 130.202615
_cell_angle_gamma 90.000000
_cell_volume 1962.255495
_symmetry_space_group_name_H-M "C 2/C"
_symmetry_group_IT_number 15
_symmetry_cell_setting 'monoclinic'
loop_
_space_group_symop_operation_xyz
x,y,z
-x,y,1/2-z
-x,-y,-z
x,-y,1/2+z
1/2+x,1/2+y,z
1/2-x,1/2+y,1/2-z
1/2-x,1/2-y,-z
1/2+x,1/2-y,1/2+z
loop_
_atom_site_type_symbol
_atom_site_label
_atom_site_fract_x
_atom_site_fract_y
_atom_site_fract_z
Si Si1 0.171219 0.752293 0.870776
Si Si2 0.500000 0.215408 0.250000
Si Si3 0.365594 0.351313 0.131234
Si Si4 0.566558 0.884071 0.389302
Si Si5 0.808406 0.836674 0.828073
Si Si6 0.336768 0.735857 0.819264
O O1 0.124731 0.628553 0.878672
O O2 0.164587 0.728080 0.735360
O O3 0.149627 0.946760 0.873170
O O4 0.250000 0.750000 0.000000
O O5 0.444796 0.325605 0.234030
O O6 0.541106 0.078322 0.376279
O O7 0.337972 0.248750 0.194796
O O8 0.333720 0.289186 0.978390
O O9 0.500000 0.797221 0.250000
O O10 0.597351 0.801943 0.534751
O O11 0.728518 0.826724 0.721976
O O12 0.829594 0.033418 0.835919
#
# Coordination Sequence:
#
# PCOD9299120 Si02
#       6
#     8   4   8   8   8   8
#     4  11  22  44  74 101 139 183 229 283 352 416
#     4  10  28  44  68  96 146 188 230 290 332 424
#     4  11  25  43  67 108 135 179 236 280 348 405
#     4  10  24  47  67  95 139 190 228 270 364 408
#     4  11  23  40  70 104 136 175 225 296 349 409
#     4  11  24  42  70  99 140 179 226 294 341 424
#
# _framework density 22.423175000000001
#
# number of rings (size 3 to 8) (size 9 to 14) (size 15 to 20)
#    0.545    0.727    3.636    0.545    3.818    5.091 
#    0.000    3.636    0.000    0.000    0.000    0.000 
#    0.000    0.000    0.000    0.000    0.000    0.000 
#
# Total GULP energy -122965.232302 kJ/mol
# GULP energy per Si atom -5589.328741 kJ/mol
# Density = 2.237214 g / cm^3
# Si number density = 22.423175 Si / 1000 Ang^3
#
#
#
# Elastic Constant Matrix: (Units=GPa)
#
#
# Indices 1 2 3 4 5 6 
#
# 1 120.4393 22.0051 57.9070 0.0000 4.4611 0.0000
# 2 22.0051 55.9658 21.9772 0.0000 15.3511 0.0000
# 3 57.9070 21.9772 154.5962 0.0000 -19.1827 0.0000
# 4 0.0000 0.0000 0.0000 12.7645 0.0000 28.5872
# 5 4.4611 15.3511 -19.1827 0.0000 54.2352 0.0000
# 6 0.0000 0.0000 0.0000 28.5872 0.0000 35.5092
#
#
#
# Elastic Compliance Matrix: (Units=1/GPa)
#
#
# Indices 1 2 3 4 5 6 
#
# 1 0.010626 -0.002218 -0.003865 0.000000 -0.001613 0.000000
# 2 -0.002218 0.021950 -0.003177 0.000000 -0.007154 0.000000
# 3 -0.003865 -0.003177 0.008910 0.000000 0.004369 0.000000
# 4 0.000000 0.000000 0.000000 -0.097561 0.000000 0.078543
# 5 -0.001613 -0.007154 0.004369 0.000000 0.022141 0.000000
# 6 0.000000 0.000000 0.000000 0.078543 0.000000 -0.035070
#
#
# Mechanical properties :
#
#
# Convention : Reuss Voigt Hill
#
# Bulk Modulus (GPa) = 43.54317 59.42000 51.48158
# Shear Modulus (GPa) = -116.74694 35.77592 -40.48551
#
# Velocity S-wave (km/s) = -7.22346 3.99869 -4.25375
# Velocity P-wave (km/s) = 7.07885 6.91927 1.05685
#
# Compressibility (1/GPa) = 0.02296572
#
# Stress axis : x y z
#
# Youngs Moduli (GPa) = 94.10634 45.55767 112.23300
#
# Poissons Ratio (x) = 0.10104 0.43380
# Poissons Ratio (y) = 0.20870 0.35661
# Poissons Ratio (z) = 0.36374 0.14476
#
# Static dielectric constant tensor:
#      x y z
#    x 1.824260 0.000000 -0.018730 
#    y 0.000000 1.862190 0.000000 
#    z -0.018730 0.000000 1.841720 
# 
# From -- ./inp_files/110063.got.cif
#   From: 2010.05.17/outbox.cif.g08.bks.cpg/sg15_56_cif.got.tgz:110063.got - 2010.06.03 18:47:42.
