data_PCOD9299813
_publ_section_title
;
Structure prediction by ZEFSAII (Michael W. Deem and Ramdas Pophale) SiO2 
 PCOD9299813
Probable space group: C 2/C
;
_chemical_formula_sum "Si O2"
_cell_formula_units_Z 28
_cell_length_a 13.099794
_cell_length_b 15.612689
_cell_length_c 9.599525
_cell_angle_alpha 90.000000
_cell_angle_beta 146.359844
_cell_angle_gamma 90.000000
_cell_volume 1087.632605
_symmetry_space_group_name_H-M "C 2/C"
_symmetry_group_IT_number 15
_symmetry_cell_setting 'monoclinic'
loop_
_space_group_symop_operation_xyz
x,y,z
-x,y,1/2-z
-x,-y,-z
x,-y,1/2+z
1/2+x,1/2+y,z
1/2-x,1/2+y,1/2-z
1/2-x,1/2-y,-z
1/2+x,1/2-y,1/2+z
loop_
_atom_site_type_symbol
_atom_site_label
_atom_site_fract_x
_atom_site_fract_y
_atom_site_fract_z
Si Si1 0.305811 0.741112 0.225306
Si Si2 0.046852 0.649921 0.150029
Si Si3 0.500000 0.984366 0.250000
Si Si4 0.908631 0.066196 0.291156
O O1 0.374888 0.833248 0.353999
O O2 0.456899 0.664604 0.381845
O O3 0.197973 0.700169 0.234103
O O4 0.250000 0.750000 0.000000
O O5 0.077080 0.551076 0.220858
O O6 0.000000 0.687838 0.250000
O O7 0.683362 0.938364 0.517505
O O8 0.000000 0.044754 0.250000
O O9 0.000000 0.000000 0.500000
#
# Coordination Sequence:
#
# PCOD9299813 Si02
#       4
#     8   8   4   8
#     4  12  26  45  74 112 147 191 254 318 378 442
#     4  10  25  46  75 101 150 200 251 298 381 455
#     4  10  28  50  78 106 154 202 256 306 376 460
#     4  12  29  49  77 111 153 198 252 313 382 448
#
# _framework density 25.743988999999999
#
# number of rings (size 3 to 8) (size 9 to 14) (size 15 to 20)
#    0.857    0.000    0.000    5.143   12.000    3.429 
#    0.000    0.000    0.000    0.000    0.000    0.000 
#    0.000    0.000    0.000    0.000    0.000    0.000 
#
# Total GULP energy -78086.285165 kJ/mol
# GULP energy per Si atom -5577.591797 kJ/mol
# Density = 2.568539 g / cm^3
# Si number density = 25.743989 Si / 1000 Ang^3
#
#
#
# Elastic Constant Matrix: (Units=GPa)
#
#
# Indices 1 2 3 4 5 6 
#
# 1 162.8622 -10.6655 31.0016 0.0000 -35.0994 0.0000
# 2 -10.6655 94.0527 25.9340 0.0000 -26.2202 0.0000
# 3 31.0016 25.9340 114.6716 0.0000 -10.8296 0.0000
# 4 0.0000 0.0000 0.0000 58.7398 0.0000 -7.1421
# 5 -35.0994 -26.2202 -10.8296 0.0000 55.7584 0.0000
# 6 0.0000 0.0000 0.0000 -7.1421 0.0000 33.4703
#
#
#
# Elastic Compliance Matrix: (Units=1/GPa)
#
#
# Indices 1 2 3 4 5 6 
#
# 1 0.008149 0.003312 -0.002364 0.000000 0.006228 0.000000
# 2 0.003312 0.014189 -0.003339 0.000000 0.008109 0.000000
# 3 -0.002364 -0.003339 0.010010 0.000000 -0.001114 0.000000
# 4 0.000000 0.000000 0.000000 0.017478 0.000000 0.003729
# 5 0.006228 0.008109 -0.001114 0.000000 0.025452 0.000000
# 6 0.000000 0.000000 0.000000 0.003729 0.000000 0.030673
#
#
# Mechanical properties :
#
#
# Convention : Reuss Voigt Hill
#
# Bulk Modulus (GPa) = 36.27475 51.56962 43.92218
# Shear Modulus (GPa) = 41.69406 51.28146 46.48776
#
# Velocity S-wave (km/s) = 4.02875 4.46800 4.25405
# Velocity P-wave (km/s) = 5.98015 6.83320 6.42086
#
# Compressibility (1/GPa) = 0.02756739
#
# Stress axis : x y z
#
# Youngs Moduli (GPa) = 122.70783 70.47591 99.90448
#
# Poissons Ratio (x) = -0.23344 0.23619
# Poissons Ratio (y) = -0.40646 0.33355
# Poissons Ratio (z) = 0.29010 0.23530
#
# Static dielectric constant tensor:
#      x y z
#    x 0.000000 0.000000 0.000000 
#    y 0.000000 0.000000 0.000000 
#    z 0.000000 0.000000 0.000000 
# 
# From -- ./inp_files/30657.got.cif
#   From: 2010.05.17/outbox.cif.g08.bks.cpg/sg15_16_cif.got.tgz:30657.got - 2010.06.03 18:47:42.
