data_PCOD9299123
_publ_section_title
;
Structure prediction by ZEFSAII (Michael W. Deem and Ramdas Pophale) SiO2 
 PCOD9299123
Probable space group: C 2/C
;
_chemical_formula_sum "Si O2"
_cell_formula_units_Z 36
_cell_length_a 22.799242
_cell_length_b 7.003071
_cell_length_c 10.109950
_cell_angle_alpha 90.000000
_cell_angle_beta 117.687437
_cell_angle_gamma 90.000000
_cell_volume 1429.368865
_symmetry_space_group_name_H-M "C 2/C"
_symmetry_group_IT_number 15
_symmetry_cell_setting 'monoclinic'
loop_
_space_group_symop_operation_xyz
x,y,z
-x,y,1/2-z
-x,-y,-z
x,-y,1/2+z
1/2+x,1/2+y,z
1/2-x,1/2+y,1/2-z
1/2-x,1/2-y,-z
1/2+x,1/2-y,1/2+z
loop_
_atom_site_type_symbol
_atom_site_label
_atom_site_fract_x
_atom_site_fract_y
_atom_site_fract_z
Si Si1 0.000000 0.012663 0.250000
Si Si2 0.351623 0.580339 0.608827
Si Si3 0.031748 0.607596 0.913862
Si Si4 0.229806 0.648743 0.311565
Si Si5 0.676637 0.138677 0.976593
O O1 0.931015 0.900000 0.189235
O O2 0.987992 0.166820 0.117199
O O3 0.304969 0.671939 0.444168
O O4 0.319759 0.677861 0.704092
O O5 0.338568 0.354737 0.582827
O O6 0.000000 0.522443 0.750000
O O7 0.108878 0.575070 0.975180
O O8 0.000000 0.500000 0.000000
O O9 0.226464 0.625749 0.152079
O O10 0.199652 0.481381 0.373729
#
# Coordination Sequence:
#
# PCOD9299123 Si02
#       5
#     4   8   8   8   8
#     4   8  20  44  70  96 150 188 234 310 344 440
#     4  10  24  47  68 106 145 189 240 295 369 430
#     4   9  18  38  68 102 141 187 230 287 362 420
#     4  11  26  44  77 104 140 198 235 304 365 428
#     4  11  24  45  73 105 145 186 246 295 358 440
#
# _framework density 25.185941
#
# number of rings (size 3 to 8) (size 9 to 14) (size 15 to 20)
#    0.667    1.333    0.000    2.000    6.222    1.778 
#    6.000    2.222    0.000    0.000    0.000    0.000 
#    0.000    0.000    0.000    0.000    0.000    0.000 
#
# Total GULP energy -100679.773277 kJ/mol
# GULP energy per Si atom -5593.320738 kJ/mol
# Density = 2.512862 g / cm^3
# Si number density = 25.185941 Si / 1000 Ang^3
#
#
#
# Elastic Constant Matrix: (Units=GPa)
#
#
# Indices 1 2 3 4 5 6 
#
# 1 239.1139 66.5432 47.1926 0.0000 23.2375 0.0000
# 2 66.5432 115.4366 23.7241 0.0000 -12.7399 0.0000
# 3 47.1926 23.7241 87.1801 0.0000 -8.8404 0.0000
# 4 0.0000 0.0000 0.0000 32.2956 0.0000 -10.4432
# 5 23.2375 -12.7399 -8.8404 0.0000 41.1683 0.0000
# 6 0.0000 0.0000 0.0000 -10.4432 0.0000 54.6847
#
#
#
# Elastic Compliance Matrix: (Units=1/GPa)
#
#
# Indices 1 2 3 4 5 6 
#
# 1 0.006282 -0.003597 -0.002958 0.000000 -0.005294 0.000000
# 2 -0.003597 0.011465 -0.000620 0.000000 0.005445 0.000000
# 3 -0.002958 -0.000620 0.013689 0.000000 0.004417 0.000000
# 4 0.000000 0.000000 0.000000 0.033002 0.000000 0.006302
# 5 -0.005294 0.005445 0.004417 0.000000 0.029912 0.000000
# 6 0.000000 0.000000 0.000000 0.006302 0.000000 0.019490
#
#
# Mechanical properties :
#
#
# Convention : Reuss Voigt Hill
#
# Bulk Modulus (GPa) = 58.53752 79.62783 69.08267
# Shear Modulus (GPa) = 37.34520 45.91443 41.62982
#
# Velocity S-wave (km/s) = 3.85487 4.27431 4.07000
# Velocity P-wave (km/s) = 6.56551 7.48627 7.04096
#
# Compressibility (1/GPa) = 0.01708306
#
# Stress axis : x y z
#
# Youngs Moduli (GPa) = 159.19652 87.22299 73.05322
#
# Poissons Ratio (x) = 0.31377 0.21611
# Poissons Ratio (y) = 0.57267 0.04533
# Poissons Ratio (z) = 0.47095 0.05412
#
# Static dielectric constant tensor:
#      x y z
#    x 1.990820 0.000000 0.070610 
#    y 0.000000 2.103150 0.000000 
#    z 0.070610 0.000000 1.961930 
# 
# From -- ./inp_files/59772.got.cif
#   From: 2010.05.17/outbox.cif.g08.bks.cpg/sg15_30_cif.got.tgz:59772.got - 2010.06.03 18:47:42.
