data_PCOD9299868
_publ_section_title
;
Structure prediction by ZEFSAII (Michael W. Deem and Ramdas Pophale) SiO2 
 PCOD9299868
Probable space group: C 2/C
;
_chemical_formula_sum "Si O2"
_cell_formula_units_Z 44
_cell_length_a 19.408991
_cell_length_b 18.532540
_cell_length_c 5.550975
_cell_angle_alpha 90.000000
_cell_angle_beta 114.096659
_cell_angle_gamma 90.000000
_cell_volume 1822.679863
_symmetry_space_group_name_H-M "C 2/C"
_symmetry_group_IT_number 15
_symmetry_cell_setting 'monoclinic'
loop_
_space_group_symop_operation_xyz
x,y,z
-x,y,1/2-z
-x,-y,-z
x,-y,1/2+z
1/2+x,1/2+y,z
1/2-x,1/2+y,1/2-z
1/2-x,1/2-y,-z
1/2+x,1/2-y,1/2+z
loop_
_atom_site_type_symbol
_atom_site_label
_atom_site_fract_x
_atom_site_fract_y
_atom_site_fract_z
Si Si1 0.857797 0.695253 0.043263
Si Si2 0.061938 0.192135 0.157933
Si Si3 0.696764 0.683240 0.695849
Si Si4 0.590563 0.965821 0.863472
Si Si5 0.500000 0.433543 0.250000
Si Si6 0.666437 0.534625 0.893485
O O1 0.826549 0.739977 0.225243
O O2 0.890032 0.617643 0.146936
O O3 0.917428 0.747787 0.005643
O O4 0.785027 0.685138 0.765972
O O5 0.138754 0.169108 0.399868
O O6 0.000000 0.223521 0.250000
O O7 0.025207 0.121445 0.994086
O O8 0.684019 0.619018 0.872096
O O9 0.500000 0.974598 0.750000
O O10 0.619102 0.008101 0.666951
O O11 0.424858 0.473702 0.227102
O O12 0.694457 0.494026 0.691879
#
# Coordination Sequence:
#
# PCOD9299868 Si02
#       6
#     8   8   8   8   4   8
#     4  11  26  46  74 101 147 191 237 309 373 433
#     4  12  23  42  74 105 144 183 249 308 357 432
#     4  11  26  46  68 108 142 192 250 294 362 452
#     4  10  25  47  73 109 142 182 243 303 369 440
#     4  12  24  44  66 108 146 188 250 302 360 432
#     4  12  26  44  70 103 148 198 241 299 360 427
#
# _framework density 24.140280000000001
#
# number of rings (size 3 to 8) (size 9 to 14) (size 15 to 20)
#    0.000    0.727    3.636    2.182    6.364    2.182 
#    0.000    0.000    0.000    0.000    0.000    0.000 
#    0.000    0.000    0.000    0.000    0.000    0.000 
#
# Total GULP energy -123264.454546 kJ/mol
# GULP energy per Si atom -5602.929752 kJ/mol
# Density = 2.408534 g / cm^3
# Si number density = 24.140280 Si / 1000 Ang^3
#
#
#
# Elastic Constant Matrix: (Units=GPa)
#
#
# Indices 1 2 3 4 5 6 
#
# 1 73.1422 5.4452 15.8205 0.0000 -5.4901 0.0000
# 2 5.4452 106.7689 13.2171 0.0000 -42.1334 0.0000
# 3 15.8205 13.2171 96.2873 0.0000 -19.1443 0.0000
# 4 0.0000 0.0000 0.0000 27.1564 0.0000 11.8044
# 5 -5.4901 -42.1334 -19.1443 0.0000 31.2987 0.0000
# 6 0.0000 0.0000 0.0000 11.8044 0.0000 -2.7951
#
#
#
# Elastic Compliance Matrix: (Units=1/GPa)
#
#
# Indices 1 2 3 4 5 6 
#
# 1 0.014216 0.000028 -0.002091 0.000000 0.001253 0.000000
# 2 0.000028 0.020753 0.003076 0.000000 0.029823 0.000000
# 3 -0.002091 0.003076 0.012588 0.000000 0.011474 0.000000
# 4 0.000000 0.000000 0.000000 0.012985 0.000000 0.054841
# 5 0.001253 0.029823 0.011474 0.000000 0.079335 0.000000
# 6 0.000000 0.000000 0.000000 0.054841 0.000000 -0.126164
#
#
# Mechanical properties :
#
#
# Convention : Reuss Voigt Hill
#
# Bulk Modulus (GPa) = 20.16749 38.35157 29.25953
# Shear Modulus (GPa) = 177.21713 27.24639 102.23176
#
# Velocity S-wave (km/s) = 8.57734 3.36321 6.51467
# Velocity P-wave (km/s) = 10.31827 5.56804 8.29065
#
# Compressibility (1/GPa) = 0.04958476
#
# Stress axis : x y z
#
# Youngs Moduli (GPa) = 70.34267 48.18667 79.43978
#
# Poissons Ratio (x) = -0.00136 0.16607
# Poissons Ratio (y) = -0.00198 -0.24438
# Poissons Ratio (z) = 0.14705 -0.14824
#
# Static dielectric constant tensor:
#      x y z
#    x 1.929930 0.000000 -0.001730 
#    y 0.000000 1.868490 0.000000 
#    z -0.001730 0.000000 1.997430 
# 
# From -- ./inp_files/12882.got.cif
#   From: 2010.05.17/outbox.cif.g08.bks.cpg/sg15_7_cif.got.tgz:12882.got - 2010.06.03 18:47:42.
