data_PCOD9299398
_publ_section_title
;
Structure prediction by ZEFSAII (Michael W. Deem and Ramdas Pophale) SiO2 
 PCOD9299398
Probable space group: C 2/C
;
_chemical_formula_sum "Si O2"
_cell_formula_units_Z 48
_cell_length_a 8.194640
_cell_length_b 11.552982
_cell_length_c 26.776288
_cell_angle_alpha 90.000000
_cell_angle_beta 58.317488
_cell_angle_gamma 90.000000
_cell_volume 2157.194674
_symmetry_space_group_name_H-M "C 2/C"
_symmetry_group_IT_number 15
_symmetry_cell_setting 'monoclinic'
loop_
_space_group_symop_operation_xyz
x,y,z
-x,y,1/2-z
-x,-y,-z
x,-y,1/2+z
1/2+x,1/2+y,z
1/2-x,1/2+y,1/2-z
1/2-x,1/2-y,-z
1/2+x,1/2-y,1/2+z
loop_
_atom_site_type_symbol
_atom_site_label
_atom_site_fract_x
_atom_site_fract_y
_atom_site_fract_z
Si Si1 0.011176 0.654659 0.405753
Si Si2 0.747325 0.217028 0.145230
Si Si3 0.875835 0.444699 0.171232
Si Si4 0.500000 0.000000 0.500000
Si Si5 0.092837 0.913253 0.554104
Si Si6 0.809876 0.123007 0.573697
Si Si7 0.000000 0.539294 0.250000
O O1 0.850020 0.704888 0.393553
O O2 0.145340 0.569379 0.351394
O O3 0.917329 0.580443 0.465917
O O4 0.123759 0.762872 0.409147
O O5 0.640672 0.123381 0.196683
O O6 0.742871 0.344516 0.170089
O O7 0.968852 0.181165 0.103201
O O8 0.093931 0.411393 0.121258
O O9 0.880235 0.462574 0.229926
O O10 0.284416 0.957998 0.549123
O O11 0.159451 0.862010 0.490284
O O12 0.946634 0.017931 0.568177
#
# Coordination Sequence:
#
# PCOD9299398 Si02
#       7
#     8   8   8   4   8   8   4
#     4  11  25  41  69 109 146 192 234 285 357 443
#     4  11  25  49  74 102 149 185 241 303 361 419
#     4  11  24  49  73 103 144 188 236 304 358 428
#     4  12  24  40  66 108 150 186 238 272 358 436
#     4  11  23  42  70 106 146 198 226 294 359 433
#     4  11  23  44  71 105 150 186 235 287 361 431
#     4  10  24  50  72 104 136 188 248 300 356 426
#
# _framework density 22.251121999999999
#
# number of rings (size 3 to 8) (size 9 to 14) (size 15 to 20)
#    0.000    1.000    5.000    2.000    4.667    5.333 
#    0.000    0.000    0.000    0.000    0.000    0.000 
#    0.000    0.000    0.000    0.000    0.000    0.000 
#
# Total GULP energy -133825.175548 kJ/mol
# GULP energy per Si atom -5576.048981 kJ/mol
# Density = 2.220048 g / cm^3
# Si number density = 22.251122 Si / 1000 Ang^3
#
#
#
# Elastic Constant Matrix: (Units=GPa)
#
#
# Indices 1 2 3 4 5 6 
#
# 1 82.1183 26.1924 20.8704 0.0000 5.6864 0.0000
# 2 26.1924 109.2260 17.2583 0.0000 29.1011 0.0000
# 3 20.8704 17.2583 72.2339 0.0000 14.4217 0.0000
# 4 0.0000 0.0000 0.0000 21.9361 0.0000 16.0171
# 5 5.6864 29.1011 14.4217 0.0000 35.5803 0.0000
# 6 0.0000 0.0000 0.0000 16.0171 0.0000 35.4727
#
#
#
# Elastic Compliance Matrix: (Units=1/GPa)
#
#
# Indices 1 2 3 4 5 6 
#
# 1 0.014024 -0.003303 -0.003650 0.000000 0.001940 0.000000
# 2 -0.003303 0.012546 -0.000109 0.000000 -0.009690 0.000000
# 3 -0.003650 -0.000109 0.016093 0.000000 -0.005851 0.000000
# 4 0.000000 0.000000 0.000000 0.068009 0.000000 -0.030708
# 5 0.001940 -0.009690 -0.005851 0.000000 0.038092 0.000000
# 6 0.000000 0.000000 0.000000 -0.030708 0.000000 0.042057
#
#
# Mechanical properties :
#
#
# Convention : Reuss Voigt Hill
#
# Bulk Modulus (GPa) = 35.03930 43.58004 39.30967
# Shear Modulus (GPa) = 23.31460 31.88164 27.59812
#
# Velocity S-wave (km/s) = 3.24048 3.78935 3.52561
# Velocity P-wave (km/s) = 5.45732 6.22685 5.85474
#
# Compressibility (1/GPa) = 0.02853938
#
# Stress axis : x y z
#
# Youngs Moduli (GPa) = 71.30387 79.70553 62.14043
#
# Poissons Ratio (x) = 0.26328 0.22682
# Poissons Ratio (y) = 0.23553 0.00675
# Poissons Ratio (z) = 0.26027 0.00866
#
# Static dielectric constant tensor:
#      x y z
#    x 1.833300 0.000000 0.058330 
#    y 0.000000 1.810130 0.000000 
#    z 0.058330 0.000000 1.804170 
# 
# From -- ./inp_files/287551.got.cif
#   From: 2010.05.17/outbox.cif.g08.bks.cpg/sg15_144_cif.got.tgz:287551.got - 2010.06.03 18:47:42.
