data_PCOD9299147
_publ_section_title
;
Structure prediction by ZEFSAII (Michael W. Deem and Ramdas Pophale) SiO2 
 PCOD9299147
Probable space group: C 2/C
;
_chemical_formula_sum "Si O2"
_cell_formula_units_Z 64
_cell_length_a 19.124040
_cell_length_b 26.577093
_cell_length_c 8.628313
_cell_angle_alpha 90.000000
_cell_angle_beta 41.923427
_cell_angle_gamma 90.000000
_cell_volume 2930.072892
_symmetry_space_group_name_H-M "C 2/C"
_symmetry_group_IT_number 15
_symmetry_cell_setting 'monoclinic'
loop_
_space_group_symop_operation_xyz
x,y,z
-x,y,1/2-z
-x,-y,-z
x,-y,1/2+z
1/2+x,1/2+y,z
1/2-x,1/2+y,1/2-z
1/2-x,1/2-y,-z
1/2+x,1/2-y,1/2+z
loop_
_atom_site_type_symbol
_atom_site_label
_atom_site_fract_x
_atom_site_fract_y
_atom_site_fract_z
Si Si1 0.213285 0.712791 0.421439
Si Si2 0.311208 0.547156 0.268724
Si Si3 0.463089 0.183684 0.021443
Si Si4 0.650551 0.885219 0.181825
Si Si5 0.508057 0.378197 0.921206
Si Si6 0.815920 0.936731 0.392591
Si Si7 0.882135 0.385078 0.909940
Si Si8 0.928550 0.775852 0.514652
O O1 0.250000 0.750000 0.500000
O O2 0.109314 0.709995 0.488020
O O3 0.216245 0.657692 0.488891
O O4 0.310894 0.719945 0.148040
O O5 0.198504 0.564653 0.526814
O O6 0.401329 0.581387 0.194478
O O7 0.331087 0.489632 0.280983
O O8 0.321666 0.555672 0.067641
O O9 0.400361 0.165168 0.277272
O O10 0.548434 0.224674 0.930283
O O11 0.529651 0.133753 0.862911
O O12 0.667605 0.880922 0.337593
O O13 0.500000 0.374240 0.750000
O O14 0.402437 0.398087 0.181245
O O15 0.541208 0.324021 0.933145
O O16 0.698302 0.918279 0.552580
O O17 0.000000 0.405007 0.750000
O O18 0.000000 0.775245 0.250000
#
# Coordination Sequence:
#
# PCOD9299147 Si02
#       8
#     8   8   8   8   8   8   8   8
#     4  12  26  42  68 100 141 187 240 286 348 420
#     4  12  25  47  74 109 138 182 234 285 357 421
#     4  11  26  46  71  99 143 190 231 293 353 407
#     4  11  22  44  70  98 141 179 232 288 347 416
#     4  12  27  45  71 104 145 187 232 288 350 418
#     4  12  26  47  75 103 142 183 229 294 350 419
#     4  10  24  47  71 100 138 184 237 289 353 413
#     4  12  27  46  66 104 144 184 239 288 345 423
#
# _framework density 21.842459000000002
#
# number of rings (size 3 to 8) (size 9 to 14) (size 15 to 20)
#    0.000    0.500    2.500    6.000    3.500    1.500 
#    0.000    6.875    0.000    0.000    0.000    0.000 
#    0.000    0.000    0.000    0.000    0.000    0.000 
#
# Total GULP energy -178668.549324 kJ/mol
# GULP energy per Si atom -5583.392166 kJ/mol
# Density = 2.179274 g / cm^3
# Si number density = 21.842459 Si / 1000 Ang^3
#
#
#
# Elastic Constant Matrix: (Units=GPa)
#
#
# Indices 1 2 3 4 5 6 
#
# 1 114.3723 3.3223 23.5945 0.0000 1.5469 0.0000
# 2 3.3223 58.7681 -11.4583 0.0000 -6.9951 0.0000
# 3 23.5945 -11.4583 99.0194 0.0000 -1.4552 0.0000
# 4 0.0000 0.0000 0.0000 30.3594 0.0000 2.9024
# 5 1.5469 -6.9951 -1.4552 0.0000 38.9921 0.0000
# 6 0.0000 0.0000 0.0000 2.9024 0.0000 26.9822
#
#
#
# Elastic Compliance Matrix: (Units=1/GPa)
#
#
# Indices 1 2 3 4 5 6 
#
# 1 0.009265 -0.001057 -0.002340 0.000000 -0.000644 0.000000
# 2 -0.001057 0.017938 0.002377 0.000000 0.003349 0.000000
# 3 -0.002340 0.002377 0.010945 0.000000 0.000928 0.000000
# 4 0.000000 0.000000 0.000000 0.033281 0.000000 -0.003580
# 5 -0.000644 0.003349 0.000928 0.000000 0.026307 0.000000
# 6 0.000000 0.000000 0.000000 -0.003580 0.000000 0.037447
#
#
# Mechanical properties :
#
#
# Convention : Reuss Voigt Hill
#
# Bulk Modulus (GPa) = 27.69361 33.67520 30.68441
# Shear Modulus (GPa) = 33.49896 36.38017 34.93956
#
# Velocity S-wave (km/s) = 3.92045 4.08557 4.00386
# Velocity P-wave (km/s) = 5.76190 6.14057 5.95425
#
# Compressibility (1/GPa) = 0.03610941
#
# Stress axis : x y z
#
# Youngs Moduli (GPa) = 107.92824 55.74832 91.36462
#
# Poissons Ratio (x) = 0.05891 0.21375
# Poissons Ratio (y) = 0.11404 -0.21715
# Poissons Ratio (z) = 0.25250 -0.13250
#
# Static dielectric constant tensor:
#      x y z
#    x 1.830530 0.000000 0.005850 
#    y 0.000000 1.801890 0.000000 
#    z 0.005850 0.000000 1.939890 
# 
# From -- ./inp_files/52793.got.cif
#   From: 2010.05.17/outbox.cif.g08.bks.cpg/sg15_27_cif.got.tgz:52793.got - 2010.06.03 18:47:42.
