data_PCOD9299998
_publ_section_title
;
Structure prediction by ZEFSAII (Michael W. Deem and Ramdas Pophale) SiO2 
 PCOD9299998
Probable space group: C 2/C
;
_chemical_formula_sum "Si O2"
_cell_formula_units_Z 40
_cell_length_a 13.724576
_cell_length_b 10.646372
_cell_length_c 13.957084
_cell_angle_alpha 90.000000
_cell_angle_beta 129.125542
_cell_angle_gamma 90.000000
_cell_volume 1582.069464
_symmetry_space_group_name_H-M "C 2/C"
_symmetry_group_IT_number 15
_symmetry_cell_setting 'monoclinic'
loop_
_space_group_symop_operation_xyz
x,y,z
-x,y,1/2-z
-x,-y,-z
x,-y,1/2+z
1/2+x,1/2+y,z
1/2-x,1/2+y,1/2-z
1/2-x,1/2-y,-z
1/2+x,1/2-y,1/2+z
loop_
_atom_site_type_symbol
_atom_site_label
_atom_site_fract_x
_atom_site_fract_y
_atom_site_fract_z
Si Si1 0.900454 0.290024 0.258648
Si Si2 0.600308 0.125121 0.452581
Si Si3 0.904924 0.896870 0.612885
Si Si4 0.708552 0.387952 0.585026
Si Si5 0.326578 0.021125 0.331212
O O1 0.001733 0.204869 0.378021
O O2 0.827345 0.388257 0.274637
O O3 0.000000 0.363132 0.250000
O O4 0.169997 0.198604 0.361183
O O5 0.634129 0.264603 0.508275
O O6 0.652912 0.120813 0.377741
O O7 0.683251 0.024430 0.565873
O O8 0.460012 0.087530 0.394178
O O9 0.851234 0.990216 0.502560
O O10 0.000000 0.962921 0.750000
O O11 0.725972 0.400365 0.709267
#
# Coordination Sequence:
#
# PCOD9299998 Si02
#       5
#     8   8   8   8   8
#     4   6  15  34  57  88 112 160 195 246 302 349
#     4  10  26  38  60  94 125 164 205 264 314 368
#     4   6  17  34  58  93 115 157 203 250 300 355
#     4  11  21  42  65  90 124 166 208 255 317 375
#     4  11  21  44  62  86 131 165 210 251 317 374
#
# _framework density 25.283339000000002
#
# number of rings (size 3 to 8) (size 9 to 14) (size 15 to 20)
#    2.400    0.800    0.000    1.800    0.000    5.600 
#    7.200    1.000    0.000    0.000    0.000    0.000 
#    0.000    0.000    0.000    0.000    0.000    0.000 
#
# Total GULP energy -111428.633931 kJ/mol
# GULP energy per Si atom -5571.431697 kJ/mol
# Density = 2.522579 g / cm^3
# Si number density = 25.283339 Si / 1000 Ang^3
#
#
#
# Elastic Constant Matrix: (Units=GPa)
#
#
# Indices 1 2 3 4 5 6 
#
# 1 51.6585 18.2911 12.8024 0.0000 -22.2796 0.0000
# 2 18.2911 120.3184 14.6516 0.0000 15.8853 0.0000
# 3 12.8024 14.6516 94.6986 0.0000 -11.2588 0.0000
# 4 0.0000 0.0000 0.0000 33.2487 0.0000 7.9662
# 5 -22.2796 15.8853 -11.2588 0.0000 33.5973 0.0000
# 6 0.0000 0.0000 0.0000 7.9662 0.0000 16.8133
#
#
#
# Elastic Compliance Matrix: (Units=1/GPa)
#
#
# Indices 1 2 3 4 5 6 
#
# 1 0.033878 -0.008641 -0.000090 0.000000 0.026521 0.000000
# 2 -0.008641 0.011427 -0.002003 0.000000 -0.011804 0.000000
# 3 -0.000090 -0.002003 0.011443 0.000000 0.004722 0.000000
# 4 0.000000 0.000000 0.000000 0.033928 0.000000 -0.016075
# 5 0.026521 -0.011804 0.004722 0.000000 0.054515 0.000000
# 6 0.000000 0.000000 0.000000 -0.016075 0.000000 0.067093
#
#
# Mechanical properties :
#
#
# Convention : Reuss Voigt Hill
#
# Bulk Modulus (GPa) = 28.34431 39.79621 34.07026
# Shear Modulus (GPa) = 20.36554 31.46055 25.91305
#
# Velocity S-wave (km/s) = 2.84120 3.53132 3.20489
# Velocity P-wave (km/s) = 4.69023 5.69221 5.21533
#
# Compressibility (1/GPa) = 0.03528045
#
# Stress axis : x y z
#
# Youngs Moduli (GPa) = 29.51784 87.50977 87.38691
#
# Poissons Ratio (x) = 0.75615 0.00787
# Poissons Ratio (y) = 0.25506 0.17506
# Poissons Ratio (z) = 0.00266 0.17531
#
# Static dielectric constant tensor:
#      x y z
#    x 2.064100 0.000000 0.005940 
#    y 0.000000 2.011040 0.000000 
#    z 0.005940 0.000000 2.018930 
# 
# From -- ./inp_files/150788.got.cif
#   From: 2010.05.17/outbox.cif.g08.bks.cpg/sg15_76_cif.got.tgz:150788.got - 2010.06.03 18:47:42.
