data_PCOD9299759
_publ_section_title
;
Structure prediction by ZEFSAII (Michael W. Deem and Ramdas Pophale) SiO2 
 PCOD9299759
Probable space group: C 2/C
;
_chemical_formula_sum "Si O2"
_cell_formula_units_Z 44
_cell_length_a 5.723260
_cell_length_b 25.919636
_cell_length_c 15.335118
_cell_angle_alpha 90.000000
_cell_angle_beta 53.617733
_cell_angle_gamma 90.000000
_cell_volume 1831.458757
_symmetry_space_group_name_H-M "C 2/C"
_symmetry_group_IT_number 15
_symmetry_cell_setting 'monoclinic'
loop_
_space_group_symop_operation_xyz
x,y,z
-x,y,1/2-z
-x,-y,-z
x,-y,1/2+z
1/2+x,1/2+y,z
1/2-x,1/2+y,1/2-z
1/2-x,1/2-y,-z
1/2+x,1/2-y,1/2+z
loop_
_atom_site_type_symbol
_atom_site_label
_atom_site_fract_x
_atom_site_fract_y
_atom_site_fract_z
Si Si1 0.706961 0.840246 0.865728
Si Si2 0.280193 0.929338 0.510823
Si Si3 0.691795 0.213089 0.931191
Si Si4 0.580996 0.522229 0.641628
Si Si5 0.813715 0.873219 0.147188
Si Si6 0.500000 0.213185 0.250000
O O1 0.703715 0.897672 0.902494
O O2 0.493311 0.824385 0.834822
O O3 0.000000 0.827607 0.750000
O O4 0.620931 0.808501 0.971751
O O5 0.596677 0.953777 0.425804
O O6 0.194899 0.890763 0.451979
O O7 0.069082 0.977803 0.572019
O O8 0.927793 0.166402 0.885871
O O9 0.744667 0.245655 0.831683
O O10 0.750000 0.250000 0.000000
O O11 0.500000 0.496502 0.750000
O O12 0.374850 0.571449 0.677423
O O13 0.500000 0.853870 0.250000
#
# Coordination Sequence:
#
# PCOD9299759 Si02
#       6
#     8   8   8   8   8   4
#     4  11  25  45  71 102 140 188 229 287 360 429
#     4  11  25  43  73 104 145 186 231 293 357 430
#     4  10  25  46  67 101 139 182 237 296 346 415
#     4  11  23  46  67 107 144 181 239 290 354 428
#     4  12  25  44  76 105 141 191 239 297 357 422
#     4  10  26  48  68 102 144 182 238 306 348 416
#
# _framework density 24.024564000000002
#
# number of rings (size 3 to 8) (size 9 to 14) (size 15 to 20)
#    0.000    1.091    3.636    1.091    8.909    3.636 
#    0.000    0.000    0.000    0.000    0.000    0.000 
#    0.000    0.000    0.000    0.000    0.000    0.000 
#
# Total GULP energy -122708.997085 kJ/mol
# GULP energy per Si atom -5577.681686 kJ/mol
# Density = 2.396988 g / cm^3
# Si number density = 24.024564 Si / 1000 Ang^3
#
#
#
# Elastic Constant Matrix: (Units=GPa)
#
#
# Indices 1 2 3 4 5 6 
#
# 1 28.0139 23.7928 36.4033 0.0000 1.9122 0.0000
# 2 23.7928 113.1354 57.2314 0.0000 11.8872 0.0000
# 3 36.4033 57.2314 140.0523 0.0000 0.5032 0.0000
# 4 0.0000 0.0000 0.0000 39.8438 0.0000 0.9220
# 5 1.9122 11.8872 0.5032 0.0000 47.3190 0.0000
# 6 0.0000 0.0000 0.0000 0.9220 0.0000 -60.7951
#
#
#
# Elastic Compliance Matrix: (Units=1/GPa)
#
#
# Indices 1 2 3 4 5 6 
#
# 1 0.056634 -0.005527 -0.012459 0.000000 -0.000768 0.000000
# 2 -0.005527 0.012052 -0.003478 0.000000 -0.002767 0.000000
# 3 -0.012459 -0.003478 0.011796 0.000000 0.001252 0.000000
# 4 0.000000 0.000000 0.000000 0.025089 0.000000 0.000380
# 5 -0.000768 -0.002767 0.001252 0.000000 0.021846 0.000000
# 6 0.000000 0.000000 0.000000 0.000380 0.000000 -0.016443
#
#
# Mechanical properties :
#
#
# Convention : Reuss Voigt Hill
#
# Bulk Modulus (GPa) = 26.62985 57.33963 41.98474
# Shear Modulus (GPa) = 30.04463 16.19181 23.11822
#
# Velocity S-wave (km/s) = 3.54019 2.59891 3.10542
# Velocity P-wave (km/s) = 5.27438 5.73800 5.51107
#
# Compressibility (1/GPa) = 0.03755185
#
# Stress axis : x y z
#
# Youngs Moduli (GPa) = 17.65739 82.97672 84.77748
#
# Poissons Ratio (x) = 0.45860 1.05627
# Poissons Ratio (y) = 0.09759 0.29488
# Poissons Ratio (z) = 0.22000 0.28862
#
# Static dielectric constant tensor:
#      x y z
#    x 2.107710 0.000000 -0.015400 
#    y 0.000000 1.942450 0.000000 
#    z -0.015400 0.000000 1.975820 
# 
# From -- ./inp_files/129981.got.cif
#   From: 2010.05.17/outbox.cif.g08.bks.cpg/sg15_65_cif.got.tgz:129981.got - 2010.06.03 18:47:42.
