data_PCOD9299150
_publ_section_title
;
Structure prediction by ZEFSAII (Michael W. Deem and Ramdas Pophale) SiO2 
 PCOD9299150
Probable space group: C 2/C
;
_chemical_formula_sum "Si O2"
_cell_formula_units_Z 44
_cell_length_a 23.439660
_cell_length_b 4.915011
_cell_length_c 18.860241
_cell_angle_alpha 90.000000
_cell_angle_beta 50.216959
_cell_angle_gamma 90.000000
_cell_volume 1669.750678
_symmetry_space_group_name_H-M "C 2/C"
_symmetry_group_IT_number 15
_symmetry_cell_setting 'monoclinic'
loop_
_space_group_symop_operation_xyz
x,y,z
-x,y,1/2-z
-x,-y,-z
x,-y,1/2+z
1/2+x,1/2+y,z
1/2-x,1/2+y,1/2-z
1/2-x,1/2-y,-z
1/2+x,1/2-y,1/2+z
loop_
_atom_site_type_symbol
_atom_site_label
_atom_site_fract_x
_atom_site_fract_y
_atom_site_fract_z
Si Si1 0.579492 0.630424 0.925966
Si Si2 0.875628 0.278716 0.768384
Si Si3 0.766792 0.150206 0.193295
Si Si4 0.395124 0.892277 0.452638
Si Si5 0.174043 0.917633 0.055476
Si Si6 0.500000 0.122505 0.750000
O O1 0.591283 0.710730 0.834735
O O2 0.649542 0.434662 0.886429
O O3 0.500000 0.500000 0.000000
O O4 0.585476 0.862838 0.980888
O O5 0.795787 0.413227 0.814902
O O6 0.855652 0.042365 0.840309
O O7 0.935239 0.453798 0.762912
O O8 0.758237 0.466267 0.219517
O O9 0.325922 0.700045 0.486358
O O10 0.458802 0.755882 0.351673
O O11 0.379463 0.199798 0.442192
O O12 0.250000 0.750000 0.000000
#
# Coordination Sequence:
#
# PCOD9299150 Si02
#       6
#     8   8   8   8   8   4
#     4  11  27  44  77 114 150 197 254 319 379 447
#     4  10  25  47  75 104 152 194 250 308 374 448
#     4  10  24  47  71 106 147 192 245 307 374 440
#     4  11  27  44  71 106 147 188 250 302 375 445
#     4  11  25  48  75 106 147 196 246 305 376 454
#     4  10  26  46  72 108 148 202 244 304 378 450
#
# _framework density 26.351241000000002
#
# number of rings (size 3 to 8) (size 9 to 14) (size 15 to 20)
#    0.000    1.455    0.000    1.636   10.182   16.000 
#    0.000    0.000    0.000    0.000    0.000    0.000 
#    0.000    0.000    0.000    0.000    0.000    0.000 
#
# Total GULP energy -123128.258705 kJ/mol
# GULP energy per Si atom -5596.739032 kJ/mol
# Density = 2.629126 g / cm^3
# Si number density = 26.351241 Si / 1000 Ang^3
#
#
#
# Elastic Constant Matrix: (Units=GPa)
#
#
# Indices 1 2 3 4 5 6 
#
# 1 175.6043 41.7472 58.5767 0.1222 2.7106 -0.0686
# 2 41.7472 95.6829 26.4431 0.2124 9.7243 -0.0314
# 3 58.5767 26.4431 181.3145 0.0989 27.4241 -0.0607
# 4 0.1222 0.2124 0.0989 28.9005 -0.0954 4.7004
# 5 2.7106 9.7243 27.4241 -0.0954 68.6068 0.0212
# 6 -0.0686 -0.0314 -0.0607 4.7004 0.0212 36.5440
#
#
#
# Elastic Compliance Matrix: (Units=1/GPa)
#
#
# Indices 1 2 3 4 5 6 
#
# 1 0.006963 -0.002573 -0.002009 -0.000002 0.000893 0.000007
# 2 -0.002573 0.011902 -0.000707 -0.000081 -0.001303 0.000015
# 3 -0.002009 -0.000707 0.006642 -0.000019 -0.002475 0.000011
# 4 -0.000002 -0.000081 -0.000019 0.035342 0.000070 -0.004546
# 5 0.000893 -0.001303 -0.002475 0.000070 0.015715 -0.000022
# 6 0.000007 0.000015 0.000011 -0.004546 -0.000022 0.027949
#
#
# Mechanical properties :
#
#
# Convention : Reuss Voigt Hill
#
# Bulk Modulus (GPa) = 66.99283 78.45954 72.72618
# Shear Modulus (GPa) = 41.64310 48.53257 45.08784
#
# Velocity S-wave (km/s) = 3.97962 4.29622 4.14095
# Velocity P-wave (km/s) = 6.82603 7.37897 7.10788
#
# Compressibility (1/GPa) = 0.01492697
#
# Stress axis : x y z
#
# Youngs Moduli (GPa) = 143.61955 84.01920 150.55802
#
# Poissons Ratio (x) = 0.21622 0.30250
# Poissons Ratio (y) = 0.36959 0.10650
# Poissons Ratio (z) = 0.28856 0.05943
#
# Static dielectric constant tensor:
#      x y z
#    x 2.119840 -0.000170 -0.035930 
#    y -0.000170 2.078340 0.000030 
#    z -0.035930 0.000030 2.185320 
# 
# From -- ./inp_files/253943.got.cif
#   From: 2010.05.17/outbox.cif.g08.bks.cpg/sg15_127_cif.got.tgz:253943.got - 2010.06.03 18:47:42.
