data_PCOD9299750
_publ_section_title
;
Structure prediction by ZEFSAII (Michael W. Deem and Ramdas Pophale) SiO2 
 PCOD9299750
Probable space group: C 2/C
;
_chemical_formula_sum "Si O2"
_cell_formula_units_Z 36
_cell_length_a 27.114462
_cell_length_b 5.601750
_cell_length_c 8.429572
_cell_angle_alpha 90.000000
_cell_angle_beta 94.187812
_cell_angle_gamma 90.000000
_cell_volume 1276.936017
_symmetry_space_group_name_H-M "C 2/C"
_symmetry_group_IT_number 15
_symmetry_cell_setting 'monoclinic'
loop_
_space_group_symop_operation_xyz
x,y,z
-x,y,1/2-z
-x,-y,-z
x,-y,1/2+z
1/2+x,1/2+y,z
1/2-x,1/2+y,1/2-z
1/2-x,1/2-y,-z
1/2+x,1/2-y,1/2+z
loop_
_atom_site_type_symbol
_atom_site_label
_atom_site_fract_x
_atom_site_fract_y
_atom_site_fract_z
Si Si1 0.651526 0.037632 0.883710
Si Si2 0.636011 0.639020 0.075598
Si Si3 0.438455 0.264322 0.449761
Si Si4 0.242521 0.961671 0.157358
Si Si5 0.000000 0.412805 0.250000
O O1 0.646223 0.162596 0.713121
O O2 0.611602 0.164537 0.983821
O O3 0.709336 0.051610 0.944354
O O4 0.635975 0.761877 0.902108
O O5 0.686490 0.488260 0.086825
O O6 0.582929 0.522833 0.099871
O O7 0.459737 0.094308 0.317869
O O8 0.477671 0.244153 0.602298
O O9 0.253338 0.219601 0.240728
#
# Coordination Sequence:
#
# PCOD9299750 Si02
#       5
#     8   8   8   8   4
#     4  11  26  49  76 118 166 217 281 332 416 501
#     4  11  27  48  81 117 168 226 272 344 414 505
#     4  11  26  51  87 112 165 208 280 350 434 496
#     4  10  25  45  80 124 177 223 284 338 419 501
#     4  10  26  56  84 126 154 210 280 364 424 512
#
# _framework density 28.192485999999999
#
# number of rings (size 3 to 8) (size 9 to 14) (size 15 to 20)
#    0.000    1.333    0.000    2.000   15.556    0.889 
#    0.000   23.333    0.000    1.333    0.000    0.000 
#    0.000    0.000    0.000    0.000    0.000    0.000 
#
# Total GULP energy -100861.367864 kJ/mol
# GULP energy per Si atom -5603.409326 kJ/mol
# Density = 2.812832 g / cm^3
# Si number density = 28.192486 Si / 1000 Ang^3
#
#
#
# Elastic Constant Matrix: (Units=GPa)
#
#
# Indices 1 2 3 4 5 6 
#
# 1 232.2166 72.6129 63.2508 0.0000 5.0585 0.0000
# 2 72.6129 152.8801 61.0794 0.0000 21.5873 0.0000
# 3 63.2508 61.0794 98.7875 0.0000 3.6765 0.0000
# 4 0.0000 0.0000 0.0000 50.1520 0.0000 -12.2155
# 5 5.0585 21.5873 3.6765 0.0000 60.4392 0.0000
# 6 0.0000 0.0000 0.0000 -12.2155 0.0000 69.6895
#
#
#
# Elastic Compliance Matrix: (Units=1/GPa)
#
#
# Indices 1 2 3 4 5 6 
#
# 1 0.005500 -0.001648 -0.002513 0.000000 0.000281 0.000000
# 2 -0.001648 0.009674 -0.004814 0.000000 -0.003025 0.000000
# 3 -0.002513 -0.004814 0.014669 0.000000 0.001037 0.000000
# 4 0.000000 0.000000 0.000000 0.020829 0.000000 0.003651
# 5 0.000281 -0.003025 0.001037 0.000000 0.017539 0.000000
# 6 0.000000 0.000000 0.000000 0.003651 0.000000 0.014989
#
#
# Mechanical properties :
#
#
# Convention : Reuss Voigt Hill
#
# Bulk Modulus (GPa) = 84.07520 97.53005 90.80262
# Shear Modulus (GPa) = 47.56706 55.18555 51.37631
#
# Velocity S-wave (km/s) = 4.11204 4.42911 4.27352
# Velocity P-wave (km/s) = 7.24098 7.79907 7.52520
#
# Compressibility (1/GPa) = 0.01189411
#
# Stress axis : x y z
#
# Youngs Moduli (GPa) = 181.81767 103.36892 68.16920
#
# Poissons Ratio (x) = 0.17035 0.17131
# Poissons Ratio (y) = 0.29964 0.32814
# Poissons Ratio (z) = 0.45691 0.49758
#
# Static dielectric constant tensor:
#      x y z
#    x 2.098900 0.000000 0.033700 
#    y 0.000000 2.533270 0.000000 
#    z 0.033700 0.000000 2.190760 
# 
# From -- ./inp_files/68023.got.cif
#   From: 2010.05.17/outbox.cif.g08.bks.cpg/sg15_35_cif.got.tgz:68023.got - 2010.06.03 18:47:42.
