data_PCOD9299994
_publ_section_title
;
Structure prediction by ZEFSAII (Michael W. Deem and Ramdas Pophale) SiO2 
 PCOD9299994
Probable space group: C 2/C
;
_chemical_formula_sum "Si O2"
_cell_formula_units_Z 44
_cell_length_a 16.364327
_cell_length_b 11.521132
_cell_length_c 14.601748
_cell_angle_alpha 90.000000
_cell_angle_beta 145.009155
_cell_angle_gamma 90.000000
_cell_volume 1578.666273
_symmetry_space_group_name_H-M "C 2/C"
_symmetry_group_IT_number 15
_symmetry_cell_setting 'monoclinic'
loop_
_space_group_symop_operation_xyz
x,y,z
-x,y,1/2-z
-x,-y,-z
x,-y,1/2+z
1/2+x,1/2+y,z
1/2-x,1/2+y,1/2-z
1/2-x,1/2-y,-z
1/2+x,1/2-y,1/2+z
loop_
_atom_site_type_symbol
_atom_site_label
_atom_site_fract_x
_atom_site_fract_y
_atom_site_fract_z
Si Si1 0.564673 0.098535 0.645414
Si Si2 0.949241 0.002027 0.350275
Si Si3 0.328986 0.864614 0.659460
Si Si4 0.748961 0.295235 0.895965
Si Si5 0.000000 0.153280 0.750000
Si Si6 0.680901 0.844945 0.071362
O O1 0.697873 0.184562 0.790727
O O2 0.563312 0.107175 0.533247
O O3 0.613931 0.983837 0.747442
O O4 0.594527 0.145903 0.974963
O O5 0.812146 0.920971 0.224937
O O6 0.056235 0.943517 0.374715
O O7 0.882153 0.118686 0.247784
O O8 0.000000 0.000000 0.500000
O O9 0.437348 0.753032 0.760230
O O10 0.312913 0.872063 0.533407
O O11 0.207521 0.793157 0.603067
O O12 0.750000 0.250000 0.000000
#
# Coordination Sequence:
#
# PCOD9299994 Si02
#       6
#     8   8   8   8   4   8
#     4  12  30  54  91 128 180 238 306 371 467 555
#     4  11  28  52  84 129 177 232 299 379 448 549
#     4  10  25  54  85 130 176 232 301 379 449 556
#     4  12  31  55  86 133 186 240 302 382 471 557
#     4  10  26  50  90 116 176 232 292 364 468 518
#     4  10  26  51  88 126 171 234 301 368 458 541
#
# _framework density 27.871628000000001
#
# number of rings (size 3 to 8) (size 9 to 14) (size 15 to 20)
#    0.000    1.091    0.000    1.636   15.273    5.091 
#    0.000    4.545    0.000    0.000    0.000    0.000 
#    0.000    0.000    0.000    0.000    0.000    0.000 
#
# Total GULP energy -122626.859921 kJ/mol
# GULP energy per Si atom -5573.948178 kJ/mol
# Density = 2.780819 g / cm^3
# Si number density = 27.871628 Si / 1000 Ang^3
#
#
#
# Elastic Constant Matrix: (Units=GPa)
#
#
# Indices 1 2 3 4 5 6 
#
# 1 142.7076 60.4767 39.8172 0.0000 -31.8067 0.0000
# 2 60.4767 215.9357 100.4155 0.0000 -26.8359 0.0000
# 3 39.8172 100.4155 195.8495 0.0000 -32.0573 0.0000
# 4 0.0000 0.0000 0.0000 61.8360 0.0000 4.5333
# 5 -31.8067 -26.8359 -32.0573 0.0000 44.9706 0.0000
# 6 0.0000 0.0000 0.0000 4.5333 0.0000 52.1340
#
#
#
# Elastic Compliance Matrix: (Units=1/GPa)
#
#
# Indices 1 2 3 4 5 6 
#
# 1 0.008961 -0.001853 -0.000017 0.000000 0.005220 0.000000
# 2 -0.001853 0.006566 -0.002902 0.000000 0.000539 0.000000
# 3 -0.000017 -0.002902 0.007146 0.000000 0.003350 0.000000
# 4 0.000000 0.000000 0.000000 0.016276 0.000000 -0.001415
# 5 0.005220 0.000539 0.003350 0.000000 0.028638 0.000000
# 6 0.000000 0.000000 0.000000 -0.001415 0.000000 0.019304
#
#
# Mechanical properties :
#
#
# Convention : Reuss Voigt Hill
#
# Bulk Modulus (GPa) = 76.16851 106.21238 91.19044
# Shear Modulus (GPa) = 49.59773 55.37369 52.48571
#
# Velocity S-wave (km/s) = 4.22300 4.46212 4.34420
# Velocity P-wave (km/s) = 7.15304 8.04598 7.61261
#
# Compressibility (1/GPa) = 0.01312879
#
# Stress axis : x y z
#
# Youngs Moduli (GPa) = 111.59777 152.29223 139.94713
#
# Poissons Ratio (x) = 0.28217 0.00244
# Poissons Ratio (y) = 0.20677 0.40608
# Poissons Ratio (z) = 0.00194 0.44190
#
# Static dielectric constant tensor:
#      x y z
#    x 4.881190 0.000000 0.016360 
#    y 0.000000 2.480380 0.000000 
#    z 0.016360 0.000000 2.635100 
# 
# From -- ./inp_files/173034.got.cif
#   From: 2010.05.17/outbox.cif.g08.bks.cpg/sg15_87_cif.got.tgz:173034.got - 2010.06.03 18:47:42.
