data_PCOD9299054
_publ_section_title
;
Structure prediction by ZEFSAII (Michael W. Deem and Ramdas Pophale) SiO2 
 PCOD9299054
Probable space group: C 2/C
;
_chemical_formula_sum "Si O2"
_cell_formula_units_Z 44
_cell_length_a 29.519488
_cell_length_b 11.627131
_cell_length_c 18.173132
_cell_angle_alpha 90.000000
_cell_angle_beta 15.507475
_cell_angle_gamma 90.000000
_cell_volume 1667.685863
_symmetry_space_group_name_H-M "C 2/C"
_symmetry_group_IT_number 15
_symmetry_cell_setting 'monoclinic'
loop_
_space_group_symop_operation_xyz
x,y,z
-x,y,1/2-z
-x,-y,-z
x,-y,1/2+z
1/2+x,1/2+y,z
1/2-x,1/2+y,1/2-z
1/2-x,1/2-y,-z
1/2+x,1/2-y,1/2+z
loop_
_atom_site_type_symbol
_atom_site_label
_atom_site_fract_x
_atom_site_fract_y
_atom_site_fract_z
Si Si1 0.799388 0.049520 0.042883
Si Si2 0.185058 0.297612 0.268433
Si Si3 0.500000 0.876817 0.250000
Si Si4 0.191120 0.453263 0.544863
Si Si5 0.898566 0.173645 0.229042
Si Si6 0.749519 0.712508 0.683731
O O1 0.000000 0.046834 0.750000
O O2 0.728623 0.077807 0.071119
O O3 0.735834 0.152769 0.192520
O O4 0.730707 0.923132 0.168089
O O5 0.051476 0.241228 0.422661
O O6 0.120085 0.303588 0.453080
O O7 0.339680 0.206031 0.015117
O O8 0.463530 0.961544 0.237869
O O9 0.341843 0.546847 0.299233
O O10 0.205940 0.357346 0.458760
O O11 0.750000 0.250000 0.500000
O O12 0.075849 0.166137 0.992986
#
# Coordination Sequence:
#
# PCOD9299054 Si02
#       6
#     8   8   4   8   8   8
#     4  12  27  47  71 105 155 194 233 304 374 433
#     4  11  24  44  70 102 141 190 245 294 354 436
#     4  10  24  46  76 104 138 198 248 296 360 436
#     4  11  25  47  75 102 151 190 244 302 368 435
#     4  11  23  47  72 101 137 191 246 298 351 431
#     4  12  28  42  72 109 144 189 245 303 367 429
#
# _framework density 26.383866999999999
#
# number of rings (size 3 to 8) (size 9 to 14) (size 15 to 20)
#    0.000    0.727    2.727    4.364    8.909    2.182 
#    0.000    0.000    0.000    0.000    0.000    0.000 
#    0.000    0.000    0.000    0.000    0.000    0.000 
#
# Total GULP energy -123026.600352 kJ/mol
# GULP energy per Si atom -5592.118198 kJ/mol
# Density = 2.632382 g / cm^3
# Si number density = 26.383867 Si / 1000 Ang^3
#
#
#
# Elastic Constant Matrix: (Units=GPa)
#
#
# Indices 1 2 3 4 5 6 
#
# 1 166.3624 7.3784 1.5833 -0.0009 28.8519 0.0021
# 2 7.3784 84.0154 12.1498 -0.0013 17.7873 0.0035
# 3 1.5833 12.1498 67.7682 -0.0012 7.9223 0.0018
# 4 -0.0009 -0.0013 -0.0012 34.6600 0.0010 5.1747
# 5 28.8519 17.7873 7.9223 0.0010 32.4016 -0.0018
# 6 0.0021 0.0035 0.0018 5.1747 -0.0018 46.1507
#
#
#
# Elastic Compliance Matrix: (Units=1/GPa)
#
#
# Indices 1 2 3 4 5 6 
#
# 1 0.007174 0.000764 0.000506 0.000001 -0.006932 -0.000001
# 2 0.000764 0.013719 -0.001562 0.000001 -0.007830 -0.000001
# 3 0.000506 -0.001562 0.015418 0.000001 -0.003362 -0.000001
# 4 0.000001 0.000001 0.000001 0.029343 -0.000002 -0.003290
# 5 -0.006932 -0.007830 -0.003362 -0.000002 0.042155 0.000003
# 6 -0.000001 -0.000001 -0.000001 -0.003290 0.000003 0.022037
#
#
# Mechanical properties :
#
#
# Convention : Reuss Voigt Hill
#
# Bulk Modulus (GPa) = 27.99023 40.04101 34.01562
# Shear Modulus (GPa) = 35.12728 42.44477 38.78602
#
# Velocity S-wave (km/s) = 3.65278 4.01526 3.83830
# Velocity P-wave (km/s) = 5.33126 6.05852 5.70649
#
# Compressibility (1/GPa) = 0.03572675
#
# Stress axis : x y z
#
# Youngs Moduli (GPa) = 139.38435 72.89120 64.86136
#
# Poissons Ratio (x) = -0.05571 -0.03280
# Poissons Ratio (y) = -0.10654 0.10132
# Poissons Ratio (z) = -0.07048 0.11387
#
# Static dielectric constant tensor:
#      x y z
#    x 2.227360 0.000000 0.005440 
#    y 0.000000 1.949680 0.000000 
#    z 0.005440 0.000000 2.116980 
# 
# From -- ./inp_files/225088.got.cif
#   From: 2010.05.17/outbox.cif.g08.bks.cpg/sg15_113_cif.got.tgz:225088.got - 2010.06.03 18:47:42.
