data_PCOD9299775
_publ_section_title
;
Structure prediction by ZEFSAII (Michael W. Deem and Ramdas Pophale) SiO2 
 PCOD9299775
Probable space group: C 2/C
;
_chemical_formula_sum "Si O2"
_cell_formula_units_Z 56
_cell_length_a 10.857506
_cell_length_b 9.594429
_cell_length_c 30.622563
_cell_angle_alpha 90.000000
_cell_angle_beta 121.458880
_cell_angle_gamma 90.000000
_cell_volume 2721.118039
_symmetry_space_group_name_H-M "C 2/C"
_symmetry_group_IT_number 15
_symmetry_cell_setting 'monoclinic'
loop_
_space_group_symop_operation_xyz
x,y,z
-x,y,1/2-z
-x,-y,-z
x,-y,1/2+z
1/2+x,1/2+y,z
1/2-x,1/2+y,1/2-z
1/2-x,1/2-y,-z
1/2+x,1/2-y,1/2+z
loop_
_atom_site_type_symbol
_atom_site_label
_atom_site_fract_x
_atom_site_fract_y
_atom_site_fract_z
Si Si1 0.622040 0.963679 0.625171
Si Si2 0.644849 0.159638 0.034484
Si Si3 0.183014 0.213690 0.851515
Si Si4 0.805273 0.436652 0.052151
Si Si5 0.673738 0.716574 0.031896
Si Si6 0.672874 0.056910 0.281656
Si Si7 0.846403 0.226913 0.798427
O O1 0.642455 0.926072 0.578250
O O2 0.649995 0.826403 0.658530
O O3 0.729019 0.090399 0.655689
O O4 0.456896 0.013278 0.599990
O O5 0.760123 0.283999 0.058931
O O6 0.678157 0.072092 0.997319
O O7 0.487945 0.227601 0.998342
O O8 0.237846 0.220462 0.911305
O O9 0.211366 0.361835 0.833367
O O10 0.012251 0.187276 0.818449
O O11 0.684782 0.550576 0.040125
O O12 0.750000 0.750000 0.000000
O O13 0.500000 0.032310 0.250000
O O14 0.705003 0.170736 0.249854
O O15 0.754529 0.912250 0.288891
#
# Coordination Sequence:
#
# PCOD9299775 Si02
#       7
#     8   8   8   8   8   8   8
#     4  12  23  40  65  94 132 167 216 264 318 379
#     4  11  24  39  60  93 130 179 221 261 310 367
#     4  11  24  41  65  95 130 164 212 264 319 381
#     4  11  23  39  59  89 132 172 220 264 306 367
#     4  12  21  40  63  88 131 177 216 262 310 369
#     4  10  25  46  69  94 125 160 208 268 327 393
#     4  11  24  45  69  96 124 164 207 266 333 388
#
# _framework density 20.579777
#
# number of rings (size 3 to 8) (size 9 to 14) (size 15 to 20)
#    0.000    0.857    4.286    2.571    2.000    2.286 
#    2.571    0.000    0.000    0.000    0.000    0.000 
#    0.000    0.000    0.000    0.000    0.000    0.000 
#
# Total GULP energy -156646.525698 kJ/mol
# GULP energy per Si atom -5594.518775 kJ/mol
# Density = 2.053294 g / cm^3
# Si number density = 20.579777 Si / 1000 Ang^3
#
#
#
# Elastic Constant Matrix: (Units=GPa)
#
#
# Indices 1 2 3 4 5 6 
#
# 1 66.9967 60.8206 29.0239 0.0000 10.8881 0.0000
# 2 60.8206 154.1536 50.5738 0.0000 19.4531 0.0000
# 3 29.0239 50.5738 79.6908 0.0000 9.8988 0.0000
# 4 0.0000 0.0000 0.0000 29.0167 0.0000 5.6462
# 5 10.8881 19.4531 9.8988 0.0000 8.2456 0.0000
# 6 0.0000 0.0000 0.0000 5.6462 0.0000 44.7820
#
#
#
# Elastic Compliance Matrix: (Units=1/GPa)
#
#
# Indices 1 2 3 4 5 6 
#
# 1 0.024761 -0.007309 -0.002891 0.000000 -0.011982 0.000000
# 2 -0.007309 0.012431 -0.003271 0.000000 -0.015750 0.000000
# 3 -0.002891 -0.003271 0.016741 0.000000 -0.008563 0.000000
# 4 0.000000 0.000000 0.000000 0.035330 0.000000 -0.004454
# 5 -0.011982 -0.015750 -0.008563 0.000000 0.184537 0.000000
# 6 0.000000 0.000000 0.000000 -0.004454 0.000000 0.022892
#
#
# Mechanical properties :
#
#
# Convention : Reuss Voigt Hill
#
# Bulk Modulus (GPa) = 37.04906 64.63085 50.83996
# Shear Modulus (GPa) = 15.03166 27.10370 21.06768
#
# Velocity S-wave (km/s) = 2.70554 3.63300 3.20301
# Velocity P-wave (km/s) = 5.27273 7.00510 6.19972
#
# Compressibility (1/GPa) = 0.02699124
#
# Stress axis : x y z
#
# Youngs Moduli (GPa) = 40.38622 80.44194 59.73348
#
# Poissons Ratio (x) = 0.58792 0.17272
# Poissons Ratio (y) = 0.29517 0.19538
# Poissons Ratio (z) = 0.11677 0.26312
#
# Static dielectric constant tensor:
#      x y z
#    x 1.713010 0.000000 -0.023170 
#    y 0.000000 1.730590 0.000000 
#    z -0.023170 0.000000 1.738250 
# 
# From -- ./inp_files/310386.got.cif
#   From: 2010.05.17/outbox.cif.g08.bks.cpg/sg15_156_cif.got.tgz:310386.got - 2010.06.03 18:47:42.
