data_PCOD9299388
_publ_section_title
;
Structure prediction by ZEFSAII (Michael W. Deem and Ramdas Pophale) SiO2 
 PCOD9299388
Probable space group: C 2/C
;
_chemical_formula_sum "Si O2"
_cell_formula_units_Z 36
_cell_length_a 18.366335
_cell_length_b 8.386869
_cell_length_c 9.288516
_cell_angle_alpha 90.000000
_cell_angle_beta 108.634525
_cell_angle_gamma 90.000000
_cell_volume 1355.759842
_symmetry_space_group_name_H-M "C 2/C"
_symmetry_group_IT_number 15
_symmetry_cell_setting 'monoclinic'
loop_
_space_group_symop_operation_xyz
x,y,z
-x,y,1/2-z
-x,-y,-z
x,-y,1/2+z
1/2+x,1/2+y,z
1/2-x,1/2+y,1/2-z
1/2-x,1/2-y,-z
1/2+x,1/2-y,1/2+z
loop_
_atom_site_type_symbol
_atom_site_label
_atom_site_fract_x
_atom_site_fract_y
_atom_site_fract_z
Si Si1 0.000000 0.725802 0.250000
Si Si2 0.321646 0.215434 0.341724
Si Si3 0.000000 0.239047 0.250000
Si Si4 0.000000 0.500000 0.500000
Si Si5 0.120969 0.037685 0.823505
Si Si6 0.780563 0.539656 0.576203
O O1 0.034033 0.613543 0.150342
O O2 0.935366 0.835383 0.136558
O O3 0.368471 0.373480 0.324075
O O4 0.242890 0.304891 0.345521
O O5 0.339177 0.096635 0.487620
O O6 0.305952 0.103074 0.195035
O O7 0.004612 0.346934 0.112469
O O8 0.925664 0.124389 0.206893
O O9 0.204049 0.018599 0.945040
#
# Coordination Sequence:
#
# PCOD9299388 Si02
#       6
#     4   8   4   4   8   8
#     4  10  26  44  74 106 148 186 246 294 394 430
#     4  11  25  46  72 106 149 199 257 303 370 429
#     4  10  26  48  80 108 152 186 252 294 404 430
#     4  10  24  50  64 110 144 188 240 308 352 466
#     4  11  25  46  77 108 147 198 239 314 363 467
#     4  11  25  47  70 110 149 203 252 311 369 436
#
# _framework density 26.553374999999999
#
# number of rings (size 3 to 8) (size 9 to 14) (size 15 to 20)
#    0.000    1.333    2.222    0.667    6.222    3.556 
#   12.000    0.000    0.000    0.000    0.000    0.000 
#    0.000    0.000    0.000    0.000    0.000    0.000 
#
# Total GULP energy -100329.300787 kJ/mol
# GULP energy per Si atom -5573.850044 kJ/mol
# Density = 2.649294 g / cm^3
# Si number density = 26.553375 Si / 1000 Ang^3
#
#
#
# Elastic Constant Matrix: (Units=GPa)
#
#
# Indices 1 2 3 4 5 6 
#
# 1 77.4810 52.6385 38.9126 0.0000 6.0926 0.0000
# 2 52.6385 204.3873 101.4242 0.0000 -5.2203 0.0000
# 3 38.9126 101.4242 151.1240 0.0000 -11.8574 0.0000
# 4 0.0000 0.0000 0.0000 50.5878 0.0000 -6.4948
# 5 6.0926 -5.2203 -11.8574 0.0000 42.8838 0.0000
# 6 0.0000 0.0000 0.0000 -6.4948 0.0000 26.5210
#
#
#
# Elastic Compliance Matrix: (Units=1/GPa)
#
#
# Indices 1 2 3 4 5 6 
#
# 1 0.016521 -0.003146 -0.002409 0.000000 -0.003396 0.000000
# 2 -0.003146 0.007945 -0.004509 0.000000 0.000167 0.000000
# 3 -0.002409 -0.004509 0.010474 0.000000 0.002690 0.000000
# 4 0.000000 0.000000 0.000000 0.020409 0.000000 0.004998
# 5 -0.003396 0.000167 0.002690 0.000000 0.024565 0.000000
# 6 0.000000 0.000000 0.000000 0.004998 0.000000 0.038930
#
#
# Mechanical properties :
#
#
# Convention : Reuss Voigt Hill
#
# Bulk Modulus (GPa) = 67.51197 90.99367 79.25282
# Shear Modulus (GPa) = 34.74423 39.99963 37.37193
#
# Velocity S-wave (km/s) = 3.62120 3.88543 3.75564
# Velocity P-wave (km/s) = 6.55472 7.38047 6.97982
#
# Compressibility (1/GPa) = 0.01481219
#
# Stress axis : x y z
#
# Youngs Moduli (GPa) = 60.53036 125.87244 95.47241
#
# Poissons Ratio (x) = 0.39602 0.22998
# Poissons Ratio (y) = 0.19044 0.43045
# Poissons Ratio (z) = 0.14581 0.56751
#
# Static dielectric constant tensor:
#      x y z
#    x 2.226210 0.000000 -0.071180 
#    y 0.000000 2.040990 0.000000 
#    z -0.071180 0.000000 2.030100 
# 
# From -- ./inp_files/59765.got.cif
#   From: 2010.05.17/outbox.cif.g08.bks.cpg/sg15_30_cif.got.tgz:59765.got - 2010.06.03 18:47:42.
