data_PCOD9299825
_publ_section_title
;
Structure prediction by ZEFSAII (Michael W. Deem and Ramdas Pophale) SiO2 
 PCOD9299825
Probable space group: C 2/C
;
_chemical_formula_sum "Si O2"
_cell_formula_units_Z 60
_cell_length_a 26.370309
_cell_length_b 14.269227
_cell_length_c 20.336645
_cell_angle_alpha 90.000000
_cell_angle_beta 18.072937
_cell_angle_gamma 90.000000
_cell_volume 2373.969681
_symmetry_space_group_name_H-M "C 2/C"
_symmetry_group_IT_number 15
_symmetry_cell_setting 'monoclinic'
loop_
_space_group_symop_operation_xyz
x,y,z
-x,y,1/2-z
-x,-y,-z
x,-y,1/2+z
1/2+x,1/2+y,z
1/2-x,1/2+y,1/2-z
1/2-x,1/2-y,-z
1/2+x,1/2-y,1/2+z
loop_
_atom_site_type_symbol
_atom_site_label
_atom_site_fract_x
_atom_site_fract_y
_atom_site_fract_z
Si Si1 0.091729 0.472598 0.496967
Si Si2 0.094782 0.712636 0.279216
Si Si3 0.131206 0.873817 0.138264
Si Si4 0.167210 0.772601 0.421651
Si Si5 0.259718 0.036379 0.048226
Si Si6 0.983067 0.642835 0.980509
Si Si7 0.500000 0.798358 0.250000
Si Si8 0.928364 0.050606 0.524682
O O1 0.152639 0.510444 0.491582
O O2 0.968361 0.540245 0.609548
O O3 0.239760 0.477070 0.261074
O O4 0.040141 0.365277 0.575180
O O5 0.061786 0.816315 0.288000
O O6 0.097354 0.678795 0.352064
O O7 0.272555 0.696040 0.028982
O O8 0.000000 0.917107 0.250000
O O9 0.269194 0.949566 0.987631
O O10 0.152883 0.672191 0.405832
O O11 0.095278 0.838340 0.453116
O O12 0.048681 0.765382 0.629350
O O13 0.342600 0.804382 0.230073
O O14 0.064312 0.034781 0.301710
O O15 0.347143 0.132837 0.920856
O O16 0.000000 0.000000 0.500000
#
# Coordination Sequence:
#
# PCOD9299825 Si02
#       8
#     8   8   8   8   8   8   4   8
#     4  11  24  50  78 111 155 212 271 334 421 483
#     4  11  27  47  76 108 160 204 274 335 402 495
#     4  11  29  46  75 118 155 211 266 334 414 489
#     4  12  28  49  78 119 151 217 271 341 410 489
#     4  11  25  49  78 110 161 215 263 337 413 496
#     4  12  28  47  82 117 160 212 279 341 412 495
#     4  12  26  56  80 110 166 206 274 332 418 492
#     4  10  25  46  77 111 155 202 271 331 404 483
#
# _framework density 25.274124
#
# number of rings (size 3 to 8) (size 9 to 14) (size 15 to 20)
#    0.000    0.800    2.667    2.000   13.067    2.133 
#    1.200    0.000    0.000    0.000    0.000    0.000 
#    0.000    0.000    0.000    0.000    0.000    0.000 
#
# Total GULP energy -167070.971060 kJ/mol
# GULP energy per Si atom -5569.032369 kJ/mol
# Density = 2.521660 g / cm^3
# Si number density = 25.274124 Si / 1000 Ang^3
#
#
#
# Elastic Constant Matrix: (Units=GPa)
#
#
# Indices 1 2 3 4 5 6 
#
# 1 110.9512 43.0769 3.7924 0.0033 -2.9864 -0.0020
# 2 43.0769 99.2624 5.1463 0.0057 -13.6713 -0.0039
# 3 3.7924 5.1463 82.3799 0.0057 8.6525 -0.0057
# 4 0.0033 0.0057 0.0057 -4.2738 -0.0036 6.9912
# 5 -2.9864 -13.6713 8.6525 -0.0036 38.1649 0.0027
# 6 -0.0020 -0.0039 -0.0057 6.9912 0.0027 44.3462
#
#
#
# Elastic Compliance Matrix: (Units=1/GPa)
#
#
# Indices 1 2 3 4 5 6 
#
# 1 0.010868 -0.004829 -0.000109 0.000002 -0.000855 0.000000
# 2 -0.004829 0.012838 -0.001048 0.000007 0.004459 -0.000001
# 3 -0.000109 -0.001048 0.012549 0.000016 -0.003229 -0.000001
# 4 0.000002 0.000007 0.000016 -0.186012 -0.000020 0.029325
# 5 -0.000855 0.004459 -0.003229 -0.000020 0.028464 0.000001
# 6 0.000000 -0.000001 -0.000001 0.029325 0.000001 0.017927
#
#
# Mechanical properties :
#
#
# Convention : Reuss Voigt Hill
#
# Bulk Modulus (GPa) = 41.17943 44.06942 42.62443
# Shear Modulus (GPa) = -60.02416 31.68597 -14.16910
#
# Velocity S-wave (km/s) = -4.87861 3.54459 -2.37030
# Velocity P-wave (km/s) = 3.92504 5.85035 3.06763
#
# Compressibility (1/GPa) = 0.02428397
#
# Stress axis : x y z
#
# Youngs Moduli (GPa) = 92.00979 77.89254 79.69080
#
# Poissons Ratio (x) = 0.37611 0.00868
# Poissons Ratio (y) = 0.44428 0.08352
# Poissons Ratio (z) = 0.01002 0.08163
#
# Static dielectric constant tensor:
#      x y z
#    x 2.057790 0.000000 0.066760 
#    y 0.000000 2.259610 0.000000 
#    z 0.066760 0.000000 2.101290 
# 
# From -- ./inp_files/257852.got.cif
#   From: 2010.05.17/outbox.cif.g08.bks.cpg/sg15_129_cif.got.tgz:257852.got - 2010.06.03 18:47:42.
