data_PCOD9299051
_publ_section_title
;
Structure prediction by ZEFSAII (Michael W. Deem and Ramdas Pophale) SiO2 
 PCOD9299051
Probable space group: C 2/C
;
_chemical_formula_sum "Si O2"
_cell_formula_units_Z 40
_cell_length_a 8.743460
_cell_length_b 30.016430
_cell_length_c 7.714403
_cell_angle_alpha 90.000000
_cell_angle_beta 65.312972
_cell_angle_gamma 90.000000
_cell_volume 1839.580260
_symmetry_space_group_name_H-M "C 2/C"
_symmetry_group_IT_number 15
_symmetry_cell_setting 'monoclinic'
loop_
_space_group_symop_operation_xyz
x,y,z
-x,y,1/2-z
-x,-y,-z
x,-y,1/2+z
1/2+x,1/2+y,z
1/2-x,1/2+y,1/2-z
1/2-x,1/2-y,-z
1/2+x,1/2-y,1/2+z
loop_
_atom_site_type_symbol
_atom_site_label
_atom_site_fract_x
_atom_site_fract_y
_atom_site_fract_z
Si Si1 0.000000 0.624864 0.750000
Si Si2 0.731071 0.940020 0.937764
Si Si3 0.812815 0.968598 0.280785
Si Si4 0.297322 0.896874 0.882683
Si Si5 0.500000 0.752786 0.750000
Si Si6 0.306524 0.812540 0.090363
O O1 0.867665 0.656904 0.718750
O O2 0.081500 0.591589 0.573652
O O3 0.802172 0.911717 0.743081
O O4 0.183690 0.952160 0.418906
O O5 0.697857 0.987756 0.862712
O O6 0.752755 0.930514 0.440209
O O7 0.000000 0.982191 0.250000
O O8 0.500000 0.898946 0.750000
O O9 0.252387 0.847505 0.967049
O O10 0.543404 0.783891 0.565743
O O11 0.340692 0.721234 0.793324
#
# Coordination Sequence:
#
# PCOD9299051 Si02
#       6
#     4   8   8   8   4   8
#     4  12  24  42  73 106 138 180 241 282 342 424
#     4  12  24  42  67  97 141 188 228 286 334 395
#     4  12  27  43  63  99 143 186 239 284 339 400
#     4  12  24  42  69  96 137 180 234 283 337 409
#     4  10  24  46  75  96 142 178 215 296 360 422
#     4  11  23  46  70 107 136 180 226 286 357 420
#
# _framework density 21.744088999999999
#
# number of rings (size 3 to 8) (size 9 to 14) (size 15 to 20)
#    0.000    0.400    7.000    0.600    2.800    2.400 
#    0.000    0.000    0.000    0.000    0.000    0.000 
#    0.000    0.000    0.000    0.000    0.000    0.000 
#
# Total GULP energy -111729.509398 kJ/mol
# GULP energy per Si atom -5586.475470 kJ/mol
# Density = 2.169460 g / cm^3
# Si number density = 21.744089 Si / 1000 Ang^3
#
#
#
# Elastic Constant Matrix: (Units=GPa)
#
#
# Indices 1 2 3 4 5 6 
#
# 1 61.4862 16.4582 37.4112 0.0000 30.7653 0.0000
# 2 16.4582 140.7550 57.6368 0.0000 3.5237 0.0000
# 3 37.4112 57.6368 111.3369 0.0000 20.1814 0.0000
# 4 0.0000 0.0000 0.0000 104.6956 0.0000 30.7225
# 5 30.7653 3.5237 20.1814 0.0000 47.0207 0.0000
# 6 0.0000 0.0000 0.0000 30.7225 0.0000 35.4683
#
#
#
# Elastic Compliance Matrix: (Units=1/GPa)
#
#
# Indices 1 2 3 4 5 6 
#
# 1 0.028057 -0.000235 -0.006486 0.000000 -0.015556 0.000000
# 2 -0.000235 0.009108 -0.004923 0.000000 0.001585 0.000000
# 3 -0.006486 -0.004923 0.013960 0.000000 -0.001379 0.000000
# 4 0.000000 0.000000 0.000000 0.012807 0.000000 -0.011093
# 5 -0.015556 0.001585 -0.001379 0.000000 0.031918 0.000000
# 6 0.000000 0.000000 0.000000 -0.011093 0.000000 0.037803
#
#
# Mechanical properties :
#
#
# Convention : Reuss Voigt Hill
#
# Bulk Modulus (GPa) = 35.92515 59.62117 47.77316
# Shear Modulus (GPa) = 30.08037 50.90838 40.49437
#
# Velocity S-wave (km/s) = 3.72342 4.84390 4.32014
# Velocity P-wave (km/s) = 5.91970 7.66573 6.84859
#
# Compressibility (1/GPa) = 0.02783565
#
# Stress axis : x y z
#
# Youngs Moduli (GPa) = 35.64196 109.78830 71.63394
#
# Poissons Ratio (x) = 0.02583 0.46462
# Poissons Ratio (y) = 0.00839 0.35268
# Poissons Ratio (z) = 0.23118 0.54053
#
# Static dielectric constant tensor:
#      x y z
#    x 1.864760 0.000000 -0.030110 
#    y 0.000000 1.766020 0.000000 
#    z -0.030110 0.000000 1.843350 
# 
# From -- ./inp_files/35019.got.cif
#   From: 2010.05.17/outbox.cif.g08.bks.cpg/sg15_18_cif.got.tgz:35019.got - 2010.06.03 18:47:42.
