data_PCOD9299288
_publ_section_title
;
Structure prediction by ZEFSAII (Michael W. Deem and Ramdas Pophale) SiO2 
 PCOD9299288
Probable space group: C 2/C
;
_chemical_formula_sum "Si O2"
_cell_formula_units_Z 32
_cell_length_a 20.205744
_cell_length_b 9.214483
_cell_length_c 14.894782
_cell_angle_alpha 90.000000
_cell_angle_beta 153.593958
_cell_angle_gamma 90.000000
_cell_volume 1233.320749
_symmetry_space_group_name_H-M "C 2/C"
_symmetry_group_IT_number 15
_symmetry_cell_setting 'monoclinic'
loop_
_space_group_symop_operation_xyz
x,y,z
-x,y,1/2-z
-x,-y,-z
x,-y,1/2+z
1/2+x,1/2+y,z
1/2-x,1/2+y,1/2-z
1/2-x,1/2-y,-z
1/2+x,1/2-y,1/2+z
loop_
_atom_site_type_symbol
_atom_site_label
_atom_site_fract_x
_atom_site_fract_y
_atom_site_fract_z
Si Si1 0.853543 0.387951 0.542496
Si Si2 0.173576 0.032806 0.480887
Si Si3 0.016161 0.605407 0.608429
Si Si4 0.128578 0.904893 0.114523
O O1 0.746388 0.423629 0.496525
O O2 0.937383 0.521097 0.593681
O O3 0.745504 0.349574 0.329990
O O4 0.000000 0.295779 0.750000
O O5 0.313189 0.144436 0.656761
O O6 0.178114 0.993572 0.591777
O O7 0.000000 0.066093 0.250000
O O8 0.937272 0.756857 0.501942
O O9 0.000000 0.500000 0.500000
O O10 0.000000 0.000000 0.000000
#
# Coordination Sequence:
#
# PCOD9299288 Si02
#       4
#     8   8   8   8
#     4  10  24  48  73 110 146 193 243 302 363 435
#     4  11  24  45  76 110 144 190 250 298 361 433
#     4  11  26  47  75 105 152 191 238 302 371 431
#     4  12  26  45  77 109 149 189 245 306 363 431
#
# _framework density 25.946211000000002
#
# number of rings (size 3 to 8) (size 9 to 14) (size 15 to 20)
#    0.000    1.000    5.000    0.000    3.500    5.000 
#    0.000    6.250    5.500    0.000    0.000    0.000 
#    0.000    0.000    0.000    0.000    0.000    0.000 
#
# Total GULP energy -89207.458516 kJ/mol
# GULP energy per Si atom -5575.466157 kJ/mol
# Density = 2.588716 g / cm^3
# Si number density = 25.946211 Si / 1000 Ang^3
#
#
#
# Elastic Constant Matrix: (Units=GPa)
#
#
# Indices 1 2 3 4 5 6 
#
# 1 198.9755 39.1996 50.0753 0.0000 0.3181 0.0000
# 2 39.1996 67.0205 33.5407 0.0000 3.7120 0.0000
# 3 50.0753 33.5407 263.4609 0.0000 14.9666 0.0000
# 4 0.0000 0.0000 0.0000 37.1092 0.0000 0.9142
# 5 0.3181 3.7120 14.9666 0.0000 56.9038 0.0000
# 6 0.0000 0.0000 0.0000 0.9142 0.0000 15.4011
#
#
#
# Elastic Compliance Matrix: (Units=1/GPa)
#
#
# Indices 1 2 3 4 5 6 
#
# 1 0.005812 -0.003050 -0.000737 0.000000 0.000360 0.000000
# 2 -0.003050 0.017552 -0.001615 0.000000 -0.000703 0.000000
# 3 -0.000737 -0.001615 0.004198 0.000000 -0.000995 0.000000
# 4 0.000000 0.000000 0.000000 0.026987 0.000000 -0.001602
# 5 0.000360 -0.000703 -0.000995 0.000000 0.017879 0.000000
# 6 0.000000 0.000000 0.000000 -0.001602 0.000000 0.065025
#
#
# Mechanical properties :
#
#
# Convention : Reuss Voigt Hill
#
# Bulk Modulus (GPa) = 59.67464 86.12090 72.89777
# Shear Modulus (GPa) = 32.50083 48.99224 40.74654
#
# Velocity S-wave (km/s) = 3.54308 4.35008 3.96716
# Velocity P-wave (km/s) = 6.30771 7.64821 7.01008
#
# Compressibility (1/GPa) = 0.01675754
#
# Stress axis : x y z
#
# Youngs Moduli (GPa) = 172.07223 56.97352 238.22393
#
# Poissons Ratio (x) = 0.17379 0.17550
# Poissons Ratio (y) = 0.52488 0.38468
# Poissons Ratio (z) = 0.12677 0.09200
#
# Static dielectric constant tensor:
#      x y z
#    x 2.109920 0.000000 0.085600 
#    y 0.000000 2.027350 0.000000 
#    z 0.085600 0.000000 2.180980 
# 
# From -- ./inp_files/36873.got.cif
#   From: 2010.05.17/outbox.cif.g08.bks.cpg/sg15_19_cif.got.tgz:36873.got - 2010.06.03 18:47:42.
