data_PCOD9299699
_publ_section_title
;
Structure prediction by ZEFSAII (Michael W. Deem and Ramdas Pophale) SiO2 
 PCOD9299699
Probable space group: C 2/C
;
_chemical_formula_sum "Si O2"
_cell_formula_units_Z 48
_cell_length_a 11.325639
_cell_length_b 14.527887
_cell_length_c 14.510661
_cell_angle_alpha 90.000000
_cell_angle_beta 117.941415
_cell_angle_gamma 90.000000
_cell_volume 2109.225990
_symmetry_space_group_name_H-M "C 2/C"
_symmetry_group_IT_number 15
_symmetry_cell_setting 'monoclinic'
loop_
_space_group_symop_operation_xyz
x,y,z
-x,y,1/2-z
-x,-y,-z
x,-y,1/2+z
1/2+x,1/2+y,z
1/2-x,1/2+y,1/2-z
1/2-x,1/2-y,-z
1/2+x,1/2-y,1/2+z
loop_
_atom_site_type_symbol
_atom_site_label
_atom_site_fract_x
_atom_site_fract_y
_atom_site_fract_z
Si Si1 0.259485 0.630446 0.119353
Si Si2 0.420852 0.727041 0.044474
Si Si3 0.780755 0.735632 0.905288
Si Si4 0.348527 0.439691 0.200086
Si Si5 0.350551 0.900457 0.713516
Si Si6 0.144727 0.961079 0.079203
O O1 0.139418 0.677315 0.016812
O O2 0.332131 0.531720 0.132187
O O3 0.198696 0.607455 0.198011
O O4 0.375960 0.703887 0.133065
O O5 0.353021 0.640304 0.965313
O O6 0.577652 0.727002 0.080074
O O7 0.762982 0.630331 0.873556
O O8 0.663919 0.794030 0.816707
O O9 0.750000 0.750000 0.000000
O O10 0.500000 0.405024 0.250000
O O11 0.336212 0.450380 0.304679
O O12 0.500000 0.933798 0.750000
O O13 0.256691 0.959387 0.608890
O O14 0.000000 0.000000 0.000000
#
# Coordination Sequence:
#
# PCOD9299699 Si02
#       6
#     8   8   8   8   8   8
#     4  10  25  45  68  99 141 188 236 298 362 440
#     4  11  23  45  69 103 141 189 240 295 366 445
#     4  12  25  41  72 103 141 189 238 308 369 438
#     4  11  24  42  69 103 141 188 244 298 362 440
#     4  11  24  45  69 104 143 184 240 306 366 432
#     4  11  22  44  71 100 139 189 243 296 370 440
#
# _framework density 22.757162999999998
#
# number of rings (size 3 to 8) (size 9 to 14) (size 15 to 20)
#    0.000    1.000    1.667    4.500    4.667    0.667 
#   12.000    0.000    0.000    0.000    0.000    0.000 
#    0.000    0.000    0.000    0.000    0.000    0.000 
#
# Total GULP energy -133647.704224 kJ/mol
# GULP energy per Si atom -5568.654343 kJ/mol
# Density = 2.270537 g / cm^3
# Si number density = 22.757163 Si / 1000 Ang^3
#
#
#
# Elastic Constant Matrix: (Units=GPa)
#
#
# Indices 1 2 3 4 5 6 
#
# 1 130.9482 28.3281 45.8525 0.0000 12.3464 0.0000
# 2 28.3281 92.1593 40.3578 0.0000 19.2292 0.0000
# 3 45.8525 40.3578 84.7473 0.0000 7.4600 0.0000
# 4 0.0000 0.0000 0.0000 -60.5038 0.0000 -31.0514
# 5 12.3464 19.2292 7.4600 0.0000 36.4373 0.0000
# 6 0.0000 0.0000 0.0000 -31.0514 0.0000 17.9849
#
#
#
# Elastic Compliance Matrix: (Units=1/GPa)
#
#
# Indices 1 2 3 4 5 6 
#
# 1 0.009607 -0.000415 -0.004820 0.000000 -0.002050 0.000000
# 2 -0.000415 0.015153 -0.006416 0.000000 -0.006543 0.000000
# 3 -0.004820 -0.006416 0.017334 0.000000 0.001470 0.000000
# 4 0.000000 0.000000 0.000000 -0.008763 0.000000 -0.015130
# 5 -0.002050 -0.006543 0.001470 0.000000 0.031291 0.000000
# 6 0.000000 0.000000 0.000000 -0.015130 0.000000 0.029480
#
#
# Mechanical properties :
#
#
# Convention : Reuss Voigt Hill
#
# Bulk Modulus (GPa) = 53.21208 59.65908 56.43558
# Shear Modulus (GPa) = 40.43106 11.67142 26.05124
#
# Velocity S-wave (km/s) = 4.21958 2.26712 3.38708
# Velocity P-wave (km/s) = 6.86827 5.75548 6.33635
#
# Compressibility (1/GPa) = 0.01879273
#
# Stress axis : x y z
#
# Youngs Moduli (GPa) = 104.08656 65.99385 57.69138
#
# Poissons Ratio (x) = 0.02736 0.27808
# Poissons Ratio (y) = 0.04316 0.37013
# Poissons Ratio (z) = 0.50172 0.42340
#
# Static dielectric constant tensor:
#      x y z
#    x 1.645510 0.000000 0.116570 
#    y 0.000000 1.783730 0.000000 
#    z 0.116570 0.000000 1.769410 
# 
# From -- ./inp_files/144395.got.cif
#   From: 2010.05.17/outbox.cif.g08.bks.cpg/sg15_73_cif.got.tgz:144395.got - 2010.06.03 18:47:42.
