data_PCOD9299096
_publ_section_title
;
Structure prediction by ZEFSAII (Michael W. Deem and Ramdas Pophale) SiO2 
 PCOD9299096
Probable space group: C 2/C
;
_chemical_formula_sum "Si O2"
_cell_formula_units_Z 56
_cell_length_a 10.653645
_cell_length_b 27.381370
_cell_length_c 9.011499
_cell_angle_alpha 90.000000
_cell_angle_beta 102.346255
_cell_angle_gamma 90.000000
_cell_volume 2567.962414
_symmetry_space_group_name_H-M "C 2/C"
_symmetry_group_IT_number 15
_symmetry_cell_setting 'monoclinic'
loop_
_space_group_symop_operation_xyz
x,y,z
-x,y,1/2-z
-x,-y,-z
x,-y,1/2+z
1/2+x,1/2+y,z
1/2-x,1/2+y,1/2-z
1/2-x,1/2-y,-z
1/2+x,1/2-y,1/2+z
loop_
_atom_site_type_symbol
_atom_site_label
_atom_site_fract_x
_atom_site_fract_y
_atom_site_fract_z
Si Si1 0.000000 0.707425 0.250000
Si Si2 0.457638 0.950214 0.067083
Si Si3 0.000000 0.900840 0.750000
Si Si4 0.568387 0.238480 0.603381
Si Si5 0.166722 0.973360 0.981060
Si Si6 0.839297 0.629945 0.902799
Si Si7 0.775634 0.163341 0.336495
Si Si8 0.139423 0.936981 0.277052
O O1 0.012511 0.735417 0.415638
O O2 0.127598 0.674583 0.255533
O O3 0.500000 0.954453 0.250000
O O4 0.536253 0.902825 0.032575
O O5 0.306562 0.948994 0.998242
O O6 0.500000 0.000000 0.000000
O O7 0.061963 0.937067 0.886073
O O8 0.119161 0.866391 0.730249
O O9 0.500000 0.246493 0.750000
O O10 0.624509 0.184065 0.634352
O O11 0.667448 0.282872 0.620815
O O12 0.171956 0.028204 0.921756
O O13 0.135348 0.976257 0.145321
O O14 0.750661 0.600849 0.766222
O O15 0.744039 0.633825 0.017271
O O16 0.000000 0.913187 0.250000
#
# Coordination Sequence:
#
# PCOD9299096 Si02
#       8
#     4   8   4   8   8   8   8   8
#     4  10  24  46  80 109 142 201 248 304 394 434
#     4  12  24  45  70 109 144 196 246 304 373 441
#     4  12  28  46  72 105 152 195 254 302 382 444
#     4  11  25  51  76 109 154 188 255 323 372 459
#     4  12  26  44  69 102 149 189 252 297 369 447
#     4  11  24  43  74 103 148 189 244 304 379 437
#     4  11  26  51  70 114 147 193 252 314 371 457
#     4  12  25  45  68 100 144 200 239 302 372 439
#
# _framework density 21.807172000000001
#
# number of rings (size 3 to 8) (size 9 to 14) (size 15 to 20)
#    0.000    0.571    4.286    3.429    6.000    1.714 
#   11.571    0.000    0.000    0.000    0.000    0.000 
#    0.000    0.000    0.000    0.000    0.000    0.000 
#
# Total GULP energy -156058.733440 kJ/mol
# GULP energy per Si atom -5573.526194 kJ/mol
# Density = 2.175754 g / cm^3
# Si number density = 21.807172 Si / 1000 Ang^3
#
#
#
# Elastic Constant Matrix: (Units=GPa)
#
#
# Indices 1 2 3 4 5 6 
#
# 1 143.6065 45.3020 27.8492 0.0000 14.4839 0.0000
# 2 45.3020 134.1464 21.0680 0.0000 9.6085 0.0000
# 3 27.8492 21.0680 83.5324 0.0000 -3.5842 0.0000
# 4 0.0000 0.0000 0.0000 26.8502 0.0000 0.3012
# 5 14.4839 9.6085 -3.5842 0.0000 40.5569 0.0000
# 6 0.0000 0.0000 0.0000 0.3012 0.0000 77.7734
#
#
#
# Elastic Compliance Matrix: (Units=1/GPa)
#
#
# Indices 1 2 3 4 5 6 
#
# 1 0.008406 -0.002280 -0.002342 0.000000 -0.002669 0.000000
# 2 -0.002280 0.008549 -0.001454 0.000000 -0.001340 0.000000
# 3 -0.002342 -0.001454 0.013220 0.000000 0.002349 0.000000
# 4 0.000000 0.000000 0.000000 0.037245 0.000000 -0.000144
# 5 -0.002669 -0.001340 0.002349 0.000000 0.026135 0.000000
# 6 0.000000 0.000000 0.000000 -0.000144 0.000000 0.012858
#
#
# Mechanical properties :
#
#
# Convention : Reuss Voigt Hill
#
# Bulk Modulus (GPa) = 55.48265 61.08040 58.28152
# Shear Modulus (GPa) = 40.13764 46.84050 43.48907
#
# Velocity S-wave (km/s) = 4.29484 4.63962 4.47055
# Velocity P-wave (km/s) = 7.07756 7.53469 7.30970
#
# Compressibility (1/GPa) = 0.01802365
#
# Stress axis : x y z
#
# Youngs Moduli (GPa) = 118.96246 116.97734 75.64522
#
# Poissons Ratio (x) = 0.26668 0.17716
# Poissons Ratio (y) = 0.27121 0.10995
# Poissons Ratio (z) = 0.27861 0.17003
#
# Static dielectric constant tensor:
#      x y z
#    x 1.858520 0.000000 0.006110 
#    y 0.000000 1.744440 0.000000 
#    z 0.006110 0.000000 1.938970 
# 
# From -- ./inp_files/34374.got.cif
#   From: 2010.05.17/outbox.cif.g08.bks.cpg/sg15_18_cif.got.tgz:34374.got - 2010.06.03 18:47:42.
