data_PCOD9299070
_publ_section_title
;
Structure prediction by ZEFSAII (Michael W. Deem and Ramdas Pophale) SiO2 
 PCOD9299070
Probable space group: C 2/C
;
_chemical_formula_sum "Si O2"
_cell_formula_units_Z 44
_cell_length_a 10.247676
_cell_length_b 30.167494
_cell_length_c 7.383209
_cell_angle_alpha 90.000000
_cell_angle_beta 128.911613
_cell_angle_gamma 90.000000
_cell_volume 1776.045335
_symmetry_space_group_name_H-M "C 2/C"
_symmetry_group_IT_number 15
_symmetry_cell_setting 'monoclinic'
loop_
_space_group_symop_operation_xyz
x,y,z
-x,y,1/2-z
-x,-y,-z
x,-y,1/2+z
1/2+x,1/2+y,z
1/2-x,1/2+y,1/2-z
1/2-x,1/2-y,-z
1/2+x,1/2-y,1/2+z
loop_
_atom_site_type_symbol
_atom_site_label
_atom_site_fract_x
_atom_site_fract_y
_atom_site_fract_z
Si Si1 0.814134 0.691989 0.349803
Si Si2 0.810764 0.842951 0.114261
Si Si3 0.199223 0.437644 0.889201
Si Si4 0.810391 0.125310 0.006844
Si Si5 0.695405 0.965249 0.474427
Si Si6 0.000000 0.757519 0.750000
O O1 0.817485 0.644347 0.453243
O O2 0.950991 0.725478 0.541767
O O3 0.646833 0.712727 0.295418
O O4 0.800500 0.684842 0.123836
O O5 0.781485 0.844929 0.302860
O O6 0.000000 0.827403 0.250000
O O7 0.793918 0.893790 0.032922
O O8 0.219339 0.447211 0.695696
O O9 0.000000 0.430814 0.750000
O O10 0.256849 0.484298 0.025350
O O11 0.775218 0.074066 0.926128
O O12 0.000000 0.126862 0.250000
O O13 0.500000 0.967874 0.250000
#
# Coordination Sequence:
#
# PCOD9299070 Si02
#       6
#     8   8   8   8   8   4
#     4  11  23  47  68 102 133 171 221 273 345 391
#     4  12  23  42  68  98 135 180 223 272 334 399
#     4  11  22  39  60  97 135 179 230 275 322 388
#     4  12  23  42  68  95 134 179 222 276 331 394
#     4  11  22  39  60  94 136 180 228 277 320 384
#     4  10  24  46  76  96 136 170 216 286 332 416
#
# _framework density 24.774142999999999
#
# number of rings (size 3 to 8) (size 9 to 14) (size 15 to 20)
#    0.000    0.727    4.545    4.364    1.273    2.182 
#    0.000   13.636    0.000    0.000    0.000    0.000 
#    0.000    0.000    0.000    0.000    0.000    0.000 
#
# Total GULP energy -123154.557913 kJ/mol
# GULP energy per Si atom -5597.934451 kJ/mol
# Density = 2.471776 g / cm^3
# Si number density = 24.774143 Si / 1000 Ang^3
#
#
#
# Elastic Constant Matrix: (Units=GPa)
#
#
# Indices 1 2 3 4 5 6 
#
# 1 29.4481 -4.5503 20.3579 0.0000 -17.6622 0.0000
# 2 -4.5503 115.7890 38.7713 0.0000 7.1248 0.0000
# 3 20.3579 38.7713 123.0515 0.0000 -33.6980 0.0000
# 4 0.0000 0.0000 0.0000 263.0351 0.0000 245.8717
# 5 -17.6622 7.1248 -33.6980 0.0000 38.7147 0.0000
# 6 0.0000 0.0000 0.0000 245.8717 0.0000 220.3109
#
#
#
# Elastic Compliance Matrix: (Units=1/GPa)
#
#
# Indices 1 2 3 4 5 6 
#
# 1 0.047668 0.001894 -0.003444 0.000000 0.018400 0.000000
# 2 0.001894 0.010840 -0.005302 0.000000 -0.005746 0.000000
# 3 -0.003444 -0.005302 0.013398 0.000000 0.011066 0.000000
# 4 0.000000 0.000000 0.000000 -0.088005 0.000000 0.098216
# 5 0.018400 -0.005746 0.011066 0.000000 0.044914 0.000000
# 6 0.000000 0.000000 0.000000 0.098216 0.000000 -0.105072
#
#
# Mechanical properties :
#
#
# Convention : Reuss Voigt Hill
#
# Bulk Modulus (GPa) = 17.18189 41.93850 29.56019
# Shear Modulus (GPa) = -115.86661 118.65946 1.39642
#
# Velocity S-wave (km/s) = -6.84622 6.92824 0.75159
# Velocity P-wave (km/s) = 7.45277 8.99809 3.56524
#
# Compressibility (1/GPa) = 0.05820081
#
# Stress axis : x y z
#
# Youngs Moduli (GPa) = 20.97853 92.25189 74.63986
#
# Poissons Ratio (x) = -0.17475 0.25707
# Poissons Ratio (y) = -0.03974 0.39577
# Poissons Ratio (z) = 0.07225 0.48916
#
# Static dielectric constant tensor:
#      x y z
#    x 1.878060 0.000000 -0.007430 
#    y 0.000000 2.007070 0.000000 
#    z -0.007430 0.000000 1.970460 
# 
# From -- ./inp_files/43705.got.cif
#   From: 2010.05.17/outbox.cif.g08.bks.cpg/sg15_22_cif.got.tgz:43705.got - 2010.06.03 18:47:42.
