data_PCOD9299069
_publ_section_title
;
Structure prediction by ZEFSAII (Michael W. Deem and Ramdas Pophale) SiO2 
 PCOD9299069
Probable space group: C 2/C
;
_chemical_formula_sum "Si O2"
_cell_formula_units_Z 44
_cell_length_a 16.471227
_cell_length_b 10.650841
_cell_length_c 25.131212
_cell_angle_alpha 90.000000
_cell_angle_beta 158.663620
_cell_angle_gamma 90.000000
_cell_volume 1604.120525
_symmetry_space_group_name_H-M "C 2/C"
_symmetry_group_IT_number 15
_symmetry_cell_setting 'monoclinic'
loop_
_space_group_symop_operation_xyz
x,y,z
-x,y,1/2-z
-x,-y,-z
x,-y,1/2+z
1/2+x,1/2+y,z
1/2-x,1/2+y,1/2-z
1/2-x,1/2-y,-z
1/2+x,1/2-y,1/2+z
loop_
_atom_site_type_symbol
_atom_site_label
_atom_site_fract_x
_atom_site_fract_y
_atom_site_fract_z
Si Si1 0.658075 0.262386 0.216433
Si Si2 0.469691 0.513639 0.101846
Si Si3 0.193856 0.562895 0.332633
Si Si4 0.500000 0.823293 0.250000
Si Si5 0.346328 0.852222 0.014206
Si Si6 0.022222 0.426257 0.568008
O O1 0.511393 0.375383 0.152107
O O2 0.709462 0.156488 0.292748
O O3 0.503470 0.218262 0.071743
O O4 0.895960 0.313131 0.339704
O O5 0.321324 0.625736 0.037496
O O6 0.719121 0.562947 0.258509
O O7 0.387948 0.483124 0.991687
O O8 0.000000 0.623839 0.250000
O O9 0.920285 0.422999 0.247244
O O10 0.700850 0.728672 0.383933
O O11 0.358250 0.998802 0.005596
O O12 0.000000 0.500000 0.500000
#
# Coordination Sequence:
#
# PCOD9299069 Si02
#       6
#     8   8   8   4   8   8
#     4  11  27  51  82 118 172 210 283 344 406 517
#     4  11  26  49  80 119 165 214 275 344 418 486
#     4  10  25  49  78 119 157 228 269 340 428 483
#     4  10  24  46  76 114 166 210 274 330 406 498
#     4  11  25  48  79 117 155 220 270 341 409 494
#     4  11  26  46  74 122 158 220 273 331 422 481
#
# _framework density 27.429359999999999
#
# number of rings (size 3 to 8) (size 9 to 14) (size 15 to 20)
#    0.545    0.727    0.000    3.273    5.091   10.182 
#    4.909    0.000    0.000    0.000    0.000    0.000 
#    0.000    0.000    0.000    0.000    0.000    0.000 
#
# Total GULP energy -122509.838235 kJ/mol
# GULP energy per Si atom -5568.629011 kJ/mol
# Density = 2.736693 g / cm^3
# Si number density = 27.429360 Si / 1000 Ang^3
#
#
#
# Elastic Constant Matrix: (Units=GPa)
#
#
# Indices 1 2 3 4 5 6 
#
# 1 123.3996 45.6221 44.0319 -0.0015 -3.5670 0.0039
# 2 45.6221 130.4594 18.9337 -0.0099 7.7186 0.0005
# 3 44.0319 18.9337 92.6639 -0.0194 0.3870 0.0143
# 4 -0.0015 -0.0099 -0.0194 43.7464 0.0004 6.2032
# 5 -3.5670 7.7186 0.3870 0.0004 26.1951 0.0018
# 6 0.0039 0.0005 0.0143 6.2032 0.0018 54.8816
#
#
#
# Elastic Compliance Matrix: (Units=1/GPa)
#
#
# Indices 1 2 3 4 5 6 
#
# 1 0.011050 -0.003351 -0.004577 -0.000003 0.002560 0.000001
# 2 -0.003351 0.009057 -0.000245 0.000002 -0.003122 0.000000
# 3 -0.004577 -0.000245 0.013020 0.000006 -0.000743 -0.000004
# 4 -0.000003 0.000002 0.000006 0.023231 -0.000001 -0.002626
# 5 0.002560 -0.003122 -0.000743 -0.000001 0.039454 -0.000001
# 6 0.000001 0.000000 -0.000004 -0.002626 -0.000001 0.018518
#
#
# Mechanical properties :
#
#
# Convention : Reuss Voigt Hill
#
# Bulk Modulus (GPa) = 59.59232 62.63317 61.11274
# Shear Modulus (GPa) = 36.69180 40.82697 38.75938
#
# Velocity S-wave (km/s) = 3.66140 3.86222 3.76315
# Velocity P-wave (km/s) = 6.29662 6.54010 6.41951
#
# Compressibility (1/GPa) = 0.01678069
#
# Stress axis : x y z
#
# Youngs Moduli (GPa) = 90.49920 110.40596 76.80751
#
# Poissons Ratio (x) = 0.37002 0.35151
# Poissons Ratio (y) = 0.30330 0.01883
# Poissons Ratio (z) = 0.41417 0.02706
#
# Static dielectric constant tensor:
#      x y z
#    x 2.364640 -0.000020 -0.132330 
#    y -0.000020 2.468040 0.000000 
#    z -0.132330 0.000000 2.195220 
# 
# From -- ./inp_files/317754.got.cif
#   From: 2010.05.17/outbox.cif.g08.bks.cpg/sg15_159_cif.got.tgz:317754.got - 2010.06.03 18:47:42.
