data_PCOD9299414
_publ_section_title
;
Structure prediction by ZEFSAII (Michael W. Deem and Ramdas Pophale) SiO2 
 PCOD9299414
Probable space group: C 2/C
;
_chemical_formula_sum "Si O2"
_cell_formula_units_Z 32
_cell_length_a 5.037293
_cell_length_b 25.594564
_cell_length_c 9.914892
_cell_angle_alpha 90.000000
_cell_angle_beta 93.800129
_cell_angle_gamma 90.000000
_cell_volume 1275.489860
_symmetry_space_group_name_H-M "C 2/C"
_symmetry_group_IT_number 15
_symmetry_cell_setting 'monoclinic'
loop_
_space_group_symop_operation_xyz
x,y,z
-x,y,1/2-z
-x,-y,-z
x,-y,1/2+z
1/2+x,1/2+y,z
1/2-x,1/2+y,1/2-z
1/2-x,1/2-y,-z
1/2+x,1/2-y,1/2+z
loop_
_atom_site_type_symbol
_atom_site_label
_atom_site_fract_x
_atom_site_fract_y
_atom_site_fract_z
Si Si1 0.671354 0.622675 0.485031
Si Si2 0.597983 0.719993 0.112986
Si Si3 0.500000 0.084953 0.750000
Si Si4 0.000000 0.364371 0.750000
Si Si5 0.236462 0.035704 0.962978
O O1 0.630755 0.684716 0.463295
O O2 0.854151 0.614286 0.622672
O O3 0.391926 0.591348 0.487261
O O4 0.835296 0.604311 0.357741
O O5 0.500000 0.747332 0.250000
O O6 0.793730 0.675231 0.174759
O O7 0.750000 0.750000 0.000000
O O8 0.279436 0.049017 0.809494
O O9 0.500000 0.000000 0.000000
O O10 0.000000 0.000000 0.000000
#
# Coordination Sequence:
#
# PCOD9299414 Si02
#       5
#     8   8   4   4   8
#     4  11  25  50  83 115 165 210 275 336 411 494
#     4  10  24  50  78 120 160 215 271 340 417 495
#     4  12  26  53  74 124 156 210 276 335 412 478
#     4  10  24  51  76 116 162 214 264 329 422 474
#     4  12  27  50  75 115 161 206 267 333 404 480
#
# _framework density 25.088404000000001
#
# number of rings (size 3 to 8) (size 9 to 14) (size 15 to 20)
#    0.000    1.000    2.500    2.250    0.000    5.000 
#   36.000    0.000    0.000    0.000    0.000    0.000 
#    0.000    0.000    0.000    0.000    0.000    0.000 
#
# Total GULP energy -89253.740553 kJ/mol
# GULP energy per Si atom -5578.358785 kJ/mol
# Density = 2.503130 g / cm^3
# Si number density = 25.088404 Si / 1000 Ang^3
#
#
#
# Elastic Constant Matrix: (Units=GPa)
#
#
# Indices 1 2 3 4 5 6 
#
# 1 183.3104 28.6546 94.0531 0.0000 -29.1229 0.0000
# 2 28.6546 70.5216 79.9672 0.0000 -12.8932 0.0000
# 3 94.0531 79.9672 230.8106 0.0000 -36.7656 0.0000
# 4 0.0000 0.0000 0.0000 27.0200 0.0000 4.6241
# 5 -29.1229 -12.8932 -36.7656 0.0000 72.4834 0.0000
# 6 0.0000 0.0000 0.0000 4.6241 0.0000 23.2759
#
#
#
# Elastic Compliance Matrix: (Units=1/GPa)
#
#
# Indices 1 2 3 4 5 6 
#
# 1 0.007061 0.000654 -0.002865 0.000000 0.001500 0.000000
# 2 0.000654 0.023416 -0.008349 0.000000 0.000193 0.000000
# 3 -0.002865 -0.008349 0.008673 0.000000 0.001763 0.000000
# 4 0.000000 0.000000 0.000000 0.038312 0.000000 -0.007611
# 5 0.001500 0.000193 0.001763 0.000000 0.015328 0.000000
# 6 0.000000 0.000000 0.000000 -0.007611 0.000000 0.044475
#
#
# Mechanical properties :
#
#
# Convention : Reuss Voigt Hill
#
# Bulk Modulus (GPa) = 55.45786 98.88803 77.17295
# Shear Modulus (GPa) = 30.41437 43.35372 36.88405
#
# Velocity S-wave (km/s) = 3.48557 4.16148 3.83843
# Velocity P-wave (km/s) = 6.19289 7.91151 7.10436
#
# Compressibility (1/GPa) = 0.01803171
#
# Stress axis : x y z
#
# Youngs Moduli (GPa) = 141.61617 42.70496 115.29606
#
# Poissons Ratio (x) = -0.02792 0.33032
# Poissons Ratio (y) = -0.09259 0.96255
# Poissons Ratio (z) = 0.40573 0.35652
#
# Static dielectric constant tensor:
#      x y z
#    x 1.997810 0.000000 -0.038100 
#    y 0.000000 1.960630 0.000000 
#    z -0.038100 0.000000 1.920010 
# 
# From -- ./inp_files/20265.got.cif
#   From: 2010.05.17/outbox.cif.g08.bks.cpg/sg15_11_cif.got.tgz:20265.got - 2010.06.03 18:47:42.
