data_PCOD9299446
_publ_section_title
;
Structure prediction by ZEFSAII (Michael W. Deem and Ramdas Pophale) SiO2 
 PCOD9299446
Probable space group: C 2/C
;
_chemical_formula_sum "Si O2"
_cell_formula_units_Z 64
_cell_length_a 22.953064
_cell_length_b 17.841398
_cell_length_c 14.078471
_cell_angle_alpha 90.000000
_cell_angle_beta 28.793208
_cell_angle_gamma 90.000000
_cell_volume 2776.875544
_symmetry_space_group_name_H-M "C 2/C"
_symmetry_group_IT_number 15
_symmetry_cell_setting 'monoclinic'
loop_
_space_group_symop_operation_xyz
x,y,z
-x,y,1/2-z
-x,-y,-z
x,-y,1/2+z
1/2+x,1/2+y,z
1/2-x,1/2+y,1/2-z
1/2-x,1/2-y,-z
1/2+x,1/2-y,1/2+z
loop_
_atom_site_type_symbol
_atom_site_label
_atom_site_fract_x
_atom_site_fract_y
_atom_site_fract_z
Si Si1 0.100958 0.157799 0.385704
Si Si2 0.656774 0.359775 0.274036
Si Si3 0.195732 0.306790 0.761782
Si Si4 0.130180 0.526423 0.058147
Si Si5 0.965937 0.741417 0.700173
Si Si6 0.634289 0.970813 0.839560
Si Si7 0.777420 0.610638 0.989515
Si Si8 0.133038 0.922162 0.521118
O O1 0.177024 0.186616 0.365512
O O2 0.078665 0.218398 0.332884
O O3 0.969713 0.126777 0.598427
O O4 0.185078 0.100306 0.208766
O O5 0.690921 0.272253 0.213959
O O6 0.628801 0.380065 0.425474
O O7 0.763622 0.413832 0.092092
O O8 0.159054 0.385991 0.768090
O O9 0.090067 0.297003 0.990354
O O10 0.148897 0.466343 0.114938
O O11 0.000000 0.564750 0.250000
O O12 0.127777 0.479704 0.963451
O O13 0.867950 0.679252 0.867169
O O14 0.000000 0.782933 0.750000
O O15 0.762160 0.014267 0.638308
O O16 0.500000 0.000000 0.000000
O O17 0.697289 0.625703 0.011809
O O18 0.000000 0.946359 0.750000
#
# Coordination Sequence:
#
# PCOD9299446 Si02
#       8
#     8   8   8   8   8   8   8   8
#     4  11  22  34  58  90 130 160 195 251 318 387
#     4  10  25  40  61  92 131 166 204 260 318 374
#     4  11  22  40  59  90 125 167 208 253 312 370
#     4  11  23  42  64  89 118 167 221 261 305 368
#     4  11  21  31  54  90 126 160 199 249 313 380
#     4  11  23  42  66  89 122 164 213 263 311 373
#     4  12  21  36  61  90 125 163 208 254 312 377
#     4  11  23  38  60  92 128 162 202 257 324 380
#
# _framework density 23.047485999999999
#
# number of rings (size 3 to 8) (size 9 to 14) (size 15 to 20)
#    0.000    1.000    3.750    3.750    3.500    4.500 
#    0.000    0.625    0.000    3.750    0.000    0.000 
#    0.000    0.000    0.000    0.000    0.000    0.000 
#
# Total GULP energy -178623.377720 kJ/mol
# GULP energy per Si atom -5581.980554 kJ/mol
# Density = 2.299503 g / cm^3
# Si number density = 23.047486 Si / 1000 Ang^3
#
#
#
# Elastic Constant Matrix: (Units=GPa)
#
#
# Indices 1 2 3 4 5 6 
#
# 1 92.0328 21.6438 38.3150 0.0000 -42.4219 0.0000
# 2 21.6438 112.2514 43.7286 0.0000 -29.1926 0.0000
# 3 38.3150 43.7286 130.0218 0.0000 -51.3181 0.0000
# 4 0.0000 0.0000 0.0000 27.3744 0.0000 -17.9251
# 5 -42.4219 -29.1926 -51.3181 0.0000 45.1690 0.0000
# 6 0.0000 0.0000 0.0000 -17.9251 0.0000 23.8707
#
#
#
# Elastic Compliance Matrix: (Units=1/GPa)
#
#
# Indices 1 2 3 4 5 6 
#
# 1 0.019753 0.000929 0.002585 0.000000 0.022089 0.000000
# 2 0.000929 0.010934 -0.001482 0.000000 0.006255 0.000000
# 3 0.002585 -0.001482 0.014518 0.000000 0.017964 0.000000
# 4 0.000000 0.000000 0.000000 0.071869 0.000000 0.053968
# 5 0.022089 0.006255 0.017964 0.000000 0.067337 0.000000
# 6 0.000000 0.000000 0.000000 0.053968 0.000000 0.082418
#
#
# Mechanical properties :
#
#
# Convention : Reuss Voigt Hill
#
# Bulk Modulus (GPa) = 20.29736 60.18675 40.24205
# Shear Modulus (GPa) = 17.90908 34.65741 26.28325
#
# Velocity S-wave (km/s) = 2.79059 3.88201 3.38064
# Velocity P-wave (km/s) = 4.38281 6.80179 5.72160
#
# Compressibility (1/GPa) = 0.04926750
#
# Stress axis : x y z
#
# Youngs Moduli (GPa) = 50.62613 91.46200 68.87960
#
# Poissons Ratio (x) = -0.08495 -0.17805
# Poissons Ratio (y) = -0.04702 0.10209
# Poissons Ratio (z) = -0.13087 0.13556
#
# Static dielectric constant tensor:
#      x y z
#    x 1.897160 0.000000 0.030270 
#    y 0.000000 1.912420 0.000000 
#    z 0.030270 0.000000 1.915560 
# 
# From -- ./inp_files/174208.got.cif
#   From: 2010.05.17/outbox.cif.g08.bks.cpg/sg15_88_cif.got.tgz:174208.got - 2010.06.03 18:47:42.
