data_PCOD9299547
_publ_section_title
;
Structure prediction by ZEFSAII (Michael W. Deem and Ramdas Pophale) SiO2 
 PCOD9299547
Probable space group: C 2/C
;
_chemical_formula_sum "Si O2"
_cell_formula_units_Z 56
_cell_length_a 5.064626
_cell_length_b 21.910283
_cell_length_c 22.476033
_cell_angle_alpha 90.000000
_cell_angle_beta 84.734847
_cell_angle_gamma 90.000000
_cell_volume 2483.583295
_symmetry_space_group_name_H-M "C 2/C"
_symmetry_group_IT_number 15
_symmetry_cell_setting 'monoclinic'
loop_
_space_group_symop_operation_xyz
x,y,z
-x,y,1/2-z
-x,-y,-z
x,-y,1/2+z
1/2+x,1/2+y,z
1/2-x,1/2+y,1/2-z
1/2-x,1/2-y,-z
1/2+x,1/2-y,1/2+z
loop_
_atom_site_type_symbol
_atom_site_label
_atom_site_fract_x
_atom_site_fract_y
_atom_site_fract_z
Si Si1 0.269033 0.017428 0.461595
Si Si2 0.246510 0.315749 0.892704
Si Si3 0.733134 0.090913 0.623795
Si Si4 0.762853 0.580173 0.207113
Si Si5 0.704289 0.437976 0.189964
Si Si6 0.227699 0.841537 0.961160
Si Si7 0.909496 0.294339 0.448569
O O1 0.287469 0.976697 0.403045
O O2 0.500000 0.000000 0.500000
O O3 0.305078 0.088675 0.453208
O O4 0.000000 0.000000 0.500000
O O5 0.243259 0.365071 0.840341
O O6 0.429706 0.343842 0.942015
O O7 0.387679 0.249113 0.890295
O O8 0.936646 0.307161 0.914112
O O9 0.495896 0.092396 0.677707
O O10 0.698010 0.141243 0.573083
O O11 0.028918 0.093259 0.642546
O O12 0.500000 0.587909 0.250000
O O13 0.748075 0.511106 0.181501
O O14 0.000000 0.583133 0.250000
O O15 0.500000 0.432394 0.250000
O O16 0.316148 0.813021 0.023112
O O17 0.750000 0.250000 0.500000
#
# Coordination Sequence:
#
# PCOD9299547 Si02
#       7
#     8   8   8   8   8   8   8
#     4  12  23  37  61  96 137 169 220 278 339 409
#     4  11  23  41  64  95 126 178 227 267 325 400
#     4  12  24  42  67  99 138 181 223 282 349 405
#     4  11  22  42  71  96 128 163 217 288 350 402
#     4  11  24  44  70 100 129 169 226 288 356 411
#     4  11  22  40  63  91 136 175 221 270 328 402
#     4  10  25  43  66  94 141 189 228 268 328 414
#
# _framework density 22.548064
#
# number of rings (size 3 to 8) (size 9 to 14) (size 15 to 20)
#    0.000    0.857    1.429    6.857    2.000    2.286 
#    0.000    2.143    0.000    0.000    0.000    0.000 
#    0.000    0.000    0.000    0.000    0.000    0.000 
#
# Total GULP energy -155974.155934 kJ/mol
# GULP energy per Si atom -5570.505569 kJ/mol
# Density = 2.249674 g / cm^3
# Si number density = 22.548064 Si / 1000 Ang^3
#
#
#
# Elastic Constant Matrix: (Units=GPa)
#
#
# Indices 1 2 3 4 5 6 
#
# 1 137.4125 23.1326 44.6236 0.0000 11.5745 0.0000
# 2 23.1326 122.8250 34.3367 0.0000 10.0672 0.0000
# 3 44.6236 34.3367 72.2384 0.0000 -1.0655 0.0000
# 4 0.0000 0.0000 0.0000 39.8615 0.0000 6.3559
# 5 11.5745 10.0672 -1.0655 0.0000 44.5741 0.0000
# 6 0.0000 0.0000 0.0000 6.3559 0.0000 37.7469
#
#
#
# Elastic Compliance Matrix: (Units=1/GPa)
#
#
# Indices 1 2 3 4 5 6 
#
# 1 0.009391 0.000089 -0.005882 0.000000 -0.002599 0.000000
# 2 0.000089 0.009617 -0.004660 0.000000 -0.002306 0.000000
# 3 -0.005882 -0.004660 0.019736 0.000000 0.003052 0.000000
# 4 0.000000 0.000000 0.000000 0.025779 0.000000 -0.004341
# 5 -0.002599 -0.002306 0.003052 0.000000 0.023703 0.000000
# 6 0.000000 0.000000 0.000000 -0.004341 0.000000 0.027223
#
#
# Mechanical properties :
#
#
# Convention : Reuss Voigt Hill
#
# Bulk Modulus (GPa) = 56.05867 59.62909 57.84388
# Shear Modulus (GPa) = 35.13650 39.79535 37.46592
#
# Velocity S-wave (km/s) = 3.95180 4.20564 4.08070
# Velocity P-wave (km/s) = 6.76300 7.07715 6.92186
#
# Compressibility (1/GPa) = 0.01783845
#
# Stress axis : x y z
#
# Youngs Moduli (GPa) = 106.47976 103.98572 50.66798
#
# Poissons Ratio (x) = -0.00921 0.29802
# Poissons Ratio (y) = -0.00943 0.23610
# Poissons Ratio (z) = 0.62629 0.48455
#
# Static dielectric constant tensor:
#      x y z
#    x 1.884110 0.000000 -0.067870 
#    y 0.000000 1.827060 0.000000 
#    z -0.067870 0.000000 1.912090 
# 
# From -- ./inp_files/261175.got.cif
#   From: 2010.05.17/outbox.cif.g08.bks.cpg/sg15_131_cif.got.tgz:261175.got - 2010.06.03 18:47:42.
