data_PCOD9299995
_publ_section_title
;
Structure prediction by ZEFSAII (Michael W. Deem and Ramdas Pophale) SiO2 
 PCOD9299995
Probable space group: C 2/C
;
_chemical_formula_sum "Si O2"
_cell_formula_units_Z 44
_cell_length_a 11.776594
_cell_length_b 28.373264
_cell_length_c 9.190223
_cell_angle_alpha 90.000000
_cell_angle_beta 58.966879
_cell_angle_gamma 90.000000
_cell_volume 2631.295968
_symmetry_space_group_name_H-M "C 2/C"
_symmetry_group_IT_number 15
_symmetry_cell_setting 'monoclinic'
loop_
_space_group_symop_operation_xyz
x,y,z
-x,y,1/2-z
-x,-y,-z
x,-y,1/2+z
1/2+x,1/2+y,z
1/2-x,1/2+y,1/2-z
1/2-x,1/2-y,-z
1/2+x,1/2-y,1/2+z
loop_
_atom_site_type_symbol
_atom_site_label
_atom_site_fract_x
_atom_site_fract_y
_atom_site_fract_z
Si Si1 0.639036 0.790305 0.571459
Si Si2 0.320054 0.469271 0.615500
Si Si3 0.500000 0.510419 0.250000
Si Si4 0.857118 0.379251 0.766563
Si Si5 0.584074 0.963950 0.341943
Si Si6 0.473818 0.857485 0.097217
O O1 0.500000 0.778230 0.750000
O O2 0.750000 0.750000 0.500000
O O3 0.702360 0.833669 0.618725
O O4 0.596415 0.814669 0.445028
O O5 0.404278 0.480044 0.416603
O O6 0.414159 0.460592 0.691380
O O7 0.225463 0.425455 0.657143
O O8 0.226576 0.513423 0.717481
O O9 0.000000 0.385665 0.750000
O O10 0.888635 0.367371 0.578732
O O11 0.500000 0.962843 0.250000
O O12 0.596590 0.908899 0.377487
O O13 0.500000 0.000000 0.500000
O O14 0.500000 0.848461 0.250000
#
# Coordination Sequence:
#
# PCOD9299995 Si02
#       6
#     8   8   4   8   8   8
#     4   9  20  40  62  83 112 146 192 242 295 345
#     4  11  21  38  48  74 117 153 198 217 275 342
#     4  10  26  34  46  66 116 172 184 220 258 340
#     4   9  19  35  60  82 107 138 188 250 283 324
#     4  11  20  29  57  88 109 141 186 236 290 322
#     4   9  19  33  55  96 111 137 180 246 298 328
#
# _framework density 16.721798
#
# number of rings (size 3 to 8) (size 9 to 14) (size 15 to 20)
#    0.000    2.545    1.818    1.636   10.182    0.000 
#    1.636    3.636    2.000    0.000    0.000    0.000 
#    0.000    0.000    0.000    0.000    0.000    0.000 
#
# Total GULP energy -122474.270758 kJ/mol
# GULP energy per Si atom -5567.012307 kJ/mol
# Density = 1.668374 g / cm^3
# Si number density = 16.721798 Si / 1000 Ang^3
#
#
#
# Elastic Constant Matrix: (Units=GPa)
#
#
# Indices 1 2 3 4 5 6 
#
# 1 61.5592 52.9150 45.6959 0.0000 3.4137 0.0000
# 2 52.9150 129.1025 48.8194 0.0000 -5.3072 0.0000
# 3 45.6959 48.8194 108.3358 0.0000 15.9272 0.0000
# 4 0.0000 0.0000 0.0000 16.2087 0.0000 4.0831
# 5 3.4137 -5.3072 15.9272 0.0000 25.1518 0.0000
# 6 0.0000 0.0000 0.0000 4.0831 0.0000 15.6390
#
#
#
# Elastic Compliance Matrix: (Units=1/GPa)
#
#
# Indices 1 2 3 4 5 6 
#
# 1 0.030750 -0.009358 -0.008655 0.000000 -0.000667 0.000000
# 2 -0.009358 0.012821 -0.002663 0.000000 0.005662 0.000000
# 3 -0.008655 -0.002663 0.015427 0.000000 -0.009156 0.000000
# 4 0.000000 0.000000 0.000000 0.066039 0.000000 -0.017242
# 5 -0.000667 0.005662 -0.009156 0.000000 0.046842 0.000000
# 6 0.000000 0.000000 0.000000 -0.017242 0.000000 0.068444
#
#
# Mechanical properties :
#
#
# Convention : Reuss Voigt Hill
#
# Bulk Modulus (GPa) = 56.66796 65.98422 61.32609
# Shear Modulus (GPa) = 17.38780 21.50439 19.44609
#
# Velocity S-wave (km/s) = 3.22813 3.58999 3.41386
# Velocity P-wave (km/s) = 6.91786 7.53191 7.23140
#
# Compressibility (1/GPa) = 0.01764666
#
# Stress axis : x y z
#
# Youngs Moduli (GPa) = 32.51981 77.99729 64.81979
#
# Poissons Ratio (x) = 0.72991 0.56104
# Poissons Ratio (y) = 0.30432 0.17259
# Poissons Ratio (z) = 0.28147 0.20768
#
# Static dielectric constant tensor:
#      x y z
#    x 1.564950 0.000000 0.025410 
#    y 0.000000 1.571920 0.000000 
#    z 0.025410 0.000000 1.606260 
# 
# From -- ./inp_files/35046.got.cif
#   From: 2010.05.17/outbox.cif.g08.bks.cpg/sg15_18_cif.got.tgz:35046.got - 2010.06.03 18:47:42.
