data_PCOD9299849
_publ_section_title
;
Structure prediction by ZEFSAII (Michael W. Deem and Ramdas Pophale) SiO2 
 PCOD9299849
Probable space group: C 2/C
;
_chemical_formula_sum "Si O2"
_cell_formula_units_Z 40
_cell_length_a 26.480826
_cell_length_b 9.610624
_cell_length_c 9.364545
_cell_angle_alpha 90.000000
_cell_angle_beta 42.879330
_cell_angle_gamma 90.000000
_cell_volume 1621.698802
_symmetry_space_group_name_H-M "C 2/C"
_symmetry_group_IT_number 15
_symmetry_cell_setting 'monoclinic'
loop_
_space_group_symop_operation_xyz
x,y,z
-x,y,1/2-z
-x,-y,-z
x,-y,1/2+z
1/2+x,1/2+y,z
1/2-x,1/2+y,1/2-z
1/2-x,1/2-y,-z
1/2+x,1/2-y,1/2+z
loop_
_atom_site_type_symbol
_atom_site_label
_atom_site_fract_x
_atom_site_fract_y
_atom_site_fract_z
Si Si1 0.832621 0.702017 0.779342
Si Si2 0.427450 0.770887 0.497231
Si Si3 0.174089 0.518936 0.439553
Si Si4 0.037767 0.119217 0.825883
Si Si5 0.350829 0.527100 0.102696
O O1 0.839488 0.628684 0.610151
O O2 0.870209 0.851591 0.677381
O O3 0.750000 0.750000 0.000000
O O4 0.856793 0.591344 0.850610
O O5 0.361424 0.876074 0.602433
O O6 0.457758 0.760854 0.595089
O O7 0.391467 0.619190 0.542142
O O8 0.500000 0.793922 0.250000
O O9 0.262485 0.515714 0.278643
O O10 0.121199 0.077209 0.609787
O O11 0.000000 0.127598 0.750000
O O12 0.000000 0.000000 0.000000
#
# Coordination Sequence:
#
# PCOD9299849 Si02
#       5
#     8   8   8   8   8
#     4  10  25  47  70 109 156 202 250 316 393 459
#     4  12  27  48  78 115 157 204 262 323 388 467
#     4  11  27  47  74 113 157 199 257 327 398 458
#     4  12  24  41  72 116 150 203 263 317 384 452
#     4  11  23  43  80 107 156 201 265 319 376 472
#
# _framework density 24.665492
#
# number of rings (size 3 to 8) (size 9 to 14) (size 15 to 20)
#    0.000    0.800    4.000    2.400   14.000    0.800 
#    0.000    3.000    0.000    0.000    0.000    0.000 
#    0.000    0.000    0.000    0.000    0.000    0.000 
#
# Total GULP energy -111627.281589 kJ/mol
# GULP energy per Si atom -5581.364079 kJ/mol
# Density = 2.460935 g / cm^3
# Si number density = 24.665492 Si / 1000 Ang^3
#
#
#
# Elastic Constant Matrix: (Units=GPa)
#
#
# Indices 1 2 3 4 5 6 
#
# 1 113.1292 28.7116 4.0926 0.0000 13.1833 0.0000
# 2 28.7116 111.2917 10.6530 0.0000 4.6068 0.0000
# 3 4.0926 10.6530 56.9504 0.0000 11.1533 0.0000
# 4 0.0000 0.0000 0.0000 -36.5794 0.0000 86.8348
# 5 13.1833 4.6068 11.1533 0.0000 45.2660 0.0000
# 6 0.0000 0.0000 0.0000 86.8348 0.0000 -36.4017
#
#
#
# Elastic Compliance Matrix: (Units=1/GPa)
#
#
# Indices 1 2 3 4 5 6 
#
# 1 0.009757 -0.002433 0.000275 0.000000 -0.002662 0.000000
# 2 -0.002433 0.009768 -0.001677 0.000000 0.000128 0.000000
# 3 0.000275 -0.001677 0.018740 0.000000 -0.004527 0.000000
# 4 0.000000 0.000000 0.000000 0.005863 0.000000 0.013986
# 5 -0.002662 0.000128 -0.004527 0.000000 0.023969 0.000000
# 6 0.000000 0.000000 0.000000 0.013986 0.000000 0.005892
#
#
# Mechanical properties :
#
#
# Convention : Reuss Voigt Hill
#
# Bulk Modulus (GPa) = 32.68575 40.92063 36.80319
# Shear Modulus (GPa) = 54.43162 10.31793 32.37477
#
# Velocity S-wave (km/s) = 4.70275 2.04749 3.62685
# Velocity P-wave (km/s) = 6.53974 4.71337 5.70018
#
# Compressibility (1/GPa) = 0.03059437
#
# Stress axis : x y z
#
# Youngs Moduli (GPa) = 102.48761 102.37039 53.36273
#
# Poissons Ratio (x) = 0.24911 -0.01469
# Poissons Ratio (y) = 0.24939 0.08951
# Poissons Ratio (z) = -0.02822 0.17172
#
# Static dielectric constant tensor:
#      x y z
#    x 2.053670 0.000000 0.018900 
#    y 0.000000 1.988270 0.000000 
#    z 0.018900 0.000000 2.014210 
# 
# From -- ./inp_files/68954.got.cif
#   From: 2010.05.17/outbox.cif.g08.bks.cpg/sg15_35_cif.got.tgz:68954.got - 2010.06.03 18:47:42.
