data_PCOD9299497
_publ_section_title
;
Structure prediction by ZEFSAII (Michael W. Deem and Ramdas Pophale) SiO2 
 PCOD9299497
Probable space group: C 2/C
;
_chemical_formula_sum "Si O2"
_cell_formula_units_Z 40
_cell_length_a 9.063011
_cell_length_b 24.922080
_cell_length_c 8.896472
_cell_angle_alpha 90.000000
_cell_angle_beta 110.052237
_cell_angle_gamma 90.000000
_cell_volume 1887.626681
_symmetry_space_group_name_H-M "C 2/C"
_symmetry_group_IT_number 15
_symmetry_cell_setting 'monoclinic'
loop_
_space_group_symop_operation_xyz
x,y,z
-x,y,1/2-z
-x,-y,-z
x,-y,1/2+z
1/2+x,1/2+y,z
1/2-x,1/2+y,1/2-z
1/2-x,1/2-y,-z
1/2+x,1/2-y,1/2+z
loop_
_atom_site_type_symbol
_atom_site_label
_atom_site_fract_x
_atom_site_fract_y
_atom_site_fract_z
Si Si1 0.140322 0.299890 0.419894
Si Si2 0.852886 0.913992 0.002655
Si Si3 0.791992 0.899531 0.318165
Si Si4 0.355906 0.119887 0.312600
Si Si5 0.845214 0.477906 0.027913
O O1 0.250000 0.250000 0.500000
O O2 0.247366 0.344041 0.376427
O O3 0.095119 0.331635 0.559395
O O4 0.000000 0.288445 0.250000
O O5 0.804173 0.890632 0.146248
O O6 0.039446 0.919914 0.065607
O O7 0.768261 0.971967 0.978396
O O8 0.790659 0.874891 0.851013
O O9 0.664850 0.944325 0.319986
O O10 0.500000 0.106583 0.250000
O O11 0.302752 0.069500 0.396102
O O12 0.000000 0.500000 0.000000
#
# Coordination Sequence:
#
# PCOD9299497 Si02
#       5
#     8   8   8   8   8
#     4  11  27  49  75  99 133 179 233 300 367 419
#     4  11  22  40  66 100 143 188 230 275 344 404
#     4  10  25  42  65  99 146 179 235 290 341 416
#     4  11  23  42  69 101 138 181 236 284 340 422
#     4  11  22  37  65  99 147 190 231 273 343 416
#
# _framework density 21.190632000000001
#
# number of rings (size 3 to 8) (size 9 to 14) (size 15 to 20)
#    0.000    1.200    2.000    3.000    5.600    4.000 
#    3.600    2.000    0.000    0.000    0.000    0.000 
#    0.000    0.000    0.000    0.000    0.000    0.000 
#
# Total GULP energy -111539.674123 kJ/mol
# GULP energy per Si atom -5576.983706 kJ/mol
# Density = 2.114240 g / cm^3
# Si number density = 21.190632 Si / 1000 Ang^3
#
#
#
# Elastic Constant Matrix: (Units=GPa)
#
#
# Indices 1 2 3 4 5 6 
#
# 1 111.5749 51.3994 58.0246 0.0000 4.2227 0.0000
# 2 51.3994 120.0013 39.2370 0.0000 9.8621 0.0000
# 3 58.0246 39.2370 131.2245 0.0000 14.5190 0.0000
# 4 0.0000 0.0000 0.0000 4.2183 0.0000 -0.2647
# 5 4.2227 9.8621 14.5190 0.0000 37.0235 0.0000
# 6 0.0000 0.0000 0.0000 -0.2647 0.0000 25.7593
#
#
#
# Elastic Compliance Matrix: (Units=1/GPa)
#
#
# Indices 1 2 3 4 5 6 
#
# 1 0.013375 -0.004283 -0.004799 0.000000 0.001497 0.000000
# 2 -0.004283 0.010682 -0.001087 0.000000 -0.001931 0.000000
# 3 -0.004799 -0.001087 0.010427 0.000000 -0.003252 0.000000
# 4 0.000000 0.000000 0.000000 0.237215 0.000000 0.002437
# 5 0.001497 -0.001931 -0.003252 0.000000 0.028629 0.000000
# 6 0.000000 0.000000 0.000000 0.002437 0.000000 0.038846
#
#
# Mechanical properties :
#
#
# Convention : Reuss Voigt Hill
#
# Bulk Modulus (GPa) = 70.68652 73.34698 72.01675
# Shear Modulus (GPa) = 13.72779 27.67619 20.70199
#
# Velocity S-wave (km/s) = 2.54800 3.61786 3.12900
# Velocity P-wave (km/s) = 6.48739 7.22080 6.86390
#
# Compressibility (1/GPa) = 0.01414697
#
# Stress axis : x y z
#
# Youngs Moduli (GPa) = 74.76897 93.61979 95.90185
#
# Poissons Ratio (x) = 0.40093 0.46024
# Poissons Ratio (y) = 0.32020 0.10421
# Poissons Ratio (z) = 0.35882 0.10173
#
# Static dielectric constant tensor:
#      x y z
#    x 1.807230 0.000000 0.029720 
#    y 0.000000 1.678360 0.000000 
#    z 0.029720 0.000000 1.866100 
# 
# From -- ./inp_files/24573.got.cif
#   From: 2010.05.17/outbox.cif.g08.bks.cpg/sg15_13_cif.got.tgz:24573.got - 2010.06.03 18:47:42.
