data_PCOD9299412
_publ_section_title
;
Structure prediction by ZEFSAII (Michael W. Deem and Ramdas Pophale) SiO2 
 PCOD9299412
Probable space group: C 2/C
;
_chemical_formula_sum "Si O2"
_cell_formula_units_Z 28
_cell_length_a 5.105600
_cell_length_b 17.711353
_cell_length_c 14.578498
_cell_angle_alpha 90.000000
_cell_angle_beta 120.332883
_cell_angle_gamma 90.000000
_cell_volume 1137.824729
_symmetry_space_group_name_H-M "C 2/C"
_symmetry_group_IT_number 15
_symmetry_cell_setting 'monoclinic'
loop_
_space_group_symop_operation_xyz
x,y,z
-x,y,1/2-z
-x,-y,-z
x,-y,1/2+z
1/2+x,1/2+y,z
1/2-x,1/2+y,1/2-z
1/2-x,1/2-y,-z
1/2+x,1/2-y,1/2+z
loop_
_atom_site_type_symbol
_atom_site_label
_atom_site_fract_x
_atom_site_fract_y
_atom_site_fract_z
Si Si1 0.430638 0.136171 0.342234
Si Si2 0.600701 0.364086 0.404127
Si Si3 0.424822 0.767867 0.122101
Si Si4 0.000000 0.002291 0.750000
O O1 0.500000 0.162829 0.250000
O O2 0.709907 0.133829 0.465529
O O3 0.185096 0.191826 0.344897
O O4 0.286156 0.054022 0.301559
O O5 0.266208 0.332438 0.361345
O O6 0.558295 0.444034 0.347478
O O7 0.771345 0.306309 0.364543
O O8 0.250000 0.750000 0.000000
#
# Coordination Sequence:
#
# PCOD9299412 Si02
#       4
#     8   8   8   4
#     4  11  27  46  77 110 146 193 249 307 366 433
#     4  11  27  51  73 109 147 196 247 299 371 434
#     4  10  24  50  77 103 143 193 251 308 355 431
#     4  12  30  44  74 106 158 202 230 304 368 458
#
# _framework density 24.608357999999999
#
# number of rings (size 3 to 8) (size 9 to 14) (size 15 to 20)
#    0.000    1.143    0.000    4.286   18.000    1.143 
#    0.000    0.000    0.000    0.000    0.000    0.000 
#    0.000    0.000    0.000    0.000    0.000    0.000 
#
# Total GULP energy -78113.786351 kJ/mol
# GULP energy per Si atom -5579.556168 kJ/mol
# Density = 2.455235 g / cm^3
# Si number density = 24.608358 Si / 1000 Ang^3
#
#
#
# Elastic Constant Matrix: (Units=GPa)
#
#
# Indices 1 2 3 4 5 6 
#
# 1 112.8877 30.7651 57.1527 0.0000 -20.6514 0.0000
# 2 30.7651 158.7943 63.5465 0.0000 -15.4802 0.0000
# 3 57.1527 63.5465 236.4231 0.0000 -8.8403 0.0000
# 4 0.0000 0.0000 0.0000 53.7522 0.0000 5.1061
# 5 -20.6514 -15.4802 -8.8403 0.0000 52.9146 0.0000
# 6 0.0000 0.0000 0.0000 5.1061 0.0000 52.0701
#
#
#
# Elastic Compliance Matrix: (Units=1/GPa)
#
#
# Indices 1 2 3 4 5 6 
#
# 1 0.010904 -0.000850 -0.002272 0.000000 0.003627 0.000000
# 2 -0.000850 0.007289 -0.001697 0.000000 0.001517 0.000000
# 3 -0.002272 -0.001697 0.005216 0.000000 -0.000512 0.000000
# 4 0.000000 0.000000 0.000000 0.018779 0.000000 -0.001842
# 5 0.003627 0.001517 -0.000512 0.000000 0.020672 0.000000
# 6 0.000000 0.000000 0.000000 -0.001842 0.000000 0.019385
#
#
# Mechanical properties :
#
#
# Convention : Reuss Voigt Hill
#
# Bulk Modulus (GPa) = 72.61377 90.11487 81.36432
# Shear Modulus (GPa) = 51.82789 55.52342 53.67566
#
# Velocity S-wave (km/s) = 4.59422 4.75519 4.67539
# Velocity P-wave (km/s) = 7.59699 8.17607 7.89185
#
# Compressibility (1/GPa) = 0.01377149
#
# Stress axis : x y z
#
# Youngs Moduli (GPa) = 91.71205 137.19064 191.72166
#
# Poissons Ratio (x) = 0.11658 0.43556
# Poissons Ratio (y) = 0.07793 0.32536
# Poissons Ratio (z) = 0.20835 0.23282
#
# Static dielectric constant tensor:
#      x y z
#    x 1.315630 0.000000 0.732670 
#    y 0.000000 1.915620 0.000000 
#    z 0.732670 0.000000 1.288790 
# 
# From -- ./inp_files/127976.got.cif
#   From: 2010.05.17/outbox.cif.g08.bks.cpg/sg15_64_cif.got.tgz:127976.got - 2010.06.03 18:47:42.
