data_PCOD9299130
_publ_section_title
;
Structure prediction by ZEFSAII (Michael W. Deem and Ramdas Pophale) SiO2 
 PCOD9299130
Probable space group: C 2/C
;
_chemical_formula_sum "Si O2"
_cell_formula_units_Z 40
_cell_length_a 17.157570
_cell_length_b 13.155881
_cell_length_c 11.337528
_cell_angle_alpha 90.000000
_cell_angle_beta 39.799120
_cell_angle_gamma 90.000000
_cell_volume 1638.100302
_symmetry_space_group_name_H-M "C 2/C"
_symmetry_group_IT_number 15
_symmetry_cell_setting 'monoclinic'
loop_
_space_group_symop_operation_xyz
x,y,z
-x,y,1/2-z
-x,-y,-z
x,-y,1/2+z
1/2+x,1/2+y,z
1/2-x,1/2+y,1/2-z
1/2-x,1/2-y,-z
1/2+x,1/2-y,1/2+z
loop_
_atom_site_type_symbol
_atom_site_label
_atom_site_fract_x
_atom_site_fract_y
_atom_site_fract_z
Si Si1 0.532518 0.548667 0.089264
Si Si2 0.615716 0.780012 0.701445
Si Si3 0.134309 0.481659 0.581467
Si Si4 0.195333 0.173665 0.157258
Si Si5 0.267012 0.662454 0.748139
O O1 0.500000 0.489646 0.250000
O O2 0.442527 0.644036 0.204062
O O3 0.500000 0.500000 0.000000
O O4 0.671205 0.585718 0.917110
O O5 0.500000 0.762884 0.750000
O O6 0.750000 0.750000 0.500000
O O7 0.630866 0.902390 0.696348
O O8 0.617600 0.706294 0.811498
O O9 0.229297 0.569825 0.444849
O O10 0.168372 0.401377 0.437159
O O11 0.000000 0.528194 0.750000
O O12 0.208968 0.236198 0.262015
O O13 0.250000 0.250000 0.000000
#
# Coordination Sequence:
#
# PCOD9299130 Si02
#       5
#     8   8   8   8   8
#     4  12  27  50  78 112 159 209 265 330 399 476
#     4   9  21  42  69 105 148 195 259 318 388 465
#     4  10  24  47  69 107 148 196 259 322 390 470
#     4  12  27  47  73 105 156 202 261 325 406 477
#     4  11  25  46  74 110 147 208 259 328 399 470
#
# _framework density 24.418527000000001
#
# number of rings (size 3 to 8) (size 9 to 14) (size 15 to 20)
#    0.000    1.200    4.000    0.000   11.200    4.000 
#    0.000    5.000    0.000    0.000    0.000    0.000 
#    0.000    0.000    0.000    0.000    0.000    0.000 
#
# Total GULP energy -111469.139207 kJ/mol
# GULP energy per Si atom -5573.456960 kJ/mol
# Density = 2.436295 g / cm^3
# Si number density = 24.418527 Si / 1000 Ang^3
#
#
#
# Elastic Constant Matrix: (Units=GPa)
#
#
# Indices 1 2 3 4 5 6 
#
# 1 111.9631 37.0342 34.6905 0.0000 4.6651 0.0000
# 2 37.0342 103.0380 26.9183 0.0000 8.5511 0.0000
# 3 34.6905 26.9183 150.7726 0.0000 -4.3761 0.0000
# 4 0.0000 0.0000 0.0000 52.8008 0.0000 6.4403
# 5 4.6651 8.5511 -4.3761 0.0000 41.5583 0.0000
# 6 0.0000 0.0000 0.0000 6.4403 0.0000 33.6626
#
#
#
# Elastic Compliance Matrix: (Units=1/GPa)
#
#
# Indices 1 2 3 4 5 6 
#
# 1 0.010626 -0.003268 -0.001882 0.000000 -0.000719 0.000000
# 2 -0.003268 0.011408 -0.001346 0.000000 -0.002122 0.000000
# 3 -0.001882 -0.001346 0.007343 0.000000 0.001262 0.000000
# 4 0.000000 0.000000 0.000000 0.019392 0.000000 -0.003710
# 5 -0.000719 -0.002122 0.001262 0.000000 0.024713 0.000000
# 6 0.000000 0.000000 0.000000 -0.003710 0.000000 0.030416
#
#
# Mechanical properties :
#
#
# Convention : Reuss Voigt Hill
#
# Bulk Modulus (GPa) = 61.03907 62.56220 61.80063
# Shear Modulus (GPa) = 40.86641 43.41306 42.13973
#
# Velocity S-wave (km/s) = 4.09538 4.22106 4.15869
# Velocity P-wave (km/s) = 6.88579 7.03085 6.95870
#
# Compressibility (1/GPa) = 0.01638295
#
# Stress axis : x y z
#
# Youngs Moduli (GPa) = 94.11319 87.66159 136.19206
#
# Poissons Ratio (x) = 0.28645 0.25634
# Poissons Ratio (y) = 0.30753 0.18337
# Poissons Ratio (z) = 0.17714 0.11803
#
# Static dielectric constant tensor:
#      x y z
#    x 2.183460 0.000000 0.212730 
#    y 0.000000 2.021390 0.000000 
#    z 0.212730 0.000000 2.013010 
# 
# From -- ./inp_files/105150.got.cif
#   From: 2010.05.17/outbox.cif.g08.bks.cpg/sg15_53_cif.got.tgz:105150.got - 2010.06.03 18:47:42.
