data_PCOD9299138
_publ_section_title
;
Structure prediction by ZEFSAII (Michael W. Deem and Ramdas Pophale) SiO2 
 PCOD9299138
Probable space group: C 2/C
;
_chemical_formula_sum "Si O2"
_cell_formula_units_Z 52
_cell_length_a 11.403259
_cell_length_b 25.293607
_cell_length_c 7.789426
_cell_angle_alpha 90.000000
_cell_angle_beta 105.412996
_cell_angle_gamma 90.000000
_cell_volume 2165.898386
_symmetry_space_group_name_H-M "C 2/C"
_symmetry_group_IT_number 15
_symmetry_cell_setting 'monoclinic'
loop_
_space_group_symop_operation_xyz
x,y,z
-x,y,1/2-z
-x,-y,-z
x,-y,1/2+z
1/2+x,1/2+y,z
1/2-x,1/2+y,1/2-z
1/2-x,1/2-y,-z
1/2+x,1/2-y,1/2+z
loop_
_atom_site_type_symbol
_atom_site_label
_atom_site_fract_x
_atom_site_fract_y
_atom_site_fract_z
Si Si1 0.500000 0.689844 0.750000
Si Si2 0.616559 0.878620 0.100497
Si Si3 0.625329 0.243697 0.564126
Si Si4 0.000000 0.180894 0.250000
Si Si5 0.000000 0.533429 0.750000
Si Si6 0.871558 0.976833 0.612402
Si Si7 0.649593 0.616938 0.603208
Si Si8 0.714292 0.052609 0.360499
O O1 0.478503 0.729031 0.588025
O O2 0.608288 0.649983 0.753299
O O3 0.520869 0.925821 0.100777
O O4 0.706908 0.883546 0.301267
O O5 0.590582 0.816627 0.085406
O O6 0.665216 0.894630 0.929898
O O7 0.750000 0.250000 0.500000
O O8 0.609539 0.280989 0.724247
O O9 0.070297 0.144639 0.419102
O O10 0.885808 0.494033 0.688733
O O11 0.882618 0.943672 0.441053
O O12 0.780139 0.944974 0.703097
O O13 0.000000 0.979234 0.750000
O O14 0.812609 0.031713 0.536598
#
# Coordination Sequence:
#
# PCOD9299138 Si02
#       8
#     4   8   8   4   4   8   8   8
#     4  10  24  47  70 103 149 181 230 304 358 424
#     4  12  26  45  74 101 140 192 239 289 355 430
#     4  11  24  47  71 107 139 187 238 291 360 427
#     4  10  25  46  70 107 145 180 237 306 360 434
#     4  12  25  51  70 102 150 189 239 298 350 422
#     4  12  25  45  71 107 142 188 236 297 363 430
#     4  11  23  43  74 103 139 183 231 295 364 425
#     4  12  27  46  71 106 145 188 244 298 350 423
#
# _framework density 24.008513000000001
#
# number of rings (size 3 to 8) (size 9 to 14) (size 15 to 20)
#    0.000    0.615    5.385    1.385    4.308    1.231 
#    4.154    0.000    0.000    0.000    0.000    0.000 
#    0.000    0.000    0.000    0.000    0.000    0.000 
#
# Total GULP energy -145080.350958 kJ/mol
# GULP energy per Si atom -5580.013498 kJ/mol
# Density = 2.395387 g / cm^3
# Si number density = 24.008513 Si / 1000 Ang^3
#
#
#
# Elastic Constant Matrix: (Units=GPa)
#
#
# Indices 1 2 3 4 5 6 
#
# 1 89.9782 31.5020 6.2286 0.0000 1.7946 0.0000
# 2 31.5020 113.2534 20.2730 0.0000 -0.7551 0.0000
# 3 6.2286 20.2730 50.2389 0.0000 -4.3840 0.0000
# 4 0.0000 0.0000 0.0000 20.4679 0.0000 -4.1209
# 5 1.7946 -0.7551 -4.3840 0.0000 26.0388 0.0000
# 6 0.0000 0.0000 0.0000 -4.1209 0.0000 31.4393
#
#
#
# Elastic Compliance Matrix: (Units=1/GPa)
#
#
# Indices 1 2 3 4 5 6 
#
# 1 0.012339 -0.003395 -0.000246 0.000000 -0.000990 0.000000
# 2 -0.003395 0.010455 -0.003807 0.000000 -0.000104 0.000000
# 3 -0.000246 -0.003807 0.021784 0.000000 0.003574 0.000000
# 4 0.000000 0.000000 0.000000 0.050181 0.000000 0.006577
# 5 -0.000990 -0.000104 0.003574 0.000000 0.039071 0.000000
# 6 0.000000 0.000000 0.000000 0.006577 0.000000 0.032669
#
#
# Mechanical properties :
#
#
# Convention : Reuss Voigt Hill
#
# Bulk Modulus (GPa) = 33.69120 41.05307 37.37214
# Shear Modulus (GPa) = 26.13842 28.62034 27.37938
#
# Velocity S-wave (km/s) = 3.30315 3.45641 3.38065
# Velocity P-wave (km/s) = 5.34894 5.75027 5.55323
#
# Compressibility (1/GPa) = 0.02968134
#
# Stress axis : x y z
#
# Youngs Moduli (GPa) = 81.04317 95.64998 45.90615
#
# Poissons Ratio (x) = 0.32470 0.01131
# Poissons Ratio (y) = 0.27512 0.17477
# Poissons Ratio (z) = 0.01997 0.36414
#
# Static dielectric constant tensor:
#      x y z
#    x 2.087060 0.000000 -0.060060 
#    y 0.000000 1.861950 0.000000 
#    z -0.060060 0.000000 2.054780 
# 
# From -- ./inp_files/33698.got.cif
#   From: 2010.05.17/outbox.cif.g08.bks.cpg/sg15_17_cif.got.tgz:33698.got - 2010.06.03 18:47:42.
