data_PCOD9299203
_publ_section_title
;
Structure prediction by ZEFSAII (Michael W. Deem and Ramdas Pophale) SiO2 
 PCOD9299203
Probable space group: C 2/C
;
_chemical_formula_sum "Si O2"
_cell_formula_units_Z 40
_cell_length_a 28.448338
_cell_length_b 12.963380
_cell_length_c 4.938649
_cell_angle_alpha 90.000000
_cell_angle_beta 68.250584
_cell_angle_gamma 90.000000
_cell_volume 1691.654825
_symmetry_space_group_name_H-M "C 2/C"
_symmetry_group_IT_number 15
_symmetry_cell_setting 'monoclinic'
loop_
_space_group_symop_operation_xyz
x,y,z
-x,y,1/2-z
-x,-y,-z
x,-y,1/2+z
1/2+x,1/2+y,z
1/2-x,1/2+y,1/2-z
1/2-x,1/2-y,-z
1/2+x,1/2-y,1/2+z
loop_
_atom_site_type_symbol
_atom_site_label
_atom_site_fract_x
_atom_site_fract_y
_atom_site_fract_z
Si Si1 0.127609 0.736646 0.241722
Si Si2 0.809613 0.563518 0.092528
Si Si3 0.711488 0.660946 0.175571
Si Si4 0.623515 0.429081 0.564398
Si Si5 0.559866 0.930296 0.600248
O O1 0.089800 0.668474 0.143063
O O2 0.101440 0.823712 0.486010
O O3 0.168053 0.792768 0.959584
O O4 0.182089 0.894482 0.492611
O O5 0.820551 0.465916 0.260507
O O6 0.750177 0.586729 0.246970
O O7 0.841025 0.659434 0.133814
O O8 0.750000 0.750000 0.000000
O O9 0.611729 0.480596 0.876738
O O10 0.500000 0.909743 0.750000
O O11 0.570757 0.973056 0.278064
#
# Coordination Sequence:
#
# PCOD9299203 Si02
#       5
#     8   8   8   8   8
#     4  12  26  43  69  99 135 179 232 281 337 411
#     4  12  26  39  61  92 133 177 221 275 332 392
#     4  12  25  43  61  94 135 187 232 280 332 395
#     4  12  26  43  63  89 129 181 233 278 325 385
#     4  10  24  47  77 110 140 170 213 277 357 426
#
# _framework density 23.645484
#
# number of rings (size 3 to 8) (size 9 to 14) (size 15 to 20)
#    0.000    0.400    4.000    4.200    5.600    0.000 
#    0.000    0.000    0.000    1.200    0.000    0.000 
#    0.000    0.000    0.000    0.000    0.000    0.000 
#
# Total GULP energy -112005.650006 kJ/mol
# GULP energy per Si atom -5600.282500 kJ/mol
# Density = 2.359167 g / cm^3
# Si number density = 23.645484 Si / 1000 Ang^3
#
#
#
# Elastic Constant Matrix: (Units=GPa)
#
#
# Indices 1 2 3 4 5 6 
#
# 1 101.5930 29.7360 13.9049 0.0000 16.2579 0.0000
# 2 29.7360 97.8744 17.0420 0.0000 12.1016 0.0000
# 3 13.9049 17.0420 99.8589 0.0000 18.8467 0.0000
# 4 0.0000 0.0000 0.0000 43.9536 0.0000 11.1123
# 5 16.2579 12.1016 18.8467 0.0000 27.7544 0.0000
# 6 0.0000 0.0000 0.0000 11.1123 0.0000 39.3403
#
#
#
# Elastic Compliance Matrix: (Units=1/GPa)
#
#
# Indices 1 2 3 4 5 6 
#
# 1 0.011557 -0.002818 -0.000095 0.000000 -0.005477 0.000000
# 2 -0.002818 0.011592 -0.001082 0.000000 -0.002669 0.000000
# 3 -0.000095 -0.001082 0.011599 0.000000 -0.007349 0.000000
# 4 0.000000 0.000000 0.000000 0.024501 0.000000 -0.006921
# 5 -0.005477 -0.002669 -0.007349 0.000000 0.045393 0.000000
# 6 0.000000 0.000000 0.000000 -0.006921 0.000000 0.027374
#
#
# Mechanical properties :
#
#
# Convention : Reuss Voigt Hill
#
# Bulk Modulus (GPa) = 37.37071 46.74356 42.05713
# Shear Modulus (GPa) = 33.57406 38.11922 35.84664
#
# Velocity S-wave (km/s) = 3.77224 4.01947 3.89781
# Velocity P-wave (km/s) = 5.90016 6.43062 6.17110
#
# Compressibility (1/GPa) = 0.02675893
#
# Stress axis : x y z
#
# Youngs Moduli (GPa) = 86.52478 86.26909 86.21432
#
# Poissons Ratio (x) = 0.24307 0.00817
# Poissons Ratio (y) = 0.24379 0.09330
# Poissons Ratio (z) = 0.00820 0.09336
#
# Static dielectric constant tensor:
#      x y z
#    x 1.919710 0.000000 0.019650 
#    y 0.000000 1.967470 0.000000 
#    z 0.019650 0.000000 1.924450 
# 
# From -- ./inp_files/17984.got.cif
#   From: 2010.05.17/outbox.cif.g08.bks.cpg/sg15_9_cif.got.tgz:17984.got - 2010.06.03 18:47:42.
