data_PCOD9299530
_publ_section_title
;
Structure prediction by ZEFSAII (Michael W. Deem and Ramdas Pophale) SiO2 
 PCOD9299530
Probable space group: C 2/C
;
_chemical_formula_sum "Si O2"
_cell_formula_units_Z 40
_cell_length_a 17.979513
_cell_length_b 4.778468
_cell_length_c 18.649972
_cell_angle_alpha 90.000000
_cell_angle_beta 95.315685
_cell_angle_gamma 90.000000
_cell_volume 1595.412624
_symmetry_space_group_name_H-M "C 2/C"
_symmetry_group_IT_number 15
_symmetry_cell_setting 'monoclinic'
loop_
_space_group_symop_operation_xyz
x,y,z
-x,y,1/2-z
-x,-y,-z
x,-y,1/2+z
1/2+x,1/2+y,z
1/2-x,1/2+y,1/2-z
1/2-x,1/2-y,-z
1/2+x,1/2-y,1/2+z
loop_
_atom_site_type_symbol
_atom_site_label
_atom_site_fract_x
_atom_site_fract_y
_atom_site_fract_z
Si Si1 0.759519 0.037801 0.434619
Si Si2 0.944059 0.277382 0.810790
Si Si3 0.877960 0.608992 0.510885
Si Si4 0.536214 0.718712 0.085731
Si Si5 0.788063 0.993944 0.781874
O O1 0.750000 0.250000 0.500000
O O2 0.783298 0.146246 0.359737
O O3 0.819677 0.797074 0.459536
O O4 0.673179 0.940653 0.423886
O O5 0.960196 0.092662 0.883396
O O6 0.863948 0.164668 0.778707
O O7 0.000000 0.239063 0.750000
O O8 0.950259 0.589478 0.842554
O O9 0.904940 0.338711 0.467554
O O10 0.954785 0.744150 0.543819
O O11 0.773497 0.739413 0.727571
#
# Coordination Sequence:
#
# PCOD9299530 Si02
#       5
#     8   8   8   8   8
#     4  11  25  45  75 105 148 190 255 302 371 438
#     4  12  27  46  71 102 147 191 244 296 367 450
#     4  10  25  42  73 105 141 186 240 313 365 433
#     4  11  25  46  71 106 143 184 244 305 372 425
#     4  12  29  48  73 104 150 195 245 300 374 443
#
# _framework density 25.071884000000001
#
# number of rings (size 3 to 8) (size 9 to 14) (size 15 to 20)
#    0.000    0.800    2.000    3.000   14.000    1.600 
#    0.000    0.000    0.000    0.000    0.000    0.000 
#    0.000    0.000    0.000    0.000    0.000    0.000 
#
# Total GULP energy -111938.436717 kJ/mol
# GULP energy per Si atom -5596.921836 kJ/mol
# Density = 2.501482 g / cm^3
# Si number density = 25.071884 Si / 1000 Ang^3
#
#
#
# Elastic Constant Matrix: (Units=GPa)
#
#
# Indices 1 2 3 4 5 6 
#
# 1 164.6324 18.4073 58.6667 0.0000 -22.2616 0.0000
# 2 18.4073 80.0789 11.2502 0.0000 2.9438 0.0000
# 3 58.6667 11.2502 85.3402 0.0000 -24.4913 0.0000
# 4 0.0000 0.0000 0.0000 53.4618 0.0000 7.4031
# 5 -22.2616 2.9438 -24.4913 0.0000 47.7491 0.0000
# 6 0.0000 0.0000 0.0000 7.4031 0.0000 33.6771
#
#
#
# Elastic Compliance Matrix: (Units=1/GPa)
#
#
# Indices 1 2 3 4 5 6 
#
# 1 0.008205 -0.001215 -0.005114 0.000000 0.001277 0.000000
# 2 -0.001215 0.013056 -0.001501 0.000000 -0.002141 0.000000
# 3 -0.005114 -0.001501 0.017323 0.000000 0.006594 0.000000
# 4 0.000000 0.000000 0.000000 0.019292 0.000000 -0.004241
# 5 0.001277 -0.002141 0.006594 0.000000 0.025052 0.000000
# 6 0.000000 0.000000 0.000000 -0.004241 0.000000 0.030626
#
#
# Mechanical properties :
#
#
# Convention : Reuss Voigt Hill
#
# Bulk Modulus (GPa) = 43.61718 56.29998 49.95858
# Shear Modulus (GPa) = 36.53485 43.09275 39.81380
#
# Velocity S-wave (km/s) = 3.82148 4.15030 3.98928
# Velocity P-wave (km/s) = 6.07505 6.74321 6.41783
#
# Compressibility (1/GPa) = 0.02292675
#
# Stress axis : x y z
#
# Youngs Moduli (GPa) = 121.87779 76.59082 57.72537
#
# Poissons Ratio (x) = 0.09302 0.29520
# Poissons Ratio (y) = 0.14803 0.08663
# Poissons Ratio (z) = 0.62326 0.11494
#
# Static dielectric constant tensor:
#      x y z
#    x 2.032980 0.000000 0.011410 
#    y 0.000000 2.035090 0.000000 
#    z 0.011410 0.000000 1.985240 
# 
# From -- ./inp_files/208045.got.cif
#   From: 2010.05.17/outbox.cif.g08.bks.cpg/sg15_105_cif.got.tgz:208045.got - 2010.06.03 18:47:42.
