data_PCOD9299827
_publ_section_title
;
Structure prediction by ZEFSAII (Michael W. Deem and Ramdas Pophale) SiO2 
 PCOD9299827
Probable space group: C 2/C
;
_chemical_formula_sum "Si O2"
_cell_formula_units_Z 24
_cell_length_a 14.359020
_cell_length_b 15.481494
_cell_length_c 8.707623
_cell_angle_alpha 90.000000
_cell_angle_beta 29.443039
_cell_angle_gamma 90.000000
_cell_volume 951.507239
_symmetry_space_group_name_H-M "C 2/C"
_symmetry_group_IT_number 15
_symmetry_cell_setting 'monoclinic'
loop_
_space_group_symop_operation_xyz
x,y,z
-x,y,1/2-z
-x,-y,-z
x,-y,1/2+z
1/2+x,1/2+y,z
1/2-x,1/2+y,1/2-z
1/2-x,1/2-y,-z
1/2+x,1/2-y,1/2+z
loop_
_atom_site_type_symbol
_atom_site_label
_atom_site_fract_x
_atom_site_fract_y
_atom_site_fract_z
Si Si1 0.500000 0.586609 0.750000
Si Si2 0.500000 0.168052 0.750000
Si Si3 0.278373 0.422130 0.076250
Si Si4 0.842147 0.801020 0.228225
O O1 0.685415 0.524529 0.473819
O O2 0.506583 0.641498 0.895314
O O3 0.346344 0.109679 0.884223
O O4 0.586780 0.230622 0.495225
O O5 0.213937 0.370828 0.320679
O O6 0.500000 0.393142 0.750000
O O7 0.750000 0.750000 0.500000
#
# Coordination Sequence:
#
# PCOD9299827 Si02
#       4
#     4   4   8   8
#     4  10  25  48  75 106 154 198 236 310 379 436
#     4  12  25  50  75 112 146 192 254 308 359 448
#     4  10  25  46  79 101 154 194 241 303 379 427
#     4  12  25  43  78 114 144 197 251 304 370 442
#
# _framework density 25.223140000000001
#
# number of rings (size 3 to 8) (size 9 to 14) (size 15 to 20)
#    1.000    0.000    1.667    4.000    4.667    0.000 
#    0.000    8.333    7.333    0.000    0.000    0.000 
#    0.000    0.000    0.000    0.000    0.000    0.000 
#
# Total GULP energy -67104.359948 kJ/mol
# GULP energy per Si atom -5592.029996 kJ/mol
# Density = 2.516573 g / cm^3
# Si number density = 25.223140 Si / 1000 Ang^3
#
#
#
# Elastic Constant Matrix: (Units=GPa)
#
#
# Indices 1 2 3 4 5 6 
#
# 1 274.1228 109.4798 68.0340 -0.0013 6.1443 0.0008
# 2 109.4798 148.0441 52.2107 0.0002 0.2760 -0.0002
# 3 68.0340 52.2107 82.1142 -0.0021 29.7916 0.0009
# 4 -0.0013 0.0002 -0.0021 -8.0983 0.0012 1.1667
# 5 6.1443 0.2760 29.7916 0.0012 47.6884 -0.0006
# 6 0.0008 -0.0002 0.0009 1.1667 -0.0006 65.1471
#
#
#
# Elastic Compliance Matrix: (Units=1/GPa)
#
#
# Indices 1 2 3 4 5 6 
#
# 1 0.005625 -0.003033 -0.003200 0.000000 0.001292 0.000000
# 2 -0.003033 0.011123 -0.006049 0.000003 0.004105 0.000000
# 3 -0.003200 -0.006049 0.023940 -0.000008 -0.014508 0.000000
# 4 0.000000 0.000003 -0.000008 -0.123165 0.000008 0.002206
# 5 0.001292 0.004105 -0.014508 0.000008 0.029843 0.000000
# 6 0.000000 0.000000 0.000000 0.002206 0.000000 0.015310
#
#
# Mechanical properties :
#
#
# Convention : Reuss Voigt Hill
#
# Bulk Modulus (GPa) = 62.02523 107.08114 84.55319
# Shear Modulus (GPa) = -677.12258 39.25121 -318.93569
#
# Velocity S-wave (km/s) = -16.40231 3.94910 -11.25701
# Velocity P-wave (km/s) = 18.27759 7.95861 11.63466
#
# Compressibility (1/GPa) = 0.01612247
#
# Stress axis : x y z
#
# Youngs Moduli (GPa) = 177.78431 89.89982 41.77184
#
# Poissons Ratio (x) = 0.27269 0.13369
# Poissons Ratio (y) = 0.53927 0.25267
# Poissons Ratio (z) = 0.56900 0.54380
#
# Static dielectric constant tensor:
#      x y z
#    x 1.957510 0.000000 -0.020100 
#    y 0.000000 2.045440 0.000000 
#    z -0.020100 0.000000 2.172300 
# 
# From -- ./inp_files/38848.got.cif
#   From: 2010.05.17/outbox.cif.g08.bks.cpg/sg15_20_cif.got.tgz:38848.got - 2010.06.03 18:47:42.
