data_PCOD9299565
_publ_section_title
;
Structure prediction by ZEFSAII (Michael W. Deem and Ramdas Pophale) SiO2 
 PCOD9299565
Probable space group: C 2/C
;
_chemical_formula_sum "Si O2"
_cell_formula_units_Z 44
_cell_length_a 11.080703
_cell_length_b 8.294135
_cell_length_c 28.438760
_cell_angle_alpha 90.000000
_cell_angle_beta 49.605434
_cell_angle_gamma 90.000000
_cell_volume 1990.562766
_symmetry_space_group_name_H-M "C 2/C"
_symmetry_group_IT_number 15
_symmetry_cell_setting 'monoclinic'
loop_
_space_group_symop_operation_xyz
x,y,z
-x,y,1/2-z
-x,-y,-z
x,-y,1/2+z
1/2+x,1/2+y,z
1/2-x,1/2+y,1/2-z
1/2-x,1/2-y,-z
1/2+x,1/2-y,1/2+z
loop_
_atom_site_type_symbol
_atom_site_label
_atom_site_fract_x
_atom_site_fract_y
_atom_site_fract_z
Si Si1 0.752571 0.027146 0.918899
Si Si2 0.771780 0.519672 0.727996
Si Si3 0.061864 0.434408 0.557835
Si Si4 0.036110 0.774658 0.336811
Si Si5 0.057269 0.302352 0.134325
Si Si6 0.500000 0.694114 0.250000
O O1 0.871555 0.148285 0.862903
O O2 0.594750 0.000637 0.928675
O O3 0.855373 0.863863 0.900698
O O4 0.691286 0.088442 0.984925
O O5 0.674321 0.595997 0.794947
O O6 0.642460 0.422360 0.730520
O O7 0.904774 0.385280 0.704612
O O8 0.867154 0.663640 0.677957
O O9 0.997492 0.279324 0.601619
O O10 0.121824 0.558170 0.583357
O O11 0.063204 0.296910 0.189897
#
# Coordination Sequence:
#
# PCOD9299565 Si02
#       6
#     8   8   8   8   8   4
#     4  11  22  45  71  92 135 174 217 269 325 383
#     4  11  23  39  66  96 129 172 210 265 332 385
#     4  10  25  43  69  99 126 178 221 266 321 389
#     4  11  21  40  66  97 131 169 216 265 324 389
#     4  11  22  40  68  96 129 170 214 269 326 389
#     4  12  22  42  64  90 140 166 210 272 326 386
#
# _framework density 22.104302000000001
#
# number of rings (size 3 to 8) (size 9 to 14) (size 15 to 20)
#    0.000    1.091    3.636    3.273    0.000    0.000 
#    0.000   14.545    0.000   16.364    0.000    0.000 
#    0.000    0.000    0.000    0.000    0.000    0.000 
#
# Total GULP energy -122588.348388 kJ/mol
# GULP energy per Si atom -5572.197654 kJ/mol
# Density = 2.205399 g / cm^3
# Si number density = 22.104302 Si / 1000 Ang^3
#
#
#
# Elastic Constant Matrix: (Units=GPa)
#
#
# Indices 1 2 3 4 5 6 
#
# 1 65.5357 49.3758 37.9474 0.0000 -1.0765 0.0000
# 2 49.3758 91.1599 55.3910 0.0000 -13.3493 0.0000
# 3 37.9474 55.3910 147.6029 0.0000 -16.6430 0.0000
# 4 0.0000 0.0000 0.0000 40.5254 0.0000 -4.3722
# 5 -1.0765 -13.3493 -16.6430 0.0000 35.3248 0.0000
# 6 0.0000 0.0000 0.0000 -4.3722 0.0000 36.3264
#
#
#
# Elastic Compliance Matrix: (Units=1/GPa)
#
#
# Indices 1 2 3 4 5 6 
#
# 1 0.027140 -0.014115 -0.002311 0.000000 -0.005596 0.000000
# 2 -0.014115 0.021862 -0.003900 0.000000 0.005994 0.000000
# 3 -0.002311 -0.003900 0.009144 0.000000 0.002764 0.000000
# 4 0.000000 0.000000 0.000000 0.025001 0.000000 0.003009
# 5 -0.005596 0.005994 0.002764 0.000000 0.031706 0.000000
# 6 0.000000 0.000000 0.000000 0.003009 0.000000 0.027890
#
#
# Mechanical properties :
#
#
# Convention : Reuss Voigt Hill
#
# Bulk Modulus (GPa) = 57.16120 65.52523 61.34322
# Shear Modulus (GPa) = 26.42337 33.20759 29.81548
#
# Velocity S-wave (km/s) = 3.46120 3.88017 3.67666
# Velocity P-wave (km/s) = 6.47218 7.05566 6.77021
#
# Compressibility (1/GPa) = 0.01749438
#
# Stress axis : x y z
#
# Youngs Moduli (GPa) = 36.84615 45.74094 109.35851
#
# Poissons Ratio (x) = 0.64563 0.25278
# Poissons Ratio (y) = 0.52008 0.42645
# Poissons Ratio (z) = 0.08517 0.17837
#
# Static dielectric constant tensor:
#      x y z
#    x 1.844160 0.000000 0.014090 
#    y 0.000000 1.884110 0.000000 
#    z 0.014090 0.000000 1.839270 
# 
# From -- ./inp_files/309865.got.cif
#   From: 2010.05.17/outbox.cif.g08.bks.cpg/sg15_155_cif.got.tgz:309865.got - 2010.06.03 18:47:42.
