data_PCOD9299121
_publ_section_title
;
Structure prediction by ZEFSAII (Michael W. Deem and Ramdas Pophale) SiO2 
 PCOD9299121
Probable space group: C 2/C
;
_chemical_formula_sum "Si O2"
_cell_formula_units_Z 32
_cell_length_a 26.659387
_cell_length_b 6.412716
_cell_length_c 8.480153
_cell_angle_alpha 90.000000
_cell_angle_beta 109.234916
_cell_angle_gamma 90.000000
_cell_volume 1368.827467
_symmetry_space_group_name_H-M "C 2/C"
_symmetry_group_IT_number 15
_symmetry_cell_setting 'monoclinic'
loop_
_space_group_symop_operation_xyz
x,y,z
-x,y,1/2-z
-x,-y,-z
x,-y,1/2+z
1/2+x,1/2+y,z
1/2-x,1/2+y,1/2-z
1/2-x,1/2-y,-z
1/2+x,1/2-y,1/2+z
loop_
_atom_site_type_symbol
_atom_site_label
_atom_site_fract_x
_atom_site_fract_y
_atom_site_fract_z
Si Si1 0.017991 0.737422 0.523712
Si Si2 0.719765 0.940002 0.886268
Si Si3 0.817883 0.796516 0.416937
Si Si4 0.429818 0.549920 0.114807
O O1 0.052435 0.816495 0.712983
O O2 0.000000 0.500000 0.500000
O O3 0.961384 0.845962 0.501085
O O4 0.048689 0.815644 0.397757
O O5 0.674508 0.834888 0.733752
O O6 0.766679 0.056496 0.838444
O O7 0.750000 0.750000 0.000000
O O8 0.696217 0.120209 0.970237
O O9 0.867637 0.928879 0.524398
#
# Coordination Sequence:
#
# PCOD9299121 Si02
#       4
#     8   8   8   8
#     4  10  24  47  68 102 142 179 236 300 357 431
#     4  11  24  43  64 102 146 183 236 283 340 417
#     4  11  25  43  69 101 142 189 232 289 343 417
#     4  10  25  43  70 101 134 185 241 290 354 433
#
# _framework density 23.377672
#
# number of rings (size 3 to 8) (size 9 to 14) (size 15 to 20)
#    0.000    1.500    2.500    0.000    7.000   10.000 
#    0.000    0.000    0.000    0.000    0.000    0.000 
#    0.000    0.000    0.000    0.000    0.000    0.000 
#
# Total GULP energy -89245.741407 kJ/mol
# GULP energy per Si atom -5577.858838 kJ/mol
# Density = 2.332446 g / cm^3
# Si number density = 23.377672 Si / 1000 Ang^3
#
#
#
# Elastic Constant Matrix: (Units=GPa)
#
#
# Indices 1 2 3 4 5 6 
#
# 1 68.4571 25.1322 33.6529 0.0000 14.7005 0.0000
# 2 25.1322 134.6644 44.8148 0.0000 4.1885 0.0000
# 3 33.6529 44.8148 106.8798 0.0000 8.3738 0.0000
# 4 0.0000 0.0000 0.0000 23.0063 0.0000 -0.7573
# 5 14.7005 4.1885 8.3738 0.0000 23.5109 0.0000
# 6 0.0000 0.0000 0.0000 -0.7573 0.0000 22.7080
#
#
#
# Elastic Compliance Matrix: (Units=1/GPa)
#
#
# Indices 1 2 3 4 5 6 
#
# 1 0.019797 -0.001822 -0.004655 0.000000 -0.010396 0.000000
# 2 -0.001822 0.008799 -0.003171 0.000000 0.000701 0.000000
# 3 -0.004655 -0.003171 0.012220 0.000000 -0.000877 0.000000
# 4 0.000000 0.000000 0.000000 0.043514 0.000000 0.001451
# 5 -0.010396 0.000701 -0.000877 0.000000 0.049221 0.000000
# 6 0.000000 0.000000 0.000000 0.001451 0.000000 0.044086
#
#
# Mechanical properties :
#
#
# Convention : Reuss Voigt Hill
#
# Bulk Modulus (GPa) = 46.46615 57.46679 51.96647
# Shear Modulus (GPa) = 24.49686 27.60513 26.05099
#
# Velocity S-wave (km/s) = 3.24060 3.44005 3.34181
# Velocity P-wave (km/s) = 5.82421 6.35719 6.09653
#
# Compressibility (1/GPa) = 0.02152104
#
# Stress axis : x y z
#
# Youngs Moduli (GPa) = 50.51144 113.64494 81.83174
#
# Poissons Ratio (x) = 0.20709 0.38092
# Poissons Ratio (y) = 0.09205 0.25947
# Poissons Ratio (z) = 0.23513 0.36034
#
# Static dielectric constant tensor:
#      x y z
#    x 1.859670 0.000000 -0.047590 
#    y 0.000000 2.001620 0.000000 
#    z -0.047590 0.000000 2.017890 
# 
# From -- ./inp_files/67961.got.cif
#   From: 2010.05.17/outbox.cif.g08.bks.cpg/sg15_34_cif.got.tgz:67961.got - 2010.06.03 18:47:42.
