data_PCOD9299643
_publ_section_title
;
Structure prediction by ZEFSAII (Michael W. Deem and Ramdas Pophale) SiO2 
 PCOD9299643
Probable space group: C 2/C
;
_chemical_formula_sum "Si O2"
_cell_formula_units_Z 44
_cell_length_a 16.939121
_cell_length_b 6.067282
_cell_length_c 14.214238
_cell_angle_alpha 90.000000
_cell_angle_beta 82.846194
_cell_angle_gamma 90.000000
_cell_volume 1449.487950
_symmetry_space_group_name_H-M "C 2/C"
_symmetry_group_IT_number 15
_symmetry_cell_setting 'monoclinic'
loop_
_space_group_symop_operation_xyz
x,y,z
-x,y,1/2-z
-x,-y,-z
x,-y,1/2+z
1/2+x,1/2+y,z
1/2-x,1/2+y,1/2-z
1/2-x,1/2-y,-z
1/2+x,1/2-y,1/2+z
loop_
_atom_site_type_symbol
_atom_site_label
_atom_site_fract_x
_atom_site_fract_y
_atom_site_fract_z
Si Si1 0.023455 0.160870 0.102526
Si Si2 0.327913 0.436734 0.489267
Si Si3 0.260717 0.769610 0.647936
Si Si4 0.613360 0.907345 0.261856
Si Si5 0.897297 0.525248 0.550357
Si Si6 0.000000 0.798880 0.250000
O O1 0.075302 0.245978 0.187186
O O2 0.934649 0.322968 0.130414
O O3 0.079226 0.990678 0.028721
O O4 0.053655 0.369730 0.022218
O O5 0.286528 0.558698 0.582781
O O6 0.289600 0.557144 0.405983
O O7 0.335239 0.174855 0.502379
O O8 0.206107 0.675902 0.738237
O O9 0.345480 0.899415 0.640576
O O10 0.481585 0.443180 0.162449
O O11 0.575010 0.133979 0.225041
#
# Coordination Sequence:
#
# PCOD9299643 Si02
#       6
#     8   8   8   8   8   4
#     4  10  25  44  71 103 139 186 249 292 360 428
#     4  11  24  45  68 103 144 191 234 294 367 431
#     4  11  25  45  69 102 149 186 236 297 366 435
#     4  10  26  43  70 106 137 194 245 292 365 421
#     4  10  26  42  69 103 139 181 242 297 356 421
#     4  12  22  46  74 100 142 194 246 306 348 438
#
# _framework density 30.355547999999999
#
# number of rings (size 3 to 8) (size 9 to 14) (size 15 to 20)
#    1.091    0.364    0.000    3.818    5.091    8.000 
#    0.000    0.000    0.000    0.000    0.000    0.000 
#    0.000    0.000    0.000    0.000    0.000    0.000 
#
# Total GULP energy -122753.056028 kJ/mol
# GULP energy per Si atom -5579.684365 kJ/mol
# Density = 3.028646 g / cm^3
# Si number density = 30.355548 Si / 1000 Ang^3
#
#
#
# Elastic Constant Matrix: (Units=GPa)
#
#
# Indices 1 2 3 4 5 6 
#
# 1 106.7419 50.0277 61.7307 0.0000 -31.6818 0.0000
# 2 50.0277 192.9768 87.9031 0.0000 -42.9046 0.0000
# 3 61.7307 87.9031 260.5061 0.0000 -33.4974 0.0000
# 4 0.0000 0.0000 0.0000 62.8675 0.0000 2.3655
# 5 -31.6818 -42.9046 -33.4974 0.0000 42.1815 0.0000
# 6 0.0000 0.0000 0.0000 2.3655 0.0000 65.1354
#
#
#
# Elastic Compliance Matrix: (Units=1/GPa)
#
#
# Indices 1 2 3 4 5 6 
#
# 1 0.013057 -0.000895 -0.001836 0.000000 0.007439 0.000000
# 2 -0.000895 0.007363 -0.001555 0.000000 0.005583 0.000000
# 3 -0.001836 -0.001555 0.004920 0.000000 0.000947 0.000000
# 4 0.000000 0.000000 0.000000 0.015928 0.000000 -0.000578
# 5 0.007439 0.005583 0.000947 0.000000 0.035725 0.000000
# 6 0.000000 0.000000 0.000000 -0.000578 0.000000 0.015374
#
#
# Mechanical properties :
#
#
# Convention : Reuss Voigt Hill
#
# Bulk Modulus (GPa) = 59.62881 106.61642 83.12262
# Shear Modulus (GPa) = 46.93578 58.07443 52.50510
#
# Velocity S-wave (km/s) = 3.93644 4.37869 4.16344
# Velocity P-wave (km/s) = 6.35192 7.79504 7.11019
#
# Compressibility (1/GPa) = 0.01677042
#
# Stress axis : x y z
#
# Youngs Moduli (GPa) = 76.58489 135.80705 203.25038
#
# Poissons Ratio (x) = 0.12154 0.37308
# Poissons Ratio (y) = 0.06854 0.31599
# Poissons Ratio (z) = 0.14058 0.21114
#
# Static dielectric constant tensor:
#      x y z
#    x 2.674990 0.000000 -0.088140 
#    y 0.000000 2.719640 0.000000 
#    z -0.088140 0.000000 2.345120 
# 
# From -- ./inp_files/278403.got.cif
#   From: 2010.05.17/outbox.cif.g08.bks.cpg/sg15_140_cif.got.tgz:278403.got - 2010.06.03 18:47:42.
