data_PCOD9299623
_publ_section_title
;
Structure prediction by ZEFSAII (Michael W. Deem and Ramdas Pophale) SiO2 
 PCOD9299623
Probable space group: C 2/C
;
_chemical_formula_sum "Si O2"
_cell_formula_units_Z 48
_cell_length_a 16.444877
_cell_length_b 10.744143
_cell_length_c 22.040059
_cell_angle_alpha 90.000000
_cell_angle_beta 32.623298
_cell_angle_gamma 90.000000
_cell_volume 2099.400091
_symmetry_space_group_name_H-M "C 2/C"
_symmetry_group_IT_number 15
_symmetry_cell_setting 'monoclinic'
loop_
_space_group_symop_operation_xyz
x,y,z
-x,y,1/2-z
-x,-y,-z
x,-y,1/2+z
1/2+x,1/2+y,z
1/2-x,1/2+y,1/2-z
1/2-x,1/2-y,-z
1/2+x,1/2-y,1/2+z
loop_
_atom_site_type_symbol
_atom_site_label
_atom_site_fract_x
_atom_site_fract_y
_atom_site_fract_z
Si Si1 0.474279 0.696555 0.059576
Si Si2 0.628712 0.912965 0.445767
Si Si3 0.160447 0.609393 0.229805
Si Si4 0.692777 0.509203 0.969392
Si Si5 0.540536 0.626859 0.795477
Si Si6 0.424548 0.916591 0.415303
O O1 0.443289 0.776605 0.018147
O O2 0.309713 0.638242 0.175255
O O3 0.598954 0.590375 0.979904
O O4 0.532247 0.794447 0.073907
O O5 0.783986 0.914767 0.311079
O O6 0.500000 0.000000 0.500000
O O7 0.654984 0.976129 0.493706
O O8 0.048771 0.726281 0.305073
O O9 0.078092 0.482908 0.298709
O O10 0.212933 0.592402 0.127135
O O11 0.571397 0.447943 0.090879
O O12 0.810415 0.597021 0.931275
O O13 0.500000 0.612137 0.750000
#
# Coordination Sequence:
#
# PCOD9299623 Si02
#       6
#     8   8   8   8   8   8
#     4  10  25  44  69 100 136 179 223 281 341 404
#     4   9  21  42  65  96 132 173 226 272 329 408
#     4  11  27  42  69 100 139 179 225 286 339 403
#     4  12  25  45  70 102 139 174 232 285 342 401
#     4  11  23  42  69 101 130 182 227 281 338 401
#     4  11  23  46  71  99 137 180 228 279 343 410
#
# _framework density 22.863674
#
# number of rings (size 3 to 8) (size 9 to 14) (size 15 to 20)
#    0.000    1.333    1.667    2.500   11.667    2.667 
#    3.000    0.000    0.000    0.000    0.000    0.000 
#    0.000    0.000    0.000    0.000    0.000    0.000 
#
# Total GULP energy -134054.783355 kJ/mol
# GULP energy per Si atom -5585.615973 kJ/mol
# Density = 2.281164 g / cm^3
# Si number density = 22.863674 Si / 1000 Ang^3
#
#
#
# Elastic Constant Matrix: (Units=GPa)
#
#
# Indices 1 2 3 4 5 6 
#
# 1 83.0975 26.4969 18.2798 -0.0002 -23.5979 0.0001
# 2 26.4969 53.3937 27.8293 0.0000 -10.5153 0.0000
# 3 18.2798 27.8293 86.2159 -0.0002 -5.3977 0.0002
# 4 -0.0002 0.0000 -0.0002 30.3770 0.0001 -9.5036
# 5 -23.5979 -10.5153 -5.3977 0.0001 34.1694 0.0000
# 6 0.0001 0.0000 0.0002 -9.5036 0.0000 42.5535
#
#
#
# Elastic Compliance Matrix: (Units=1/GPa)
#
#
# Indices 1 2 3 4 5 6 
#
# 1 0.016909 -0.005929 -0.001065 0.000000 0.009685 0.000000
# 2 -0.005929 0.025812 -0.006902 0.000000 0.002758 0.000000
# 3 -0.001065 -0.006902 0.014012 0.000000 -0.000646 0.000000
# 4 0.000000 0.000000 0.000000 0.035393 0.000000 0.007904
# 5 0.009685 0.002758 -0.000646 0.000000 0.036701 0.000000
# 6 0.000000 0.000000 0.000000 0.007904 0.000000 0.025265
#
#
# Mechanical properties :
#
#
# Convention : Reuss Voigt Hill
#
# Bulk Modulus (GPa) = 34.55274 40.87990 37.71632
# Shear Modulus (GPa) = 26.10550 31.42669 28.76609
#
# Velocity S-wave (km/s) = 3.38270 3.71148 3.55090
# Velocity P-wave (km/s) = 5.51382 6.02374 5.77441
#
# Compressibility (1/GPa) = 0.02894127
#
# Stress axis : x y z
#
# Youngs Moduli (GPa) = 59.13950 38.74228 71.36740
#
# Poissons Ratio (x) = 0.22970 0.07601
# Poissons Ratio (y) = 0.35063 0.49257
# Poissons Ratio (z) = 0.06299 0.26740
#
# Static dielectric constant tensor:
#      x y z
#    x 1.910880 0.000000 0.023910 
#    y 0.000000 1.852210 0.000000 
#    z 0.023910 0.000000 1.849420 
# 
# From -- ./inp_files/277222.got.cif
#   From: 2010.05.17/outbox.cif.g08.bks.cpg/sg15_139_cif.got.tgz:277222.got - 2010.06.03 18:47:42.
