data_PCOD9299329
_publ_section_title
;
Structure prediction by ZEFSAII (Michael W. Deem and Ramdas Pophale) SiO2 
 PCOD9299329
Probable space group: C 2/C
;
_chemical_formula_sum "Si O2"
_cell_formula_units_Z 40
_cell_length_a 7.355303
_cell_length_b 18.355046
_cell_length_c 12.348776
_cell_angle_alpha 90.000000
_cell_angle_beta 107.928847
_cell_angle_gamma 90.000000
_cell_volume 1586.211714
_symmetry_space_group_name_H-M "C 2/C"
_symmetry_group_IT_number 15
_symmetry_cell_setting 'monoclinic'
loop_
_space_group_symop_operation_xyz
x,y,z
-x,y,1/2-z
-x,-y,-z
x,-y,1/2+z
1/2+x,1/2+y,z
1/2-x,1/2+y,1/2-z
1/2-x,1/2-y,-z
1/2+x,1/2-y,1/2+z
loop_
_atom_site_type_symbol
_atom_site_label
_atom_site_fract_x
_atom_site_fract_y
_atom_site_fract_z
Si Si1 0.500000 0.779639 0.250000
Si Si2 0.278589 0.052246 0.238122
Si Si3 0.968570 0.912129 0.002883
Si Si4 0.850568 0.616005 0.477961
Si Si5 0.784851 0.403221 0.334720
Si Si6 0.250000 0.750000 0.000000
O O1 0.345715 0.832975 0.279643
O O2 0.385015 0.739377 0.135610
O O3 0.500000 0.056069 0.250000
O O4 0.264041 0.079621 0.357850
O O5 0.165140 0.096905 0.127317
O O6 0.224325 0.967169 0.241317
O O7 0.167721 0.868256 0.023409
O O8 0.862327 0.893629 0.094339
O O9 0.000000 0.000000 0.000000
O O10 0.919267 0.697688 0.474961
O O11 0.015017 0.572576 0.569372
#
# Coordination Sequence:
#
# PCOD9299329 Si02
#       6
#     4   8   8   8   8   4
#     4  10  24  48  78  98 146 190 244 300 348 434
#     4  12  22  39  68 101 140 176 225 293 369 418
#     4  12  25  38  66 105 138 176 232 293 359 429
#     4  11  24  46  66  97 140 184 236 292 349 428
#     4  11  23  44  67 102 138 181 227 293 370 418
#     4  10  26  48  74  98 138 204 238 280 356 416
#
# _framework density 25.217313999999998
#
# number of rings (size 3 to 8) (size 9 to 14) (size 15 to 20)
#    0.000    0.800    5.000    2.400    5.600    0.000 
#    0.000    6.000    0.000    0.000    0.000    0.000 
#    0.000    0.000    0.000    0.000    0.000    0.000 
#
# Total GULP energy -111455.192152 kJ/mol
# GULP energy per Si atom -5572.759608 kJ/mol
# Density = 2.515992 g / cm^3
# Si number density = 25.217314 Si / 1000 Ang^3
#
#
#
# Elastic Constant Matrix: (Units=GPa)
#
#
# Indices 1 2 3 4 5 6 
#
# 1 166.4350 -8.7867 37.0819 0.0000 -10.9136 0.0000
# 2 -8.7867 46.7772 17.5777 0.0000 -8.0711 0.0000
# 3 37.0819 17.5777 171.4975 0.0000 7.2941 0.0000
# 4 0.0000 0.0000 0.0000 39.9203 0.0000 2.6288
# 5 -10.9136 -8.0711 7.2941 0.0000 33.1424 0.0000
# 6 0.0000 0.0000 0.0000 2.6288 0.0000 23.2135
#
#
#
# Elastic Compliance Matrix: (Units=1/GPa)
#
#
# Indices 1 2 3 4 5 6 
#
# 1 0.006770 0.002533 -0.001862 0.000000 0.003256 0.000000
# 2 0.002533 0.024418 -0.003370 0.000000 0.007523 0.000000
# 3 -0.001862 -0.003370 0.006703 0.000000 -0.002909 0.000000
# 4 0.000000 0.000000 0.000000 0.025238 0.000000 -0.002858
# 5 0.003256 0.007523 -0.002909 0.000000 0.033717 0.000000
# 6 0.000000 0.000000 0.000000 -0.002858 0.000000 0.043402
#
#
# Mechanical properties :
#
#
# Convention : Reuss Voigt Hill
#
# Bulk Modulus (GPa) = 30.77572 52.93949 41.85761
# Shear Modulus (GPa) = 31.95327 41.84436 36.89881
#
# Velocity S-wave (km/s) = 3.56352 4.07793 3.82937
# Velocity P-wave (km/s) = 5.40021 6.57355 6.01556
#
# Compressibility (1/GPa) = 0.03249314
#
# Stress axis : x y z
#
# Youngs Moduli (GPa) = 147.69971 40.95292 149.19117
#
# Poissons Ratio (x) = -0.10375 0.27781
# Poissons Ratio (y) = -0.37417 0.50285
# Poissons Ratio (z) = 0.27503 0.13803
#
# Static dielectric constant tensor:
#      x y z
#    x 2.357250 0.000000 -0.351080 
#    y 0.000000 1.495730 0.000000 
#    z -0.351080 0.000000 2.435390 
# 
# From -- ./inp_files/136323.got.cif
#   From: 2010.05.17/outbox.cif.g08.bks.cpg/sg15_69_cif.got.tgz:136323.got - 2010.06.03 18:47:42.
