data_PCOD9299657
_publ_section_title
;
Structure prediction by ZEFSAII (Michael W. Deem and Ramdas Pophale) SiO2 
 PCOD9299657
Probable space group: C 2/C
;
_chemical_formula_sum "Si O2"
_cell_formula_units_Z 40
_cell_length_a 10.259451
_cell_length_b 17.171816
_cell_length_c 9.896948
_cell_angle_alpha 90.000000
_cell_angle_beta 90.829195
_cell_angle_gamma 90.000000
_cell_volume 1743.396439
_symmetry_space_group_name_H-M "C 2/C"
_symmetry_group_IT_number 15
_symmetry_cell_setting 'monoclinic'
loop_
_space_group_symop_operation_xyz
x,y,z
-x,y,1/2-z
-x,-y,-z
x,-y,1/2+z
1/2+x,1/2+y,z
1/2-x,1/2+y,1/2-z
1/2-x,1/2-y,-z
1/2+x,1/2-y,1/2+z
loop_
_atom_site_type_symbol
_atom_site_label
_atom_site_fract_x
_atom_site_fract_y
_atom_site_fract_z
Si Si1 0.345696 0.062535 0.747224
Si Si2 0.259719 0.075303 0.440860
Si Si3 0.495090 0.649776 0.405039
Si Si4 0.726937 0.158124 0.516100
Si Si5 0.466526 0.797087 0.901580
O O1 0.500000 0.076071 0.750000
O O2 0.297002 0.055309 0.594594
O O3 0.278163 0.132903 0.828582
O O4 0.313430 0.987847 0.837580
O O5 0.105703 0.085515 0.424590
O O6 0.331970 0.156638 0.408123
O O7 0.500000 0.676117 0.250000
O O8 0.350415 0.621241 0.442615
O O9 0.530510 0.722523 0.501609
O O10 0.750000 0.250000 0.500000
O O11 0.584123 0.144988 0.450597
O O12 0.500000 0.773374 0.750000
#
# Coordination Sequence:
#
# PCOD9299657 Si02
#       5
#     8   8   8   8   8
#     4  12  27  49  75 106 146 197 244 307 361 433
#     4  12  28  46  76 104 150 193 251 292 365 434
#     4  11  27  46  73 109 151 189 239 302 370 426
#     4  10  25  44  74 103 146 185 243 300 364 428
#     4  11  24  44  77 108 144 190 248 299 360 437
#
# _framework density 22.943719999999999
#
# number of rings (size 3 to 8) (size 9 to 14) (size 15 to 20)
#    0.000    0.800    2.000    3.000   16.800    0.800 
#    0.000    0.000    0.000    0.000    0.000    0.000 
#    0.000    0.000    0.000    0.000    0.000    0.000 
#
# Total GULP energy -112054.780033 kJ/mol
# GULP energy per Si atom -5602.739002 kJ/mol
# Density = 2.289150 g / cm^3
# Si number density = 22.943720 Si / 1000 Ang^3
#
#
#
# Elastic Constant Matrix: (Units=GPa)
#
#
# Indices 1 2 3 4 5 6 
#
# 1 99.4508 -4.4381 12.6299 0.0000 -31.2092 0.0000
# 2 -4.4381 60.0039 39.8745 0.0000 -9.9777 0.0000
# 3 12.6299 39.8745 211.7360 0.0000 -7.9800 0.0000
# 4 0.0000 0.0000 0.0000 38.2509 0.0000 -7.2897
# 5 -31.2092 -9.9777 -7.9800 0.0000 37.3108 0.0000
# 6 0.0000 0.0000 0.0000 -7.2897 0.0000 28.4589
#
#
#
# Elastic Compliance Matrix: (Units=1/GPa)
#
#
# Indices 1 2 3 4 5 6 
#
# 1 0.014413 0.003950 -0.001118 0.000000 0.012873 0.000000
# 2 0.003950 0.020863 -0.003861 0.000000 0.008058 0.000000
# 3 -0.001118 -0.003861 0.005487 0.000000 -0.000795 0.000000
# 4 0.000000 0.000000 0.000000 0.027485 0.000000 0.007040
# 5 0.012873 0.008058 -0.000795 0.000000 0.039555 0.000000
# 6 0.000000 0.000000 0.000000 0.007040 0.000000 0.036942
#
#
# Mechanical properties :
#
#
# Convention : Reuss Voigt Hill
#
# Bulk Modulus (GPa) = 25.83669 51.92480 38.88074
# Shear Modulus (GPa) = 31.30763 42.34574 36.82669
#
# Velocity S-wave (km/s) = 3.69798 4.30075 4.01070
# Velocity P-wave (km/s) = 5.43311 6.88058 6.19924
#
# Compressibility (1/GPa) = 0.03870465
#
# Stress axis : x y z
#
# Youngs Moduli (GPa) = 69.37973 47.93100 182.25784
#
# Poissons Ratio (x) = -0.18933 0.20384
# Poissons Ratio (y) = -0.27405 0.70369
# Poissons Ratio (z) = 0.07760 0.18506
#
# Static dielectric constant tensor:
#      x y z
#    x 1.874160 0.000000 0.004490 
#    y 0.000000 1.865760 0.000000 
#    z 0.004490 0.000000 1.817670 
# 
# From -- ./inp_files/29090.got.cif
#   From: 2010.05.17/outbox.cif.g08.bks.cpg/sg15_15_cif.got.tgz:29090.got - 2010.06.03 18:47:42.
