data_PCOD9299943
_publ_section_title
;
Structure prediction by ZEFSAII (Michael W. Deem and Ramdas Pophale) SiO2 
 PCOD9299943
Probable space group: C 2/C
;
_chemical_formula_sum "Si O2"
_cell_formula_units_Z 40
_cell_length_a 4.701900
_cell_length_b 18.530850
_cell_length_c 16.722725
_cell_angle_alpha 90.000000
_cell_angle_beta 107.797898
_cell_angle_gamma 90.000000
_cell_volume 1387.320694
_symmetry_space_group_name_H-M "C 2/C"
_symmetry_group_IT_number 15
_symmetry_cell_setting 'monoclinic'
loop_
_space_group_symop_operation_xyz
x,y,z
-x,y,1/2-z
-x,-y,-z
x,-y,1/2+z
1/2+x,1/2+y,z
1/2-x,1/2+y,1/2-z
1/2-x,1/2-y,-z
1/2+x,1/2-y,1/2+z
loop_
_atom_site_type_symbol
_atom_site_label
_atom_site_fract_x
_atom_site_fract_y
_atom_site_fract_z
Si Si1 0.612668 0.064128 0.403771
Si Si2 0.978611 0.180684 0.507652
Si Si3 0.066533 0.656548 0.664682
Si Si4 0.872928 0.183107 0.326698
Si Si5 0.443579 0.521530 0.652743
O O1 0.787903 0.106192 0.487646
O O2 0.631998 0.125763 0.337132
O O3 0.294176 0.035952 0.401342
O O4 0.770724 0.994667 0.377037
O O5 0.750000 0.250000 0.500000
O O6 0.260603 0.169988 0.589369
O O7 0.091043 0.183761 0.424086
O O8 0.292711 0.598829 0.648879
O O9 0.000000 0.634297 0.750000
O O10 0.225912 0.734185 0.682232
O O11 0.000000 0.168359 0.250000
O O12 0.500000 0.499490 0.750000
#
# Coordination Sequence:
#
# PCOD9299943 Si02
#       5
#     8   8   8   8   8
#     4  10  26  47  82 109 158 212 266 338 414 471
#     4  10  25  48  80 121 166 205 279 354 405 494
#     4  11  25  47  78 115 162 219 268 338 429 492
#     4   9  22  45  76 114 151 210 274 332 411 485
#     4  12  26  50  74 118 163 213 272 342 405 499
#
# _framework density 28.832557000000001
#
# number of rings (size 3 to 8) (size 9 to 14) (size 15 to 20)
#    1.200    0.400    0.000    3.000    2.800    4.800 
#    3.600    3.000    0.000    0.000    0.000    0.000 
#    0.000    0.000    0.000    0.000    0.000    0.000 
#
# Total GULP energy -112076.055646 kJ/mol
# GULP energy per Si atom -5603.802782 kJ/mol
# Density = 2.876693 g / cm^3
# Si number density = 28.832557 Si / 1000 Ang^3
#
#
#
# Elastic Constant Matrix: (Units=GPa)
#
#
# Indices 1 2 3 4 5 6 
#
# 1 108.6474 47.2261 46.7609 0.0000 26.3830 0.0000
# 2 47.2261 190.2803 18.1402 0.0000 -11.5587 0.0000
# 3 46.7609 18.1402 219.0653 0.0000 8.6477 0.0000
# 4 0.0000 0.0000 0.0000 40.4671 0.0000 -6.6013
# 5 26.3830 -11.5587 8.6477 0.0000 64.1055 0.0000
# 6 0.0000 0.0000 0.0000 -6.6013 0.0000 14.6085
#
#
#
# Elastic Compliance Matrix: (Units=1/GPa)
#
#
# Indices 1 2 3 4 5 6 
#
# 1 0.013017 -0.003357 -0.002277 0.000000 -0.005655 0.000000
# 2 -0.003357 0.006230 0.000102 0.000000 0.002491 0.000000
# 3 -0.002277 0.000102 0.005032 0.000000 0.000277 0.000000
# 4 0.000000 0.000000 0.000000 0.026678 0.000000 0.012055
# 5 -0.005655 0.002491 0.000277 0.000000 0.018339 0.000000
# 6 0.000000 0.000000 0.000000 0.012055 0.000000 0.073901
#
#
# Mechanical properties :
#
#
# Convention : Reuss Voigt Hill
#
# Bulk Modulus (GPa) = 75.67490 82.47193 79.07341
# Shear Modulus (GPa) = 31.51308 50.89395 41.20352
#
# Velocity S-wave (km/s) = 3.30959 4.20593 3.78439
# Velocity P-wave (km/s) = 6.39593 7.22858 6.82496
#
# Compressibility (1/GPa) = 0.01321442
#
# Stress axis : x y z
#
# Youngs Moduli (GPa) = 76.82444 160.50918 198.74635
#
# Poissons Ratio (x) = 0.53884 0.45260
# Poissons Ratio (y) = 0.25791 -0.02034
# Poissons Ratio (z) = 0.17495 -0.01643
#
# Static dielectric constant tensor:
#      x y z
#    x 2.194220 0.000000 0.063960 
#    y 0.000000 2.255190 0.000000 
#    z 0.063960 0.000000 2.370410 
# 
# From -- ./inp_files/184692.got.cif
#   From: 2010.05.17/outbox.cif.g08.bks.cpg/sg15_93_cif.got.tgz:184692.got - 2010.06.03 18:47:42.
