data_PCOD9299118
_publ_section_title
;
Structure prediction by ZEFSAII (Michael W. Deem and Ramdas Pophale) SiO2 
 PCOD9299118
Probable space group: C 2/C
;
_chemical_formula_sum "Si O2"
_cell_formula_units_Z 36
_cell_length_a 8.066471
_cell_length_b 22.794237
_cell_length_c 9.493296
_cell_angle_alpha 90.000000
_cell_angle_beta 90.912444
_cell_angle_gamma 90.000000
_cell_volume 1745.301996
_symmetry_space_group_name_H-M "C 2/C"
_symmetry_group_IT_number 15
_symmetry_cell_setting 'monoclinic'
loop_
_space_group_symop_operation_xyz
x,y,z
-x,y,1/2-z
-x,-y,-z
x,-y,1/2+z
1/2+x,1/2+y,z
1/2-x,1/2+y,1/2-z
1/2-x,1/2-y,-z
1/2+x,1/2-y,1/2+z
loop_
_atom_site_type_symbol
_atom_site_label
_atom_site_fract_x
_atom_site_fract_y
_atom_site_fract_z
Si Si1 0.359549 0.541099 0.435042
Si Si2 0.171899 0.323782 0.339055
Si Si3 0.693951 0.049654 0.727111
Si Si4 0.000000 0.859628 0.750000
Si Si5 0.159927 0.703831 0.164186
O O1 0.500000 0.500000 0.500000
O O2 0.234478 0.552454 0.562131
O O3 0.281479 0.505018 0.304239
O O4 0.443912 0.599435 0.378158
O O5 0.239039 0.388320 0.301207
O O6 0.130163 0.314734 0.502673
O O7 0.306801 0.273148 0.313673
O O8 0.000000 0.315752 0.250000
O O9 0.500000 0.042293 0.750000
O O10 0.163776 0.823646 0.790255
O O11 0.000000 0.684638 0.250000
#
# Coordination Sequence:
#
# PCOD9299118 Si02
#       5
#     8   8   8   4   8
#     4  12  24  45  67 100 143 185 228 288 354 410
#     4  10  24  47  67 106 141 181 243 289 352 417
#     4  11  25  43  71 102 137 185 235 288 345 423
#     4  12  26  44  72 110 146 178 244 290 348 430
#     4  11  26  45  74 103 143 191 233 294 352 419
#
# _framework density 20.626804
#
# number of rings (size 3 to 8) (size 9 to 14) (size 15 to 20)
#    0.000    0.889    3.333    2.000    6.222    7.111 
#    0.000    0.000    0.000    0.000    0.000    0.000 
#    0.000    0.000    0.000    0.000    0.000    0.000 
#
# Total GULP energy -100630.813566 kJ/mol
# GULP energy per Si atom -5590.600754 kJ/mol
# Density = 2.057986 g / cm^3
# Si number density = 20.626804 Si / 1000 Ang^3
#
#
#
# Elastic Constant Matrix: (Units=GPa)
#
#
# Indices 1 2 3 4 5 6 
#
# 1 121.5134 30.6070 64.3283 0.0000 -19.4592 0.0000
# 2 30.6070 79.1019 16.2680 0.0000 -4.9511 0.0000
# 3 64.3283 16.2680 95.4477 0.0000 -11.8407 0.0000
# 4 0.0000 0.0000 0.0000 35.9121 0.0000 -13.0834
# 5 -19.4592 -4.9511 -11.8407 0.0000 39.2462 0.0000
# 6 0.0000 0.0000 0.0000 -13.0834 0.0000 23.0463
#
#
#
# Elastic Compliance Matrix: (Units=1/GPa)
#
#
# Indices 1 2 3 4 5 6 
#
# 1 0.014276 -0.003518 -0.008517 0.000000 0.004065 0.000000
# 2 -0.003518 0.014007 -0.000014 0.000000 0.000019 0.000000
# 3 -0.008517 -0.000014 0.016306 0.000000 0.000695 0.000000
# 4 0.000000 0.000000 0.000000 0.035107 0.000000 0.019930
# 5 0.004065 0.000019 0.000695 0.000000 0.027707 0.000000
# 6 0.000000 0.000000 0.000000 0.019930 0.000000 0.054705
#
#
# Mechanical properties :
#
#
# Convention : Reuss Voigt Hill
#
# Bulk Modulus (GPa) = 48.80434 57.60772 53.20603
# Shear Modulus (GPa) = 25.90183 31.96490 28.93337
#
# Velocity S-wave (km/s) = 3.54748 3.94087 3.74934
# Velocity P-wave (km/s) = 6.36329 6.97828 6.67787
#
# Compressibility (1/GPa) = 0.02048998
#
# Stress axis : x y z
#
# Youngs Moduli (GPa) = 70.04996 71.39244 61.32717
#
# Poissons Ratio (x) = 0.25113 0.52235
# Poissons Ratio (y) = 0.24640 0.00088
# Poissons Ratio (z) = 0.59664 0.00102
#
# Static dielectric constant tensor:
#      x y z
#    x 1.729670 0.000000 0.007120 
#    y 0.000000 1.769450 0.000000 
#    z 0.007120 0.000000 1.734400 
# 
# From -- ./inp_files/22519.got.cif
#   From: 2010.05.17/outbox.cif.g08.bks.cpg/sg15_12_cif.got.tgz:22519.got - 2010.06.03 18:47:42.
