data_PCOD9299597
_publ_section_title
;
Structure prediction by ZEFSAII (Michael W. Deem and Ramdas Pophale) SiO2 
 PCOD9299597
Probable space group: C 2/C
;
_chemical_formula_sum "Si O2"
_cell_formula_units_Z 44
_cell_length_a 25.898555
_cell_length_b 10.465774
_cell_length_c 9.035810
_cell_angle_alpha 90.000000
_cell_angle_beta 124.877878
_cell_angle_gamma 90.000000
_cell_volume 2009.209333
_symmetry_space_group_name_H-M "C 2/C"
_symmetry_group_IT_number 15
_symmetry_cell_setting 'monoclinic'
loop_
_space_group_symop_operation_xyz
x,y,z
-x,y,1/2-z
-x,-y,-z
x,-y,1/2+z
1/2+x,1/2+y,z
1/2-x,1/2+y,1/2-z
1/2-x,1/2-y,-z
1/2+x,1/2-y,1/2+z
loop_
_atom_site_type_symbol
_atom_site_label
_atom_site_fract_x
_atom_site_fract_y
_atom_site_fract_z
Si Si1 0.538805 0.674352 0.070721
Si Si2 0.963647 0.391079 0.846966
Si Si3 0.186212 0.428490 0.904497
Si Si4 0.500000 0.521671 0.750000
Si Si5 0.668294 0.772787 0.354660
Si Si6 0.241412 0.755386 0.246607
O O1 0.534176 0.566987 0.187213
O O2 0.595083 0.767061 0.203933
O O3 0.476046 0.758411 0.953732
O O4 0.546305 0.608288 0.923542
O O5 0.889115 0.407052 0.702396
O O6 0.000000 0.384971 0.750000
O O7 0.000000 0.500000 0.000000
O O8 0.191263 0.580702 0.899690
O O9 0.212485 0.352695 0.804940
O O10 0.226863 0.366965 0.104168
O O11 0.703377 0.709274 0.273343
O O12 0.687283 0.707401 0.540187
#
# Coordination Sequence:
#
# PCOD9299597 Si02
#       6
#     8   8   8   4   8   8
#     4  11  24  48  72 103 142 189 238 301 372 436
#     4  12  26  42  78 115 143 183 236 316 376 426
#     4  11  24  45  73 105 147 180 247 300 355 436
#     4  10  26  48  66 104 146 182 236 284 372 458
#     4  11  23  47  71 100 144 182 247 291 354 430
#     4  10  25  44  65 104 143 193 226 297 357 419
#
# _framework density 21.899159999999998
#
# number of rings (size 3 to 8) (size 9 to 14) (size 15 to 20)
#    0.000    1.091    2.727    2.182    6.364    0.000 
#   13.091    0.000    0.000    0.000    0.000    0.000 
#    0.000    0.000    0.000    0.000    0.000    0.000 
#
# Total GULP energy -122890.827805 kJ/mol
# GULP energy per Si atom -5585.946718 kJ/mol
# Density = 2.184932 g / cm^3
# Si number density = 21.899160 Si / 1000 Ang^3
#
#
#
# Elastic Constant Matrix: (Units=GPa)
#
#
# Indices 1 2 3 4 5 6 
#
# 1 85.3373 38.4520 68.1512 0.0000 4.4704 0.0000
# 2 38.4520 109.8026 61.2680 0.0000 3.4743 0.0000
# 3 68.1512 61.2680 132.8501 0.0000 -18.9875 0.0000
# 4 0.0000 0.0000 0.0000 26.0333 0.0000 9.8035
# 5 4.4704 3.4743 -18.9875 0.0000 39.2957 0.0000
# 6 0.0000 0.0000 0.0000 9.8035 0.0000 26.0418
#
#
#
# Elastic Compliance Matrix: (Units=1/GPa)
#
#
# Indices 1 2 3 4 5 6 
#
# 1 0.022327 -0.000655 -0.012360 0.000000 -0.008454 0.000000
# 2 -0.000655 0.012929 -0.006209 0.000000 -0.004069 0.000000
# 3 -0.012360 -0.006209 0.018272 0.000000 0.010784 0.000000
# 4 0.000000 0.000000 0.000000 0.044757 0.000000 -0.016849
# 5 -0.008454 -0.004069 0.010784 0.000000 0.031980 0.000000
# 6 0.000000 0.000000 0.000000 -0.016849 0.000000 0.044743
#
#
# Mechanical properties :
#
#
# Convention : Reuss Voigt Hill
#
# Bulk Modulus (GPa) = 66.30156 73.74805 70.02481
# Shear Modulus (GPa) = 22.88509 28.94874 25.91692
#
# Velocity S-wave (km/s) = 3.23619 3.63975 3.44389
# Velocity P-wave (km/s) = 6.65623 7.17029 6.91804
#
# Compressibility (1/GPa) = 0.01508260
#
# Stress axis : x y z
#
# Youngs Moduli (GPa) = 44.78922 77.34269 54.72718
#
# Poissons Ratio (x) = 0.05062 0.67643
# Poissons Ratio (y) = 0.02932 0.33978
# Poissons Ratio (z) = 0.55359 0.48019
#
# Static dielectric constant tensor:
#      x y z
#    x 1.777490 0.000000 -0.021640 
#    y 0.000000 1.830940 0.000000 
#    z -0.021640 0.000000 1.825640 
# 
# From -- ./inp_files/65642.got.cif
#   From: 2010.05.17/outbox.cif.g08.bks.cpg/sg15_33_cif.got.tgz:65642.got - 2010.06.03 18:47:42.
