data_PCOD9299186
_publ_section_title
;
Structure prediction by ZEFSAII (Michael W. Deem and Ramdas Pophale) SiO2 
 PCOD9299186
Probable space group: C 2/C
;
_chemical_formula_sum "Si O2"
_cell_formula_units_Z 64
_cell_length_a 12.039654
_cell_length_b 15.853172
_cell_length_c 13.657909
_cell_angle_alpha 90.000000
_cell_angle_beta 109.647880
_cell_angle_gamma 90.000000
_cell_volume 2455.061523
_symmetry_space_group_name_H-M "C 2/C"
_symmetry_group_IT_number 15
_symmetry_cell_setting 'monoclinic'
loop_
_space_group_symop_operation_xyz
x,y,z
-x,y,1/2-z
-x,-y,-z
x,-y,1/2+z
1/2+x,1/2+y,z
1/2-x,1/2+y,1/2-z
1/2-x,1/2-y,-z
1/2+x,1/2-y,1/2+z
loop_
_atom_site_type_symbol
_atom_site_label
_atom_site_fract_x
_atom_site_fract_y
_atom_site_fract_z
Si Si1 0.652908 0.404817 0.807282
Si Si2 0.776624 0.883367 0.452333
Si Si3 0.085116 0.240423 0.648571
Si Si4 0.475633 0.148313 0.532150
Si Si5 0.107173 0.037962 0.092501
Si Si6 0.816977 0.443250 0.346076
Si Si7 0.666521 0.669382 0.953740
Si Si8 0.173749 0.269247 0.209952
O O1 0.576296 0.447613 0.696828
O O2 0.769345 0.463321 0.819293
O O3 0.646179 0.306427 0.774817
O O4 0.656418 0.401394 0.924774
O O5 0.845003 0.809251 0.416591
O O6 0.645708 0.857590 0.445666
O O7 0.677893 0.869928 0.236573
O O8 0.791749 0.969492 0.396547
O O9 0.047788 0.327539 0.586875
O O10 0.184598 0.248620 0.762205
O O11 0.963786 0.190246 0.626601
O O12 0.552725 0.065352 0.572740
O O13 0.148613 0.122612 0.052175
O O14 0.000000 0.000000 0.000000
O O15 0.731182 0.396990 0.400591
O O16 0.750000 0.750000 0.000000
O O17 0.565045 0.779219 0.101379
#
# Coordination Sequence:
#
# PCOD9299186 Si02
#       8
#     8   8   8   8   8   8   8   8
#     4  12  25  50  76 111 157 207 273 317 414 475
#     4  12  26  47  79 111 154 210 259 345 398 474
#     4  12  23  46  74 111 154 201 269 322 403 480
#     4  10  24  48  73 110 157 199 261 335 400 479
#     4  12  27  49  72 112 161 204 274 333 391 490
#     4  10  24  47  74 111 148 203 263 325 395 484
#     4  12  23  47  78 105 158 212 252 334 403 475
#     4  10  25  48  75 113 154 209 259 327 405 485
#
# _framework density 26.068593
#
# number of rings (size 3 to 8) (size 9 to 14) (size 15 to 20)
#    0.750    0.000    5.000    2.625    0.000    2.000 
#    2.250    0.000    0.000    0.000    0.000    0.000 
#    0.000    0.000    0.000    0.000    0.000    0.000 
#
# Total GULP energy -178517.491674 kJ/mol
# GULP energy per Si atom -5578.671615 kJ/mol
# Density = 2.600926 g / cm^3
# Si number density = 26.068593 Si / 1000 Ang^3
#
#
#
# Elastic Constant Matrix: (Units=GPa)
#
#
# Indices 1 2 3 4 5 6 
#
# 1 142.9443 1.5225 56.6602 0.0000 28.3474 0.0000
# 2 1.5225 106.7226 45.3309 0.0000 23.6611 0.0000
# 3 56.6602 45.3309 140.3888 0.0000 18.9359 0.0000
# 4 0.0000 0.0000 0.0000 52.1213 0.0000 14.3338
# 5 28.3474 23.6611 18.9359 0.0000 54.3922 0.0000
# 6 0.0000 0.0000 0.0000 14.3338 0.0000 16.8325
#
#
#
# Elastic Compliance Matrix: (Units=1/GPa)
#
#
# Indices 1 2 3 4 5 6 
#
# 1 0.009502 0.002623 -0.004050 0.000000 -0.004683 0.000000
# 2 0.002623 0.012332 -0.004336 0.000000 -0.005222 0.000000
# 3 -0.004050 -0.004336 0.010093 0.000000 0.000484 0.000000
# 4 0.000000 0.000000 0.000000 0.025053 0.000000 -0.021334
# 5 -0.004683 -0.005222 0.000484 0.000000 0.022929 0.000000
# 6 0.000000 0.000000 0.000000 -0.021334 0.000000 0.077576
#
#
# Mechanical properties :
#
#
# Convention : Reuss Voigt Hill
#
# Bulk Modulus (GPa) = 49.01979 66.34254 57.68116
# Shear Modulus (GPa) = 28.43948 43.77202 36.10575
#
# Velocity S-wave (km/s) = 3.30653 4.10214 3.72563
# Velocity P-wave (km/s) = 5.78122 6.92396 6.37823
#
# Compressibility (1/GPa) = 0.02039993
#
# Stress axis : x y z
#
# Youngs Moduli (GPa) = 105.24173 81.08778 99.08158
#
# Poissons Ratio (x) = -0.21270 0.40130
# Poissons Ratio (y) = -0.27606 0.42965
# Poissons Ratio (z) = 0.42625 0.35162
#
# Static dielectric constant tensor:
#      x y z
#    x 2.151570 0.000000 -0.023360 
#    y 0.000000 2.044680 0.000000 
#    z -0.023360 0.000000 2.304370 
# 
# From -- ./inp_files/155209.got.cif
#   From: 2010.05.17/outbox.cif.g08.bks.cpg/sg15_78_cif.got.tgz:155209.got - 2010.06.03 18:47:42.
