data_PCOD9299767
_publ_section_title
;
Structure prediction by ZEFSAII (Michael W. Deem and Ramdas Pophale) SiO2 
 PCOD9299767
Probable space group: C 2/C
;
_chemical_formula_sum "Si O2"
_cell_formula_units_Z 36
_cell_length_a 21.024741
_cell_length_b 5.354227
_cell_length_c 20.937950
_cell_angle_alpha 90.000000
_cell_angle_beta 137.168370
_cell_angle_gamma 90.000000
_cell_volume 1602.405039
_symmetry_space_group_name_H-M "C 2/C"
_symmetry_group_IT_number 15
_symmetry_cell_setting 'monoclinic'
loop_
_space_group_symop_operation_xyz
x,y,z
-x,y,1/2-z
-x,-y,-z
x,-y,1/2+z
1/2+x,1/2+y,z
1/2-x,1/2+y,1/2-z
1/2-x,1/2-y,-z
1/2+x,1/2-y,1/2+z
loop_
_atom_site_type_symbol
_atom_site_label
_atom_site_fract_x
_atom_site_fract_y
_atom_site_fract_z
Si Si1 0.245088 0.629513 0.712783
Si Si2 0.949478 0.753240 0.985121
Si Si3 0.684117 0.462338 0.370920
Si Si4 0.500000 0.207563 0.750000
Si Si5 0.382548 0.912455 0.568910
O O1 0.221605 0.340762 0.712812
O O2 0.148432 0.754614 0.622313
O O3 0.307374 0.630174 0.695180
O O4 0.925508 0.745610 0.042577
O O5 0.000000 0.500000 0.000000
O O6 0.000000 0.000000 0.000000
O O7 0.596548 0.647439 0.307756
O O8 0.656375 0.249220 0.400892
O O9 0.789526 0.549664 0.470607
O O10 0.468409 0.061890 0.663098
#
# Coordination Sequence:
#
# PCOD9299767 Si02
#       5
#     8   8   8   4   8
#     4  11  26  46  72 104 144 187 237 297 362 429
#     4  11  26  46  72 104 145 187 236 295 361 432
#     4  10  25  46  69 100 146 187 237 303 363 427
#     4  12  24  40  76 102 136 186 250 294 356 440
#     4  10  25  46  69 104 143 189 238 303 363 427
#
# _framework density 22.466231000000001
#
# number of rings (size 3 to 8) (size 9 to 14) (size 15 to 20)
#    0.000    1.333    0.000    2.667    9.333    3.556 
#    0.000    0.000    0.000    0.000    0.000    0.000 
#    0.000    0.000    0.000    0.000    0.000    0.000 
#
# Total GULP energy -100459.121658 kJ/mol
# GULP energy per Si atom -5581.062314 kJ/mol
# Density = 2.241510 g / cm^3
# Si number density = 22.466231 Si / 1000 Ang^3
#
#
#
# Elastic Constant Matrix: (Units=GPa)
#
#
# Indices 1 2 3 4 5 6 
#
# 1 94.4579 21.4423 20.8057 0.0074 -6.4473 -0.0003
# 2 21.4423 80.5479 28.8995 0.0141 7.6558 0.0074
# 3 20.8057 28.8995 114.9949 -0.0017 16.1731 -0.0006
# 4 0.0074 0.0141 -0.0017 72.2475 -0.0009 29.4589
# 5 -6.4473 7.6558 16.1731 -0.0009 27.9809 0.0029
# 6 -0.0003 0.0074 -0.0006 29.4589 0.0029 7.2336
#
#
#
# Elastic Compliance Matrix: (Units=1/GPa)
#
#
# Indices 1 2 3 4 5 6 
#
# 1 0.012040 -0.002899 -0.002124 0.000002 0.004795 -0.000006
# 2 -0.002899 0.014437 -0.002671 -0.000005 -0.003074 0.000005
# 3 -0.002124 -0.002671 0.010578 0.000002 -0.005872 -0.000003
# 4 0.000002 -0.000005 0.000002 -0.020954 -0.000009 0.085335
# 5 0.004795 -0.003074 -0.005872 -0.000009 0.041079 0.000024
# 6 -0.000006 0.000005 -0.000003 0.085335 0.000024 -0.209284
#
#
# Mechanical properties :
#
#
# Convention : Reuss Voigt Hill
#
# Bulk Modulus (GPa) = 46.15531 48.03286 47.09408
# Shear Modulus (GPa) = -38.61213 36.08262 -1.26476
#
# Velocity S-wave (km/s) = -4.15019 4.01194 -0.75112
# Velocity P-wave (km/s) = 1.54159 6.54884 4.50060
#
# Compressibility (1/GPa) = 0.02166598
#
# Stress axis : x y z
#
# Youngs Moduli (GPa) = 83.05682 69.26511 94.53881
#
# Poissons Ratio (x) = 0.20078 0.20083
# Poissons Ratio (y) = 0.24076 0.25256
# Poissons Ratio (z) = 0.17644 0.18504
#
# Static dielectric constant tensor:
#      x y z
#    x 1.578190 0.000050 0.085460 
#    y 0.000050 1.841560 -0.000010 
#    z 0.085460 -0.000010 1.855930 
# 
# From -- ./inp_files/165109.got.cif
#   From: 2010.05.17/outbox.cif.g08.bks.cpg/sg15_83_cif.got.tgz:165109.got - 2010.06.03 18:47:42.
