data_PCOD9299889
_publ_section_title
;
Structure prediction by ZEFSAII (Michael W. Deem and Ramdas Pophale) SiO2 
 PCOD9299889
Probable space group: C 2/C
;
_chemical_formula_sum "Si O2"
_cell_formula_units_Z 32
_cell_length_a 11.941252
_cell_length_b 9.659279
_cell_length_c 11.384051
_cell_angle_alpha 90.000000
_cell_angle_beta 109.289268
_cell_angle_gamma 90.000000
_cell_volume 1239.368051
_symmetry_space_group_name_H-M "C 2/C"
_symmetry_group_IT_number 15
_symmetry_cell_setting 'monoclinic'
loop_
_space_group_symop_operation_xyz
x,y,z
-x,y,1/2-z
-x,-y,-z
x,-y,1/2+z
1/2+x,1/2+y,z
1/2-x,1/2+y,1/2-z
1/2-x,1/2-y,-z
1/2+x,1/2-y,1/2+z
loop_
_atom_site_type_symbol
_atom_site_label
_atom_site_fract_x
_atom_site_fract_y
_atom_site_fract_z
Si Si1 0.772623 0.009286 0.193538
Si Si2 0.117128 0.730032 0.647913
Si Si3 0.554385 0.677994 0.888149
Si Si4 0.125258 0.722866 0.014377
O O1 0.843895 0.119795 0.294675
O O2 0.657658 0.089636 0.102646
O O3 0.711006 0.877137 0.230777
O O4 0.865829 0.948480 0.129801
O O5 0.126054 0.729555 0.506923
O O6 0.978632 0.697963 0.615796
O O7 0.500000 0.742381 0.750000
O O8 0.562853 0.657590 0.571695
O O9 0.250000 0.750000 0.000000
#
# Coordination Sequence:
#
# PCOD9299889 Si02
#       4
#     8   8   8   8
#     4  12  24  50  82 118 164 215 281 347 414 494
#     4  10  27  49  83 119 160 217 278 342 418 491
#     4  10  25  47  80 114 163 212 272 340 408 484
#     4  10  26  48  77 119 162 220 274 336 414 507
#
# _framework density 25.819610000000001
#
# number of rings (size 3 to 8) (size 9 to 14) (size 15 to 20)
#    1.500    0.000    0.000    3.000    3.500    6.000 
#    0.000    0.000    0.000    0.000    0.000    0.000 
#    0.000    0.000    0.000    0.000    0.000    0.000 
#
# Total GULP energy -89275.584332 kJ/mol
# GULP energy per Si atom -5579.724021 kJ/mol
# Density = 2.576084 g / cm^3
# Si number density = 25.819610 Si / 1000 Ang^3
#
#
#
# Elastic Constant Matrix: (Units=GPa)
#
#
# Indices 1 2 3 4 5 6 
#
# 1 234.5287 69.4304 46.9979 0.0000 27.9400 0.0000
# 2 69.4304 111.7265 13.6946 0.0000 9.3656 0.0000
# 3 46.9979 13.6946 107.4937 0.0000 22.6646 0.0000
# 4 0.0000 0.0000 0.0000 35.4388 0.0000 5.9987
# 5 27.9400 9.3656 22.6646 0.0000 54.6421 0.0000
# 6 0.0000 0.0000 0.0000 5.9987 0.0000 39.6348
#
#
#
# Elastic Compliance Matrix: (Units=1/GPa)
#
#
# Indices 1 2 3 4 5 6 
#
# 1 0.005772 -0.003231 -0.001760 0.000000 -0.001667 0.000000
# 2 -0.003231 0.010972 0.000069 0.000000 -0.000257 0.000000
# 3 -0.001760 0.000069 0.010823 0.000000 -0.003601 0.000000
# 4 0.000000 0.000000 0.000000 0.028960 0.000000 -0.004383
# 5 -0.001667 -0.000257 -0.003601 0.000000 0.020691 0.000000
# 6 0.000000 0.000000 0.000000 -0.004383 0.000000 0.025894
#
#
# Mechanical properties :
#
#
# Convention : Reuss Voigt Hill
#
# Bulk Modulus (GPa) = 56.42884 79.33275 67.88080
# Shear Modulus (GPa) = 42.06534 47.51821 44.79178
#
# Velocity S-wave (km/s) = 4.04072 4.29463 4.16961
# Velocity P-wave (km/s) = 6.60850 7.44206 7.03764
#
# Compressibility (1/GPa) = 0.01772143
#
# Stress axis : x y z
#
# Youngs Moduli (GPa) = 173.25451 91.14520 92.39635
#
# Poissons Ratio (x) = 0.29452 0.16265
# Poissons Ratio (y) = 0.55983 -0.00639
# Poissons Ratio (z) = 0.30499 -0.00631
#
# Static dielectric constant tensor:
#      x y z
#    x 2.066260 0.000000 -0.025230 
#    y 0.000000 2.079950 0.000000 
#    z -0.025230 0.000000 2.234770 
# 
# From -- ./inp_files/94168.got.cif
#   From: 2010.05.17/outbox.cif.g08.bks.cpg/sg15_48_cif.got.tgz:94168.got - 2010.06.03 18:47:42.
