data_PCOD9299784
_publ_section_title
;
Structure prediction by ZEFSAII (Michael W. Deem and Ramdas Pophale) SiO2 
 PCOD9299784
Probable space group: C 2/C
;
_chemical_formula_sum "Si O2"
_cell_formula_units_Z 40
_cell_length_a 5.021680
_cell_length_b 26.121801
_cell_length_c 12.074788
_cell_angle_alpha 90.000000
_cell_angle_beta 81.112657
_cell_angle_gamma 90.000000
_cell_volume 1564.897802
_symmetry_space_group_name_H-M "C 2/C"
_symmetry_group_IT_number 15
_symmetry_cell_setting 'monoclinic'
loop_
_space_group_symop_operation_xyz
x,y,z
-x,y,1/2-z
-x,-y,-z
x,-y,1/2+z
1/2+x,1/2+y,z
1/2-x,1/2+y,1/2-z
1/2-x,1/2-y,-z
1/2+x,1/2-y,1/2+z
loop_
_atom_site_type_symbol
_atom_site_label
_atom_site_fract_x
_atom_site_fract_y
_atom_site_fract_z
Si Si1 0.712155 0.512094 0.824065
Si Si2 0.500000 0.415605 0.750000
Si Si3 0.373074 0.836778 0.602625
Si Si4 0.347479 0.730286 0.113224
Si Si5 0.181890 0.383164 0.126067
Si Si6 0.000000 0.188387 0.750000
O O1 0.500000 0.535718 0.750000
O O2 0.602728 0.454624 0.840272
O O3 0.746540 0.557879 0.908038
O O4 0.000000 0.504761 0.750000
O O5 0.726100 0.381402 0.679003
O O6 0.648037 0.817820 0.639476
O O7 0.434480 0.856704 0.474893
O O8 0.150388 0.790658 0.605414
O O9 0.246819 0.774639 0.201701
O O10 0.250000 0.750000 0.000000
O O11 0.426318 0.347532 0.151337
O O12 0.000000 0.385115 0.250000
#
# Coordination Sequence:
#
# PCOD9299784 Si02
#       6
#     8   4   8   8   8   4
#     4   9  21  41  66  97 133 165 224 265 334 393
#     4  10  25  46  70  98 140 174 217 282 324 406
#     4  12  27  44  70  98 137 174 229 265 342 384
#     4  12  26  44  63 101 131 178 222 274 320 401
#     4  11  24  43  68 100 129 180 218 281 324 408
#     4  12  23  40  70  88 144 168 225 274 332 386
#
# _framework density 25.560776000000001
#
# number of rings (size 3 to 8) (size 9 to 14) (size 15 to 20)
#    0.600    0.400    3.000    3.000    5.600    0.800 
#    0.000    4.000    0.000    0.000    0.000    0.000 
#    0.000    0.000    0.000    0.000    0.000    0.000 
#
# Total GULP energy -111854.210109 kJ/mol
# GULP energy per Si atom -5592.710505 kJ/mol
# Density = 2.550260 g / cm^3
# Si number density = 25.560776 Si / 1000 Ang^3
#
#
#
# Elastic Constant Matrix: (Units=GPa)
#
#
# Indices 1 2 3 4 5 6 
#
# 1 116.7796 25.8642 12.3682 0.0000 -3.8589 0.0000
# 2 25.8642 154.9964 37.4621 0.0000 -9.1592 0.0000
# 3 12.3682 37.4621 89.6668 0.0000 -16.3397 0.0000
# 4 0.0000 0.0000 0.0000 10.9592 0.0000 -7.1881
# 5 -3.8589 -9.1592 -16.3397 0.0000 31.1144 0.0000
# 6 0.0000 0.0000 0.0000 -7.1881 0.0000 37.1479
#
#
#
# Elastic Compliance Matrix: (Units=1/GPa)
#
#
# Indices 1 2 3 4 5 6 
#
# 1 0.008933 -0.001320 -0.000608 0.000000 0.000400 0.000000
# 2 -0.001320 0.007381 -0.002804 0.000000 0.000537 0.000000
# 3 -0.000608 -0.002804 0.013539 0.000000 0.006209 0.000000
# 4 0.000000 0.000000 0.000000 0.104512 0.000000 0.020223
# 5 0.000400 0.000537 0.006209 0.000000 0.035608 0.000000
# 6 0.000000 0.000000 0.000000 0.020223 0.000000 0.030833
#
#
# Mechanical properties :
#
#
# Convention : Reuss Voigt Hill
#
# Bulk Modulus (GPa) = 49.04358 56.98132 53.01245
# Shear Modulus (GPa) = 23.03439 34.89419 28.96429
#
# Velocity S-wave (km/s) = 3.00519 3.69880 3.36989
# Velocity P-wave (km/s) = 5.59198 6.37043 5.99386
#
# Compressibility (1/GPa) = 0.02039003
#
# Stress axis : x y z
#
# Youngs Moduli (GPa) = 111.94315 135.47398 73.85937
#
# Poissons Ratio (x) = 0.17884 0.04489
# Poissons Ratio (y) = 0.14778 0.20711
# Poissons Ratio (z) = 0.06803 0.37988
#
# Static dielectric constant tensor:
#      x y z
#    x 1.964220 0.000000 -0.052450 
#    y 0.000000 2.072050 0.000000 
#    z -0.052450 0.000000 2.077420 
# 
# From -- ./inp_files/73660.got.cif
#   From: 2010.05.17/outbox.cif.g08.bks.cpg/sg15_37_cif.got.tgz:73660.got - 2010.06.03 18:47:42.
