data_PCOD9299081
_publ_section_title
;
Structure prediction by ZEFSAII (Michael W. Deem and Ramdas Pophale) SiO2 
 PCOD9299081
Probable space group: C 2/C
;
_chemical_formula_sum "Si O2"
_cell_formula_units_Z 48
_cell_length_a 17.368186
_cell_length_b 26.530717
_cell_length_c 9.304370
_cell_angle_alpha 90.000000
_cell_angle_beta 149.744377
_cell_angle_gamma 90.000000
_cell_volume 2160.226189
_symmetry_space_group_name_H-M "C 2/C"
_symmetry_group_IT_number 15
_symmetry_cell_setting 'monoclinic'
loop_
_space_group_symop_operation_xyz
x,y,z
-x,y,1/2-z
-x,-y,-z
x,-y,1/2+z
1/2+x,1/2+y,z
1/2-x,1/2+y,1/2-z
1/2-x,1/2-y,-z
1/2+x,1/2-y,1/2+z
loop_
_atom_site_type_symbol
_atom_site_label
_atom_site_fract_x
_atom_site_fract_y
_atom_site_fract_z
Si Si1 0.307195 0.616849 0.663505
Si Si2 0.880807 0.010009 0.684610
Si Si3 0.000000 0.817572 0.250000
Si Si4 0.500000 0.639727 0.250000
Si Si5 0.000000 0.369037 0.250000
Si Si6 0.295406 0.300574 0.655338
Si Si7 0.500000 0.883675 0.750000
Si Si8 0.090104 0.447858 0.157436
O O1 0.288000 0.560696 0.570298
O O2 0.401018 0.647094 0.695608
O O3 0.143693 0.644555 0.415479
O O4 0.396227 0.613432 0.959702
O O5 0.000000 0.018766 0.750000
O O6 0.761621 0.964318 0.476196
O O7 0.000000 0.000000 0.000000
O O8 0.105780 0.789954 0.540004
O O9 0.611335 0.670092 0.320215
O O10 0.989958 0.408355 0.365354
O O11 0.149734 0.333926 0.472208
O O12 0.250000 0.250000 0.500000
O O13 0.416877 0.919897 0.503983
O O14 0.000000 0.500000 0.000000
#
# Coordination Sequence:
#
# PCOD9299081 Si02
#       8
#     8   8   4   4   4   8   4   8
#     4  11  23  43  65 102 137 196 238 302 358 438
#     4  12  28  41  65  95 145 195 257 292 355 422
#     4  10  24  46  78 103 149 180 245 307 382 456
#     4  10  25  44  75 103 144 178 248 301 376 444
#     4  12  28  48  78 107 155 204 250 315 381 440
#     4  11  25  51  80 112 143 193 250 320 394 456
#     4  12  23  40  63  93 142 186 251 293 359 416
#     4  12  27  44  65 103 151 203 248 306 358 452
#
# _framework density 22.219897
#
# number of rings (size 3 to 8) (size 9 to 14) (size 15 to 20)
#    0.000    0.667    2.500    4.000   10.500    0.000 
#    0.000   10.833    0.000    0.000    0.000    0.000 
#    0.000    0.000    0.000    0.000    0.000    0.000 
#
# Total GULP energy -134012.820344 kJ/mol
# GULP energy per Si atom -5583.867514 kJ/mol
# Density = 2.216932 g / cm^3
# Si number density = 22.219897 Si / 1000 Ang^3
#
#
#
# Elastic Constant Matrix: (Units=GPa)
#
#
# Indices 1 2 3 4 5 6 
#
# 1 171.8630 44.9830 79.1877 0.0000 4.0683 0.0000
# 2 44.9830 89.8364 52.2612 0.0000 -2.1551 0.0000
# 3 79.1877 52.2612 158.0625 0.0000 -8.7071 0.0000
# 4 0.0000 0.0000 0.0000 21.0108 0.0000 -1.7117
# 5 4.0683 -2.1551 -8.7071 0.0000 56.1438 0.0000
# 6 0.0000 0.0000 0.0000 -1.7117 0.0000 25.9899
#
#
#
# Elastic Compliance Matrix: (Units=1/GPa)
#
#
# Indices 1 2 3 4 5 6 
#
# 1 0.007930 -0.002043 -0.003362 0.000000 -0.001175 0.000000
# 2 -0.002043 0.014310 -0.003701 0.000000 0.000123 0.000000
# 3 -0.003362 -0.003701 0.009320 0.000000 0.001547 0.000000
# 4 0.000000 0.000000 0.000000 0.047851 0.000000 0.003152
# 5 -0.001175 0.000123 0.001547 0.000000 0.018141 0.000000
# 6 0.000000 0.000000 0.000000 0.003152 0.000000 0.038684
#
#
# Mechanical properties :
#
#
# Convention : Reuss Voigt Hill
#
# Bulk Modulus (GPa) = 74.91877 85.84729 80.38303
# Shear Modulus (GPa) = 31.46642 36.85089 34.15866
#
# Velocity S-wave (km/s) = 3.76724 4.07684 3.92510
# Velocity P-wave (km/s) = 7.26037 7.80257 7.53635
#
# Compressibility (1/GPa) = 0.01334779
#
# Stress axis : x y z
#
# Youngs Moduli (GPa) = 126.09836 69.87899 107.29637
#
# Poissons Ratio (x) = 0.14277 0.36075
# Poissons Ratio (y) = 0.25764 0.39712
# Poissons Ratio (z) = 0.42396 0.25863
#
# Static dielectric constant tensor:
#      x y z
#    x 1.834010 0.000000 0.037820 
#    y 0.000000 1.801910 0.000000 
#    z 0.037820 0.000000 1.855320 
# 
# From -- ./inp_files/52918.got.cif
#   From: 2010.05.17/outbox.cif.g08.bks.cpg/sg15_27_cif.got.tgz:52918.got - 2010.06.03 18:47:42.
