data_PCOD9299178
_publ_section_title
;
Structure prediction by ZEFSAII (Michael W. Deem and Ramdas Pophale) SiO2 
 PCOD9299178
Probable space group: C 2/C
;
_chemical_formula_sum "Si O2"
_cell_formula_units_Z 44
_cell_length_a 14.417330
_cell_length_b 5.827351
_cell_length_c 26.268850
_cell_angle_alpha 90.000000
_cell_angle_beta 52.035336
_cell_angle_gamma 90.000000
_cell_volume 1739.956337
_symmetry_space_group_name_H-M "C 2/C"
_symmetry_group_IT_number 15
_symmetry_cell_setting 'monoclinic'
loop_
_space_group_symop_operation_xyz
x,y,z
-x,y,1/2-z
-x,-y,-z
x,-y,1/2+z
1/2+x,1/2+y,z
1/2-x,1/2+y,1/2-z
1/2-x,1/2-y,-z
1/2+x,1/2-y,1/2+z
loop_
_atom_site_type_symbol
_atom_site_label
_atom_site_fract_x
_atom_site_fract_y
_atom_site_fract_z
Si Si1 0.312987 0.993913 0.491368
Si Si2 0.807671 0.659390 0.602091
Si Si3 0.500000 0.986237 0.250000
Si Si4 0.584709 0.566938 0.352500
Si Si5 0.072019 0.298190 0.631609
Si Si6 0.205847 0.209057 0.208905
O O1 0.250000 0.750000 0.500000
O O2 0.250000 0.250000 0.500000
O O3 0.343554 0.009423 0.540890
O O4 0.422822 0.020462 0.415713
O O5 0.697592 0.801078 0.617075
O O6 0.748499 0.521246 0.668225
O O7 0.906771 0.808997 0.596016
O O8 0.610633 0.823902 0.204079
O O9 0.518868 0.141492 0.293111
O O10 0.461715 0.449383 0.379451
O O11 0.678593 0.360578 0.325789
O O12 0.636841 0.694543 0.285517
#
# Coordination Sequence:
#
# PCOD9299178 Si02
#       6
#     8   8   4   8   8   8
#     4  10  24  47  74 103 148 195 255 313 375 465
#     4  11  24  45  70  96 145 194 240 312 390 446
#     4  12  22  40  74  96 144 190 240 316 384 460
#     4  12  24  41  67 104 145 186 247 321 372 470
#     4  11  24  44  69 106 137 191 256 300 390 457
#     4  12  23  42  65 102 143 184 243 308 386 452
#
# _framework density 25.287989
#
# number of rings (size 3 to 8) (size 9 to 14) (size 15 to 20)
#    0.000    0.727    3.636    4.364    2.545    2.182 
#    0.000    0.909    0.000    0.000    0.000    0.000 
#    0.000    0.000    0.000    0.000    0.000    0.000 
#
# Total GULP energy -122934.180234 kJ/mol
# GULP energy per Si atom -5587.917283 kJ/mol
# Density = 2.523043 g / cm^3
# Si number density = 25.287989 Si / 1000 Ang^3
#
#
#
# Elastic Constant Matrix: (Units=GPa)
#
#
# Indices 1 2 3 4 5 6 
#
# 1 87.0565 39.1920 26.6742 0.0049 29.9430 0.0031
# 2 39.1920 90.7762 53.7690 0.0339 26.0368 0.0191
# 3 26.6742 53.7690 129.7025 0.0045 34.4360 0.0065
# 4 0.0049 0.0339 0.0045 34.9755 -0.0001 -7.5459
# 5 29.9430 26.0368 34.4360 -0.0001 34.8680 0.0033
# 6 0.0031 0.0191 0.0065 -7.5459 0.0033 49.8893
#
#
#
# Elastic Compliance Matrix: (Units=1/GPa)
#
#
# Indices 1 2 3 4 5 6 
#
# 1 0.017762 -0.004977 0.001997 0.000002 -0.013509 0.000002
# 2 -0.004977 0.017240 -0.005205 -0.000017 -0.003459 -0.000008
# 3 0.001997 -0.005205 0.012037 0.000003 -0.009715 0.000001
# 4 0.000002 -0.000017 0.000003 0.029556 0.000007 0.004470
# 5 -0.013509 -0.003459 -0.009715 0.000007 0.052459 0.000001
# 6 0.000002 -0.000008 0.000001 0.004470 0.000001 0.020721
#
#
# Mechanical properties :
#
#
# Convention : Reuss Voigt Hill
#
# Bulk Modulus (GPa) = 32.60650 60.75615 46.68133
# Shear Modulus (GPa) = 28.35014 36.47323 32.41168
#
# Velocity S-wave (km/s) = 3.35190 3.80190 3.58397
# Velocity P-wave (km/s) = 5.28227 6.58411 5.96879
#
# Compressibility (1/GPa) = 0.03066873
#
# Stress axis : x y z
#
# Youngs Moduli (GPa) = 56.30071 58.00459 83.08049
#
# Poissons Ratio (x) = 0.28867 -0.16590
# Poissons Ratio (y) = 0.28019 0.43244
# Poissons Ratio (z) = -0.11243 0.30192
#
# Static dielectric constant tensor:
#      x y z
#    x 2.020630 0.000000 0.003260 
#    y 0.000000 2.140320 0.000000 
#    z 0.003260 0.000000 2.173480 
# 
# From -- ./inp_files/294391.got.cif
#   From: 2010.05.17/outbox.cif.g08.bks.cpg/sg15_148_cif.got.tgz:294391.got - 2010.06.03 18:47:42.
