data_PCOD9299562
_publ_section_title
;
Structure prediction by ZEFSAII (Michael W. Deem and Ramdas Pophale) SiO2 
 PCOD9299562
Probable space group: C 2/C
;
_chemical_formula_sum "Si O2"
_cell_formula_units_Z 44
_cell_length_a 12.304241
_cell_length_b 30.209559
_cell_length_c 5.041347
_cell_angle_alpha 90.000000
_cell_angle_beta 86.408116
_cell_angle_gamma 90.000000
_cell_volume 1870.216327
_symmetry_space_group_name_H-M "C 2/C"
_symmetry_group_IT_number 15
_symmetry_cell_setting 'monoclinic'
loop_
_space_group_symop_operation_xyz
x,y,z
-x,y,1/2-z
-x,-y,-z
x,-y,1/2+z
1/2+x,1/2+y,z
1/2-x,1/2+y,1/2-z
1/2-x,1/2-y,-z
1/2+x,1/2-y,1/2+z
loop_
_atom_site_type_symbol
_atom_site_label
_atom_site_fract_x
_atom_site_fract_y
_atom_site_fract_z
Si Si1 0.883074 0.565272 0.290731
Si Si2 0.000000 0.239418 0.750000
Si Si3 0.345935 0.122507 0.778859
Si Si4 0.346902 0.527093 0.994972
Si Si5 0.387566 0.346467 0.140374
Si Si6 0.500000 0.597497 0.250000
Si Si7 0.500000 0.201114 0.750000
O O1 0.902727 0.603421 0.507911
O O2 0.778558 0.539947 0.422292
O O3 0.000000 0.541042 0.250000
O O4 0.851801 0.587045 0.014692
O O5 0.096368 0.206006 0.830611
O O6 0.031875 0.268823 0.494626
O O7 0.222026 0.134219 0.729696
O O8 0.403114 0.168259 0.849377
O O9 0.363417 0.485024 0.186663
O O10 0.431502 0.563777 0.076886
O O11 0.500000 0.363510 0.250000
O O12 0.404528 0.368027 0.851811
#
# Coordination Sequence:
#
# PCOD9299562 Si02
#       7
#     8   4   8   8   8   4   4
#     4  12  24  46  71 102 134 179 236 281 333 422
#     4  10  26  42  65 106 144 172 232 282 351 392
#     4  12  24  43  75  99 134 184 234 279 339 405
#     4  12  28  44  70 106 138 176 224 289 353 395
#     4  10  25  43  69 101 135 190 228 272 342 406
#     4  12  23  46  73  94 146 180 236 272 333 430
#     4  12  23  44  68 104 140 176 230 294 336 396
#
# _framework density 23.526688
#
# number of rings (size 3 to 8) (size 9 to 14) (size 15 to 20)
#    0.545    0.000    3.636    4.364    2.545    2.182 
#    0.000    0.000    0.000    0.000    0.000    0.000 
#    0.000    0.000    0.000    0.000    0.000    0.000 
#
# Total GULP energy -122945.162393 kJ/mol
# GULP energy per Si atom -5588.416472 kJ/mol
# Density = 2.347314 g / cm^3
# Si number density = 23.526688 Si / 1000 Ang^3
#
#
#
# Elastic Constant Matrix: (Units=GPa)
#
#
# Indices 1 2 3 4 5 6 
#
# 1 94.0705 14.8085 5.2338 0.0000 -9.6980 0.0000
# 2 14.8085 68.0838 21.7202 0.0000 10.1743 0.0000
# 3 5.2338 21.7202 83.4809 0.0000 2.0789 0.0000
# 4 0.0000 0.0000 0.0000 5.8931 0.0000 10.1000
# 5 -9.6980 10.1743 2.0789 0.0000 29.4392 0.0000
# 6 0.0000 0.0000 0.0000 10.1000 0.0000 28.1539
#
#
#
# Elastic Compliance Matrix: (Units=1/GPa)
#
#
# Indices 1 2 3 4 5 6 
#
# 1 0.011659 -0.003279 -0.000002 0.000000 0.004974 0.000000
# 2 -0.003279 0.017793 -0.004251 0.000000 -0.006929 0.000000
# 3 -0.000002 -0.004251 0.013071 0.000000 0.000546 0.000000
# 4 0.000000 0.000000 0.000000 0.440566 0.000000 -0.158050
# 5 0.004974 -0.006929 0.000546 0.000000 0.037963 0.000000
# 6 0.000000 0.000000 0.000000 -0.158050 0.000000 0.092219
#
#
# Mechanical properties :
#
#
# Convention : Reuss Voigt Hill
#
# Bulk Modulus (GPa) = 36.41664 36.57333 36.49498
# Shear Modulus (GPa) = 7.84329 26.28877 17.06603
#
# Velocity S-wave (km/s) = 1.82785 3.34638 2.69623
# Velocity P-wave (km/s) = 4.46846 5.52361 5.02381
#
# Compressibility (1/GPa) = 0.02745998
#
# Stress axis : x y z
#
# Youngs Moduli (GPa) = 85.76799 56.20304 76.50288
#
# Poissons Ratio (x) = 0.18427 0.00014
# Poissons Ratio (y) = 0.28121 0.32523
# Poissons Ratio (z) = 0.00015 0.23893
#
# Static dielectric constant tensor:
#      x y z
#    x 1.926380 0.000000 -0.006950 
#    y 0.000000 1.882910 0.000000 
#    z -0.006950 0.000000 2.270270 
# 
# From -- ./inp_files/5827.got.cif
#   From: 2010.05.17/outbox.cif.g08.bks.cpg/sg15_3_cif.got.tgz:5827.got - 2010.06.03 18:47:42.
