data_PCOD9299154
_publ_section_title
;
Structure prediction by ZEFSAII (Michael W. Deem and Ramdas Pophale) SiO2 
 PCOD9299154
Probable space group: C 2/C
;
_chemical_formula_sum "Si O2"
_cell_formula_units_Z 40
_cell_length_a 10.730561
_cell_length_b 28.589695
_cell_length_c 5.185285
_cell_angle_alpha 90.000000
_cell_angle_beta 98.435955
_cell_angle_gamma 90.000000
_cell_volume 1573.548427
_symmetry_space_group_name_H-M "C 2/C"
_symmetry_group_IT_number 15
_symmetry_cell_setting 'monoclinic'
loop_
_space_group_symop_operation_xyz
x,y,z
-x,y,1/2-z
-x,-y,-z
x,-y,1/2+z
1/2+x,1/2+y,z
1/2-x,1/2+y,1/2-z
1/2-x,1/2-y,-z
1/2+x,1/2-y,1/2+z
loop_
_atom_site_type_symbol
_atom_site_label
_atom_site_fract_x
_atom_site_fract_y
_atom_site_fract_z
Si Si1 0.327819 0.315393 0.354517
Si Si2 0.353348 0.976187 0.275948
Si Si3 0.000000 0.968181 0.250000
Si Si4 0.500000 0.374700 0.750000
Si Si5 0.790435 0.901420 0.030337
Si Si6 0.918804 0.711830 0.459058
O O1 0.447821 0.340877 0.512968
O O2 0.286452 0.347193 0.103717
O O3 0.206221 0.316181 0.503141
O O4 0.366891 0.261681 0.335253
O O5 0.500000 0.981815 0.250000
O O6 0.337199 0.927680 0.431006
O O7 0.300502 0.013406 0.471509
O O8 0.118279 0.933453 0.264752
O O9 0.000000 0.000000 0.500000
O O10 0.623666 0.402579 0.698261
O O11 0.000000 0.691035 0.250000
O O12 0.000000 0.718205 0.750000
#
# Coordination Sequence:
#
# PCOD9299154 Si02
#       6
#     8   8   4   4   8   8
#     4  11  26  44  74 102 150 189 238 302 361 430
#     4  10  24  47  71  98 137 187 237 291 355 425
#     4  12  25  40  62  98 136 176 228 284 344 419
#     4  12  23  44  68 108 144 190 236 294 370 421
#     4  12  25  42  69 102 140 186 232 297 359 428
#     4  11  26  48  74 106 143 193 245 293 358 434
#
# _framework density 25.420249999999999
#
# number of rings (size 3 to 8) (size 9 to 14) (size 15 to 20)
#    0.000    0.800    3.000    3.000    5.600    2.400 
#    0.000    0.000    0.000    0.000    0.000    0.000 
#    0.000    0.000    0.000    0.000    0.000    0.000 
#
# Total GULP energy -111655.543521 kJ/mol
# GULP energy per Si atom -5582.777176 kJ/mol
# Density = 2.536239 g / cm^3
# Si number density = 25.420250 Si / 1000 Ang^3
#
#
#
# Elastic Constant Matrix: (Units=GPa)
#
#
# Indices 1 2 3 4 5 6 
#
# 1 90.6459 19.2934 34.3805 0.0000 -40.8984 0.0000
# 2 19.2934 68.3959 37.9894 0.0000 -8.0704 0.0000
# 3 34.3805 37.9894 149.1465 0.0000 -40.2087 0.0000
# 4 0.0000 0.0000 0.0000 27.3462 0.0000 -7.2563
# 5 -40.8984 -8.0704 -40.2087 0.0000 50.9299 0.0000
# 6 0.0000 0.0000 0.0000 -7.2563 0.0000 9.4716
#
#
#
# Elastic Compliance Matrix: (Units=1/GPa)
#
#
# Indices 1 2 3 4 5 6 
#
# 1 0.018114 -0.003786 0.000697 0.000000 0.014497 0.000000
# 2 -0.003786 0.017856 -0.004741 0.000000 -0.003954 0.000000
# 3 0.000697 -0.004741 0.009782 0.000000 0.007531 0.000000
# 4 0.000000 0.000000 0.000000 0.045899 0.000000 0.035163
# 5 0.014497 -0.003954 0.007531 0.000000 0.036595 0.000000
# 6 0.000000 0.000000 0.000000 0.035163 0.000000 0.132518
#
#
# Mechanical properties :
#
#
# Convention : Reuss Voigt Hill
#
# Bulk Modulus (GPa) = 33.23281 54.61277 43.92279
# Shear Modulus (GPa) = 17.45471 31.98455 24.71963
#
# Velocity S-wave (km/s) = 2.62324 3.55100 3.12178
# Velocity P-wave (km/s) = 4.71984 6.19221 5.50547
#
# Compressibility (1/GPa) = 0.03009074
#
# Stress axis : x y z
#
# Youngs Moduli (GPa) = 55.20549 56.00451 102.22640
#
# Poissons Ratio (x) = 0.21205 -0.07125
# Poissons Ratio (y) = 0.20903 0.48469
# Poissons Ratio (z) = -0.03848 0.26553
#
# Static dielectric constant tensor:
#      x y z
#    x 0.000000 0.000000 0.000000 
#    y 0.000000 0.000000 0.000000 
#    z 0.000000 0.000000 0.000000 
# 
# From -- ./inp_files/4937.got.cif
#   From: 2010.05.17/outbox.cif.g08.bks.cpg/sg15_3_cif.got.tgz:4937.got - 2010.06.03 18:47:42.
