data_PCOD9299410
_publ_section_title
;
Structure prediction by ZEFSAII (Michael W. Deem and Ramdas Pophale) SiO2 
 PCOD9299410
Probable space group: C 2/C
;
_chemical_formula_sum "Si O2"
_cell_formula_units_Z 36
_cell_length_a 20.818120
_cell_length_b 8.052634
_cell_length_c 18.264327
_cell_angle_alpha 90.000000
_cell_angle_beta 29.726604
_cell_angle_gamma 90.000000
_cell_volume 1518.252207
_symmetry_space_group_name_H-M "C 2/C"
_symmetry_group_IT_number 15
_symmetry_cell_setting 'monoclinic'
loop_
_space_group_symop_operation_xyz
x,y,z
-x,y,1/2-z
-x,-y,-z
x,-y,1/2+z
1/2+x,1/2+y,z
1/2-x,1/2+y,1/2-z
1/2-x,1/2-y,-z
1/2+x,1/2-y,1/2+z
loop_
_atom_site_type_symbol
_atom_site_label
_atom_site_fract_x
_atom_site_fract_y
_atom_site_fract_z
Si Si1 0.250000 0.250000 0.500000
Si Si2 0.523292 0.140222 0.649786
Si Si3 0.140361 0.922355 0.347809
Si Si4 0.838578 0.586740 0.254408
Si Si5 0.691245 0.582902 0.143673
O O1 0.215331 0.332365 0.617021
O O2 0.305249 0.430234 0.416155
O O3 0.500000 0.046104 0.750000
O O4 0.432181 0.299708 0.741202
O O5 0.673628 0.179624 0.498848
O O6 0.469263 0.014630 0.642969
O O7 0.133505 0.730638 0.332054
O O8 0.233681 0.964063 0.322621
O O9 0.193890 0.011000 0.222488
O O10 0.000000 0.000000 0.500000
#
# Coordination Sequence:
#
# PCOD9299410 Si02
#       5
#     4   8   8   8   8
#     4  10  24  50  76 116 154 214 268 340 402 500
#     4  12  26  48  77 115 155 209 270 344 409 493
#     4  11  28  47  77 112 157 214 266 338 413 495
#     4  11  26  49  77 112 159 205 276 333 412 486
#     4  11  27  49  78 115 161 211 273 342 417 489
#
# _framework density 23.711476999999999
#
# number of rings (size 3 to 8) (size 9 to 14) (size 15 to 20)
#    0.000    0.889    2.222    2.000   12.444    0.889 
#    4.000    0.000    0.000    0.000    0.000    0.000 
#    0.000    0.000    0.000    0.000    0.000    0.000 
#
# Total GULP energy -100294.743447 kJ/mol
# GULP energy per Si atom -5571.930192 kJ/mol
# Density = 2.365751 g / cm^3
# Si number density = 23.711477 Si / 1000 Ang^3
#
#
#
# Elastic Constant Matrix: (Units=GPa)
#
#
# Indices 1 2 3 4 5 6 
#
# 1 79.1685 53.3382 7.8324 0.0000 -3.8675 0.0000
# 2 53.3382 163.2138 38.8124 0.0003 -1.4352 -0.0002
# 3 7.8324 38.8124 87.7327 0.0001 -0.0534 -0.0001
# 4 0.0000 0.0003 0.0001 39.0203 0.0000 14.3558
# 5 -3.8675 -1.4352 -0.0534 0.0000 40.7014 0.0000
# 6 0.0000 -0.0002 -0.0001 14.3558 0.0000 42.2133
#
#
#
# Elastic Compliance Matrix: (Units=1/GPa)
#
#
# Indices 1 2 3 4 5 6 
#
# 1 0.016351 -0.005571 0.001006 0.000000 0.001359 0.000000
# 2 -0.005571 0.008748 -0.003373 0.000000 -0.000225 0.000000
# 3 0.001006 -0.003373 0.012801 0.000000 -0.000007 0.000000
# 4 0.000000 0.000000 0.000000 0.029293 0.000000 -0.009962
# 5 0.001359 -0.000225 -0.000007 0.000000 0.024690 0.000000
# 6 0.000000 0.000000 0.000000 -0.009962 0.000000 0.027077
#
#
# Mechanical properties :
#
#
# Convention : Reuss Voigt Hill
#
# Bulk Modulus (GPa) = 45.40585 58.89790 52.15188
# Shear Modulus (GPa) = 35.16755 39.72913 37.44834
#
# Velocity S-wave (km/s) = 3.85534 4.09776 3.97839
# Velocity P-wave (km/s) = 6.24572 6.87620 6.56853
#
# Compressibility (1/GPa) = 0.02202359
#
# Stress axis : x y z
#
# Youngs Moduli (GPa) = 61.15684 114.31836 78.12186
#
# Poissons Ratio (x) = 0.63684 -0.07855
# Poissons Ratio (y) = 0.34069 0.26348
# Poissons Ratio (z) = -0.06149 0.38555
#
# Static dielectric constant tensor:
#      x y z
#    x 1.912350 0.000000 0.004700 
#    y 0.000000 1.917510 0.000000 
#    z 0.004700 0.000000 1.916010 
# 
# From -- ./inp_files/214201.got.cif
#   From: 2010.05.17/outbox.cif.g08.bks.cpg/sg15_108_cif.got.tgz:214201.got - 2010.06.03 18:47:42.
