data_PCOD9299749
_publ_section_title
;
Structure prediction by ZEFSAII (Michael W. Deem and Ramdas Pophale) SiO2 
 PCOD9299749
Probable space group: C 2/C
;
_chemical_formula_sum "Si O2"
_cell_formula_units_Z 60
_cell_length_a 9.024459
_cell_length_b 18.123182
_cell_length_c 20.739536
_cell_angle_alpha 90.000000
_cell_angle_beta 139.646491
_cell_angle_gamma 90.000000
_cell_volume 2196.320002
_symmetry_space_group_name_H-M "C 2/C"
_symmetry_group_IT_number 15
_symmetry_cell_setting 'monoclinic'
loop_
_space_group_symop_operation_xyz
x,y,z
-x,y,1/2-z
-x,-y,-z
x,-y,1/2+z
1/2+x,1/2+y,z
1/2-x,1/2+y,1/2-z
1/2-x,1/2-y,-z
1/2+x,1/2-y,1/2+z
loop_
_atom_site_type_symbol
_atom_site_label
_atom_site_fract_x
_atom_site_fract_y
_atom_site_fract_z
Si Si1 0.972276 0.615700 0.661441
Si Si2 0.750361 0.019613 0.364061
Si Si3 0.500000 0.554756 0.250000
Si Si4 0.938919 0.383000 0.893900
Si Si5 0.852101 0.823661 0.956446
Si Si6 0.229619 0.250253 0.371043
Si Si7 0.261421 0.681564 0.651395
Si Si8 0.843732 0.952792 0.087597
O O1 0.826543 0.541866 0.608628
O O2 0.856011 0.693326 0.603565
O O3 0.000000 0.618764 0.750000
O O4 0.182193 0.624952 0.682313
O O5 0.500000 0.038270 0.250000
O O6 0.860262 0.095745 0.425812
O O7 0.935247 0.975813 0.381408
O O8 0.360886 0.508809 0.151917
O O9 0.707979 0.593836 0.280783
O O10 0.104360 0.330011 0.907936
O O11 0.825282 0.331758 0.911812
O O12 0.103786 0.448447 0.970325
O O13 0.871721 0.754752 0.914907
O O14 0.050084 0.802268 0.074270
O O15 0.000000 0.240135 0.250000
O O16 0.500000 0.716417 0.750000
O O17 0.320754 0.628001 0.611728
#
# Coordination Sequence:
#
# PCOD9299749 Si02
#       8
#     8   8   4   8   8   8   8   8
#     4  10  25  45  80 110 162 218 274 327 416 490
#     4  11  25  51  79 118 170 218 267 340 419 490
#     4  12  28  52  82 116 166 220 268 346 426 484
#     4  12  27  50  83 119 168 219 275 343 417 494
#     4  12  28  47  83 122 166 217 283 342 407 499
#     4  11  25  50  79 114 159 220 275 341 413 490
#     4  12  26  45  79 121 165 213 280 343 403 498
#     4  12  27  50  83 119 163 213 282 339 411 499
#
# _framework density 27.318421000000001
#
# number of rings (size 3 to 8) (size 9 to 14) (size 15 to 20)
#    0.000    0.533    2.667    4.400    7.467    3.733 
#    2.400    0.000    0.000    0.000    0.000    0.000 
#    0.000    0.000    0.000    0.000    0.000    0.000 
#
# Total GULP energy -167088.794939 kJ/mol
# GULP energy per Si atom -5569.626498 kJ/mol
# Density = 2.725624 g / cm^3
# Si number density = 27.318421 Si / 1000 Ang^3
#
#
#
# Elastic Constant Matrix: (Units=GPa)
#
#
# Indices 1 2 3 4 5 6 
#
# 1 150.9644 72.2734 61.2239 -0.0001 13.1479 0.0002
# 2 72.2734 170.1666 81.0910 -0.0001 6.1276 0.0000
# 3 61.2239 81.0910 165.3585 -0.0006 44.1944 0.0002
# 4 -0.0001 -0.0001 -0.0006 55.5325 -0.0003 -1.6123
# 5 13.1479 6.1276 44.1944 -0.0003 33.1835 0.0002
# 6 0.0002 0.0000 0.0002 -1.6123 0.0002 46.2639
#
#
#
# Elastic Compliance Matrix: (Units=1/GPa)
#
#
# Indices 1 2 3 4 5 6 
#
# 1 0.008738 -0.002928 -0.001581 0.000000 -0.000816 0.000000
# 2 -0.002928 0.009378 -0.005220 0.000000 0.006381 0.000000
# 3 -0.001581 -0.005220 0.013613 0.000000 -0.016540 0.000000
# 4 0.000000 0.000000 0.000000 0.018026 0.000000 0.000628
# 5 -0.000816 0.006381 -0.016540 0.000000 0.051309 0.000000
# 6 0.000000 0.000000 0.000000 0.000628 0.000000 0.021637
#
#
# Mechanical properties :
#
#
# Convention : Reuss Voigt Hill
#
# Bulk Modulus (GPa) = 81.49796 101.74068 91.61932
# Shear Modulus (GPa) = 34.18772 45.12275 39.65524
#
# Velocity S-wave (km/s) = 3.54143 4.06856 3.81411
# Velocity P-wave (km/s) = 6.82786 7.70677 7.28059
#
# Compressibility (1/GPa) = 0.01227025
#
# Stress axis : x y z
#
# Youngs Moduli (GPa) = 114.43752 106.63038 73.45674
#
# Poissons Ratio (x) = 0.31226 0.11616
# Poissons Ratio (y) = 0.33512 0.38345
# Poissons Ratio (z) = 0.18096 0.55662
#
# Static dielectric constant tensor:
#      x y z
#    x 2.430720 0.000000 0.073020 
#    y 0.000000 2.153980 0.000000 
#    z 0.073020 0.000000 2.473840 
# 
# From -- ./inp_files/266241.got.cif
#   From: 2010.05.17/outbox.cif.g08.bks.cpg/sg15_134_cif.got.tgz:266241.got - 2010.06.03 18:47:42.
