data_PCOD9299803
_publ_section_title
;
Structure prediction by ZEFSAII (Michael W. Deem and Ramdas Pophale) SiO2 
 PCOD9299803
Probable space group: C 2/C
;
_chemical_formula_sum "Si O2"
_cell_formula_units_Z 36
_cell_length_a 13.562938
_cell_length_b 13.512338
_cell_length_c 11.640579
_cell_angle_alpha 90.000000
_cell_angle_beta 49.149652
_cell_angle_gamma 90.000000
_cell_volume 1613.697753
_symmetry_space_group_name_H-M "C 2/C"
_symmetry_group_IT_number 15
_symmetry_cell_setting 'monoclinic'
loop_
_space_group_symop_operation_xyz
x,y,z
-x,y,1/2-z
-x,-y,-z
x,-y,1/2+z
1/2+x,1/2+y,z
1/2-x,1/2+y,1/2-z
1/2-x,1/2-y,-z
1/2+x,1/2-y,1/2+z
loop_
_atom_site_type_symbol
_atom_site_label
_atom_site_fract_x
_atom_site_fract_y
_atom_site_fract_z
Si Si1 0.081416 0.306008 0.296738
Si Si2 0.710630 0.854778 0.584026
Si Si3 0.487758 0.548957 0.884848
Si Si4 0.500000 0.998601 0.750000
Si Si5 0.625948 0.260698 0.358946
O O1 0.068178 0.424556 0.286549
O O2 0.233956 0.278463 0.186633
O O3 0.000000 0.264302 0.250000
O O4 0.997127 0.266059 0.467681
O O5 0.750000 0.750000 0.500000
O O6 0.842059 0.912859 0.496349
O O7 0.605664 0.928142 0.608546
O O8 0.650058 0.827717 0.752843
O O9 0.500000 0.497020 0.750000
O O10 0.586799 0.641892 0.815900
O O11 0.500000 0.500000 0.000000
#
# Coordination Sequence:
#
# PCOD9299803 Si02
#       5
#     8   8   8   4   8
#     4  10  25  46  72 108 154 193 257 313 387 454
#     4  12  24  46  73 103 146 199 252 310 374 463
#     4  12  27  46  74 111 154 197 254 311 378 452
#     4  10  26  44  70 102 148 192 252 314 380 452
#     4  12  23  47  76 106 143 207 248 310 385 458
#
# _framework density 22.309009
#
# number of rings (size 3 to 8) (size 9 to 14) (size 15 to 20)
#    0.667    0.000    4.444    3.333    0.000    3.556 
#    0.000    0.000    0.000    0.000    0.000    0.000 
#    0.000    0.000    0.000    0.000    0.000    0.000 
#
# Total GULP energy -100421.911178 kJ/mol
# GULP energy per Si atom -5578.995065 kJ/mol
# Density = 2.225823 g / cm^3
# Si number density = 22.309009 Si / 1000 Ang^3
#
#
#
# Elastic Constant Matrix: (Units=GPa)
#
#
# Indices 1 2 3 4 5 6 
#
# 1 119.6946 31.6292 28.0947 0.0000 -25.0594 0.0000
# 2 31.6292 80.6627 26.4594 0.0000 -5.9652 0.0000
# 3 28.0947 26.4594 103.4636 0.0000 5.7714 0.0000
# 4 0.0000 0.0000 0.0000 16.2933 0.0000 -0.0556
# 5 -25.0594 -5.9652 5.7714 0.0000 49.7415 0.0000
# 6 0.0000 0.0000 0.0000 -0.0556 0.0000 38.8122
#
#
#
# Elastic Compliance Matrix: (Units=1/GPa)
#
#
# Indices 1 2 3 4 5 6 
#
# 1 0.010872 -0.003053 -0.002473 0.000000 0.005398 0.000000
# 2 -0.003053 0.014598 -0.002935 0.000000 0.000553 0.000000
# 3 -0.002473 -0.002935 0.011249 0.000000 -0.002903 0.000000
# 4 0.000000 0.000000 0.000000 0.061375 0.000000 0.000088
# 5 0.005398 0.000553 -0.002903 0.000000 0.023227 0.000000
# 6 0.000000 0.000000 0.000000 0.000088 0.000000 0.025765
#
#
# Mechanical properties :
#
#
# Convention : Reuss Voigt Hill
#
# Bulk Modulus (GPa) = 50.50996 52.90974 51.70985
# Shear Modulus (GPa) = 29.30726 35.47858 32.39292
#
# Velocity S-wave (km/s) = 3.62843 3.99221 3.81466
# Velocity P-wave (km/s) = 6.34383 6.70959 6.52927
#
# Compressibility (1/GPa) = 0.01979807
#
# Stress axis : x y z
#
# Youngs Moduli (GPa) = 91.98150 68.50225 88.89533
#
# Poissons Ratio (x) = 0.20912 0.21980
# Poissons Ratio (y) = 0.28080 0.26092
# Poissons Ratio (z) = 0.22743 0.20107
#
# Static dielectric constant tensor:
#      x y z
#    x 1.681240 0.000000 -0.384670 
#    y 0.000000 1.829820 0.000000 
#    z -0.384670 0.000000 0.621050 
# 
# From -- ./inp_files/95485.got.cif
#   From: 2010.05.17/outbox.cif.g08.bks.cpg/sg15_48_cif.got.tgz:95485.got - 2010.06.03 18:47:42.
