data_PCOD9299575
_publ_section_title
;
Structure prediction by ZEFSAII (Michael W. Deem and Ramdas Pophale) SiO2 
 PCOD9299575
Probable space group: C 2/C
;
_chemical_formula_sum "Si O2"
_cell_formula_units_Z 40
_cell_length_a 25.225910
_cell_length_b 7.417178
_cell_length_c 24.461486
_cell_angle_alpha 90.000000
_cell_angle_beta 159.076065
_cell_angle_gamma 90.000000
_cell_volume 1634.528726
_symmetry_space_group_name_H-M "C 2/C"
_symmetry_group_IT_number 15
_symmetry_cell_setting 'monoclinic'
loop_
_space_group_symop_operation_xyz
x,y,z
-x,y,1/2-z
-x,-y,-z
x,-y,1/2+z
1/2+x,1/2+y,z
1/2-x,1/2+y,1/2-z
1/2-x,1/2-y,-z
1/2+x,1/2-y,1/2+z
loop_
_atom_site_type_symbol
_atom_site_label
_atom_site_fract_x
_atom_site_fract_y
_atom_site_fract_z
Si Si1 0.186121 0.125733 0.217975
Si Si2 0.998755 0.438256 0.424611
Si Si3 0.532587 0.990655 0.342710
Si Si4 0.938738 0.140319 0.520022
Si Si5 0.767966 0.245821 0.582707
O O1 0.348677 0.116117 0.399227
O O2 0.157611 0.094504 0.126286
O O3 0.126361 0.327898 0.166011
O O4 0.079551 0.991606 0.150244
O O5 0.000097 0.654921 0.426123
O O6 0.983014 0.374769 0.346223
O O7 0.500000 0.920287 0.250000
O O8 0.699913 0.044886 0.522671
O O9 0.432807 0.175401 0.248389
O O10 0.832433 0.138114 0.471298
O O11 0.750000 0.250000 0.500000
#
# Coordination Sequence:
#
# PCOD9299575 Si02
#       5
#     8   8   8   8   8
#     4  11  27  43  67 107 135 191 225 286 345 422
#     4  11  26  43  71  97 144 179 234 280 350 415
#     4   9  20  39  66  96 134 174 228 284 342 404
#     4  10  25  43  71  96 142 179 235 276 355 403
#     4   9  19  36  66  96 127 176 227 280 334 402
#
# _framework density 24.471885
#
# number of rings (size 3 to 8) (size 9 to 14) (size 15 to 20)
#    0.000    2.000    0.000    0.600   19.600    0.000 
#    0.000    1.000    4.400    0.000    0.000    0.000 
#    0.000    0.000    0.000    0.000    0.000    0.000 
#
# Total GULP energy -111508.825879 kJ/mol
# GULP energy per Si atom -5575.441294 kJ/mol
# Density = 2.441619 g / cm^3
# Si number density = 24.471885 Si / 1000 Ang^3
#
#
#
# Elastic Constant Matrix: (Units=GPa)
#
#
# Indices 1 2 3 4 5 6 
#
# 1 175.8041 21.9685 33.3416 -0.0001 -23.4377 0.0000
# 2 21.9685 90.0547 58.4326 0.0000 10.2714 0.0000
# 3 33.3416 58.4326 116.9855 -0.0005 -24.3382 -0.0001
# 4 -0.0001 0.0000 -0.0005 29.3784 -0.0001 6.9388
# 5 -23.4377 10.2714 -24.3382 -0.0001 44.3883 0.0000
# 6 0.0000 0.0000 -0.0001 6.9388 0.0000 27.5882
#
#
#
# Elastic Compliance Matrix: (Units=1/GPa)
#
#
# Indices 1 2 3 4 5 6 
#
# 1 0.006457 -0.001978 -0.000054 0.000000 0.003837 0.000000
# 2 -0.001978 0.021406 -0.012841 0.000000 -0.013038 0.000000
# 3 -0.000054 -0.012841 0.017597 0.000000 0.012591 0.000000
# 4 0.000000 0.000000 0.000000 0.036188 0.000000 -0.009102
# 5 0.003837 -0.013038 0.012591 0.000000 0.034475 0.000000
# 6 0.000000 0.000000 0.000000 -0.009102 0.000000 0.038537
#
#
# Mechanical properties :
#
#
# Convention : Reuss Voigt Hill
#
# Bulk Modulus (GPa) = 63.63562 67.81442 65.72502
# Shear Modulus (GPa) = 26.36532 38.21109 32.28820
#
# Velocity S-wave (km/s) = 3.28590 3.95578 3.63630
# Velocity P-wave (km/s) = 6.36052 6.97392 6.67427
#
# Compressibility (1/GPa) = 0.01571447
#
# Stress axis : x y z
#
# Youngs Moduli (GPa) = 154.86699 46.71663 56.82885
#
# Poissons Ratio (x) = 0.09240 0.00307
# Poissons Ratio (y) = 0.30630 0.72972
# Poissons Ratio (z) = 0.00837 0.59987
#
# Static dielectric constant tensor:
#      x y z
#    x 2.153230 0.000000 0.105700 
#    y 0.000000 1.953470 0.000000 
#    z 0.105700 0.000000 2.042810 
# 
# From -- ./inp_files/303138.got.cif
#   From: 2010.05.17/outbox.cif.g08.bks.cpg/sg15_152_cif.got.tgz:303138.got - 2010.06.03 18:47:42.
