data_PCOD9299475
_publ_section_title
;
Structure prediction by ZEFSAII (Michael W. Deem and Ramdas Pophale) SiO2 
 PCOD9299475
Probable space group: C 2/C
;
_chemical_formula_sum "Si O2"
_cell_formula_units_Z 60
_cell_length_a 27.421978
_cell_length_b 9.817450
_cell_length_c 9.198242
_cell_angle_alpha 90.000000
_cell_angle_beta 90.984483
_cell_angle_gamma 90.000000
_cell_volume 2475.929045
_symmetry_space_group_name_H-M "C 2/C"
_symmetry_group_IT_number 15
_symmetry_cell_setting 'monoclinic'
loop_
_space_group_symop_operation_xyz
x,y,z
-x,y,1/2-z
-x,-y,-z
x,-y,1/2+z
1/2+x,1/2+y,z
1/2-x,1/2+y,1/2-z
1/2-x,1/2-y,-z
1/2+x,1/2-y,1/2+z
loop_
_atom_site_type_symbol
_atom_site_label
_atom_site_fract_x
_atom_site_fract_y
_atom_site_fract_z
Si Si1 0.057244 0.293431 0.508863
Si Si2 0.309698 0.084549 0.753517
Si Si3 0.000000 0.165435 0.750000
Si Si4 0.049967 0.667850 0.605928
Si Si5 0.901666 0.521883 0.147268
Si Si6 0.741041 0.516627 0.499515
Si Si7 0.824583 0.883978 0.764614
Si Si8 0.072805 0.933985 0.794976
O O1 0.098530 0.400705 0.473977
O O2 0.074734 0.152168 0.442368
O O3 0.036805 0.259620 0.664012
O O4 0.007438 0.345625 0.429285
O O5 0.347345 0.966563 0.707821
O O6 0.270273 0.100823 0.622826
O O7 0.338867 0.225257 0.772639
O O8 0.281122 0.055199 0.899719
O O9 0.963468 0.057037 0.674590
O O10 0.076989 0.642482 0.452210
O O11 0.067894 0.551184 0.720135
O O12 0.055539 0.819009 0.675940
O O13 0.707207 0.419479 0.596168
O O14 0.707165 0.592498 0.381552
O O15 0.873280 0.973374 0.753121
#
# Coordination Sequence:
#
# PCOD9299475 Si02
#       8
#     8   8   4   8   8   8   8   8
#     4  11  24  42  64  95 134 176 217 270 323 381
#     4  11  21  44  67  96 133 165 214 276 329 386
#     4  12  26  42  66  96 136 178 226 258 326 390
#     4  11  23  42  66  98 134 172 216 271 330 378
#     4  11  23  41  70  97 134 170 220 272 327 395
#     4  10  25  41  67  98 126 174 211 274 332 388
#     4  11  23  42  68  94 132 169 221 260 331 392
#     4  11  23  43  67  91 136 176 215 278 313 384
#
# _framework density 24.233329000000001
#
# number of rings (size 3 to 8) (size 9 to 14) (size 15 to 20)
#    0.000    1.067    4.000    3.600    3.733    0.000 
#    0.000    0.000    2.933    0.000    0.000    0.000 
#    0.000    0.000    0.000    0.000    0.000    0.000 
#
# Total GULP energy -167575.036177 kJ/mol
# GULP energy per Si atom -5585.834539 kJ/mol
# Density = 2.417817 g / cm^3
# Si number density = 24.233329 Si / 1000 Ang^3
#
#
#
# Elastic Constant Matrix: (Units=GPa)
#
#
# Indices 1 2 3 4 5 6 
#
# 1 78.7005 -10.1888 20.2626 0.0000 -33.2736 0.0000
# 2 -10.1888 49.1424 20.5178 0.0000 -2.7586 0.0000
# 3 20.2626 20.5178 150.8728 0.0000 -26.7554 0.0000
# 4 0.0000 0.0000 0.0000 16.5356 0.0000 -3.2672
# 5 -33.2736 -2.7586 -26.7554 0.0000 47.5198 0.0000
# 6 0.0000 0.0000 0.0000 -3.2672 0.0000 22.2102
#
#
#
# Elastic Compliance Matrix: (Units=1/GPa)
#
#
# Indices 1 2 3 4 5 6 
#
# 1 0.019193 0.005109 -0.000929 0.000000 0.013212 0.000000
# 2 0.005109 0.022942 -0.003261 0.000000 0.003073 0.000000
# 3 -0.000929 -0.003261 0.007829 0.000000 0.003568 0.000000
# 4 0.000000 0.000000 0.000000 0.062286 0.000000 0.009163
# 5 0.013212 0.003073 0.003568 0.000000 0.032483 0.000000
# 6 0.000000 0.000000 0.000000 0.009163 0.000000 0.046372
#
#
# Mechanical properties :
#
#
# Convention : Reuss Voigt Hill
#
# Bulk Modulus (GPa) = 19.30439 37.76654 28.53547
# Shear Modulus (GPa) = 24.20885 33.79472 29.00179
#
# Velocity S-wave (km/s) = 3.16411 3.73843 3.46319
# Velocity P-wave (km/s) = 4.61867 5.85259 5.27186
#
# Compressibility (1/GPa) = 0.05180169
#
# Stress axis : x y z
#
# Youngs Moduli (GPa) = 52.10184 43.58736 127.72744
#
# Poissons Ratio (x) = -0.22269 0.11872
# Poissons Ratio (y) = -0.26619 0.41655
# Poissons Ratio (z) = 0.04843 0.14215
#
# Static dielectric constant tensor:
#      x y z
#    x 1.904390 0.000000 0.033450 
#    y 0.000000 1.946220 0.000000 
#    z 0.033450 0.000000 2.019020 
# 
# From -- ./inp_files/69110.got.cif
#   From: 2010.05.17/outbox.cif.g08.bks.cpg/sg15_35_cif.got.tgz:69110.got - 2010.06.03 18:47:42.
