data_PCOD9299322
_publ_section_title
;
Structure prediction by ZEFSAII (Michael W. Deem and Ramdas Pophale) SiO2 
 PCOD9299322
Probable space group: C 2/C
;
_chemical_formula_sum "Si O2"
_cell_formula_units_Z 44
_cell_length_a 15.692124
_cell_length_b 23.078847
_cell_length_c 5.055636
_cell_angle_alpha 90.000000
_cell_angle_beta 112.197074
_cell_angle_gamma 90.000000
_cell_volume 1695.239152
_symmetry_space_group_name_H-M "C 2/C"
_symmetry_group_IT_number 15
_symmetry_cell_setting 'monoclinic'
loop_
_space_group_symop_operation_xyz
x,y,z
-x,y,1/2-z
-x,-y,-z
x,-y,1/2+z
1/2+x,1/2+y,z
1/2-x,1/2+y,1/2-z
1/2-x,1/2-y,-z
1/2+x,1/2-y,1/2+z
loop_
_atom_site_type_symbol
_atom_site_label
_atom_site_fract_x
_atom_site_fract_y
_atom_site_fract_z
Si Si1 0.400287 0.297448 0.752455
Si Si2 0.000000 0.133562 0.750000
Si Si3 0.500000 0.813411 0.250000
Si Si4 0.000000 0.500000 0.000000
Si Si5 0.883057 0.394145 0.759092
Si Si6 0.762168 0.377753 0.128721
Si Si7 0.893835 0.038570 0.940997
O O1 0.500000 0.315560 0.750000
O O2 0.415134 0.229037 0.738354
O O3 0.311016 0.326387 0.519399
O O4 0.415742 0.325261 0.059339
O O5 0.040747 0.089412 0.583270
O O6 0.540092 0.850859 0.535747
O O7 0.922022 0.458969 0.730256
O O8 0.000000 0.544086 0.750000
O O9 0.835883 0.367980 0.444283
O O10 0.809045 0.396233 0.908818
O O11 0.705692 0.432394 0.174725
O O12 0.904327 0.987369 0.743485
#
# Coordination Sequence:
#
# PCOD9299322 Si02
#       7
#     8   4   4   4   8   8   8
#     4  10  24  48  77 107 155 207 255 326 400 459
#     4  12  22  44  75 101 154 208 258 306 408 462
#     4  10  26  52  77 115 146 216 264 326 404 482
#     4  12  26  50  82 110 152 216 244 326 396 468
#     4  12  28  49  80 114 155 202 267 320 398 473
#     4  12  27  48  74 117 157 200 265 330 385 470
#     4  12  25  41  67 107 149 200 254 318 374 469
#
# _framework density 25.95504
#
# number of rings (size 3 to 8) (size 9 to 14) (size 15 to 20)
#    0.545    0.000    2.727    4.909    0.000    7.273 
#    0.000    0.000    0.000    0.000    0.000    0.000 
#    0.000    0.000    0.000    0.000    0.000    0.000 
#
# Total GULP energy -122736.178984 kJ/mol
# GULP energy per Si atom -5578.917227 kJ/mol
# Density = 2.589596 g / cm^3
# Si number density = 25.955040 Si / 1000 Ang^3
#
#
#
# Elastic Constant Matrix: (Units=GPa)
#
#
# Indices 1 2 3 4 5 6 
#
# 1 142.2443 50.5159 29.1909 0.0000 1.6759 0.0000
# 2 50.5159 165.1363 77.3063 0.0000 25.0883 0.0000
# 3 29.1909 77.3063 193.3069 0.0000 24.7689 0.0000
# 4 0.0000 0.0000 0.0000 -11.7375 0.0000 17.7780
# 5 1.6759 25.0883 24.7689 0.0000 43.2693 0.0000
# 6 0.0000 0.0000 0.0000 17.7780 0.0000 38.9712
#
#
#
# Elastic Compliance Matrix: (Units=1/GPa)
#
#
# Indices 1 2 3 4 5 6 
#
# 1 0.007968 -0.002457 -0.000392 0.000000 0.001341 0.000000
# 2 -0.002457 0.008542 -0.002614 0.000000 -0.003361 0.000000
# 3 -0.000392 -0.002614 0.006563 0.000000 -0.002226 0.000000
# 4 0.000000 0.000000 0.000000 -0.050384 0.000000 0.022984
# 5 0.001341 -0.003361 -0.002226 0.000000 0.026282 0.000000
# 6 0.000000 0.000000 0.000000 0.022984 0.000000 0.015175
#
#
# Mechanical properties :
#
#
# Convention : Reuss Voigt Hill
#
# Bulk Modulus (GPa) = 82.34062 90.52373 86.43218
# Shear Modulus (GPa) = 171.69762 37.01225 104.35494
#
# Velocity S-wave (km/s) = 8.14221 3.78036 6.34770
# Velocity P-wave (km/s) = 10.96300 7.34899 9.33260
#
# Compressibility (1/GPa) = 0.01214467
#
# Stress axis : x y z
#
# Youngs Moduli (GPa) = 125.50897 117.07172 152.36842
#
# Poissons Ratio (x) = 0.28769 0.05976
# Poissons Ratio (y) = 0.30843 0.39833
# Poissons Ratio (z) = 0.04923 0.30605
#
# Static dielectric constant tensor:
#      x y z
#    x 1.975100 0.000000 0.052050 
#    y 0.000000 1.896330 0.000000 
#    z 0.052050 0.000000 2.205380 
# 
# From -- ./inp_files/8320.got.cif
#   From: 2010.05.17/outbox.cif.g08.bks.cpg/sg15_5_cif.got.tgz:8320.got - 2010.06.03 18:47:42.
