data_PCOD9299733
_publ_section_title
;
Structure prediction by ZEFSAII (Michael W. Deem and Ramdas Pophale) SiO2 
 PCOD9299733
Probable space group: C 2/C
;
_chemical_formula_sum "Si O2"
_cell_formula_units_Z 44
_cell_length_a 12.072018
_cell_length_b 13.632955
_cell_length_c 11.795544
_cell_angle_alpha 90.000000
_cell_angle_beta 101.288920
_cell_angle_gamma 90.000000
_cell_volume 1903.719703
_symmetry_space_group_name_H-M "C 2/C"
_symmetry_group_IT_number 15
_symmetry_cell_setting 'monoclinic'
loop_
_space_group_symop_operation_xyz
x,y,z
-x,y,1/2-z
-x,-y,-z
x,-y,1/2+z
1/2+x,1/2+y,z
1/2-x,1/2+y,1/2-z
1/2-x,1/2-y,-z
1/2+x,1/2-y,1/2+z
loop_
_atom_site_type_symbol
_atom_site_label
_atom_site_fract_x
_atom_site_fract_y
_atom_site_fract_z
Si Si1 0.024696 0.143504 0.027084
Si Si2 0.390118 0.191445 0.801003
Si Si3 0.500000 0.180468 0.250000
Si Si4 0.396769 0.024695 0.398503
Si Si5 0.853297 0.835534 0.283889
Si Si6 0.855453 0.006786 0.106157
O O1 0.931934 0.164516 0.910194
O O2 0.113599 0.066818 0.990969
O O3 0.090587 0.237320 0.088283
O O4 0.949774 0.090446 0.109967
O O5 0.500000 0.207325 0.750000
O O6 0.383663 0.077058 0.829749
O O7 0.271129 0.203813 0.714675
O O8 0.400854 0.257294 0.201637
O O9 0.442404 0.112053 0.330691
O O10 0.273510 0.044817 0.427218
O O11 0.500000 0.000000 0.500000
O O12 0.861568 0.940820 0.222184
#
# Coordination Sequence:
#
# PCOD9299733 Si02
#       6
#     8   8   4   8   8   8
#     4  11  24  47  77 103 147 184 239 299 358 418
#     4  11  27  46  69 109 142 187 244 288 354 431
#     4  12  24  46  70  98 142 192 220 302 350 412
#     4  11  26  43  69 100 141 186 239 287 355 416
#     4  11  25  48  73 103 148 187 240 293 359 428
#     4  10  25  45  73 105 137 189 239 292 357 427
#
# _framework density 23.112646999999999
#
# number of rings (size 3 to 8) (size 9 to 14) (size 15 to 20)
#    0.000    1.091    2.727    1.091    7.636    5.091 
#    3.273    0.000    0.000    0.000    0.000    0.000 
#    0.000    0.000    0.000    0.000    0.000    0.000 
#
# Total GULP energy -122864.826900 kJ/mol
# GULP energy per Si atom -5584.764859 kJ/mol
# Density = 2.306004 g / cm^3
# Si number density = 23.112647 Si / 1000 Ang^3
#
#
#
# Elastic Constant Matrix: (Units=GPa)
#
#
# Indices 1 2 3 4 5 6 
#
# 1 182.6968 30.9419 45.1697 0.0000 -5.3678 0.0000
# 2 30.9419 94.6284 21.1181 0.0000 0.2243 0.0000
# 3 45.1697 21.1181 67.6061 0.0000 8.5465 0.0000
# 4 0.0000 0.0000 0.0000 29.1037 0.0000 -7.1096
# 5 -5.3678 0.2243 8.5465 0.0000 27.6216 0.0000
# 6 0.0000 0.0000 0.0000 -7.1096 0.0000 22.0357
#
#
#
# Elastic Compliance Matrix: (Units=1/GPa)
#
#
# Indices 1 2 3 4 5 6 
#
# 1 0.006894 -0.001241 -0.004568 0.000000 0.002763 0.000000
# 2 -0.001241 0.011612 -0.002868 0.000000 0.000552 0.000000
# 3 -0.004568 -0.002868 0.019616 0.000000 -0.006934 0.000000
# 4 0.000000 0.000000 0.000000 0.037300 0.000000 0.012034
# 5 0.002763 0.000552 -0.006934 0.000000 0.038881 0.000000
# 6 0.000000 0.000000 0.000000 0.012034 0.000000 0.049264
#
#
# Mechanical properties :
#
#
# Convention : Reuss Voigt Hill
#
# Bulk Modulus (GPa) = 48.14977 59.93231 54.04104
# Shear Modulus (GPa) = 26.61786 32.26564 29.44175
#
# Velocity S-wave (km/s) = 3.39729 3.74038 3.57296
# Velocity P-wave (km/s) = 6.02218 6.68138 6.36032
#
# Compressibility (1/GPa) = 0.02076853
#
# Stress axis : x y z
#
# Youngs Moduli (GPa) = 145.04644 86.11602 50.97939
#
# Poissons Ratio (x) = 0.10691 0.23287
# Poissons Ratio (y) = 0.18007 0.14619
# Poissons Ratio (z) = 0.66255 0.24695
#
# Static dielectric constant tensor:
#      x y z
#    x 2.044530 0.000000 0.032000 
#    y 0.000000 2.118890 0.000000 
#    z 0.032000 0.000000 1.928580 
# 
# From -- ./inp_files/86149.got.cif
#   From: 2010.05.17/outbox.cif.g08.bks.cpg/sg15_44_cif.got.tgz:86149.got - 2010.06.03 18:47:42.
