data_PCOD9299980
_publ_section_title
;
Structure prediction by ZEFSAII (Michael W. Deem and Ramdas Pophale) SiO2 
 PCOD9299980
Probable space group: C 2/C
;
_chemical_formula_sum "Si O2"
_cell_formula_units_Z 40
_cell_length_a 13.557162
_cell_length_b 9.486394
_cell_length_c 24.808163
_cell_angle_alpha 90.000000
_cell_angle_beta 150.459512
_cell_angle_gamma 90.000000
_cell_volume 1573.060262
_symmetry_space_group_name_H-M "C 2/C"
_symmetry_group_IT_number 15
_symmetry_cell_setting 'monoclinic'
loop_
_space_group_symop_operation_xyz
x,y,z
-x,y,1/2-z
-x,-y,-z
x,-y,1/2+z
1/2+x,1/2+y,z
1/2-x,1/2+y,1/2-z
1/2-x,1/2-y,-z
1/2+x,1/2-y,1/2+z
loop_
_atom_site_type_symbol
_atom_site_label
_atom_site_fract_x
_atom_site_fract_y
_atom_site_fract_z
Si Si1 0.265890 0.480144 0.382928
Si Si2 0.373442 0.279775 0.612835
Si Si3 0.093776 0.236358 0.851654
Si Si4 0.775853 0.621247 0.755021
Si Si5 0.904383 0.522448 0.011943
O O1 0.500000 0.500000 0.500000
O O2 0.196312 0.332686 0.375955
O O3 0.245091 0.473842 0.308326
O O4 0.151858 0.601559 0.362827
O O5 0.250000 0.250000 0.500000
O O6 0.301893 0.434363 0.590744
O O7 0.602947 0.258214 0.708709
O O8 0.000000 0.184323 0.750000
O O9 0.922449 0.183145 0.811522
O O10 0.310353 0.176130 0.973010
O O11 0.933767 0.539211 0.869158
O O12 0.000000 0.500000 0.000000
#
# Coordination Sequence:
#
# PCOD9299980 Si02
#       5
#     8   8   8   8   8
#     4  12  29  54  79 121 166 216 286 346 411 510
#     4  10  25  51  76 109 161 209 267 341 416 485
#     4  12  27  51  84 124 165 218 284 339 419 500
#     4  11  27  52  84 117 169 223 273 349 426 492
#     4  11  24  52  80 120 160 216 274 347 415 499
#
# _framework density 25.428142000000001
#
# number of rings (size 3 to 8) (size 9 to 14) (size 15 to 20)
#    0.000    0.800    2.000    3.000    8.400    4.000 
#   18.000    0.000    0.000    0.000    0.000    0.000 
#    0.000    0.000    0.000    0.000    0.000    0.000 
#
# Total GULP energy -111833.992819 kJ/mol
# GULP energy per Si atom -5591.699641 kJ/mol
# Density = 2.537027 g / cm^3
# Si number density = 25.428142 Si / 1000 Ang^3
#
#
#
# Elastic Constant Matrix: (Units=GPa)
#
#
# Indices 1 2 3 4 5 6 
#
# 1 188.8183 35.6503 85.2024 0.0000 0.7198 0.0000
# 2 35.6503 91.2237 45.2180 0.0000 -20.4773 0.0000
# 3 85.2024 45.2180 167.2770 0.0001 -6.5243 0.0000
# 4 0.0000 0.0000 0.0001 39.7713 0.0000 1.7321
# 5 0.7198 -20.4773 -6.5243 0.0000 47.8102 0.0000
# 6 0.0000 0.0000 0.0000 1.7321 0.0000 36.3906
#
#
#
# Elastic Compliance Matrix: (Units=1/GPa)
#
#
# Indices 1 2 3 4 5 6 
#
# 1 0.007029 -0.001394 -0.003248 0.000000 -0.001146 0.000000
# 2 -0.001394 0.014236 -0.002915 0.000000 0.005721 0.000000
# 3 -0.003248 -0.002915 0.008419 0.000000 -0.000051 0.000000
# 4 0.000000 0.000000 0.000000 0.025196 0.000000 -0.001199
# 5 -0.001146 0.005721 -0.000051 0.000000 0.023377 0.000000
# 6 0.000000 0.000000 0.000000 -0.001199 0.000000 0.027537
#
#
# Mechanical properties :
#
#
# Convention : Reuss Voigt Hill
#
# Bulk Modulus (GPa) = 68.63886 86.60670 77.62278
# Shear Modulus (GPa) = 39.75683 43.54429 41.65056
#
# Velocity S-wave (km/s) = 3.95840 4.14266 4.05158
# Velocity P-wave (km/s) = 6.92414 7.55086 7.24428
#
# Compressibility (1/GPa) = 0.01456901
#
# Stress axis : x y z
#
# Youngs Moduli (GPa) = 142.25821 70.24465 118.78490
#
# Poissons Ratio (x) = 0.09794 0.38584
# Poissons Ratio (y) = 0.19836 0.34625
# Poissons Ratio (z) = 0.46209 0.20476
#
# Static dielectric constant tensor:
#      x y z
#    x 1.948330 0.000000 -0.047570 
#    y 0.000000 1.919070 0.000000 
#    z -0.047570 0.000000 2.054810 
# 
# From -- ./inp_files/238529.got.cif
#   From: 2010.05.17/outbox.cif.g08.bks.cpg/sg15_120_cif.got.tgz:238529.got - 2010.06.03 18:47:42.
