data_PCOD9299895
_publ_section_title
;
Structure prediction by ZEFSAII (Michael W. Deem and Ramdas Pophale) SiO2 
 PCOD9299895
Probable space group: C 2/C
;
_chemical_formula_sum "Si O2"
_cell_formula_units_Z 48
_cell_length_a 14.288585
_cell_length_b 31.570589
_cell_length_c 7.936261
_cell_angle_alpha 90.000000
_cell_angle_beta 142.430707
_cell_angle_gamma 90.000000
_cell_volume 2182.823478
_symmetry_space_group_name_H-M "C 2/C"
_symmetry_group_IT_number 15
_symmetry_cell_setting 'monoclinic'
loop_
_space_group_symop_operation_xyz
x,y,z
-x,y,1/2-z
-x,-y,-z
x,-y,1/2+z
1/2+x,1/2+y,z
1/2-x,1/2+y,1/2-z
1/2-x,1/2-y,-z
1/2+x,1/2-y,1/2+z
loop_
_atom_site_type_symbol
_atom_site_label
_atom_site_fract_x
_atom_site_fract_y
_atom_site_fract_z
Si Si1 0.372703 0.694932 0.793660
Si Si2 0.621383 0.515339 0.034249
Si Si3 0.148631 0.254350 0.185724
Si Si4 0.000000 0.615702 0.750000
Si Si5 0.500000 0.368476 0.750000
Si Si6 0.238542 0.936794 0.981783
Si Si7 0.418929 0.833966 0.811002
O O1 0.273261 0.734128 0.723876
O O2 0.256345 0.674845 0.494066
O O3 0.540489 0.714138 0.996193
O O4 0.402591 0.661148 0.986294
O O5 0.694884 0.474817 0.046787
O O6 0.743553 0.542918 0.303460
O O7 0.500000 0.541440 0.750000
O O8 0.500000 0.500000 0.000000
O O9 0.250000 0.250000 0.500000
O O10 0.031189 0.294081 0.012312
O O11 0.896389 0.586972 0.724286
O O12 0.912177 0.642770 0.482785
O O13 0.389732 0.400601 0.691924
O O14 0.500000 0.851615 0.750000
#
# Coordination Sequence:
#
# PCOD9299895 Si02
#       7
#     8   8   8   4   4   8   8
#     4  11  24  41  68 102 138 193 243 300 356 423
#     4   9  18  41  69  99 130 175 234 278 335 429
#     4  11  21  41  68  98 137 192 244 298 348 416
#     4  12  28  45  70 108 152 182 230 308 368 417
#     4  12  22  41  72 100 144 186 242 288 370 427
#     4  11  23  42  71 103 136 185 231 291 354 435
#     4  10  25  48  66  99 150 194 238 298 360 426
#
# _framework density 21.989868000000001
#
# number of rings (size 3 to 8) (size 9 to 14) (size 15 to 20)
#    0.000    1.333    4.167    2.500    2.333    2.000 
#    6.000    1.667    0.000    0.000    0.000    0.000 
#    0.000    0.000    0.000    0.000    0.000    0.000 
#
# Total GULP energy -133733.940447 kJ/mol
# GULP energy per Si atom -5572.247519 kJ/mol
# Density = 2.193982 g / cm^3
# Si number density = 21.989868 Si / 1000 Ang^3
#
#
#
# Elastic Constant Matrix: (Units=GPa)
#
#
# Indices 1 2 3 4 5 6 
#
# 1 85.4223 39.6675 43.6679 0.0000 2.3013 0.0000
# 2 39.6675 67.4507 50.6158 0.0000 -8.8560 0.0000
# 3 43.6679 50.6158 182.3371 0.0000 -14.0162 0.0000
# 4 0.0000 0.0000 0.0000 12.2585 0.0000 7.5505
# 5 2.3013 -8.8560 -14.0162 0.0000 38.6886 0.0000
# 6 0.0000 0.0000 0.0000 7.5505 0.0000 23.4474
#
#
#
# Elastic Compliance Matrix: (Units=1/GPa)
#
#
# Indices 1 2 3 4 5 6 
#
# 1 0.016967 -0.009101 -0.001826 0.000000 -0.003754 0.000000
# 2 -0.009101 0.023841 -0.004091 0.000000 0.004517 0.000000
# 3 -0.001826 -0.004091 0.007194 0.000000 0.001778 0.000000
# 4 0.000000 0.000000 0.000000 0.101759 0.000000 -0.032768
# 5 -0.003754 0.004517 0.001778 0.000000 0.027749 0.000000
# 6 0.000000 0.000000 0.000000 -0.032768 0.000000 0.053201
#
#
# Mechanical properties :
#
#
# Convention : Reuss Voigt Hill
#
# Bulk Modulus (GPa) = 55.66058 67.01250 61.33654
# Shear Modulus (GPa) = 18.74511 28.29617 23.52064
#
# Velocity S-wave (km/s) = 2.92283 3.59107 3.27404
# Velocity P-wave (km/s) = 6.06279 6.90903 6.49970
#
# Compressibility (1/GPa) = 0.01796604
#
# Stress axis : x y z
#
# Youngs Moduli (GPa) = 58.93693 41.94402 139.00493
#
# Poissons Ratio (x) = 0.38175 0.25376
# Poissons Ratio (y) = 0.53641 0.56872
# Poissons Ratio (z) = 0.10759 0.17161
#
# Static dielectric constant tensor:
#      x y z
#    x 2.441810 0.000000 -0.825660 
#    y 0.000000 1.809800 0.000000 
#    z -0.825660 0.000000 3.196000 
# 
# From -- ./inp_files/52908.got.cif
#   From: 2010.05.17/outbox.cif.g08.bks.cpg/sg15_27_cif.got.tgz:52908.got - 2010.06.03 18:47:42.
