data_PCOD9299041
_publ_section_title
;
Structure prediction by ZEFSAII (Michael W. Deem and Ramdas Pophale) SiO2 
 PCOD9299041
Probable space group: C 2/C
;
_chemical_formula_sum "Si O2"
_cell_formula_units_Z 40
_cell_length_a 26.415654
_cell_length_b 4.943288
_cell_length_c 23.916010
_cell_angle_alpha 90.000000
_cell_angle_beta 28.780610
_cell_angle_gamma 90.000000
_cell_volume 1503.569791
_symmetry_space_group_name_H-M "C 2/C"
_symmetry_group_IT_number 15
_symmetry_cell_setting 'monoclinic'
loop_
_space_group_symop_operation_xyz
x,y,z
-x,y,1/2-z
-x,-y,-z
x,-y,1/2+z
1/2+x,1/2+y,z
1/2-x,1/2+y,1/2-z
1/2-x,1/2-y,-z
1/2+x,1/2-y,1/2+z
loop_
_atom_site_type_symbol
_atom_site_label
_atom_site_fract_x
_atom_site_fract_y
_atom_site_fract_z
Si Si1 0.838996 0.274285 0.718255
Si Si2 0.129742 0.213275 0.056770
Si Si3 0.250000 0.750000 0.000000
Si Si4 0.000000 0.556321 0.750000
Si Si5 0.925869 0.911070 0.245479
Si Si6 0.806037 0.284211 0.629030
O O1 0.915824 0.144585 0.689677
O O2 0.872440 0.238940 0.621347
O O3 0.793915 0.574786 0.774831
O O4 0.736894 0.085336 0.822392
O O5 0.135153 0.429847 0.101500
O O6 0.190809 0.945175 0.010535
O O7 0.137053 0.270094 0.985035
O O8 0.001818 0.156477 0.194182
O O9 0.184232 0.924537 0.117034
O O10 0.980456 0.348449 0.716784
#
# Coordination Sequence:
#
# PCOD9299041 Si02
#       6
#     8   8   4   4   8   8
#     4  10  24  47  73 105 141 191 242 295 357 428
#     4  12  26  44  70 106 144 192 238 299 354 438
#     4  12  22  46  64  96 146 192 226 292 362 420
#     4  12  26  44  64 110 144 174 250 292 358 430
#     4  12  26  44  68 104 142 184 242 293 357 435
#     4  10  24  46  75 104 141 191 243 293 360 424
#
# _framework density 26.603356000000002
#
# number of rings (size 3 to 8) (size 9 to 14) (size 15 to 20)
#    0.000    0.800    6.000    0.000    8.400    1.600 
#    0.000    1.000    0.000    0.000    0.000    0.000 
#    0.000    0.000    0.000    0.000    0.000    0.000 
#
# Total GULP energy -111387.672557 kJ/mol
# GULP energy per Si atom -5569.383628 kJ/mol
# Density = 2.654281 g / cm^3
# Si number density = 26.603356 Si / 1000 Ang^3
#
#
#
# Elastic Constant Matrix: (Units=GPa)
#
#
# Indices 1 2 3 4 5 6 
#
# 1 198.8795 4.2437 50.4415 -0.0954 50.4667 0.4826
# 2 4.2437 93.9318 1.9628 -0.3530 11.0054 0.1203
# 3 50.4415 1.9628 131.4468 -0.2895 32.8619 -0.0196
# 4 -0.0954 -0.3530 -0.2895 22.4274 0.1484 7.6549
# 5 50.4667 11.0054 32.8619 0.1484 61.2107 0.1670
# 6 0.4826 0.1203 -0.0196 7.6549 0.1670 19.1430
#
#
#
# Elastic Compliance Matrix: (Units=1/GPa)
#
#
# Indices 1 2 3 4 5 6 
#
# 1 0.006566 0.000288 -0.001337 0.000104 -0.004748 -0.000169
# 2 0.000288 0.010905 0.000320 0.000245 -0.002370 -0.000153
# 3 -0.001337 0.000320 0.009073 0.000135 -0.003826 0.000020
# 4 0.000104 0.000245 0.000135 0.051646 -0.000271 -0.020654
# 5 -0.004748 -0.002370 -0.003826 -0.000271 0.022732 0.000041
# 6 -0.000169 -0.000153 0.000020 -0.020654 0.000041 0.060502
#
#
# Mechanical properties :
#
#
# Convention : Reuss Voigt Hill
#
# Bulk Modulus (GPa) = 39.86318 59.72826 49.79572
# Shear Modulus (GPa) = 29.19794 45.06356 37.13075
#
# Velocity S-wave (km/s) = 3.31649 4.12017 3.73998
# Velocity P-wave (km/s) = 5.44814 6.71823 6.11624
#
# Compressibility (1/GPa) = 0.02508581
#
# Stress axis : x y z
#
# Youngs Moduli (GPa) = 152.29283 91.70010 110.21925
#
# Poissons Ratio (x) = -0.02642 0.14736
# Poissons Ratio (y) = -0.04388 -0.03523
# Poissons Ratio (z) = 0.20361 -0.02931
#
# Static dielectric constant tensor:
#      x y z
#    x 2.214440 0.002060 0.049570 
#    y 0.002060 2.297980 0.004360 
#    z 0.049570 0.004360 2.160240 
# 
# From -- ./inp_files/175341.got.cif
#   From: 2010.05.17/outbox.cif.g08.bks.cpg/sg15_88_cif.got.tgz:175341.got - 2010.06.03 18:47:42.
