data_PCOD9299910
_publ_section_title
;
Structure prediction by ZEFSAII (Michael W. Deem and Ramdas Pophale) SiO2 
 PCOD9299910
Probable space group: C 2/C
;
_chemical_formula_sum "Si O2"
_cell_formula_units_Z 52
_cell_length_a 13.549872
_cell_length_b 17.235291
_cell_length_c 13.466437
_cell_angle_alpha 90.000000
_cell_angle_beta 133.485643
_cell_angle_gamma 90.000000
_cell_volume 2281.770537
_symmetry_space_group_name_H-M "C 2/C"
_symmetry_group_IT_number 15
_symmetry_cell_setting 'monoclinic'
loop_
_space_group_symop_operation_xyz
x,y,z
-x,y,1/2-z
-x,-y,-z
x,-y,1/2+z
1/2+x,1/2+y,z
1/2-x,1/2+y,1/2-z
1/2-x,1/2-y,-z
1/2+x,1/2-y,1/2+z
loop_
_atom_site_type_symbol
_atom_site_label
_atom_site_fract_x
_atom_site_fract_y
_atom_site_fract_z
Si Si1 0.000000 0.857296 0.750000
Si Si2 0.286997 0.833084 0.206980
Si Si3 0.263706 0.413502 0.984649
Si Si4 0.422408 0.443707 0.518464
Si Si5 0.829493 0.306906 0.762653
Si Si6 0.500000 0.313599 0.250000
Si Si7 0.543312 0.913295 0.008060
Si Si8 0.250000 0.750000 0.000000
O O1 0.025725 0.911717 0.672632
O O2 0.871708 0.809419 0.621267
O O3 0.272638 0.748269 0.247585
O O4 0.378942 0.882473 0.341897
O O5 0.322275 0.818549 0.117373
O O6 0.142266 0.876123 0.093994
O O7 0.227941 0.364865 0.860502
O O8 0.307308 0.501482 0.989402
O O9 0.388640 0.367953 0.121531
O O10 0.139886 0.410169 0.977445
O O11 0.500000 0.500000 0.500000
O O12 0.925643 0.244357 0.774499
O O13 0.916633 0.357175 0.899467
O O14 0.500000 0.000000 0.000000
#
# Coordination Sequence:
#
# PCOD9299910 Si02
#       8
#     4   8   8   8   8   4   8   4
#     4  10  25  48  72 105 142 192 248 304 381 438
#     4  11  26  46  70 109 139 196 253 300 373 443
#     4  12  25  45  72 110 149 192 245 308 386 447
#     4  11  26  45  72 106 149 191 243 306 373 454
#     4  12  24  44  74 108 148 188 246 314 376 452
#     4  12  21  42  74 105 146 184 242 314 363 452
#     4  12  27  46  74 111 154 198 243 312 388 454
#     4  10  26  48  72 102 144 190 252 314 358 446
#
# _framework density 22.789318999999999
#
# number of rings (size 3 to 8) (size 9 to 14) (size 15 to 20)
#    0.000    0.615    3.077    3.692    8.615    2.462 
#    0.000    0.000    0.000    0.000    0.000    0.000 
#    0.000    0.000    0.000    0.000    0.000    0.000 
#
# Total GULP energy -144935.632345 kJ/mol
# GULP energy per Si atom -5574.447398 kJ/mol
# Density = 2.273745 g / cm^3
# Si number density = 22.789319 Si / 1000 Ang^3
#
#
#
# Elastic Constant Matrix: (Units=GPa)
#
#
# Indices 1 2 3 4 5 6 
#
# 1 25.3512 29.9637 30.0096 0.0000 -9.3722 0.0000
# 2 29.9637 85.3989 55.9309 0.0000 -19.0747 0.0000
# 3 30.0096 55.9309 189.6753 0.0000 -29.3078 0.0000
# 4 0.0000 0.0000 0.0000 35.3562 0.0000 11.1669
# 5 -9.3722 -19.0747 -29.3078 0.0000 19.6509 0.0000
# 6 0.0000 0.0000 0.0000 11.1669 0.0000 42.1415
#
#
#
# Elastic Compliance Matrix: (Units=1/GPa)
#
#
# Indices 1 2 3 4 5 6 
#
# 1 0.071641 -0.020721 -0.003967 0.000000 0.008139 0.000000
# 2 -0.020721 0.022198 -0.001904 0.000000 0.008825 0.000000
# 3 -0.003967 -0.001904 0.007645 0.000000 0.007662 0.000000
# 4 0.000000 0.000000 0.000000 0.030867 0.000000 -0.008179
# 5 0.008139 0.008825 0.007662 0.000000 0.074764 0.000000
# 6 0.000000 0.000000 0.000000 -0.008179 0.000000 0.025897
#
#
# Mechanical properties :
#
#
# Convention : Reuss Voigt Hill
#
# Bulk Modulus (GPa) = 20.70328 59.13709 39.92018
# Shear Modulus (GPa) = 16.54009 31.73113 24.13561
#
# Velocity S-wave (km/s) = 2.69696 3.73549 3.25787
# Velocity P-wave (km/s) = 4.33618 6.67915 5.63087
#
# Compressibility (1/GPa) = 0.04830153
#
# Stress axis : x y z
#
# Youngs Moduli (GPa) = 13.95843 45.04913 130.80241
#
# Poissons Ratio (x) = 0.93344 0.51892
# Poissons Ratio (y) = 0.28923 0.24901
# Poissons Ratio (z) = 0.05538 0.08576
#
# Static dielectric constant tensor:
#      x y z
#    x 1.993570 0.000000 -0.030130 
#    y 0.000000 1.906580 0.000000 
#    z -0.030130 0.000000 1.793820 
# 
# From -- ./inp_files/155568.got.cif
#   From: 2010.05.17/outbox.cif.g08.bks.cpg/sg15_78_cif.got.tgz:155568.got - 2010.06.03 18:47:42.
