data_PCOD9299613
_publ_section_title
;
Structure prediction by ZEFSAII (Michael W. Deem and Ramdas Pophale) SiO2 
 PCOD9299613
Probable space group: C 2/C
;
_chemical_formula_sum "Si O2"
_cell_formula_units_Z 44
_cell_length_a 12.878614
_cell_length_b 6.831689
_cell_length_c 18.169999
_cell_angle_alpha 90.000000
_cell_angle_beta 90.548839
_cell_angle_gamma 90.000000
_cell_volume 1598.571966
_symmetry_space_group_name_H-M "C 2/C"
_symmetry_group_IT_number 15
_symmetry_cell_setting 'monoclinic'
loop_
_space_group_symop_operation_xyz
x,y,z
-x,y,1/2-z
-x,-y,-z
x,-y,1/2+z
1/2+x,1/2+y,z
1/2-x,1/2+y,1/2-z
1/2-x,1/2-y,-z
1/2+x,1/2-y,1/2+z
loop_
_atom_site_type_symbol
_atom_site_label
_atom_site_fract_x
_atom_site_fract_y
_atom_site_fract_z
Si Si1 0.243615 0.976959 0.478348
Si Si2 0.139343 0.137666 0.329779
Si Si3 0.439173 0.698483 0.981399
Si Si4 0.844714 0.519652 0.254247
Si Si5 0.042307 0.470356 0.097237
Si Si6 0.000000 0.122772 0.750000
O O1 0.250000 0.750000 0.500000
O O2 0.187299 0.044229 0.403301
O O3 0.177424 0.107433 0.535030
O O4 0.363635 0.020033 0.460980
O O5 0.225569 0.069415 0.269038
O O6 0.031148 0.032622 0.312816
O O7 0.136864 0.372278 0.313454
O O8 0.470966 0.813350 0.058142
O O9 0.500000 0.500000 0.000000
O O10 0.498114 0.808249 0.913078
O O11 0.900836 0.425545 0.326726
O O12 0.904626 0.725000 0.250229
#
# Coordination Sequence:
#
# PCOD9299613 Si02
#       6
#     8   8   8   8   8   4
#     4  11  24  47  70 103 143 190 235 297 364 422
#     4  11  26  48  73 107 148 191 245 305 365 437
#     4  11  23  42  69 103 136 184 233 285 349 431
#     4  11  25  49  70 108 142 191 246 301 368 435
#     4  10  25  44  68 101 143 181 234 294 354 429
#     4  12  26  44  76 102 146 190 242 302 370 428
#
# _framework density 27.524567000000001
#
# number of rings (size 3 to 8) (size 9 to 14) (size 15 to 20)
#    0.000    1.091    3.636    1.091    7.636    0.000 
#    6.545    0.000    0.000    0.000    0.000    0.000 
#    0.000    0.000    0.000    0.000    0.000    0.000 
#
# Total GULP energy -122841.067851 kJ/mol
# GULP energy per Si atom -5583.684902 kJ/mol
# Density = 2.746192 g / cm^3
# Si number density = 27.524567 Si / 1000 Ang^3
#
#
#
# Elastic Constant Matrix: (Units=GPa)
#
#
# Indices 1 2 3 4 5 6 
#
# 1 60.9735 18.9404 -2.9480 0.0000 10.6261 0.0000
# 2 18.9404 164.2919 37.0841 0.0000 9.9276 0.0000
# 3 -2.9480 37.0841 110.8193 0.0000 28.1143 0.0000
# 4 0.0000 0.0000 0.0000 48.0933 0.0000 7.6196
# 5 10.6261 9.9276 28.1143 0.0000 40.7086 0.0000
# 6 0.0000 0.0000 0.0000 7.6196 0.0000 57.1961
#
#
#
# Elastic Compliance Matrix: (Units=1/GPa)
#
#
# Indices 1 2 3 4 5 6 
#
# 1 0.018358 -0.002387 0.002856 0.000000 -0.006182 0.000000
# 2 -0.002387 0.006895 -0.002549 0.000000 0.000702 0.000000
# 3 0.002856 -0.002549 0.012105 0.000000 -0.008484 0.000000
# 4 0.000000 0.000000 0.000000 0.021241 0.000000 -0.002830
# 5 -0.006182 0.000702 -0.008484 0.000000 0.031866 0.000000
# 6 0.000000 0.000000 0.000000 -0.002830 0.000000 0.017861
#
#
# Mechanical properties :
#
#
# Convention : Reuss Voigt Hill
#
# Bulk Modulus (GPa) = 30.12429 49.13750 39.63090
# Shear Modulus (GPa) = 40.46874 48.06681 44.26777
#
# Velocity S-wave (km/s) = 3.83858 4.18344 4.01471
# Velocity P-wave (km/s) = 5.53304 6.42074 5.99335
#
# Compressibility (1/GPa) = 0.03319580
#
# Stress axis : x y z
#
# Youngs Moduli (GPa) = 54.47361 145.03541 82.61141
#
# Poissons Ratio (x) = 0.34625 -0.23590
# Poissons Ratio (y) = 0.13005 0.21057
# Poissons Ratio (z) = -0.15555 0.36968
#
# Static dielectric constant tensor:
#      x y z
#    x 2.288680 0.000000 -0.193670 
#    y 0.000000 1.135190 0.000000 
#    z -0.193670 0.000000 2.176490 
# 
# From -- ./inp_files/271932.got.cif
#   From: 2010.05.17/outbox.cif.g08.bks.cpg/sg15_136_cif.got.tgz:271932.got - 2010.06.03 18:47:42.
