data_PCOD9299012
_publ_section_title
;
Structure prediction by ZEFSAII (Michael W. Deem and Ramdas Pophale) SiO2 
 PCOD9299012
Probable space group: C 2/C
;
_chemical_formula_sum "Si O2"
_cell_formula_units_Z 60
_cell_length_a 25.708138
_cell_length_b 11.024227
_cell_length_c 21.508667
_cell_angle_alpha 90.000000
_cell_angle_beta 25.878890
_cell_angle_gamma 90.000000
_cell_volume 2660.645349
_symmetry_space_group_name_H-M "C 2/C"
_symmetry_group_IT_number 15
_symmetry_cell_setting 'monoclinic'
loop_
_space_group_symop_operation_xyz
x,y,z
-x,y,1/2-z
-x,-y,-z
x,-y,1/2+z
1/2+x,1/2+y,z
1/2-x,1/2+y,1/2-z
1/2-x,1/2-y,-z
1/2+x,1/2-y,1/2+z
loop_
_atom_site_type_symbol
_atom_site_label
_atom_site_fract_x
_atom_site_fract_y
_atom_site_fract_z
Si Si1 0.519080 0.686123 0.961013
Si Si2 0.645776 0.437935 0.498392
Si Si3 0.418674 0.837001 0.399486
Si Si4 0.053130 0.577433 0.500394
Si Si5 0.000000 0.325941 0.750000
Si Si6 0.763938 0.521671 0.499479
Si Si7 0.195446 0.022352 0.316436
Si Si8 0.546878 0.645747 0.798706
O O1 0.532350 0.788126 0.997182
O O2 0.604035 0.576353 0.889026
O O3 0.564419 0.717182 0.843718
O O4 0.382397 0.645063 0.099260
O O5 0.613050 0.296640 0.540654
O O6 0.705733 0.477638 0.498150
O O7 0.726396 0.474254 0.352286
O O8 0.527614 0.520665 0.613877
O O9 0.500000 0.825317 0.250000
O O10 0.477350 0.914833 0.393256
O O11 0.301024 0.907984 0.502730
O O12 0.191762 0.540888 0.347910
O O13 0.000000 0.500000 0.500000
O O14 0.886128 0.406337 0.857343
O O15 0.027902 0.235358 0.663896
O O16 0.669810 0.608407 0.634797
#
# Coordination Sequence:
#
# PCOD9299012 Si02
#       8
#     8   8   8   8   4   8   8   8
#     4  10  24  46  73  97 139 188 241 304 360 444
#     4  11  24  47  74 105 139 195 241 303 367 434
#     4  12  27  49  74 110 149 187 247 302 367 435
#     4  12  29  46  75 109 145 191 244 307 366 435
#     4  12  26  42  64 104 146 186 240 298 360 438
#     4  12  25  44  68 104 146 187 240 302 366 431
#     4  10  24  48  71 103 141 189 246 293 376 438
#     4  11  24  44  73  99 136 192 242 296 370 433
#
# _framework density 22.550920000000001
#
# number of rings (size 3 to 8) (size 9 to 14) (size 15 to 20)
#    0.000    0.800    3.333    2.400    7.467    1.067 
#    2.400    0.000    0.000    0.000    0.000    0.000 
#    0.000    0.000    0.000    0.000    0.000    0.000 
#
# Total GULP energy -167668.258019 kJ/mol
# GULP energy per Si atom -5588.941934 kJ/mol
# Density = 2.249959 g / cm^3
# Si number density = 22.550920 Si / 1000 Ang^3
#
#
#
# Elastic Constant Matrix: (Units=GPa)
#
#
# Indices 1 2 3 4 5 6 
#
# 1 138.4292 7.8477 23.8468 0.0000 28.0859 0.0000
# 2 7.8477 61.2626 19.2940 0.0000 3.9198 0.0000
# 3 23.8468 19.2940 61.8683 0.0000 9.0187 0.0000
# 4 0.0000 0.0000 0.0000 11.5418 0.0000 3.3404
# 5 28.0859 3.9198 9.0187 0.0000 38.0304 0.0000
# 6 0.0000 0.0000 0.0000 3.3404 0.0000 37.6566
#
#
#
# Elastic Compliance Matrix: (Units=1/GPa)
#
#
# Indices 1 2 3 4 5 6 
#
# 1 0.008870 0.000053 -0.002569 0.000000 -0.005947 0.000000
# 2 0.000053 0.018112 -0.005584 0.000000 -0.000582 0.000000
# 3 -0.002569 -0.005584 0.019198 0.000000 -0.002080 0.000000
# 4 0.000000 0.000000 0.000000 0.088925 0.000000 -0.007888
# 5 -0.005947 -0.000582 -0.002080 0.000000 0.031240 0.000000
# 6 0.000000 0.000000 0.000000 -0.007888 0.000000 0.027256
#
#
# Mechanical properties :
#
#
# Convention : Reuss Voigt Hill
#
# Bulk Modulus (GPa) = 33.35404 40.39300 36.87352
# Shear Modulus (GPa) = 22.74867 31.48385 27.11626
#
# Velocity S-wave (km/s) = 3.17956 3.74053 3.47139
# Velocity P-wave (km/s) = 5.31997 6.05030 5.69685
#
# Compressibility (1/GPa) = 0.02998138
#
# Stress axis : x y z
#
# Youngs Moduli (GPa) = 112.74019 55.21132 52.08850
#
# Poissons Ratio (x) = -0.00294 0.13379
# Poissons Ratio (y) = -0.00600 0.29087
# Poissons Ratio (z) = 0.28958 0.30831
#
# Static dielectric constant tensor:
#      x y z
#    x 1.873410 0.000000 0.021740 
#    y 0.000000 1.862740 0.000000 
#    z 0.021740 0.000000 1.845850 
# 
# From -- ./inp_files/255556.got.cif
#   From: 2010.05.17/outbox.cif.g08.bks.cpg/sg15_128_cif.got.tgz:255556.got - 2010.06.03 18:47:42.
