data_PCOD9299939
_publ_section_title
;
Structure prediction by ZEFSAII (Michael W. Deem and Ramdas Pophale) SiO2 
 PCOD9299939
Probable space group: C 2/C
;
_chemical_formula_sum "Si O2"
_cell_formula_units_Z 32
_cell_length_a 6.869429
_cell_length_b 18.957021
_cell_length_c 10.375524
_cell_angle_alpha 90.000000
_cell_angle_beta 104.464557
_cell_angle_gamma 90.000000
_cell_volume 1308.313283
_symmetry_space_group_name_H-M "C 2/C"
_symmetry_group_IT_number 15
_symmetry_cell_setting 'monoclinic'
loop_
_space_group_symop_operation_xyz
x,y,z
-x,y,1/2-z
-x,-y,-z
x,-y,1/2+z
1/2+x,1/2+y,z
1/2-x,1/2+y,1/2-z
1/2-x,1/2-y,-z
1/2+x,1/2-y,1/2+z
loop_
_atom_site_type_symbol
_atom_site_label
_atom_site_fract_x
_atom_site_fract_y
_atom_site_fract_z
Si Si1 0.383714 0.863933 0.568943
Si Si2 0.127528 0.984983 0.648516
Si Si3 0.258287 0.288943 0.712101
Si Si4 0.273507 0.136941 0.757812
O O1 0.622379 0.843990 0.606890
O O2 0.296106 0.805671 0.649736
O O3 0.284394 0.860170 0.413867
O O4 0.311859 0.935916 0.629118
O O5 0.000000 0.954277 0.750000
O O6 0.811678 0.062296 0.795669
O O7 0.000000 0.000000 0.500000
O O8 0.500000 0.293314 0.750000
O O9 0.189469 0.208083 0.678509
O O10 0.500000 0.135827 0.750000
#
# Coordination Sequence:
#
# PCOD9299939 Si02
#       4
#     8   8   8   8
#     4  11  25  47  79 110 158 202 263 323 388 461
#     4  12  27  49  78 117 157 207 261 319 394 465
#     4  10  25  48  78 115 151 203 261 325 390 468
#     4  11  27  47  77 111 157 207 260 324 392 469
#
# _framework density 24.458974999999999
#
# number of rings (size 3 to 8) (size 9 to 14) (size 15 to 20)
#    0.000    1.000    2.500    1.500    7.000   13.000 
#    0.000    0.000    0.000    1.500    0.000    0.000 
#    0.000    0.000    0.000    0.000    0.000    0.000 
#
# Total GULP energy -89425.673205 kJ/mol
# GULP energy per Si atom -5589.104575 kJ/mol
# Density = 2.440331 g / cm^3
# Si number density = 24.458975 Si / 1000 Ang^3
#
#
#
# Elastic Constant Matrix: (Units=GPa)
#
#
# Indices 1 2 3 4 5 6 
#
# 1 144.0080 70.6321 23.3874 0.0000 0.5222 0.0000
# 2 70.6321 196.4256 28.3008 0.0000 17.7665 0.0000
# 3 23.3874 28.3008 93.6184 0.0000 15.8358 0.0000
# 4 0.0000 0.0000 0.0000 24.7014 0.0000 -3.8460
# 5 0.5222 17.7665 15.8358 0.0000 35.2422 0.0000
# 6 0.0000 0.0000 0.0000 -3.8460 0.0000 55.4672
#
#
#
# Elastic Compliance Matrix: (Units=1/GPa)
#
#
# Indices 1 2 3 4 5 6 
#
# 1 0.008716 -0.003098 -0.001605 0.000000 0.002154 0.000000
# 2 -0.003098 0.006575 -0.000715 0.000000 -0.002947 0.000000
# 3 -0.001605 -0.000715 0.012158 0.000000 -0.005079 0.000000
# 4 0.000000 0.000000 0.000000 0.040925 0.000000 0.002838
# 5 0.002154 -0.002947 -0.005079 0.000000 0.032111 0.000000
# 6 0.000000 0.000000 0.000000 0.002838 0.000000 0.018225
#
#
# Mechanical properties :
#
#
# Convention : Reuss Voigt Hill
#
# Bulk Modulus (GPa) = 60.19613 75.41029 67.80321
# Shear Modulus (GPa) = 37.01383 43.86427 40.43905
#
# Velocity S-wave (km/s) = 3.89434 4.23943 4.07054
# Velocity P-wave (km/s) = 6.69968 7.40688 7.06214
#
# Compressibility (1/GPa) = 0.01661236
#
# Stress axis : x y z
#
# Youngs Moduli (GPa) = 114.72685 152.10254 82.25062
#
# Poissons Ratio (x) = 0.47118 0.13204
# Poissons Ratio (y) = 0.35540 0.05882
# Poissons Ratio (z) = 0.18418 0.10876
#
# Static dielectric constant tensor:
#      x y z
#    x 2.058390 0.000000 -0.058200 
#    y 0.000000 2.011450 0.000000 
#    z -0.058200 0.000000 2.104190 
# 
# From -- ./inp_files/77090.got.cif
#   From: 2010.05.17/outbox.cif.g08.bks.cpg/sg15_39_cif.got.tgz:77090.got - 2010.06.03 18:47:42.
