data_PCOD9299834
_publ_section_title
;
Structure prediction by ZEFSAII (Michael W. Deem and Ramdas Pophale) SiO2 
 PCOD9299834
Probable space group: C 2/C
;
_chemical_formula_sum "Si O2"
_cell_formula_units_Z 56
_cell_length_a 8.167995
_cell_length_b 13.340785
_cell_length_c 25.723076
_cell_angle_alpha 90.000000
_cell_angle_beta 64.078831
_cell_angle_gamma 90.000000
_cell_volume 2520.988484
_symmetry_space_group_name_H-M "C 2/C"
_symmetry_group_IT_number 15
_symmetry_cell_setting 'monoclinic'
loop_
_space_group_symop_operation_xyz
x,y,z
-x,y,1/2-z
-x,-y,-z
x,-y,1/2+z
1/2+x,1/2+y,z
1/2-x,1/2+y,1/2-z
1/2-x,1/2-y,-z
1/2+x,1/2-y,1/2+z
loop_
_atom_site_type_symbol
_atom_site_label
_atom_site_fract_x
_atom_site_fract_y
_atom_site_fract_z
Si Si1 0.496871 0.052417 0.444196
Si Si2 0.913609 0.244227 0.159540
Si Si3 0.500000 0.865180 0.250000
Si Si4 0.154772 0.859990 0.018282
Si Si5 0.800021 0.243953 0.553165
Si Si6 0.710991 0.408726 0.130083
Si Si7 0.795542 0.439116 0.780238
Si Si8 0.000000 0.995957 0.750000
O O1 0.283987 0.072592 0.463698
O O2 0.599669 0.157288 0.438636
O O3 0.500000 0.000000 0.500000
O O4 0.614314 0.982961 0.390379
O O5 0.918022 0.296265 0.215887
O O6 0.777063 0.302829 0.141521
O O7 0.843148 0.130246 0.168828
O O8 0.114780 0.261563 0.110417
O O9 0.654281 0.946421 0.210516
O O10 0.164429 0.899317 0.076090
O O11 0.944529 0.845553 0.035759
O O12 0.250000 0.750000 0.000000
O O13 0.750000 0.250000 0.500000
O O14 0.554480 0.444814 0.190527
O O15 0.686889 0.441151 0.740439
O O16 0.000000 0.392163 0.750000
#
# Coordination Sequence:
#
# PCOD9299834 Si02
#       8
#     8   8   4   8   8   8   8   4
#     4   9  19  41  64  93 132 178 232 289 355 437
#     4  12  24  45  73 100 148 190 241 315 368 443
#     4  10  25  49  68 106 148 186 261 301 374 458
#     4   9  20  40  64  96 133 176 235 289 357 438
#     4  11  23  42  65 103 138 184 235 301 368 441
#     4  11  23  41  69  96 136 187 234 300 379 438
#     4  10  25  47  67 106 142 187 255 299 371 457
#     4  12  23  45  70 100 140 190 239 309 380 446
#
# _framework density 22.213508000000001
#
# number of rings (size 3 to 8) (size 9 to 14) (size 15 to 20)
#    0.429    1.143    1.429    3.857    3.000    0.000 
#   18.000    3.571    0.000    0.000    0.000    0.000 
#    0.000    0.000    0.000    0.000    0.000    0.000 
#
# Total GULP energy -156105.428444 kJ/mol
# GULP energy per Si atom -5575.193873 kJ/mol
# Density = 2.216295 g / cm^3
# Si number density = 22.213508 Si / 1000 Ang^3
#
#
#
# Elastic Constant Matrix: (Units=GPa)
#
#
# Indices 1 2 3 4 5 6 
#
# 1 118.9521 16.3410 31.0898 0.0000 -19.1966 0.0000
# 2 16.3410 60.3730 28.8724 0.0000 -7.3112 0.0000
# 3 31.0898 28.8724 115.6937 0.0000 -20.0699 0.0000
# 4 0.0000 0.0000 0.0000 29.2991 0.0000 -16.9622
# 5 -19.1966 -7.3112 -20.0699 0.0000 31.6248 0.0000
# 6 0.0000 0.0000 0.0000 -16.9622 0.0000 25.4193
#
#
#
# Elastic Compliance Matrix: (Units=1/GPa)
#
#
# Indices 1 2 3 4 5 6 
#
# 1 0.009730 -0.001369 -0.001465 0.000000 0.004660 0.000000
# 2 -0.001369 0.019068 -0.004237 0.000000 0.000889 0.000000
# 3 -0.001465 -0.004237 0.010979 0.000000 0.005099 0.000000
# 4 0.000000 0.000000 0.000000 0.055616 0.000000 0.037113
# 5 0.004660 0.000889 0.005099 0.000000 0.037891 0.000000
# 6 0.000000 0.000000 0.000000 0.037113 0.000000 0.064105
#
#
# Mechanical properties :
#
#
# Convention : Reuss Voigt Hill
#
# Bulk Modulus (GPa) = 39.00677 49.73614 44.37146
# Shear Modulus (GPa) = 22.71961 31.84968 27.28464
#
# Velocity S-wave (km/s) = 3.20157 3.79066 3.50850
# Velocity P-wave (km/s) = 5.59149 6.44961 6.03582
#
# Compressibility (1/GPa) = 0.02563658
#
# Stress axis : x y z
#
# Youngs Moduli (GPa) = 102.77900 52.44430 91.08371
#
# Poissons Ratio (x) = 0.07178 0.13340
# Poissons Ratio (y) = 0.14068 0.38588
# Poissons Ratio (z) = 0.15053 0.22218
#
# Static dielectric constant tensor:
#      x y z
#    x 1.842020 0.000000 -0.072580 
#    y 0.000000 1.860800 0.000000 
#    z -0.072580 0.000000 1.753440 
# 
# From -- ./inp_files/307981.got.cif
#   From: 2010.05.17/outbox.cif.g08.bks.cpg/sg15_154_cif.got.tgz:307981.got - 2010.06.03 18:47:42.
