data_PCOD9299484
_publ_section_title
;
Structure prediction by ZEFSAII (Michael W. Deem and Ramdas Pophale) SiO2 
 PCOD9299484
Probable space group: C 2/C
;
_chemical_formula_sum "Si O2"
_cell_formula_units_Z 52
_cell_length_a 12.175842
_cell_length_b 8.262621
_cell_length_c 24.512152
_cell_angle_alpha 90.000000
_cell_angle_beta 65.891942
_cell_angle_gamma 90.000000
_cell_volume 2250.934421
_symmetry_space_group_name_H-M "C 2/C"
_symmetry_group_IT_number 15
_symmetry_cell_setting 'monoclinic'
loop_
_space_group_symop_operation_xyz
x,y,z
-x,y,1/2-z
-x,-y,-z
x,-y,1/2+z
1/2+x,1/2+y,z
1/2-x,1/2+y,1/2-z
1/2-x,1/2-y,-z
1/2+x,1/2-y,1/2+z
loop_
_atom_site_type_symbol
_atom_site_label
_atom_site_fract_x
_atom_site_fract_y
_atom_site_fract_z
Si Si1 0.681064 0.300967 0.216622
Si Si2 0.387210 0.195850 0.846722
Si Si3 0.000000 0.044880 0.250000
Si Si4 0.806074 0.008189 0.069707
Si Si5 0.406389 0.246160 0.389723
Si Si6 0.441320 0.405516 0.938735
Si Si7 0.896508 0.468833 0.687830
O O1 0.589604 0.427622 0.264164
O O2 0.628884 0.270660 0.166929
O O3 0.806894 0.392200 0.185855
O O4 0.673229 0.140333 0.253999
O O5 0.410168 0.344752 0.802506
O O6 0.260535 0.106437 0.873116
O O7 0.408691 0.266350 0.902845
O O8 0.489892 0.067046 0.812075
O O9 0.918185 0.100549 0.073765
O O10 0.702484 0.129369 0.068658
O O11 0.862984 0.903244 0.009525
O O12 0.415336 0.418402 0.417154
O O13 0.533654 0.151046 0.367716
#
# Coordination Sequence:
#
# PCOD9299484 Si02
#       7
#     8   8   4   8   8   8   8
#     4  12  23  44  62  97 137 179 224 274 323 408
#     4  11  24  43  65  97 136 175 222 276 332 403
#     4  12  24  40  64  96 134 180 214 272 334 392
#     4  10  25  41  72  96 133 175 224 281 334 397
#     4  11  23  42  65  97 134 171 224 280 328 399
#     4  11  22  46  68 100 129 177 226 277 341 388
#     4  11  25  40  65  94 133 181 222 265 335 394
#
# _framework density 23.101517000000001
#
# number of rings (size 3 to 8) (size 9 to 14) (size 15 to 20)
#    0.000    0.923    3.077    2.769    6.462    1.231 
#    0.000    0.000    0.000   10.154    0.000    0.000 
#    0.000    0.000    0.000    0.000    0.000    0.000 
#
# Total GULP energy -145417.178337 kJ/mol
# GULP energy per Si atom -5592.968398 kJ/mol
# Density = 2.304894 g / cm^3
# Si number density = 23.101517 Si / 1000 Ang^3
#
#
#
# Elastic Constant Matrix: (Units=GPa)
#
#
# Indices 1 2 3 4 5 6 
#
# 1 84.7817 23.6458 39.9812 0.0000 -36.1944 0.0000
# 2 23.6458 91.8817 24.3379 0.0000 -14.7495 0.0000
# 3 39.9812 24.3379 69.7837 0.0000 -23.9498 0.0000
# 4 0.0000 0.0000 0.0000 39.7454 0.0000 -4.5283
# 5 -36.1944 -14.7495 -23.9498 0.0000 34.8868 0.0000
# 6 0.0000 0.0000 0.0000 -4.5283 0.0000 33.9026
#
#
#
# Elastic Compliance Matrix: (Units=1/GPa)
#
#
# Indices 1 2 3 4 5 6 
#
# 1 0.023414 -0.001233 -0.006314 0.000000 0.019435 0.000000
# 2 -0.001233 0.012281 -0.002922 0.000000 0.001907 0.000000
# 3 -0.006314 -0.002922 0.021317 0.000000 0.006848 0.000000
# 4 0.000000 0.000000 0.000000 0.025549 0.000000 0.003413
# 5 0.019435 0.001907 0.006848 0.000000 0.054335 0.000000
# 6 0.000000 0.000000 0.000000 0.003413 0.000000 0.029952
#
#
# Mechanical properties :
#
#
# Convention : Reuss Voigt Hill
#
# Bulk Modulus (GPa) = 27.72191 46.93076 37.32633
# Shear Modulus (GPa) = 25.02364 32.27242 28.64803
#
# Velocity S-wave (km/s) = 3.29478 3.74168 3.52532
# Velocity P-wave (km/s) = 5.14783 6.24708 5.72390
#
# Compressibility (1/GPa) = 0.03607255
#
# Stress axis : x y z
#
# Youngs Moduli (GPa) = 42.71003 81.42627 46.91110
#
# Poissons Ratio (x) = 0.10041 0.29620
# Poissons Ratio (y) = 0.05267 0.13709
# Poissons Ratio (z) = 0.26968 0.23795
#
# Static dielectric constant tensor:
#      x y z
#    x 1.867000 0.000000 -0.018580 
#    y 0.000000 1.889580 0.000000 
#    z -0.018580 0.000000 1.889650 
# 
# From -- ./inp_files/291465.got.cif
#   From: 2010.05.17/outbox.cif.g08.bks.cpg/sg15_146_cif.got.tgz:291465.got - 2010.06.03 18:47:42.
