data_PCOD9299957
_publ_section_title
;
Structure prediction by ZEFSAII (Michael W. Deem and Ramdas Pophale) SiO2 
 PCOD9299957
Probable space group: C 2/C
;
_chemical_formula_sum "Si O2"
_cell_formula_units_Z 36
_cell_length_a 18.535815
_cell_length_b 9.043078
_cell_length_c 8.202939
_cell_angle_alpha 90.000000
_cell_angle_beta 103.531151
_cell_angle_gamma 90.000000
_cell_volume 1336.817756
_symmetry_space_group_name_H-M "C 2/C"
_symmetry_group_IT_number 15
_symmetry_cell_setting 'monoclinic'
loop_
_space_group_symop_operation_xyz
x,y,z
-x,y,1/2-z
-x,-y,-z
x,-y,1/2+z
1/2+x,1/2+y,z
1/2-x,1/2+y,1/2-z
1/2-x,1/2-y,-z
1/2+x,1/2-y,1/2+z
loop_
_atom_site_type_symbol
_atom_site_label
_atom_site_fract_x
_atom_site_fract_y
_atom_site_fract_z
Si Si1 0.500000 0.626814 0.250000
Si Si2 0.830228 0.318349 0.583366
Si Si3 0.739663 0.578234 0.478257
Si Si4 0.139007 0.947840 0.190128
Si Si5 0.484593 0.168389 0.043810
O O1 0.716830 0.525099 0.288307
O O2 0.563670 0.521720 0.207728
O O3 0.750000 0.250000 0.500000
O O4 0.812314 0.491691 0.575869
O O5 0.854932 0.223529 0.752545
O O6 0.896008 0.297893 0.489060
O O7 0.750000 0.750000 0.500000
O O8 0.658892 0.538199 0.512412
O O9 0.019736 0.770961 0.919172
O O10 0.500000 0.182060 0.250000
O O11 0.500000 0.000000 0.000000
#
# Coordination Sequence:
#
# PCOD9299957 Si02
#       5
#     4   8   8   8   8
#     4  12  28  52  80 122 170 216 292 338 446 520
#     4  10  25  49  75 113 166 209 282 343 425 516
#     4  11  25  46  80 113 157 210 275 339 421 499
#     4  11  26  47  77 116 157 216 266 351 414 511
#     4  12  29  51  83 121 170 225 282 363 436 519
#
# _framework density 26.929622999999999
#
# number of rings (size 3 to 8) (size 9 to 14) (size 15 to 20)
#    0.000    0.889    1.111    4.000    7.778    7.111 
#    0.000    0.000    0.000    0.000    0.000    0.000 
#    0.000    0.000    0.000    0.000    0.000    0.000 
#
# Total GULP energy -100530.128038 kJ/mol
# GULP energy per Si atom -5585.007113 kJ/mol
# Density = 2.686833 g / cm^3
# Si number density = 26.929623 Si / 1000 Ang^3
#
#
#
# Elastic Constant Matrix: (Units=GPa)
#
#
# Indices 1 2 3 4 5 6 
#
# 1 153.6511 16.3458 19.0131 0.0000 -20.6741 0.0000
# 2 16.3458 170.7443 26.4275 0.0000 8.6562 0.0000
# 3 19.0131 26.4275 101.5028 0.0000 -6.6768 0.0000
# 4 0.0000 0.0000 0.0000 31.9273 0.0000 1.5813
# 5 -20.6741 8.6562 -6.6768 0.0000 32.6303 0.0000
# 6 0.0000 0.0000 0.0000 1.5813 0.0000 60.1124
#
#
#
# Elastic Compliance Matrix: (Units=1/GPa)
#
#
# Indices 1 2 3 4 5 6 
#
# 1 0.007330 -0.000807 -0.000855 0.000000 0.004683 0.000000
# 2 -0.000807 0.006319 -0.001660 0.000000 -0.002527 0.000000
# 3 -0.000855 -0.001660 0.010580 0.000000 0.002064 0.000000
# 4 0.000000 0.000000 0.000000 0.031362 0.000000 -0.000825
# 5 0.004683 -0.002527 0.002064 0.000000 0.034706 0.000000
# 6 0.000000 0.000000 0.000000 -0.000825 0.000000 0.016657
#
#
# Mechanical properties :
#
#
# Convention : Reuss Voigt Hill
#
# Bulk Modulus (GPa) = 56.86650 61.05233 58.95941
# Shear Modulus (GPa) = 41.85477 49.20811 45.53144
#
# Velocity S-wave (km/s) = 3.94665 4.27931 4.11634
# Velocity P-wave (km/s) = 6.47538 6.86564 6.67336
#
# Compressibility (1/GPa) = 0.01758505
#
# Stress axis : x y z
#
# Youngs Moduli (GPa) = 136.42529 158.25129 94.51685
#
# Poissons Ratio (x) = 0.12768 0.08080
# Poissons Ratio (y) = 0.11007 0.15693
# Poissons Ratio (z) = 0.11663 0.26275
#
# Static dielectric constant tensor:
#      x y z
#    x 2.130300 0.000000 -0.022530 
#    y 0.000000 2.205360 0.000000 
#    z -0.022530 0.000000 2.241800 
# 
# From -- ./inp_files/102617.got.cif
#   From: 2010.05.17/outbox.cif.g08.bks.cpg/sg15_52_cif.got.tgz:102617.got - 2010.06.03 18:47:42.
