data_PCOD9299328
_publ_section_title
;
Structure prediction by ZEFSAII (Michael W. Deem and Ramdas Pophale) SiO2 
 PCOD9299328
Probable space group: C 2/C
;
_chemical_formula_sum "Si O2"
_cell_formula_units_Z 36
_cell_length_a 15.491171
_cell_length_b 10.235683
_cell_length_c 18.508841
_cell_angle_alpha 90.000000
_cell_angle_beta 26.595593
_cell_angle_gamma 90.000000
_cell_volume 1313.886939
_symmetry_space_group_name_H-M "C 2/C"
_symmetry_group_IT_number 15
_symmetry_cell_setting 'monoclinic'
loop_
_space_group_symop_operation_xyz
x,y,z
-x,y,1/2-z
-x,-y,-z
x,-y,1/2+z
1/2+x,1/2+y,z
1/2-x,1/2+y,1/2-z
1/2-x,1/2-y,-z
1/2+x,1/2-y,1/2+z
loop_
_atom_site_type_symbol
_atom_site_label
_atom_site_fract_x
_atom_site_fract_y
_atom_site_fract_z
Si Si1 0.658392 0.638425 0.519830
Si Si2 0.690007 0.675218 0.328879
Si Si3 0.106336 0.067932 0.242650
Si Si4 0.000000 0.566396 0.750000
Si Si5 0.051129 0.575643 0.868087
O O1 0.750000 0.750000 0.500000
O O2 0.625082 0.669972 0.460593
O O3 0.467352 0.580858 0.698197
O O4 0.816436 0.523339 0.404999
O O5 0.561525 0.619053 0.357981
O O6 0.869430 0.572932 0.194067
O O7 0.688477 0.826955 0.308632
O O8 0.000000 0.121100 0.250000
O O9 0.335020 0.080247 0.060039
O O10 0.950642 0.632246 0.711783
#
# Coordination Sequence:
#
# PCOD9299328 Si02
#       5
#     8   8   8   4   8
#     4  11  27  50  80 120 167 222 278 349 416 507
#     4  11  29  52  85 123 173 221 288 346 428 510
#     4  12  27  50  85 121 169 217 286 350 429 500
#     4  10  24  48  78 114 166 214 274 330 428 502
#     4  11  27  54  84 124 167 226 281 352 424 508
#
# _framework density 27.399618
#
# number of rings (size 3 to 8) (size 9 to 14) (size 15 to 20)
#    0.000    0.889    2.222    1.333    6.222   11.556 
#    0.000    7.778    0.000    0.000    0.000    0.000 
#    0.000    0.000    0.000    0.000    0.000    0.000 
#
# Total GULP energy -100809.729318 kJ/mol
# GULP energy per Si atom -5600.540518 kJ/mol
# Density = 2.733726 g / cm^3
# Si number density = 27.399618 Si / 1000 Ang^3
#
#
#
# Elastic Constant Matrix: (Units=GPa)
#
#
# Indices 1 2 3 4 5 6 
#
# 1 257.0762 67.0509 74.8180 -0.0017 43.1322 0.0004
# 2 67.0509 114.1732 64.0004 -0.0032 -0.6115 0.0010
# 3 74.8180 64.0004 87.4536 -0.0038 2.7806 0.0019
# 4 -0.0017 -0.0032 -0.0038 21.4304 0.0022 12.2022
# 5 43.1322 -0.6115 2.7806 0.0022 70.1757 -0.0001
# 6 0.0004 0.0010 0.0019 12.2022 -0.0001 61.7100
#
#
#
# Elastic Compliance Matrix: (Units=1/GPa)
#
#
# Indices 1 2 3 4 5 6 
#
# 1 0.006005 -0.001236 -0.004121 0.000000 -0.003538 0.000000
# 2 -0.001236 0.015127 -0.010054 0.000000 0.001290 0.000000
# 3 -0.004121 -0.010054 0.022268 0.000002 0.001563 -0.000001
# 4 0.000000 0.000000 0.000002 0.052583 -0.000002 -0.010397
# 5 -0.003538 0.001290 0.001563 -0.000002 0.016374 0.000000
# 6 0.000000 0.000000 -0.000001 -0.010397 0.000000 0.018261
#
#
# Mechanical properties :
#
#
# Convention : Reuss Voigt Hill
#
# Bulk Modulus (GPa) = 79.49605 96.71575 88.10590
# Shear Modulus (GPa) = 30.18736 47.51880 38.85308
#
# Velocity S-wave (km/s) = 3.32285 4.16900 3.76974
# Velocity P-wave (km/s) = 6.61803 7.65172 7.15357
#
# Compressibility (1/GPa) = 0.01257924
#
# Stress axis : x y z
#
# Youngs Moduli (GPa) = 166.52407 66.10616 44.90738
#
# Poissons Ratio (x) = 0.08169 0.18505
# Poissons Ratio (y) = 0.20579 0.45151
# Poissons Ratio (z) = 0.68618 0.66464
#
# Static dielectric constant tensor:
#      x y z
#    x 2.117140 0.000000 0.003460 
#    y 0.000000 2.188980 0.000000 
#    z 0.003460 0.000000 2.125740 
# 
# From -- ./inp_files/94040.got.cif
#   From: 2010.05.17/outbox.cif.g08.bks.cpg/sg15_48_cif.got.tgz:94040.got - 2010.06.03 18:47:42.
