data_PCOD9299842
_publ_section_title
;
Structure prediction by ZEFSAII (Michael W. Deem and Ramdas Pophale) SiO2 
 PCOD9299842
Probable space group: C 2/C
;
_chemical_formula_sum "Si O2"
_cell_formula_units_Z 40
_cell_length_a 18.027528
_cell_length_b 6.465835
_cell_length_c 16.793145
_cell_angle_alpha 90.000000
_cell_angle_beta 132.174060
_cell_angle_gamma 90.000000
_cell_volume 1450.690301
_symmetry_space_group_name_H-M "C 2/C"
_symmetry_group_IT_number 15
_symmetry_cell_setting 'monoclinic'
loop_
_space_group_symop_operation_xyz
x,y,z
-x,y,1/2-z
-x,-y,-z
x,-y,1/2+z
1/2+x,1/2+y,z
1/2-x,1/2+y,1/2-z
1/2-x,1/2-y,-z
1/2+x,1/2-y,1/2+z
loop_
_atom_site_type_symbol
_atom_site_label
_atom_site_fract_x
_atom_site_fract_y
_atom_site_fract_z
Si Si1 0.110323 0.633561 0.450223
Si Si2 0.608359 0.211177 0.631734
Si Si3 0.334321 0.479049 0.136339
Si Si4 0.000000 0.667211 0.750000
Si Si5 0.500000 0.500000 0.500000
Si Si6 0.162986 0.748958 0.195266
O O1 0.078672 0.732183 0.514223
O O2 0.213020 0.505554 0.541327
O O3 0.133561 0.834267 0.413978
O O4 0.036409 0.490633 0.346093
O O5 0.519406 0.354460 0.595520
O O6 0.719400 0.278033 0.734333
O O7 0.612226 0.971525 0.649568
O O8 0.401730 0.684918 0.190491
O O9 0.349091 0.336894 0.225096
O O10 0.388718 0.397362 0.404280
#
# Coordination Sequence:
#
# PCOD9299842 Si02
#       6
#     8   8   8   4   4   8
#     4  10  25  47  71 102 144 182 240 296 355 426
#     4  11  25  49  73 108 146 189 236 300 359 433
#     4  10  25  47  69 103 144 187 231 301 357 424
#     4  12  24  42  74 106 134 188 242 294 356 422
#     4  12  26  42  74 102 142 194 232 292 358 428
#     4  11  25  47  72 105 146 186 242 294 363 434
#
# _framework density 27.573081999999999
#
# number of rings (size 3 to 8) (size 9 to 14) (size 15 to 20)
#    0.000    1.200    2.000    1.800    8.400    1.600 
#    3.600    0.000    0.000    0.000    0.000    0.000 
#    0.000    0.000    0.000    0.000    0.000    0.000 
#
# Total GULP energy -111699.638741 kJ/mol
# GULP energy per Si atom -5584.981937 kJ/mol
# Density = 2.751032 g / cm^3
# Si number density = 27.573082 Si / 1000 Ang^3
#
#
#
# Elastic Constant Matrix: (Units=GPa)
#
#
# Indices 1 2 3 4 5 6 
#
# 1 84.0756 9.5415 41.4466 0.0000 0.9295 0.0000
# 2 9.5415 123.5530 89.5733 0.0000 18.9255 0.0000
# 3 41.4466 89.5733 243.6088 0.0000 28.6005 0.0000
# 4 0.0000 0.0000 0.0000 89.5051 0.0000 10.2456
# 5 0.9295 18.9255 28.6005 0.0000 57.8645 0.0000
# 6 0.0000 0.0000 0.0000 10.2456 0.0000 44.0133
#
#
#
# Elastic Compliance Matrix: (Units=1/GPa)
#
#
# Indices 1 2 3 4 5 6 
#
# 1 0.013081 0.000746 -0.002597 0.000000 0.000830 0.000000
# 2 0.000746 0.011238 -0.004062 0.000000 -0.001680 0.000000
# 3 -0.002597 -0.004062 0.006242 0.000000 -0.001715 0.000000
# 4 0.000000 0.000000 0.000000 0.011478 0.000000 -0.002672
# 5 0.000830 -0.001680 -0.001715 0.000000 0.018665 0.000000
# 6 0.000000 0.000000 0.000000 -0.002672 0.000000 0.023342
#
#
# Mechanical properties :
#
#
# Convention : Reuss Voigt Hill
#
# Bulk Modulus (GPa) = 53.37956 81.37336 67.37646
# Shear Modulus (GPa) = 48.96309 58.98832 53.97570
#
# Velocity S-wave (km/s) = 4.21854 4.63032 4.42922
# Velocity P-wave (km/s) = 6.56730 7.62643 7.11660
#
# Compressibility (1/GPa) = 0.01873376
#
# Stress axis : x y z
#
# Youngs Moduli (GPa) = 76.44954 88.98237 160.21501
#
# Poissons Ratio (x) = -0.06634 0.41608
# Poissons Ratio (y) = -0.05700 0.65076
# Poissons Ratio (z) = 0.19854 0.36143
#
# Static dielectric constant tensor:
#      x y z
#    x 2.172990 0.000000 -0.101690 
#    y 0.000000 1.925710 0.000000 
#    z -0.101690 0.000000 2.083460 
# 
# From -- ./inp_files/179887.got.cif
#   From: 2010.05.17/outbox.cif.g08.bks.cpg/sg15_90_cif.got.tgz:179887.got - 2010.06.03 18:47:42.
