data_PCOD9299780
_publ_section_title
;
Structure prediction by ZEFSAII (Michael W. Deem and Ramdas Pophale) SiO2 
 PCOD9299780
Probable space group: C 2/C
;
_chemical_formula_sum "Si O2"
_cell_formula_units_Z 28
_cell_length_a 14.158365
_cell_length_b 22.182272
_cell_length_c 4.969336
_cell_angle_alpha 90.000000
_cell_angle_beta 47.404436
_cell_angle_gamma 90.000000
_cell_volume 1148.903384
_symmetry_space_group_name_H-M "C 2/C"
_symmetry_group_IT_number 15
_symmetry_cell_setting 'monoclinic'
loop_
_space_group_symop_operation_xyz
x,y,z
-x,y,1/2-z
-x,-y,-z
x,-y,1/2+z
1/2+x,1/2+y,z
1/2-x,1/2+y,1/2-z
1/2-x,1/2-y,-z
1/2+x,1/2-y,1/2+z
loop_
_atom_site_type_symbol
_atom_site_label
_atom_site_fract_x
_atom_site_fract_y
_atom_site_fract_z
Si Si1 0.623493 0.642172 0.816859
Si Si2 0.000000 0.752245 0.250000
Si Si3 0.000000 0.955609 0.250000
Si Si4 0.880385 0.361139 0.163856
Si Si5 0.000000 0.545563 0.750000
O O1 0.600486 0.705247 0.709617
O O2 0.612820 0.590673 0.610424
O O3 0.749569 0.637670 0.752104
O O4 0.500000 0.634140 0.250000
O O5 0.076242 0.708759 0.894923
O O6 0.000000 0.000000 0.500000
O O7 0.000000 0.383380 0.750000
O O8 0.886879 0.405739 0.403974
O O9 0.000000 0.500000 0.500000
#
# Coordination Sequence:
#
# PCOD9299780 Si02
#       5
#     8   4   4   8   4
#     4  11  24  44  73 107 141 187 238 294 356 423
#     4   9  23  44  72 104 147 185 232 294 360 431
#     4  11  24  48  70 104 144 191 240 296 354 423
#     4  10  25  46  70 104 143 187 235 289 362 421
#     4  12  25  50  74 106 143 192 244 300 352 426
#
# _framework density 24.371065000000002
#
# number of rings (size 3 to 8) (size 9 to 14) (size 15 to 20)
#    0.857    0.571    2.857    0.857    2.000    8.000 
#    0.000    0.000    0.000    0.000    0.000    0.000 
#    0.000    0.000    0.000    0.000    0.000    0.000 
#
# Total GULP energy -78124.032085 kJ/mol
# GULP energy per Si atom -5580.288006 kJ/mol
# Density = 2.431560 g / cm^3
# Si number density = 24.371065 Si / 1000 Ang^3
#
#
#
# Elastic Constant Matrix: (Units=GPa)
#
#
# Indices 1 2 3 4 5 6 
#
# 1 281.8098 124.3129 61.3291 0.0000 7.1399 0.0000
# 2 124.3129 227.2182 36.2998 0.0000 25.0416 0.0000
# 3 61.3291 36.2998 89.2188 0.0000 7.8218 0.0000
# 4 0.0000 0.0000 0.0000 -1.5943 0.0000 36.5924
# 5 7.1399 25.0416 7.8218 0.0000 53.5069 0.0000
# 6 0.0000 0.0000 0.0000 36.5924 0.0000 46.2786
#
#
#
# Elastic Compliance Matrix: (Units=1/GPa)
#
#
# Indices 1 2 3 4 5 6 
#
# 1 0.005215 -0.002529 -0.002632 0.000000 0.000872 0.000000
# 2 -0.002529 0.006142 -0.000546 0.000000 -0.002458 0.000000
# 3 -0.002632 -0.000546 0.013358 0.000000 -0.001346 0.000000
# 4 0.000000 0.000000 0.000000 -0.032757 0.000000 0.025901
# 5 0.000872 -0.002458 -0.001346 0.000000 0.019920 0.000000
# 6 0.000000 0.000000 0.000000 0.025901 0.000000 0.001128
#
#
# Mechanical properties :
#
#
# Convention : Reuss Voigt Hill
#
# Bulk Modulus (GPa) = 75.17575 115.79227 95.48401
# Shear Modulus (GPa) = 173.29206 44.72523 109.00865
#
# Velocity S-wave (km/s) = 8.44157 4.28854 6.69521
# Velocity P-wave (km/s) = 11.22170 8.49338 9.95149
#
# Compressibility (1/GPa) = 0.01330216
#
# Stress axis : x y z
#
# Youngs Moduli (GPa) = 191.76703 162.80083 74.86272
#
# Poissons Ratio (x) = 0.41166 0.19706
# Poissons Ratio (y) = 0.48490 0.04084
# Poissons Ratio (z) = 0.50478 0.08881
#
# Static dielectric constant tensor:
#      x y z
#    x 1.818760 0.000000 -0.301200 
#    y 0.000000 1.983040 0.000000 
#    z -0.301200 0.000000 0.734420 
# 
# From -- ./inp_files/3849.got.cif
#   From: 2010.05.17/outbox.cif.g08.bks.cpg/sg15_2_cif.got.tgz:3849.got - 2010.06.03 18:47:42.
