data_PCOD9299413
_publ_section_title
;
Structure prediction by ZEFSAII (Michael W. Deem and Ramdas Pophale) SiO2 
 PCOD9299413
Probable space group: C 2/C
;
_chemical_formula_sum "Si O2"
_cell_formula_units_Z 64
_cell_length_a 14.883388
_cell_length_b 31.414549
_cell_length_c 8.009923
_cell_angle_alpha 90.000000
_cell_angle_beta 128.727837
_cell_angle_gamma 90.000000
_cell_volume 2921.635471
_symmetry_space_group_name_H-M "C 2/C"
_symmetry_group_IT_number 15
_symmetry_cell_setting 'monoclinic'
loop_
_space_group_symop_operation_xyz
x,y,z
-x,y,1/2-z
-x,-y,-z
x,-y,1/2+z
1/2+x,1/2+y,z
1/2-x,1/2+y,1/2-z
1/2-x,1/2-y,-z
1/2+x,1/2-y,1/2+z
loop_
_atom_site_type_symbol
_atom_site_label
_atom_site_fract_x
_atom_site_fract_y
_atom_site_fract_z
Si Si1 0.866174 0.763236 0.525696
Si Si2 0.330182 0.884801 0.620948
Si Si3 0.967532 0.303727 0.899997
Si Si4 0.626094 0.521053 0.318588
Si Si5 0.177885 0.421019 0.389912
Si Si6 0.624381 0.564674 0.956784
Si Si7 0.537342 0.049148 0.046443
Si Si8 0.792630 0.337871 0.227166
O O1 0.750000 0.750000 0.500000
O O2 0.885589 0.728090 0.404182
O O3 0.818807 0.808161 0.401599
O O4 0.000000 0.768083 0.750000
O O5 0.405906 0.849238 0.802108
O O6 0.209299 0.896027 0.563600
O O7 0.399712 0.929313 0.723303
O O8 0.302158 0.865224 0.408458
O O9 0.000000 0.288546 0.750000
O O10 0.087782 0.311330 0.136789
O O11 0.500000 0.521868 0.250000
O O12 0.712055 0.550681 0.521817
O O13 0.665969 0.472177 0.376553
O O14 0.619301 0.540389 0.126723
O O15 0.125940 0.440918 0.498434
O O16 0.208514 0.371447 0.425685
O O17 0.076900 0.426179 0.139100
O O18 0.500000 0.578314 0.750000
O O19 0.500000 0.000000 0.000000
#
# Coordination Sequence:
#
# PCOD9299413 Si02
#       8
#     8   8   8   8   8   8   8   8
#     4  12  27  51  85 116 153 196 257 322 389 493
#     4  11  24  46  71 101 149 193 243 311 374 453
#     4  10  24  50  78 109 150 198 243 308 401 470
#     4  11  24  42  66  91 136 196 245 309 368 443
#     4  11  25  40  68  99 144 186 236 312 365 441
#     4  11  24  43  63  96 135 194 255 308 368 439
#     4  11  24  43  68 108 141 195 256 303 368 439
#     4  11  26  46  73 110 148 195 245 305 398 457
#
# _framework density 21.905539000000001
#
# number of rings (size 3 to 8) (size 9 to 14) (size 15 to 20)
#    0.000    1.000    3.750    2.250    5.250    4.500 
#    2.250    0.000    0.000    0.000    0.000    0.000 
#    0.000    0.000    0.000    0.000    0.000    0.000 
#
# Total GULP energy -178700.904317 kJ/mol
# GULP energy per Si atom -5584.403260 kJ/mol
# Density = 2.185568 g / cm^3
# Si number density = 21.905539 Si / 1000 Ang^3
#
#
#
# Elastic Constant Matrix: (Units=GPa)
#
#
# Indices 1 2 3 4 5 6 
#
# 1 120.7987 70.3090 58.2525 0.0000 8.0277 0.0000
# 2 70.3090 122.2220 41.3424 0.0000 8.8697 0.0000
# 3 58.2525 41.3424 104.5372 0.0000 24.1615 0.0000
# 4 0.0000 0.0000 0.0000 33.1136 0.0000 11.3923
# 5 8.0277 8.8697 24.1615 0.0000 39.7475 0.0000
# 6 0.0000 0.0000 0.0000 11.3923 0.0000 46.9796
#
#
#
# Elastic Compliance Matrix: (Units=1/GPa)
#
#
# Indices 1 2 3 4 5 6 
#
# 1 0.015046 -0.006703 -0.006256 0.000000 0.002260 0.000000
# 2 -0.006703 0.012433 -0.000993 0.000000 -0.000817 0.000000
# 3 -0.006256 -0.000993 0.015243 0.000000 -0.007781 0.000000
# 4 0.000000 0.000000 0.000000 0.032948 0.000000 -0.007990
# 5 0.002260 -0.000817 -0.007781 0.000000 0.029615 0.000000
# 6 0.000000 0.000000 0.000000 -0.007990 0.000000 0.023223
#
#
# Mechanical properties :
#
#
# Convention : Reuss Voigt Hill
#
# Bulk Modulus (GPa) = 67.48263 76.37395 71.92829
# Shear Modulus (GPa) = 30.98829 35.81174 33.40001
#
# Velocity S-wave (km/s) = 3.76524 4.04768 3.90901
# Velocity P-wave (km/s) = 7.05520 7.53564 7.29937
#
# Compressibility (1/GPa) = 0.01481863
#
# Stress axis : x y z
#
# Youngs Moduli (GPa) = 66.46119 80.43009 65.60455
#
# Poissons Ratio (x) = 0.53916 0.41040
# Poissons Ratio (y) = 0.44552 0.06513
# Poissons Ratio (z) = 0.41576 0.07985
#
# Static dielectric constant tensor:
#      x y z
#    x 1.899630 0.000000 0.001600 
#    y 0.000000 1.822080 0.000000 
#    z 0.001600 0.000000 1.949320 
# 
# From -- ./inp_files/44890.got.cif
#   From: 2010.05.17/outbox.cif.g08.bks.cpg/sg15_23_cif.got.tgz:44890.got - 2010.06.03 18:47:42.
