data_PCOD9299352
_publ_section_title
;
Structure prediction by ZEFSAII (Michael W. Deem and Ramdas Pophale) SiO2 
 PCOD9299352
Probable space group: C 2/C
;
_chemical_formula_sum "Si O2"
_cell_formula_units_Z 56
_cell_length_a 22.497805
_cell_length_b 16.858418
_cell_length_c 19.812518
_cell_angle_alpha 90.000000
_cell_angle_beta 160.901562
_cell_angle_gamma 90.000000
_cell_volume 2458.665795
_symmetry_space_group_name_H-M "C 2/C"
_symmetry_group_IT_number 15
_symmetry_cell_setting 'monoclinic'
loop_
_space_group_symop_operation_xyz
x,y,z
-x,y,1/2-z
-x,-y,-z
x,-y,1/2+z
1/2+x,1/2+y,z
1/2-x,1/2+y,1/2-z
1/2-x,1/2-y,-z
1/2+x,1/2-y,1/2+z
loop_
_atom_site_type_symbol
_atom_site_label
_atom_site_fract_x
_atom_site_fract_y
_atom_site_fract_z
Si Si1 0.134008 0.319202 0.536457
Si Si2 0.000000 0.884077 0.250000
Si Si3 0.856771 0.558710 0.810085
Si Si4 0.031986 0.160936 0.503997
Si Si5 0.077535 0.792488 0.198938
Si Si6 0.031137 0.358090 0.861327
Si Si7 0.500000 0.859969 0.250000
Si Si8 0.690793 0.998024 0.381634
O O1 0.120658 0.234099 0.557983
O O2 0.079208 0.313330 0.398843
O O3 0.986141 0.374081 0.415645
O O4 0.336213 0.355687 0.760244
O O5 0.995615 0.830416 0.178770
O O6 0.172812 0.941965 0.436047
O O7 0.690768 0.594812 0.675085
O O8 0.754424 0.519828 0.635981
O O9 0.000000 0.500000 0.000000
O O10 0.983568 0.187680 0.528060
O O11 0.094876 0.698257 0.228620
O O12 0.273361 0.831832 0.405747
O O13 0.993298 0.450830 0.825247
O O14 0.000000 0.336021 0.750000
O O15 0.651546 0.919341 0.381342
#
# Coordination Sequence:
#
# PCOD9299352 Si02
#       8
#     8   4   8   8   8   8   4   8
#     4  11  26  49  76 110 143 193 250 299 377 434
#     4  12  24  41  63 104 130 186 236 282 362 436
#     4  11  27  48  71 109 147 193 242 305 370 437
#     4  12  26  49  74 108 147 194 245 305 366 445
#     4  12  25  39  68  97 137 181 238 288 352 439
#     4  12  21  41  62  95 136 180 229 290 351 431
#     4  10  24  49  71 102 142 184 240 312 360 436
#     4  11  24  42  67  96 140 178 232 296 361 426
#
# _framework density 22.776582000000001
#
# number of rings (size 3 to 8) (size 9 to 14) (size 15 to 20)
#    0.000    0.571    4.286    3.000    6.000    2.286 
#    0.000    0.000    0.000    0.000    0.000    0.000 
#    0.000    0.000    0.000    0.000    0.000    0.000 
#
# Total GULP energy -156552.262315 kJ/mol
# GULP energy per Si atom -5591.152226 kJ/mol
# Density = 2.272474 g / cm^3
# Si number density = 22.776582 Si / 1000 Ang^3
#
#
#
# Elastic Constant Matrix: (Units=GPa)
#
#
# Indices 1 2 3 4 5 6 
#
# 1 126.9461 23.0810 26.0580 0.0027 -27.8301 -0.0025
# 2 23.0810 37.2833 2.5768 0.0068 -7.0043 0.0012
# 3 26.0580 2.5768 103.5541 0.0095 0.4814 0.0006
# 4 0.0027 0.0068 0.0095 28.4810 0.0065 4.2969
# 5 -27.8301 -7.0043 0.4814 0.0065 44.3729 -0.0020
# 6 -0.0025 0.0012 0.0006 4.2969 -0.0020 30.0076
#
#
#
# Elastic Compliance Matrix: (Units=1/GPa)
#
#
# Indices 1 2 3 4 5 6 
#
# 1 0.010661 -0.005318 -0.002578 0.000000 0.005875 0.000002
# 2 -0.005318 0.030346 0.000576 -0.000007 0.001448 -0.000001
# 3 -0.002578 0.000576 0.010299 -0.000003 -0.001638 0.000000
# 4 0.000000 -0.000007 -0.000003 0.035886 -0.000007 -0.005139
# 5 0.005875 0.001448 -0.001638 -0.000007 0.026468 0.000003
# 6 0.000002 -0.000001 0.000000 -0.005139 0.000003 0.034061
#
#
# Mechanical properties :
#
#
# Convention : Reuss Voigt Hill
#
# Bulk Modulus (GPa) = 27.27235 41.24613 34.25924
# Shear Modulus (GPa) = 28.63970 34.97681 31.80825
#
# Velocity S-wave (km/s) = 3.54986 3.92299 3.74108
# Velocity P-wave (km/s) = 5.36673 6.21837 5.80818
#
# Compressibility (1/GPa) = 0.03666717
#
# Stress axis : x y z
#
# Youngs Moduli (GPa) = 93.79576 32.95294 97.09945
#
# Poissons Ratio (x) = 0.17525 0.25030
# Poissons Ratio (y) = 0.49883 -0.05597
# Poissons Ratio (z) = 0.24179 -0.01899
#
# Static dielectric constant tensor:
#      x y z
#    x 1.884750 0.000000 0.021680 
#    y 0.000000 1.877140 0.000000 
#    z 0.021680 0.000000 1.887020 
# 
# From -- ./inp_files/255949.got.cif
#   From: 2010.05.17/outbox.cif.g08.bks.cpg/sg15_128_cif.got.tgz:255949.got - 2010.06.03 18:47:42.
