data_PCOD9299952
_publ_section_title
;
Structure prediction by ZEFSAII (Michael W. Deem and Ramdas Pophale) SiO2 
 PCOD9299952
Probable space group: C 2/C
;
_chemical_formula_sum "Si O2"
_cell_formula_units_Z 48
_cell_length_a 14.566375
_cell_length_b 26.676231
_cell_length_c 12.076731
_cell_angle_alpha 90.000000
_cell_angle_beta 30.301068
_cell_angle_gamma 90.000000
_cell_volume 2367.686247
_symmetry_space_group_name_H-M "C 2/C"
_symmetry_group_IT_number 15
_symmetry_cell_setting 'monoclinic'
loop_
_space_group_symop_operation_xyz
x,y,z
-x,y,1/2-z
-x,-y,-z
x,-y,1/2+z
1/2+x,1/2+y,z
1/2-x,1/2+y,1/2-z
1/2-x,1/2-y,-z
1/2+x,1/2-y,1/2+z
loop_
_atom_site_type_symbol
_atom_site_label
_atom_site_fract_x
_atom_site_fract_y
_atom_site_fract_z
Si Si1 0.777293 0.583355 0.966579
Si Si2 0.719787 0.785419 0.639187
Si Si3 0.673256 0.188658 0.873545
Si Si4 0.000442 0.051418 0.431511
Si Si5 0.010505 0.873594 0.358129
Si Si6 0.800486 0.692677 0.913153
O O1 0.712034 0.641720 0.053822
O O2 0.000000 0.579690 0.750000
O O3 0.670171 0.552187 0.170867
O O4 0.683533 0.564230 0.948573
O O5 0.750000 0.750000 0.500000
O O6 0.745786 0.744698 0.707326
O O7 0.871688 0.827384 0.489324
O O8 0.523228 0.808689 0.864570
O O9 0.795019 0.150990 0.817531
O O10 0.684365 0.178840 0.732292
O O11 0.032891 0.093372 0.491140
O O12 0.000000 0.000000 0.500000
O O13 0.000000 0.900699 0.250000
O O14 0.000000 0.689959 0.750000
O O15 0.750000 0.750000 0.000000
#
# Coordination Sequence:
#
# PCOD9299952 Si02
#       6
#     8   8   8   8   8   8
#     4  10  25  49  74 111 148 180 236 305 364 432
#     4  12  24  39  61  94 140 191 226 278 338 420
#     4  12  23  40  61  93 140 183 229 279 344 418
#     4  11  27  49  79 101 138 189 245 303 365 418
#     4  12  26  41  67 100 137 183 240 290 349 420
#     4  11  25  39  64 101 140 188 227 274 355 429
#
# _framework density 20.272956000000001
#
# number of rings (size 3 to 8) (size 9 to 14) (size 15 to 20)
#    0.000    0.667    5.000    1.500   11.667    0.667 
#    0.000    0.000    0.000    0.000    0.000    0.000 
#    0.000    0.000    0.000    0.000    0.000    0.000 
#
# Total GULP energy -133758.620274 kJ/mol
# GULP energy per Si atom -5573.275845 kJ/mol
# Density = 2.022681 g / cm^3
# Si number density = 20.272956 Si / 1000 Ang^3
#
#
#
# Elastic Constant Matrix: (Units=GPa)
#
#
# Indices 1 2 3 4 5 6 
#
# 1 149.7824 39.2185 57.7979 0.0000 5.7723 0.0000
# 2 39.2185 96.8121 30.3228 0.0000 2.9484 0.0000
# 3 57.7979 30.3228 105.5549 0.0008 -10.8771 -0.0001
# 4 0.0000 0.0000 0.0008 31.3125 -0.0003 9.5569
# 5 5.7723 2.9484 -10.8771 -0.0003 42.8249 0.0001
# 6 0.0000 0.0000 -0.0001 9.5569 0.0001 37.6987
#
#
#
# Elastic Compliance Matrix: (Units=1/GPa)
#
#
# Indices 1 2 3 4 5 6 
#
# 1 0.009105 -0.002183 -0.004590 0.000000 -0.002243 0.000000
# 2 -0.002183 0.011989 -0.002366 0.000000 -0.001132 0.000000
# 3 -0.004590 -0.002366 0.013090 0.000000 0.004106 0.000000
# 4 0.000000 0.000000 0.000000 0.034614 0.000000 -0.008775
# 5 -0.002243 -0.001132 0.004106 0.000000 0.024774 0.000000
# 6 0.000000 0.000000 0.000000 -0.008775 0.000000 0.028751
#
#
# Mechanical properties :
#
#
# Convention : Reuss Voigt Hill
#
# Bulk Modulus (GPa) = 62.86245 67.42532 65.14388
# Shear Modulus (GPa) = 34.26963 37.35458 35.81210
#
# Velocity S-wave (km/s) = 4.11592 4.29719 4.20753
# Velocity P-wave (km/s) = 7.32551 7.61262 7.47045
#
# Compressibility (1/GPa) = 0.01590775
#
# Stress axis : x y z
#
# Youngs Moduli (GPa) = 109.82459 83.41063 76.39619
#
# Poissons Ratio (x) = 0.18206 0.35065
# Poissons Ratio (y) = 0.23971 0.18072
# Poissons Ratio (z) = 0.50408 0.19731
#
# Static dielectric constant tensor:
#      x y z
#    x 1.793640 0.000000 0.019250 
#    y 0.000000 1.783010 0.000000 
#    z 0.019250 0.000000 1.741810 
# 
# From -- ./inp_files/101223.got.cif
#   From: 2010.05.17/outbox.cif.g08.bks.cpg/sg15_51_cif.got.tgz:101223.got - 2010.06.03 18:47:42.
