data_PCOD9299334
_publ_section_title
;
Structure prediction by ZEFSAII (Michael W. Deem and Ramdas Pophale) SiO2 
 PCOD9299334
Probable space group: C 2/C
;
_chemical_formula_sum "Si O2"
_cell_formula_units_Z 52
_cell_length_a 14.011842
_cell_length_b 32.386891
_cell_length_c 5.197317
_cell_angle_alpha 90.000000
_cell_angle_beta 82.060063
_cell_angle_gamma 90.000000
_cell_volume 2335.932095
_symmetry_space_group_name_H-M "C 2/C"
_symmetry_group_IT_number 15
_symmetry_cell_setting 'monoclinic'
loop_
_space_group_symop_operation_xyz
x,y,z
-x,y,1/2-z
-x,-y,-z
x,-y,1/2+z
1/2+x,1/2+y,z
1/2-x,1/2+y,1/2-z
1/2-x,1/2-y,-z
1/2+x,1/2-y,1/2+z
loop_
_atom_site_type_symbol
_atom_site_label
_atom_site_fract_x
_atom_site_fract_y
_atom_site_fract_z
Si Si1 0.316213 0.323205 0.690345
Si Si2 0.566318 0.248313 0.975250
Si Si3 0.645645 0.179659 0.593756
Si Si4 0.690022 0.110845 0.930817
Si Si5 0.500000 0.372495 0.750000
Si Si6 0.500000 0.569726 0.750000
Si Si7 0.000000 0.356754 0.750000
Si Si8 0.705177 0.526183 0.708908
O O1 0.362576 0.286704 0.507253
O O2 0.264969 0.360173 0.555886
O O3 0.404748 0.344424 0.806959
O O4 0.233602 0.302901 0.896870
O O5 0.500000 0.257556 0.750000
O O6 0.624253 0.208033 0.849624
O O7 0.500000 0.245150 0.250000
O O8 0.679430 0.134298 0.665007
O O9 0.446858 0.170652 0.050543
O O10 0.585215 0.116006 0.097948
O O11 0.728218 0.065212 0.881851
O O12 0.493110 0.401197 0.502265
O O13 0.595240 0.541982 0.731280
O O14 0.721510 0.491356 0.487480
#
# Coordination Sequence:
#
# PCOD9299334 Si02
#       8
#     8   8   8   8   4   4   4   8
#     4  11  26  45  74 108 155 199 250 304 370 433
#     4  12  29  45  72 109 152 198 250 310 364 431
#     4  11  26  48  78 109 144 199 254 310 370 446
#     4  11  25  46  79 106 147 193 250 302 376 442
#     4  12  24  43  74 112 150 202 248 292 362 439
#     4  12  24  45  75 104 154 200 244 294 357 445
#     4  10  24  48  81 108 138 192 250 310 369 448
#     4  12  27  46  72 111 149 191 243 302 367 442
#
# _framework density 22.260922999999998
#
# number of rings (size 3 to 8) (size 9 to 14) (size 15 to 20)
#    0.000    0.615    2.308    4.154   14.000    0.615 
#    0.000    0.769    0.000    0.000    0.000    0.000 
#    0.000    0.000    0.000    0.000    0.000    0.000 
#
# Total GULP energy -145597.923254 kJ/mol
# GULP energy per Si atom -5599.920125 kJ/mol
# Density = 2.221026 g / cm^3
# Si number density = 22.260923 Si / 1000 Ang^3
#
#
#
# Elastic Constant Matrix: (Units=GPa)
#
#
# Indices 1 2 3 4 5 6 
#
# 1 110.1218 24.9299 23.2665 0.0000 -23.2082 0.0000
# 2 24.9299 88.2436 19.8114 0.0000 -25.0728 0.0000
# 3 23.2665 19.8114 119.6914 0.0000 -17.1904 0.0000
# 4 0.0000 0.0000 0.0000 -167.7223 0.0000 -60.8200
# 5 -23.2082 -25.0728 -17.1904 0.0000 43.4089 0.0000
# 6 0.0000 0.0000 0.0000 -60.8200 0.0000 -19.4385
#
#
#
# Elastic Compliance Matrix: (Units=1/GPa)
#
#
# Indices 1 2 3 4 5 6 
#
# 1 0.010581 -0.001494 -0.001189 0.000000 0.004324 0.000000
# 2 -0.001494 0.013929 -0.001033 0.000000 0.006837 0.000000
# 3 -0.001189 -0.001033 0.009097 0.000000 0.002370 0.000000
# 4 0.000000 0.000000 0.000000 0.044299 0.000000 -0.138605
# 5 0.004324 0.006837 0.002370 0.000000 0.030236 0.000000
# 6 0.000000 0.000000 0.000000 -0.138605 0.000000 0.382228
#
#
# Mechanical properties :
#
#
# Convention : Reuss Voigt Hill
#
# Bulk Modulus (GPa) = 38.20267 50.45250 44.32759
# Shear Modulus (GPa) = 9.87112 -12.08045 -1.10466
#
# Velocity S-wave (km/s) = 2.10806 -2.33207 -0.70520
# Velocity P-wave (km/s) = 4.80872 3.93217 4.39237
#
# Compressibility (1/GPa) = 0.02617618
#
# Stress axis : x y z
#
# Youngs Moduli (GPa) = 94.50524 71.79256 109.92246
#
# Poissons Ratio (x) = 0.10726 0.13066
# Poissons Ratio (y) = 0.14120 0.11356
# Poissons Ratio (z) = 0.11233 0.07417
#
# Static dielectric constant tensor:
#      x y z
#    x 1.857130 0.000000 -0.000930 
#    y 0.000000 1.803000 0.000000 
#    z -0.000930 0.000000 1.854140 
# 
# From -- ./inp_files/9038.got.cif
#   From: 2010.05.17/outbox.cif.g08.bks.cpg/sg15_5_cif.got.tgz:9038.got - 2010.06.03 18:47:42.
