data_PCOD9299946
_publ_section_title
;
Structure prediction by ZEFSAII (Michael W. Deem and Ramdas Pophale) SiO2 
 PCOD9299946
Probable space group: C 2/C
;
_chemical_formula_sum "Si O2"
_cell_formula_units_Z 40
_cell_length_a 18.311866
_cell_length_b 17.984741
_cell_length_c 14.091596
_cell_angle_alpha 90.000000
_cell_angle_beta 158.640368
_cell_angle_gamma 90.000000
_cell_volume 1690.291529
_symmetry_space_group_name_H-M "C 2/C"
_symmetry_group_IT_number 15
_symmetry_cell_setting 'monoclinic'
loop_
_space_group_symop_operation_xyz
x,y,z
-x,y,1/2-z
-x,-y,-z
x,-y,1/2+z
1/2+x,1/2+y,z
1/2-x,1/2+y,1/2-z
1/2-x,1/2-y,-z
1/2+x,1/2-y,1/2+z
loop_
_atom_site_type_symbol
_atom_site_label
_atom_site_fract_x
_atom_site_fract_y
_atom_site_fract_z
Si Si1 0.717348 0.171546 0.406560
Si Si2 0.035806 0.919240 0.934304
Si Si3 0.801656 0.314468 0.951123
Si Si4 0.926963 0.334286 0.387323
Si Si5 0.957749 0.091065 0.831695
O O1 0.750000 0.250000 0.500000
O O2 0.748975 0.111778 0.528352
O O3 0.884918 0.145920 0.530992
O O4 0.515905 0.171621 0.100840
O O5 0.847327 0.869468 0.673877
O O6 0.006732 0.004860 0.874943
O O7 0.252368 0.893288 0.164382
O O8 0.041481 0.902114 0.054519
O O9 0.672593 0.244125 0.761953
O O10 0.000000 0.292816 0.250000
O O11 0.896022 0.351722 0.971876
#
# Coordination Sequence:
#
# PCOD9299946 Si02
#       5
#     8   8   8   8   8
#     4  11  25  44  79 111 149 197 256 314 392 459
#     4  11  25  49  74 106 160 195 256 316 372 476
#     4  12  26  46  74 112 148 205 259 311 383 450
#     4  12  26  45  79 111 151 201 256 324 379 454
#     4  10  25  49  70 111 155 199 246 319 390 456
#
# _framework density 23.664558
#
# number of rings (size 3 to 8) (size 9 to 14) (size 15 to 20)
#    0.000    0.800    4.000    1.800    2.800    4.800 
#    7.200    0.000    0.000    0.000    0.000    0.000 
#    0.000    0.000    0.000    0.000    0.000    0.000 
#
# Total GULP energy -111883.068578 kJ/mol
# GULP energy per Si atom -5594.153429 kJ/mol
# Density = 2.361070 g / cm^3
# Si number density = 23.664558 Si / 1000 Ang^3
#
#
#
# Elastic Constant Matrix: (Units=GPa)
#
#
# Indices 1 2 3 4 5 6 
#
# 1 96.8101 19.2807 47.3257 0.0000 -17.9642 0.0000
# 2 19.2807 108.1317 58.2413 0.0000 -10.3473 0.0000
# 3 47.3257 58.2413 177.7153 0.0000 -19.2448 0.0000
# 4 0.0000 0.0000 0.0000 27.0078 0.0000 -4.7733
# 5 -17.9642 -10.3473 -19.2448 0.0000 46.7959 0.0000
# 6 0.0000 0.0000 0.0000 -4.7733 0.0000 24.1282
#
#
#
# Elastic Compliance Matrix: (Units=1/GPa)
#
#
# Indices 1 2 3 4 5 6 
#
# 1 0.012431 -0.000366 -0.002807 0.000000 0.003537 0.000000
# 2 -0.000366 0.011287 -0.003503 0.000000 0.000915 0.000000
# 3 -0.002807 -0.003503 0.007663 0.000000 0.001299 0.000000
# 4 0.000000 0.000000 0.000000 0.038368 0.000000 0.007590
# 5 0.003537 0.000915 0.001299 0.000000 0.023464 0.000000
# 6 0.000000 0.000000 0.000000 0.007590 0.000000 0.042947
#
#
# Mechanical properties :
#
#
# Convention : Reuss Voigt Hill
#
# Bulk Modulus (GPa) = 55.46465 70.26139 62.86302
# Shear Modulus (GPa) = 32.14979 36.77366 34.46173
#
# Velocity S-wave (km/s) = 3.68987 3.94630 3.82024
# Velocity P-wave (km/s) = 6.45308 7.10770 6.78829
#
# Compressibility (1/GPa) = 0.01802950
#
# Stress axis : x y z
#
# Youngs Moduli (GPa) = 80.44351 88.59492 130.49403
#
# Poissons Ratio (x) = 0.03242 0.36636
# Poissons Ratio (y) = 0.02944 0.45707
# Poissons Ratio (z) = 0.22584 0.31031
#
# Static dielectric constant tensor:
#      x y z
#    x 1.983040 0.000000 -0.028820 
#    y 0.000000 1.848180 0.000000 
#    z -0.028820 0.000000 1.954330 
# 
# From -- ./inp_files/169501.got.cif
#   From: 2010.05.17/outbox.cif.g08.bks.cpg/sg15_85_cif.got.tgz:169501.got - 2010.06.03 18:47:42.
