data_PCOD9299376
_publ_section_title
;
Structure prediction by ZEFSAII (Michael W. Deem and Ramdas Pophale) SiO2 
 PCOD9299376
Probable space group: C 2/C
;
_chemical_formula_sum "Si O2"
_cell_formula_units_Z 36
_cell_length_a 10.905702
_cell_length_b 9.216073
_cell_length_c 15.068743
_cell_angle_alpha 90.000000
_cell_angle_beta 68.560708
_cell_angle_gamma 90.000000
_cell_volume 1409.728372
_symmetry_space_group_name_H-M "C 2/C"
_symmetry_group_IT_number 15
_symmetry_cell_setting 'monoclinic'
loop_
_space_group_symop_operation_xyz
x,y,z
-x,y,1/2-z
-x,-y,-z
x,-y,1/2+z
1/2+x,1/2+y,z
1/2-x,1/2+y,1/2-z
1/2-x,1/2-y,-z
1/2+x,1/2-y,1/2+z
loop_
_atom_site_type_symbol
_atom_site_label
_atom_site_fract_x
_atom_site_fract_y
_atom_site_fract_z
Si Si1 0.000000 0.969134 0.750000
Si Si2 0.067901 0.492246 0.388265
Si Si3 0.745597 0.217818 0.258641
Si Si4 0.802420 0.516326 0.869576
Si Si5 0.702415 0.611883 0.569424
O O1 0.116205 0.866246 0.756608
O O2 0.066929 0.069568 0.655294
O O3 0.127960 0.645153 0.348144
O O4 0.952725 0.445607 0.354284
O O5 0.192925 0.392351 0.375983
O O6 0.000000 0.500000 0.500000
O O7 0.755849 0.371410 0.307524
O O8 0.700573 0.140960 0.177308
O O9 0.725286 0.509387 0.984487
O O10 0.750000 0.750000 0.500000
#
# Coordination Sequence:
#
# PCOD9299376 Si02
#       5
#     4   8   8   8   8
#     4  10  26  46  76 116 158 210 272 334 404 482
#     4   9  22  46  74 105 149 211 265 324 397 472
#     4  11  26  45  73 117 158 214 265 325 411 475
#     4  11  26  47  79 110 163 213 271 329 401 492
#     4  10  24  49  81 117 161 209 272 338 409 477
#
# _framework density 25.536835
#
# number of rings (size 3 to 8) (size 9 to 14) (size 15 to 20)
#    0.000    1.778    0.000    0.667    9.333   12.444 
#    0.000    0.000    0.000    0.000    0.000    4.667 
#    0.000    0.000    0.000    0.000    0.000    0.000 
#
# Total GULP energy -100332.559511 kJ/mol
# GULP energy per Si atom -5574.031084 kJ/mol
# Density = 2.547871 g / cm^3
# Si number density = 25.536835 Si / 1000 Ang^3
#
#
#
# Elastic Constant Matrix: (Units=GPa)
#
#
# Indices 1 2 3 4 5 6 
#
# 1 84.2011 12.7156 52.3802 0.0000 9.3887 0.0000
# 2 12.7156 111.2823 21.8228 0.0000 -5.5937 0.0000
# 3 52.3802 21.8228 208.3875 0.0000 4.3079 0.0000
# 4 0.0000 0.0000 0.0000 -12.2548 0.0000 -15.3924
# 5 9.3887 -5.5937 4.3079 0.0000 51.5192 0.0000
# 6 0.0000 0.0000 0.0000 -15.3924 0.0000 39.8014
#
#
#
# Elastic Compliance Matrix: (Units=1/GPa)
#
#
# Indices 1 2 3 4 5 6 
#
# 1 0.014478 -0.001097 -0.003473 0.000000 -0.002467 0.000000
# 2 -0.001097 0.009318 -0.000726 0.000000 0.001272 0.000000
# 3 -0.003473 -0.000726 0.005746 0.000000 0.000074 0.000000
# 4 0.000000 0.000000 0.000000 -0.054922 0.000000 -0.021240
# 5 -0.002467 0.001272 0.000074 0.000000 0.019992 0.000000
# 6 0.000000 0.000000 0.000000 -0.021240 0.000000 0.016911
#
#
# Mechanical properties :
#
#
# Convention : Reuss Voigt Hill
#
# Bulk Modulus (GPa) = 52.77448 64.18979 58.48214
# Shear Modulus (GPa) = 175.86049 36.94330 106.40190
#
# Velocity S-wave (km/s) = 8.30752 3.80763 6.46193
# Velocity P-wave (km/s) = 10.61748 6.67244 8.86714
#
# Compressibility (1/GPa) = 0.01894855
#
# Stress axis : x y z
#
# Youngs Moduli (GPa) = 69.07148 107.32018 174.02442
#
# Poissons Ratio (x) = 0.11775 0.60443
# Poissons Ratio (y) = 0.07578 0.12640
# Poissons Ratio (z) = 0.23990 0.07795
#
# Static dielectric constant tensor:
#      x y z
#    x 2.141210 0.000000 0.043320 
#    y 0.000000 1.592450 0.000000 
#    z 0.043320 0.000000 1.951410 
# 
# From -- ./inp_files/202450.got.cif
#   From: 2010.05.17/outbox.cif.g08.bks.cpg/sg15_102_cif.got.tgz:202450.got - 2010.06.03 18:47:42.
