data_PCOD9299732
_publ_section_title
;
Structure prediction by ZEFSAII (Michael W. Deem and Ramdas Pophale) SiO2 
 PCOD9299732
Probable space group: C 2/C
;
_chemical_formula_sum "Si O2"
_cell_formula_units_Z 32
_cell_length_a 12.091543
_cell_length_b 15.531596
_cell_length_c 9.574765
_cell_angle_alpha 90.000000
_cell_angle_beta 129.282331
_cell_angle_gamma 90.000000
_cell_volume 1391.831980
_symmetry_space_group_name_H-M "C 2/C"
_symmetry_group_IT_number 15
_symmetry_cell_setting 'monoclinic'
loop_
_space_group_symop_operation_xyz
x,y,z
-x,y,1/2-z
-x,-y,-z
x,-y,1/2+z
1/2+x,1/2+y,z
1/2-x,1/2+y,1/2-z
1/2-x,1/2-y,-z
1/2+x,1/2-y,1/2+z
loop_
_atom_site_type_symbol
_atom_site_label
_atom_site_fract_x
_atom_site_fract_y
_atom_site_fract_z
Si Si1 0.240854 0.641033 0.749615
Si Si2 0.220074 0.345787 0.537715
Si Si3 0.514708 0.772941 0.594203
Si Si4 0.399901 0.493356 0.786604
O O1 0.399218 0.684887 0.870840
O O2 0.259375 0.551744 0.684164
O O3 0.141112 0.711997 0.596799
O O4 0.185806 0.613868 0.859180
O O5 0.250000 0.250000 0.500000
O O6 0.107419 0.339488 0.573073
O O7 0.353244 0.397835 0.705560
O O8 0.500000 0.784429 0.750000
O O9 0.500000 0.532171 0.750000
O O10 0.500000 0.500000 0.000000
#
# Coordination Sequence:
#
# PCOD9299732 Si02
#       4
#     8   8   8   8
#     4  11  25  45  72 108 147 197 249 312 379 450
#     4  10  25  45  73 101 149 198 246 302 382 450
#     4  11  25  43  74 107 149 193 254 310 373 448
#     4  12  26  45  74 111 150 195 253 313 377 446
#
# _framework density 22.991278999999999
#
# number of rings (size 3 to 8) (size 9 to 14) (size 15 to 20)
#    0.000    1.000    2.500    2.250   10.500    1.000 
#    0.000    0.000    0.000    0.000    0.000    0.000 
#    0.000    0.000    0.000    0.000    0.000    0.000 
#
# Total GULP energy -89148.860353 kJ/mol
# GULP energy per Si atom -5571.803772 kJ/mol
# Density = 2.293895 g / cm^3
# Si number density = 22.991279 Si / 1000 Ang^3
#
#
#
# Elastic Constant Matrix: (Units=GPa)
#
#
# Indices 1 2 3 4 5 6 
#
# 1 137.8676 30.2827 45.5218 0.0000 -43.1724 0.0000
# 2 30.2827 78.4194 31.6176 0.0000 10.9601 0.0000
# 3 45.5218 31.6176 146.6751 0.0000 -21.7934 0.0000
# 4 0.0000 0.0000 0.0000 33.5225 0.0000 11.9269
# 5 -43.1724 10.9601 -21.7934 0.0000 58.5255 0.0000
# 6 0.0000 0.0000 0.0000 11.9269 0.0000 42.6760
#
#
#
# Elastic Compliance Matrix: (Units=1/GPa)
#
#
# Indices 1 2 3 4 5 6 
#
# 1 0.011674 -0.005350 -0.001103 0.000000 0.009203 0.000000
# 2 -0.005350 0.017339 -0.003330 0.000000 -0.008434 0.000000
# 3 -0.001103 -0.003330 0.008309 0.000000 0.002905 0.000000
# 4 0.000000 0.000000 0.000000 0.033124 0.000000 -0.009257
# 5 0.009203 -0.008434 0.002905 0.000000 0.026536 0.000000
# 6 0.000000 0.000000 0.000000 -0.009257 0.000000 0.026020
#
#
# Mechanical properties :
#
#
# Convention : Reuss Voigt Hill
#
# Bulk Modulus (GPa) = 56.31459 64.20069 60.25764
# Shear Modulus (GPa) = 33.67255 43.98078 38.82667
#
# Velocity S-wave (km/s) = 3.83113 4.37845 4.11391
# Velocity P-wave (km/s) = 6.64208 7.31749 6.98795
#
# Compressibility (1/GPa) = 0.01775739
#
# Stress axis : x y z
#
# Youngs Moduli (GPa) = 85.65729 57.67208 120.34460
#
# Poissons Ratio (x) = 0.30854 0.13269
# Poissons Ratio (y) = 0.45826 0.40080
# Poissons Ratio (z) = 0.09444 0.19207
#
# Static dielectric constant tensor:
#      x y z
#    x 1.932730 0.000000 -0.005720 
#    y 0.000000 1.974190 0.000000 
#    z -0.005720 0.000000 1.900480 
# 
# From -- ./inp_files/28880.got.cif
#   From: 2010.05.17/outbox.cif.g08.bks.cpg/sg15_15_cif.got.tgz:28880.got - 2010.06.03 18:47:42.
