data_PCOD9299655
_publ_section_title
;
Structure prediction by ZEFSAII (Michael W. Deem and Ramdas Pophale) SiO2 
 PCOD9299655
Probable space group: C 2/C
;
_chemical_formula_sum "Si O2"
_cell_formula_units_Z 40
_cell_length_a 7.666202
_cell_length_b 19.066667
_cell_length_c 16.873160
_cell_angle_alpha 90.000000
_cell_angle_beta 45.968832
_cell_angle_gamma 90.000000
_cell_volume 1773.198223
_symmetry_space_group_name_H-M "C 2/C"
_symmetry_group_IT_number 15
_symmetry_cell_setting 'monoclinic'
loop_
_space_group_symop_operation_xyz
x,y,z
-x,y,1/2-z
-x,-y,-z
x,-y,1/2+z
1/2+x,1/2+y,z
1/2-x,1/2+y,1/2-z
1/2-x,1/2-y,-z
1/2+x,1/2-y,1/2+z
loop_
_atom_site_type_symbol
_atom_site_label
_atom_site_fract_x
_atom_site_fract_y
_atom_site_fract_z
Si Si1 0.000000 0.779660 0.250000
Si Si2 0.275939 0.683287 0.665239
Si Si3 0.508698 0.079412 0.463446
Si Si4 0.996296 0.952286 0.078704
Si Si5 0.507197 0.772432 0.030753
Si Si6 0.000000 0.032254 0.250000
O O1 0.105488 0.825997 0.286897
O O2 0.250596 0.743040 0.143723
O O3 0.293385 0.605928 0.624829
O O4 0.443191 0.740397 0.570659
O O5 0.000000 0.707754 0.750000
O O6 0.257745 0.086144 0.496239
O O7 0.504020 0.143195 0.526988
O O8 0.759330 0.079308 0.336343
O O9 0.500000 0.000000 0.500000
O O10 0.971066 0.989194 0.174584
O O11 0.000000 0.000000 0.000000
O O12 0.750000 0.750000 0.000000
#
# Coordination Sequence:
#
# PCOD9299655 Si02
#       6
#     4   8   8   8   8   4
#     4  12  25  50  74 100 158 197 244 322 385 456
#     4  12  27  46  76 108 150 199 252 315 393 469
#     4  10  25  45  70 104 149 191 250 314 381 459
#     4  11  26  45  74 110 146 200 258 314 386 474
#     4  12  27  47  76 114 148 200 261 314 393 467
#     4  10  25  44  74 100 150 193 244 316 387 454
#
# _framework density 22.558109999999999
#
# number of rings (size 3 to 8) (size 9 to 14) (size 15 to 20)
#    0.000    0.800    4.000    1.200   12.600    0.000 
#    0.000    0.000    0.000    0.000    0.000    0.000 
#    0.000    0.000    0.000    0.000    0.000    0.000 
#
# Total GULP energy -111512.978246 kJ/mol
# GULP energy per Si atom -5575.648912 kJ/mol
# Density = 2.250677 g / cm^3
# Si number density = 22.558110 Si / 1000 Ang^3
#
#
#
# Elastic Constant Matrix: (Units=GPa)
#
#
# Indices 1 2 3 4 5 6 
#
# 1 111.6282 28.7679 47.6460 0.0000 -15.0645 0.0000
# 2 28.7679 70.2852 25.2105 0.0000 11.8037 0.0000
# 3 47.6460 25.2105 155.8922 0.0000 -37.9032 0.0000
# 4 0.0000 0.0000 0.0000 33.9737 0.0000 0.8187
# 5 -15.0645 11.8037 -37.9032 0.0000 58.1517 0.0000
# 6 0.0000 0.0000 0.0000 0.8187 0.0000 20.2236
#
#
#
# Elastic Compliance Matrix: (Units=1/GPa)
#
#
# Indices 1 2 3 4 5 6 
#
# 1 0.011306 -0.004235 -0.002198 0.000000 0.002356 0.000000
# 2 -0.004235 0.018355 -0.003383 0.000000 -0.007027 0.000000
# 3 -0.002198 -0.003383 0.009105 0.000000 0.006052 0.000000
# 4 0.000000 0.000000 0.000000 0.029463 0.000000 -0.001193
# 5 0.002356 -0.007027 0.006052 0.000000 0.023178 0.000000
# 6 0.000000 0.000000 0.000000 -0.001193 0.000000 0.049496
#
#
# Mechanical properties :
#
#
# Convention : Reuss Voigt Hill
#
# Bulk Modulus (GPa) = 52.26082 60.11715 56.18899
# Shear Modulus (GPa) = 29.95625 38.21520 34.08573
#
# Velocity S-wave (km/s) = 3.64807 4.12038 3.89140
# Velocity P-wave (km/s) = 6.40016 7.02456 6.71962
#
# Compressibility (1/GPa) = 0.01913479
#
# Stress axis : x y z
#
# Youngs Moduli (GPa) = 88.45129 54.48245 109.83169
#
# Poissons Ratio (x) = 0.23072 0.24138
# Poissons Ratio (y) = 0.37457 0.37152
# Poissons Ratio (z) = 0.19440 0.18429
#
# Static dielectric constant tensor:
#      x y z
#    x 1.866390 0.000000 0.092340 
#    y 0.000000 1.873920 0.000000 
#    z 0.092340 0.000000 1.767870 
# 
# From -- ./inp_files/191922.got.cif
#   From: 2010.05.17/outbox.cif.g08.bks.cpg/sg15_96_cif.got.tgz:191922.got - 2010.06.03 18:47:42.
