data_PCOD9299206
_publ_section_title
;
Structure prediction by ZEFSAII (Michael W. Deem and Ramdas Pophale) SiO2 
 PCOD9299206
Probable space group: C 2/C
;
_chemical_formula_sum "Si O2"
_cell_formula_units_Z 40
_cell_length_a 13.666019
_cell_length_b 5.166658
_cell_length_c 25.038647
_cell_angle_alpha 90.000000
_cell_angle_beta 120.678210
_cell_angle_gamma 90.000000
_cell_volume 1520.493126
_symmetry_space_group_name_H-M "C 2/C"
_symmetry_group_IT_number 15
_symmetry_cell_setting 'monoclinic'
loop_
_space_group_symop_operation_xyz
x,y,z
-x,y,1/2-z
-x,-y,-z
x,-y,1/2+z
1/2+x,1/2+y,z
1/2-x,1/2+y,1/2-z
1/2-x,1/2-y,-z
1/2+x,1/2-y,1/2+z
loop_
_atom_site_type_symbol
_atom_site_label
_atom_site_fract_x
_atom_site_fract_y
_atom_site_fract_z
Si Si1 0.271512 0.929967 0.121211
Si Si2 0.613558 0.286854 0.258522
Si Si3 0.848870 0.455695 0.837995
Si Si4 0.941296 0.751342 0.573523
Si Si5 0.138221 0.746606 0.504527
O O1 0.349366 0.059004 0.189425
O O2 0.349399 0.799199 0.095961
O O3 0.192969 0.156946 0.074718
O O4 0.065652 0.025158 0.957307
O O5 0.500000 0.415994 0.250000
O O6 0.588805 0.194535 0.192188
O O7 0.724894 0.459261 0.283822
O O8 0.814470 0.278704 0.878150
O O9 0.934084 0.690940 0.870636
O O10 0.084227 0.468503 0.478405
O O11 0.250000 0.750000 0.500000
#
# Coordination Sequence:
#
# PCOD9299206 Si02
#       5
#     8   8   8   8   8
#     4  11  25  46  75 105 155 199 250 318 385 449
#     4  12  27  49  71 107 151 199 257 318 386 451
#     4  12  28  45  77 112 146 204 262 315 385 465
#     4  11  26  48  79 113 156 201 256 316 385 459
#     4  10  24  47  77 114 154 204 252 312 390 459
#
# _framework density 26.307255000000001
#
# number of rings (size 3 to 8) (size 9 to 14) (size 15 to 20)
#    0.000    0.800    4.000    2.400   11.200    4.000 
#    0.000    0.000    0.000    0.000    0.000    0.000 
#    0.000    0.000    0.000    0.000    0.000    0.000 
#
# Total GULP energy -112111.968276 kJ/mol
# GULP energy per Si atom -5605.598414 kJ/mol
# Density = 2.624738 g / cm^3
# Si number density = 26.307255 Si / 1000 Ang^3
#
#
#
# Elastic Constant Matrix: (Units=GPa)
#
#
# Indices 1 2 3 4 5 6 
#
# 1 158.3417 1.2765 20.2960 0.0002 -24.9931 -0.0001
# 2 1.2765 67.8819 16.4604 0.0004 -9.6106 -0.0002
# 3 20.2960 16.4604 74.5950 0.0001 -15.4434 -0.0001
# 4 0.0002 0.0004 0.0001 47.7936 0.0000 1.3098
# 5 -24.9931 -9.6106 -15.4434 0.0000 52.9032 0.0000
# 6 -0.0001 -0.0002 -0.0001 1.3098 0.0000 25.2875
#
#
#
# Elastic Compliance Matrix: (Units=1/GPa)
#
#
# Indices 1 2 3 4 5 6 
#
# 1 0.006964 0.000636 -0.001416 0.000000 0.002992 0.000000
# 2 0.000636 0.015812 -0.003199 0.000000 0.002239 0.000000
# 3 -0.001416 -0.003199 0.015154 0.000000 0.003174 0.000000
# 4 0.000000 0.000000 0.000000 0.020953 0.000000 -0.001085
# 5 0.002992 0.002239 0.003174 0.000000 0.021649 0.000000
# 6 0.000000 0.000000 0.000000 -0.001085 0.000000 0.039601
#
#
# Mechanical properties :
#
#
# Convention : Reuss Voigt Hill
#
# Bulk Modulus (GPa) = 33.36288 41.87607 37.61947
# Shear Modulus (GPa) = 36.21044 42.71589 39.46317
#
# Velocity S-wave (km/s) = 3.71407 4.03393 3.87730
# Velocity P-wave (km/s) = 5.57691 6.13591 5.86308
#
# Compressibility (1/GPa) = 0.02997343
#
# Stress axis : x y z
#
# Youngs Moduli (GPa) = 143.59351 63.24248 65.99005
#
# Poissons Ratio (x) = -0.04022 0.09342
# Poissons Ratio (y) = -0.09132 0.21108
# Poissons Ratio (z) = 0.20328 0.20229
#
# Static dielectric constant tensor:
#      x y z
#    x 2.085610 0.000000 0.072680 
#    y 0.000000 2.135580 0.000000 
#    z 0.072680 0.000000 2.332550 
# 
# From -- ./inp_files/267894.got.cif
#   From: 2010.05.17/outbox.cif.g08.bks.cpg/sg15_134_cif.got.tgz:267894.got - 2010.06.03 18:47:42.
