data_PCOD9299272
_publ_section_title
;
Structure prediction by ZEFSAII (Michael W. Deem and Ramdas Pophale) SiO2 
 PCOD9299272
Probable space group: C 2/C
;
_chemical_formula_sum "Si O2"
_cell_formula_units_Z 40
_cell_length_a 9.835929
_cell_length_b 16.528015
_cell_length_c 14.916360
_cell_angle_alpha 90.000000
_cell_angle_beta 137.476430
_cell_angle_gamma 90.000000
_cell_volume 1638.993291
_symmetry_space_group_name_H-M "C 2/C"
_symmetry_group_IT_number 15
_symmetry_cell_setting 'monoclinic'
loop_
_space_group_symop_operation_xyz
x,y,z
-x,y,1/2-z
-x,-y,-z
x,-y,1/2+z
1/2+x,1/2+y,z
1/2-x,1/2+y,1/2-z
1/2-x,1/2-y,-z
1/2+x,1/2-y,1/2+z
loop_
_atom_site_type_symbol
_atom_site_label
_atom_site_fract_x
_atom_site_fract_y
_atom_site_fract_z
Si Si1 0.271301 0.282204 0.658828
Si Si2 0.918030 0.814910 0.049335
Si Si3 0.500000 0.021242 0.750000
Si Si4 0.000000 0.074671 0.750000
Si Si5 0.716451 0.398605 0.679588
Si Si6 0.213490 0.940065 0.954736
O O1 0.500000 0.253403 0.750000
O O2 0.247411 0.317047 0.747945
O O3 0.758034 0.360609 0.917870
O O4 0.086266 0.221364 0.563843
O O5 0.031355 0.863507 0.182706
O O6 0.750000 0.750000 0.000000
O O7 0.799671 0.879732 0.932742
O O8 0.384177 0.965734 0.765625
O O9 0.346717 0.064399 0.608926
O O10 0.813694 0.017616 0.625463
O O11 0.512928 0.434098 0.619032
#
# Coordination Sequence:
#
# PCOD9299272 Si02
#       6
#     8   8   4   4   8   8
#     4  10  24  48  72 103 153 195 249 305 369 440
#     4  12  26  45  74 107 151 201 245 305 377 448
#     4  12  24  41  74 107 142 192 242 318 364 429
#     4  12  24  49  78 107 148 200 248 310 370 441
#     4  11  23  45  69 104 151 185 253 309 359 440
#     4  11  25  47  75 108 147 193 252 309 362 442
#
# _framework density 24.405225000000002
#
# number of rings (size 3 to 8) (size 9 to 14) (size 15 to 20)
#    0.000    0.800    5.000    3.000    0.000    5.600 
#    5.400    0.000    0.000    0.000    0.000    0.000 
#    0.000    0.000    0.000    0.000    0.000    0.000 
#
# Total GULP energy -111800.659051 kJ/mol
# GULP energy per Si atom -5590.032953 kJ/mol
# Density = 2.434968 g / cm^3
# Si number density = 24.405225 Si / 1000 Ang^3
#
#
#
# Elastic Constant Matrix: (Units=GPa)
#
#
# Indices 1 2 3 4 5 6 
#
# 1 79.4156 40.2582 8.7244 0.0000 0.7115 0.0000
# 2 40.2582 83.7171 27.0661 0.0000 15.2639 0.0000
# 3 8.7244 27.0661 88.7361 -0.0003 -9.7165 -0.0001
# 4 0.0000 0.0000 -0.0003 27.5169 -0.0001 -6.9860
# 5 0.7115 15.2639 -9.7165 -0.0001 40.9017 -0.0001
# 6 0.0000 0.0000 -0.0001 -6.9860 -0.0001 25.4210
#
#
#
# Elastic Compliance Matrix: (Units=1/GPa)
#
#
# Indices 1 2 3 4 5 6 
#
# 1 0.017160 -0.009417 0.001578 0.000000 0.003591 0.000000
# 2 -0.009417 0.020066 -0.006157 0.000000 -0.008787 0.000000
# 3 0.001578 -0.006157 0.013594 0.000000 0.005500 0.000000
# 4 0.000000 0.000000 0.000000 0.039067 0.000000 0.010736
# 5 0.003591 -0.008787 0.005500 0.000000 0.028972 0.000000
# 6 0.000000 0.000000 0.000000 0.010736 0.000000 0.042288
#
#
# Mechanical properties :
#
#
# Convention : Reuss Voigt Hill
#
# Bulk Modulus (GPa) = 43.80264 44.88513 44.34388
# Shear Modulus (GPa) = 25.41313 30.48926 27.95120
#
# Velocity S-wave (km/s) = 3.23042 3.53837 3.38789
# Velocity P-wave (km/s) = 5.64811 5.92663 5.78904
#
# Compressibility (1/GPa) = 0.02282968
#
# Stress axis : x y z
#
# Youngs Moduli (GPa) = 58.27441 49.83512 73.56001
#
# Poissons Ratio (x) = 0.46930 -0.11611
# Poissons Ratio (y) = 0.54877 0.45290
# Poissons Ratio (z) = -0.09198 0.30683
#
# Static dielectric constant tensor:
#      x y z
#    x 1.988110 0.000000 -0.003350 
#    y 0.000000 2.227250 0.000000 
#    z -0.003350 0.000000 1.902290 
# 
# From -- ./inp_files/199764.got.cif
#   From: 2010.05.17/outbox.cif.g08.bks.cpg/sg15_100_cif.got.tgz:199764.got - 2010.06.03 18:47:42.
