data_PCOD9299571
_publ_section_title
;
Structure prediction by ZEFSAII (Michael W. Deem and Ramdas Pophale) SiO2 
 PCOD9299571
Probable space group: C 2/C
;
_chemical_formula_sum "Si O2"
_cell_formula_units_Z 40
_cell_length_a 24.775933
_cell_length_b 7.350287
_cell_length_c 8.961611
_cell_angle_alpha 90.000000
_cell_angle_beta 86.232443
_cell_angle_gamma 90.000000
_cell_volume 1628.473912
_symmetry_space_group_name_H-M "C 2/C"
_symmetry_group_IT_number 15
_symmetry_cell_setting 'monoclinic'
loop_
_space_group_symop_operation_xyz
x,y,z
-x,y,1/2-z
-x,-y,-z
x,-y,1/2+z
1/2+x,1/2+y,z
1/2-x,1/2+y,1/2-z
1/2-x,1/2-y,-z
1/2+x,1/2-y,1/2+z
loop_
_atom_site_type_symbol
_atom_site_label
_atom_site_fract_x
_atom_site_fract_y
_atom_site_fract_z
Si Si1 0.563409 0.159195 0.872424
Si Si2 0.839580 0.825210 0.983806
Si Si3 0.713863 0.392639 0.206781
Si Si4 0.047684 0.269982 0.023259
Si Si5 0.675827 0.902325 0.487224
O O1 0.515958 0.276844 0.960041
O O2 0.559313 0.182467 0.695759
O O3 0.623027 0.188009 0.924296
O O4 0.551641 0.947930 0.917534
O O5 0.796007 0.878815 0.117262
O O6 0.836287 0.609013 0.966636
O O7 0.901610 0.858637 0.025234
O O8 0.821390 0.939299 0.845992
O O9 0.774749 0.405904 0.137669
O O10 0.691247 0.213832 0.128782
#
# Coordination Sequence:
#
# PCOD9299571 Si02
#       5
#     8   8   8   8   8
#     4   9  19  37  67  95 130 172 226 276 331 401
#     4  11  26  43  70  98 139 178 225 285 333 410
#     4  11  27  43  66 104 136 180 226 276 342 406
#     4   9  20  38  65  99 128 172 225 281 332 395
#     4  10  25  43  70  97 136 181 224 279 338 406
#
# _framework density 24.562873
#
# number of rings (size 3 to 8) (size 9 to 14) (size 15 to 20)
#    0.000    2.000    0.000    0.600   19.600    0.000 
#    0.000    1.000    0.000    0.000    0.000    0.000 
#    0.000    0.000    0.000    0.000    0.000    0.000 
#
# Total GULP energy -112014.917053 kJ/mol
# GULP energy per Si atom -5600.745853 kJ/mol
# Density = 2.450697 g / cm^3
# Si number density = 24.562873 Si / 1000 Ang^3
#
#
#
# Elastic Constant Matrix: (Units=GPa)
#
#
# Indices 1 2 3 4 5 6 
#
# 1 157.1214 32.7045 0.4323 0.0000 0.1634 0.0000
# 2 32.7045 94.6930 13.2564 0.0000 2.2139 0.0000
# 3 0.4323 13.2564 52.7036 0.0000 -8.2280 0.0000
# 4 0.0000 0.0000 0.0000 -1.9094 0.0000 -15.6227
# 5 0.1634 2.2139 -8.2280 0.0000 35.2872 0.0000
# 6 0.0000 0.0000 0.0000 -15.6227 0.0000 18.0506
#
#
#
# Elastic Compliance Matrix: (Units=1/GPa)
#
#
# Indices 1 2 3 4 5 6 
#
# 1 0.006876 -0.002466 0.000605 0.000000 0.000264 0.000000
# 2 -0.002466 0.011895 -0.003203 0.000000 -0.001482 0.000000
# 3 0.000605 -0.003203 0.020554 0.000000 0.004991 0.000000
# 4 0.000000 0.000000 0.000000 -0.064806 0.000000 -0.056089
# 5 0.000264 -0.001482 0.004991 0.000000 0.029594 0.000000
# 6 0.000000 0.000000 0.000000 -0.056089 0.000000 0.006855
#
#
# Mechanical properties :
#
#
# Convention : Reuss Voigt Hill
#
# Bulk Modulus (GPa) = 34.24965 44.14495 39.19730
# Shear Modulus (GPa) = 162.19036 27.49400 94.84218
#
# Velocity S-wave (km/s) = 8.13474 3.34927 6.22060
# Velocity P-wave (km/s) = 10.10970 5.74178 8.22113
#
# Compressibility (1/GPa) = 0.02919738
#
# Stress axis : x y z
#
# Youngs Moduli (GPa) = 145.43827 84.06866 48.65266
#
# Poissons Ratio (x) = 0.20728 -0.02943
# Poissons Ratio (y) = 0.35859 0.15584
# Poissons Ratio (z) = -0.08798 0.26927
#
# Static dielectric constant tensor:
#      x y z
#    x 2.043150 0.000000 0.008590 
#    y 0.000000 1.946890 0.000000 
#    z 0.008590 0.000000 1.873850 
# 
# From -- ./inp_files/60030.got.cif
#   From: 2010.05.17/outbox.cif.g08.bks.cpg/sg15_31_cif.got.tgz:60030.got - 2010.06.03 18:47:42.
