data_PCOD9299188
_publ_section_title
;
Structure prediction by ZEFSAII (Michael W. Deem and Ramdas Pophale) SiO2 
 PCOD9299188
Probable space group: C 2/C
;
_chemical_formula_sum "Si O2"
_cell_formula_units_Z 32
_cell_length_a 30.031207
_cell_length_b 5.043356
_cell_length_c 8.895479
_cell_angle_alpha 90.000000
_cell_angle_beta 58.722242
_cell_angle_gamma 90.000000
_cell_volume 1151.477229
_symmetry_space_group_name_H-M "C 2/C"
_symmetry_group_IT_number 15
_symmetry_cell_setting 'monoclinic'
loop_
_space_group_symop_operation_xyz
x,y,z
-x,y,1/2-z
-x,-y,-z
x,-y,1/2+z
1/2+x,1/2+y,z
1/2-x,1/2+y,1/2-z
1/2-x,1/2-y,-z
1/2+x,1/2-y,1/2+z
loop_
_atom_site_type_symbol
_atom_site_label
_atom_site_fract_x
_atom_site_fract_y
_atom_site_fract_z
Si Si1 0.000000 0.000000 0.000000
Si Si2 0.850885 0.027204 0.826267
Si Si3 0.715749 0.765104 0.293202
Si Si4 0.918751 0.235022 0.449818
Si Si5 0.000000 0.697593 0.250000
O O1 0.962363 0.990838 0.913426
O O2 0.973493 0.757561 0.126757
O O3 0.873951 0.202778 0.650823
O O4 0.809980 0.830900 0.817202
O O5 0.824786 0.204210 0.001454
O O6 0.895054 0.848452 0.830025
O O7 0.763562 0.562997 0.240866
O O8 0.951610 0.496506 0.384495
#
# Coordination Sequence:
#
# PCOD9299188 Si02
#       5
#     4   8   8   8   4
#     4  12  26  48  70 112 154 196 264 300 392 458
#     4  10  24  47  74 117 148 195 267 318 375 484
#     4  11  24  50  77 109 160 204 258 320 408 461
#     4  11  24  48  73 108 152 200 252 314 383 448
#     4  12  26  48  76 100 160 206 248 320 384 460
#
# _framework density 27.790386000000002
#
# number of rings (size 3 to 8) (size 9 to 14) (size 15 to 20)
#    0.000    1.000    0.000    6.000    0.000    0.000 
#   45.000    5.000    0.000    0.000    0.000    0.000 
#    0.000    0.000    0.000    0.000    0.000    0.000 
#
# Total GULP energy -89291.538633 kJ/mol
# GULP energy per Si atom -5580.721165 kJ/mol
# Density = 2.772713 g / cm^3
# Si number density = 27.790386 Si / 1000 Ang^3
#
#
#
# Elastic Constant Matrix: (Units=GPa)
#
#
# Indices 1 2 3 4 5 6 
#
# 1 163.3321 30.3174 15.2036 0.0000 30.3886 0.0000
# 2 30.3174 103.2113 52.8098 0.0000 8.5542 0.0000
# 3 15.2036 52.8098 175.4266 0.0000 14.3151 0.0000
# 4 0.0000 0.0000 0.0000 40.1641 0.0000 10.1239
# 5 30.3886 8.5542 14.3151 0.0000 42.9371 0.0000
# 6 0.0000 0.0000 0.0000 10.1239 0.0000 47.9392
#
#
#
# Elastic Compliance Matrix: (Units=1/GPa)
#
#
# Indices 1 2 3 4 5 6 
#
# 1 0.007369 -0.001932 0.000347 0.000000 -0.004946 0.000000
# 2 -0.001932 0.012016 -0.003460 0.000000 0.000127 0.000000
# 3 0.000347 -0.003460 0.006862 0.000000 -0.001844 0.000000
# 4 0.000000 0.000000 0.000000 0.026298 0.000000 -0.005554
# 5 -0.004946 0.000127 -0.001844 0.000000 0.027380 0.000000
# 6 0.000000 0.000000 0.000000 -0.005554 0.000000 0.022033
#
#
# Mechanical properties :
#
#
# Convention : Reuss Voigt Hill
#
# Bulk Modulus (GPa) = 61.89467 70.95906 66.42686
# Shear Modulus (GPa) = 42.57677 49.11738 45.84707
#
# Velocity S-wave (km/s) = 3.91841 4.20863 4.06611
# Velocity P-wave (km/s) = 6.54158 7.01469 6.78226
#
# Compressibility (1/GPa) = 0.01615648
#
# Stress axis : x y z
#
# Youngs Moduli (GPa) = 135.70212 83.21993 145.71982
#
# Poissons Ratio (x) = 0.16078 -0.05050
# Poissons Ratio (y) = 0.26217 0.50423
# Poissons Ratio (z) = -0.04703 0.28796
#
# Static dielectric constant tensor:
#      x y z
#    x 2.211120 0.000000 0.056050 
#    y 0.000000 2.341560 0.000000 
#    z 0.056050 0.000000 2.252460 
# 
# From -- ./inp_files/67899.got.cif
#   From: 2010.05.17/outbox.cif.g08.bks.cpg/sg15_34_cif.got.tgz:67899.got - 2010.06.03 18:47:42.
