data_PCOD9299843
_publ_section_title
;
Structure prediction by ZEFSAII (Michael W. Deem and Ramdas Pophale) SiO2 
 PCOD9299843
Probable space group: C 2/C
;
_chemical_formula_sum "Si O2"
_cell_formula_units_Z 24
_cell_length_a 9.526935
_cell_length_b 11.799840
_cell_length_c 9.469395
_cell_angle_alpha 90.000000
_cell_angle_beta 53.904212
_cell_angle_gamma 90.000000
_cell_volume 860.162998
_symmetry_space_group_name_H-M "C 2/C"
_symmetry_group_IT_number 15
_symmetry_cell_setting 'monoclinic'
loop_
_space_group_symop_operation_xyz
x,y,z
-x,y,1/2-z
-x,-y,-z
x,-y,1/2+z
1/2+x,1/2+y,z
1/2-x,1/2+y,1/2-z
1/2-x,1/2-y,-z
1/2+x,1/2-y,1/2+z
loop_
_atom_site_type_symbol
_atom_site_label
_atom_site_fract_x
_atom_site_fract_y
_atom_site_fract_z
Si Si1 0.406121 0.143035 0.455869
Si Si2 0.517251 0.367482 0.962629
Si Si3 0.271060 0.901715 0.554261
O O1 0.500000 0.120368 0.250000
O O2 0.401368 0.280236 0.473437
O O3 0.532573 0.123909 0.517819
O O4 0.270272 0.039839 0.549323
O O5 0.649968 0.362904 0.754121
O O6 0.317650 0.347045 0.030970
O O7 0.500000 0.500000 0.000000
#
# Coordination Sequence:
#
# PCOD9299843 Si02
#       3
#     8   8   8
#     4  11  25  47  76 102 144 188 239 296 357 424
#     4  11  25  43  73 104 144 186 241 290 357 428
#     4  10  25  47  69 107 142 188 239 295 357 425
#
# _framework density 27.901688
#
# number of rings (size 3 to 8) (size 9 to 14) (size 15 to 20)
#    0.000    1.333    0.000    3.000    9.333    2.667 
#   24.000    0.000    0.000    0.000    0.000    0.000 
#    0.000    0.000    0.000    0.000    0.000    0.000 
#
# Total GULP energy -67021.362054 kJ/mol
# GULP energy per Si atom -5585.113505 kJ/mol
# Density = 2.783818 g / cm^3
# Si number density = 27.901688 Si / 1000 Ang^3
#
#
#
# Elastic Constant Matrix: (Units=GPa)
#
#
# Indices 1 2 3 4 5 6 
#
# 1 114.5249 51.5121 -7.1554 0.0000 8.6926 0.0000
# 2 51.5121 177.8980 24.2822 0.0000 8.9438 0.0000
# 3 -7.1554 24.2822 91.7610 0.0000 -1.8091 0.0000
# 4 0.0000 0.0000 0.0000 49.4503 0.0000 10.8765
# 5 8.6926 8.9438 -1.8091 0.0000 17.9888 0.0000
# 6 0.0000 0.0000 0.0000 10.8765 0.0000 93.1432
#
#
#
# Elastic Compliance Matrix: (Units=1/GPa)
#
#
# Indices 1 2 3 4 5 6 
#
# 1 0.010469 -0.003075 0.001564 0.000000 -0.003372 0.000000
# 2 -0.003075 0.006908 -0.002111 0.000000 -0.002161 0.000000
# 3 0.001564 -0.002111 0.011607 0.000000 0.001461 0.000000
# 4 0.000000 0.000000 0.000000 0.020755 0.000000 -0.002424
# 5 -0.003372 -0.002161 0.001461 0.000000 0.058441 0.000000
# 6 0.000000 0.000000 0.000000 -0.002424 0.000000 0.011019
#
#
# Mechanical properties :
#
#
# Convention : Reuss Voigt Hill
#
# Bulk Modulus (GPa) = 45.99842 57.94019 51.96930
# Shear Modulus (GPa) = 37.39980 53.15280 45.27630
#
# Velocity S-wave (km/s) = 3.66514 4.36937 4.03266
# Velocity P-wave (km/s) = 5.86793 6.80192 6.35212
#
# Compressibility (1/GPa) = 0.02173988
#
# Stress axis : x y z
#
# Youngs Moduli (GPa) = 95.52411 144.75217 86.15411
#
# Poissons Ratio (x) = 0.44513 -0.13471
# Poissons Ratio (y) = 0.29375 0.18183
# Poissons Ratio (z) = -0.14936 0.30550
#
# Static dielectric constant tensor:
#      x y z
#    x 2.464780 0.000000 -0.036440 
#    y 0.000000 2.592080 0.000000 
#    z -0.036440 0.000000 1.994880 
# 
# From -- ./inp_files/83406.got.cif
#   From: 2010.05.17/outbox.cif.g08.bks.cpg/sg15_42_cif.got.tgz:83406.got - 2010.06.03 18:47:42.
