data_PCOD9299785
_publ_section_title
;
Structure prediction by ZEFSAII (Michael W. Deem and Ramdas Pophale) SiO2 
 PCOD9299785
Probable space group: C 2/C
;
_chemical_formula_sum "Si O2"
_cell_formula_units_Z 48
_cell_length_a 18.790393
_cell_length_b 5.542726
_cell_length_c 22.128019
_cell_angle_alpha 90.000000
_cell_angle_beta 68.625911
_cell_angle_gamma 90.000000
_cell_volume 2146.122187
_symmetry_space_group_name_H-M "C 2/C"
_symmetry_group_IT_number 15
_symmetry_cell_setting 'monoclinic'
loop_
_space_group_symop_operation_xyz
x,y,z
-x,y,1/2-z
-x,-y,-z
x,-y,1/2+z
1/2+x,1/2+y,z
1/2-x,1/2+y,1/2-z
1/2-x,1/2-y,-z
1/2+x,1/2-y,1/2+z
loop_
_atom_site_type_symbol
_atom_site_label
_atom_site_fract_x
_atom_site_fract_y
_atom_site_fract_z
Si Si1 0.649957 0.772202 0.095775
Si Si2 0.195170 0.530506 0.701943
Si Si3 0.717429 0.050123 0.964982
Si Si4 0.005571 0.999307 0.105255
Si Si5 0.562527 0.208437 0.983745
Si Si6 0.149980 0.036380 0.781541
O O1 0.667198 0.964963 0.141691
O O2 0.711593 0.564243 0.091173
O O3 0.564046 0.679195 0.119588
O O4 0.674100 0.856604 0.021377
O O5 0.169388 0.276152 0.737685
O O6 0.286602 0.541825 0.684419
O O7 0.161212 0.775472 0.744667
O O8 0.750000 0.250000 0.000000
O O9 0.649622 0.140202 0.943957
O O10 0.057972 0.803214 0.054376
O O11 0.936850 0.928542 0.169742
O O12 0.962847 0.112123 0.060667
O O13 0.500000 0.000000 0.000000
#
# Coordination Sequence:
#
# PCOD9299785 Si02
#       6
#     8   8   8   8   8   8
#     4  11  25  42  66 101 135 176 229 283 341 412
#     4  10  25  46  71 100 132 180 235 285 344 410
#     4  11  24  41  66 100 139 178 219 278 344 416
#     4  11  25  42  66 101 135 176 229 283 341 412
#     4  11  24  41  66 100 139 178 219 278 344 416
#     4  10  25  46  71 100 132 180 235 285 344 410
#
# _framework density 22.365919999999999
#
# number of rings (size 3 to 8) (size 9 to 14) (size 15 to 20)
#    0.000    1.333    3.333    0.000    9.333    2.000 
#    0.000    1.667    0.000    0.000    0.000    0.000 
#    0.000    0.000    0.000    0.000    0.000    0.000 
#
# Total GULP energy -134071.562088 kJ/mol
# GULP energy per Si atom -5586.315087 kJ/mol
# Density = 2.231501 g / cm^3
# Si number density = 22.365920 Si / 1000 Ang^3
#
#
#
# Elastic Constant Matrix: (Units=GPa)
#
#
# Indices 1 2 3 4 5 6 
#
# 1 141.0281 17.7278 38.0246 -0.0023 -18.2590 -0.0027
# 2 17.7278 75.4637 13.3002 -0.0014 -8.6074 -0.0029
# 3 38.0246 13.3002 56.1772 -0.0011 -4.7142 -0.0015
# 4 -0.0023 -0.0014 -0.0011 27.3102 -0.0029 0.4818
# 5 -18.2590 -8.6074 -4.7142 -0.0029 32.6795 -0.0035
# 6 -0.0027 -0.0029 -0.0015 0.4818 -0.0035 36.2565
#
#
#
# Elastic Compliance Matrix: (Units=1/GPa)
#
#
# Indices 1 2 3 4 5 6 
#
# 1 0.009270 -0.000687 -0.005763 0.000001 0.004167 0.000001
# 2 -0.000687 0.014220 -0.002652 0.000001 0.002979 0.000001
# 3 -0.005763 -0.002652 0.022270 0.000000 -0.000706 0.000000
# 4 0.000001 0.000001 0.000000 0.036625 0.000004 -0.000487
# 5 0.004167 0.002979 -0.000706 0.000004 0.033612 0.000004
# 6 0.000001 0.000001 0.000000 -0.000487 0.000004 0.027588
#
#
# Mechanical properties :
#
#
# Convention : Reuss Voigt Hill
#
# Bulk Modulus (GPa) = 36.28704 45.64157 40.96430
# Shear Modulus (GPa) = 29.24445 32.82367 31.03406
#
# Velocity S-wave (km/s) = 3.61992 3.83505 3.72904
# Velocity P-wave (km/s) = 5.80786 6.32939 6.07423
#
# Compressibility (1/GPa) = 0.02755805
#
# Stress axis : x y z
#
# Youngs Moduli (GPa) = 107.87018 70.32391 44.90368
#
# Poissons Ratio (x) = 0.04830 0.25876
# Poissons Ratio (y) = 0.07409 0.11907
# Poissons Ratio (z) = 0.62160 0.18648
#
# Static dielectric constant tensor:
#      x y z
#    x 1.507050 0.000050 0.076690 
#    y 0.000050 1.915290 -0.000020 
#    z 0.076690 -0.000020 1.835590 
# 
# From -- ./inp_files/261296.got.cif
#   From: 2010.05.17/outbox.cif.g08.bks.cpg/sg15_131_cif.got.tgz:261296.got - 2010.06.03 18:47:42.
