data_PCOD9299468
_publ_section_title
;
Structure prediction by ZEFSAII (Michael W. Deem and Ramdas Pophale) SiO2 
 PCOD9299468
Probable space group: C 2/C
;
_chemical_formula_sum "Si O2"
_cell_formula_units_Z 24
_cell_length_a 20.742165
_cell_length_b 9.232195
_cell_length_c 5.205168
_cell_angle_alpha 90.000000
_cell_angle_beta 59.828015
_cell_angle_gamma 90.000000
_cell_volume 861.725961
_symmetry_space_group_name_H-M "C 2/C"
_symmetry_group_IT_number 15
_symmetry_cell_setting 'monoclinic'
loop_
_space_group_symop_operation_xyz
x,y,z
-x,y,1/2-z
-x,-y,-z
x,-y,1/2+z
1/2+x,1/2+y,z
1/2-x,1/2+y,1/2-z
1/2-x,1/2-y,-z
1/2+x,1/2-y,1/2+z
loop_
_atom_site_type_symbol
_atom_site_label
_atom_site_fract_x
_atom_site_fract_y
_atom_site_fract_z
Si Si1 0.805263 0.668749 0.690247
Si Si2 0.336807 0.428760 0.252605
Si Si3 0.033737 0.338327 0.434814
O O1 0.752002 0.556737 0.645785
O O2 0.835368 0.775982 0.402432
O O3 0.878966 0.634256 0.702765
O O4 0.750000 0.750000 0.000000
O O5 0.368221 0.538772 0.405535
O O6 0.000000 0.266723 0.250000
O O7 0.000000 0.500000 0.500000
O O8 0.000000 0.260831 0.750000
#
# Coordination Sequence:
#
# PCOD9299468 Si02
#       3
#     8   8   8
#     4  11  25  42  71 107 145 189 251 296 353 436
#     4  11  24  39  66  99 142 185 244 292 358 415
#     4  10  25  41  65 101 146 182 221 294 375 418
#
# _framework density 27.851082999999999
#
# number of rings (size 3 to 8) (size 9 to 14) (size 15 to 20)
#    0.000    1.333    3.333    0.000   18.667    0.000 
#    0.000    0.000    0.000    6.000    0.000    0.000 
#    0.000    0.000    0.000    0.000    0.000    0.000 
#
# Total GULP energy -67044.755426 kJ/mol
# GULP energy per Si atom -5587.062952 kJ/mol
# Density = 2.778769 g / cm^3
# Si number density = 27.851083 Si / 1000 Ang^3
#
#
#
# Elastic Constant Matrix: (Units=GPa)
#
#
# Indices 1 2 3 4 5 6 
#
# 1 249.1127 24.4267 77.2141 0.0000 12.3064 0.0000
# 2 24.4267 59.7129 -2.1280 0.0000 11.8160 0.0000
# 3 77.2141 -2.1280 166.1412 0.0000 59.8964 0.0000
# 4 0.0000 0.0000 0.0000 24.4339 0.0000 8.0365
# 5 12.3064 11.8160 59.8964 0.0000 77.4206 0.0000
# 6 0.0000 0.0000 0.0000 8.0365 0.0000 48.3206
#
#
#
# Elastic Compliance Matrix: (Units=1/GPa)
#
#
# Indices 1 2 3 4 5 6 
#
# 1 0.005149 -0.002619 -0.003156 0.000000 0.002023 0.000000
# 2 -0.002619 0.018923 0.003260 0.000000 -0.004994 0.000000
# 3 -0.003156 0.003260 0.010437 0.000000 -0.008070 0.000000
# 4 0.000000 0.000000 0.000000 0.043295 0.000000 -0.007201
# 5 0.002023 -0.004994 -0.008070 0.000000 0.019601 0.000000
# 6 0.000000 0.000000 0.000000 -0.007201 0.000000 0.021893
#
#
# Mechanical properties :
#
#
# Convention : Reuss Voigt Hill
#
# Bulk Modulus (GPa) = 33.92307 74.88804 54.40556
# Shear Modulus (GPa) = 37.27056 55.06526 46.16791
#
# Velocity S-wave (km/s) = 3.66212 4.45132 4.07587
# Velocity P-wave (km/s) = 5.48526 7.30521 6.45965
#
# Compressibility (1/GPa) = 0.02947846
#
# Stress axis : x y z
#
# Youngs Moduli (GPa) = 194.19893 52.84691 95.81305
#
# Poissons Ratio (x) = 0.13842 0.30238
# Poissons Ratio (y) = 0.50865 -0.31235
# Poissons Ratio (z) = 0.61289 -0.17228
#
# Static dielectric constant tensor:
#      x y z
#    x 2.498630 0.000000 0.599020 
#    y 0.000000 2.186160 0.000000 
#    z 0.599020 0.000000 3.304370 
# 
# From -- ./inp_files/6112.got.cif
#   From: 2010.05.17/outbox.cif.g08.bks.cpg/sg15_4_cif.got.tgz:6112.got - 2010.06.03 18:47:42.
