data_PCOD9299586
_publ_section_title
;
Structure prediction by ZEFSAII (Michael W. Deem and Ramdas Pophale) SiO2 
 PCOD9299586
Probable space group: C 2/C
;
_chemical_formula_sum "Si O2"
_cell_formula_units_Z 40
_cell_length_a 4.810031
_cell_length_b 19.190236
_cell_length_c 16.050980
_cell_angle_alpha 90.000000
_cell_angle_beta 71.453412
_cell_angle_gamma 90.000000
_cell_volume 1404.649642
_symmetry_space_group_name_H-M "C 2/C"
_symmetry_group_IT_number 15
_symmetry_cell_setting 'monoclinic'
loop_
_space_group_symop_operation_xyz
x,y,z
-x,y,1/2-z
-x,-y,-z
x,-y,1/2+z
1/2+x,1/2+y,z
1/2-x,1/2+y,1/2-z
1/2-x,1/2-y,-z
1/2+x,1/2-y,1/2+z
loop_
_atom_site_type_symbol
_atom_site_label
_atom_site_fract_x
_atom_site_fract_y
_atom_site_fract_z
Si Si1 0.001529 0.262203 0.362270
Si Si2 0.730301 0.381618 0.831950
Si Si3 0.797362 0.406052 0.383826
Si Si4 0.015244 0.330945 0.519814
Si Si5 0.755977 0.499946 0.598763
O O1 0.175558 0.198227 0.306271
O O2 0.876905 0.332774 0.334256
O O3 0.176128 0.289075 0.429133
O O4 0.717162 0.221064 0.419561
O O5 0.447796 0.433450 0.856487
O O6 0.000000 0.406488 0.750000
O O7 0.826945 0.370779 0.919886
O O8 0.048399 0.464151 0.347885
O O9 0.000000 0.500000 0.500000
O O10 0.488027 0.441541 0.399084
O O11 0.822306 0.379975 0.477203
#
# Coordination Sequence:
#
# PCOD9299586 Si02
#       5
#     8   8   8   8   8
#     4   9  22  43  76 114 141 201 264 334 375 470
#     4  12  28  48  73 117 167 210 249 335 430 482
#     4  10  25  43  79 113 146 198 273 334 374 457
#     4   9  22  42  80 110 152 181 280 319 385 458
#     4  12  28  45  75 118 157 202 265 331 391 474
#
# _framework density 28.476851
#
# number of rings (size 3 to 8) (size 9 to 14) (size 15 to 20)
#    1.200    0.400    0.000    2.400   14.000    0.800 
#    0.000    5.000    0.000    0.000    0.000    0.000 
#    0.000    0.000    0.000    0.000    0.000    0.000 
#
# Total GULP energy -111611.641060 kJ/mol
# GULP energy per Si atom -5580.582053 kJ/mol
# Density = 2.841204 g / cm^3
# Si number density = 28.476851 Si / 1000 Ang^3
#
#
#
# Elastic Constant Matrix: (Units=GPa)
#
#
# Indices 1 2 3 4 5 6 
#
# 1 179.7959 62.0232 72.2334 0.0000 -30.5157 0.0000
# 2 62.0232 244.7405 90.0037 0.0000 -44.2296 0.0000
# 3 72.2334 90.0037 123.7123 0.0000 -26.5524 0.0000
# 4 0.0000 0.0000 0.0000 -0.4154 0.0000 -28.6554
# 5 -30.5157 -44.2296 -26.5524 0.0000 48.6649 0.0000
# 6 0.0000 0.0000 0.0000 -28.6554 0.0000 45.5278
#
#
#
# Elastic Compliance Matrix: (Units=1/GPa)
#
#
# Indices 1 2 3 4 5 6 
#
# 1 0.007555 -0.000035 -0.003823 0.000000 0.002619 0.000000
# 2 -0.000035 0.006068 -0.003641 0.000000 0.003506 0.000000
# 3 -0.003823 -0.003641 0.013297 0.000000 0.001548 0.000000
# 4 0.000000 0.000000 0.000000 -0.054197 0.000000 -0.034112
# 5 0.002619 0.003506 0.001548 0.000000 0.026222 0.000000
# 6 0.000000 0.000000 0.000000 -0.034112 0.000000 0.000495
#
#
# Mechanical properties :
#
#
# Convention : Reuss Voigt Hill
#
# Bulk Modulus (GPa) = 83.89491 110.75216 97.32354
# Shear Modulus (GPa) = 271.57012 40.35470 155.96241
#
# Velocity S-wave (km/s) = 9.77611 3.76853 7.40858
# Velocity P-wave (km/s) = 12.52814 7.61001 10.36500
#
# Compressibility (1/GPa) = 0.01191967
#
# Stress axis : x y z
#
# Youngs Moduli (GPa) = 132.37130 164.81195 75.20491
#
# Poissons Ratio (x) = 0.00580 0.28752
# Poissons Ratio (y) = 0.00466 0.27384
# Poissons Ratio (z) = 0.50608 0.60013
#
# Static dielectric constant tensor:
#      x y z
#    x 2.221650 0.000000 0.057060 
#    y 0.000000 2.493490 0.000000 
#    z 0.057060 0.000000 2.374260 
# 
# From -- ./inp_files/260607.got.cif
#   From: 2010.05.17/outbox.cif.g08.bks.cpg/sg15_131_cif.got.tgz:260607.got - 2010.06.03 18:47:42.
