data_PCOD9299644
_publ_section_title
;
Structure prediction by ZEFSAII (Michael W. Deem and Ramdas Pophale) SiO2 
 PCOD9299644
Probable space group: C 2/C
;
_chemical_formula_sum "Si O2"
_cell_formula_units_Z 40
_cell_length_a 28.698801
_cell_length_b 8.077613
_cell_length_c 20.689629
_cell_angle_alpha 90.000000
_cell_angle_beta 159.291422
_cell_angle_gamma 90.000000
_cell_volume 1696.016375
_symmetry_space_group_name_H-M "C 2/C"
_symmetry_group_IT_number 15
_symmetry_cell_setting 'monoclinic'
loop_
_space_group_symop_operation_xyz
x,y,z
-x,y,1/2-z
-x,-y,-z
x,-y,1/2+z
1/2+x,1/2+y,z
1/2-x,1/2+y,1/2-z
1/2-x,1/2-y,-z
1/2+x,1/2-y,1/2+z
loop_
_atom_site_type_symbol
_atom_site_label
_atom_site_fract_x
_atom_site_fract_y
_atom_site_fract_z
Si Si1 0.020530 0.026610 0.349139
Si Si2 0.729621 0.370609 0.412024
Si Si3 0.727329 0.709038 0.169024
Si Si4 0.384439 0.142916 0.668047
Si Si5 0.449348 0.005326 0.507032
O O1 0.999542 0.221436 0.313206
O O2 0.000000 0.953567 0.250000
O O3 0.905606 0.963437 0.246853
O O4 0.153945 0.958916 0.551725
O O5 0.750000 0.250000 0.500000
O O6 0.723027 0.288120 0.333729
O O7 0.847919 0.505461 0.567526
O O8 0.624375 0.838574 0.066048
O O9 0.842021 0.653656 0.366031
O O10 0.250000 0.250000 0.500000
O O11 0.426992 0.042048 0.786618
O O12 0.500000 0.000000 0.500000
#
# Coordination Sequence:
#
# PCOD9299644 Si02
#       5
#     8   8   8   8   8
#     4  11  23  40  71 103 142 181 241 300 370 433
#     4  11  22  44  70 107 140 184 245 307 363 439
#     4  12  26  45  74 105 152 196 248 307 378 437
#     4  10  25  44  71 104 140 186 243 306 369 441
#     4  12  28  48  72 105 151 196 248 306 376 447
#
# _framework density 23.584676999999999
#
# number of rings (size 3 to 8) (size 9 to 14) (size 15 to 20)
#    0.000    0.800    2.000    4.800    5.600    3.200 
#    0.000    7.000    0.000    0.000    0.000    0.000 
#    0.000    0.000    0.000    0.000    0.000    0.000 
#
# Total GULP energy -111870.773923 kJ/mol
# GULP energy per Si atom -5593.538696 kJ/mol
# Density = 2.353100 g / cm^3
# Si number density = 23.584677 Si / 1000 Ang^3
#
#
#
# Elastic Constant Matrix: (Units=GPa)
#
#
# Indices 1 2 3 4 5 6 
#
# 1 75.4778 24.4330 18.6757 0.0000 10.2795 0.0000
# 2 24.4330 114.9453 35.8589 0.0000 2.4497 0.0000
# 3 18.6757 35.8589 127.3456 0.0000 -20.3833 0.0000
# 4 0.0000 0.0000 0.0000 58.1739 0.0000 5.2924
# 5 10.2795 2.4497 -20.3833 0.0000 28.3922 0.0000
# 6 0.0000 0.0000 0.0000 5.2924 0.0000 33.4770
#
#
#
# Elastic Compliance Matrix: (Units=1/GPa)
#
#
# Indices 1 2 3 4 5 6 
#
# 1 0.015730 -0.002286 -0.002873 0.000000 -0.007560 0.000000
# 2 -0.002286 0.010119 -0.002849 0.000000 -0.002091 0.000000
# 3 -0.002873 -0.002849 0.010487 0.000000 0.008815 0.000000
# 4 0.000000 0.000000 0.000000 0.017441 0.000000 -0.002757
# 5 -0.007560 -0.002091 0.008815 0.000000 0.044467 0.000000
# 6 0.000000 0.000000 0.000000 -0.002757 0.000000 0.030307
#
#
# Mechanical properties :
#
#
# Convention : Reuss Voigt Hill
#
# Bulk Modulus (GPa) = 49.21342 52.85599 51.03470
# Shear Modulus (GPa) = 33.03824 39.92868 36.48346
#
# Velocity S-wave (km/s) = 3.74683 4.11906 3.93735
# Velocity P-wave (km/s) = 6.29526 6.71432 6.50816
#
# Compressibility (1/GPa) = 0.02031966
#
# Stress axis : x y z
#
# Youngs Moduli (GPa) = 63.57458 98.82417 95.35496
#
# Poissons Ratio (x) = 0.22592 0.27398
# Poissons Ratio (y) = 0.14533 0.27164
# Poissons Ratio (z) = 0.18266 0.28152
#
# Static dielectric constant tensor:
#      x y z
#    x 1.913340 0.000000 0.041330 
#    y 0.000000 1.944200 0.000000 
#    z 0.041330 0.000000 1.908320 
# 
# From -- ./inp_files/259055.got.cif
#   From: 2010.05.17/outbox.cif.g08.bks.cpg/sg15_130_cif.got.tgz:259055.got - 2010.06.03 18:47:42.
