data_PCOD9299485
_publ_section_title
;
Structure prediction by ZEFSAII (Michael W. Deem and Ramdas Pophale) SiO2 
 PCOD9299485
Probable space group: C 2/C
;
_chemical_formula_sum "Si O2"
_cell_formula_units_Z 36
_cell_length_a 8.264891
_cell_length_b 10.707316
_cell_length_c 17.977512
_cell_angle_alpha 90.000000
_cell_angle_beta 91.140397
_cell_angle_gamma 90.000000
_cell_volume 1590.601207
_symmetry_space_group_name_H-M "C 2/C"
_symmetry_group_IT_number 15
_symmetry_cell_setting 'monoclinic'
loop_
_space_group_symop_operation_xyz
x,y,z
-x,y,1/2-z
-x,-y,-z
x,-y,1/2+z
1/2+x,1/2+y,z
1/2-x,1/2+y,1/2-z
1/2-x,1/2-y,-z
1/2+x,1/2-y,1/2+z
loop_
_atom_site_type_symbol
_atom_site_label
_atom_site_fract_x
_atom_site_fract_y
_atom_site_fract_z
Si Si1 0.622528 0.917213 0.613221
Si Si2 0.629349 0.573844 0.050363
Si Si3 0.500000 0.755037 0.750000
Si Si4 0.544587 0.511437 0.826232
Si Si5 0.542257 0.850207 0.033065
O O1 0.570824 0.841435 0.685785
O O2 0.807638 0.952229 0.629008
O O3 0.588604 0.845423 0.534980
O O4 0.523937 0.046238 0.596891
O O5 0.617752 0.494265 0.125798
O O6 0.568729 0.714128 0.065445
O O7 0.500000 0.500000 0.000000
O O8 0.795521 0.600612 0.008675
O O9 0.597316 0.650467 0.799839
O O10 0.500000 0.441754 0.750000
#
# Coordination Sequence:
#
# PCOD9299485 Si02
#       5
#     8   8   4   8   8
#     4  11  23  47  66 103 132 179 231 272 347 395
#     4  11  21  45  71  99 140 175 226 277 343 403
#     4  10  26  46  66  92 150 174 218 294 330 402
#     4  10  25  44  69  96 133 188 217 271 352 403
#     4  10  25  41  74 102 135 175 228 293 330 401
#
# _framework density 22.632950000000001
#
# number of rings (size 3 to 8) (size 9 to 14) (size 15 to 20)
#    0.667    0.889    2.222    1.333    6.222    0.889 
#   14.000    0.000    0.000    0.000    0.000    0.000 
#    0.000    0.000    0.000    0.000    0.000    0.000 
#
# Total GULP energy -100207.276870 kJ/mol
# GULP energy per Si atom -5567.070937 kJ/mol
# Density = 2.258144 g / cm^3
# Si number density = 22.632950 Si / 1000 Ang^3
#
#
#
# Elastic Constant Matrix: (Units=GPa)
#
#
# Indices 1 2 3 4 5 6 
#
# 1 89.7163 24.8438 41.1053 0.0000 12.8145 0.0000
# 2 24.8438 84.5921 27.0515 0.0000 -2.9177 0.0000
# 3 41.1053 27.0515 120.9113 0.0000 -1.8130 0.0000
# 4 0.0000 0.0000 0.0000 43.6131 0.0000 -6.6713
# 5 12.8145 -2.9177 -1.8130 0.0000 17.6775 0.0000
# 6 0.0000 0.0000 0.0000 -6.6713 0.0000 19.4489
#
#
#
# Elastic Compliance Matrix: (Units=1/GPa)
#
#
# Indices 1 2 3 4 5 6 
#
# 1 0.016239 -0.003647 -0.004898 0.000000 -0.012876 0.000000
# 2 -0.003647 0.013610 -0.001734 0.000000 0.004712 0.000000
# 3 -0.004898 -0.001734 0.010389 0.000000 0.004330 0.000000
# 4 0.000000 0.000000 0.000000 0.024199 0.000000 0.008301
# 5 -0.012876 0.004712 0.004330 0.000000 0.067125 0.000000
# 6 0.000000 0.000000 0.000000 0.008301 0.000000 0.054264
#
#
# Mechanical properties :
#
#
# Convention : Reuss Voigt Hill
#
# Bulk Modulus (GPa) = 50.81586 53.46899 52.14243
# Shear Modulus (GPa) = 23.48040 29.62918 26.55479
#
# Velocity S-wave (km/s) = 3.22443 3.62210 3.42903
# Velocity P-wave (km/s) = 6.03022 6.41627 6.22623
#
# Compressibility (1/GPa) = 0.01967890
#
# Stress axis : x y z
#
# Youngs Moduli (GPa) = 61.57853 73.47684 96.25966
#
# Poissons Ratio (x) = 0.26798 0.47147
# Poissons Ratio (y) = 0.22459 0.16695
# Poissons Ratio (z) = 0.30160 0.12743
#
# Static dielectric constant tensor:
#      x y z
#    x 1.926990 0.000000 -0.050360 
#    y 0.000000 1.873770 0.000000 
#    z -0.050360 0.000000 2.068340 
# 
# From -- ./inp_files/187620.got.cif
#   From: 2010.05.17/outbox.cif.g08.bks.cpg/sg15_94_cif.got.tgz:187620.got - 2010.06.03 18:47:42.
