data_PCOD9299343
_publ_section_title
;
Structure prediction by ZEFSAII (Michael W. Deem and Ramdas Pophale) SiO2 
 PCOD9299343
Probable space group: C 2/C
;
_chemical_formula_sum "Si O2"
_cell_formula_units_Z 60
_cell_length_a 8.791948
_cell_length_b 12.694039
_cell_length_c 26.708700
_cell_angle_alpha 90.000000
_cell_angle_beta 112.197166
_cell_angle_gamma 90.000000
_cell_volume 2759.921575
_symmetry_space_group_name_H-M "C 2/C"
_symmetry_group_IT_number 15
_symmetry_cell_setting 'monoclinic'
loop_
_space_group_symop_operation_xyz
x,y,z
-x,y,1/2-z
-x,-y,-z
x,-y,1/2+z
1/2+x,1/2+y,z
1/2-x,1/2+y,1/2-z
1/2-x,1/2-y,-z
1/2+x,1/2-y,1/2+z
loop_
_atom_site_type_symbol
_atom_site_label
_atom_site_fract_x
_atom_site_fract_y
_atom_site_fract_z
Si Si1 0.676549 0.051454 0.448087
Si Si2 0.690623 0.459702 0.434397
Si Si3 0.250000 0.250000 0.500000
Si Si4 0.243310 0.810476 0.814879
Si Si5 0.374572 0.253967 0.804940
Si Si6 0.447213 0.641203 0.410630
Si Si7 0.113309 0.462543 0.141748
Si Si8 0.469540 0.262208 0.429065
O O1 0.717385 0.992101 0.505085
O O2 0.838361 0.094232 0.441564
O O3 0.561768 0.150648 0.447604
O O4 0.575784 0.984574 0.395467
O O5 0.556476 0.545577 0.403082
O O6 0.806570 0.437476 0.402356
O O7 0.602427 0.354229 0.441549
O O8 0.424387 0.274245 0.552530
O O9 0.344842 0.275946 0.458832
O O10 0.239274 0.781205 0.756060
O O11 0.369537 0.745089 0.864728
O O12 0.060064 0.788304 0.812909
O O13 0.298824 0.931265 0.828617
O O14 0.337229 0.312643 0.852462
O O15 0.369142 0.131105 0.817258
#
# Coordination Sequence:
#
# PCOD9299343 Si02
#       8
#     8   8   4   8   8   8   8   8
#     4  11  25  42  64 105 144 178 235 288 348 438
#     4  12  24  41  67 104 141 187 225 287 361 425
#     4  12  24  40  66  92 144 180 224 290 356 410
#     4  10  24  49  67 104 139 180 241 294 343 429
#     4  11  24  46  75  97 140 190 231 293 356 413
#     4  12  25  41  66 104 136 186 231 288 348 434
#     4  11  25  46  72 103 136 187 235 292 362 414
#     4  11  24  43  67 100 142 181 237 290 353 424
#
# _framework density 21.739747000000001
#
# number of rings (size 3 to 8) (size 9 to 14) (size 15 to 20)
#    0.000    0.800    4.000    2.800    5.600    1.067 
#    2.400    4.667    0.000    0.000    0.000    0.000 
#    0.000    0.000    0.000    0.000    0.000    0.000 
#
# Total GULP energy -167484.870601 kJ/mol
# GULP energy per Si atom -5582.829020 kJ/mol
# Density = 2.169027 g / cm^3
# Si number density = 21.739747 Si / 1000 Ang^3
#
#
#
# Elastic Constant Matrix: (Units=GPa)
#
#
# Indices 1 2 3 4 5 6 
#
# 1 67.3270 1.0455 11.6625 0.0000 -0.7400 0.0000
# 2 1.0455 54.2255 19.3372 0.0000 -6.9120 0.0000
# 3 11.6625 19.3372 135.3940 0.0000 -9.5906 0.0000
# 4 0.0000 0.0000 0.0000 25.1030 0.0000 -0.8436
# 5 -0.7400 -6.9120 -9.5906 0.0000 20.0145 0.0000
# 6 0.0000 0.0000 0.0000 -0.8436 0.0000 27.7031
#
#
#
# Elastic Compliance Matrix: (Units=1/GPa)
#
#
# Indices 1 2 3 4 5 6 
#
# 1 0.015080 0.000180 -0.001326 0.000000 -0.000016 0.000000
# 2 0.000180 0.020052 -0.002472 0.000000 0.005747 0.000000
# 3 -0.001326 -0.002472 0.008063 0.000000 0.002961 0.000000
# 4 0.000000 0.000000 0.000000 0.039877 0.000000 0.001214
# 5 -0.000016 0.005747 0.002961 0.000000 0.053367 0.000000
# 6 0.000000 0.000000 0.000000 0.001214 0.000000 0.036134
#
#
# Mechanical properties :
#
#
# Convention : Reuss Voigt Hill
#
# Bulk Modulus (GPa) = 27.80971 35.67076 31.74023
# Shear Modulus (GPa) = 26.06958 29.55753 27.81355
#
# Velocity S-wave (km/s) = 3.46666 3.69129 3.58073
# Velocity P-wave (km/s) = 5.37061 5.88313 5.63270
#
# Compressibility (1/GPa) = 0.03595867
#
# Stress axis : x y z
#
# Youngs Moduli (GPa) = 66.31493 49.86976 124.02530
#
# Poissons Ratio (x) = -0.00898 0.16442
# Poissons Ratio (y) = -0.01194 0.30663
# Poissons Ratio (z) = 0.08792 0.12329
#
# Static dielectric constant tensor:
#      x y z
#    x 1.769100 0.000000 0.004760 
#    y 0.000000 1.848780 0.000000 
#    z 0.004760 0.000000 1.770750 
# 
# From -- ./inp_files/264759.got.cif
#   From: 2010.05.17/outbox.cif.g08.bks.cpg/sg15_133_cif.got.tgz:264759.got - 2010.06.03 18:47:42.
