data_PCOD9299707
_publ_section_title
;
Structure prediction by ZEFSAII (Michael W. Deem and Ramdas Pophale) SiO2 
 PCOD9299707
Probable space group: C 2/C
;
_chemical_formula_sum "Si O2"
_cell_formula_units_Z 40
_cell_length_a 39.765137
_cell_length_b 4.805274
_cell_length_c 8.786225
_cell_angle_alpha 90.000000
_cell_angle_beta 64.403452
_cell_angle_gamma 90.000000
_cell_volume 1514.123816
_symmetry_space_group_name_H-M "C 2/C"
_symmetry_group_IT_number 15
_symmetry_cell_setting 'monoclinic'
loop_
_space_group_symop_operation_xyz
x,y,z
-x,y,1/2-z
-x,-y,-z
x,-y,1/2+z
1/2+x,1/2+y,z
1/2-x,1/2+y,1/2-z
1/2-x,1/2-y,-z
1/2+x,1/2-y,1/2+z
loop_
_atom_site_type_symbol
_atom_site_label
_atom_site_fract_x
_atom_site_fract_y
_atom_site_fract_z
Si Si1 0.921432 0.021312 0.402580
Si Si2 0.225775 0.465323 0.834394
Si Si3 0.971571 0.248899 0.042781
Si Si4 0.323189 0.739484 0.305058
Si Si5 0.127815 0.733761 0.242109
O O1 0.889357 0.848341 0.379782
O O2 0.942857 0.210974 0.238289
O O3 0.949123 0.804664 0.431150
O O4 0.903161 0.207442 0.569837
O O5 0.256219 0.710326 0.796637
O O6 0.191978 0.632922 0.821691
O O7 0.209604 0.313712 0.013620
O O8 0.000000 0.500000 0.000000
O O9 0.000000 0.000000 0.000000
O O10 0.359106 0.918077 0.285565
O O11 0.336394 0.423070 0.283015
#
# Coordination Sequence:
#
# PCOD9299707 Si02
#       5
#     8   8   8   8   8
#     4  10  25  45  70 100 137 178 226 284 344 412
#     4  12  24  41  64  94 131 174 221 276 337 404
#     4  11  26  45  70 101 138 179 226 280 344 416
#     4  12  24  42  66  95 131 174 223 278 337 406
#     4  11  24  43  67  98 132 175 225 280 341 406
#
# _framework density 26.417918
#
# number of rings (size 3 to 8) (size 9 to 14) (size 15 to 20)
#    0.000    0.800    0.000    6.600    0.000   12.800 
#    0.000    3.000    0.000    0.000    0.000    0.000 
#    0.000    0.000    0.000    0.000    0.000    0.000 
#
# Total GULP energy -112342.695034 kJ/mol
# GULP energy per Si atom -5617.134752 kJ/mol
# Density = 2.635779 g / cm^3
# Si number density = 26.417918 Si / 1000 Ang^3
#
#
#
# Elastic Constant Matrix: (Units=GPa)
#
#
# Indices 1 2 3 4 5 6 
#
# 1 135.2295 31.5538 6.6661 0.0000 -8.9039 0.0000
# 2 31.5538 135.2941 7.9253 0.0000 -13.6403 0.0000
# 3 6.6661 7.9253 89.5171 0.0000 -7.1731 0.0000
# 4 0.0000 0.0000 0.0000 32.9498 0.0000 -15.6671
# 5 -8.9039 -13.6403 -7.1731 0.0000 34.8129 0.0000
# 6 0.0000 0.0000 0.0000 -15.6671 0.0000 53.7321
#
#
#
# Elastic Compliance Matrix: (Units=1/GPa)
#
#
# Indices 1 2 3 4 5 6 
#
# 1 0.007891 -0.001691 -0.000335 0.000000 0.001287 0.000000
# 2 -0.001691 0.008075 -0.000376 0.000000 0.002654 0.000000
# 3 -0.000335 -0.000376 0.011399 0.000000 0.002116 0.000000
# 4 0.000000 0.000000 0.000000 0.035234 0.000000 0.010274
# 5 0.001287 0.002654 0.002116 0.000000 0.030530 0.000000
# 6 0.000000 0.000000 0.000000 0.010274 0.000000 0.021606
#
#
# Mechanical properties :
#
#
# Convention : Reuss Voigt Hill
#
# Bulk Modulus (GPa) = 44.32514 50.25901 47.29208
# Shear Modulus (GPa) = 39.35165 45.22531 42.28848
#
# Velocity S-wave (km/s) = 3.86370 4.14202 4.00528
# Velocity P-wave (km/s) = 6.05963 6.47619 6.27137
#
# Compressibility (1/GPa) = 0.02256056
#
# Stress axis : x y z
#
# Youngs Moduli (GPa) = 126.73285 123.83445 87.72831
#
# Poissons Ratio (x) = 0.20940 0.02937
# Poissons Ratio (y) = 0.21430 0.03302
# Poissons Ratio (z) = 0.04243 0.04660
#
# Static dielectric constant tensor:
#      x y z
#    x 2.021020 0.000000 0.000940 
#    y 0.000000 1.956960 0.000000 
#    z 0.000940 0.000000 2.036380 
# 
# From -- ./inp_files/124937.got.cif
#   From: 2010.05.17/outbox.cif.g08.bks.cpg/sg15_63_cif.got.tgz:124937.got - 2010.06.03 18:47:42.
