data_PCOD9299569
_publ_section_title
;
Structure prediction by ZEFSAII (Michael W. Deem and Ramdas Pophale) SiO2 
 PCOD9299569
Probable space group: C 2/C
;
_chemical_formula_sum "Si O2"
_cell_formula_units_Z 36
_cell_length_a 10.813153
_cell_length_b 17.870783
_cell_length_c 8.659312
_cell_angle_alpha 90.000000
_cell_angle_beta 120.137128
_cell_angle_gamma 90.000000
_cell_volume 1447.132123
_symmetry_space_group_name_H-M "C 2/C"
_symmetry_group_IT_number 15
_symmetry_cell_setting 'monoclinic'
loop_
_space_group_symop_operation_xyz
x,y,z
-x,y,1/2-z
-x,-y,-z
x,-y,1/2+z
1/2+x,1/2+y,z
1/2-x,1/2+y,1/2-z
1/2-x,1/2-y,-z
1/2+x,1/2-y,1/2+z
loop_
_atom_site_type_symbol
_atom_site_label
_atom_site_fract_x
_atom_site_fract_y
_atom_site_fract_z
Si Si1 0.235290 0.040556 0.899141
Si Si2 0.288194 0.350527 0.381571
Si Si3 0.000000 0.426715 0.750000
Si Si4 0.409177 0.591071 0.388706
Si Si5 0.330792 0.816947 0.872504
O O1 0.273397 0.105580 0.801904
O O2 0.168150 0.973449 0.759214
O O3 0.378362 0.025004 0.088203
O O4 0.124199 0.072236 0.954723
O O5 0.422820 0.399348 0.525527
O O6 0.354797 0.271053 0.372886
O O7 0.178680 0.336433 0.452075
O O8 0.072869 0.371789 0.669659
O O9 0.329087 0.666764 0.291292
#
# Coordination Sequence:
#
# PCOD9299569 Si02
#       5
#     8   8   4   8   8
#     4  11  25  44  75 107 143 192 235 301 357 424
#     4  11  24  43  71 109 143 188 239 296 357 424
#     4  10  26  46  70 104 142 198 234 294 360 428
#     4  11  24  45  73 105 144 188 240 297 356 424
#     4  10  25  43  70 104 148 189 233 289 360 430
#
# _framework density 24.87679
#
# number of rings (size 3 to 8) (size 9 to 14) (size 15 to 20)
#    0.000    1.333    0.000    3.333    6.222    8.000 
#    0.000    3.333    0.000    0.000    0.000    0.000 
#    0.000    0.000    0.000    0.000    0.000    0.000 
#
# Total GULP energy -100887.519215 kJ/mol
# GULP energy per Si atom -5604.862179 kJ/mol
# Density = 2.482017 g / cm^3
# Si number density = 24.876790 Si / 1000 Ang^3
#
#
#
# Elastic Constant Matrix: (Units=GPa)
#
#
# Indices 1 2 3 4 5 6 
#
# 1 68.3514 -2.6185 38.4843 0.0000 -7.2976 0.0000
# 2 -2.6185 100.9790 56.1695 0.0000 -2.9009 0.0000
# 3 38.4843 56.1695 141.3881 0.0000 3.1720 0.0000
# 4 0.0000 0.0000 0.0000 37.4173 0.0000 -0.1531
# 5 -7.2976 -2.9009 3.1720 0.0000 50.9968 0.0000
# 6 0.0000 0.0000 0.0000 -0.1531 0.0000 23.2045
#
#
#
# Elastic Compliance Matrix: (Units=1/GPa)
#
#
# Indices 1 2 3 4 5 6 
#
# 1 0.019170 0.004546 -0.007101 0.000000 0.003444 0.000000
# 2 0.004546 0.013845 -0.006780 0.000000 0.001860 0.000000
# 3 -0.007101 -0.006780 0.011747 0.000000 -0.002132 0.000000
# 4 0.000000 0.000000 0.000000 0.026726 0.000000 0.000176
# 5 0.003444 0.001860 -0.002132 0.000000 0.020340 0.000000
# 6 0.000000 0.000000 0.000000 0.000176 0.000000 0.043096
#
#
# Mechanical properties :
#
#
# Convention : Reuss Voigt Hill
#
# Bulk Modulus (GPa) = 38.32414 54.97656 46.65035
# Shear Modulus (GPa) = 30.80858 36.90260 33.85559
#
# Velocity S-wave (km/s) = 3.52297 3.85569 3.69308
# Velocity P-wave (km/s) = 5.65575 6.47837 6.08099
#
# Compressibility (1/GPa) = 0.02609321
#
# Stress axis : x y z
#
# Youngs Moduli (GPa) = 52.16389 72.22583 85.12982
#
# Poissons Ratio (x) = -0.32835 0.60453
# Poissons Ratio (y) = -0.23714 0.57714
# Poissons Ratio (z) = 0.37043 0.48966
#
# Static dielectric constant tensor:
#      x y z
#    x 1.988960 0.000000 -0.001970 
#    y 0.000000 1.971330 0.000000 
#    z -0.001970 0.000000 1.975820 
# 
# From -- ./inp_files/29432.got.cif
#   From: 2010.05.17/outbox.cif.g08.bks.cpg/sg15_15_cif.got.tgz:29432.got - 2010.06.03 18:47:42.
