data_PCOD9299294
_publ_section_title
;
Structure prediction by ZEFSAII (Michael W. Deem and Ramdas Pophale) SiO2 
 PCOD9299294
Probable space group: C 2/C
;
_chemical_formula_sum "Si O2"
_cell_formula_units_Z 32
_cell_length_a 20.224248
_cell_length_b 8.384488
_cell_length_c 11.371544
_cell_angle_alpha 90.000000
_cell_angle_beta 40.550228
_cell_angle_gamma 90.000000
_cell_volume 1253.597606
_symmetry_space_group_name_H-M "C 2/C"
_symmetry_group_IT_number 15
_symmetry_cell_setting 'monoclinic'
loop_
_space_group_symop_operation_xyz
x,y,z
-x,y,1/2-z
-x,-y,-z
x,-y,1/2+z
1/2+x,1/2+y,z
1/2-x,1/2+y,1/2-z
1/2-x,1/2-y,-z
1/2+x,1/2-y,1/2+z
loop_
_atom_site_type_symbol
_atom_site_label
_atom_site_fract_x
_atom_site_fract_y
_atom_site_fract_z
Si Si1 0.489756 0.783203 0.056875
Si Si2 0.695568 0.596940 0.130385
Si Si3 0.364647 0.982494 0.049497
Si Si4 0.100908 0.188747 0.672169
O O1 0.421787 0.637372 0.188844
O O2 0.402902 0.900160 0.118032
O O3 0.556098 0.872042 0.064351
O O4 0.568162 0.739139 0.847516
O O5 0.753965 0.552498 0.172089
O O6 0.690800 0.439393 0.055812
O O7 0.750000 0.750000 0.000000
O O8 0.378722 0.845378 0.933057
O O9 0.000000 0.116417 0.750000
#
# Coordination Sequence:
#
# PCOD9299294 Si02
#       4
#     8   8   8   8
#     4  10  25  45  75 101 142 190 232 291 353 416
#     4  12  28  40  75 107 143 182 240 290 355 420
#     4  10  25  47  73 100 145 184 239 288 351 418
#     4  10  24  48  73  98 145 189 233 290 354 421
#
# _framework density 25.526532
#
# number of rings (size 3 to 8) (size 9 to 14) (size 15 to 20)
#    0.000    1.500    0.000    1.500   21.000    4.000 
#    0.000    0.000    0.000    0.000    0.000    0.000 
#    0.000    0.000    0.000    0.000    0.000    0.000 
#
# Total GULP energy -89513.723542 kJ/mol
# GULP energy per Si atom -5594.607721 kJ/mol
# Density = 2.546843 g / cm^3
# Si number density = 25.526532 Si / 1000 Ang^3
#
#
#
# Elastic Constant Matrix: (Units=GPa)
#
#
# Indices 1 2 3 4 5 6 
#
# 1 146.7938 73.4286 5.5021 0.0000 -24.9203 0.0000
# 2 73.4286 128.6030 37.4921 -0.0001 -9.8480 0.0001
# 3 5.5021 37.4921 56.4868 0.0000 1.2146 0.0000
# 4 0.0000 -0.0001 0.0000 27.0248 0.0000 -16.6238
# 5 -24.9203 -9.8480 1.2146 0.0000 24.9951 0.0000
# 6 0.0000 0.0001 0.0000 -16.6238 0.0000 71.7733
#
#
#
# Elastic Compliance Matrix: (Units=1/GPa)
#
#
# Indices 1 2 3 4 5 6 
#
# 1 0.011636 -0.006934 0.003281 0.000000 0.008710 0.000000
# 2 -0.006934 0.014215 -0.008740 0.000000 -0.000887 0.000000
# 3 0.003281 -0.008740 0.023213 0.000000 -0.001300 0.000000
# 4 0.000000 0.000000 0.000000 0.043151 0.000000 0.009994
# 5 0.008710 -0.000887 -0.001300 0.000000 0.048405 0.000000
# 6 0.000000 0.000000 0.000000 0.009994 0.000000 0.016248
#
#
# Mechanical properties :
#
#
# Convention : Reuss Voigt Hill
#
# Bulk Modulus (GPa) = 41.18842 62.74770 51.96806
# Shear Modulus (GPa) = 26.35096 39.12270 32.73683
#
# Velocity S-wave (km/s) = 3.21642 3.91913 3.58503
# Velocity P-wave (km/s) = 5.47397 6.71671 6.12693
#
# Compressibility (1/GPa) = 0.02427867
#
# Stress axis : x y z
#
# Youngs Moduli (GPa) = 85.93841 70.34852 43.07940
#
# Poissons Ratio (x) = 0.48777 -0.14136
# Poissons Ratio (y) = 0.59586 0.37653
# Poissons Ratio (z) = -0.28199 0.61488
#
# Static dielectric constant tensor:
#      x y z
#    x 1.980720 0.000000 0.004850 
#    y 0.000000 2.073860 0.000000 
#    z 0.004850 0.000000 2.041030 
# 
# From -- ./inp_files/109479.got.cif
#   From: 2010.05.17/outbox.cif.g08.bks.cpg/sg15_55_cif.got.tgz:109479.got - 2010.06.03 18:47:42.
