data_PCOD9299593
_publ_section_title
;
Structure prediction by ZEFSAII (Michael W. Deem and Ramdas Pophale) SiO2 
 PCOD9299593
Probable space group: C 2/C
;
_chemical_formula_sum "Si O2"
_cell_formula_units_Z 56
_cell_length_a 15.031898
_cell_length_b 22.639100
_cell_length_c 12.237841
_cell_angle_alpha 90.000000
_cell_angle_beta 138.913602
_cell_angle_gamma 90.000000
_cell_volume 2736.988136
_symmetry_space_group_name_H-M "C 2/C"
_symmetry_group_IT_number 15
_symmetry_cell_setting 'monoclinic'
loop_
_space_group_symop_operation_xyz
x,y,z
-x,y,1/2-z
-x,-y,-z
x,-y,1/2+z
1/2+x,1/2+y,z
1/2-x,1/2+y,1/2-z
1/2-x,1/2-y,-z
1/2+x,1/2-y,1/2+z
loop_
_atom_site_type_symbol
_atom_site_label
_atom_site_fract_x
_atom_site_fract_y
_atom_site_fract_z
Si Si1 0.745718 0.578152 0.746297
Si Si2 0.000000 0.502479 0.250000
Si Si3 0.137962 0.074137 0.416941
Si Si4 0.534918 0.554614 0.899537
Si Si5 0.316863 0.901262 0.682175
Si Si6 0.149187 0.452448 0.574706
Si Si7 0.500000 0.262666 0.250000
Si Si8 0.289334 0.181898 0.957921
O O1 0.727206 0.596302 0.602148
O O2 0.594562 0.561155 0.647111
O O3 0.820641 0.516197 0.842224
O O4 0.795148 0.631194 0.870871
O O5 0.875427 0.545649 0.161635
O O6 0.029347 0.462710 0.379896
O O7 0.227544 0.064508 0.391613
O O8 0.000000 0.106129 0.250000
O O9 0.084803 0.010995 0.415404
O O10 0.500000 0.582749 0.750000
O O11 0.662150 0.586428 0.068686
O O12 0.387220 0.906516 0.863927
O O13 0.319408 0.846328 0.605545
O O14 0.585289 0.228136 0.425278
O O15 0.366796 0.294537 0.181659
#
# Coordination Sequence:
#
# PCOD9299593 Si02
#       8
#     8   4   8   8   8   8   4   8
#     4  12  20  33  59  84 121 161 191 231 291 362
#     4  12  21  36  44  78 126 168 200 217 262 348
#     4  11  20  32  48  80 122 163 194 226 265 341
#     4  11  16  30  46  78 115 153 187 219 263 333
#     4  12  22  34  57  82 119 159 195 227 290 355
#     4  12  22  34  49  84 128 165 192 218 267 369
#     4  10  25  44  64  84 116 136 212 283 306 348
#     4  11  22  42  63  91 111 154 199 258 321 341
#
# _framework density 20.460446000000001
#
# number of rings (size 3 to 8) (size 9 to 14) (size 15 to 20)
#    0.000    0.571    8.571    3.000    0.000    0.000 
#    0.000    0.000    0.000    0.000    0.000   11.000 
#    0.000    0.000    0.000    0.000    0.000    0.000 
#
# Total GULP energy -156141.934486 kJ/mol
# GULP energy per Si atom -5576.497660 kJ/mol
# Density = 2.041388 g / cm^3
# Si number density = 20.460446 Si / 1000 Ang^3
#
#
#
# Elastic Constant Matrix: (Units=GPa)
#
#
# Indices 1 2 3 4 5 6 
#
# 1 101.5598 16.7743 53.0914 0.0000 -12.6014 0.0000
# 2 16.7743 43.1022 34.4471 0.0000 -5.6665 0.0000
# 3 53.0914 34.4471 123.7781 0.0000 -8.0575 0.0000
# 4 0.0000 0.0000 0.0000 13.7732 0.0000 -2.1814
# 5 -12.6014 -5.6665 -8.0575 0.0000 46.9246 0.0000
# 6 0.0000 0.0000 0.0000 -2.1814 0.0000 11.2882
#
#
#
# Elastic Compliance Matrix: (Units=1/GPa)
#
#
# Indices 1 2 3 4 5 6 
#
# 1 0.012998 -0.000517 -0.005267 0.000000 0.002524 0.000000
# 2 -0.000517 0.030084 -0.008012 0.000000 0.002118 0.000000
# 3 -0.005267 -0.008012 0.012553 0.000000 -0.000226 0.000000
# 4 0.000000 0.000000 0.000000 0.074897 0.000000 0.014473
# 5 0.002524 0.002118 -0.000226 0.000000 0.022205 0.000000
# 6 0.000000 0.000000 0.000000 0.014473 0.000000 0.091385
#
#
# Mechanical properties :
#
#
# Convention : Reuss Voigt Hill
#
# Bulk Modulus (GPa) = 35.66113 53.00731 44.33422
# Shear Modulus (GPa) = 17.78952 25.33902 21.56427
#
# Velocity S-wave (km/s) = 2.95186 3.52296 3.24998
# Velocity P-wave (km/s) = 5.39306 6.52011 5.98318
#
# Compressibility (1/GPa) = 0.02804174
#
# Stress axis : x y z
#
# Youngs Moduli (GPa) = 76.93238 33.24020 79.66072
#
# Poissons Ratio (x) = 0.01720 0.41958
# Poissons Ratio (y) = 0.03981 0.63828
# Poissons Ratio (z) = 0.40521 0.26634
#
# Static dielectric constant tensor:
#      x y z
#    x 1.763300 0.000000 0.036110 
#    y 0.000000 1.794110 0.000000 
#    z 0.036110 0.000000 1.883060 
# 
# From -- ./inp_files/101152.got.cif
#   From: 2010.05.17/outbox.cif.g08.bks.cpg/sg15_51_cif.got.tgz:101152.got - 2010.06.03 18:47:42.
