data_PCOD9299690
_publ_section_title
;
Structure prediction by ZEFSAII (Michael W. Deem and Ramdas Pophale) SiO2 
 PCOD9299690
Probable space group: C 2/C
;
_chemical_formula_sum "Si O2"
_cell_formula_units_Z 40
_cell_length_a 23.040566
_cell_length_b 7.260265
_cell_length_c 24.533788
_cell_angle_alpha 90.000000
_cell_angle_beta 23.786613
_cell_angle_gamma 90.000000
_cell_volume 1655.283454
_symmetry_space_group_name_H-M "C 2/C"
_symmetry_group_IT_number 15
_symmetry_cell_setting 'monoclinic'
loop_
_space_group_symop_operation_xyz
x,y,z
-x,y,1/2-z
-x,-y,-z
x,-y,1/2+z
1/2+x,1/2+y,z
1/2-x,1/2+y,1/2-z
1/2-x,1/2-y,-z
1/2+x,1/2-y,1/2+z
loop_
_atom_site_type_symbol
_atom_site_label
_atom_site_fract_x
_atom_site_fract_y
_atom_site_fract_z
Si Si1 0.489189 0.085060 0.642895
Si Si2 0.364202 0.102547 0.091913
Si Si3 0.228586 0.050849 0.543083
Si Si4 0.365327 0.714690 0.702442
Si Si5 0.483021 0.467279 0.679199
O O1 0.412207 0.266968 0.730481
O O2 0.577766 0.168362 0.515473
O O3 0.613199 0.017660 0.576989
O O4 0.389134 0.915106 0.709564
O O5 0.254804 0.933784 0.177763
O O6 0.333028 0.249926 0.166165
O O7 0.500000 0.000000 0.000000
O O8 0.250000 0.250000 0.500000
O O9 0.123281 0.063731 0.685983
O O10 0.135842 0.940164 0.577860
O O11 0.499437 0.596017 0.611430
#
# Coordination Sequence:
#
# PCOD9299690 Si02
#       5
#     8   8   8   8   8
#     4  11  24  48  71 106 143 190 245 301 362 441
#     4  10  25  45  68 103 142 189 239 297 366 416
#     4  11  23  49  71 108 146 184 238 302 370 429
#     4  11  24  47  70 105 146 187 245 301 360 439
#     4  11  25  46  74 107 143 191 241 297 364 443
#
# _framework density 24.165047000000001
#
# number of rings (size 3 to 8) (size 9 to 14) (size 15 to 20)
#    0.000    1.200    4.000    0.600    5.600    0.800 
#   25.200    0.000    0.000    0.000    0.000    0.000 
#    0.000    0.000    0.000    0.000    0.000    0.000 
#
# Total GULP energy -111556.409442 kJ/mol
# GULP energy per Si atom -5577.820472 kJ/mol
# Density = 2.411005 g / cm^3
# Si number density = 24.165047 Si / 1000 Ang^3
#
#
#
# Elastic Constant Matrix: (Units=GPa)
#
#
# Indices 1 2 3 4 5 6 
#
# 1 122.7833 59.5588 13.1935 -0.0022 -7.3639 0.0001
# 2 59.5588 121.0721 18.1841 -0.0398 9.9013 0.0345
# 3 13.1935 18.1841 50.4600 -0.0071 -2.2541 0.0090
# 4 -0.0022 -0.0398 -0.0071 36.5252 0.0002 -4.4732
# 5 -7.3639 9.9013 -2.2541 0.0002 22.9724 -0.0004
# 6 0.0001 0.0345 0.0090 -4.4732 -0.0004 39.9097
#
#
#
# Elastic Compliance Matrix: (Units=1/GPa)
#
#
# Indices 1 2 3 4 5 6 
#
# 1 0.011543 -0.006112 -0.000535 -0.000006 0.006282 0.000005
# 2 -0.006112 0.012368 -0.003199 0.000011 -0.007604 -0.000009
# 3 -0.000535 -0.003199 0.021257 0.000000 0.003293 -0.000002
# 4 -0.000006 0.000011 0.000000 0.027759 -0.000007 0.003111
# 5 0.006282 -0.007604 0.003293 -0.000007 0.049145 0.000005
# 6 0.000005 -0.000009 -0.000002 0.003111 0.000005 0.025405
#
#
# Mechanical properties :
#
#
# Convention : Reuss Voigt Hill
#
# Bulk Modulus (GPa) = 39.24990 52.90980 46.07985
# Shear Modulus (GPa) = 28.46357 33.44005 30.95181
#
# Velocity S-wave (km/s) = 3.43575 3.72401 3.58278
# Velocity P-wave (km/s) = 5.65835 6.35875 6.01874
#
# Compressibility (1/GPa) = 0.02547777
#
# Stress axis : x y z
#
# Youngs Moduli (GPa) = 86.62937 80.85062 47.04236
#
# Poissons Ratio (x) = 0.49415 0.02517
# Poissons Ratio (y) = 0.52947 0.15048
# Poissons Ratio (z) = 0.04635 0.25863
#
# Static dielectric constant tensor:
#      x y z
#    x 16.369920 -0.000260 -6.208990 
#    y -0.000260 1.951480 0.000120 
#    z -6.208990 0.000120 4.677200 
# 
# From -- ./inp_files/301748.got.cif
#   From: 2010.05.17/outbox.cif.g08.bks.cpg/sg15_151_cif.got.tgz:301748.got - 2010.06.03 18:47:42.
