data_PCOD9299798
_publ_section_title
;
Structure prediction by ZEFSAII (Michael W. Deem and Ramdas Pophale) SiO2 
 PCOD9299798
Probable space group: C 2/C
;
_chemical_formula_sum "Si O2"
_cell_formula_units_Z 56
_cell_length_a 9.252157
_cell_length_b 24.640884
_cell_length_c 13.627425
_cell_angle_alpha 90.000000
_cell_angle_beta 119.700556
_cell_angle_gamma 90.000000
_cell_volume 2698.648097
_symmetry_space_group_name_H-M "C 2/C"
_symmetry_group_IT_number 15
_symmetry_cell_setting 'monoclinic'
loop_
_space_group_symop_operation_xyz
x,y,z
-x,y,1/2-z
-x,-y,-z
x,-y,1/2+z
1/2+x,1/2+y,z
1/2-x,1/2+y,1/2-z
1/2-x,1/2-y,-z
1/2+x,1/2-y,1/2+z
loop_
_atom_site_type_symbol
_atom_site_label
_atom_site_fract_x
_atom_site_fract_y
_atom_site_fract_z
Si Si1 0.078394 0.153983 0.492577
Si Si2 0.195360 0.019759 0.297473
Si Si3 0.178082 0.365208 0.592609
Si Si4 0.856766 0.780653 0.784096
Si Si5 0.875464 0.951697 0.932504
Si Si6 0.317782 0.083741 0.938119
Si Si7 0.157353 0.826846 0.244527
O O1 0.244341 0.158442 0.482320
O O2 0.112494 0.155245 0.619250
O O3 0.945557 0.198439 0.412436
O O4 0.988959 0.097873 0.435779
O O5 0.224563 0.079206 0.350844
O O6 0.229961 0.026176 0.193746
O O7 0.000000 0.004068 0.250000
O O8 0.315946 0.974909 0.384646
O O9 0.218003 0.321882 0.692429
O O10 0.989907 0.385267 0.516359
O O11 0.789280 0.720932 0.777650
O O12 0.000000 0.781486 0.750000
O O13 0.772654 0.929394 0.989684
O O14 0.000000 0.000000 0.000000
O O15 0.216951 0.122952 0.830762
O O16 0.000000 0.803452 0.250000
#
# Coordination Sequence:
#
# PCOD9299798 Si02
#       7
#     8   8   8   8   8   8   8
#     4  11  23  45  71  98 133 189 233 281 355 417
#     4  12  21  43  72  98 138 186 231 274 352 429
#     4  11  24  45  70 103 140 179 239 291 342 424
#     4  10  25  46  72 100 134 191 243 287 351 422
#     4  12  22  41  72  98 138 185 223 283 348 423
#     4  12  27  42  68 111 143 176 236 295 354 415
#     4  12  27  44  68 102 144 181 236 293 352 419
#
# _framework density 20.751131000000001
#
# number of rings (size 3 to 8) (size 9 to 14) (size 15 to 20)
#    0.000    0.571    5.714    2.143    4.000    3.429 
#    0.000    1.429    0.000    0.000    0.000    0.000 
#    0.000    0.000    0.000    0.000    0.000    0.000 
#
# Total GULP energy -156476.449728 kJ/mol
# GULP energy per Si atom -5588.444633 kJ/mol
# Density = 2.070390 g / cm^3
# Si number density = 20.751131 Si / 1000 Ang^3
#
#
#
# Elastic Constant Matrix: (Units=GPa)
#
#
# Indices 1 2 3 4 5 6 
#
# 1 57.7006 -1.4060 64.7641 0.0000 -11.6314 0.0000
# 2 -1.4060 64.7271 18.5623 0.0000 -7.7337 0.0000
# 3 64.7641 18.5623 129.0727 0.0000 -23.9119 0.0000
# 4 0.0000 0.0000 0.0000 14.6354 0.0000 -0.7370
# 5 -11.6314 -7.7337 -23.9119 0.0000 26.8601 0.0000
# 6 0.0000 0.0000 0.0000 -0.7370 0.0000 32.4063
#
#
#
# Elastic Compliance Matrix: (Units=1/GPa)
#
#
# Indices 1 2 3 4 5 6 
#
# 1 0.042834 0.007449 -0.022429 0.000000 0.000726 0.000000
# 2 0.007449 0.017626 -0.005670 0.000000 0.003253 0.000000
# 3 -0.022429 -0.005670 0.021214 0.000000 0.007540 0.000000
# 4 0.000000 0.000000 0.000000 0.068406 0.000000 0.001556
# 5 0.000726 0.003253 0.007540 0.000000 0.045194 0.000000
# 6 0.000000 0.000000 0.000000 0.001556 0.000000 0.030894
#
#
# Mechanical properties :
#
#
# Convention : Reuss Voigt Hill
#
# Bulk Modulus (GPa) = 24.76834 46.14900 35.45867
# Shear Modulus (GPa) = 17.79838 26.08569 21.94203
#
# Velocity S-wave (km/s) = 2.93184 3.54937 3.25528
# Velocity P-wave (km/s) = 4.83970 6.25179 5.59051
#
# Compressibility (1/GPa) = 0.04037412
#
# Stress axis : x y z
#
# Youngs Moduli (GPa) = 23.34621 56.73426 47.13856
#
# Poissons Ratio (x) = -0.42263 1.05728
# Poissons Ratio (y) = -0.17391 0.26728
# Poissons Ratio (z) = 0.52364 0.32168
#
# Static dielectric constant tensor:
#      x y z
#    x 1.753290 0.000000 0.017280 
#    y 0.000000 1.722850 0.000000 
#    z 0.017280 0.000000 1.770720 
# 
# From -- ./inp_files/137981.got.cif
#   From: 2010.05.17/outbox.cif.g08.bks.cpg/sg15_69_cif.got.tgz:137981.got - 2010.06.03 18:47:42.
