data_PCOD9299535
_publ_section_title
;
Structure prediction by ZEFSAII (Michael W. Deem and Ramdas Pophale) SiO2 
 PCOD9299535
Probable space group: C 2/C
;
_chemical_formula_sum "Si O2"
_cell_formula_units_Z 40
_cell_length_a 11.412361
_cell_length_b 15.532969
_cell_length_c 10.404516
_cell_angle_alpha 90.000000
_cell_angle_beta 80.559478
_cell_angle_gamma 90.000000
_cell_volume 1819.406556
_symmetry_space_group_name_H-M "C 2/C"
_symmetry_group_IT_number 15
_symmetry_cell_setting 'monoclinic'
loop_
_space_group_symop_operation_xyz
x,y,z
-x,y,1/2-z
-x,-y,-z
x,-y,1/2+z
1/2+x,1/2+y,z
1/2-x,1/2+y,1/2-z
1/2-x,1/2-y,-z
1/2+x,1/2-y,1/2+z
loop_
_atom_site_type_symbol
_atom_site_label
_atom_site_fract_x
_atom_site_fract_y
_atom_site_fract_z
Si Si1 0.997755 0.878973 0.582982
Si Si2 0.823516 0.724666 0.616233
Si Si3 0.924391 0.464176 0.132906
Si Si4 0.110719 0.828919 0.296008
Si Si5 0.668861 0.479539 0.740730
O O1 0.068046 0.855472 0.442586
O O2 0.097954 0.917846 0.657577
O O3 0.927722 0.791327 0.624857
O O4 0.888556 0.948842 0.612136
O O5 0.750000 0.750000 0.500000
O O6 0.877226 0.629493 0.598525
O O7 0.729796 0.723290 0.750739
O O8 0.809103 0.521562 0.192785
O O9 0.000000 0.455364 0.250000
O O10 0.000000 0.500000 0.000000
O O11 0.000000 0.782308 0.250000
O O12 0.132042 0.921418 0.223438
#
# Coordination Sequence:
#
# PCOD9299535 Si02
#       5
#     8   8   8   8   8
#     4  11  23  43  73 107 142 183 254 300 365 437
#     4  11  26  44  70 106 152 187 241 308 377 438
#     4  11  29  51  74 107 154 201 251 310 379 450
#     4  11  21  40  69 102 142 192 236 300 358 447
#     4  10  25  42  75 103 139 192 248 299 364 445
#
# _framework density 21.985191
#
# number of rings (size 3 to 8) (size 9 to 14) (size 15 to 20)
#    0.000    1.200    4.000    0.600   11.200    1.600 
#    0.000    5.000    0.000    0.000    0.000    0.000 
#    0.000    0.000    0.000    0.000    0.000    0.000 
#
# Total GULP energy -111602.732083 kJ/mol
# GULP energy per Si atom -5580.136604 kJ/mol
# Density = 2.193515 g / cm^3
# Si number density = 21.985191 Si / 1000 Ang^3
#
#
#
# Elastic Constant Matrix: (Units=GPa)
#
#
# Indices 1 2 3 4 5 6 
#
# 1 157.6321 69.5743 87.8360 0.0000 -23.6376 0.0000
# 2 69.5743 101.5186 43.9519 0.0000 -11.0303 0.0000
# 3 87.8360 43.9519 138.9858 0.0000 -18.3924 0.0000
# 4 0.0000 0.0000 0.0000 17.4699 0.0000 -9.4558
# 5 -23.6376 -11.0303 -18.3924 0.0000 43.7585 0.0000
# 6 0.0000 0.0000 0.0000 -9.4558 0.0000 44.6862
#
#
#
# Elastic Compliance Matrix: (Units=1/GPa)
#
#
# Indices 1 2 3 4 5 6 
#
# 1 0.012505 -0.005792 -0.005687 0.000000 0.002905 0.000000
# 2 -0.005792 0.014182 -0.000810 0.000000 0.000105 0.000000
# 3 -0.005687 -0.000810 0.011237 0.000000 0.001447 0.000000
# 4 0.000000 0.000000 0.000000 0.064645 0.000000 0.013679
# 5 0.002905 0.000105 0.001447 0.000000 0.025056 0.000000
# 6 0.000000 0.000000 0.000000 0.013679 0.000000 0.025273
#
#
# Mechanical properties :
#
#
# Convention : Reuss Voigt Hill
#
# Bulk Modulus (GPa) = 74.93429 88.98452 81.95940
# Shear Modulus (GPa) = 27.48386 34.30123 30.89254
#
# Velocity S-wave (km/s) = 3.53952 3.95422 3.75260
# Velocity P-wave (km/s) = 7.13178 7.83648 7.49242
#
# Compressibility (1/GPa) = 0.01334502
#
# Stress axis : x y z
#
# Youngs Moduli (GPa) = 79.96990 70.50991 88.99562
#
# Poissons Ratio (x) = 0.40842 0.50608
# Poissons Ratio (y) = 0.46321 0.07212
# Poissons Ratio (z) = 0.45476 0.05714
#
# Static dielectric constant tensor:
#      x y z
#    x 1.803850 0.000000 -0.005380 
#    y 0.000000 1.799750 0.000000 
#    z -0.005380 0.000000 1.951770 
# 
# From -- ./inp_files/85957.got.cif
#   From: 2010.05.17/outbox.cif.g08.bks.cpg/sg15_43_cif.got.tgz:85957.got - 2010.06.03 18:47:42.
