data_PCOD9299672
_publ_section_title
;
Structure prediction by ZEFSAII (Michael W. Deem and Ramdas Pophale) SiO2 
 PCOD9299672
Probable space group: C 2/C
;
_chemical_formula_sum "Si O2"
_cell_formula_units_Z 64
_cell_length_a 28.610990
_cell_length_b 9.434314
_cell_length_c 14.726127
_cell_angle_alpha 90.000000
_cell_angle_beta 40.841971
_cell_angle_gamma 90.000000
_cell_volume 2599.518236
_symmetry_space_group_name_H-M "C 2/C"
_symmetry_group_IT_number 15
_symmetry_cell_setting 'monoclinic'
loop_
_space_group_symop_operation_xyz
x,y,z
-x,y,1/2-z
-x,-y,-z
x,-y,1/2+z
1/2+x,1/2+y,z
1/2-x,1/2+y,1/2-z
1/2-x,1/2-y,-z
1/2+x,1/2-y,1/2+z
loop_
_atom_site_type_symbol
_atom_site_label
_atom_site_fract_x
_atom_site_fract_y
_atom_site_fract_z
Si Si1 0.003020 0.285347 0.354437
Si Si2 0.793588 0.139588 0.784769
Si Si3 0.114349 0.054037 0.990439
Si Si4 0.635936 0.863833 0.583527
Si Si5 0.452809 0.360569 0.550842
Si Si6 0.442176 0.917507 0.983970
Si Si7 0.837096 0.962252 0.403130
Si Si8 0.676105 0.966790 0.708819
O O1 0.937080 0.177926 0.467206
O O2 0.984312 0.436446 0.423613
O O3 0.000000 0.299570 0.250000
O O4 0.064707 0.207997 0.324197
O O5 0.808994 0.098544 0.659622
O O6 0.838744 0.044236 0.791380
O O7 0.811926 0.304719 0.773289
O O8 0.713084 0.105330 0.926958
O O9 0.097634 0.912128 0.958118
O O10 0.110848 0.040199 0.103044
O O11 0.579438 0.890819 0.588689
O O12 0.645261 0.700941 0.598595
O O13 0.630864 0.956016 0.681830
O O14 0.500000 0.500000 0.500000
O O15 0.485435 0.219596 0.455476
O O16 0.369609 0.943012 0.151334
O O17 0.756746 0.003636 0.554628
#
# Coordination Sequence:
#
# PCOD9299672 Si02
#       8
#     8   8   8   8   8   8   8   8
#     4  11  27  44  61  90 124 160 221 282 312 365
#     4   9  18  35  60  93 133 162 201 249 307 392
#     4  11  20  41  64  88 126 170 207 257 331 369
#     4   9  19  35  59  98 127 160 209 244 306 398
#     4  10  25  45  63  88 118 161 219 275 315 367
#     4  12  21  42  67  88 125 169 204 263 331 374
#     4   9  18  35  60  95 130 165 204 247 305 392
#     4   9  19  35  60  96 131 162 203 249 308 389
#
# _framework density 24.619948000000001
#
# number of rings (size 3 to 8) (size 9 to 14) (size 15 to 20)
#    0.000    2.000    2.500    2.625    3.500    0.000 
#    0.000    2.500    0.000    3.000    0.000    0.000 
#    0.000    0.000    0.000    0.000    0.000    0.000 
#
# Total GULP energy -178464.646024 kJ/mol
# GULP energy per Si atom -5577.020188 kJ/mol
# Density = 2.456391 g / cm^3
# Si number density = 24.619948 Si / 1000 Ang^3
#
#
#
# Elastic Constant Matrix: (Units=GPa)
#
#
# Indices 1 2 3 4 5 6 
#
# 1 98.6273 31.6936 8.4159 0.0000 32.5933 0.0000
# 2 31.6936 95.7575 14.7141 -0.0001 10.2559 0.0000
# 3 8.4159 14.7141 68.6601 0.0000 17.4825 0.0000
# 4 0.0000 -0.0001 0.0000 21.5808 0.0000 9.0849
# 5 32.5933 10.2559 17.4825 0.0000 45.8375 0.0000
# 6 0.0000 0.0000 0.0000 9.0849 0.0000 33.7653
#
#
#
# Elastic Compliance Matrix: (Units=1/GPa)
#
#
# Indices 1 2 3 4 5 6 
#
# 1 0.014639 -0.004012 0.001647 0.000000 -0.010140 0.000000
# 2 -0.004012 0.012019 -0.002354 0.000000 0.001062 0.000000
# 3 0.001647 -0.002354 0.016648 0.000000 -0.006994 0.000000
# 4 0.000000 0.000000 0.000000 0.052256 0.000000 -0.014060
# 5 -0.010140 0.001062 -0.006994 0.000000 0.031456 0.000000
# 6 0.000000 0.000000 0.000000 -0.014060 0.000000 0.033399
#
#
# Mechanical properties :
#
#
# Convention : Reuss Voigt Hill
#
# Bulk Modulus (GPa) = 29.52687 41.41025 35.46856
# Shear Modulus (GPa) = 27.60217 34.11813 30.86015
#
# Velocity S-wave (km/s) = 3.35196 3.72666 3.54427
# Velocity P-wave (km/s) = 5.19615 5.94758 5.58451
#
# Compressibility (1/GPa) = 0.03386745
#
# Stress axis : x y z
#
# Youngs Moduli (GPa) = 68.31165 83.20120 60.06730
#
# Poissons Ratio (x) = 0.33382 -0.09895
# Poissons Ratio (y) = 0.27408 0.14141
# Poissons Ratio (z) = -0.11253 0.19588
#
# Static dielectric constant tensor:
#      x y z
#    x 1.997500 0.000000 -0.022010 
#    y 0.000000 1.920440 0.000000 
#    z -0.022010 0.000000 1.983650 
# 
# From -- ./inp_files/181117.got.cif
#   From: 2010.05.17/outbox.cif.g08.bks.cpg/sg15_91_cif.got.tgz:181117.got - 2010.06.03 18:47:42.
