data_PCOD9299993
_publ_section_title
;
Structure prediction by ZEFSAII (Michael W. Deem and Ramdas Pophale) SiO2 
 PCOD9299993
Probable space group: C 2/C
;
_chemical_formula_sum "Si O2"
_cell_formula_units_Z 40
_cell_length_a 7.208520
_cell_length_b 17.230977
_cell_length_c 13.096220
_cell_angle_alpha 90.000000
_cell_angle_beta 114.505336
_cell_angle_gamma 90.000000
_cell_volume 1480.152444
_symmetry_space_group_name_H-M "C 2/C"
_symmetry_group_IT_number 15
_symmetry_cell_setting 'monoclinic'
loop_
_space_group_symop_operation_xyz
x,y,z
-x,y,1/2-z
-x,-y,-z
x,-y,1/2+z
1/2+x,1/2+y,z
1/2-x,1/2+y,1/2-z
1/2-x,1/2-y,-z
1/2+x,1/2-y,1/2+z
loop_
_atom_site_type_symbol
_atom_site_label
_atom_site_fract_x
_atom_site_fract_y
_atom_site_fract_z
Si Si1 0.780088 0.019213 0.255597
Si Si2 0.796176 0.807683 0.769895
Si Si3 0.150093 0.170186 0.875254
Si Si4 0.376401 0.419286 0.450086
Si Si5 0.939515 0.388686 0.946516
O O1 0.000000 0.012250 0.250000
O O2 0.600118 0.036595 0.134249
O O3 0.254860 0.949419 0.176612
O O4 0.000000 0.000000 0.000000
O O5 0.747140 0.747209 0.846705
O O6 0.802346 0.895707 0.813967
O O7 0.615749 0.817921 0.644010
O O8 0.000000 0.791377 0.750000
O O9 0.000000 0.145320 0.750000
O O10 0.008361 0.153179 0.940631
O O11 0.346330 0.120042 0.951211
O O12 0.237757 0.393541 0.510974
#
# Coordination Sequence:
#
# PCOD9299993 Si02
#       5
#     8   8   8   8   8
#     4   9  19  50  79 111 161 208 266 333 410 487
#     4   9  22  53  79 110 166 211 263 346 414 480
#     4  12  30  50  75 124 158 212 284 331 401 506
#     4  12  24  51  83 117 159 214 277 335 406 496
#     4  10  25  53  80 111 168 220 253 355 416 463
#
# _framework density 27.024242999999998
#
# number of rings (size 3 to 8) (size 9 to 14) (size 15 to 20)
#    1.200    0.400    2.000    0.600    2.800    2.400 
#   14.400    0.000    0.000    0.000    0.000    0.000 
#    0.000    0.000    0.000    0.000    0.000    0.000 
#
# Total GULP energy -111856.532808 kJ/mol
# GULP energy per Si atom -5592.826640 kJ/mol
# Density = 2.696274 g / cm^3
# Si number density = 27.024243 Si / 1000 Ang^3
#
#
#
# Elastic Constant Matrix: (Units=GPa)
#
#
# Indices 1 2 3 4 5 6 
#
# 1 138.2486 30.9916 46.5803 0.0000 4.8777 0.0000
# 2 30.9916 153.8599 44.0070 0.0000 -18.3141 0.0000
# 3 46.5803 44.0070 130.4741 0.0000 13.2999 0.0000
# 4 0.0000 0.0000 0.0000 31.4445 0.0000 -14.0112
# 5 4.8777 -18.3141 13.2999 0.0000 71.4490 0.0000
# 6 0.0000 0.0000 0.0000 -14.0112 0.0000 29.0016
#
#
#
# Elastic Compliance Matrix: (Units=1/GPa)
#
#
# Indices 1 2 3 4 5 6 
#
# 1 0.008345 -0.000972 -0.002618 0.000000 -0.000331 0.000000
# 2 -0.000972 0.007712 -0.002510 0.000000 0.002510 0.000000
# 3 -0.002618 -0.002510 0.009676 0.000000 -0.002266 0.000000
# 4 0.000000 0.000000 0.000000 0.040526 0.000000 0.019579
# 5 -0.000331 0.002510 -0.002266 0.000000 0.015084 0.000000
# 6 0.000000 0.000000 0.000000 0.019579 0.000000 0.043940
#
#
# Mechanical properties :
#
#
# Convention : Reuss Voigt Hill
#
# Bulk Modulus (GPa) = 73.88592 73.97115 73.92854
# Shear Modulus (GPa) = 35.21294 46.44592 40.82943
#
# Velocity S-wave (km/s) = 3.61364 4.15019 3.89118
# Velocity P-wave (km/s) = 6.69412 7.09908 6.89957
#
# Compressibility (1/GPa) = 0.01353438
#
# Stress axis : x y z
#
# Youngs Moduli (GPa) = 119.83473 129.67003 103.34327
#
# Poissons Ratio (x) = 0.12599 0.27052
# Poissons Ratio (y) = 0.11643 0.25940
# Poissons Ratio (z) = 0.31369 0.32549
#
# Static dielectric constant tensor:
#      x y z
#    x 2.077720 0.000000 0.061780 
#    y 0.000000 2.132650 0.000000 
#    z 0.061780 0.000000 2.210770 
# 
# From -- ./inp_files/73213.got.cif
#   From: 2010.05.17/outbox.cif.g08.bks.cpg/sg15_37_cif.got.tgz:73213.got - 2010.06.03 18:47:42.
