data_PCOD9299529
_publ_section_title
;
Structure prediction by ZEFSAII (Michael W. Deem and Ramdas Pophale) SiO2 
 PCOD9299529
Probable space group: C 2/C
;
_chemical_formula_sum "Si O2"
_cell_formula_units_Z 40
_cell_length_a 27.577137
_cell_length_b 5.024490
_cell_length_c 17.677540
_cell_angle_alpha 90.000000
_cell_angle_beta 44.563325
_cell_angle_gamma 90.000000
_cell_volume 1718.749952
_symmetry_space_group_name_H-M "C 2/C"
_symmetry_group_IT_number 15
_symmetry_cell_setting 'monoclinic'
loop_
_space_group_symop_operation_xyz
x,y,z
-x,y,1/2-z
-x,-y,-z
x,-y,1/2+z
1/2+x,1/2+y,z
1/2-x,1/2+y,1/2-z
1/2-x,1/2-y,-z
1/2+x,1/2-y,1/2+z
loop_
_atom_site_type_symbol
_atom_site_label
_atom_site_fract_x
_atom_site_fract_y
_atom_site_fract_z
Si Si1 0.213539 0.529170 0.320076
Si Si2 0.514596 0.569255 0.356522
Si Si3 0.689477 0.810115 0.509467
Si Si4 0.563539 0.186922 0.949839
Si Si5 0.600367 0.693374 0.117798
O O1 0.234785 0.831302 0.281457
O O2 0.218089 0.447368 0.402192
O O3 0.135578 0.459798 0.381362
O O4 0.463978 0.345155 0.446679
O O5 0.563317 0.634317 0.373916
O O6 0.564059 0.545790 0.229228
O O7 0.456396 0.762629 0.383584
O O8 0.750000 0.750000 0.500000
O O9 0.653685 0.529183 0.530230
O O10 0.636767 0.032653 0.600490
O O11 0.500000 0.000000 0.000000
#
# Coordination Sequence:
#
# PCOD9299529 Si02
#       5
#     8   8   8   8   8
#     4  12  29  48  74 105 152 198 247 304 378 447
#     4  10  25  42  73 105 140 183 240 310 368 432
#     4  12  27  46  71 102 148 191 245 294 367 451
#     4  11  25  45  75 104 145 188 253 303 370 440
#     4  11  25  46  71 106 142 183 240 304 371 426
#
# _framework density 23.272729000000002
#
# number of rings (size 3 to 8) (size 9 to 14) (size 15 to 20)
#    0.000    0.800    2.000    3.000   14.000    1.600 
#    0.000    0.000    0.000    0.000    0.000    0.000 
#    0.000    0.000    0.000    0.000    0.000    0.000 
#
# Total GULP energy -111740.762055 kJ/mol
# GULP energy per Si atom -5587.038103 kJ/mol
# Density = 2.321976 g / cm^3
# Si number density = 23.272729 Si / 1000 Ang^3
#
#
#
# Elastic Constant Matrix: (Units=GPa)
#
#
# Indices 1 2 3 4 5 6 
#
# 1 132.4072 10.1277 30.9974 0.0136 0.6163 0.0524
# 2 10.1277 60.4046 15.7884 -0.0948 5.1144 0.4732
# 3 30.9974 15.7884 99.0706 0.0037 5.9495 0.0686
# 4 0.0136 -0.0948 0.0037 11.6778 0.0198 -4.9967
# 5 0.6163 5.1144 5.9495 0.0198 27.1016 -0.1036
# 6 0.0524 0.4732 0.0686 -4.9967 -0.1036 37.2813
#
#
#
# Elastic Compliance Matrix: (Units=1/GPa)
#
#
# Indices 1 2 3 4 5 6 
#
# 1 0.008187 -0.000770 -0.002469 -0.000015 0.000501 0.000002
# 2 -0.000770 0.017545 -0.002389 0.000056 -0.002770 -0.000217
# 3 -0.002469 -0.002389 0.011366 -0.000014 -0.001988 0.000005
# 4 -0.000015 0.000056 -0.000014 0.090843 -0.000027 0.012175
# 5 0.000501 -0.002770 -0.001988 -0.000027 0.037847 0.000140
# 6 0.000002 -0.000217 0.000005 0.012175 0.000140 0.028458
#
#
# Mechanical properties :
#
#
# Convention : Reuss Voigt Hill
#
# Bulk Modulus (GPa) = 38.69485 45.07883 41.88684
# Shear Modulus (GPa) = 23.35198 30.87673 27.11436
#
# Velocity S-wave (km/s) = 3.17109 3.64639 3.41702
# Velocity P-wave (km/s) = 5.48366 6.09426 5.79701
#
# Compressibility (1/GPa) = 0.02584323
#
# Stress axis : x y z
#
# Youngs Moduli (GPa) = 122.14463 56.99710 87.97878
#
# Poissons Ratio (x) = 0.04388 0.21722
# Poissons Ratio (y) = 0.09403 0.21015
# Poissons Ratio (z) = 0.30157 0.13615
#
# Static dielectric constant tensor:
#      x y z
#    x 1.904900 0.000330 0.019530 
#    y 0.000330 1.890470 -0.000300 
#    z 0.019530 -0.000300 1.827660 
# 
# From -- ./inp_files/223512.got.cif
#   From: 2010.05.17/outbox.cif.g08.bks.cpg/sg15_112_cif.got.tgz:223512.got - 2010.06.03 18:47:42.
