data_PCOD9299677
_publ_section_title
;
Structure prediction by ZEFSAII (Michael W. Deem and Ramdas Pophale) SiO2 
 PCOD9299677
Probable space group: C 2/C
;
_chemical_formula_sum "Si O2"
_cell_formula_units_Z 52
_cell_length_a 9.897196
_cell_length_b 23.743391
_cell_length_c 12.376973
_cell_angle_alpha 90.000000
_cell_angle_beta 51.776231
_cell_angle_gamma 90.000000
_cell_volume 2284.919946
_symmetry_space_group_name_H-M "C 2/C"
_symmetry_group_IT_number 15
_symmetry_cell_setting 'monoclinic'
loop_
_space_group_symop_operation_xyz
x,y,z
-x,y,1/2-z
-x,-y,-z
x,-y,1/2+z
1/2+x,1/2+y,z
1/2-x,1/2+y,1/2-z
1/2-x,1/2-y,-z
1/2+x,1/2-y,1/2+z
loop_
_atom_site_type_symbol
_atom_site_label
_atom_site_fract_x
_atom_site_fract_y
_atom_site_fract_z
Si Si1 0.500000 0.339634 0.750000
Si Si2 0.500029 0.751320 0.438007
Si Si3 0.863241 0.805977 0.223549
Si Si4 0.651157 0.868580 0.006990
Si Si5 0.650154 0.581954 0.898923
Si Si6 0.721436 0.547549 0.370940
Si Si7 0.032141 0.555855 0.054915
O O1 0.491297 0.299056 0.651009
O O2 0.324858 0.373682 0.850490
O O3 0.688658 0.777858 0.351088
O O4 0.427424 0.728402 0.586423
O O5 0.383502 0.803079 0.453628
O O6 0.845596 0.870728 0.194423
O O7 0.000000 0.802271 0.250000
O O8 0.493501 0.894221 0.018325
O O9 0.700622 0.900964 0.090924
O O10 0.680710 0.516815 0.856474
O O11 0.456793 0.581775 0.044910
O O12 0.877469 0.564832 0.216865
O O13 0.796656 0.550782 0.456781
O O14 0.000000 0.500000 0.000000
#
# Coordination Sequence:
#
# PCOD9299677 Si02
#       7
#     4   8   8   8   8   8   8
#     4  12  22  46  72 108 138 182 246 302 352 428
#     4  12  26  47  72 108 141 189 241 304 356 429
#     4  12  28  48  73 106 150 191 240 296 367 436
#     4  12  24  43  76 102 139 188 237 294 361 421
#     4  11  24  46  72 101 139 189 235 293 354 427
#     4  10  25  45  66 103 143 181 238 291 356 426
#     4  11  24  43  68 101 140 184 232 295 352 427
#
# _framework density 22.757909999999999
#
# number of rings (size 3 to 8) (size 9 to 14) (size 15 to 20)
#    0.000    0.615    4.615    2.769    4.308    0.000 
#    2.769    0.000    0.000    0.000    0.000    0.000 
#    0.000    0.000    0.000    0.000    0.000    0.000 
#
# Total GULP energy -145539.716001 kJ/mol
# GULP energy per Si atom -5597.681385 kJ/mol
# Density = 2.270611 g / cm^3
# Si number density = 22.757910 Si / 1000 Ang^3
#
#
#
# Elastic Constant Matrix: (Units=GPa)
#
#
# Indices 1 2 3 4 5 6 
#
# 1 111.1931 27.0166 26.9234 0.0000 -3.0346 0.0000
# 2 27.0166 76.1590 -9.6144 0.0000 -2.6322 0.0000
# 3 26.9234 -9.6144 44.3834 0.0000 -19.5016 0.0000
# 4 0.0000 0.0000 0.0000 7.7051 0.0000 -2.6843
# 5 -3.0346 -2.6322 -19.5016 0.0000 35.6060 0.0000
# 6 0.0000 0.0000 0.0000 -2.6843 0.0000 34.3491
#
#
#
# Elastic Compliance Matrix: (Units=1/GPa)
#
#
# Indices 1 2 3 4 5 6 
#
# 1 0.013335 -0.006467 -0.012117 0.000000 -0.005978 0.000000
# 2 -0.006467 0.016960 0.010411 0.000000 0.006405 0.000000
# 3 -0.012117 0.010411 0.042169 0.000000 0.022833 0.000000
# 4 0.000000 0.000000 0.000000 0.133417 0.000000 0.010426
# 5 -0.005978 0.006405 0.022833 0.000000 0.040555 0.000000
# 6 0.000000 0.000000 0.000000 0.010426 0.000000 0.029928
#
#
# Mechanical properties :
#
#
# Convention : Reuss Voigt Hill
#
# Bulk Modulus (GPa) = 17.81928 35.59851 26.70889
# Shear Modulus (GPa) = 16.05572 28.02605 22.04088
#
# Velocity S-wave (km/s) = 2.65901 3.51306 3.11544
# Velocity P-wave (km/s) = 4.15620 5.66848 4.97020
#
# Compressibility (1/GPa) = 0.05611900
#
# Stress axis : x y z
#
# Youngs Moduli (GPa) = 74.98877 58.96191 23.71407
#
# Poissons Ratio (x) = 0.38130 0.28734
# Poissons Ratio (y) = 0.48494 -0.24689
# Poissons Ratio (z) = 0.90863 -0.61385
#
# Static dielectric constant tensor:
#      x y z
#    x 1.891140 0.000000 -0.043430 
#    y 0.000000 1.821400 0.000000 
#    z -0.043430 0.000000 1.879270 
# 
# From -- ./inp_files/81173.got.cif
#   From: 2010.05.17/outbox.cif.g08.bks.cpg/sg15_41_cif.got.tgz:81173.got - 2010.06.03 18:47:42.
