data_PCOD9300400
_publ_section_title
;
Structure prediction by ZEFSAII (Michael W. Deem and Ramdas Pophale) SiO2 
 PCOD9300400
Probable space group: C 2/C
;
_chemical_formula_sum "Si O2"
_cell_formula_units_Z 48
_cell_length_a 22.850364
_cell_length_b 10.295472
_cell_length_c 10.885733
_cell_angle_alpha 90.000000
_cell_angle_beta 41.501324
_cell_angle_gamma 90.000000
_cell_volume 1696.965360
_symmetry_space_group_name_H-M "C 2/C"
_symmetry_group_IT_number 15
_symmetry_cell_setting 'monoclinic'
loop_
_space_group_symop_operation_xyz
x,y,z
-x,y,1/2-z
-x,-y,-z
x,-y,1/2+z
1/2+x,1/2+y,z
1/2-x,1/2+y,1/2-z
1/2-x,1/2-y,-z
1/2+x,1/2-y,1/2+z
loop_
_atom_site_type_symbol
_atom_site_label
_atom_site_fract_x
_atom_site_fract_y
_atom_site_fract_z
Si Si1 0.500000 0.500000 0.500000
Si Si2 0.190322 0.663580 0.003949
Si Si3 0.800491 0.440844 0.326719
Si Si4 0.345798 0.368793 0.081888
Si Si5 0.500000 0.289035 0.250000
Si Si6 0.067947 0.226377 0.379405
Si Si7 0.435609 0.896751 0.454209
O O1 0.597167 0.435654 0.402334
O O2 0.552193 0.601652 0.322881
O O3 0.183777 0.520672 0.072776
O O4 0.092399 0.717873 0.132483
O O5 0.250000 0.750000 0.000000
O O6 0.251383 0.669421 0.789910
O O7 0.698672 0.459808 0.450292
O O8 0.838754 0.294287 0.276783
O O9 0.864196 0.511805 0.127437
O O10 0.390656 0.233705 0.973012
O O11 0.474334 0.347329 0.428176
O O12 0.999619 0.341278 0.460278
O O13 0.500000 0.953945 0.250000
#
# Coordination Sequence:
#
# PCOD9300400 Si02
#       7
#     4   8   8   8   4   8   8
#     4  10  26  52  68 110 158 206 260 318 410 486
#     4  12  25  48  74 117 156 202 276 338 406 488
#     4  12  26  42  79 114 152 202 268 336 396 483
#     4  11  26  48  74 109 156 211 260 331 399 480
#     4  12  24  46  82 106 160 202 262 344 404 484
#     4  11  25  46  75 110 151 208 258 315 405 471
#     4  11  26  48  72 112 161 202 264 326 399 479
#
# _framework density 28.285786999999999
#
# number of rings (size 3 to 8) (size 9 to 14) (size 15 to 20)
#    0.000    0.667    5.000    1.500    8.167    2.667 
#    6.000    1.667    0.000    0.000    0.000    0.000 
#    0.000    0.000    0.000    0.000    0.000    0.000 
#
# Total GULP energy -133910.286332 kJ/mol
# GULP energy per Si atom -5579.595264 kJ/mol
# Density = 2.822141 g / cm^3
# Si number density = 28.285787 Si / 1000 Ang^3
#
#
#
# Elastic Constant Matrix: (Units=GPa)
#
#
# Indices 1 2 3 4 5 6 
#
# 1 129.8819 25.6336 38.7833 0.0000 -54.5309 0.0000
# 2 25.6336 112.5463 19.9309 0.0000 -33.4444 0.0000
# 3 38.7833 19.9309 166.5033 0.0000 -15.9541 0.0000
# 4 0.0000 0.0000 0.0000 46.7353 0.0000 -13.5139
# 5 -54.5309 -33.4444 -15.9541 0.0000 64.1541 0.0000
# 6 0.0000 0.0000 0.0000 -13.5139 0.0000 40.2308
#
#
#
# Elastic Compliance Matrix: (Units=1/GPa)
#
#
# Indices 1 2 3 4 5 6 
#
# 1 0.012596 0.000614 -0.001998 0.000000 0.010529 0.000000
# 2 0.000614 0.010636 -0.000855 0.000000 0.005854 0.000000
# 3 -0.001998 -0.000855 0.006524 0.000000 -0.000522 0.000000
# 4 0.000000 0.000000 0.000000 0.023699 0.000000 0.007961
# 5 0.010529 0.005854 -0.000522 0.000000 0.027459 0.000000
# 6 0.000000 0.000000 0.000000 0.007961 0.000000 0.027531
#
#
# Mechanical properties :
#
#
# Convention : Reuss Voigt Hill
#
# Bulk Modulus (GPa) = 39.56266 64.18081 51.87173
# Shear Modulus (GPa) = 41.20321 51.86296 46.53309
#
# Velocity S-wave (km/s) = 3.82078 4.28662 4.06039
# Velocity P-wave (km/s) = 5.78633 6.87311 6.35300
#
# Compressibility (1/GPa) = 0.02527636
#
# Stress axis : x y z
#
# Youngs Moduli (GPa) = 79.39271 94.01613 153.28651
#
# Poissons Ratio (x) = -0.05773 0.30634
# Poissons Ratio (y) = -0.04875 0.13111
# Poissons Ratio (z) = 0.15866 0.08041
#
# Static dielectric constant tensor:
#      x y z
#    x 2.310010 0.000000 -0.096290 
#    y 0.000000 3.469920 0.000000 
#    z -0.096290 0.000000 2.139770 
# 
# From -- ./inp_files/177771.got.cif
#   From: 2010.05.17/outbox.cif.g08.bks.cpg/sg15_89_cif.got.tgz:177771.got - 2010.06.03 18:47:42.
