data_PCOD9300607
_publ_section_title
;
Structure prediction by ZEFSAII (Michael W. Deem and Ramdas Pophale) SiO2 
 PCOD9300607
Probable space group: C 2/C
;
_chemical_formula_sum "Si O2"
_cell_formula_units_Z 36
_cell_length_a 7.456429
_cell_length_b 17.975567
_cell_length_c 14.339965
_cell_angle_alpha 90.000000
_cell_angle_beta 115.005695
_cell_angle_gamma 90.000000
_cell_volume 1741.875681
_symmetry_space_group_name_H-M "C 2/C"
_symmetry_group_IT_number 15
_symmetry_cell_setting 'monoclinic'
loop_
_space_group_symop_operation_xyz
x,y,z
-x,y,1/2-z
-x,-y,-z
x,-y,1/2+z
1/2+x,1/2+y,z
1/2-x,1/2+y,1/2-z
1/2-x,1/2-y,-z
1/2+x,1/2-y,1/2+z
loop_
_atom_site_type_symbol
_atom_site_label
_atom_site_fract_x
_atom_site_fract_y
_atom_site_fract_z
Si Si1 0.504013 0.050595 0.910769
Si Si2 0.500000 0.060739 0.250000
Si Si3 0.346043 0.672304 0.302688
Si Si4 0.335003 0.671750 0.977953
Si Si5 0.217340 0.336938 0.248981
O O1 0.665429 0.113295 0.965212
O O2 0.306924 0.094156 0.828140
O O3 0.574661 0.995096 0.845394
O O4 0.500000 0.000000 0.000000
O O5 0.672712 0.113546 0.250037
O O6 0.500000 0.670850 0.250000
O O7 0.466531 0.654992 0.422722
O O8 0.264941 0.756510 0.294169
O O9 0.358127 0.665323 0.870760
O O10 0.250000 0.750000 0.000000
O O11 0.000000 0.337764 0.250000
#
# Coordination Sequence:
#
# PCOD9300607 Si02
#       5
#     8   4   8   8   8
#     4  11  22  41  65  97 144 173 218 293 341 388
#     4  12  26  42  64 110 140 162 234 296 330 404
#     4  11  22  40  71  97 132 182 228 269 344 412
#     4  11  18  38  70  93 122 186 230 263 338 412
#     4   9  18  38  64  94 127 181 222 266 337 412
#
# _framework density 20.667376999999998
#
# number of rings (size 3 to 8) (size 9 to 14) (size 15 to 20)
#    0.000    1.333   10.000    1.333    0.000    0.889 
#    0.000    4.444    2.444    0.000    0.000    0.000 
#    0.000    0.000    0.000    0.000    0.000    0.000 
#
# Total GULP energy -100355.960104 kJ/mol
# GULP energy per Si atom -5575.331117 kJ/mol
# Density = 2.062034 g / cm^3
# Si number density = 20.667377 Si / 1000 Ang^3
#
#
#
# Elastic Constant Matrix: (Units=GPa)
#
#
# Indices 1 2 3 4 5 6 
#
# 1 32.2125 31.4312 9.9014 0.0000 -1.3465 0.0000
# 2 31.4312 159.0981 47.2909 0.0000 -9.8571 0.0000
# 3 9.9014 47.2909 150.0624 0.0000 -2.6264 0.0000
# 4 0.0000 0.0000 0.0000 48.1498 0.0000 -0.5613
# 5 -1.3465 -9.8571 -2.6264 0.0000 23.0855 0.0000
# 6 0.0000 0.0000 0.0000 -0.5613 0.0000 13.8013
#
#
#
# Elastic Compliance Matrix: (Units=1/GPa)
#
#
# Indices 1 2 3 4 5 6 
#
# 1 0.038484 -0.007620 -0.000156 0.000000 -0.001027 0.000000
# 2 -0.007620 0.008618 -0.002161 0.000000 0.002990 0.000000
# 3 -0.000156 -0.002161 0.007353 0.000000 -0.000095 0.000000
# 4 0.000000 0.000000 0.000000 0.020778 0.000000 0.000845
# 5 -0.001027 0.002990 -0.000095 0.000000 0.044523 0.000000
# 6 0.000000 0.000000 0.000000 0.000845 0.000000 0.072491
#
#
# Mechanical properties :
#
#
# Convention : Reuss Voigt Hill
#
# Bulk Modulus (GPa) = 28.91651 57.62445 43.27048
# Shear Modulus (GPa) = 22.35637 33.85728 28.10683
#
# Velocity S-wave (km/s) = 3.29252 4.05186 3.69177
# Velocity P-wave (km/s) = 5.33629 7.05921 6.25733
#
# Compressibility (1/GPa) = 0.03458233
#
# Stress axis : x y z
#
# Youngs Moduli (GPa) = 25.98471 116.03070 135.98974
#
# Poissons Ratio (x) = 0.88418 0.02118
# Poissons Ratio (y) = 0.19801 0.29386
# Poissons Ratio (z) = 0.00405 0.25073
#
# Static dielectric constant tensor:
#      x y z
#    x 1.755510 0.000000 0.014130 
#    y 0.000000 1.744200 0.000000 
#    z 0.014130 0.000000 1.734840 
# 
# From -- ./inp_files/133721.got.cif
#   From: 2010.05.17/outbox.cif.g08.bks.cpg/sg15_67_cif.got.tgz:133721.got - 2010.06.03 18:47:42.
