data_PCOD9300492
_publ_section_title
;
Structure prediction by ZEFSAII (Michael W. Deem and Ramdas Pophale) SiO2 
 PCOD9300492
Probable space group: C 2/C
;
_chemical_formula_sum "Si O2"
_cell_formula_units_Z 56
_cell_length_a 13.980778
_cell_length_b 6.735330
_cell_length_c 21.216827
_cell_angle_alpha 90.000000
_cell_angle_beta 103.987659
_cell_angle_gamma 90.000000
_cell_volume 1938.644086
_symmetry_space_group_name_H-M "C 2/C"
_symmetry_group_IT_number 15
_symmetry_cell_setting 'monoclinic'
loop_
_space_group_symop_operation_xyz
x,y,z
-x,y,1/2-z
-x,-y,-z
x,-y,1/2+z
1/2+x,1/2+y,z
1/2-x,1/2+y,1/2-z
1/2-x,1/2-y,-z
1/2+x,1/2-y,1/2+z
loop_
_atom_site_type_symbol
_atom_site_label
_atom_site_fract_x
_atom_site_fract_y
_atom_site_fract_z
Si Si1 0.537125 0.367378 0.183675
Si Si2 0.388445 0.629144 0.093467
Si Si3 0.842592 0.881135 0.987044
Si Si4 0.732111 0.554782 0.245538
Si Si5 0.210873 0.596696 0.617771
Si Si6 0.891412 0.605929 0.701440
Si Si7 0.529209 0.851290 0.561227
O O1 0.500000 0.359657 0.250000
O O2 0.491838 0.556542 0.139095
O O3 0.653427 0.405447 0.201627
O O4 0.513201 0.178737 0.135204
O O5 0.352733 0.606164 0.015057
O O6 0.318697 0.457569 0.111147
O O7 0.378741 0.841905 0.124878
O O8 0.951301 0.816013 0.027243
O O9 0.750000 0.750000 0.000000
O O10 0.831600 0.805201 0.914064
O O11 0.789149 0.428405 0.308393
O O12 0.821165 0.577205 0.209326
O O13 0.662347 0.701373 0.275138
O O14 0.143339 0.415785 0.582145
O O15 0.000000 0.593701 0.750000
O O16 0.500000 0.000000 0.500000
#
# Coordination Sequence:
#
# PCOD9300492 Si02
#       7
#     8   8   8   8   8   8   8
#     4  11  16  29  52  83 114 157 207 255 314 376
#     4   9  15  29  51  78 108 150 198 247 300 373
#     4   8  15  26  50  75 111 154 199 252 309 366
#     4  11  21  35  60  86 122 163 202 262 318 386
#     4   9  16  30  44  80 119 148 199 256 311 369
#     4  11  21  39  58  85 121 158 205 255 316 377
#     4   9  18  29  47  80 123 157 208 270 313 381
#
# _framework density 28.886168000000001
#
# number of rings (size 3 to 8) (size 9 to 14) (size 15 to 20)
#    0.000    2.286    4.286    1.714    0.000    0.000 
#    0.000    3.571    0.000    0.857    0.000    1.000 
#    0.000    0.571    0.000    0.000    0.000    0.000 
#
# Total GULP energy -155897.680393 kJ/mol
# GULP energy per Si atom -5567.774300 kJ/mol
# Density = 2.882042 g / cm^3
# Si number density = 28.886168 Si / 1000 Ang^3
#
#
#
# Elastic Constant Matrix: (Units=GPa)
#
#
# Indices 1 2 3 4 5 6 
#
# 1 152.4038 23.8967 39.3027 0.0000 23.0411 0.0000
# 2 23.8967 66.0045 24.4099 0.0000 -7.0762 0.0000
# 3 39.3027 24.4099 140.3798 0.0000 17.0298 0.0000
# 4 0.0000 0.0000 0.0000 48.1182 0.0000 -1.5471
# 5 23.0411 -7.0762 17.0298 0.0000 38.6260 0.0000
# 6 0.0000 0.0000 0.0000 -1.5471 0.0000 35.0526
#
#
#
# Elastic Compliance Matrix: (Units=1/GPa)
#
#
# Indices 1 2 3 4 5 6 
#
# 1 0.008064 -0.003018 -0.001144 0.000000 -0.004859 0.000000
# 2 -0.003018 0.018077 -0.003084 0.000000 0.006471 0.000000
# 3 -0.001144 -0.003084 0.008416 0.000000 -0.003593 0.000000
# 4 0.000000 0.000000 0.000000 0.020812 0.000000 0.000919
# 5 -0.004859 0.006471 -0.003593 0.000000 0.031557 0.000000
# 6 0.000000 0.000000 0.000000 0.000919 0.000000 0.028569
#
#
# Mechanical properties :
#
#
# Convention : Reuss Voigt Hill
#
# Bulk Modulus (GPa) = 49.83146 59.33406 54.58276
# Shear Modulus (GPa) = 36.58340 42.43795 39.51068
#
# Velocity S-wave (km/s) = 3.56261 3.83710 3.70240
# Velocity P-wave (km/s) = 5.84904 6.34164 6.10031
#
# Compressibility (1/GPa) = 0.02006764
#
# Stress axis : x y z
#
# Youngs Moduli (GPa) = 124.00481 55.31859 118.82441
#
# Poissons Ratio (x) = 0.16693 0.13589
# Poissons Ratio (y) = 0.37420 0.36640
# Poissons Ratio (z) = 0.14181 0.17058
#
# Static dielectric constant tensor:
#      x y z
#    x 2.407150 0.000000 -0.172960 
#    y 0.000000 2.442590 0.000000 
#    z -0.172960 0.000000 2.316240 
# 
# From -- ./inp_files/273493.got.cif
#   From: 2010.05.17/outbox.cif.g08.bks.cpg/sg15_137_cif.got.tgz:273493.got - 2010.06.03 18:47:42.
