data_PCOD9300752
_publ_section_title
;
Structure prediction by ZEFSAII (Michael W. Deem and Ramdas Pophale) SiO2 
 PCOD9300752
Probable space group: C 2/C
;
_chemical_formula_sum "Si O2"
_cell_formula_units_Z 56
_cell_length_a 26.745529
_cell_length_b 8.430349
_cell_length_c 16.880690
_cell_angle_alpha 90.000000
_cell_angle_beta 136.960738
_cell_angle_gamma 90.000000
_cell_volume 2597.701168
_symmetry_space_group_name_H-M "C 2/C"
_symmetry_group_IT_number 15
_symmetry_cell_setting 'monoclinic'
loop_
_space_group_symop_operation_xyz
x,y,z
-x,y,1/2-z
-x,-y,-z
x,-y,1/2+z
1/2+x,1/2+y,z
1/2-x,1/2+y,1/2-z
1/2-x,1/2-y,-z
1/2+x,1/2-y,1/2+z
loop_
_atom_site_type_symbol
_atom_site_label
_atom_site_fract_x
_atom_site_fract_y
_atom_site_fract_z
Si Si1 0.606484 0.634896 0.204732
Si Si2 0.340915 0.332258 0.322426
Si Si3 0.546722 0.082465 0.231767
Si Si4 0.107088 0.253247 0.373264
Si Si5 0.248008 0.161970 0.623427
Si Si6 0.033599 0.667928 0.950607
Si Si7 0.703543 0.178772 0.375538
O O1 0.613239 0.474490 0.163389
O O2 0.600965 0.625962 0.295020
O O3 0.681575 0.731258 0.277878
O O4 0.536267 0.737454 0.098212
O O5 0.296148 0.380557 0.348152
O O6 0.396300 0.191180 0.412642
O O7 0.284210 0.274150 0.190921
O O8 0.500000 0.152658 0.250000
O O9 0.583879 0.920621 0.308591
O O10 0.492636 0.009869 0.102147
O O11 0.615672 0.186395 0.286984
O O12 0.189764 0.251577 0.500443
O O13 0.057610 0.245919 0.395156
O O14 0.273851 0.001537 0.612343
O O15 0.750000 0.250000 0.500000
#
# Coordination Sequence:
#
# PCOD9300752 Si02
#       7
#     8   8   8   8   8   8   8
#     4  11  19  37  63  87 118 164 208 256 311 372
#     4  11  25  38  58  92 131 166 208 260 315 373
#     4   9  19  40  64  93 122 161 214 259 319 377
#     4   9  18  34  67  89 111 161 213 256 303 385
#     4  11  22  40  60  88 126 168 211 249 321 380
#     4   9  19  39  63  90 119 160 217 257 305 385
#     4  12  25  42  62  97 130 160 212 271 316 376
#
# _framework density 21.557521999999999
#
# number of rings (size 3 to 8) (size 9 to 14) (size 15 to 20)
#    0.000    1.714    2.857    3.857    2.000    0.571 
#    2.571    5.714    0.000    0.000    0.000    0.000 
#    0.000    0.000    0.000    0.000    0.000    0.000 
#
# Total GULP energy -156354.267173 kJ/mol
# GULP energy per Si atom -5584.080970 kJ/mol
# Density = 2.150846 g / cm^3
# Si number density = 21.557522 Si / 1000 Ang^3
#
#
#
# Elastic Constant Matrix: (Units=GPa)
#
#
# Indices 1 2 3 4 5 6 
#
# 1 98.3561 13.4955 35.6785 0.0000 8.5462 0.0000
# 2 13.4955 26.9654 5.9092 0.0000 -1.8198 0.0000
# 3 35.6785 5.9092 94.3530 0.0000 -7.1658 0.0000
# 4 0.0000 0.0000 0.0000 27.5287 0.0000 2.0085
# 5 8.5462 -1.8198 -7.1658 0.0000 38.5597 0.0000
# 6 0.0000 0.0000 0.0000 2.0085 0.0000 14.8514
#
#
#
# Elastic Compliance Matrix: (Units=1/GPa)
#
#
# Indices 1 2 3 4 5 6 
#
# 1 0.013088 -0.005752 -0.004899 0.000000 -0.004083 0.000000
# 2 -0.005752 0.040199 -0.000103 0.000000 0.003153 0.000000
# 3 -0.004899 -0.000103 0.012719 0.000000 0.003445 0.000000
# 4 0.000000 0.000000 0.000000 0.036688 0.000000 -0.004962
# 5 -0.004083 0.003153 0.003445 0.000000 0.027628 0.000000
# 6 0.000000 0.000000 0.000000 -0.004962 0.000000 0.068004
#
#
# Mechanical properties :
#
#
# Convention : Reuss Voigt Hill
#
# Bulk Modulus (GPa) = 22.47314 36.64899 29.56107
# Shear Modulus (GPa) = 21.30679 27.16071 24.23375
#
# Velocity S-wave (km/s) = 3.14724 3.55338 3.35646
# Velocity P-wave (km/s) = 4.86356 5.82004 5.36316
#
# Compressibility (1/GPa) = 0.04449757
#
# Stress axis : x y z
#
# Youngs Moduli (GPa) = 76.40429 24.87636 78.62221
#
# Poissons Ratio (x) = 0.14310 0.38517
# Poissons Ratio (y) = 0.43950 0.00810
# Poissons Ratio (z) = 0.37430 0.00256
#
# Static dielectric constant tensor:
#      x y z
#    x 1.831820 0.000000 -0.010710 
#    y 0.000000 1.768770 0.000000 
#    z -0.010710 0.000000 1.794570 
# 
# From -- ./inp_files/222092.got.cif
#   From: 2010.05.17/outbox.cif.g08.bks.cpg/sg15_112_cif.got.tgz:222092.got - 2010.06.03 18:47:42.
