data_PCOD9300868
_publ_section_title
;
Structure prediction by ZEFSAII (Michael W. Deem and Ramdas Pophale) SiO2 
 PCOD9300868
Probable space group: C 2/C
;
_chemical_formula_sum "Si O2"
_cell_formula_units_Z 64
_cell_length_a 11.685361
_cell_length_b 14.530330
_cell_length_c 22.064055
_cell_angle_alpha 90.000000
_cell_angle_beta 134.998178
_cell_angle_gamma 90.000000
_cell_volume 2649.120755
_symmetry_space_group_name_H-M "C 2/C"
_symmetry_group_IT_number 15
_symmetry_cell_setting 'monoclinic'
loop_
_space_group_symop_operation_xyz
x,y,z
-x,y,1/2-z
-x,-y,-z
x,-y,1/2+z
1/2+x,1/2+y,z
1/2-x,1/2+y,1/2-z
1/2-x,1/2-y,-z
1/2+x,1/2-y,1/2+z
loop_
_atom_site_type_symbol
_atom_site_label
_atom_site_fract_x
_atom_site_fract_y
_atom_site_fract_z
Si Si1 0.630984 0.917986 0.851632
Si Si2 0.047063 0.634736 0.442079
Si Si3 0.601086 0.595482 0.137471
Si Si4 0.410991 0.678938 0.889067
Si Si5 0.363118 0.527478 0.592519
Si Si6 0.258926 0.496927 0.685128
Si Si7 0.881440 0.616506 0.646632
Si Si8 0.156042 0.298808 0.187874
O O1 0.500000 0.902183 0.750000
O O2 0.604774 0.845394 0.894217
O O3 0.803359 0.937180 0.885949
O O4 0.595182 0.014977 0.870856
O O5 0.189218 0.574813 0.523021
O O6 0.011315 0.736042 0.453352
O O7 0.885956 0.573475 0.384658
O O8 0.415452 0.563759 0.074527
O O9 0.674730 0.545720 0.225947
O O10 0.651869 0.701770 0.153572
O O11 0.519308 0.604533 0.894003
O O12 0.297020 0.638425 0.898504
O O13 0.279865 0.714492 0.790391
O O14 0.368221 0.501707 0.665381
O O15 0.208464 0.603759 0.678361
O O16 0.000000 0.613308 0.750000
O O17 0.969988 0.689202 0.638319
#
# Coordination Sequence:
#
# PCOD9300868 Si02
#       8
#     8   8   8   8   8   8   8   8
#     4  11  19  42  69  91 129 173 231 280 325 391
#     4  12  26  45  69  98 139 188 220 278 350 404
#     4  12  24  43  70 104 129 175 232 282 333 393
#     4  11  22  42  67 100 134 177 226 277 344 396
#     4  12  28  44  65 103 145 178 222 277 349 414
#     4  12  24  47  68  98 140 181 226 280 333 410
#     4   9  18  36  65  91 127 161 221 284 317 382
#     4  11  22  40  71 103 125 173 235 284 328 387
#
# _framework density 24.15896
#
# number of rings (size 3 to 8) (size 9 to 14) (size 15 to 20)
#    0.000    0.750    6.250    1.875    3.500    1.500 
#    0.000    0.625    0.000    0.000    0.000    0.000 
#    0.000    0.000    0.000    0.000    0.000    0.000 
#
# Total GULP energy -178646.279055 kJ/mol
# GULP energy per Si atom -5582.696220 kJ/mol
# Density = 2.410397 g / cm^3
# Si number density = 24.158960 Si / 1000 Ang^3
#
#
#
# Elastic Constant Matrix: (Units=GPa)
#
#
# Indices 1 2 3 4 5 6 
#
# 1 105.0303 19.0493 13.5291 0.0000 4.2034 0.0000
# 2 19.0493 85.3486 5.9702 0.0000 2.0464 0.0000
# 3 13.5291 5.9702 39.8052 0.0000 2.4605 0.0000
# 4 0.0000 0.0000 0.0000 18.5981 0.0000 4.2674
# 5 4.2034 2.0464 2.4605 0.0000 25.5873 0.0000
# 6 0.0000 0.0000 0.0000 4.2674 0.0000 21.3311
#
#
#
# Elastic Compliance Matrix: (Units=1/GPa)
#
#
# Indices 1 2 3 4 5 6 
#
# 1 0.010348 -0.002061 -0.003132 0.000000 -0.001234 0.000000
# 2 -0.002061 0.012267 -0.001106 0.000000 -0.000536 0.000000
# 3 -0.003132 -0.001106 0.026473 0.000000 -0.001943 0.000000
# 4 0.000000 0.000000 0.000000 0.056356 0.000000 -0.011274
# 5 -0.001234 -0.000536 -0.001943 0.000000 0.039514 0.000000
# 6 0.000000 0.000000 0.000000 -0.011274 0.000000 0.049136
#
#
# Mechanical properties :
#
#
# Convention : Reuss Voigt Hill
#
# Bulk Modulus (GPa) = 27.40497 34.14238 30.77368
# Shear Modulus (GPa) = 22.84632 25.87899 24.36265
#
# Velocity S-wave (km/s) = 3.07851 3.27646 3.17903
# Velocity P-wave (km/s) = 4.89944 5.33636 5.12256
#
# Compressibility (1/GPa) = 0.03648973
#
# Stress axis : x y z
#
# Youngs Moduli (GPa) = 96.64067 81.52043 37.77473
#
# Poissons Ratio (x) = 0.16800 0.11830
# Poissons Ratio (y) = 0.19917 0.04179
# Poissons Ratio (z) = 0.30264 0.09018
#
# Static dielectric constant tensor:
#      x y z
#    x 1.887970 0.000000 0.009300 
#    y 0.000000 1.911570 0.000000 
#    z 0.009300 0.000000 2.042630 
# 
# From -- ./inp_files/293102.got.cif
#   From: 2010.05.17/outbox.cif.g08.bks.cpg/sg15_147_cif.got.tgz:293102.got - 2010.06.03 18:47:42.
