data_PCOD9300255
_publ_section_title
;
Structure prediction by ZEFSAII (Michael W. Deem and Ramdas Pophale) SiO2 
 PCOD9300255
Probable space group: C 2/C
;
_chemical_formula_sum "Si O2"
_cell_formula_units_Z 44
_cell_length_a 15.023516
_cell_length_b 6.254444
_cell_length_c 18.772266
_cell_angle_alpha 90.000000
_cell_angle_beta 76.305472
_cell_angle_gamma 90.000000
_cell_volume 1713.767345
_symmetry_space_group_name_H-M "C 2/C"
_symmetry_group_IT_number 15
_symmetry_cell_setting 'monoclinic'
loop_
_space_group_symop_operation_xyz
x,y,z
-x,y,1/2-z
-x,-y,-z
x,-y,1/2+z
1/2+x,1/2+y,z
1/2-x,1/2+y,1/2-z
1/2-x,1/2-y,-z
1/2+x,1/2-y,1/2+z
loop_
_atom_site_type_symbol
_atom_site_label
_atom_site_fract_x
_atom_site_fract_y
_atom_site_fract_z
Si Si1 0.200566 0.506745 0.361002
Si Si2 0.470435 0.407742 0.410999
Si Si3 0.346180 0.810690 0.272686
Si Si4 0.319354 0.877373 0.903355
Si Si5 0.000000 0.963101 0.250000
Si Si6 0.858493 0.149855 0.526184
O O1 0.248097 0.703551 0.309008
O O2 0.144447 0.390824 0.309693
O O3 0.269855 0.331053 0.379244
O O4 0.152791 0.618821 0.436848
O O5 0.399036 0.213637 0.439735
O O6 0.500820 0.352386 0.325514
O O7 0.406051 0.614892 0.440490
O O8 0.563572 0.447201 0.436505
O O9 0.413812 0.616970 0.269952
O O10 0.359396 0.993177 0.328642
O O11 0.238263 0.025316 0.951420
#
# Coordination Sequence:
#
# PCOD9300255 Si02
#       6
#     8   8   8   8   4   8
#     4  11  22  43  70  95 138 177 224 283 345 409
#     4  11  25  47  68 102 139 182 230 290 343 419
#     4  11  24  40  65 104 132 175 225 284 345 402
#     4  11  23  44  71  99 134 183 229 283 348 413
#     4  12  26  42  68 102 136 172 236 284 338 416
#     4  10  26  47  69  98 142 181 229 286 353 412
#
# _framework density 25.674431999999999
#
# number of rings (size 3 to 8) (size 9 to 14) (size 15 to 20)
#    0.000    1.091    3.636    1.636    7.636    0.727 
#    3.273    2.727    0.000    0.000    0.000    0.000 
#    0.000    0.000    0.000    0.000    0.000    0.000 
#
# Total GULP energy -123017.494704 kJ/mol
# GULP energy per Si atom -5591.704305 kJ/mol
# Density = 2.561600 g / cm^3
# Si number density = 25.674432 Si / 1000 Ang^3
#
#
#
# Elastic Constant Matrix: (Units=GPa)
#
#
# Indices 1 2 3 4 5 6 
#
# 1 65.5915 -25.6820 12.1560 0.0000 6.0311 0.0000
# 2 -25.6820 38.3665 8.9190 0.0000 -3.1683 0.0000
# 3 12.1560 8.9190 122.9236 0.0000 -2.9993 0.0000
# 4 0.0000 0.0000 0.0000 33.2900 0.0000 10.5407
# 5 6.0311 -3.1683 -2.9993 0.0000 31.8860 0.0000
# 6 0.0000 0.0000 0.0000 10.5407 0.0000 16.9635
#
#
#
# Elastic Compliance Matrix: (Units=1/GPa)
#
#
# Indices 1 2 3 4 5 6 
#
# 1 0.022168 0.015379 -0.003381 0.000000 -0.002983 0.000000
# 2 0.015379 0.037374 -0.004223 0.000000 0.000408 0.000000
# 3 -0.003381 -0.004223 0.008801 0.000000 0.001048 0.000000
# 4 0.000000 0.000000 0.000000 0.037397 0.000000 -0.023237
# 5 -0.002983 0.000408 0.001048 0.000000 0.032065 0.000000
# 6 0.000000 0.000000 0.000000 -0.023237 0.000000 0.073389
#
#
# Mechanical properties :
#
#
# Convention : Reuss Voigt Hill
#
# Bulk Modulus (GPa) = 11.91981 24.18530 18.05255
# Shear Modulus (GPa) = 22.36048 31.86048 27.11048
#
# Velocity S-wave (km/s) = 2.95434 3.52652 3.25304
# Velocity P-wave (km/s) = 4.03612 5.10120 4.59959
#
# Compressibility (1/GPa) = 0.08389398
#
# Stress axis : x y z
#
# Youngs Moduli (GPa) = 45.10969 26.75659 113.61808
#
# Poissons Ratio (x) = -0.41148 0.38413
# Poissons Ratio (y) = -0.69373 0.47977
# Poissons Ratio (z) = 0.15251 0.11298
#
# Static dielectric constant tensor:
#      x y z
#    x 2.133810 0.000000 -0.106560 
#    y 0.000000 2.051110 0.000000 
#    z -0.106560 0.000000 2.110360 
# 
# From -- ./inp_files/246420.got.cif
#   From: 2010.05.17/outbox.cif.g08.bks.cpg/sg15_124_cif.got.tgz:246420.got - 2010.06.03 18:47:42.
