data_PCOD9300016
_publ_section_title
;
Structure prediction by ZEFSAII (Michael W. Deem and Ramdas Pophale) SiO2 
 PCOD9300016
Probable space group: C 2/C
;
_chemical_formula_sum "Si O2"
_cell_formula_units_Z 64
_cell_length_a 8.205992
_cell_length_b 27.709927
_cell_length_c 14.560874
_cell_angle_alpha 90.000000
_cell_angle_beta 131.644663
_cell_angle_gamma 90.000000
_cell_volume 2474.215145
_symmetry_space_group_name_H-M "C 2/C"
_symmetry_group_IT_number 15
_symmetry_cell_setting 'monoclinic'
loop_
_space_group_symop_operation_xyz
x,y,z
-x,y,1/2-z
-x,-y,-z
x,-y,1/2+z
1/2+x,1/2+y,z
1/2-x,1/2+y,1/2-z
1/2-x,1/2-y,-z
1/2+x,1/2-y,1/2+z
loop_
_atom_site_type_symbol
_atom_site_label
_atom_site_fract_x
_atom_site_fract_y
_atom_site_fract_z
Si Si1 0.777992 0.214220 0.620134
Si Si2 0.152462 0.920064 0.220776
Si Si3 0.860588 0.139190 0.484333
Si Si4 0.964140 0.554763 0.135511
Si Si5 0.076510 0.006167 0.425300
Si Si6 0.110772 0.784299 0.014325
Si Si7 0.299908 0.397934 0.625671
Si Si8 0.516588 0.151343 0.873045
O O1 0.823147 0.175806 0.556009
O O2 0.570381 0.247295 0.511295
O O3 0.679147 0.185429 0.669460
O O4 0.000000 0.236143 0.750000
O O5 0.396902 0.899894 0.310503
O O6 0.000000 0.903725 0.250000
O O7 0.043127 0.897395 0.089856
O O8 0.107862 0.977010 0.200404
O O9 0.661334 0.104905 0.390457
O O10 0.941513 0.171986 0.430566
O O11 0.000000 0.532259 0.250000
O O12 0.165577 0.572096 0.150862
O O13 0.806816 0.522500 0.011796
O O14 0.109325 0.060677 0.407951
O O15 0.000000 0.000000 0.500000
O O16 0.250000 0.750000 0.000000
O O17 0.311042 0.819030 0.125673
O O18 0.500000 0.372653 0.750000
O O19 0.152805 0.360676 0.515941
#
# Coordination Sequence:
#
# PCOD9300016 Si02
#       8
#     8   8   8   8   8   8   8   8
#     4  11  20  46  73 105 138 185 244 291 362 442
#     4  11  21  43  77 103 138 188 246 291 357 436
#     4  11  21  43  73  99 139 186 245 290 358 445
#     4  11  25  44  73 100 139 194 242 295 365 441
#     4  11  26  45  70 111 144 184 243 301 365 439
#     4  10  26  41  65 104 147 179 236 304 361 421
#     4  12  26  45  70  99 149 189 238 300 370 433
#     4  11  22  45  71 104 143 186 238 300 364 430
#
# _framework density 25.866786999999999
#
# number of rings (size 3 to 8) (size 9 to 14) (size 15 to 20)
#    0.000    1.000    3.750    2.625    5.250    3.000 
#    0.000    0.000    0.000    0.000    0.000    0.000 
#    0.000    0.000    0.000    0.000    0.000    0.000 
#
# Total GULP energy -178554.985084 kJ/mol
# GULP energy per Si atom -5579.843284 kJ/mol
# Density = 2.580791 g / cm^3
# Si number density = 25.866787 Si / 1000 Ang^3
#
#
#
# Elastic Constant Matrix: (Units=GPa)
#
#
# Indices 1 2 3 4 5 6 
#
# 1 107.7934 22.4367 32.9697 0.0000 5.9085 0.0000
# 2 22.4367 94.5410 18.2449 0.0000 4.7770 0.0000
# 3 32.9697 18.2449 123.8701 0.0000 21.8699 0.0000
# 4 0.0000 0.0000 0.0000 10.1832 0.0000 14.5542
# 5 5.9085 4.7770 21.8699 0.0000 38.2727 0.0000
# 6 0.0000 0.0000 0.0000 14.5542 0.0000 41.5024
#
#
#
# Elastic Compliance Matrix: (Units=1/GPa)
#
#
# Indices 1 2 3 4 5 6 
#
# 1 0.010455 -0.002002 -0.002499 0.000000 0.000064 0.000000
# 2 -0.002002 0.011279 -0.001039 0.000000 -0.000505 0.000000
# 3 -0.002499 -0.001039 0.009788 0.000000 -0.005077 0.000000
# 4 0.000000 0.000000 0.000000 0.196877 0.000000 -0.069042
# 5 0.000064 -0.000505 -0.005077 0.000000 0.029083 0.000000
# 6 0.000000 0.000000 0.000000 -0.069042 0.000000 0.048307
#
#
# Mechanical properties :
#
#
# Convention : Reuss Voigt Hill
#
# Bulk Modulus (GPa) = 48.92324 52.61189 50.76757
# Shear Modulus (GPa) = 15.44727 34.82854 25.13790
#
# Velocity S-wave (km/s) = 2.44639 3.67339 3.12079
# Velocity P-wave (km/s) = 5.18983 6.19479 5.71445
#
# Compressibility (1/GPa) = 0.02044018
#
# Stress axis : x y z
#
# Youngs Moduli (GPa) = 95.65195 88.66329 102.16977
#
# Poissons Ratio (x) = 0.17751 0.25532
# Poissons Ratio (y) = 0.19150 0.10618
# Poissons Ratio (z) = 0.23904 0.09214
#
# Static dielectric constant tensor:
#      x y z
#    x 2.097600 0.000000 -0.006630 
#    y 0.000000 2.045010 0.000000 
#    z -0.006630 0.000000 2.057870 
# 
# From -- ./inp_files/194262.got.cif
#   From: 2010.05.17/outbox.cif.g08.bks.cpg/sg15_98_cif.got.tgz:194262.got - 2010.06.03 18:47:42.
