data_PCOD9300838
_publ_section_title
;
Structure prediction by ZEFSAII (Michael W. Deem and Ramdas Pophale) SiO2 
 PCOD9300838
Probable space group: C 2/C
;
_chemical_formula_sum "Si O2"
_cell_formula_units_Z 36
_cell_length_a 10.076496
_cell_length_b 15.669072
_cell_length_c 9.998858
_cell_angle_alpha 90.000000
_cell_angle_beta 105.995433
_cell_angle_gamma 90.000000
_cell_volume 1517.591116
_symmetry_space_group_name_H-M "C 2/C"
_symmetry_group_IT_number 15
_symmetry_cell_setting 'monoclinic'
loop_
_space_group_symop_operation_xyz
x,y,z
-x,y,1/2-z
-x,-y,-z
x,-y,1/2+z
1/2+x,1/2+y,z
1/2-x,1/2+y,1/2-z
1/2-x,1/2-y,-z
1/2+x,1/2-y,1/2+z
loop_
_atom_site_type_symbol
_atom_site_label
_atom_site_fract_x
_atom_site_fract_y
_atom_site_fract_z
Si Si1 0.569166 0.853645 0.585638
Si Si2 0.812406 0.358800 0.173363
Si Si3 0.640222 0.673304 0.203923
Si Si4 0.501503 0.338728 0.099185
Si Si5 0.000000 0.491906 0.750000
O O1 0.601323 0.846524 0.438458
O O2 0.719548 0.863952 0.696474
O O3 0.501854 0.764166 0.607068
O O4 0.478896 0.930572 0.617139
O O5 0.832089 0.275922 0.272424
O O6 0.653155 0.363055 0.089408
O O7 0.871791 0.446289 0.245698
O O8 0.500000 0.656484 0.250000
O O9 0.611065 0.642123 0.044987
O O10 0.500000 0.373229 0.250000
#
# Coordination Sequence:
#
# PCOD9300838 Si02
#       5
#     8   8   8   8   4
#     4  11  22  39  65  96 127 166 209 262 311 375
#     4  11  22  40  66  91 130 171 203 258 321 372
#     4  11  19  40  71  90 121 170 214 255 310 371
#     4  11  22  41  66  97 124 161 221 263 302 371
#     4  12  24  42  58  98 132 164 206 258 318 384
#
# _framework density 23.721803000000001
#
# number of rings (size 3 to 8) (size 9 to 14) (size 15 to 20)
#    0.000    0.889    6.667    2.000    0.000    3.556 
#    8.000    2.222    0.000    0.000    0.000    0.000 
#    0.000    0.000    0.000    0.000    0.000    0.000 
#
# Total GULP energy -100612.735728 kJ/mol
# GULP energy per Si atom -5589.596429 kJ/mol
# Density = 2.366781 g / cm^3
# Si number density = 23.721803 Si / 1000 Ang^3
#
#
#
# Elastic Constant Matrix: (Units=GPa)
#
#
# Indices 1 2 3 4 5 6 
#
# 1 28.5731 4.2638 18.0824 0.0000 11.6260 0.0000
# 2 4.2638 58.3528 -11.0498 0.0000 -3.2106 0.0000
# 3 18.0824 -11.0498 93.2146 0.0000 19.7946 0.0000
# 4 0.0000 0.0000 0.0000 15.9042 0.0000 -13.9005
# 5 11.6260 -3.2106 19.7946 0.0000 46.0687 0.0000
# 6 0.0000 0.0000 0.0000 -13.9005 0.0000 12.7805
#
#
#
# Elastic Compliance Matrix: (Units=1/GPa)
#
#
# Indices 1 2 3 4 5 6 
#
# 1 0.043743 -0.005038 -0.007333 0.000000 -0.008239 0.000000
# 2 -0.005038 0.018116 0.002847 0.000000 0.001311 0.000000
# 3 -0.007333 0.002847 0.013263 0.000000 -0.003650 0.000000
# 4 0.000000 0.000000 0.000000 1.273021 0.000000 1.384581
# 5 -0.008239 0.001311 -0.003650 0.000000 0.025446 0.000000
# 6 0.000000 0.000000 0.000000 1.384581 0.000000 1.584161
#
#
# Mechanical properties :
#
#
# Convention : Reuss Voigt Hill
#
# Bulk Modulus (GPa) = 17.83402 22.52595 20.17999
# Shear Modulus (GPa) = 1.66918 26.20696 13.93807
#
# Velocity S-wave (km/s) = 0.83975 3.32740 2.42660
# Velocity P-wave (km/s) = 2.91111 4.92734 4.04680
#
# Compressibility (1/GPa) = 0.05607260
#
# Stress axis : x y z
#
# Youngs Moduli (GPa) = 22.86079 55.19855 75.39802
#
# Poissons Ratio (x) = 0.27810 0.55291
# Poissons Ratio (y) = 0.11518 -0.21462
# Poissons Ratio (z) = 0.16764 -0.15712
#
# Static dielectric constant tensor:
#      x y z
#    x 1.891230 0.000000 -0.018720 
#    y 0.000000 1.887490 0.000000 
#    z -0.018720 0.000000 1.993940 
# 
# From -- ./inp_files/28730.got.cif
#   From: 2010.05.17/outbox.cif.g08.bks.cpg/sg15_15_cif.got.tgz:28730.got - 2010.06.03 18:47:42.
