data_PCOD9300764
_publ_section_title
;
Structure prediction by ZEFSAII (Michael W. Deem and Ramdas Pophale) SiO2 
 PCOD9300764
Probable space group: C 2/C
;
_chemical_formula_sum "Si O2"
_cell_formula_units_Z 64
_cell_length_a 14.744177
_cell_length_b 15.656535
_cell_length_c 18.712736
_cell_angle_alpha 90.000000
_cell_angle_beta 142.662648
_cell_angle_gamma 90.000000
_cell_volume 2619.927008
_symmetry_space_group_name_H-M "C 2/C"
_symmetry_group_IT_number 15
_symmetry_cell_setting 'monoclinic'
loop_
_space_group_symop_operation_xyz
x,y,z
-x,y,1/2-z
-x,-y,-z
x,-y,1/2+z
1/2+x,1/2+y,z
1/2-x,1/2+y,1/2-z
1/2-x,1/2-y,-z
1/2+x,1/2-y,1/2+z
loop_
_atom_site_type_symbol
_atom_site_label
_atom_site_fract_x
_atom_site_fract_y
_atom_site_fract_z
Si Si1 0.068717 0.473014 0.169364
Si Si2 0.670375 0.246789 0.138801
Si Si3 0.533627 0.475644 0.884683
Si Si4 0.223167 0.926002 0.322517
Si Si5 0.273655 0.900600 0.940235
Si Si6 0.402316 0.672083 0.387484
Si Si7 0.712375 0.081476 0.381186
Si Si8 0.074747 0.355275 0.942150
O O1 0.194608 0.425470 0.202353
O O2 0.121786 0.513995 0.276090
O O3 0.019921 0.559516 0.097160
O O4 0.921427 0.414307 0.081051
O O5 0.707248 0.178204 0.099813
O O6 0.823665 0.240135 0.283479
O O7 0.541341 0.218854 0.114518
O O8 0.567291 0.312093 0.026129
O O9 0.450611 0.556822 0.797543
O O10 0.621661 0.408518 0.889806
O O11 0.418120 0.418213 0.855941
O O12 0.657639 0.521683 0.008142
O O13 0.288058 0.854708 0.415941
O O14 0.265132 0.014364 0.387675
O O15 0.283997 0.652703 0.375570
O O16 0.631599 0.126866 0.397827
#
# Coordination Sequence:
#
# PCOD9300764 Si02
#       8
#     8   8   8   8   8   8   8   8
#     4  11  19  37  67 103 128 170 214 275 346 399
#     4  12  26  48  67  92 137 185 240 269 331 422
#     4  12  24  40  68 105 137 166 219 290 347 399
#     4  11  19  37  67 103 128 170 214 275 346 399
#     4  11  21  38  71  98 129 171 218 275 341 407
#     4  12  29  45  64  93 135 195 226 277 335 399
#     4  12  24  40  68 105 137 166 219 290 347 399
#     4  11  21  38  71  98 129 171 218 275 341 407
#
# _framework density 24.428160999999999
#
# number of rings (size 3 to 8) (size 9 to 14) (size 15 to 20)
#    0.000    0.500    8.750    1.875    0.000    3.000 
#    0.000    0.000    0.000    0.000    0.000    0.000 
#    0.000    0.000    0.000    0.000    0.000    0.000 
#
# Total GULP energy -178502.644677 kJ/mol
# GULP energy per Si atom -5578.207646 kJ/mol
# Density = 2.437256 g / cm^3
# Si number density = 24.428161 Si / 1000 Ang^3
#
#
#
# Elastic Constant Matrix: (Units=GPa)
#
#
# Indices 1 2 3 4 5 6 
#
# 1 99.8859 10.8965 29.8355 -0.0009 -3.3320 -0.0008
# 2 10.8965 29.7968 -1.1135 -0.0004 -5.6430 -0.0001
# 3 29.8355 -1.1135 103.5440 -0.0024 -14.3614 -0.0025
# 4 -0.0009 -0.0004 -0.0024 -18.6885 -0.0009 -45.9884
# 5 -3.3320 -5.6430 -14.3614 -0.0009 22.5374 -0.0008
# 6 -0.0008 -0.0001 -0.0025 -45.9884 -0.0008 -53.0926
#
#
#
# Elastic Compliance Matrix: (Units=1/GPa)
#
#
# Indices 1 2 3 4 5 6 
#
# 1 0.011547 -0.004695 -0.003624 0.000000 -0.001778 0.000000
# 2 -0.004695 0.037434 0.003246 0.000001 0.010747 -0.000001
# 3 -0.003624 0.003246 0.011820 0.000000 0.007809 -0.000001
# 4 0.000000 0.000001 0.000000 0.047290 0.000001 -0.040962
# 5 -0.001778 0.010747 0.007809 0.000001 0.051775 -0.000002
# 6 0.000000 -0.000001 -0.000001 -0.040962 -0.000002 0.016646
#
#
# Mechanical properties :
#
#
# Convention : Reuss Voigt Hill
#
# Bulk Modulus (GPa) = 19.74138 34.71819 27.22979
# Shear Modulus (GPa) = 24.56490 3.05845 13.81168
#
# Velocity S-wave (km/s) = 3.17456 1.12015 2.38039
# Velocity P-wave (km/s) = 4.64069 3.98951 4.32737
#
# Compressibility (1/GPa) = 0.05065502
#
# Stress axis : x y z
#
# Youngs Moduli (GPa) = 86.60411 26.71355 84.60232
#
# Poissons Ratio (x) = 0.12541 0.30662
# Poissons Ratio (y) = 0.40658 -0.27461
# Poissons Ratio (z) = 0.31387 -0.08671
#
# Static dielectric constant tensor:
#      x y z
#    x 1.998920 0.000000 0.066740 
#    y 0.000000 1.934440 0.000000 
#    z 0.066740 0.000000 2.165330 
# 
# From -- ./inp_files/206484.got.cif
#   From: 2010.05.17/outbox.cif.g08.bks.cpg/sg15_104_cif.got.tgz:206484.got - 2010.06.03 18:47:42.
