data_PCOD9300613
_publ_section_title
;
Structure prediction by ZEFSAII (Michael W. Deem and Ramdas Pophale) SiO2 
 PCOD9300613
Probable space group: C 2/C
;
_chemical_formula_sum "Si O2"
_cell_formula_units_Z 56
_cell_length_a 16.535574
_cell_length_b 13.156297
_cell_length_c 22.649041
_cell_angle_alpha 90.000000
_cell_angle_beta 36.246186
_cell_angle_gamma 90.000000
_cell_volume 2913.253635
_symmetry_space_group_name_H-M "C 2/C"
_symmetry_group_IT_number 15
_symmetry_cell_setting 'monoclinic'
loop_
_space_group_symop_operation_xyz
x,y,z
-x,y,1/2-z
-x,-y,-z
x,-y,1/2+z
1/2+x,1/2+y,z
1/2-x,1/2+y,1/2-z
1/2-x,1/2-y,-z
1/2+x,1/2-y,1/2+z
loop_
_atom_site_type_symbol
_atom_site_label
_atom_site_fract_x
_atom_site_fract_y
_atom_site_fract_z
Si Si1 0.722167 0.100088 0.290455
Si Si2 0.341032 0.668900 0.346407
Si Si3 0.939958 0.601242 0.499027
Si Si4 0.370037 0.086857 0.715040
Si Si5 0.218261 0.882342 0.423393
Si Si6 0.180028 0.477964 0.026879
Si Si7 0.923650 0.226689 0.105167
O O1 0.783865 0.133783 0.316591
O O2 0.567959 0.139903 0.385103
O O3 0.806056 0.145391 0.186735
O O4 0.706351 0.979464 0.290093
O O5 0.500000 0.642676 0.250000
O O6 0.321025 0.787311 0.373388
O O7 0.249663 0.612682 0.448889
O O8 0.825732 0.566178 0.519502
O O9 0.905907 0.693038 0.562686
O O10 0.000000 0.500000 0.500000
O O11 0.268636 0.083864 0.829651
O O12 0.519917 0.038474 0.636692
O O13 0.408677 0.199265 0.670742
O O14 0.239250 0.971128 0.459062
O O15 0.067880 0.831811 0.514938
#
# Coordination Sequence:
#
# PCOD9300613 Si02
#       7
#     8   8   8   8   8   8   8
#     4  11  22  36  57  86 114 168 207 248 299 378
#     4  12  20  32  54  88 123 150 190 245 318 367
#     4  11  18  39  60  80 123 172 204 235 307 384
#     4  11  21  38  56  79 126 158 205 249 308 371
#     4  12  23  34  56  93 120 158 196 260 315 361
#     4  11  21  34  56  85 123 161 192 242 309 381
#     4  12  20  37  60  86 124 160 209 250 307 375
#
# _framework density 19.222494000000001
#
# number of rings (size 3 to 8) (size 9 to 14) (size 15 to 20)
#    0.000    0.571    8.571    2.571    0.000    0.571 
#    0.000    0.000    0.000    0.857    0.000   18.000 
#    0.000    0.000    0.000    0.000    0.000    0.000 
#
# Total GULP energy -155948.349485 kJ/mol
# GULP energy per Si atom -5569.583910 kJ/mol
# Density = 1.917874 g / cm^3
# Si number density = 19.222494 Si / 1000 Ang^3
#
#
#
# Elastic Constant Matrix: (Units=GPa)
#
#
# Indices 1 2 3 4 5 6 
#
# 1 52.8213 18.1354 29.5263 0.0000 14.2613 0.0000
# 2 18.1354 31.4607 40.8833 -0.0001 -5.3821 0.0000
# 3 29.5263 40.8833 122.1377 -0.0003 16.8514 0.0001
# 4 0.0000 -0.0001 -0.0003 32.9840 0.0001 9.5236
# 5 14.2613 -5.3821 16.8514 0.0001 23.9441 0.0000
# 6 0.0000 0.0000 0.0001 9.5236 0.0000 26.1415
#
#
#
# Elastic Compliance Matrix: (Units=1/GPa)
#
#
# Indices 1 2 3 4 5 6 
#
# 1 0.038448 -0.042531 0.010433 0.000000 -0.039803 0.000000
# 2 -0.042531 0.129312 -0.044865 -0.000001 0.085973 0.000000
# 3 0.010433 -0.044865 0.025398 0.000000 -0.034173 0.000000
# 4 0.000000 -0.000001 0.000000 0.033882 -0.000001 -0.012343
# 5 -0.039803 0.085973 -0.034173 -0.000001 0.108846 0.000000
# 6 0.000000 0.000000 0.000000 -0.012343 0.000000 0.042750
#
#
# Mechanical properties :
#
#
# Convention : Reuss Voigt Hill
#
# Bulk Modulus (GPa) = 25.48823 42.61217 34.05020
# Shear Modulus (GPa) = 9.16356 24.47222 16.81789
#
# Velocity S-wave (km/s) = 2.18574 3.57193 2.96109
# Velocity P-wave (km/s) = 4.43377 6.26319 5.42613
#
# Compressibility (1/GPa) = 0.03923379
#
# Stress axis : x y z
#
# Youngs Moduli (GPa) = 26.00886 7.73322 39.37329
#
# Poissons Ratio (x) = 0.32890 -0.41079
# Poissons Ratio (y) = 1.10617 1.76648
# Poissons Ratio (z) = -0.27135 0.34695
#
# Static dielectric constant tensor:
#      x y z
#    x 1.732640 0.000000 0.037490 
#    y 0.000000 1.714440 0.000000 
#    z 0.037490 0.000000 1.716390 
# 
# From -- ./inp_files/244497.got.cif
#   From: 2010.05.17/outbox.cif.g08.bks.cpg/sg15_123_cif.got.tgz:244497.got - 2010.06.03 18:47:42.
