data_PCOD9300970
_publ_section_title
;
Structure prediction by ZEFSAII (Michael W. Deem and Ramdas Pophale) SiO2 
 PCOD9300970
Probable space group: C 2/C
;
_chemical_formula_sum "Si O2"
_cell_formula_units_Z 64
_cell_length_a 9.761199
_cell_length_b 30.059038
_cell_length_c 16.748470
_cell_angle_alpha 90.000000
_cell_angle_beta 41.901268
_cell_angle_gamma 90.000000
_cell_volume 3281.947895
_symmetry_space_group_name_H-M "C 2/C"
_symmetry_group_IT_number 15
_symmetry_cell_setting 'monoclinic'
loop_
_space_group_symop_operation_xyz
x,y,z
-x,y,1/2-z
-x,-y,-z
x,-y,1/2+z
1/2+x,1/2+y,z
1/2-x,1/2+y,1/2-z
1/2-x,1/2-y,-z
1/2+x,1/2-y,1/2+z
loop_
_atom_site_type_symbol
_atom_site_label
_atom_site_fract_x
_atom_site_fract_y
_atom_site_fract_z
Si Si1 0.828465 0.283045 0.581825
Si Si2 0.583671 0.272229 0.844431
Si Si3 0.401894 0.518843 0.711884
Si Si4 0.307071 0.576793 0.996730
Si Si5 0.442330 0.117152 0.084468
Si Si6 0.160479 0.928443 0.579240
Si Si7 0.822189 0.869658 0.653373
Si Si8 0.450649 0.012683 0.863547
O O1 0.751218 0.261219 0.700749
O O2 0.623498 0.283094 0.616052
O O3 0.898565 0.333117 0.572460
O O4 0.004327 0.260253 0.450022
O O5 0.666554 0.316649 0.851250
O O6 0.500000 0.536266 0.750000
O O7 0.470930 0.555654 0.618006
O O8 0.509717 0.470941 0.652457
O O9 0.161490 0.512674 0.820358
O O10 0.316900 0.606817 0.070762
O O11 0.180145 0.603179 0.983767
O O12 0.173804 0.532092 0.065964
O O13 0.295102 0.084660 0.097545
O O14 0.366324 0.115598 0.209137
O O15 0.320438 0.944636 0.444123
O O16 0.023299 0.887403 0.612208
O O17 0.500000 0.013207 0.750000
#
# Coordination Sequence:
#
# PCOD9300970 Si02
#       8
#     8   8   8   8   8   8   8   8
#     4   9  18  35  59  86 114 143 183 234 284 341
#     4   9  18  35  59  86 114 144 182 232 288 340
#     4  11  22  37  54  75 111 151 188 234 278 327
#     4  11  23  36  55  80 112 150 187 231 281 329
#     4  11  20  35  58  85 109 142 189 233 273 331
#     4  11  21  34  57  80 104 144 195 232 275 324
#     4  11  20  35  58  85 111 142 185 236 276 330
#     4  11  22  37  52  77 111 149 188 232 281 328
#
# _framework density 19.500615
#
# number of rings (size 3 to 8) (size 9 to 14) (size 15 to 20)
#    0.000    1.500    1.250    6.000    0.000    4.000 
#    0.000    4.375    0.000    0.000    0.000    0.000 
#    0.000    0.000    0.000    0.000    0.000    0.000 
#
# Total GULP energy -178514.887773 kJ/mol
# GULP energy per Si atom -5578.590243 kJ/mol
# Density = 1.945623 g / cm^3
# Si number density = 19.500615 Si / 1000 Ang^3
#
#
#
# Elastic Constant Matrix: (Units=GPa)
#
#
# Indices 1 2 3 4 5 6 
#
# 1 25.3193 -4.7923 -0.7631 0.0000 10.1913 0.0000
# 2 -4.7923 56.8303 28.1885 0.0000 9.7971 0.0000
# 3 -0.7631 28.1885 59.6894 0.0000 1.3193 0.0000
# 4 0.0000 0.0000 0.0000 31.3728 0.0000 8.9963
# 5 10.1913 9.7971 1.3193 0.0000 22.0342 0.0000
# 6 0.0000 0.0000 0.0000 8.9963 0.0000 6.8609
#
#
#
# Elastic Compliance Matrix: (Units=1/GPa)
#
#
# Indices 1 2 3 4 5 6 
#
# 1 0.053555 0.011722 -0.004194 0.000000 -0.029731 0.000000
# 2 0.011722 0.027759 -0.012583 0.000000 -0.017010 0.000000
# 3 -0.004194 -0.012583 0.022506 0.000000 0.006187 0.000000
# 4 0.000000 0.000000 0.000000 0.051081 0.000000 -0.066980
# 5 -0.029731 -0.017010 0.006187 0.000000 0.066328 0.000000
# 6 0.000000 0.000000 0.000000 -0.066980 0.000000 0.233578
#
#
# Mechanical properties :
#
#
# Convention : Reuss Voigt Hill
#
# Bulk Modulus (GPa) = 10.67143 20.78946 15.73044
# Shear Modulus (GPa) = 10.07752 20.00064 15.03908
#
# Velocity S-wave (km/s) = 2.27574 3.20604 2.78008
# Velocity P-wave (km/s) = 3.51988 4.93852 4.28827
#
# Compressibility (1/GPa) = 0.09370815
#
# Stress axis : x y z
#
# Youngs Moduli (GPa) = 18.67245 36.02483 44.43353
#
# Poissons Ratio (x) = -0.42227 0.18635
# Poissons Ratio (y) = -0.21887 0.55912
# Poissons Ratio (z) = 0.07831 0.45331
#
# Static dielectric constant tensor:
#      x y z
#    x 1.693630 0.000000 0.016460 
#    y 0.000000 1.664140 0.000000 
#    z 0.016460 0.000000 1.706010 
# 
# From -- ./inp_files/139809.got.cif
#   From: 2010.05.17/outbox.cif.g08.bks.cpg/sg15_70_cif.got.tgz:139809.got - 2010.06.03 18:47:42.
