data_PCOD9300549
_publ_section_title
;
Structure prediction by ZEFSAII (Michael W. Deem and Ramdas Pophale) SiO2 
 PCOD9300549
Probable space group: C 2/C
;
_chemical_formula_sum "Si O2"
_cell_formula_units_Z 64
_cell_length_a 11.766417
_cell_length_b 21.391898
_cell_length_c 13.788351
_cell_angle_alpha 90.000000
_cell_angle_beta 119.465229
_cell_angle_gamma 90.000000
_cell_volume 3021.702267
_symmetry_space_group_name_H-M "C 2/C"
_symmetry_group_IT_number 15
_symmetry_cell_setting 'monoclinic'
loop_
_space_group_symop_operation_xyz
x,y,z
-x,y,1/2-z
-x,-y,-z
x,-y,1/2+z
1/2+x,1/2+y,z
1/2-x,1/2+y,1/2-z
1/2-x,1/2-y,-z
1/2+x,1/2-y,1/2+z
loop_
_atom_site_type_symbol
_atom_site_label
_atom_site_fract_x
_atom_site_fract_y
_atom_site_fract_z
Si Si1 0.811672 0.575950 0.008316
Si Si2 0.595995 0.555314 0.077014
Si Si3 0.885665 0.738428 0.623625
Si Si4 0.863305 0.041555 0.748282
Si Si5 0.452980 0.159328 0.941137
Si Si6 0.738872 0.859953 0.308797
Si Si7 0.403670 0.617882 0.121051
Si Si8 0.640507 0.057864 0.933503
O O1 0.744769 0.555474 0.878409
O O2 0.892787 0.638899 0.019186
O O3 0.891046 0.514881 0.075421
O O4 0.697746 0.578767 0.040586
O O5 0.662969 0.519381 0.196486
O O6 0.503401 0.610666 0.074059
O O7 0.500000 0.500000 0.000000
O O8 0.768011 0.695301 0.614789
O O9 0.858460 0.811488 0.618334
O O10 0.000000 0.725946 0.750000
O O11 0.946783 0.714283 0.547519
O O12 0.861650 0.102255 0.818516
O O13 0.000000 0.035919 0.750000
O O14 0.333367 0.166253 0.816180
O O15 0.532688 0.098026 0.941965
O O16 0.659118 0.914187 0.333346
O O17 0.500000 0.601261 0.250000
O O18 0.280563 0.573678 0.044819
#
# Coordination Sequence:
#
# PCOD9300549 Si02
#       8
#     8   8   8   8   8   8   8   8
#     4  11  21  32  52  77 113 145 171 223 269 326
#     4  12  20  34  50  81 115 137 181 219 271 328
#     4   8  17  36  55  77 104 138 185 225 262 313
#     4  11  19  31  51  77 112 140 175 221 276 320
#     4   9  20  34  53  77 108 143 182 217 267 318
#     4   9  18  33  53  78 108 136 179 226 262 314
#     4  11  22  35  57  81 106 143 178 228 274 312
#     4  11  18  33  53  79 110 136 177 224 267 322
#
# _framework density 21.180115000000001
#
# number of rings (size 3 to 8) (size 9 to 14) (size 15 to 20)
#    0.000    1.750    3.750    2.625    0.000    2.000 
#    0.000    0.625    0.000    0.000    0.000    0.000 
#    0.000    0.000    0.000    0.000    0.000    0.000 
#
# Total GULP energy -178278.850621 kJ/mol
# GULP energy per Si atom -5571.214082 kJ/mol
# Density = 2.113191 g / cm^3
# Si number density = 21.180115 Si / 1000 Ang^3
#
#
#
# Elastic Constant Matrix: (Units=GPa)
#
#
# Indices 1 2 3 4 5 6 
#
# 1 97.9911 24.0329 12.0517 0.0000 -29.2235 0.0000
# 2 24.0329 84.9191 -4.1814 0.0000 -13.1584 0.0000
# 3 12.0517 -4.1814 51.0551 0.0000 -6.0974 0.0000
# 4 0.0000 0.0000 0.0000 10.2220 0.0000 2.6167
# 5 -29.2235 -13.1584 -6.0974 0.0000 32.1688 0.0000
# 6 0.0000 0.0000 0.0000 2.6167 0.0000 27.7984
#
#
#
# Elastic Compliance Matrix: (Units=1/GPa)
#
#
# Indices 1 2 3 4 5 6 
#
# 1 0.014607 -0.002405 -0.002228 0.000000 0.011863 0.000000
# 2 -0.002405 0.013112 0.002068 0.000000 0.003570 0.000000
# 3 -0.002228 0.002068 0.020608 0.000000 0.002728 0.000000
# 4 0.000000 0.000000 0.000000 0.100244 0.000000 -0.009436
# 5 0.011863 0.003570 0.002728 0.000000 0.043841 0.000000
# 6 0.000000 0.000000 0.000000 -0.009436 0.000000 0.036862
#
#
# Mechanical properties :
#
#
# Convention : Reuss Voigt Hill
#
# Bulk Modulus (GPa) = 23.15067 33.08574 28.11821
# Shear Modulus (GPa) = 20.09628 27.50863 23.80245
#
# Velocity S-wave (km/s) = 3.08365 3.60779 3.35597
# Velocity P-wave (km/s) = 4.86134 5.74542 5.32177
#
# Compressibility (1/GPa) = 0.04319529
#
# Stress axis : x y z
#
# Youngs Moduli (GPa) = 68.46066 76.26792 48.52530
#
# Poissons Ratio (x) = 0.18345 0.10812
# Poissons Ratio (y) = 0.16467 -0.10035
# Poissons Ratio (z) = 0.15254 -0.15772
#
# Static dielectric constant tensor:
#      x y z
#    x 1.783550 0.000000 0.010780 
#    y 0.000000 1.768780 0.000000 
#    z 0.010780 0.000000 1.889040 
# 
# From -- ./inp_files/147876.got.cif
#   From: 2010.05.17/outbox.cif.g08.bks.cpg/sg15_74_cif.got.tgz:147876.got - 2010.06.03 18:47:42.
