data_PCOD9300562
_publ_section_title
;
Structure prediction by ZEFSAII (Michael W. Deem and Ramdas Pophale) SiO2 
 PCOD9300562
Probable space group: C 2/C
;
_chemical_formula_sum "Si O2"
_cell_formula_units_Z 52
_cell_length_a 19.011434
_cell_length_b 13.172437
_cell_length_c 14.716739
_cell_angle_alpha 90.000000
_cell_angle_beta 129.736600
_cell_angle_gamma 90.000000
_cell_volume 2834.092717
_symmetry_space_group_name_H-M "C 2/C"
_symmetry_group_IT_number 15
_symmetry_cell_setting 'monoclinic'
loop_
_space_group_symop_operation_xyz
x,y,z
-x,y,1/2-z
-x,-y,-z
x,-y,1/2+z
1/2+x,1/2+y,z
1/2-x,1/2+y,1/2-z
1/2-x,1/2-y,-z
1/2+x,1/2-y,1/2+z
loop_
_atom_site_type_symbol
_atom_site_label
_atom_site_fract_x
_atom_site_fract_y
_atom_site_fract_z
Si Si1 0.894489 0.723746 0.647885
Si Si2 0.235990 0.119841 0.215389
Si Si3 0.000000 0.945002 0.250000
Si Si4 0.853649 0.782864 0.413526
Si Si5 0.683610 0.564128 0.361360
Si Si6 0.218165 0.547201 0.877699
Si Si7 0.028467 0.890159 0.478849
O O1 0.872849 0.721027 0.522675
O O2 0.833671 0.815876 0.636607
O O3 0.866784 0.622045 0.677743
O O4 0.000000 0.747943 0.750000
O O5 0.291640 0.218533 0.293168
O O6 0.223950 0.051481 0.295620
O O7 0.290557 0.053835 0.187183
O O8 0.131636 0.136910 0.095337
O O9 0.025282 0.891190 0.366180
O O10 0.085970 0.012993 0.292841
O O11 0.798482 0.883921 0.398560
O O12 0.950684 0.814976 0.451932
O O13 0.747184 0.522561 0.492895
O O14 0.000000 0.000000 0.500000
#
# Coordination Sequence:
#
# PCOD9300562 Si02
#       7
#     8   8   4   8   8   8   8
#     4  11  20  35  61  88 120 153 200 254 308 357
#     4  12  22  37  63  89 124 159 200 256 309 357
#     4  12  20  34  62  92 120 148 198 254 310 354
#     4  11  22  38  60  93 125 155 202 260 306 359
#     4  11  18  34  59  91 118 147 192 260 306 341
#     4  11  21  36  58  92 119 155 199 250 305 362
#     4  12  22  37  63  94 123 159 205 253 303 363
#
# _framework density 18.348023999999999
#
# number of rings (size 3 to 8) (size 9 to 14) (size 15 to 20)
#    0.000    0.615    8.462    2.769    0.000    0.000 
#    0.000    1.538    1.692    0.000    0.000    0.000 
#    0.000    0.000    0.000    0.000    0.000    0.000 
#
# Total GULP energy -145153.836368 kJ/mol
# GULP energy per Si atom -5582.839860 kJ/mol
# Density = 1.830626 g / cm^3
# Si number density = 18.348024 Si / 1000 Ang^3
#
#
#
# Elastic Constant Matrix: (Units=GPa)
#
#
# Indices 1 2 3 4 5 6 
#
# 1 73.7541 25.8266 38.3263 0.0000 -9.2353 0.0000
# 2 25.8266 31.1908 34.4902 0.0000 2.9043 0.0000
# 3 38.3263 34.4902 117.5400 0.0000 -14.6730 0.0000
# 4 0.0000 0.0000 0.0000 24.5659 0.0000 9.5816
# 5 -9.2353 2.9043 -14.6730 0.0000 29.6617 0.0000
# 6 0.0000 0.0000 0.0000 9.5816 0.0000 15.5549
#
#
#
# Elastic Compliance Matrix: (Units=1/GPa)
#
#
# Indices 1 2 3 4 5 6 
#
# 1 0.020985 -0.017194 -0.000822 0.000000 0.007810 0.000000
# 2 -0.017194 0.066164 -0.016292 0.000000 -0.019891 0.000000
# 3 -0.000822 -0.016292 0.014627 0.000000 0.008575 0.000000
# 4 0.000000 0.000000 0.000000 0.053580 0.000000 -0.033005
# 5 0.007810 -0.019891 0.008575 0.000000 0.042335 0.000000
# 6 0.000000 0.000000 0.000000 -0.033005 0.000000 0.084619
#
#
# Mechanical properties :
#
#
# Convention : Reuss Voigt Hill
#
# Bulk Modulus (GPa) = 30.15607 46.64122 38.39865
# Shear Modulus (GPa) = 13.81300 22.21262 18.01281
#
# Velocity S-wave (km/s) = 2.74676 3.48318 3.13666
# Velocity P-wave (km/s) = 5.15081 6.45385 5.83880
#
# Compressibility (1/GPa) = 0.03316082
#
# Stress axis : x y z
#
# Youngs Moduli (GPa) = 47.65410 15.11385 68.36779
#
# Poissons Ratio (x) = 0.25986 0.05621
# Poissons Ratio (y) = 0.81935 1.11382
# Poissons Ratio (z) = 0.03918 0.24623
#
# Static dielectric constant tensor:
#      x y z
#    x 1.623430 0.000000 -0.016940 
#    y 0.000000 1.631680 0.000000 
#    z -0.016940 0.000000 1.658390 
# 
# From -- ./inp_files/162038.got.cif
#   From: 2010.05.17/outbox.cif.g08.bks.cpg/sg15_82_cif.got.tgz:162038.got - 2010.06.03 18:47:42.
