data_PCOD9300366
_publ_section_title
;
Structure prediction by ZEFSAII (Michael W. Deem and Ramdas Pophale) SiO2 
 PCOD9300366
Probable space group: C 2/C
;
_chemical_formula_sum "Si O2"
_cell_formula_units_Z 60
_cell_length_a 11.998827
_cell_length_b 26.390515
_cell_length_c 18.604310
_cell_angle_alpha 90.000000
_cell_angle_beta 154.551979
_cell_angle_gamma 90.000000
_cell_volume 2531.381394
_symmetry_space_group_name_H-M "C 2/C"
_symmetry_group_IT_number 15
_symmetry_cell_setting 'monoclinic'
loop_
_space_group_symop_operation_xyz
x,y,z
-x,y,1/2-z
-x,-y,-z
x,-y,1/2+z
1/2+x,1/2+y,z
1/2-x,1/2+y,1/2-z
1/2-x,1/2-y,-z
1/2+x,1/2-y,1/2+z
loop_
_atom_site_type_symbol
_atom_site_label
_atom_site_fract_x
_atom_site_fract_y
_atom_site_fract_z
Si Si1 0.315146 0.140957 0.742303
Si Si2 0.000000 0.274099 0.250000
Si Si3 0.574441 0.447588 0.505876
Si Si4 0.732776 0.906982 0.747092
Si Si5 0.784419 0.790493 0.185789
Si Si6 0.196571 0.080812 0.427612
Si Si7 0.748635 0.531770 0.944954
Si Si8 0.252851 0.791412 0.787753
O O1 0.308476 0.183940 0.676005
O O2 0.195063 0.164080 0.744940
O O3 0.167397 0.090678 0.634489
O O4 0.605788 0.123562 0.932067
O O5 0.010070 0.234121 0.188860
O O6 0.500000 0.500000 0.500000
O O7 0.781288 0.419637 0.677506
O O8 0.666775 0.456412 0.478837
O O9 0.483943 0.930821 0.563714
O O10 0.773545 0.848816 0.751941
O O11 0.994845 0.933053 0.872338
O O12 0.811435 0.741093 0.251083
O O13 0.000000 0.793577 0.250000
O O14 0.499227 0.789356 0.984599
O O15 0.000000 0.097578 0.250000
O O16 0.331232 0.027400 0.486441
O O17 0.500000 0.538922 0.750000
#
# Coordination Sequence:
#
# PCOD9300366 Si02
#       8
#     8   4   8   8   8   8   8   8
#     4  11  26  45  80 108 154 203 253 313 397 445
#     4  10  26  50  74 110 148 196 254 322 374 460
#     4  12  26  49  76 113 157 203 255 313 377 470
#     4  12  27  46  77 111 150 204 253 317 383 453
#     4  11  27  49  74 108 151 198 252 322 380 463
#     4  11  25  44  74 110 154 196 254 310 378 465
#     4  11  28  48  77 111 157 201 254 314 383 462
#     4  11  28  46  78 109 151 195 261 314 387 454
#
# _framework density 23.702473999999999
#
# number of rings (size 3 to 8) (size 9 to 14) (size 15 to 20)
#    0.000    0.800    1.333    3.200   14.000    3.200 
#    0.000    0.000    0.000    0.000    0.000    0.000 
#    0.000    0.000    0.000    0.000    0.000    0.000 
#
# Total GULP energy -167794.093089 kJ/mol
# GULP energy per Si atom -5593.136436 kJ/mol
# Density = 2.364853 g / cm^3
# Si number density = 23.702474 Si / 1000 Ang^3
#
#
#
# Elastic Constant Matrix: (Units=GPa)
#
#
# Indices 1 2 3 4 5 6 
#
# 1 169.8701 58.3127 29.2817 0.0079 -11.0391 0.0011
# 2 58.3127 177.1360 58.7625 0.0009 -2.1256 0.0002
# 3 29.2817 58.7625 94.9616 0.0181 -10.8428 -0.0101
# 4 0.0079 0.0009 0.0181 27.4911 0.0104 -8.9214
# 5 -11.0391 -2.1256 -10.8428 0.0104 34.2694 0.0020
# 6 0.0011 0.0002 -0.0101 -8.9214 0.0020 2.6643
#
#
#
# Elastic Compliance Matrix: (Units=1/GPa)
#
#
# Indices 1 2 3 4 5 6 
#
# 1 0.006807 -0.002004 -0.000646 0.000049 0.001864 0.000159
# 2 -0.002004 0.007726 -0.004339 0.000013 -0.001539 0.000027
# 3 -0.000646 -0.004339 0.013861 -0.000070 0.003908 -0.000183
# 4 0.000049 0.000013 -0.000070 -0.419821 0.000203 -1.405761
# 5 0.001864 -0.001539 0.003908 0.000203 0.030922 0.000673
# 6 0.000159 0.000027 -0.000183 -1.405761 0.000673 -4.331821
#
#
# Mechanical properties :
#
#
# Convention : Reuss Voigt Hill
#
# Bulk Modulus (GPa) = 69.36530 81.63128 75.49829
# Shear Modulus (GPa) = -1.06985 32.59236 15.76126
#
# Velocity S-wave (km/s) = -0.67257 3.71221 2.58148
# Velocity P-wave (km/s) = 5.35961 7.27246 6.38804
#
# Compressibility (1/GPa) = 0.01441643
#
# Stress axis : x y z
#
# Youngs Moduli (GPa) = 146.89949 129.43329 72.14633
#
# Poissons Ratio (x) = 0.25943 0.04660
# Poissons Ratio (y) = 0.29443 0.31301
# Poissons Ratio (z) = 0.09489 0.56155
#
# Static dielectric constant tensor:
#      x y z
#    x 1.978680 0.000000 0.000230 
#    y 0.000000 1.884720 0.000010 
#    z 0.000230 0.000010 1.894570 
# 
# From -- ./inp_files/201292.got.cif
#   From: 2010.05.17/outbox.cif.g08.bks.cpg/sg15_101_cif.got.tgz:201292.got - 2010.06.03 18:47:42.
