data_PCOD9300032
_publ_section_title
;
Structure prediction by ZEFSAII (Michael W. Deem and Ramdas Pophale) SiO2 
 PCOD9300032
Probable space group: C 2/C
;
_chemical_formula_sum "Si O2"
_cell_formula_units_Z 52
_cell_length_a 22.991749
_cell_length_b 5.277531
_cell_length_c 22.089417
_cell_angle_alpha 90.000000
_cell_angle_beta 112.037281
_cell_angle_gamma 90.000000
_cell_volume 2484.497924
_symmetry_space_group_name_H-M "C 2/C"
_symmetry_group_IT_number 15
_symmetry_cell_setting 'monoclinic'
loop_
_space_group_symop_operation_xyz
x,y,z
-x,y,1/2-z
-x,-y,-z
x,-y,1/2+z
1/2+x,1/2+y,z
1/2-x,1/2+y,1/2-z
1/2-x,1/2-y,-z
1/2+x,1/2-y,1/2+z
loop_
_atom_site_type_symbol
_atom_site_label
_atom_site_fract_x
_atom_site_fract_y
_atom_site_fract_z
Si Si1 0.562339 0.947613 0.564736
Si Si2 0.504011 0.721714 0.860185
Si Si3 0.500000 0.596185 0.250000
Si Si4 0.397091 0.100931 0.634150
Si Si5 0.412244 0.566395 0.024903
Si Si6 0.255396 0.758284 0.076146
Si Si7 0.821309 0.248890 0.432906
O O1 0.539837 0.925986 0.624988
O O2 0.586759 0.692959 0.540547
O O3 0.500000 0.000000 0.500000
O O4 0.618953 0.147701 0.581568
O O5 0.472709 0.573301 0.793653
O O6 0.523644 0.550165 0.925186
O O7 0.569342 0.828462 0.858307
O O8 0.554539 0.755636 0.302969
O O9 0.399952 0.211297 0.567170
O O10 0.326110 0.168827 0.622739
O O11 0.359618 0.347322 0.007571
O O12 0.226724 0.483489 0.081906
O O13 0.216165 0.987823 0.091650
O O14 0.250000 0.750000 0.000000
#
# Coordination Sequence:
#
# PCOD9300032 Si02
#       7
#     8   8   4   8   8   8   8
#     4  12  22  37  64 101 142 175 214 282 350 416
#     4  11  23  40  66  97 133 173 228 286 337 408
#     4  10  26  42  66  98 124 178 242 278 352 394
#     4  11  23  42  64  98 134 178 227 290 337 409
#     4  11  20  36  61 101 137 173 216 266 352 407
#     4  12  24  38  65  95 145 178 218 275 341 414
#     4  12  24  38  57 103 136 182 221 257 351 415
#
# _framework density 20.929781999999999
#
# number of rings (size 3 to 8) (size 9 to 14) (size 15 to 20)
#    0.000    0.615    6.154    2.308    4.308    0.000 
#    0.000    0.000    0.000    0.000   12.000    0.000 
#    0.000    0.000    0.000    0.000    0.000    0.000 
#
# Total GULP energy -144787.794816 kJ/mol
# GULP energy per Si atom -5568.761339 kJ/mol
# Density = 2.088215 g / cm^3
# Si number density = 20.929782 Si / 1000 Ang^3
#
#
#
# Elastic Constant Matrix: (Units=GPa)
#
#
# Indices 1 2 3 4 5 6 
#
# 1 120.9410 36.1004 29.3603 0.0001 19.7440 0.0001
# 2 36.1004 107.0842 16.1177 0.0001 3.6832 0.0008
# 3 29.3603 16.1177 73.5640 0.0001 10.5373 0.0002
# 4 0.0001 0.0001 0.0001 25.7642 -0.0001 -5.5318
# 5 19.7440 3.6832 10.5373 -0.0001 15.0295 -0.0001
# 6 0.0001 0.0008 0.0002 -5.5318 -0.0001 16.1689
#
#
#
# Elastic Compliance Matrix: (Units=1/GPa)
#
#
# Indices 1 2 3 4 5 6 
#
# 1 0.011942 -0.003244 -0.002137 0.000000 -0.013395 0.000000
# 2 -0.003244 0.010551 -0.001397 0.000000 0.002655 0.000000
# 3 -0.002137 -0.001397 0.015898 0.000000 -0.007997 0.000000
# 4 0.000000 0.000000 0.000000 0.041891 0.000000 0.014332
# 5 -0.013395 0.002655 -0.007997 0.000000 0.089089 0.000001
# 6 0.000000 0.000000 0.000000 0.014332 0.000001 0.066750
#
#
# Mechanical properties :
#
#
# Convention : Reuss Voigt Hill
#
# Bulk Modulus (GPa) = 40.26515 51.63844 45.95179
# Shear Modulus (GPa) = 19.38319 26.05992 22.72156
#
# Velocity S-wave (km/s) = 3.04650 3.53244 3.29843
# Velocity P-wave (km/s) = 5.62626 6.43143 6.04228
#
# Compressibility (1/GPa) = 0.02483537
#
# Stress axis : x y z
#
# Youngs Moduli (GPa) = 83.73589 94.77818 62.90064
#
# Poissons Ratio (x) = 0.30743 0.13441
# Poissons Ratio (y) = 0.27161 0.08790
# Poissons Ratio (z) = 0.17894 0.13245
#
# Static dielectric constant tensor:
#      x y z
#    x 1.872050 0.000000 0.002200 
#    y 0.000000 1.890650 0.000000 
#    z 0.002200 0.000000 1.729860 
# 
# From -- ./inp_files/254095.got.cif
#   From: 2010.05.17/outbox.cif.g08.bks.cpg/sg15_128_cif.got.tgz:254095.got - 2010.06.03 18:47:42.
