data_PCOD9300259
_publ_section_title
;
Structure prediction by ZEFSAII (Michael W. Deem and Ramdas Pophale) SiO2 
 PCOD9300259
Probable space group: C 2/C
;
_chemical_formula_sum "Si O2"
_cell_formula_units_Z 40
_cell_length_a 16.530953
_cell_length_b 12.149676
_cell_length_c 12.940659
_cell_angle_alpha 90.000000
_cell_angle_beta 144.723418
_cell_angle_gamma 90.000000
_cell_volume 1501.028784
_symmetry_space_group_name_H-M "C 2/C"
_symmetry_group_IT_number 15
_symmetry_cell_setting 'monoclinic'
loop_
_space_group_symop_operation_xyz
x,y,z
-x,y,1/2-z
-x,-y,-z
x,-y,1/2+z
1/2+x,1/2+y,z
1/2-x,1/2+y,1/2-z
1/2-x,1/2-y,-z
1/2+x,1/2-y,1/2+z
loop_
_atom_site_type_symbol
_atom_site_label
_atom_site_fract_x
_atom_site_fract_y
_atom_site_fract_z
Si Si1 0.198219 0.211317 0.834182
Si Si2 0.904042 0.145170 0.446187
Si Si3 0.129240 0.510007 0.453385
Si Si4 0.362021 0.438026 0.532905
Si Si5 0.051402 0.277533 0.421155
O O1 0.034574 0.186530 0.654080
O O2 0.250000 0.250000 0.000000
O O3 0.253442 0.306721 0.818646
O O4 0.291282 0.105003 0.902677
O O5 0.948863 0.203597 0.385995
O O6 0.889601 0.017195 0.463567
O O7 0.240049 0.475747 0.481098
O O8 0.086572 0.404981 0.478421
O O9 0.000000 0.552797 0.250000
O O10 0.500000 0.442398 0.750000
O O11 0.327252 0.314148 0.462446
O O12 0.000000 0.288718 0.250000
#
# Coordination Sequence:
#
# PCOD9300259 Si02
#       5
#     8   8   8   8   8
#     4  12  24  45  72 107 145 186 244 299 360 427
#     4  12  25  44  72 107 141 192 240 296 360 438
#     4  11  23  43  73 104 144 185 228 301 362 418
#     4  11  21  44  73 101 139 186 242 292 358 434
#     4  10  26  47  72 104 146 189 239 297 362 433
#
# _framework density 26.648389000000002
#
# number of rings (size 3 to 8) (size 9 to 14) (size 15 to 20)
#    0.000    0.800    4.000    3.000    0.000    7.200 
#    3.600    0.000    0.000    0.000    0.000    0.000 
#    0.000    0.000    0.000    0.000    0.000    0.000 
#
# Total GULP energy -111853.652431 kJ/mol
# GULP energy per Si atom -5592.682622 kJ/mol
# Density = 2.658774 g / cm^3
# Si number density = 26.648389 Si / 1000 Ang^3
#
#
#
# Elastic Constant Matrix: (Units=GPa)
#
#
# Indices 1 2 3 4 5 6 
#
# 1 57.0490 -6.1419 15.1293 0.0000 -14.4638 0.0000
# 2 -6.1419 157.9583 23.2601 0.0000 -19.0900 0.0000
# 3 15.1293 23.2601 128.0020 0.0000 -2.9820 0.0000
# 4 0.0000 0.0000 0.0000 26.8315 0.0000 -4.2395
# 5 -14.4638 -19.0900 -2.9820 0.0000 49.1716 0.0000
# 6 0.0000 0.0000 0.0000 -4.2395 0.0000 35.2694
#
#
#
# Elastic Compliance Matrix: (Units=1/GPa)
#
#
# Indices 1 2 3 4 5 6 
#
# 1 0.020069 0.001945 -0.002574 0.000000 0.006503 0.000000
# 2 0.001945 0.007004 -0.001428 0.000000 0.003205 0.000000
# 3 -0.002574 -0.001428 0.008357 0.000000 -0.000805 0.000000
# 4 0.000000 0.000000 0.000000 0.037991 0.000000 0.004567
# 5 0.006503 0.003205 -0.000805 0.000000 0.023445 0.000000
# 6 0.000000 0.000000 0.000000 0.004567 0.000000 0.028902
#
#
# Mechanical properties :
#
#
# Convention : Reuss Voigt Hill
#
# Bulk Modulus (GPa) = 31.93140 45.27826 38.60483
# Shear Modulus (GPa) = 35.63231 42.97194 39.30213
#
# Velocity S-wave (km/s) = 3.66064 4.02002 3.84453
# Velocity P-wave (km/s) = 5.46586 6.21090 5.85025
#
# Compressibility (1/GPa) = 0.03131714
#
# Stress axis : x y z
#
# Youngs Moduli (GPa) = 49.82689 142.77524 119.65480
#
# Poissons Ratio (x) = -0.27774 0.30801
# Poissons Ratio (y) = -0.09693 0.17087
# Poissons Ratio (z) = 0.12826 0.20388
#
# Static dielectric constant tensor:
#      x y z
#    x 2.121250 0.000000 -0.070310 
#    y 0.000000 2.142280 0.000000 
#    z -0.070310 0.000000 2.139820 
# 
# From -- ./inp_files/161164.got.cif
#   From: 2010.05.17/outbox.cif.g08.bks.cpg/sg15_81_cif.got.tgz:161164.got - 2010.06.03 18:47:42.
