data_PCOD9300849
_publ_section_title
;
Structure prediction by ZEFSAII (Michael W. Deem and Ramdas Pophale) SiO2 
 PCOD9300849
Probable space group: C 2/C
;
_chemical_formula_sum "Si O2"
_cell_formula_units_Z 40
_cell_length_a 16.658102
_cell_length_b 9.943363
_cell_length_c 23.543088
_cell_angle_alpha 90.000000
_cell_angle_beta 26.603308
_cell_angle_gamma 90.000000
_cell_volume 1746.291399
_symmetry_space_group_name_H-M "C 2/C"
_symmetry_group_IT_number 15
_symmetry_cell_setting 'monoclinic'
loop_
_space_group_symop_operation_xyz
x,y,z
-x,y,1/2-z
-x,-y,-z
x,-y,1/2+z
1/2+x,1/2+y,z
1/2-x,1/2+y,1/2-z
1/2-x,1/2-y,-z
1/2+x,1/2-y,1/2+z
loop_
_atom_site_type_symbol
_atom_site_label
_atom_site_fract_x
_atom_site_fract_y
_atom_site_fract_z
Si Si1 0.050271 0.462458 0.150921
Si Si2 0.867090 0.281889 0.713029
Si Si3 0.531589 0.495303 0.136413
Si Si4 0.003614 0.131872 0.458904
Si Si5 0.695287 0.715055 0.199410
O O1 0.000000 0.485460 0.250000
O O2 0.945178 0.575729 0.182195
O O3 0.969462 0.317413 0.186862
O O4 0.257076 0.477393 0.001456
O O5 0.671270 0.273156 0.866107
O O6 0.828666 0.276132 0.669816
O O7 0.990546 0.161715 0.657193
O O8 0.458779 0.567142 0.125553
O O9 0.392153 0.574710 0.265229
O O10 0.820552 0.214035 0.573460
O O11 0.000000 0.000000 0.500000
#
# Coordination Sequence:
#
# PCOD9300849 Si02
#       5
#     8   8   8   8   8
#     4  12  23  43  70  94 135 177 211 264 335 389
#     4  11  23  39  69  99 128 172 220 268 316 391
#     4  11  23  39  63 100 130 166 223 273 317 376
#     4  11  19  41  67  92 131 177 217 253 331 400
#     4  11  22  41  69  93 131 179 216 261 321 399
#
# _framework density 22.905684999999998
#
# number of rings (size 3 to 8) (size 9 to 14) (size 15 to 20)
#    0.000    0.800    6.000    2.400    0.000    0.800 
#    0.000    1.000    0.000    0.000    0.000    0.000 
#    0.000    0.000    0.000    0.000    0.000    0.000 
#
# Total GULP energy -111620.705201 kJ/mol
# GULP energy per Si atom -5581.035260 kJ/mol
# Density = 2.285355 g / cm^3
# Si number density = 22.905685 Si / 1000 Ang^3
#
#
#
# Elastic Constant Matrix: (Units=GPa)
#
#
# Indices 1 2 3 4 5 6 
#
# 1 52.5676 6.6130 -17.8472 0.0001 -6.3691 -0.0002
# 2 6.6130 34.8949 -7.1895 0.0011 -6.7040 0.0001
# 3 -17.8472 -7.1895 89.1156 0.0012 -22.0531 -0.0008
# 4 0.0001 0.0011 0.0012 44.6415 -0.0005 -12.9659
# 5 -6.3691 -6.7040 -22.0531 -0.0005 30.6887 0.0004
# 6 -0.0002 0.0001 -0.0008 -12.9659 0.0004 29.4161
#
#
#
# Elastic Compliance Matrix: (Units=1/GPa)
#
#
# Indices 1 2 3 4 5 6 
#
# 1 0.022570 -0.001110 0.006726 0.000000 0.009275 0.000000
# 2 -0.001110 0.031838 0.004878 -0.000001 0.010230 -0.000001
# 3 0.006726 0.004878 0.016506 0.000000 0.014323 0.000000
# 4 0.000000 -0.000001 0.000000 0.025690 0.000000 0.011323
# 5 0.009275 0.010230 0.014323 0.000000 0.047038 0.000000
# 6 0.000000 -0.000001 0.000000 0.011323 0.000000 0.038986
#
#
# Mechanical properties :
#
#
# Convention : Reuss Voigt Hill
#
# Bulk Modulus (GPa) = 10.88106 15.52563 13.20334
# Shear Modulus (GPa) = 26.00461 33.94937 29.97699
#
# Velocity S-wave (km/s) = 3.37306 3.85403 3.62154
# Velocity P-wave (km/s) = 4.46439 5.15728 4.82329
#
# Compressibility (1/GPa) = 0.09190284
#
# Stress axis : x y z
#
# Youngs Moduli (GPa) = 44.30672 31.40884 60.58268
#
# Poissons Ratio (x) = 0.03485 -0.40747
# Poissons Ratio (y) = 0.04916 -0.29552
# Poissons Ratio (z) = -0.29800 -0.15321
#
# Static dielectric constant tensor:
#      x y z
#    x 2.128550 0.000000 0.371570 
#    y 0.000000 2.141740 0.000000 
#    z 0.371570 0.000000 2.374210 
# 
# From -- ./inp_files/167083.got.cif
#   From: 2010.05.17/outbox.cif.g08.bks.cpg/sg15_84_cif.got.tgz:167083.got - 2010.06.03 18:47:42.
