data_PCOD9300531
_publ_section_title
;
Structure prediction by ZEFSAII (Michael W. Deem and Ramdas Pophale) SiO2 
 PCOD9300531
Probable space group: C 2/C
;
_chemical_formula_sum "Si O2"
_cell_formula_units_Z 32
_cell_length_a 8.231084
_cell_length_b 13.478325
_cell_length_c 19.904501
_cell_angle_alpha 90.000000
_cell_angle_beta 35.827295
_cell_angle_gamma 90.000000
_cell_volume 1292.573999
_symmetry_space_group_name_H-M "C 2/C"
_symmetry_group_IT_number 15
_symmetry_cell_setting 'monoclinic'
loop_
_space_group_symop_operation_xyz
x,y,z
-x,y,1/2-z
-x,-y,-z
x,-y,1/2+z
1/2+x,1/2+y,z
1/2-x,1/2+y,1/2-z
1/2-x,1/2-y,-z
1/2+x,1/2-y,1/2+z
loop_
_atom_site_type_symbol
_atom_site_label
_atom_site_fract_x
_atom_site_fract_y
_atom_site_fract_z
Si Si1 0.903797 0.834119 0.591023
Si Si2 0.776927 0.625478 0.698807
Si Si3 0.077803 0.228204 0.899733
Si Si4 0.649869 0.089821 0.299314
O O1 0.894606 0.721195 0.620917
O O2 0.617827 0.865181 0.649574
O O3 0.895733 0.901763 0.660733
O O4 0.118362 0.826640 0.457171
O O5 0.500000 0.601036 0.750000
O O6 0.693864 0.661375 0.800964
O O7 0.925379 0.520404 0.653846
O O8 0.201240 0.337247 0.844709
O O9 0.750000 0.250000 0.000000
#
# Coordination Sequence:
#
# PCOD9300531 Si02
#       4
#     8   8   8   8
#     4   9  17  37  50  74 106 131 174 214 248 304
#     4  11  18  31  55  76 104 138 168 209 259 301
#     4   9  16  33  53  74 104 134 170 213 251 299
#     4   9  18  30  55  79  98 137 172 207 257 302
#
# _framework density 24.756802
#
# number of rings (size 3 to 8) (size 9 to 14) (size 15 to 20)
#    0.000    2.500    7.500    0.000    0.000    2.000 
#    0.000    0.000   22.000    1.500    0.000    0.000 
#    0.000    0.000    0.000    0.000    0.000    0.000 
#
# Total GULP energy -89270.442354 kJ/mol
# GULP energy per Si atom -5579.402647 kJ/mol
# Density = 2.470045 g / cm^3
# Si number density = 24.756802 Si / 1000 Ang^3
#
#
#
# Elastic Constant Matrix: (Units=GPa)
#
#
# Indices 1 2 3 4 5 6 
#
# 1 75.7416 23.0683 21.5232 -0.0037 -1.8076 0.0042
# 2 23.0683 144.7363 15.3024 -0.0028 5.4886 0.0047
# 3 21.5232 15.3024 94.8674 0.0031 29.6542 -0.0055
# 4 -0.0037 -0.0028 0.0031 -10.3961 0.0014 16.3702
# 5 -1.8076 5.4886 29.6542 0.0014 35.3329 0.0006
# 6 0.0042 0.0047 -0.0055 16.3702 0.0006 -0.0576
#
#
#
# Elastic Compliance Matrix: (Units=1/GPa)
#
#
# Indices 1 2 3 4 5 6 
#
# 1 0.015314 -0.002135 -0.004716 -0.000005 0.005073 0.000000
# 2 -0.002135 0.007327 -0.000417 -0.000002 -0.000897 0.000000
# 3 -0.004716 -0.000417 0.015906 0.000007 -0.013526 0.000002
# 4 -0.000005 -0.000002 0.000007 0.000215 -0.000007 0.061223
# 5 0.005073 -0.000897 -0.013526 -0.000007 0.040054 -0.000004
# 6 0.000000 0.000000 0.000002 0.061223 -0.000004 0.038881
#
#
# Mechanical properties :
#
#
# Convention : Reuss Voigt Hill
#
# Bulk Modulus (GPa) = 41.64446 48.34812 44.99629
# Shear Modulus (GPa) = 35.65399 22.00594 28.82996
#
# Velocity S-wave (km/s) = 3.79907 2.98465 3.41622
# Velocity P-wave (km/s) = 6.00848 5.60795 5.81167
#
# Compressibility (1/GPa) = 0.02401280
#
# Stress axis : x y z
#
# Youngs Moduli (GPa) = 65.29963 136.47295 62.86790
#
# Poissons Ratio (x) = 0.29131 0.29647
# Poissons Ratio (y) = 0.13939 0.02623
# Poissons Ratio (z) = 0.30794 0.05693
#
# Static dielectric constant tensor:
#      x y z
#    x 1.887140 -0.000020 0.034950 
#    y -0.000020 1.892080 0.000010 
#    z 0.034950 0.000010 2.026400 
# 
# From -- ./inp_files/140978.got.cif
#   From: 2010.05.17/outbox.cif.g08.bks.cpg/sg15_71_cif.got.tgz:140978.got - 2010.06.03 18:47:42.
