data_PCOD9300195
_publ_section_title
;
Structure prediction by ZEFSAII (Michael W. Deem and Ramdas Pophale) SiO2 
 PCOD9300195
Probable space group: C 2/C
;
_chemical_formula_sum "Si O2"
_cell_formula_units_Z 48
_cell_length_a 8.727504
_cell_length_b 11.389221
_cell_length_c 20.223959
_cell_angle_alpha 90.000000
_cell_angle_beta 78.643480
_cell_angle_gamma 90.000000
_cell_volume 1970.891917
_symmetry_space_group_name_H-M "C 2/C"
_symmetry_group_IT_number 15
_symmetry_cell_setting 'monoclinic'
loop_
_space_group_symop_operation_xyz
x,y,z
-x,y,1/2-z
-x,-y,-z
x,-y,1/2+z
1/2+x,1/2+y,z
1/2-x,1/2+y,1/2-z
1/2-x,1/2-y,-z
1/2+x,1/2-y,1/2+z
loop_
_atom_site_type_symbol
_atom_site_label
_atom_site_fract_x
_atom_site_fract_y
_atom_site_fract_z
Si Si1 0.500000 0.798616 0.750000
Si Si2 0.019923 0.704770 0.647740
Si Si3 0.500000 0.590235 0.250000
Si Si4 0.788681 0.729258 0.389228
Si Si5 0.633022 0.535688 0.572783
Si Si6 0.305011 0.995654 0.695530
Si Si7 0.278052 0.469593 0.077674
O O1 0.620000 0.739627 0.687688
O O2 0.395761 0.880344 0.711094
O O3 0.049691 0.818668 0.689045
O O4 0.896313 0.747854 0.603308
O O5 0.918075 0.605897 0.694404
O O6 0.173706 0.639309 0.609569
O O7 0.351795 0.509790 0.247496
O O8 0.847436 0.823506 0.436939
O O9 0.811572 0.592119 0.400781
O O10 0.741661 0.502268 0.625671
O O11 0.688146 0.467445 0.503421
O O12 0.447900 0.521076 0.596790
#
# Coordination Sequence:
#
# PCOD9300195 Si02
#       7
#     4   8   4   8   8   8   8
#     4  12  23  45  66 102 140 176 233 285 342 406
#     4  11  25  40  71 100 134 186 226 279 355 402
#     4  12  25  43  66 102 138 178 223 285 350 404
#     4  11  24  45  68 102 136 185 224 285 343 410
#     4  10  26  46  70 104 135 186 227 286 349 402
#     4  11  25  44  68  99 140 177 227 287 337 413
#     4  11  24  48  70 101 143 174 237 285 335 421
#
# _framework density 24.354457
#
# number of rings (size 3 to 8) (size 9 to 14) (size 15 to 20)
#    0.000    1.000    3.333    2.000    2.333    5.333 
#    3.000    2.500    0.000    0.000    0.000    0.000 
#    0.000    0.000    0.000    0.000    0.000    0.000 
#
# Total GULP energy -134240.355071 kJ/mol
# GULP energy per Si atom -5593.348128 kJ/mol
# Density = 2.429903 g / cm^3
# Si number density = 24.354457 Si / 1000 Ang^3
#
#
#
# Elastic Constant Matrix: (Units=GPa)
#
#
# Indices 1 2 3 4 5 6 
#
# 1 118.6644 9.2775 51.2981 0.0000 -6.6257 0.0000
# 2 9.2775 61.4336 17.1127 0.0000 -7.6379 0.0000
# 3 51.2981 17.1127 102.8755 0.0000 -5.9024 0.0000
# 4 0.0000 0.0000 0.0000 35.9219 0.0000 -4.2333
# 5 -6.6257 -7.6379 -5.9024 0.0000 47.1158 0.0000
# 6 0.0000 0.0000 0.0000 -4.2333 0.0000 41.3176
#
#
#
# Elastic Compliance Matrix: (Units=1/GPa)
#
#
# Indices 1 2 3 4 5 6 
#
# 1 0.010777 -0.000041 -0.005318 0.000000 0.000843 0.000000
# 2 -0.000041 0.017349 -0.002724 0.000000 0.002465 0.000000
# 3 -0.005318 -0.002724 0.012850 0.000000 0.000420 0.000000
# 4 0.000000 0.000000 0.000000 0.028178 0.000000 0.002887
# 5 0.000843 0.002465 0.000420 0.000000 0.021795 0.000000
# 6 0.000000 0.000000 0.000000 0.002887 0.000000 0.024499
#
#
# Mechanical properties :
#
#
# Convention : Reuss Voigt Hill
#
# Bulk Modulus (GPa) = 40.30906 48.70557 44.50732
# Shear Modulus (GPa) = 35.74384 38.55672 37.15028
#
# Velocity S-wave (km/s) = 3.83515 3.98320 3.90987
# Velocity P-wave (km/s) = 6.01649 6.41845 6.22072
#
# Compressibility (1/GPa) = 0.02480832
#
# Stress axis : x y z
#
# Youngs Moduli (GPa) = 92.79420 57.63936 77.82273
#
# Poissons Ratio (x) = 0.00238 0.41390
# Poissons Ratio (y) = 0.00382 0.21198
# Poissons Ratio (z) = 0.49352 0.15701
#
# Static dielectric constant tensor:
#      x y z
#    x 1.907380 0.000000 -0.022990 
#    y 0.000000 1.945110 0.000000 
#    z -0.022990 0.000000 2.000890 
# 
# From -- ./inp_files/263287.got.cif
#   From: 2010.05.17/outbox.cif.g08.bks.cpg/sg15_132_cif.got.tgz:263287.got - 2010.06.03 18:47:42.
