data_PCOD9300139
_publ_section_title
;
Structure prediction by ZEFSAII (Michael W. Deem and Ramdas Pophale) SiO2 
 PCOD9300139
Probable space group: C 2/C
;
_chemical_formula_sum "Si O2"
_cell_formula_units_Z 40
_cell_length_a 21.276715
_cell_length_b 6.144635
_cell_length_c 19.103127
_cell_angle_alpha 90.000000
_cell_angle_beta 45.176399
_cell_angle_gamma 90.000000
_cell_volume 1771.426367
_symmetry_space_group_name_H-M "C 2/C"
_symmetry_group_IT_number 15
_symmetry_cell_setting 'monoclinic'
loop_
_space_group_symop_operation_xyz
x,y,z
-x,y,1/2-z
-x,-y,-z
x,-y,1/2+z
1/2+x,1/2+y,z
1/2-x,1/2+y,1/2-z
1/2-x,1/2-y,-z
1/2+x,1/2-y,1/2+z
loop_
_atom_site_type_symbol
_atom_site_label
_atom_site_fract_x
_atom_site_fract_y
_atom_site_fract_z
Si Si1 0.161882 0.616858 0.561471
Si Si2 0.207168 0.701912 0.141155
Si Si3 0.105391 0.623875 0.982442
Si Si4 0.075321 0.452515 0.342895
Si Si5 0.571619 0.578762 0.238951
O O1 0.250000 0.750000 0.500000
O O2 0.179299 0.390772 0.587431
O O3 0.139084 0.586185 0.498920
O O4 0.092157 0.743858 0.662703
O O5 0.313360 0.710775 0.067469
O O6 0.159315 0.548945 0.235843
O O7 0.158214 0.934102 0.186493
O O8 0.096149 0.592647 0.907336
O O9 0.005412 0.631054 0.093095
O O10 0.051074 0.224408 0.323567
O O11 0.500000 0.438668 0.250000
#
# Coordination Sequence:
#
# PCOD9300139 Si02
#       5
#     8   8   8   8   8
#     4  11  23  42  65  98 130 173 222 274 327 392
#     4  11  26  40  72  97 129 178 224 273 329 399
#     4  11  23  46  66  94 138 173 222 274 335 397
#     4  10  26  45  63  98 137 174 218 282 330 396
#     4  11  23  41  66  94 133 174 222 274 328 388
#
# _framework density 22.580670999999999
#
# number of rings (size 3 to 8) (size 9 to 14) (size 15 to 20)
#    0.000    1.200    4.000    0.600    5.600    0.000 
#    0.000    2.000    0.000    0.000    0.000    0.000 
#    0.000    0.000    0.000    0.000    0.000    0.000 
#
# Total GULP energy -111482.994952 kJ/mol
# GULP energy per Si atom -5574.149748 kJ/mol
# Density = 2.252928 g / cm^3
# Si number density = 22.580671 Si / 1000 Ang^3
#
#
#
# Elastic Constant Matrix: (Units=GPa)
#
#
# Indices 1 2 3 4 5 6 
#
# 1 116.9292 10.2719 33.4124 0.0003 16.3318 0.0025
# 2 10.2719 45.7220 16.1505 -0.0057 5.2810 0.0146
# 3 33.4124 16.1505 88.6575 0.0007 0.2160 -0.0048
# 4 0.0003 -0.0057 0.0007 28.0530 0.0011 -11.6350
# 5 16.3318 5.2810 0.2160 0.0011 53.1321 -0.0015
# 6 0.0025 0.0146 -0.0048 -11.6350 -0.0015 13.3937
#
#
#
# Elastic Compliance Matrix: (Units=1/GPa)
#
#
# Indices 1 2 3 4 5 6 
#
# 1 0.010080 -0.000616 -0.003679 -0.000002 -0.003022 -0.000005
# 2 -0.000616 0.023699 -0.004080 -0.000010 -0.002150 -0.000036
# 3 -0.003679 -0.004080 0.013406 0.000005 0.001482 0.000014
# 4 -0.000002 -0.000010 0.000005 0.055724 0.000002 0.048407
# 5 -0.003022 -0.002150 0.001482 0.000002 0.019958 0.000007
# 6 -0.000005 -0.000036 0.000014 0.048407 0.000007 0.116713
#
#
# Mechanical properties :
#
#
# Convention : Reuss Voigt Hill
#
# Bulk Modulus (GPa) = 32.85739 41.21984 37.03861
# Shear Modulus (GPa) = 18.76363 31.68067 25.22215
#
# Velocity S-wave (km/s) = 2.88576 3.74973 3.34575
# Velocity P-wave (km/s) = 5.06816 6.08616 5.60034
#
# Compressibility (1/GPa) = 0.03043456
#
# Stress axis : x y z
#
# Youngs Moduli (GPa) = 99.20906 42.19566 74.59595
#
# Poissons Ratio (x) = 0.02599 0.27445
# Poissons Ratio (y) = 0.06110 0.30434
# Poissons Ratio (z) = 0.36501 0.17215
#
# Static dielectric constant tensor:
#      x y z
#    x 1.911650 -0.000030 -0.109020 
#    y -0.000030 1.928210 0.000010 
#    z -0.109020 0.000010 1.906350 
# 
# From -- ./inp_files/254197.got.cif
#   From: 2010.05.17/outbox.cif.g08.bks.cpg/sg15_128_cif.got.tgz:254197.got - 2010.06.03 18:47:42.
