data_PCOD9300985
_publ_section_title
;
Structure prediction by ZEFSAII (Michael W. Deem and Ramdas Pophale) SiO2 
 PCOD9300985
Probable space group: C 2/C
;
_chemical_formula_sum "Si O2"
_cell_formula_units_Z 44
_cell_length_a 9.578462
_cell_length_b 20.475737
_cell_length_c 12.137394
_cell_angle_alpha 90.000000
_cell_angle_beta 68.703462
_cell_angle_gamma 90.000000
_cell_volume 2217.905357
_symmetry_space_group_name_H-M "C 2/C"
_symmetry_group_IT_number 15
_symmetry_cell_setting 'monoclinic'
loop_
_space_group_symop_operation_xyz
x,y,z
-x,y,1/2-z
-x,-y,-z
x,-y,1/2+z
1/2+x,1/2+y,z
1/2-x,1/2+y,1/2-z
1/2-x,1/2-y,-z
1/2+x,1/2-y,1/2+z
loop_
_atom_site_type_symbol
_atom_site_label
_atom_site_fract_x
_atom_site_fract_y
_atom_site_fract_z
Si Si1 0.500000 0.637309 0.750000
Si Si2 0.753936 0.242610 0.868810
Si Si3 0.805327 0.148854 0.404752
Si Si4 0.827382 0.613565 0.283613
Si Si5 0.065033 0.290918 0.126751
Si Si6 0.039960 0.924386 0.996405
O O1 0.353472 0.683468 0.795051
O O2 0.491151 0.599278 0.869263
O O3 0.823125 0.308532 0.801401
O O4 0.580139 0.233072 0.894507
O O5 0.750000 0.250000 0.000000
O O6 0.747690 0.107304 0.316739
O O7 0.853499 0.223471 0.359243
O O8 0.669222 0.163499 0.525671
O O9 0.937721 0.115531 0.437244
O O10 0.711492 0.585918 0.407434
O O11 0.000000 0.591269 0.250000
O O12 0.000000 0.327840 0.250000
O O13 0.000000 0.000000 0.000000
#
# Coordination Sequence:
#
# PCOD9300985 Si02
#       6
#     4   8   8   8   8   8
#     4  12  26  42  72 106 144 182 240 296 362 418
#     4  12  21  37  63 106 146 171 220 294 363 416
#     4  11  23  40  67  98 138 183 227 280 349 416
#     4  12  24  43  71 105 138 182 228 289 362 419
#     4  11  20  35  62 101 137 170 216 281 352 414
#     4  12  28  49  71  98 140 198 243 283 339 427
#
# _framework density 19.838539000000001
#
# number of rings (size 3 to 8) (size 9 to 14) (size 15 to 20)
#    0.000    0.364    6.364    2.727    5.091    0.000 
#    0.000    3.636    0.000    0.000    0.000    0.000 
#    0.000    0.000    0.000    0.000    0.000    0.000 
#
# Total GULP energy -122821.582730 kJ/mol
# GULP energy per Si atom -5582.799215 kJ/mol
# Density = 1.979339 g / cm^3
# Si number density = 19.838539 Si / 1000 Ang^3
#
#
#
# Elastic Constant Matrix: (Units=GPa)
#
#
# Indices 1 2 3 4 5 6 
#
# 1 123.4898 13.6319 60.9206 0.0000 -16.6482 0.0000
# 2 13.6319 82.0850 31.5586 0.0000 -11.3656 0.0000
# 3 60.9206 31.5586 162.1585 0.0000 -13.0986 0.0000
# 4 0.0000 0.0000 0.0000 14.1153 0.0000 6.1184
# 5 -16.6482 -11.3656 -13.0986 0.0000 42.6009 0.0000
# 6 0.0000 0.0000 0.0000 6.1184 0.0000 9.6656
#
#
#
# Elastic Compliance Matrix: (Units=1/GPa)
#
#
# Indices 1 2 3 4 5 6 
#
# 1 0.010279 0.000099 -0.003645 0.000000 0.002923 0.000000
# 2 0.000099 0.013501 -0.002431 0.000000 0.002893 0.000000
# 3 -0.003645 -0.002431 0.008042 0.000000 0.000400 0.000000
# 4 0.000000 0.000000 0.000000 0.097634 0.000000 -0.061803
# 5 0.002923 0.002893 0.000400 0.000000 0.025511 0.000000
# 6 0.000000 0.000000 0.000000 -0.061803 0.000000 0.142581
#
#
# Mechanical properties :
#
#
# Convention : Reuss Voigt Hill
#
# Bulk Modulus (GPa) = 50.33225 64.43949 57.38587
# Shear Modulus (GPa) = 15.81654 30.71785 23.26719
#
# Velocity S-wave (km/s) = 2.82665 3.93923 3.42837
# Velocity P-wave (km/s) = 6.00660 7.29675 6.68288
#
# Compressibility (1/GPa) = 0.01986798
#
# Stress axis : x y z
#
# Youngs Moduli (GPa) = 97.28539 74.06689 124.35458
#
# Poissons Ratio (x) = -0.00733 0.45325
# Poissons Ratio (y) = -0.00963 0.30231
# Poissons Ratio (z) = 0.35459 0.18006
#
# Static dielectric constant tensor:
#      x y z
#    x 1.513980 0.000000 0.040220 
#    y 0.000000 0.631970 0.000000 
#    z 0.040220 0.000000 1.725800 
# 
# From -- ./inp_files/78135.got.cif
#   From: 2010.05.17/outbox.cif.g08.bks.cpg/sg15_40_cif.got.tgz:78135.got - 2010.06.03 18:47:42.
