data_PCOD9300264
_publ_section_title
;
Structure prediction by ZEFSAII (Michael W. Deem and Ramdas Pophale) SiO2 
 PCOD9300264
Probable space group: C 2/C
;
_chemical_formula_sum "Si O2"
_cell_formula_units_Z 32
_cell_length_a 18.136950
_cell_length_b 11.329100
_cell_length_c 14.948510
_cell_angle_alpha 90.000000
_cell_angle_beta 153.153359
_cell_angle_gamma 90.000000
_cell_volume 1387.124184
_symmetry_space_group_name_H-M "C 2/C"
_symmetry_group_IT_number 15
_symmetry_cell_setting 'monoclinic'
loop_
_space_group_symop_operation_xyz
x,y,z
-x,y,1/2-z
-x,-y,-z
x,-y,1/2+z
1/2+x,1/2+y,z
1/2-x,1/2+y,1/2-z
1/2-x,1/2-y,-z
1/2+x,1/2-y,1/2+z
loop_
_atom_site_type_symbol
_atom_site_label
_atom_site_fract_x
_atom_site_fract_y
_atom_site_fract_z
Si Si1 0.804261 0.883457 0.041678
Si Si2 0.494101 0.773570 0.350590
Si Si3 0.299792 0.561223 0.197507
Si Si4 0.675305 0.976932 0.236390
O O1 0.000000 0.888238 0.250000
O O2 0.755622 0.973340 0.068538
O O3 0.750000 0.750000 0.000000
O O4 0.725761 0.926599 0.864125
O O5 0.500000 0.771983 0.250000
O O6 0.455233 0.641390 0.340684
O O7 0.657040 0.841751 0.555396
O O8 0.351354 0.857891 0.235727
O O9 0.299585 0.486149 0.288021
O O10 0.500000 0.000000 0.000000
#
# Coordination Sequence:
#
# PCOD9300264 Si02
#       4
#     8   8   8   8
#     4  12  30  49  78 113 163 212 266 328 411 484
#     4  11  22  44  76 102 149 194 256 319 389 460
#     4  11  26  45  77 110 151 199 268 322 406 464
#     4  10  26  47  76 110 153 206 260 324 403 469
#
# _framework density 23.069310999999999
#
# number of rings (size 3 to 8) (size 9 to 14) (size 15 to 20)
#    0.000    1.000    2.500    1.500   14.000    3.000 
#    0.000    0.000    0.000    0.000    0.000    0.000 
#    0.000    0.000    0.000    0.000    0.000    0.000 
#
# Total GULP energy -89469.174679 kJ/mol
# GULP energy per Si atom -5591.823417 kJ/mol
# Density = 2.301680 g / cm^3
# Si number density = 23.069311 Si / 1000 Ang^3
#
#
#
# Elastic Constant Matrix: (Units=GPa)
#
#
# Indices 1 2 3 4 5 6 
#
# 1 167.7118 48.1203 50.6069 0.0000 -26.5300 0.0000
# 2 48.1203 93.6692 55.7379 0.0000 -4.7852 0.0000
# 3 50.6069 55.7379 115.6925 0.0000 -17.2696 0.0000
# 4 0.0000 0.0000 0.0000 43.5454 0.0000 13.8432
# 5 -26.5300 -4.7852 -17.2696 0.0000 42.2298 0.0000
# 6 0.0000 0.0000 0.0000 13.8432 0.0000 49.8582
#
#
#
# Elastic Compliance Matrix: (Units=1/GPa)
#
#
# Indices 1 2 3 4 5 6 
#
# 1 0.007888 -0.003017 -0.001394 0.000000 0.004044 0.000000
# 2 -0.003017 0.016191 -0.006912 0.000000 -0.002887 0.000000
# 3 -0.001394 -0.006912 0.013138 0.000000 0.003714 0.000000
# 4 0.000000 0.000000 0.000000 0.025188 0.000000 -0.006993
# 5 0.004044 -0.002887 0.003714 0.000000 0.027412 0.000000
# 6 0.000000 0.000000 0.000000 -0.006993 0.000000 0.021999
#
#
# Mechanical properties :
#
#
# Convention : Reuss Voigt Hill
#
# Bulk Modulus (GPa) = 68.62107 76.22264 72.42185
# Shear Modulus (GPa) = 35.88935 41.96723 38.92829
#
# Velocity S-wave (km/s) = 3.94854 4.26981 4.11231
# Velocity P-wave (km/s) = 7.11324 7.57765 7.34911
#
# Compressibility (1/GPa) = 0.01457278
#
# Stress axis : x y z
#
# Youngs Moduli (GPa) = 126.76892 61.76274 76.11786
#
# Poissons Ratio (x) = 0.18631 0.10608
# Poissons Ratio (y) = 0.38241 0.52611
# Poissons Ratio (z) = 0.17666 0.42689
#
# Static dielectric constant tensor:
#      x y z
#    x 1.880220 0.000000 0.097620 
#    y 0.000000 1.827270 0.000000 
#    z 0.097620 0.000000 1.700310 
# 
# From -- ./inp_files/160636.got.cif
#   From: 2010.05.17/outbox.cif.g08.bks.cpg/sg15_81_cif.got.tgz:160636.got - 2010.06.03 18:47:42.
