data_PCOD9300841
_publ_section_title
;
Structure prediction by ZEFSAII (Michael W. Deem and Ramdas Pophale) SiO2 
 PCOD9300841
Probable space group: C 2/C
;
_chemical_formula_sum "Si O2"
_cell_formula_units_Z 64
_cell_length_a 7.741543
_cell_length_b 14.115230
_cell_length_c 21.355276
_cell_angle_alpha 90.000000
_cell_angle_beta 87.816587
_cell_angle_gamma 90.000000
_cell_volume 2331.874969
_symmetry_space_group_name_H-M "C 2/C"
_symmetry_group_IT_number 15
_symmetry_cell_setting 'monoclinic'
loop_
_space_group_symop_operation_xyz
x,y,z
-x,y,1/2-z
-x,-y,-z
x,-y,1/2+z
1/2+x,1/2+y,z
1/2-x,1/2+y,1/2-z
1/2-x,1/2-y,-z
1/2+x,1/2-y,1/2+z
loop_
_atom_site_type_symbol
_atom_site_label
_atom_site_fract_x
_atom_site_fract_y
_atom_site_fract_z
Si Si1 0.395205 0.868077 0.663494
Si Si2 0.023813 0.304656 0.457992
Si Si3 0.807847 0.383954 0.245941
Si Si4 0.667569 0.418068 0.113640
Si Si5 0.582522 0.058053 0.054707
Si Si6 0.543554 0.594069 0.409563
Si Si7 0.696064 0.670059 0.883110
Si Si8 0.233235 0.832561 0.788121
O O1 0.466824 0.950455 0.618254
O O2 0.297123 0.782193 0.631614
O O3 0.280767 0.891049 0.725481
O O4 0.578408 0.822642 0.682671
O O5 0.175972 0.357787 0.417836
O O6 0.055664 0.334821 0.528936
O O7 0.023255 0.192911 0.445951
O O8 0.844231 0.344328 0.432326
O O9 0.697213 0.418905 0.188295
O O10 0.731921 0.384519 0.316946
O O11 0.825941 0.271837 0.229336
O O12 0.000000 0.425912 0.250000
O O13 0.617942 0.523466 0.089698
O O14 0.784095 0.044987 0.064563
O O15 0.500000 0.000000 0.000000
O O16 0.505663 0.361838 0.402545
O O17 0.602149 0.620528 0.338009
#
# Coordination Sequence:
#
# PCOD9300841 Si02
#       8
#     8   8   8   8   8   8   8   8
#     4   9  19  38  75 110 151 202 262 337 411 483
#     4  12  26  48  76 112 160 213 270 339 409 492
#     4  11  19  40  73 107 157 204 248 324 406 486
#     4  12  24  44  75 114 159 203 269 325 406 494
#     4  11  25  48  75 113 160 210 284 342 402 493
#     4  11  24  46  76 114 158 215 266 340 416 495
#     4  11  22  42  75 110 151 207 263 322 411 484
#     4   9  17  39  73 110 152 197 263 328 412 504
#
# _framework density 27.445724999999999
#
# number of rings (size 3 to 8) (size 9 to 14) (size 15 to 20)
#    0.000    1.250    3.750    2.250    0.000    2.000 
#    0.000   11.250    2.750    0.000    0.000    0.000 
#    0.000    0.000    0.000    0.000    0.000    0.000 
#
# Total GULP energy -179574.371050 kJ/mol
# GULP energy per Si atom -5611.699095 kJ/mol
# Density = 2.738326 g / cm^3
# Si number density = 27.445725 Si / 1000 Ang^3
#
#
#
# Elastic Constant Matrix: (Units=GPa)
#
#
# Indices 1 2 3 4 5 6 
#
# 1 147.4328 25.3394 29.6970 0.0000 48.6125 0.0000
# 2 25.3394 133.0982 20.3217 0.0000 12.3633 0.0000
# 3 29.6970 20.3217 98.3275 0.0000 13.0972 0.0000
# 4 0.0000 0.0000 0.0000 44.5818 0.0000 16.0557
# 5 48.6125 12.3633 13.0972 0.0000 49.4523 0.0000
# 6 0.0000 0.0000 0.0000 16.0557 0.0000 39.3579
#
#
#
# Elastic Compliance Matrix: (Units=1/GPa)
#
#
# Indices 1 2 3 4 5 6 
#
# 1 0.010433 -0.000835 -0.001700 0.000000 -0.009597 0.000000
# 2 -0.000835 0.007944 -0.001280 0.000000 -0.000826 0.000000
# 3 -0.001700 -0.001280 0.011073 0.000000 -0.000942 0.000000
# 4 0.000000 0.000000 0.000000 0.026294 0.000000 -0.010726
# 5 -0.009597 -0.000826 -0.000942 0.000000 0.030111 0.000000
# 6 0.000000 0.000000 0.000000 -0.010726 0.000000 0.029784
#
#
# Mechanical properties :
#
#
# Convention : Reuss Voigt Hill
#
# Bulk Modulus (GPa) = 45.82734 58.84163 52.33448
# Shear Modulus (GPa) = 38.30156 46.91175 42.60666
#
# Velocity S-wave (km/s) = 3.73974 4.13880 3.94432
# Velocity P-wave (km/s) = 5.94822 6.65773 6.31295
#
# Compressibility (1/GPa) = 0.02182104
#
# Stress axis : x y z
#
# Youngs Moduli (GPa) = 95.84897 125.87522 90.30622
#
# Poissons Ratio (x) = 0.10514 0.15353
# Poissons Ratio (y) = 0.08006 0.11555
# Poissons Ratio (z) = 0.16295 0.16107
#
# Static dielectric constant tensor:
#      x y z
#    x 2.085410 0.000000 -0.030100 
#    y 0.000000 2.267560 0.000000 
#    z -0.030100 0.000000 2.145800 
# 
# From -- ./inp_files/292042.got.cif
#   From: 2010.05.17/outbox.cif.g08.bks.cpg/sg15_147_cif.got.tgz:292042.got - 2010.06.03 18:47:42.
