data_PCOD9300125
_publ_section_title
;
Structure prediction by ZEFSAII (Michael W. Deem and Ramdas Pophale) SiO2 
 PCOD9300125
Probable space group: C 2/C
;
_chemical_formula_sum "Si O2"
_cell_formula_units_Z 44
_cell_length_a 14.267525
_cell_length_b 5.029819
_cell_length_c 29.717655
_cell_angle_alpha 90.000000
_cell_angle_beta 128.729304
_cell_angle_gamma 90.000000
_cell_volume 1663.687190
_symmetry_space_group_name_H-M "C 2/C"
_symmetry_group_IT_number 15
_symmetry_cell_setting 'monoclinic'
loop_
_space_group_symop_operation_xyz
x,y,z
-x,y,1/2-z
-x,-y,-z
x,-y,1/2+z
1/2+x,1/2+y,z
1/2-x,1/2+y,1/2-z
1/2-x,1/2-y,-z
1/2+x,1/2-y,1/2+z
loop_
_atom_site_type_symbol
_atom_site_label
_atom_site_fract_x
_atom_site_fract_y
_atom_site_fract_z
Si Si1 0.750000 0.750000 0.000000
Si Si2 0.705580 0.038779 0.754653
Si Si3 0.617868 0.631846 0.121959
Si Si4 0.946436 0.430969 0.684346
Si Si5 0.477952 0.859155 0.946345
Si Si6 0.384822 0.569643 0.115318
O O1 0.606877 0.830835 0.960910
O O2 0.785222 0.973956 0.050075
O O3 0.710290 0.355140 0.751896
O O4 0.922654 0.438029 0.799873
O O5 0.755581 0.948265 0.818044
O O6 0.510556 0.583671 0.125669
O O7 0.583271 0.430261 0.071460
O O8 0.608539 0.936084 0.105380
O O9 0.868286 0.647393 0.634354
O O10 0.000000 0.494834 0.750000
O O11 0.894755 0.143566 0.658437
O O12 0.500000 0.000000 0.000000
#
# Coordination Sequence:
#
# PCOD9300125 Si02
#       6
#     4   8   8   8   8   8
#     4  10  26  44  74  96 138 194 230 298 358 408
#     4  12  22  40  67  95 126 175 221 270 342 409
#     4  11  22  41  69  95 133 178 231 287 339 423
#     4  12  25  41  65 102 141 173 222 291 350 419
#     4  11  25  43  66 101 136 179 236 290 349 423
#     4  11  23  43  66  97 135 180 232 277 347 427
#
# _framework density 26.447277
#
# number of rings (size 3 to 8) (size 9 to 14) (size 15 to 20)
#    0.000    0.727    3.636    4.364    0.000    9.455 
#    0.000    0.000    0.000    0.000    0.000    0.000 
#    0.000    0.000    0.000    0.000    0.000    0.000 
#
# Total GULP energy -122618.509061 kJ/mol
# GULP energy per Si atom -5573.568594 kJ/mol
# Density = 2.638708 g / cm^3
# Si number density = 26.447277 Si / 1000 Ang^3
#
#
#
# Elastic Constant Matrix: (Units=GPa)
#
#
# Indices 1 2 3 4 5 6 
#
# 1 46.1063 9.5087 10.0617 -0.0001 12.3566 0.0002
# 2 9.5087 85.8186 -6.9744 -0.0005 1.3923 0.0004
# 3 10.0617 -6.9744 77.6161 0.0000 19.0366 0.0000
# 4 -0.0001 -0.0005 0.0000 43.1709 0.0001 -2.5005
# 5 12.3566 1.3923 19.0366 0.0001 55.5589 -0.0002
# 6 0.0002 0.0004 0.0000 -2.5005 -0.0002 22.0826
#
#
#
# Elastic Compliance Matrix: (Units=1/GPa)
#
#
# Indices 1 2 3 4 5 6 
#
# 1 0.023953 -0.002764 -0.002253 0.000000 -0.004486 0.000000
# 2 -0.002764 0.012083 0.001493 0.000000 -0.000200 0.000000
# 3 -0.002253 0.001493 0.014407 0.000000 -0.004473 0.000000
# 4 0.000000 0.000000 0.000000 0.023317 0.000000 0.002640
# 5 -0.004486 -0.000200 -0.004473 0.000000 0.020534 0.000000
# 6 0.000000 0.000000 0.000000 0.002640 0.000000 0.045583
#
#
# Mechanical properties :
#
#
# Convention : Reuss Voigt Hill
#
# Bulk Modulus (GPa) = 23.04438 26.08145 24.56291
# Shear Modulus (GPa) = 30.98050 37.29215 34.13632
#
# Velocity S-wave (km/s) = 3.42629 3.75915 3.59657
# Velocity P-wave (km/s) = 4.93811 5.35954 5.15313
#
# Compressibility (1/GPa) = 0.04339454
#
# Stress axis : x y z
#
# Youngs Moduli (GPa) = 41.74827 82.75846 69.40975
#
# Poissons Ratio (x) = 0.22877 0.15640
# Poissons Ratio (y) = 0.11541 -0.10363
# Poissons Ratio (z) = 0.09407 -0.12357
#
# Static dielectric constant tensor:
#      x y z
#    x 2.339410 0.000000 -0.125080 
#    y 0.000000 1.997470 0.000000 
#    z -0.125080 0.000000 2.042650 
# 
# From -- ./inp_files/317036.got.cif
#   From: 2010.05.17/outbox.cif.g08.bks.cpg/sg15_159_cif.got.tgz:317036.got - 2010.06.03 18:47:42.
