data_PCOD9300963
_publ_section_title
;
Structure prediction by ZEFSAII (Michael W. Deem and Ramdas Pophale) SiO2 
 PCOD9300963
Probable space group: C 2/C
;
_chemical_formula_sum "Si O2"
_cell_formula_units_Z 56
_cell_length_a 17.392664
_cell_length_b 19.073832
_cell_length_c 26.555776
_cell_angle_alpha 90.000000
_cell_angle_beta 161.461901
_cell_angle_gamma 90.000000
_cell_volume 2800.926023
_symmetry_space_group_name_H-M "C 2/C"
_symmetry_group_IT_number 15
_symmetry_cell_setting 'monoclinic'
loop_
_space_group_symop_operation_xyz
x,y,z
-x,y,1/2-z
-x,-y,-z
x,-y,1/2+z
1/2+x,1/2+y,z
1/2-x,1/2+y,1/2-z
1/2-x,1/2-y,-z
1/2+x,1/2-y,1/2+z
loop_
_atom_site_type_symbol
_atom_site_label
_atom_site_fract_x
_atom_site_fract_y
_atom_site_fract_z
Si Si1 0.777554 0.924400 0.429438
Si Si2 0.335619 0.383565 0.364427
Si Si3 0.510900 0.990638 0.884841
Si Si4 0.492786 0.230780 0.619816
Si Si5 0.725652 0.919644 0.920043
Si Si6 0.718008 0.113624 0.082055
Si Si7 0.685933 0.618820 0.242978
O O1 0.500000 0.900050 0.250000
O O2 0.937243 0.892630 0.483689
O O3 0.907480 0.908875 0.563029
O O4 0.773478 0.007362 0.420755
O O5 0.530131 0.378047 0.440487
O O6 0.166266 0.451677 0.250525
O O7 0.167867 0.316192 0.262085
O O8 0.663036 0.947583 0.937053
O O9 0.348128 0.932283 0.810464
O O10 0.649383 0.040274 0.011599
O O11 0.250000 0.250000 0.500000
O O12 0.423512 0.178587 0.531155
O O13 0.643107 0.300707 0.700912
O O14 0.500000 0.886379 0.750000
O O15 0.699155 0.112550 0.130460
O O16 0.000000 0.127564 0.250000
#
# Coordination Sequence:
#
# PCOD9300963 Si02
#       7
#     8   8   8   8   8   8   8
#     4  11  20  34  65  94 129 157 206 262 324 375
#     4  11  22  39  63  95 130 167 212 273 326 381
#     4  11  23  41  65  95 127 173 219 268 325 385
#     4  11  25  42  64  93 129 168 211 266 331 400
#     4  11  20  36  62  99 126 161 216 268 319 379
#     4  11  24  42  64  97 134 168 216 265 329 395
#     4  12  24  41  63  93 131 174 212 267 330 388
#
# _framework density 19.993387999999999
#
# number of rings (size 3 to 8) (size 9 to 14) (size 15 to 20)
#    0.000    0.857    5.714    3.429    2.000    0.571 
#    0.000    0.714    0.000    0.857    0.000    0.000 
#    0.000    0.000    0.000    0.000    0.000    0.000 
#
# Total GULP energy -156090.278054 kJ/mol
# GULP energy per Si atom -5574.652788 kJ/mol
# Density = 1.994788 g / cm^3
# Si number density = 19.993388 Si / 1000 Ang^3
#
#
#
# Elastic Constant Matrix: (Units=GPa)
#
#
# Indices 1 2 3 4 5 6 
#
# 1 88.6552 41.1673 34.3842 0.0229 -3.7947 0.0013
# 2 41.1673 90.6190 17.4188 0.0606 4.1661 -0.0108
# 3 34.3842 17.4188 67.4197 0.0508 -11.7360 -0.0049
# 4 0.0229 0.0606 0.0508 33.5050 -0.0048 10.7622
# 5 -3.7947 4.1661 -11.7360 -0.0048 33.2985 0.0065
# 6 0.0013 -0.0108 -0.0049 10.7622 0.0065 14.2160
#
#
#
# Elastic Compliance Matrix: (Units=1/GPa)
#
#
# Indices 1 2 3 4 5 6 
#
# 1 0.016947 -0.006376 -0.006947 0.000018 0.000281 -0.000022
# 2 -0.006376 0.014239 -0.000920 -0.000032 -0.002832 0.000037
# 3 -0.006947 -0.000920 0.019704 -0.000031 0.006268 0.000028
# 4 0.000018 -0.000032 -0.000031 0.039436 0.000006 -0.029855
# 5 0.000281 -0.002832 0.006268 0.000006 0.032627 -0.000020
# 6 -0.000022 0.000037 0.000028 -0.029855 -0.000020 0.092945
#
#
# Mechanical properties :
#
#
# Convention : Reuss Voigt Hill
#
# Bulk Modulus (GPa) = 44.63480 48.07051 46.35265
# Shear Modulus (GPa) = 19.85298 26.45215 23.15257
#
# Velocity S-wave (km/s) = 3.15457 3.64131 3.40665
# Velocity P-wave (km/s) = 5.97007 6.46330 6.22157
#
# Compressibility (1/GPa) = 0.02240404
#
# Stress axis : x y z
#
# Youngs Moduli (GPa) = 59.00842 70.22971 50.75100
#
# Poissons Ratio (x) = 0.44781 0.35255
# Poissons Ratio (y) = 0.37626 0.04668
# Poissons Ratio (z) = 0.40991 0.06460
#
# Static dielectric constant tensor:
#      x y z
#    x 1.832280 0.000010 -0.029840 
#    y 0.000010 1.702690 -0.000040 
#    z -0.029840 -0.000040 1.797220 
# 
# From -- ./inp_files/299362.got.cif
#   From: 2010.05.17/outbox.cif.g08.bks.cpg/sg15_150_cif.got.tgz:299362.got - 2010.06.03 18:47:42.
