data_PCOD9300324
_publ_section_title
;
Structure prediction by ZEFSAII (Michael W. Deem and Ramdas Pophale) SiO2 
 PCOD9300324
Probable space group: C 2/C
;
_chemical_formula_sum "Si O2"
_cell_formula_units_Z 40
_cell_length_a 24.526503
_cell_length_b 4.912154
_cell_length_c 13.621190
_cell_angle_alpha 90.000000
_cell_angle_beta 74.334185
_cell_angle_gamma 90.000000
_cell_volume 1580.093022
_symmetry_space_group_name_H-M "C 2/C"
_symmetry_group_IT_number 15
_symmetry_cell_setting 'monoclinic'
loop_
_space_group_symop_operation_xyz
x,y,z
-x,y,1/2-z
-x,-y,-z
x,-y,1/2+z
1/2+x,1/2+y,z
1/2-x,1/2+y,1/2-z
1/2-x,1/2-y,-z
1/2+x,1/2-y,1/2+z
loop_
_atom_site_type_symbol
_atom_site_label
_atom_site_fract_x
_atom_site_fract_y
_atom_site_fract_z
Si Si1 0.129411 0.295106 0.610650
Si Si2 0.750000 0.750000 0.500000
Si Si3 0.500000 0.727341 0.250000
Si Si4 0.090036 0.858719 0.321667
Si Si5 0.578945 0.741638 0.045126
Si Si6 0.716401 0.531687 0.306652
O O1 0.192695 0.191782 0.592870
O O2 0.106108 0.360589 0.730735
O O3 0.132045 0.563272 0.542241
O O4 0.092587 0.062908 0.574759
O O5 0.719579 0.617611 0.418177
O O6 0.545478 0.547337 0.287533
O O7 0.532101 0.865004 0.142322
O O8 0.066206 0.756504 0.436726
O O9 0.149841 0.003827 0.314853
O O10 0.750644 0.251870 0.275234
#
# Coordination Sequence:
#
# PCOD9300324 Si02
#       6
#     8   4   4   8   8   8
#     4  11  27  43  74 109 146 192 248 300 369 457
#     4  12  26  46  76 112 152 198 246 302 380 448
#     4  10  26  48  78 110 144 202 256 312 368 454
#     4  11  25  51  74 109 151 197 252 312 376 443
#     4  11  26  48  72 106 147 192 247 312 370 431
#     4  12  29  47  77 114 154 197 246 308 379 451
#
# _framework density 25.314965000000001
#
# number of rings (size 3 to 8) (size 9 to 14) (size 15 to 20)
#    0.000    0.800    4.000    0.600    8.400    8.000 
#    0.000    6.000    0.000    0.000    0.000    0.000 
#    0.000    0.000    0.000    0.000    0.000    0.000 
#
# Total GULP energy -111427.255642 kJ/mol
# GULP energy per Si atom -5571.362782 kJ/mol
# Density = 2.525735 g / cm^3
# Si number density = 25.314965 Si / 1000 Ang^3
#
#
#
# Elastic Constant Matrix: (Units=GPa)
#
#
# Indices 1 2 3 4 5 6 
#
# 1 80.4028 26.3596 7.4687 0.0000 20.4408 0.0000
# 2 26.3596 88.8994 28.1603 0.0000 19.7512 0.0000
# 3 7.4687 28.1603 183.9127 0.0000 5.6116 0.0000
# 4 0.0000 0.0000 0.0000 26.0158 0.0000 11.1765
# 5 20.4408 19.7512 5.6116 0.0000 51.7549 0.0000
# 6 0.0000 0.0000 0.0000 11.1765 0.0000 23.8755
#
#
#
# Elastic Compliance Matrix: (Units=1/GPa)
#
#
# Indices 1 2 3 4 5 6 
#
# 1 0.014686 -0.003368 0.000057 0.000000 -0.004521 0.000000
# 2 -0.003368 0.013648 -0.001841 0.000000 -0.003679 0.000000
# 3 0.000057 -0.001841 0.005715 0.000000 0.000060 0.000000
# 4 0.000000 0.000000 0.000000 0.048114 0.000000 -0.022523
# 5 -0.004521 -0.003679 0.000060 0.000000 0.022505 0.000000
# 6 0.000000 0.000000 0.000000 -0.022523 0.000000 0.052427
#
#
# Mechanical properties :
#
#
# Convention : Reuss Voigt Hill
#
# Bulk Modulus (GPa) = 42.11359 53.02133 47.56746
# Shear Modulus (GPa) = 28.52049 39.74432 34.13240
#
# Velocity S-wave (km/s) = 3.36017 3.96661 3.67592
# Velocity P-wave (km/s) = 5.63261 6.47833 6.07022
#
# Compressibility (1/GPa) = 0.02374531
#
# Stress axis : x y z
#
# Youngs Moduli (GPa) = 68.09370 73.27241 174.97687
#
# Poissons Ratio (x) = 0.24679 -0.01002
# Poissons Ratio (y) = 0.22935 0.32208
# Poissons Ratio (z) = -0.00390 0.13487
#
# Static dielectric constant tensor:
#      x y z
#    x 2.627050 0.000000 -0.472130 
#    y 0.000000 2.000570 0.000000 
#    z -0.472130 0.000000 2.260590 
# 
# From -- ./inp_files/170526.got.cif
#   From: 2010.05.17/outbox.cif.g08.bks.cpg/sg15_86_cif.got.tgz:170526.got - 2010.06.03 18:47:42.
