data_PCOD9300630
_publ_section_title
;
Structure prediction by ZEFSAII (Michael W. Deem and Ramdas Pophale) SiO2 
 PCOD9300630
Probable space group: C 2/C
;
_chemical_formula_sum "Si O2"
_cell_formula_units_Z 40
_cell_length_a 10.321425
_cell_length_b 29.215184
_cell_length_c 7.164168
_cell_angle_alpha 90.000000
_cell_angle_beta 133.956114
_cell_angle_gamma 90.000000
_cell_volume 1555.138700
_symmetry_space_group_name_H-M "C 2/C"
_symmetry_group_IT_number 15
_symmetry_cell_setting 'monoclinic'
loop_
_space_group_symop_operation_xyz
x,y,z
-x,y,1/2-z
-x,-y,-z
x,-y,1/2+z
1/2+x,1/2+y,z
1/2-x,1/2+y,1/2-z
1/2-x,1/2-y,-z
1/2+x,1/2-y,1/2+z
loop_
_atom_site_type_symbol
_atom_site_label
_atom_site_fract_x
_atom_site_fract_y
_atom_site_fract_z
Si Si1 0.250000 0.624176 0.849975
Si Si2 0.459920 0.197165 0.431990
Si Si3 0.040081 0.197165 0.012151
Si Si4 0.459519 0.053387 0.426833
Si Si5 0.459519 0.553387 0.492204
O O1 0.093737 0.663683 0.668333
O O2 0.406263 0.663683 0.980858
O O3 0.405413 0.584373 0.985764
O O4 0.094588 0.584373 0.674939
O O5 0.500000 0.191814 0.250000
O O6 0.500000 0.250000 0.517840
O O7 0.250000 0.186215 0.254617
O O8 0.000000 0.191814 0.750000
O O9 0.500000 0.063703 0.250000
O O10 0.500000 0.000000 0.500000
O O11 0.250000 0.063305 0.255188
O O12 0.500000 0.563703 0.750000
O O13 0.500000 0.500000 0.500000
#
# Coordination Sequence:
#
# PCOD9300630 Si02
#       5
#     8   8   8   8   8
#     4  12  22  33  56  74 116 153 196 231 294 348
#     4  11  19  30  45  72 110 150 190 229 283 348
#     4  11  19  30  45  72 110 150 190 229 283 348
#     4  12  24  41  60  86 118 158 198 247 292 347
#     4  12  24  41  60  86 118 158 198 247 292 347
#
# _framework density 25.721177000000001
#
# number of rings (size 3 to 8) (size 9 to 14) (size 15 to 20)
#    0.000    0.400    8.000    3.600    0.000    0.000 
#    0.000    0.000    0.000    0.000    0.000    0.000 
#    0.000    4.800    0.000    0.400    0.000    0.000 
#
# Total GULP energy -111403.887317 kJ/mol
# GULP energy per Si atom -5570.194366 kJ/mol
# Density = 2.566263 g / cm^3
# Si number density = 25.721177 Si / 1000 Ang^3
#
#
#
# Elastic Constant Matrix: (Units=GPa)
#
#
# Indices 1 2 3 4 5 6 
#
# 1 138.2492 52.8980 119.6674 0.0000 35.2070 0.0000
# 2 52.8980 237.1100 96.0112 0.0000 47.7097 0.0000
# 3 119.6674 96.0112 251.3004 0.0000 89.8977 0.0000
# 4 0.0000 0.0000 0.0000 4.2961 0.0000 34.2096
# 5 35.2070 47.7097 89.8977 0.0000 85.7207 0.0000
# 6 0.0000 0.0000 0.0000 34.2096 0.0000 -26.6172
#
#
#
# Elastic Compliance Matrix: (Units=1/GPa)
#
#
# Indices 1 2 3 4 5 6 
#
# 1 0.012536 -0.000577 -0.006437 0.000000 0.001923 0.000000
# 2 -0.000577 0.005100 -0.001189 0.000000 -0.001354 0.000000
# 3 -0.006437 -0.001189 0.010109 0.000000 -0.007296 0.000000
# 4 0.000000 0.000000 0.000000 0.020720 0.000000 0.026630
# 5 0.001923 -0.001354 -0.007296 0.000000 0.019281 0.000000
# 6 0.000000 0.000000 0.000000 0.026630 0.000000 -0.003344
#
#
# Mechanical properties :
#
#
# Convention : Reuss Voigt Hill
#
# Bulk Modulus (GPa) = 88.19637 129.31251 108.75444
# Shear Modulus (GPa) = 59.10961 36.55212 47.83086
#
# Velocity S-wave (km/s) = 4.79904 3.77382 4.31698
# Velocity P-wave (km/s) = 8.06670 8.32904 8.19892
#
# Compressibility (1/GPa) = 0.01133834
#
# Stress axis : x y z
#
# Youngs Moduli (GPa) = 79.76778 196.06690 98.92275
#
# Poissons Ratio (x) = 0.11317 0.63679
# Poissons Ratio (y) = 0.04604 0.11764
# Poissons Ratio (z) = 0.51348 0.23317
#
# Static dielectric constant tensor:
#      x y z
#    x 2.139540 0.000000 -0.063310 
#    y 0.000000 1.909000 0.000000 
#    z -0.063310 0.000000 2.082320 
# 
# From -- ./inp_files/101014.got.cif
#   From: 2010.05.17/outbox.cif.g08.bks.cpg/sg15_51_cif.got.tgz:101014.got - 2010.06.03 18:47:42.
