data_PCOD9300191
_publ_section_title
;
Structure prediction by ZEFSAII (Michael W. Deem and Ramdas Pophale) SiO2 
 PCOD9300191
Probable space group: C 2/C
;
_chemical_formula_sum "Si O2"
_cell_formula_units_Z 48
_cell_length_a 27.723402
_cell_length_b 11.598308
_cell_length_c 8.819884
_cell_angle_alpha 90.000000
_cell_angle_beta 44.612016
_cell_angle_gamma 90.000000
_cell_volume 1991.719442
_symmetry_space_group_name_H-M "C 2/C"
_symmetry_group_IT_number 15
_symmetry_cell_setting 'monoclinic'
loop_
_space_group_symop_operation_xyz
x,y,z
-x,y,1/2-z
-x,-y,-z
x,-y,1/2+z
1/2+x,1/2+y,z
1/2-x,1/2+y,1/2-z
1/2-x,1/2-y,-z
1/2+x,1/2-y,1/2+z
loop_
_atom_site_type_symbol
_atom_site_label
_atom_site_fract_x
_atom_site_fract_y
_atom_site_fract_z
Si Si1 0.249219 0.459386 0.511031
Si Si2 0.750000 0.750000 0.000000
Si Si3 0.500000 0.969399 0.250000
Si Si4 0.352747 0.671708 0.008380
Si Si5 0.905255 0.608032 0.223827
Si Si6 0.951032 0.967773 0.744662
Si Si7 0.811904 0.857791 0.062182
O O1 0.293633 0.395416 0.542194
O O2 0.168975 0.442397 0.663524
O O3 0.285840 0.411807 0.275962
O O4 0.262052 0.594145 0.533190
O O5 0.821557 0.767044 0.723905
O O6 0.701686 0.772079 0.947692
O O7 0.445376 0.044100 0.271854
O O8 0.456067 0.897129 0.468299
O O9 0.385563 0.765363 0.823973
O O10 0.413033 0.578630 0.904468
O O11 0.000000 0.904147 0.750000
O O12 0.000000 0.000000 0.500000
O O13 0.886984 0.891011 0.851068
#
# Coordination Sequence:
#
# PCOD9300191 Si02
#       7
#     8   4   4   8   8   8   8
#     4  11  22  45  70  99 134 180 229 308 344 413
#     4  12  24  42  66 110 134 180 232 308 338 410
#     4  10  26  46  68  98 140 188 228 274 370 432
#     4  11  25  44  71 106 139 177 247 289 355 419
#     4  11  23  47  67 100 137 182 232 289 349 435
#     4  11  23  45  67  97 143 188 222 284 353 431
#     4  11  23  41  70 101 136 180 241 283 367 410
#
# _framework density 24.099779999999999
#
# number of rings (size 3 to 8) (size 9 to 14) (size 15 to 20)
#    0.000    1.000    1.667    6.500    1.167    0.000 
#    7.500    0.000    0.000    0.000    0.000    0.000 
#    0.000    0.000    0.000    0.000    0.000    0.000 
#
# Total GULP energy -133730.591083 kJ/mol
# GULP energy per Si atom -5572.107962 kJ/mol
# Density = 2.404493 g / cm^3
# Si number density = 24.099780 Si / 1000 Ang^3
#
#
#
# Elastic Constant Matrix: (Units=GPa)
#
#
# Indices 1 2 3 4 5 6 
#
# 1 139.1889 40.3325 65.7720 0.0000 -11.7009 0.0000
# 2 40.3325 85.2345 44.4656 0.0000 -2.5415 0.0000
# 3 65.7720 44.4656 190.0685 0.0000 -1.9915 0.0000
# 4 0.0000 0.0000 0.0000 40.9981 0.0000 -0.1649
# 5 -11.7009 -2.5415 -1.9915 0.0000 55.8667 0.0000
# 6 0.0000 0.0000 0.0000 -0.1649 0.0000 32.1853
#
#
#
# Elastic Compliance Matrix: (Units=1/GPa)
#
#
# Indices 1 2 3 4 5 6 
#
# 1 0.009416 -0.003090 -0.002517 0.000000 0.001742 0.000000
# 2 -0.003090 0.014391 -0.002298 0.000000 -0.000075 0.000000
# 3 -0.002517 -0.002298 0.006666 0.000000 -0.000394 0.000000
# 4 0.000000 0.000000 0.000000 0.024392 0.000000 0.000125
# 5 0.001742 -0.000075 -0.000394 0.000000 0.018247 0.000000
# 6 0.000000 0.000000 0.000000 0.000125 0.000000 0.031071
#
#
# Mechanical properties :
#
#
# Convention : Reuss Voigt Hill
#
# Bulk Modulus (GPa) = 68.20486 79.51467 73.85976
# Shear Modulus (GPa) = 40.03801 43.40479 41.72140
#
# Velocity S-wave (km/s) = 4.08038 4.24848 4.16528
# Velocity P-wave (km/s) = 7.11068 7.55855 7.33803
#
# Compressibility (1/GPa) = 0.01466171
#
# Stress axis : x y z
#
# Youngs Moduli (GPa) = 106.20428 69.48585 150.02008
#
# Poissons Ratio (x) = 0.21474 0.37761
# Poissons Ratio (y) = 0.32822 0.34477
# Poissons Ratio (z) = 0.26732 0.15969
#
# Static dielectric constant tensor:
#      x y z
#    x 1.955950 0.000000 -0.013710 
#    y 0.000000 2.148400 0.000000 
#    z -0.013710 0.000000 1.901900 
# 
# From -- ./inp_files/66451.got.cif
#   From: 2010.05.17/outbox.cif.g08.bks.cpg/sg15_34_cif.got.tgz:66451.got - 2010.06.03 18:47:42.
