data_PCOD9300020
_publ_section_title
;
Structure prediction by ZEFSAII (Michael W. Deem and Ramdas Pophale) SiO2 
 PCOD9300020
Probable space group: C 2/C
;
_chemical_formula_sum "Si O2"
_cell_formula_units_Z 40
_cell_length_a 7.581964
_cell_length_b 17.461597
_cell_length_c 11.326363
_cell_angle_alpha 90.000000
_cell_angle_beta 91.657833
_cell_angle_gamma 90.000000
_cell_volume 1498.905769
_symmetry_space_group_name_H-M "C 2/C"
_symmetry_group_IT_number 15
_symmetry_cell_setting 'monoclinic'
loop_
_space_group_symop_operation_xyz
x,y,z
-x,y,1/2-z
-x,-y,-z
x,-y,1/2+z
1/2+x,1/2+y,z
1/2-x,1/2+y,1/2-z
1/2-x,1/2-y,-z
1/2+x,1/2-y,1/2+z
loop_
_atom_site_type_symbol
_atom_site_label
_atom_site_fract_x
_atom_site_fract_y
_atom_site_fract_z
Si Si1 0.174520 0.665882 0.514119
Si Si2 0.145763 0.100549 0.595288
Si Si3 0.000000 0.620668 0.750000
Si Si4 0.139073 0.935765 0.664181
Si Si5 0.178833 0.363568 0.643978
Si Si6 0.500000 0.730190 0.750000
O O1 0.250000 0.750000 0.500000
O O2 0.304199 0.605051 0.454789
O O3 0.118530 0.657481 0.648372
O O4 0.998754 0.651021 0.433552
O O5 0.337801 0.090937 0.663985
O O6 0.186614 0.120527 0.460352
O O7 0.030600 0.169608 0.645352
O O8 0.066529 0.018283 0.626795
O O9 0.302041 0.932183 0.761425
O O10 0.000000 0.894629 0.750000
O O11 0.166135 0.287766 0.727571
#
# Coordination Sequence:
#
# PCOD9300020 Si02
#       6
#     8   8   4   8   8   4
#     4  11  25  48  77 112 152 201 257 320 388 467
#     4  11  27  46  76 111 155 200 259 323 391 458
#     4  10  26  41  75 104 142 200 252 308 380 463
#     4  12  28  49  75 113 156 206 262 326 388 462
#     4  11  26  49  79 109 157 205 259 318 391 468
#     4  12  22  51  71 112 146 202 252 318 390 455
#
# _framework density 26.686135
#
# number of rings (size 3 to 8) (size 9 to 14) (size 15 to 20)
#    0.000    0.800    3.000    1.800    7.000    7.200 
#    0.000    0.000    0.000    0.000    0.000    0.000 
#    0.000    0.000    0.000    0.000    0.000    0.000 
#
# Total GULP energy -111562.942092 kJ/mol
# GULP energy per Si atom -5578.147105 kJ/mol
# Density = 2.662540 g / cm^3
# Si number density = 26.686135 Si / 1000 Ang^3
#
#
#
# Elastic Constant Matrix: (Units=GPa)
#
#
# Indices 1 2 3 4 5 6 
#
# 1 91.1311 20.7141 44.6322 0.0000 -8.9940 0.0000
# 2 20.7141 153.5692 91.6585 0.0000 -34.5692 0.0000
# 3 44.6322 91.6585 272.3581 0.0000 -32.1486 0.0000
# 4 0.0000 0.0000 0.0000 12.1228 0.0000 16.5930
# 5 -8.9940 -34.5692 -32.1486 0.0000 75.7391 0.0000
# 6 0.0000 0.0000 0.0000 16.5930 0.0000 20.2640
#
#
#
# Elastic Compliance Matrix: (Units=1/GPa)
#
#
# Indices 1 2 3 4 5 6 
#
# 1 0.011983 -0.000466 -0.001752 0.000000 0.000467 0.000000
# 2 -0.000466 0.008723 -0.002522 0.000000 0.002855 0.000000
# 3 -0.001752 -0.002522 0.004892 0.000000 0.000717 0.000000
# 4 0.000000 0.000000 0.000000 -0.682977 0.000000 0.559250
# 5 0.000467 0.002855 0.000717 0.000000 0.014866 0.000000
# 6 0.000000 0.000000 0.000000 0.559250 0.000000 -0.408588
#
#
# Mechanical properties :
#
#
# Convention : Reuss Voigt Hill
#
# Bulk Modulus (GPa) = 62.04000 92.34089 77.19045
# Shear Modulus (GPa) = -4.82510 45.62875 20.40183
#
# Velocity S-wave (km/s) = -1.34611 4.13949 2.76798
# Velocity P-wave (km/s) = 4.56973 7.58452 6.26129
#
# Compressibility (1/GPa) = 0.01611863
#
# Stress axis : x y z
#
# Youngs Moduli (GPa) = 83.45070 114.64421 204.40713
#
# Poissons Ratio (x) = 0.05338 0.35810
# Poissons Ratio (y) = 0.03886 0.51554
# Poissons Ratio (z) = 0.14620 0.28915
#
# Static dielectric constant tensor:
#      x y z
#    x 2.336610 0.000000 0.125780 
#    y 0.000000 2.035500 0.000000 
#    z 0.125780 0.000000 2.132510 
# 
# From -- ./inp_files/76749.got.cif
#   From: 2010.05.17/outbox.cif.g08.bks.cpg/sg15_39_cif.got.tgz:76749.got - 2010.06.03 18:47:42.
