data_PCOD9300346
_publ_section_title
;
Structure prediction by ZEFSAII (Michael W. Deem and Ramdas Pophale) SiO2 
 PCOD9300346
Probable space group: C 2/C
;
_chemical_formula_sum "Si O2"
_cell_formula_units_Z 56
_cell_length_a 5.012437
_cell_length_b 16.849841
_cell_length_c 30.894664
_cell_angle_alpha 90.000000
_cell_angle_beta 110.015727
_cell_angle_gamma 90.000000
_cell_volume 2451.718590
_symmetry_space_group_name_H-M "C 2/C"
_symmetry_group_IT_number 15
_symmetry_cell_setting 'monoclinic'
loop_
_space_group_symop_operation_xyz
x,y,z
-x,y,1/2-z
-x,-y,-z
x,-y,1/2+z
1/2+x,1/2+y,z
1/2-x,1/2+y,1/2-z
1/2-x,1/2-y,-z
1/2+x,1/2-y,1/2+z
loop_
_atom_site_type_symbol
_atom_site_label
_atom_site_fract_x
_atom_site_fract_y
_atom_site_fract_z
Si Si1 0.375394 0.542957 0.951001
Si Si2 0.624208 0.165839 0.323732
Si Si3 0.188382 0.324679 0.220204
Si Si4 0.059941 0.777371 0.029153
Si Si5 0.727572 0.007518 0.102477
Si Si6 0.283228 0.002646 0.295793
Si Si7 0.749261 0.825805 0.616278
O O1 0.467960 0.631306 0.963760
O O2 0.513450 0.508985 0.914884
O O3 0.036351 0.545729 0.926476
O O4 0.500000 0.500000 0.000000
O O5 0.729205 0.243797 0.302032
O O6 0.389013 0.194154 0.345245
O O7 0.924176 0.147990 0.362746
O O8 0.486261 0.081469 0.299490
O O9 0.500000 0.351658 0.250000
O O10 0.071252 0.413926 0.200691
O O11 0.000000 0.297711 0.250000
O O12 0.197477 0.742742 0.080133
O O13 0.250000 0.750000 0.000000
O O14 0.750000 0.750000 0.000000
O O15 0.794723 0.002569 0.157345
O O16 0.599905 0.095859 0.089608
O O17 0.000000 0.013998 0.250000
#
# Coordination Sequence:
#
# PCOD9300346 Si02
#       7
#     8   8   8   8   8   8   8
#     4  12  25  43  71 105 148 190 243 306 375 456
#     4  11  25  46  73 106 146 197 251 312 383 451
#     4  11  26  45  70 106 145 190 253 321 380 459
#     4  12  25  43  70 104 145 192 242 306 383 457
#     4  11  24  44  70 105 142 195 245 305 376 451
#     4  10  26  49  78 111 156 206 264 324 393 465
#     4  11  24  44  70 103 144 191 246 308 368 460
#
# _framework density 22.841121000000001
#
# number of rings (size 3 to 8) (size 9 to 14) (size 15 to 20)
#    0.000    0.857    0.000    6.429    4.000   10.286 
#    0.000    2.143    0.000    0.000    0.000    0.000 
#    0.000    0.000    0.000    0.000    0.000    0.000 
#
# Total GULP energy -156117.056843 kJ/mol
# GULP energy per Si atom -5575.609173 kJ/mol
# Density = 2.278913 g / cm^3
# Si number density = 22.841121 Si / 1000 Ang^3
#
#
#
# Elastic Constant Matrix: (Units=GPa)
#
#
# Indices 1 2 3 4 5 6 
#
# 1 132.4400 27.4193 41.8965 0.0000 -9.7104 0.0000
# 2 27.4193 201.1942 59.4028 0.0000 -16.0928 0.0000
# 3 41.8965 59.4028 103.4322 0.0000 -4.6176 0.0000
# 4 0.0000 0.0000 0.0000 52.0674 0.0000 -9.3895
# 5 -9.7104 -16.0928 -4.6176 0.0000 49.5963 0.0000
# 6 0.0000 0.0000 0.0000 -9.3895 0.0000 33.0733
#
#
#
# Elastic Compliance Matrix: (Units=1/GPa)
#
#
# Indices 1 2 3 4 5 6 
#
# 1 0.008755 -0.000066 -0.003448 0.000000 0.001372 0.000000
# 2 -0.000066 0.006120 -0.003414 0.000000 0.001655 0.000000
# 3 -0.003448 -0.003414 0.013000 0.000000 -0.000572 0.000000
# 4 0.000000 0.000000 0.000000 0.020242 0.000000 0.005747
# 5 0.001372 0.001655 -0.000572 0.000000 0.020915 0.000000
# 6 0.000000 0.000000 0.000000 0.005747 0.000000 0.031867
#
#
# Mechanical properties :
#
#
# Convention : Reuss Voigt Hill
#
# Bulk Modulus (GPa) = 71.32508 77.16708 74.24608
# Shear Modulus (GPa) = 41.86629 47.50389 44.68509
#
# Velocity S-wave (km/s) = 4.28592 4.56538 4.42786
# Velocity P-wave (km/s) = 7.46904 7.85162 7.66272
#
# Compressibility (1/GPa) = 0.01402031
#
# Stress axis : x y z
#
# Youngs Moduli (GPa) = 114.21558 163.40730 76.92358
#
# Poissons Ratio (x) = 0.01072 0.26520
# Poissons Ratio (y) = 0.00749 0.26263
# Poissons Ratio (z) = 0.39377 0.55790
#
# Static dielectric constant tensor:
#      x y z
#    x 1.850250 0.000000 -0.019210 
#    y 0.000000 1.981880 0.000000 
#    z -0.019210 0.000000 1.905430 
# 
# From -- ./inp_files/305845.got.cif
#   From: 2010.05.17/outbox.cif.g08.bks.cpg/sg15_153_cif.got.tgz:305845.got - 2010.06.03 18:47:42.
