data_PCOD9300303
_publ_section_title
;
Structure prediction by ZEFSAII (Michael W. Deem and Ramdas Pophale) SiO2 
 PCOD9300303
Probable space group: C 2/C
;
_chemical_formula_sum "Si O2"
_cell_formula_units_Z 44
_cell_length_a 11.708899
_cell_length_b 12.275696
_cell_length_c 14.181873
_cell_angle_alpha 90.000000
_cell_angle_beta 100.880977
_cell_angle_gamma 90.000000
_cell_volume 2001.781847
_symmetry_space_group_name_H-M "C 2/C"
_symmetry_group_IT_number 15
_symmetry_cell_setting 'monoclinic'
loop_
_space_group_symop_operation_xyz
x,y,z
-x,y,1/2-z
-x,-y,-z
x,-y,1/2+z
1/2+x,1/2+y,z
1/2-x,1/2+y,1/2-z
1/2-x,1/2-y,-z
1/2+x,1/2-y,1/2+z
loop_
_atom_site_type_symbol
_atom_site_label
_atom_site_fract_x
_atom_site_fract_y
_atom_site_fract_z
Si Si1 0.638719 0.513656 0.518842
Si Si2 0.752500 0.862484 0.809670
Si Si3 0.500000 0.225917 0.250000
Si Si4 0.063356 0.319876 0.156988
Si Si5 0.701258 0.028028 0.123324
Si Si6 0.421531 0.253903 0.447607
O O1 0.500000 0.500000 0.500000
O O2 0.698438 0.430546 0.597900
O O3 0.703711 0.484990 0.433451
O O4 0.658258 0.641081 0.545391
O O5 0.615132 0.843728 0.788631
O O6 0.818671 0.748959 0.811869
O O7 0.775682 0.937277 0.724224
O O8 0.477796 0.278614 0.351475
O O9 0.102161 0.441080 0.133475
O O10 0.000000 0.318496 0.250000
O O11 0.997318 0.265685 0.055759
O O12 0.642722 0.139093 0.077010
#
# Coordination Sequence:
#
# PCOD9300303 Si02
#       6
#     8   8   4   8   8   8
#     4  12  26  46  75 110 151 195 245 315 381 442
#     4  11  27  47  72 109 152 194 253 305 382 443
#     4  10  26  48  74 110 146 206 250 308 364 454
#     4  12  27  48  78 109 150 199 254 313 374 448
#     4  11  28  44  75 106 150 200 248 309 368 457
#     4  11  25  48  75 108 154 192 253 304 378 448
#
# _framework density 21.980418
#
# number of rings (size 3 to 8) (size 9 to 14) (size 15 to 20)
#    0.000    0.727    1.818    3.273   15.273    1.455 
#    0.000    0.000    0.000    0.000    0.000    0.000 
#    0.000    0.000    0.000    0.000    0.000    0.000 
#
# Total GULP energy -122794.546473 kJ/mol
# GULP energy per Si atom -5581.570294 kJ/mol
# Density = 2.193039 g / cm^3
# Si number density = 21.980418 Si / 1000 Ang^3
#
#
#
# Elastic Constant Matrix: (Units=GPa)
#
#
# Indices 1 2 3 4 5 6 
#
# 1 114.8208 39.8518 62.0793 0.0000 -0.9427 0.0000
# 2 39.8518 127.6440 28.1267 0.0000 18.5417 0.0000
# 3 62.0793 28.1267 159.8098 0.0000 -0.5974 0.0000
# 4 0.0000 0.0000 0.0000 36.0985 0.0000 4.0232
# 5 -0.9427 18.5417 -0.5974 0.0000 57.5445 0.0000
# 6 0.0000 0.0000 0.0000 4.0232 0.0000 10.7042
#
#
#
# Elastic Compliance Matrix: (Units=1/GPa)
#
#
# Indices 1 2 3 4 5 6 
#
# 1 0.011989 -0.002997 -0.004126 0.000000 0.001119 0.000000
# 2 -0.002997 0.009322 -0.000488 0.000000 -0.003058 0.000000
# 3 -0.004126 -0.000488 0.007947 0.000000 0.000172 0.000000
# 4 0.000000 0.000000 0.000000 0.028913 0.000000 -0.010867
# 5 0.001119 -0.003058 0.000172 0.000000 0.018383 0.000000
# 6 0.000000 0.000000 0.000000 -0.010867 0.000000 0.097506
#
#
# Mechanical properties :
#
#
# Convention : Reuss Voigt Hill
#
# Bulk Modulus (GPa) = 71.24148 73.59893 72.42021
# Shear Modulus (GPa) = 25.77866 39.01722 32.39794
#
# Velocity S-wave (km/s) = 3.42833 4.21775 3.84336
# Velocity P-wave (km/s) = 6.93924 7.56808 7.26047
#
# Compressibility (1/GPa) = 0.01403677
#
# Stress axis : x y z
#
# Youngs Moduli (GPa) = 83.40950 107.27834 125.83982
#
# Poissons Ratio (x) = 0.32147 0.51917
# Poissons Ratio (y) = 0.24994 0.06141
# Poissons Ratio (z) = 0.34412 0.05235
#
# Static dielectric constant tensor:
#      x y z
#    x 1.805420 0.000000 -0.010400 
#    y 0.000000 1.806480 0.000000 
#    z -0.010400 0.000000 1.733210 
# 
# From -- ./inp_files/142320.got.cif
#   From: 2010.05.17/outbox.cif.g08.bks.cpg/sg15_72_cif.got.tgz:142320.got - 2010.06.03 18:47:42.
