data_PCOD9300739
_publ_section_title
;
Structure prediction by ZEFSAII (Michael W. Deem and Ramdas Pophale) SiO2 
 PCOD9300739
Probable space group: C 2/C
;
_chemical_formula_sum "Si O2"
_cell_formula_units_Z 52
_cell_length_a 20.624028
_cell_length_b 19.821442
_cell_length_c 11.272894
_cell_angle_alpha 90.000000
_cell_angle_beta 25.698446
_cell_angle_gamma 90.000000
_cell_volume 1998.334249
_symmetry_space_group_name_H-M "C 2/C"
_symmetry_group_IT_number 15
_symmetry_cell_setting 'monoclinic'
loop_
_space_group_symop_operation_xyz
x,y,z
-x,y,1/2-z
-x,-y,-z
x,-y,1/2+z
1/2+x,1/2+y,z
1/2-x,1/2+y,1/2-z
1/2-x,1/2-y,-z
1/2+x,1/2-y,1/2+z
loop_
_atom_site_type_symbol
_atom_site_label
_atom_site_fract_x
_atom_site_fract_y
_atom_site_fract_z
Si Si1 0.909939 0.930273 0.042643
Si Si2 0.343170 0.578210 0.063099
Si Si3 0.000000 0.617789 0.250000
Si Si4 0.623150 0.278998 0.444679
Si Si5 0.754550 0.106701 0.474015
Si Si6 0.408384 0.217232 0.605772
Si Si7 0.289724 0.038858 0.436529
O O1 0.834767 0.858094 0.138938
O O2 0.877993 0.952282 0.231938
O O3 0.864266 0.997011 0.046857
O O4 0.081254 0.907749 0.744561
O O5 0.283853 0.605609 0.285246
O O6 0.500000 0.605614 0.750000
O O7 0.215125 0.582091 0.173938
O O8 0.981629 0.666091 0.392685
O O9 0.877865 0.566369 0.402463
O O10 0.537664 0.257220 0.464301
O O11 0.779044 0.247636 0.236909
O O12 0.500000 0.269423 0.750000
O O13 0.681596 0.173029 0.647848
O O14 0.666160 0.038629 0.654202
#
# Coordination Sequence:
#
# PCOD9300739 Si02
#       7
#     8   8   4   8   8   8   8
#     4  11  20  41  74 110 149 192 241 302 371 441
#     4  11  19  36  72 118 148 183 239 295 369 449
#     4  12  30  52  68 100 154 206 236 316 384 448
#     4  12  25  48  81 108 139 197 254 319 368 446
#     4  11  23  41  75 113 150 189 241 313 371 455
#     4  12  29  52  76 106 150 197 262 310 381 440
#     4  11  23  43  69 109 151 195 237 298 380 453
#
# _framework density 26.021674000000001
#
# number of rings (size 3 to 8) (size 9 to 14) (size 15 to 20)
#    0.000    0.615    6.154    2.769    2.154    2.462 
#    1.385    0.000    0.000    0.000    0.000    0.000 
#    0.000    0.000    0.000    0.000    0.000    0.000 
#
# Total GULP energy -145359.301607 kJ/mol
# GULP energy per Si atom -5590.742369 kJ/mol
# Density = 2.596245 g / cm^3
# Si number density = 26.021674 Si / 1000 Ang^3
#
#
#
# Elastic Constant Matrix: (Units=GPa)
#
#
# Indices 1 2 3 4 5 6 
#
# 1 172.0057 30.9701 33.7483 -0.0011 -14.0116 0.0007
# 2 30.9701 90.1094 2.5939 0.0000 -19.1063 0.0013
# 3 33.7483 2.5939 26.3163 -0.0005 -3.0207 0.0028
# 4 -0.0011 0.0000 -0.0005 10.5049 0.0021 -5.4852
# 5 -14.0116 -19.1063 -3.0207 0.0021 36.5464 -0.0009
# 6 0.0007 0.0013 0.0028 -5.4852 -0.0009 41.5409
#
#
#
# Elastic Compliance Matrix: (Units=1/GPa)
#
#
# Indices 1 2 3 4 5 6 
#
# 1 0.008359 -0.002336 -0.010360 0.000001 0.001127 0.000001
# 2 -0.002336 0.013140 0.002409 -0.000002 0.006173 -0.000001
# 3 -0.010360 0.002409 0.051222 -0.000001 0.001521 -0.000003
# 4 0.000001 -0.000002 -0.000001 0.102243 -0.000006 0.013500
# 5 0.001127 0.006173 0.001521 -0.000006 0.031148 0.000000
# 6 0.000001 -0.000001 -0.000003 0.013500 0.000000 0.025855
#
#
# Mechanical properties :
#
#
# Convention : Reuss Voigt Hill
#
# Bulk Modulus (GPa) = 19.17652 47.00624 33.09138
# Shear Modulus (GPa) = 18.52382 32.45971 25.49177
#
# Velocity S-wave (km/s) = 2.67097 3.53570 3.13331
# Velocity P-wave (km/s) = 4.11066 5.89676 5.08278
#
# Compressibility (1/GPa) = 0.05214710
#
# Stress axis : x y z
#
# Youngs Moduli (GPa) = 119.63488 76.10393 19.52287
#
# Poissons Ratio (x) = 0.17775 0.20225
# Poissons Ratio (y) = 0.27942 -0.04702
# Poissons Ratio (z) = 1.23939 -0.18330
#
# Static dielectric constant tensor:
#      x y z
#    x 2.095260 0.000000 -0.063960 
#    y 0.000000 2.066350 0.000000 
#    z -0.063960 0.000000 2.229660 
# 
# From -- ./inp_files/114353.got.cif
#   From: 2010.05.17/outbox.cif.g08.bks.cpg/sg15_58_cif.got.tgz:114353.got - 2010.06.03 18:47:42.
