data_PCOD9300225
_publ_section_title
;
Structure prediction by ZEFSAII (Michael W. Deem and Ramdas Pophale) SiO2 
 PCOD9300225
Probable space group: C 2/C
;
_chemical_formula_sum "Si O2"
_cell_formula_units_Z 28
_cell_length_a 11.890289
_cell_length_b 25.959185
_cell_length_c 8.749454
_cell_angle_alpha 90.000000
_cell_angle_beta 24.611783
_cell_angle_gamma 90.000000
_cell_volume 1124.723614
_symmetry_space_group_name_H-M "C 2/C"
_symmetry_group_IT_number 15
_symmetry_cell_setting 'monoclinic'
loop_
_space_group_symop_operation_xyz
x,y,z
-x,y,1/2-z
-x,-y,-z
x,-y,1/2+z
1/2+x,1/2+y,z
1/2-x,1/2+y,1/2-z
1/2-x,1/2-y,-z
1/2+x,1/2-y,1/2+z
loop_
_atom_site_type_symbol
_atom_site_label
_atom_site_fract_x
_atom_site_fract_y
_atom_site_fract_z
Si Si1 0.303914 0.548323 0.349117
Si Si2 0.301743 0.268264 0.760785
Si Si3 0.781014 0.127270 0.139471
Si Si4 0.500000 0.946587 0.750000
O O1 0.500000 0.548216 0.250000
O O2 0.418266 0.586781 0.082930
O O3 0.222084 0.488991 0.416791
O O4 0.000000 0.570882 0.750000
O O5 0.629240 0.267669 0.358661
O O6 0.190628 0.324257 0.850806
O O7 0.250000 0.250000 0.000000
O O8 0.585224 0.090574 0.282673
O O9 0.000000 0.148233 0.750000
#
# Coordination Sequence:
#
# PCOD9300225 Si02
#       4
#     8   8   8   4
#     4  10  26  47  76 106 155 208 247 293 365 456
#     4  10  26  49  77 105 142 191 252 310 370 446
#     4  12  28  45  80 113 154 192 254 311 378 432
#     4  10  26  46  74 112 160 196 248 298 376 444
#
# _framework density 24.895005000000001
#
# number of rings (size 3 to 8) (size 9 to 14) (size 15 to 20)
#    0.857    0.571    0.000    1.714   16.000    3.429 
#    0.000    0.000    0.000    0.000    0.000    0.000 
#    0.000    0.000    0.000    0.000    0.000    0.000 
#
# Total GULP energy -78054.520530 kJ/mol
# GULP energy per Si atom -5575.322895 kJ/mol
# Density = 2.483834 g / cm^3
# Si number density = 24.895005 Si / 1000 Ang^3
#
#
#
# Elastic Constant Matrix: (Units=GPa)
#
#
# Indices 1 2 3 4 5 6 
#
# 1 180.8750 87.0408 11.2237 0.0001 -22.4722 -0.0001
# 2 87.0408 165.1921 13.1748 0.0000 19.8349 0.0000
# 3 11.2237 13.1748 38.3006 0.0004 0.7052 -0.0003
# 4 0.0001 0.0000 0.0004 53.0214 -0.0002 -5.3695
# 5 -22.4722 19.8349 0.7052 -0.0002 46.3954 0.0002
# 6 -0.0001 0.0000 -0.0003 -5.3695 0.0002 63.5593
#
#
#
# Elastic Compliance Matrix: (Units=1/GPa)
#
#
# Indices 1 2 3 4 5 6 
#
# 1 0.009088 -0.005532 -0.000885 0.000000 0.006781 0.000000
# 2 -0.005532 0.009930 -0.001668 0.000000 -0.006900 0.000000
# 3 -0.000885 -0.001668 0.026944 0.000000 -0.000125 0.000000
# 4 0.000000 0.000000 0.000000 0.019023 0.000000 0.001607
# 5 0.006781 -0.006900 -0.000125 0.000000 0.027790 0.000000
# 6 0.000000 0.000000 0.000000 0.001607 0.000000 0.015869
#
#
# Mechanical properties :
#
#
# Convention : Reuss Voigt Hill
#
# Bulk Modulus (GPa) = 33.56492 67.47181 50.51837
# Shear Modulus (GPa) = 37.10703 50.79044 43.94873
#
# Velocity S-wave (km/s) = 3.86494 4.52174 4.20618
# Velocity P-wave (km/s) = 5.78177 7.37719 6.62766
#
# Compressibility (1/GPa) = 0.02979301
#
# Stress axis : x y z
#
# Youngs Moduli (GPa) = 110.03200 100.70534 37.11333
#
# Poissons Ratio (x) = 0.55713 0.03285
# Poissons Ratio (y) = 0.60872 0.06189
# Poissons Ratio (z) = 0.09739 0.16793
#
# Static dielectric constant tensor:
#      x y z
#    x 2.062250 0.000000 0.219350 
#    y 0.000000 1.932060 0.000000 
#    z 0.219350 0.000000 2.928950 
# 
# From -- ./inp_files/33248.got.cif
#   From: 2010.05.17/outbox.cif.g08.bks.cpg/sg15_17_cif.got.tgz:33248.got - 2010.06.03 18:47:42.
