data_PCOD9300491
_publ_section_title
;
Structure prediction by ZEFSAII (Michael W. Deem and Ramdas Pophale) SiO2 
 PCOD9300491
Probable space group: C 2/C
;
_chemical_formula_sum "Si O2"
_cell_formula_units_Z 48
_cell_length_a 13.102950
_cell_length_b 15.406824
_cell_length_c 10.676583
_cell_angle_alpha 90.000000
_cell_angle_beta 67.357919
_cell_angle_gamma 90.000000
_cell_volume 1989.217067
_symmetry_space_group_name_H-M "C 2/C"
_symmetry_group_IT_number 15
_symmetry_cell_setting 'monoclinic'
loop_
_space_group_symop_operation_xyz
x,y,z
-x,y,1/2-z
-x,-y,-z
x,-y,1/2+z
1/2+x,1/2+y,z
1/2-x,1/2+y,1/2-z
1/2-x,1/2-y,-z
1/2+x,1/2-y,1/2+z
loop_
_atom_site_type_symbol
_atom_site_label
_atom_site_fract_x
_atom_site_fract_y
_atom_site_fract_z
Si Si1 0.669933 0.327710 0.494857
Si Si2 0.685863 0.001884 0.563409
Si Si3 0.845831 0.839264 0.514789
Si Si4 0.406508 0.587105 0.229848
Si Si5 0.354037 0.249389 0.259768
Si Si6 0.857951 0.441368 0.668673
O O1 0.750000 0.250000 0.500000
O O2 0.730871 0.419285 0.457843
O O3 0.598305 0.341974 0.654977
O O4 0.636328 0.306525 0.368735
O O5 0.611436 0.023642 0.480085
O O6 0.756579 0.912776 0.513999
O O7 0.618384 0.997074 0.722319
O O8 0.927590 0.883670 0.576719
O O9 0.773292 0.772279 0.634583
O O10 0.895956 0.791749 0.370048
O O11 0.500000 0.525579 0.250000
O O12 0.278703 0.556508 0.277867
O O13 0.394227 0.155318 0.190626
#
# Coordination Sequence:
#
# PCOD9300491 Si02
#       6
#     8   8   8   8   8   8
#     4  11  16  29  47  67  91 121 156 196 227 263
#     4   9  16  26  42  64  92 118 149 188 220 266
#     4   9  17  29  45  67  97 123 152 189 232 269
#     4   9  18  31  45  63  94 128 158 187 221 275
#     4   9  16  28  45  66  91 123 147 195 236 264
#     4   9  17  29  43  66  96 123 150 189 225 270
#
# _framework density 24.130098
#
# number of rings (size 3 to 8) (size 9 to 14) (size 15 to 20)
#    0.000    3.000    5.000    1.000    0.000    0.000 
#    0.000   14.167    0.000    0.000    0.000    0.000 
#    0.000   48.000    0.000    0.000    0.000    0.000 
#
# Total GULP energy -133629.302634 kJ/mol
# GULP energy per Si atom -5567.887610 kJ/mol
# Density = 2.407518 g / cm^3
# Si number density = 24.130098 Si / 1000 Ang^3
#
#
#
# Elastic Constant Matrix: (Units=GPa)
#
#
# Indices 1 2 3 4 5 6 
#
# 1 106.8321 19.5492 40.0922 0.0000 30.3668 0.0000
# 2 19.5492 73.4368 51.4359 0.0000 15.1539 0.0000
# 3 40.0922 51.4359 216.3331 0.0000 61.8535 0.0000
# 4 0.0000 0.0000 0.0000 42.7820 0.0000 18.2581
# 5 30.3668 15.1539 61.8535 0.0000 46.2737 0.0000
# 6 0.0000 0.0000 0.0000 18.2581 0.0000 2.9563
#
#
#
# Elastic Compliance Matrix: (Units=1/GPa)
#
#
# Indices 1 2 3 4 5 6 
#
# 1 0.011715 -0.001861 0.000478 0.000000 -0.007717 0.000000
# 2 -0.001861 0.016635 -0.003888 0.000000 0.000970 0.000000
# 3 0.000478 -0.003888 0.008391 0.000000 -0.010256 0.000000
# 4 0.000000 0.000000 0.000000 -0.014290 0.000000 0.088254
# 5 -0.007717 0.000970 -0.010256 0.000000 0.040067 0.000000
# 6 0.000000 0.000000 0.000000 0.088254 0.000000 -0.206796
#
#
# Mechanical properties :
#
#
# Convention : Reuss Voigt Hill
#
# Bulk Modulus (GPa) = 38.16810 68.75075 53.45942
# Shear Modulus (GPa) = -39.99909 37.43738 -1.28085
#
# Velocity S-wave (km/s) = -4.07583 3.94316 -0.72936
# Velocity P-wave (km/s) = 2.50957 7.02032 4.63611
#
# Compressibility (1/GPa) = 0.02619989
#
# Stress axis : x y z
#
# Youngs Moduli (GPa) = 85.35821 60.11286 119.17897
#
# Poissons Ratio (x) = 0.11186 -0.05695
# Poissons Ratio (y) = 0.15884 0.46334
# Poissons Ratio (z) = -0.04079 0.23370
#
# Static dielectric constant tensor:
#      x y z
#    x 2.193810 0.000000 -0.089880 
#    y 0.000000 2.395440 0.000000 
#    z -0.089880 0.000000 1.988270 
# 
# From -- ./inp_files/104838.got.cif
#   From: 2010.05.17/outbox.cif.g08.bks.cpg/sg15_53_cif.got.tgz:104838.got - 2010.06.03 18:47:42.
