data_PCOD9300610
_publ_section_title
;
Structure prediction by ZEFSAII (Michael W. Deem and Ramdas Pophale) SiO2 
 PCOD9300610
Probable space group: C 2/C
;
_chemical_formula_sum "Si O2"
_cell_formula_units_Z 64
_cell_length_a 15.182403
_cell_length_b 26.501327
_cell_length_c 8.342742
_cell_angle_alpha 90.000000
_cell_angle_beta 86.165427
_cell_angle_gamma 90.000000
_cell_volume 3349.219434
_symmetry_space_group_name_H-M "C 2/C"
_symmetry_group_IT_number 15
_symmetry_cell_setting 'monoclinic'
loop_
_space_group_symop_operation_xyz
x,y,z
-x,y,1/2-z
-x,-y,-z
x,-y,1/2+z
1/2+x,1/2+y,z
1/2-x,1/2+y,1/2-z
1/2-x,1/2-y,-z
1/2+x,1/2-y,1/2+z
loop_
_atom_site_type_symbol
_atom_site_label
_atom_site_fract_x
_atom_site_fract_y
_atom_site_fract_z
Si Si1 0.647343 0.749850 0.953986
Si Si2 0.590607 0.803070 0.268238
Si Si3 0.598075 0.965492 0.309579
Si Si4 0.665635 0.718608 0.449147
Si Si5 0.773405 0.384961 0.349610
Si Si6 0.903312 0.427513 0.823882
Si Si7 0.286615 0.842102 0.708726
Si Si8 0.100891 0.153978 0.753371
O O1 0.646485 0.795403 0.827377
O O2 0.614689 0.698073 0.884243
O O3 0.750000 0.750000 0.000000
O O4 0.594361 0.767197 0.113450
O O5 0.500000 0.833050 0.250000
O O6 0.599581 0.763667 0.410043
O O7 0.674303 0.839641 0.248215
O O8 0.500000 0.959390 0.250000
O O9 0.668481 0.933481 0.199042
O O10 0.595097 0.947263 0.493789
O O11 0.619474 0.024651 0.286093
O O12 0.750000 0.750000 0.500000
O O13 0.700805 0.683749 0.298224
O O14 0.627872 0.681682 0.586365
O O15 0.772450 0.368325 0.536538
O O16 0.674666 0.386869 0.292369
O O17 0.832604 0.383234 0.814849
O O18 0.000000 0.410161 0.750000
O O19 0.000000 0.137041 0.750000
#
# Coordination Sequence:
#
# PCOD9300610 Si02
#       8
#     8   8   8   8   8   8   8   8
#     4  11  18  39  53  74 117 159 192 247 291 353
#     4  11  21  33  54  76 107 151 197 238 294 350
#     4  11  22  40  63  88 129 163 197 248 307 362
#     4  12  20  36  53  78 114 150 198 246 296 350
#     4  11  21  39  57  80 118 155 199 249 300 360
#     4  11  23  38  59  94 125 158 205 248 299 373
#     4  11  21  36  60  79 115 162 200 243 300 350
#     4  12  23  35  55  82 114 154 201 250 304 353
#
# _framework density 19.108930999999998
#
# number of rings (size 3 to 8) (size 9 to 14) (size 15 to 20)
#    0.000    0.750    6.250    4.875    0.000    1.500 
#    0.000    0.000    0.000    0.000    0.000    8.750 
#    0.000    0.000    0.000    0.000    0.000    0.000 
#
# Total GULP energy -178682.005786 kJ/mol
# GULP energy per Si atom -5583.812681 kJ/mol
# Density = 1.906544 g / cm^3
# Si number density = 19.108931 Si / 1000 Ang^3
#
#
#
# Elastic Constant Matrix: (Units=GPa)
#
#
# Indices 1 2 3 4 5 6 
#
# 1 112.9557 23.2713 -1.6722 0.0000 4.7422 0.0000
# 2 23.2713 58.7976 -5.3648 0.0000 9.6980 0.0000
# 3 -1.6722 -5.3648 51.6607 0.0000 3.1140 0.0000
# 4 0.0000 0.0000 0.0000 28.9625 0.0000 2.9874
# 5 4.7422 9.6980 3.1140 0.0000 17.0542 0.0000
# 6 0.0000 0.0000 0.0000 2.9874 0.0000 20.6692
#
#
#
# Elastic Compliance Matrix: (Units=1/GPa)
#
#
# Indices 1 2 3 4 5 6 
#
# 1 0.009644 -0.003730 -0.000042 0.000000 -0.000553 0.000000
# 2 -0.003730 0.020568 0.002687 0.000000 -0.011150 0.000000
# 3 -0.000042 0.002687 0.019946 0.000000 -0.005159 0.000000
# 4 0.000000 0.000000 0.000000 0.035050 0.000000 -0.005066
# 5 -0.000553 -0.011150 -0.005159 0.000000 0.066073 0.000000
# 6 0.000000 0.000000 0.000000 -0.005066 0.000000 0.049113
#
#
# Mechanical properties :
#
#
# Convention : Reuss Voigt Hill
#
# Bulk Modulus (GPa) = 20.83794 28.43141 24.63467
# Shear Modulus (GPa) = 22.87724 27.14917 25.01321
#
# Velocity S-wave (km/s) = 3.46381 3.77338 3.62191
# Velocity P-wave (km/s) = 5.18901 5.82198 5.51459
#
# Compressibility (1/GPa) = 0.04798939
#
# Stress axis : x y z
#
# Youngs Moduli (GPa) = 103.69141 48.61973 50.13604
#
# Poissons Ratio (x) = 0.18133 0.00210
# Poissons Ratio (y) = 0.38672 -0.13473
# Poissons Ratio (z) = 0.00433 -0.13065
#
# Static dielectric constant tensor:
#      x y z
#    x 1.715410 0.000000 0.015300 
#    y 0.000000 1.663700 0.000000 
#    z 0.015300 0.000000 1.723000 
# 
# From -- ./inp_files/43538.got.cif
#   From: 2010.05.17/outbox.cif.g08.bks.cpg/sg15_22_cif.got.tgz:43538.got - 2010.06.03 18:47:42.
