data_PCOD9300114
_publ_section_title
;
Structure prediction by ZEFSAII (Michael W. Deem and Ramdas Pophale) SiO2 
 PCOD9300114
Probable space group: C 2/C
;
_chemical_formula_sum "Si O2"
_cell_formula_units_Z 44
_cell_length_a 25.839019
_cell_length_b 5.134725
_cell_length_c 15.825652
_cell_angle_alpha 90.000000
_cell_angle_beta 86.509751
_cell_angle_gamma 90.000000
_cell_volume 2095.793712
_symmetry_space_group_name_H-M "C 2/C"
_symmetry_group_IT_number 15
_symmetry_cell_setting 'monoclinic'
loop_
_space_group_symop_operation_xyz
x,y,z
-x,y,1/2-z
-x,-y,-z
x,-y,1/2+z
1/2+x,1/2+y,z
1/2-x,1/2+y,1/2-z
1/2-x,1/2-y,-z
1/2+x,1/2-y,1/2+z
loop_
_atom_site_type_symbol
_atom_site_label
_atom_site_fract_x
_atom_site_fract_y
_atom_site_fract_z
Si Si1 0.736616 0.500138 0.553308
Si Si2 0.609181 0.151145 0.219857
Si Si3 0.019920 0.751094 0.549753
Si Si4 0.721228 0.827802 0.781015
Si Si5 0.878168 0.141413 0.389151
Si Si6 0.000000 0.397113 0.250000
O O1 0.750000 0.750000 0.500000
O O2 0.770632 0.478187 0.633008
O O3 0.676326 0.479836 0.580533
O O4 0.750000 0.250000 0.500000
O O5 0.660429 0.215636 0.269346
O O6 0.597018 0.408665 0.167671
O O7 0.553390 0.057481 0.259294
O O8 0.628752 0.903427 0.163742
O O9 0.082367 0.776005 0.541977
O O10 0.000000 0.500000 0.500000
O O11 0.007211 0.733722 0.653772
O O12 0.000000 0.000000 0.500000
O O13 0.750798 0.547536 0.781494
#
# Coordination Sequence:
#
# PCOD9300114 Si02
#       6
#     8   8   8   8   8   4
#     4  12  25  40  63 100 137 177 231 291 357 423
#     4  11  22  42  70  98 136 184 231 293 341 430
#     4  11  25  45  71 101 142 185 237 296 355 429
#     4  12  22  42  67  94 129 181 233 273 343 423
#     4  11  23  43  67  95 140 185 220 290 368 407
#     4  10  26  44  72 108 138 188 248 286 366 430
#
# _framework density 20.994433999999998
#
# number of rings (size 3 to 8) (size 9 to 14) (size 15 to 20)
#    0.000    0.727    3.636    4.364    0.000    9.455 
#    0.000    0.000    0.000    0.000    0.000    0.000 
#    0.000    0.000    0.000    0.000    0.000    0.000 
#
# Total GULP energy -122635.991480 kJ/mol
# GULP energy per Si atom -5574.363249 kJ/mol
# Density = 2.094665 g / cm^3
# Si number density = 20.994434 Si / 1000 Ang^3
#
#
#
# Elastic Constant Matrix: (Units=GPa)
#
#
# Indices 1 2 3 4 5 6 
#
# 1 223.0441 14.8451 75.7892 0.0000 180.1240 0.0000
# 2 14.8451 149.8443 28.4034 0.0000 -31.3758 0.0000
# 3 75.7892 28.4034 138.1869 0.0000 167.2373 0.0000
# 4 0.0000 0.0000 0.0000 44.0457 0.0000 21.7400
# 5 180.1240 -31.3758 167.2373 0.0000 539.6018 0.0000
# 6 0.0000 0.0000 0.0000 21.7400 0.0000 22.4375
#
#
#
# Elastic Compliance Matrix: (Units=1/GPa)
#
#
# Indices 1 2 3 4 5 6 
#
# 1 0.006401 -0.000805 -0.001124 0.000000 -0.001835 0.000000
# 2 -0.000805 0.007724 -0.003224 0.000000 0.001717 0.000000
# 3 -0.001124 -0.003224 0.013263 0.000000 -0.003923 0.000000
# 4 0.000000 0.000000 0.000000 0.043513 0.000000 -0.042160
# 5 -0.001835 0.001717 -0.003923 0.000000 0.003781 0.000000
# 6 0.000000 0.000000 0.000000 -0.042160 0.000000 0.085418
#
#
# Mechanical properties :
#
#
# Convention : Reuss Voigt Hill
#
# Bulk Modulus (GPa) = 58.54404 83.23898 70.89151
# Shear Modulus (GPa) = 28.39262 147.35282 87.87272
#
# Velocity S-wave (km/s) = 3.68147 8.38683 6.47658
# Velocity P-wave (km/s) = 6.78359 11.55506 9.47461
#
# Compressibility (1/GPa) = 0.01708116
#
# Stress axis : x y z
#
# Youngs Moduli (GPa) = 156.22541 129.46508 75.39500
#
# Poissons Ratio (x) = 0.10426 0.08476
# Poissons Ratio (y) = 0.12581 0.24309
# Poissons Ratio (z) = 0.17564 0.41742
#
# Static dielectric constant tensor:
#      x y z
#    x 1.818990 0.000000 -0.038860 
#    y 0.000000 1.736560 0.000000 
#    z -0.038860 0.000000 1.857540 
# 
# From -- ./inp_files/170807.got.cif
#   From: 2010.05.17/outbox.cif.g08.bks.cpg/sg15_86_cif.got.tgz:170807.got - 2010.06.03 18:47:42.
