data_PCOD9300287
_publ_section_title
;
Structure prediction by ZEFSAII (Michael W. Deem and Ramdas Pophale) SiO2 
 PCOD9300287
Probable space group: C 2/C
;
_chemical_formula_sum "Si O2"
_cell_formula_units_Z 52
_cell_length_a 12.405736
_cell_length_b 7.873484
_cell_length_c 25.487296
_cell_angle_alpha 90.000000
_cell_angle_beta 114.876802
_cell_angle_gamma 90.000000
_cell_volume 2258.516078
_symmetry_space_group_name_H-M "C 2/C"
_symmetry_group_IT_number 15
_symmetry_cell_setting 'monoclinic'
loop_
_space_group_symop_operation_xyz
x,y,z
-x,y,1/2-z
-x,-y,-z
x,-y,1/2+z
1/2+x,1/2+y,z
1/2-x,1/2+y,1/2-z
1/2-x,1/2-y,-z
1/2+x,1/2-y,1/2+z
loop_
_atom_site_type_symbol
_atom_site_label
_atom_site_fract_x
_atom_site_fract_y
_atom_site_fract_z
Si Si1 0.163718 0.162882 0.583154
Si Si2 0.197211 0.934017 0.504592
Si Si3 0.500000 0.792139 0.250000
Si Si4 0.929464 0.376072 0.022819
Si Si5 0.916678 0.657454 0.842735
Si Si6 0.189597 0.049501 0.335656
Si Si7 0.000979 0.035011 0.874851
O O1 0.080586 0.216466 0.517527
O O2 0.259831 0.312004 0.611470
O O3 0.192383 0.973618 0.566652
O O4 0.098846 0.163805 0.625939
O O5 0.250000 0.750000 0.500000
O O6 0.297830 0.064973 0.507652
O O7 0.084920 0.967247 0.443799
O O8 0.528953 0.893629 0.202633
O O9 0.613876 0.670313 0.282077
O O10 0.996857 0.380435 0.091119
O O11 0.000000 0.500000 0.000000
O O12 0.792416 0.564900 0.830837
O O13 0.928979 0.863206 0.846257
O O14 0.092503 0.935233 0.346491
#
# Coordination Sequence:
#
# PCOD9300287 Si02
#       7
#     8   8   4   8   8   8   8
#     4  12  24  40  67 106 148 181 234 287 360 439
#     4  12  24  36  61 101 156 195 222 277 350 439
#     4  10  26  48  70 100 134 182 250 300 350 426
#     4  12  22  41  68 107 146 184 226 287 370 440
#     4  11  24  46  77  99 142 191 237 302 361 425
#     4  11  25  49  73  97 137 189 236 303 359 419
#     4  11  24  41  65 104 141 186 227 282 349 425
#
# _framework density 23.023968
#
# number of rings (size 3 to 8) (size 9 to 14) (size 15 to 20)
#    0.000    0.615    4.615    3.692    4.308    2.462 
#    0.000    1.538    0.000    0.923    0.000    0.000 
#    0.000    0.000    0.000    0.000    0.000    0.000 
#
# Total GULP energy -144930.861275 kJ/mol
# GULP energy per Si atom -5574.263895 kJ/mol
# Density = 2.297156 g / cm^3
# Si number density = 23.023968 Si / 1000 Ang^3
#
#
#
# Elastic Constant Matrix: (Units=GPa)
#
#
# Indices 1 2 3 4 5 6 
#
# 1 122.7212 38.7621 35.3998 0.0000 -20.5106 0.0000
# 2 38.7621 54.3138 19.7995 0.0000 -10.1008 0.0000
# 3 35.3998 19.7995 120.4363 0.0000 -20.7267 0.0000
# 4 0.0000 0.0000 0.0000 18.3749 0.0000 -4.9233
# 5 -20.5106 -10.1008 -20.7267 0.0000 40.2538 0.0000
# 6 0.0000 0.0000 0.0000 -4.9233 0.0000 36.6215
#
#
#
# Elastic Compliance Matrix: (Units=1/GPa)
#
#
# Indices 1 2 3 4 5 6 
#
# 1 0.011336 -0.006895 -0.001648 0.000000 0.003197 0.000000
# 2 -0.006895 0.024259 -0.001666 0.000000 0.001716 0.000000
# 3 -0.001648 -0.001666 0.009705 0.000000 0.003739 0.000000
# 4 0.000000 0.000000 0.000000 0.056455 0.000000 0.007590
# 5 0.003197 0.001716 0.003739 0.000000 0.028827 0.000000
# 6 0.000000 0.000000 0.000000 0.007590 0.000000 0.028327
#
#
# Mechanical properties :
#
#
# Convention : Reuss Voigt Hill
#
# Bulk Modulus (GPa) = 40.19071 53.93268 47.06170
# Shear Modulus (GPa) = 26.64938 32.61738 29.63338
#
# Velocity S-wave (km/s) = 3.40584 3.76795 3.59146
# Velocity P-wave (km/s) = 5.74110 6.51194 6.13863
#
# Compressibility (1/GPa) = 0.02488137
#
# Stress axis : x y z
#
# Youngs Moduli (GPa) = 88.21353 41.22246 103.03923
#
# Poissons Ratio (x) = 0.28422 0.16984
# Poissons Ratio (y) = 0.60821 0.17168
# Poissons Ratio (z) = 0.14540 0.06868
#
# Static dielectric constant tensor:
#      x y z
#    x 1.964520 0.000000 -0.041680 
#    y 0.000000 1.985820 0.000000 
#    z -0.041680 0.000000 1.896960 
# 
# From -- ./inp_files/291273.got.cif
#   From: 2010.05.17/outbox.cif.g08.bks.cpg/sg15_146_cif.got.tgz:291273.got - 2010.06.03 18:47:42.
