data_PCOD9300318
_publ_section_title
;
Structure prediction by ZEFSAII (Michael W. Deem and Ramdas Pophale) SiO2 
 PCOD9300318
Probable space group: C 2/C
;
_chemical_formula_sum "Si O2"
_cell_formula_units_Z 36
_cell_length_a 19.348105
_cell_length_b 8.421080
_cell_length_c 20.040010
_cell_angle_alpha 90.000000
_cell_angle_beta 155.578673
_cell_angle_gamma 90.000000
_cell_volume 1349.957844
_symmetry_space_group_name_H-M "C 2/C"
_symmetry_group_IT_number 15
_symmetry_cell_setting 'monoclinic'
loop_
_space_group_symop_operation_xyz
x,y,z
-x,y,1/2-z
-x,-y,-z
x,-y,1/2+z
1/2+x,1/2+y,z
1/2-x,1/2+y,1/2-z
1/2-x,1/2-y,-z
1/2+x,1/2-y,1/2+z
loop_
_atom_site_type_symbol
_atom_site_label
_atom_site_fract_x
_atom_site_fract_y
_atom_site_fract_z
Si Si1 0.576055 0.647656 0.607676
Si Si2 0.718264 0.388328 0.558211
Si Si3 0.038041 0.657026 0.704096
Si Si4 0.276195 0.093103 0.361599
Si Si5 0.000000 0.843190 0.250000
O O1 0.500000 0.500000 0.500000
O O2 0.425283 0.690711 0.524350
O O3 0.634976 0.793046 0.614486
O O4 0.726658 0.569532 0.782133
O O5 0.804573 0.539466 0.666656
O O6 0.620845 0.437247 0.405271
O O7 0.869197 0.271413 0.672608
O O8 0.000000 0.661971 0.750000
O O9 0.889031 0.591304 0.527217
O O10 0.103483 0.822200 0.731974
#
# Coordination Sequence:
#
# PCOD9300318 Si02
#       5
#     8   8   8   8   4
#     4  12  27  51  76 114 156 205 263 327 387 471
#     4  11  25  47  77 110 156 201 262 318 394 457
#     4  12  25  47  75 113 153 207 256 330 382 474
#     4  12  28  51  79 116 157 209 267 320 398 457
#     4  10  26  48  76 114 152 212 254 322 388 474
#
# _framework density 26.667497999999998
#
# number of rings (size 3 to 8) (size 9 to 14) (size 15 to 20)
#    0.000    0.444    5.556    0.667    6.222    0.889 
#    2.000    0.000    0.000    0.000    0.000    0.000 
#    0.000    0.000    0.000    0.000    0.000    0.000 
#
# Total GULP energy -101088.034584 kJ/mol
# GULP energy per Si atom -5616.001921 kJ/mol
# Density = 2.660680 g / cm^3
# Si number density = 26.667498 Si / 1000 Ang^3
#
#
#
# Elastic Constant Matrix: (Units=GPa)
#
#
# Indices 1 2 3 4 5 6 
#
# 1 172.5717 44.5638 76.2629 0.0000 19.7544 0.0000
# 2 44.5638 73.9434 48.3772 -0.0001 0.2564 0.0000
# 3 76.2629 48.3772 167.7036 0.0000 -24.8111 0.0000
# 4 0.0000 -0.0001 0.0000 48.4495 0.0001 1.8098
# 5 19.7544 0.2564 -24.8111 0.0001 77.1127 0.0000
# 6 0.0000 0.0000 0.0000 1.8098 0.0000 33.7230
#
#
#
# Elastic Compliance Matrix: (Units=1/GPa)
#
#
# Indices 1 2 3 4 5 6 
#
# 1 0.008446 -0.002770 -0.003528 0.000000 -0.003290 0.000000
# 2 -0.002770 0.017789 -0.003964 0.000000 -0.000625 0.000000
# 3 -0.003528 -0.003964 0.009289 0.000000 0.003906 0.000000
# 4 0.000000 0.000000 0.000000 0.020681 0.000000 -0.001110
# 5 -0.003290 -0.000625 0.003906 0.000000 0.015070 0.000000
# 6 0.000000 0.000000 0.000000 -0.001110 0.000000 0.029713
#
#
# Mechanical properties :
#
#
# Convention : Reuss Voigt Hill
#
# Bulk Modulus (GPa) = 66.67516 83.62519 75.15017
# Shear Modulus (GPa) = 39.52161 48.19136 43.85649
#
# Velocity S-wave (km/s) = 3.85387 4.25563 4.05973
# Velocity P-wave (km/s) = 6.69774 7.45478 7.08638
#
# Compressibility (1/GPa) = 0.01499809
#
# Stress axis : x y z
#
# Youngs Moduli (GPa) = 118.40100 56.21365 107.65652
#
# Poissons Ratio (x) = 0.15573 0.37984
# Poissons Ratio (y) = 0.32801 0.42678
# Poissons Ratio (z) = 0.41775 0.22285
#
# Static dielectric constant tensor:
#      x y z
#    x 2.134090 0.000000 -0.028000 
#    y 0.000000 2.116740 0.000000 
#    z -0.028000 0.000000 2.027170 
# 
# From -- ./inp_files/53909.got.cif
#   From: 2010.05.17/outbox.cif.g08.bks.cpg/sg15_27_cif.got.tgz:53909.got - 2010.06.03 18:47:42.
