data_PCOD9300535
_publ_section_title
;
Structure prediction by ZEFSAII (Michael W. Deem and Ramdas Pophale) SiO2 
 PCOD9300535
Probable space group: C 2/C
;
_chemical_formula_sum "Si O2"
_cell_formula_units_Z 56
_cell_length_a 26.637192
_cell_length_b 15.353913
_cell_length_c 9.130481
_cell_angle_alpha 90.000000
_cell_angle_beta 123.936253
_cell_angle_gamma 90.000000
_cell_volume 3098.139113
_symmetry_space_group_name_H-M "C 2/C"
_symmetry_group_IT_number 15
_symmetry_cell_setting 'monoclinic'
loop_
_space_group_symop_operation_xyz
x,y,z
-x,y,1/2-z
-x,-y,-z
x,-y,1/2+z
1/2+x,1/2+y,z
1/2-x,1/2+y,1/2-z
1/2-x,1/2-y,-z
1/2+x,1/2-y,1/2+z
loop_
_atom_site_type_symbol
_atom_site_label
_atom_site_fract_x
_atom_site_fract_y
_atom_site_fract_z
Si Si1 0.301717 0.312723 0.660588
Si Si2 0.989517 0.404504 0.907492
Si Si3 0.744141 0.510222 0.926386
Si Si4 0.756016 0.827186 0.896409
Si Si5 0.120994 0.616261 0.079649
Si Si6 0.675101 0.946687 0.202126
Si Si7 0.401980 0.194343 0.772856
O O1 0.250000 0.250000 0.500000
O O2 0.288213 0.416602 0.623742
O O3 0.295241 0.299564 0.823085
O O4 0.368640 0.287528 0.715287
O O5 0.922926 0.374901 0.853218
O O6 0.000000 0.408918 0.750000
O O7 0.000000 0.500000 0.000000
O O8 0.034906 0.332959 0.052353
O O9 0.716890 0.588588 0.976562
O O10 0.805685 0.488325 0.112626
O O11 0.766102 0.548235 0.806122
O O12 0.689138 0.850746 0.724020
O O13 0.750000 0.750000 0.000000
O O14 0.126549 0.513015 0.057983
O O15 0.097970 0.660364 0.893849
O O16 0.645465 0.857659 0.200085
#
# Coordination Sequence:
#
# PCOD9300535 Si02
#       7
#     8   8   8   8   8   8   8
#     4  12  21  38  56  87 122 160 200 243 300 359
#     4  12  27  38  57  85 120 163 208 247 297 362
#     4  11  21  35  53  84 122 160 194 240 294 355
#     4  11  24  36  61  90 122 157 201 252 303 358
#     4  11  22  39  54  84 118 160 205 240 294 354
#     4  11  18  32  54  78 117 158 197 236 284 344
#     4  12  23  37  60  80 123 165 199 249 295 359
#
# _framework density 18.075365999999999
#
# number of rings (size 3 to 8) (size 9 to 14) (size 15 to 20)
#    0.000    0.571    8.571    2.143    6.000    0.000 
#    0.000    0.000    0.000    0.000    0.000    1.000 
#    0.000    0.000    0.000    0.000    0.000    0.000 
#
# Total GULP energy -155994.262162 kJ/mol
# GULP energy per Si atom -5571.223649 kJ/mol
# Density = 1.803423 g / cm^3
# Si number density = 18.075366 Si / 1000 Ang^3
#
#
#
# Elastic Constant Matrix: (Units=GPa)
#
#
# Indices 1 2 3 4 5 6 
#
# 1 80.2997 12.5926 23.1075 0.0000 -22.0347 0.0000
# 2 12.5926 64.2738 5.2208 0.0000 -14.2446 0.0000
# 3 23.1075 5.2208 63.9150 0.0000 -25.3475 0.0000
# 4 0.0000 0.0000 0.0000 25.8208 0.0000 -3.8711
# 5 -22.0347 -14.2446 -25.3475 0.0000 36.6289 0.0000
# 6 0.0000 0.0000 0.0000 -3.8711 0.0000 28.2739
#
#
#
# Elastic Compliance Matrix: (Units=1/GPa)
#
#
# Indices 1 2 3 4 5 6 
#
# 1 0.015310 -0.001264 -0.002721 0.000000 0.006836 0.000000
# 2 -0.001264 0.017266 0.001940 0.000000 0.007297 0.000000
# 3 -0.002721 0.001940 0.022219 0.000000 0.014493 0.000000
# 4 0.000000 0.000000 0.000000 0.039540 0.000000 0.005414
# 5 0.006836 0.007297 0.014493 0.000000 0.044280 0.000000
# 6 0.000000 0.000000 0.000000 0.005414 0.000000 0.036109
#
#
# Mechanical properties :
#
#
# Convention : Reuss Voigt Hill
#
# Bulk Modulus (GPa) = 19.72150 32.25892 25.99021
# Shear Modulus (GPa) = 25.54734 29.31590 27.43162
#
# Velocity S-wave (km/s) = 3.76357 4.03161 3.89990
# Velocity P-wave (km/s) = 5.46080 6.28948 5.88973
#
# Compressibility (1/GPa) = 0.05070609
#
# Stress axis : x y z
#
# Youngs Moduli (GPa) = 65.31550 57.91876 45.00690
#
# Poissons Ratio (x) = 0.07319 0.12247
# Poissons Ratio (y) = 0.08253 -0.08733
# Poissons Ratio (z) = 0.17773 -0.11238
#
# Static dielectric constant tensor:
#      x y z
#    x 1.651590 0.000000 0.005670 
#    y 0.000000 1.677820 0.000000 
#    z 0.005670 0.000000 1.664590 
# 
# From -- ./inp_files/66285.got.cif
#   From: 2010.05.17/outbox.cif.g08.bks.cpg/sg15_34_cif.got.tgz:66285.got - 2010.06.03 18:47:42.
