data_PCOD9300922
_publ_section_title
;
Structure prediction by ZEFSAII (Michael W. Deem and Ramdas Pophale) SiO2 
 PCOD9300922
Probable space group: C 2/C
;
_chemical_formula_sum "Si O2"
_cell_formula_units_Z 28
_cell_length_a 13.744204
_cell_length_b 18.282089
_cell_length_c 4.979032
_cell_angle_alpha 90.000000
_cell_angle_beta 62.435473
_cell_angle_gamma 90.000000
_cell_volume 1109.083617
_symmetry_space_group_name_H-M "C 2/C"
_symmetry_group_IT_number 15
_symmetry_cell_setting 'monoclinic'
loop_
_space_group_symop_operation_xyz
x,y,z
-x,y,1/2-z
-x,-y,-z
x,-y,1/2+z
1/2+x,1/2+y,z
1/2-x,1/2+y,1/2-z
1/2-x,1/2-y,-z
1/2+x,1/2-y,1/2+z
loop_
_atom_site_type_symbol
_atom_site_label
_atom_site_fract_x
_atom_site_fract_y
_atom_site_fract_z
Si Si1 0.727608 0.948536 0.110639
Si Si2 0.000000 0.052625 0.750000
Si Si3 0.891809 0.165719 0.194532
Si Si4 0.500000 0.791587 0.750000
Si Si5 0.000000 0.614132 0.750000
O O1 0.792373 0.871584 0.983907
O O2 0.752783 0.008039 0.848475
O O3 0.599250 0.931008 0.247790
O O4 0.095761 0.109274 0.566579
O O5 0.000000 0.000000 0.500000
O O6 0.000000 0.161948 0.250000
O O7 0.906653 0.242774 0.021189
O O8 0.453941 0.838488 0.560265
#
# Coordination Sequence:
#
# PCOD9300922 Si02
#       5
#     8   4   8   4   4
#     4  12  28  45  75 104 139 187 231 294 351 411
#     4  11  20  33  58  89 138 177 206 266 336 415
#     4  11  25  43  68 110 142 178 227 287 363 416
#     4  11  26  47  74 101 140 189 234 290 344 413
#     4  12  26  52  70  98 142 190 246 282 328 420
#
# _framework density 25.246068000000001
#
# number of rings (size 3 to 8) (size 9 to 14) (size 15 to 20)
#    0.000    0.571    2.857    4.286    8.000    2.286 
#    0.000    0.000    0.000    0.000    0.000    0.000 
#    0.000    0.000    0.000    0.000    0.000    0.000 
#
# Total GULP energy -78203.969957 kJ/mol
# GULP energy per Si atom -5585.997854 kJ/mol
# Density = 2.518861 g / cm^3
# Si number density = 25.246068 Si / 1000 Ang^3
#
#
#
# Elastic Constant Matrix: (Units=GPa)
#
#
# Indices 1 2 3 4 5 6 
#
# 1 105.4988 20.0703 38.2692 0.0000 -0.0907 0.0000
# 2 20.0703 61.4389 32.8997 0.0000 10.3863 0.0000
# 3 38.2692 32.8997 117.1576 0.0000 37.4659 0.0000
# 4 0.0000 0.0000 0.0000 27.7616 0.0000 4.5184
# 5 -0.0907 10.3863 37.4659 0.0000 62.1602 0.0000
# 6 0.0000 0.0000 0.0000 4.5184 0.0000 27.9192
#
#
#
# Elastic Compliance Matrix: (Units=1/GPa)
#
#
# Indices 1 2 3 4 5 6 
#
# 1 0.011323 -0.002015 -0.004021 0.000000 0.002777 0.000000
# 2 -0.002015 0.019516 -0.004680 0.000000 -0.000443 0.000000
# 3 -0.004021 -0.004680 0.013521 0.000000 -0.007373 0.000000
# 4 0.000000 0.000000 0.000000 0.036995 0.000000 -0.005987
# 5 0.002777 -0.000443 -0.007373 0.000000 0.020610 0.000000
# 6 0.000000 0.000000 0.000000 -0.005987 0.000000 0.036787
#
#
# Mechanical properties :
#
#
# Convention : Reuss Voigt Hill
#
# Bulk Modulus (GPa) = 43.61636 51.84153 47.72894
# Shear Modulus (GPa) = 29.79260 36.42528 33.10894
#
# Velocity S-wave (km/s) = 3.43897 3.80255 3.62532
# Velocity P-wave (km/s) = 5.75175 6.31334 6.03908
#
# Compressibility (1/GPa) = 0.02292718
#
# Stress axis : x y z
#
# Youngs Moduli (GPa) = 88.31558 51.24042 73.95824
#
# Poissons Ratio (x) = 0.10326 0.29736
# Poissons Ratio (y) = 0.17798 0.34616
# Poissons Ratio (z) = 0.35509 0.23983
#
# Static dielectric constant tensor:
#      x y z
#    x 2.073040 0.000000 -0.065600 
#    y 0.000000 2.055560 0.000000 
#    z -0.065600 0.000000 2.033520 
# 
# From -- ./inp_files/6362.got.cif
#   From: 2010.05.17/outbox.cif.g08.bks.cpg/sg15_4_cif.got.tgz:6362.got - 2010.06.03 18:47:42.
