data_PCOD9300705
_publ_section_title
;
Structure prediction by ZEFSAII (Michael W. Deem and Ramdas Pophale) SiO2 
 PCOD9300705
Probable space group: C 2/C
;
_chemical_formula_sum "Si O2"
_cell_formula_units_Z 48
_cell_length_a 17.180728
_cell_length_b 7.142344
_cell_length_c 23.045059
_cell_angle_alpha 90.000000
_cell_angle_beta 57.771657
_cell_angle_gamma 90.000000
_cell_volume 2392.182450
_symmetry_space_group_name_H-M "C 2/C"
_symmetry_group_IT_number 15
_symmetry_cell_setting 'monoclinic'
loop_
_space_group_symop_operation_xyz
x,y,z
-x,y,1/2-z
-x,-y,-z
x,-y,1/2+z
1/2+x,1/2+y,z
1/2-x,1/2+y,1/2-z
1/2-x,1/2-y,-z
1/2+x,1/2-y,1/2+z
loop_
_atom_site_type_symbol
_atom_site_label
_atom_site_fract_x
_atom_site_fract_y
_atom_site_fract_z
Si Si1 0.014413 0.056742 0.176327
Si Si2 0.119370 0.170329 0.959884
Si Si3 0.012508 0.726101 0.393452
Si Si4 0.555219 0.192138 0.892770
Si Si5 0.775325 0.894852 0.937475
Si Si6 0.667008 0.250342 0.962201
O O1 0.118309 0.120577 0.119951
O O2 0.000000 0.074254 0.250000
O O3 0.000639 0.845205 0.158924
O O4 0.946861 0.180859 0.163471
O O5 0.068686 0.150191 0.918379
O O6 0.202175 0.315508 0.920111
O O7 0.250000 0.250000 0.000000
O O8 0.039074 0.252304 0.033876
O O9 0.055114 0.522053 0.372257
O O10 0.915069 0.689617 0.462851
O O11 0.635466 0.215046 0.908255
O O12 0.750673 0.116913 0.948147
O O13 0.838005 0.023559 0.033410
#
# Coordination Sequence:
#
# PCOD9300705 Si02
#       6
#     8   8   8   8   8   8
#     4  12  27  43  59  90 133 170 208 262 331 388
#     4  11  19  36  67 100 119 155 212 266 314 372
#     4  11  19  38  66  91 124 164 205 254 320 387
#     4  11  19  39  66  92 123 166 208 256 313 388
#     4  12  23  40  62 103 128 151 213 280 317 362
#     4  11  19  35  69  97 120 159 208 265 317 367
#
# _framework density 20.065356999999999
#
# number of rings (size 3 to 8) (size 9 to 14) (size 15 to 20)
#    0.000    0.667    8.333    2.000    0.000    4.667 
#    0.000    1.667    0.000    0.000    0.000    0.000 
#    0.000    0.000    0.000    0.000    0.000    0.000 
#
# Total GULP energy -133876.157087 kJ/mol
# GULP energy per Si atom -5578.173212 kJ/mol
# Density = 2.001969 g / cm^3
# Si number density = 20.065357 Si / 1000 Ang^3
#
#
#
# Elastic Constant Matrix: (Units=GPa)
#
#
# Indices 1 2 3 4 5 6 
#
# 1 72.8374 11.0718 34.5110 0.0000 16.0535 0.0004
# 2 11.0718 85.0062 43.1791 -0.0002 23.3280 0.0006
# 3 34.5110 43.1791 95.4265 0.0001 29.9736 0.0002
# 4 0.0000 -0.0002 0.0001 4.6082 0.0000 7.8567
# 5 16.0535 23.3280 29.9736 0.0000 23.7941 0.0002
# 6 0.0004 0.0006 0.0002 7.8567 0.0002 45.8905
#
#
#
# Elastic Compliance Matrix: (Units=1/GPa)
#
#
# Indices 1 2 3 4 5 6 
#
# 1 0.017435 0.002396 -0.004893 0.000001 -0.007948 0.000000
# 2 0.002396 0.017325 -0.004737 0.000001 -0.012635 0.000000
# 3 -0.004893 -0.004737 0.019686 -0.000001 -0.016853 0.000000
# 4 0.000001 0.000001 -0.000001 0.306462 0.000001 -0.052468
# 5 -0.007948 -0.012635 -0.016853 0.000001 0.081007 0.000000
# 6 0.000000 0.000000 0.000000 -0.052468 0.000000 0.030774
#
#
# Mechanical properties :
#
#
# Convention : Reuss Voigt Hill
#
# Bulk Modulus (GPa) = 25.01404 47.86600 36.44002
# Shear Modulus (GPa) = 9.99034 25.82575 17.90804
#
# Velocity S-wave (km/s) = 2.23376 3.59148 2.99069
# Velocity P-wave (km/s) = 4.37565 6.41133 5.48869
#
# Compressibility (1/GPa) = 0.03997754
#
# Stress axis : x y z
#
# Youngs Moduli (GPa) = 57.35535 57.71844 50.79797
#
# Poissons Ratio (x) = -0.13828 0.24855
# Poissons Ratio (y) = -0.13741 0.24065
# Poissons Ratio (z) = 0.28063 0.27343
#
# Static dielectric constant tensor:
#      x y z
#    x 1.762850 0.000000 0.047380 
#    y 0.000000 1.795050 0.000000 
#    z 0.047380 0.000000 1.675970 
# 
# From -- ./inp_files/242324.got.cif
#   From: 2010.05.17/outbox.cif.g08.bks.cpg/sg15_122_cif.got.tgz:242324.got - 2010.06.03 18:47:42.
