data_PCOD9300538
_publ_section_title
;
Structure prediction by ZEFSAII (Michael W. Deem and Ramdas Pophale) SiO2 
 PCOD9300538
Probable space group: C 2/C
;
_chemical_formula_sum "Si O2"
_cell_formula_units_Z 52
_cell_length_a 18.163176
_cell_length_b 22.042094
_cell_length_c 14.611359
_cell_angle_alpha 90.000000
_cell_angle_beta 32.065156
_cell_angle_gamma 90.000000
_cell_volume 3105.519963
_symmetry_space_group_name_H-M "C 2/C"
_symmetry_group_IT_number 15
_symmetry_cell_setting 'monoclinic'
loop_
_space_group_symop_operation_xyz
x,y,z
-x,y,1/2-z
-x,-y,-z
x,-y,1/2+z
1/2+x,1/2+y,z
1/2-x,1/2+y,1/2-z
1/2-x,1/2-y,-z
1/2+x,1/2-y,1/2+z
loop_
_atom_site_type_symbol
_atom_site_label
_atom_site_fract_x
_atom_site_fract_y
_atom_site_fract_z
Si Si1 0.245340 0.546516 0.964641
Si Si2 0.576402 0.558086 0.970500
Si Si3 0.656450 0.006948 0.367196
Si Si4 0.000000 0.037447 0.250000
Si Si5 0.383669 0.228790 0.301011
Si Si6 0.273963 0.109383 0.338622
Si Si7 0.957304 0.140560 0.655260
O O1 0.172875 0.511181 0.956932
O O2 0.364814 0.502916 0.876216
O O3 0.329109 0.604318 0.835629
O O4 0.167503 0.570210 0.137044
O O5 0.736774 0.538545 0.796228
O O6 0.549581 0.618014 0.941040
O O7 0.500000 0.500000 0.000000
O O8 0.524819 0.568416 0.126864
O O9 0.703042 0.073146 0.279944
O O10 0.500000 0.000000 0.500000
O O11 0.500000 0.207017 0.250000
O O12 0.250000 0.250000 0.500000
O O13 0.342059 0.175269 0.276127
O O14 0.441525 0.288827 0.190983
O O15 0.108439 0.118015 0.529379
#
# Coordination Sequence:
#
# PCOD9300538 Si02
#       7
#     8   8   8   4   8   8   8
#     4  11  18  32  57  78 113 146 185 230 282 341
#     4  11  19  34  59  83 109 151 194 237 289 343
#     4  11  24  35  50  85 118 150 184 235 302 344
#     4  12  16  32  60  88  98 146 200 232 280 342
#     4  12  24  34  54  83 112 157 196 225 282 350
#     4  12  21  37  55  80 119 154 183 233 285 342
#     4  11  19  37  55  81 117 149 190 238 277 344
#
# _framework density 16.744377
#
# number of rings (size 3 to 8) (size 9 to 14) (size 15 to 20)
#    0.000    0.615   10.769    0.000    2.154    0.000 
#    0.000    0.000    0.000    0.000    0.000    6.462 
#    0.000    0.000    0.000    0.000    0.000    0.000 
#
# Total GULP energy -144957.228019 kJ/mol
# GULP energy per Si atom -5575.278001 kJ/mol
# Density = 1.670627 g / cm^3
# Si number density = 16.744377 Si / 1000 Ang^3
#
#
#
# Elastic Constant Matrix: (Units=GPa)
#
#
# Indices 1 2 3 4 5 6 
#
# 1 104.8834 46.6536 28.8480 0.0015 5.9193 0.0002
# 2 46.6536 80.0668 14.2784 0.0014 3.6229 -0.0002
# 3 28.8480 14.2784 50.6763 0.0025 -3.6106 -0.0016
# 4 0.0015 0.0014 0.0025 24.8616 -0.0012 2.4217
# 5 5.9193 3.6229 -3.6106 -0.0012 38.7072 0.0005
# 6 0.0002 -0.0002 -0.0016 2.4217 0.0005 33.8191
#
#
#
# Elastic Compliance Matrix: (Units=1/GPa)
#
#
# Indices 1 2 3 4 5 6 
#
# 1 0.014681 -0.007306 -0.006453 0.000000 -0.002163 0.000000
# 2 -0.007306 0.016883 -0.000635 0.000000 -0.000522 0.000000
# 3 -0.006453 -0.000635 0.023818 -0.000002 0.003268 0.000001
# 4 0.000000 0.000000 -0.000002 0.040505 0.000001 -0.002900
# 5 -0.002163 -0.000522 0.003268 0.000001 0.026520 0.000000
# 6 0.000000 0.000000 0.000001 -0.002900 0.000000 0.029777
#
#
# Mechanical properties :
#
#
# Convention : Reuss Voigt Hill
#
# Bulk Modulus (GPa) = 37.60157 46.13183 41.86670
# Shear Modulus (GPa) = 26.33830 29.20068 27.76949
#
# Velocity S-wave (km/s) = 3.97036 4.18054 4.07681
# Velocity P-wave (km/s) = 6.59722 7.13534 6.87155
#
# Compressibility (1/GPa) = 0.02659463
#
# Stress axis : x y z
#
# Youngs Moduli (GPa) = 68.11492 59.22963 41.98429
#
# Poissons Ratio (x) = 0.43272 0.27093
# Poissons Ratio (y) = 0.49763 0.02668
# Poissons Ratio (z) = 0.43955 0.03763
#
# Static dielectric constant tensor:
#      x y z
#    x 1.615490 0.000000 0.018440 
#    y 0.000000 1.561400 0.000000 
#    z 0.018440 0.000000 1.674830 
# 
# From -- ./inp_files/163615.got.cif
#   From: 2010.05.17/outbox.cif.g08.bks.cpg/sg15_82_cif.got.tgz:163615.got - 2010.06.03 18:47:42.
