data_PCOD9300986
_publ_section_title
;
Structure prediction by ZEFSAII (Michael W. Deem and Ramdas Pophale) SiO2 
 PCOD9300986
Probable space group: C 2/C
;
_chemical_formula_sum "Si O2"
_cell_formula_units_Z 40
_cell_length_a 8.260558
_cell_length_b 16.228356
_cell_length_c 12.074136
_cell_angle_alpha 90.000000
_cell_angle_beta 104.697965
_cell_angle_gamma 90.000000
_cell_volume 1565.635752
_symmetry_space_group_name_H-M "C 2/C"
_symmetry_group_IT_number 15
_symmetry_cell_setting 'monoclinic'
loop_
_space_group_symop_operation_xyz
x,y,z
-x,y,1/2-z
-x,-y,-z
x,-y,1/2+z
1/2+x,1/2+y,z
1/2-x,1/2+y,1/2-z
1/2-x,1/2-y,-z
1/2+x,1/2-y,1/2+z
loop_
_atom_site_type_symbol
_atom_site_label
_atom_site_fract_x
_atom_site_fract_y
_atom_site_fract_z
Si Si1 0.320105 0.672804 0.664729
Si Si2 0.293581 0.135926 0.092717
Si Si3 0.997147 0.963676 0.625756
Si Si4 0.650852 0.799316 0.334272
Si Si5 0.345947 0.859148 0.926588
O O1 0.500000 0.673798 0.750000
O O2 0.282482 0.768512 0.627244
O O3 0.287308 0.627612 0.544265
O O4 0.207240 0.640985 0.746259
O O5 0.490049 0.113472 0.112835
O O6 0.172697 0.086655 0.152680
O O7 0.824124 0.911307 0.598886
O O8 0.000000 0.005158 0.750000
O O9 0.000000 0.000000 0.500000
O O10 0.500000 0.751047 0.250000
O O11 0.602190 0.845144 0.436725
O O12 0.796086 0.733934 0.382807
#
# Coordination Sequence:
#
# PCOD9300986 Si02
#       5
#     8   8   8   8   8
#     4  11  20  35  62 105 147 175 213 274 348 428
#     4  11  24  41  67 104 136 181 230 277 350 422
#     4  12  30  52  72  97 136 189 247 300 346 403
#     4  11  20  35  62 107 148 177 215 276 352 427
#     4  11  23  41  69 102 141 184 229 282 350 425
#
# _framework density 25.548729000000002
#
# number of rings (size 3 to 8) (size 9 to 14) (size 15 to 20)
#    0.000    0.800    4.000    4.200    5.600    3.200 
#    0.000    0.000    0.000    0.000    0.000    0.000 
#    0.000    0.000    0.000    0.000    0.000    0.000 
#
# Total GULP energy -111691.568167 kJ/mol
# GULP energy per Si atom -5584.578408 kJ/mol
# Density = 2.549058 g / cm^3
# Si number density = 25.548729 Si / 1000 Ang^3
#
#
#
# Elastic Constant Matrix: (Units=GPa)
#
#
# Indices 1 2 3 4 5 6 
#
# 1 180.1550 30.7035 61.9197 0.0000 -20.9053 0.0000
# 2 30.7035 50.9137 23.1031 0.0000 -23.3035 0.0000
# 3 61.9197 23.1031 198.6454 0.0000 -30.2127 0.0000
# 4 0.0000 0.0000 0.0000 15.0512 0.0000 -9.3848
# 5 -20.9053 -23.3035 -30.2127 0.0000 50.4796 0.0000
# 6 0.0000 0.0000 0.0000 -9.3848 0.0000 27.5803
#
#
#
# Elastic Compliance Matrix: (Units=1/GPa)
#
#
# Indices 1 2 3 4 5 6 
#
# 1 0.006697 -0.003130 -0.001674 0.000000 0.000327 0.000000
# 2 -0.003130 0.026657 -0.000495 0.000000 0.010713 0.000000
# 3 -0.001674 -0.000495 0.006021 0.000000 0.002682 0.000000
# 4 0.000000 0.000000 0.000000 0.084333 0.000000 0.028696
# 5 0.000327 0.010713 0.002682 0.000000 0.026496 0.000000
# 6 0.000000 0.000000 0.000000 0.028696 0.000000 0.046022
#
#
# Mechanical properties :
#
#
# Convention : Reuss Voigt Hill
#
# Bulk Modulus (GPa) = 34.74901 73.46296 54.10598
# Shear Modulus (GPa) = 23.10353 39.55475 31.32914
#
# Velocity S-wave (km/s) = 3.01041 3.93900 3.50559
# Velocity P-wave (km/s) = 5.07090 7.03591 6.13262
#
# Compressibility (1/GPa) = 0.02877780
#
# Stress axis : x y z
#
# Youngs Moduli (GPa) = 149.31096 37.51400 166.07437
#
# Poissons Ratio (x) = 0.11741 0.27800
# Poissons Ratio (y) = 0.46729 0.08226
# Poissons Ratio (z) = 0.24994 0.01858
#
# Static dielectric constant tensor:
#      x y z
#    x 2.270390 0.000000 -0.047550 
#    y 0.000000 2.018820 0.000000 
#    z -0.047550 0.000000 2.045550 
# 
# From -- ./inp_files/77870.got.cif
#   From: 2010.05.17/outbox.cif.g08.bks.cpg/sg15_39_cif.got.tgz:77870.got - 2010.06.03 18:47:42.
