data_PCOD9300537
_publ_section_title
;
Structure prediction by ZEFSAII (Michael W. Deem and Ramdas Pophale) SiO2 
 PCOD9300537
Probable space group: C 2/C
;
_chemical_formula_sum "Si O2"
_cell_formula_units_Z 64
_cell_length_a 14.286568
_cell_length_b 14.793930
_cell_length_c 17.048784
_cell_angle_alpha 90.000000
_cell_angle_beta 122.848662
_cell_angle_gamma 90.000000
_cell_volume 3027.185826
_symmetry_space_group_name_H-M "C 2/C"
_symmetry_group_IT_number 15
_symmetry_cell_setting 'monoclinic'
loop_
_space_group_symop_operation_xyz
x,y,z
-x,y,1/2-z
-x,-y,-z
x,-y,1/2+z
1/2+x,1/2+y,z
1/2-x,1/2+y,1/2-z
1/2-x,1/2-y,-z
1/2+x,1/2-y,1/2+z
loop_
_atom_site_type_symbol
_atom_site_label
_atom_site_fract_x
_atom_site_fract_y
_atom_site_fract_z
Si Si1 0.521387 0.500001 0.852362
Si Si2 0.862739 0.853010 0.855060
Si Si3 0.785195 0.500001 0.959027
Si Si4 0.137262 0.146991 0.644940
Si Si5 0.347840 0.852885 0.860698
Si Si6 0.847841 0.647116 0.860698
Si Si7 0.444994 1.000000 0.309089
Si Si8 0.748750 0.500000 0.607149
O O1 0.500000 0.500001 0.750000
O O2 0.462155 0.412465 0.863617
O O3 0.653975 0.500001 0.919197
O O4 0.462154 0.587536 0.863617
O O5 0.764879 0.849327 0.744001
O O6 0.885250 0.749915 0.888333
O O7 0.821858 0.909038 0.912714
O O8 0.817922 0.412639 0.923227
O O9 0.817922 0.587362 0.923228
O O10 0.828899 0.500000 0.068007
O O11 0.114751 0.250085 0.611667
O O12 0.235122 0.150674 0.755999
O O13 0.178142 0.090962 0.587286
O O14 0.444654 0.909804 0.860726
O O15 0.944654 0.590196 0.860726
O O16 0.500000 1.000000 0.250000
O O17 0.316897 1.000000 0.219219
#
# Coordination Sequence:
#
# PCOD9300537 Si02
#       8
#     8   8   8   8   8   8   8   8
#     4  11  18  32  56  84 102 137 187 218 247 315
#     4   9  18  34  52  75 109 138 176 216 257 309
#     4  11  20  34  57  79 109 141 172 217 273 312
#     4   9  18  34  52  75 109 138 176 216 257 309
#     4   9  18  34  54  77 104 141 174 217 263 304
#     4   9  18  34  54  77 104 141 174 217 263 304
#     4   9  18  36  57  76  98 139 185 212 250 317
#     4   9  20  35  54  76 110 138 164 219 276 311
#
# _framework density 21.141749000000001
#
# number of rings (size 3 to 8) (size 9 to 14) (size 15 to 20)
#    0.000    2.500    2.500    1.500    0.000    4.000 
#    4.500    2.500    5.500    0.000    0.000    0.000 
#    0.000    0.000    0.000    0.000    0.000    0.000 
#
# Total GULP energy -178351.529696 kJ/mol
# GULP energy per Si atom -5573.485303 kJ/mol
# Density = 2.109363 g / cm^3
# Si number density = 21.141749 Si / 1000 Ang^3
#
#
#
# Elastic Constant Matrix: (Units=GPa)
#
#
# Indices 1 2 3 4 5 6 
#
# 1 81.7238 68.7335 6.3698 0.0000 -30.3681 0.0000
# 2 68.7335 252.1949 41.3125 0.0000 -46.4291 0.0000
# 3 6.3698 41.3125 84.5986 0.0000 -22.0716 0.0000
# 4 0.0000 0.0000 0.0000 8.8645 0.0000 -1.0110
# 5 -30.3681 -46.4291 -22.0716 0.0000 50.4689 0.0000
# 6 0.0000 0.0000 0.0000 -1.0110 0.0000 9.8948
#
#
#
# Elastic Compliance Matrix: (Units=1/GPa)
#
#
# Indices 1 2 3 4 5 6 
#
# 1 0.018572 -0.003898 0.002805 0.000000 0.008816 0.000000
# 2 -0.003898 0.005730 -0.001966 0.000000 0.002066 0.000000
# 3 0.002805 -0.001966 0.014153 0.000000 0.006069 0.000000
# 4 0.000000 0.000000 0.000000 0.114140 0.000000 0.011663
# 5 0.008816 0.002066 0.006069 0.000000 0.029674 0.000000
# 6 0.000000 0.000000 0.000000 0.011663 0.000000 0.102255
#
#
# Mechanical properties :
#
#
# Convention : Reuss Voigt Hill
#
# Bulk Modulus (GPa) = 30.92360 72.37210 51.64785
# Shear Modulus (GPa) = 16.58817 33.98574 25.28696
#
# Velocity S-wave (km/s) = 2.80414 4.01374 3.46217
# Velocity P-wave (km/s) = 5.01426 7.46902 6.36117
#
# Compressibility (1/GPa) = 0.03233776
#
# Stress axis : x y z
#
# Youngs Moduli (GPa) = 53.84384 174.52119 70.65843
#
# Poissons Ratio (x) = 0.68032 -0.19822
# Poissons Ratio (y) = 0.20990 0.13889
# Poissons Ratio (z) = -0.15105 0.34304
#
# Static dielectric constant tensor:
#      x y z
#    x 1.962950 0.000000 0.406680 
#    y 0.000000 1.760420 0.000000 
#    z 0.406680 0.000000 2.372490 
# 
# From -- ./inp_files/205130.got.cif
#   From: 2010.05.17/outbox.cif.g08.bks.cpg/sg15_103_cif.got.tgz:205130.got - 2010.06.03 18:47:42.
