data_PCOD9300775
_publ_section_title
;
Structure prediction by ZEFSAII (Michael W. Deem and Ramdas Pophale) SiO2 
 PCOD9300775
Probable space group: C 2/C
;
_chemical_formula_sum "Si O2"
_cell_formula_units_Z 64
_cell_length_a 15.862463
_cell_length_b 15.585226
_cell_length_c 15.872209
_cell_angle_alpha 90.000000
_cell_angle_beta 134.034990
_cell_angle_gamma 90.000000
_cell_volume 2820.972898
_symmetry_space_group_name_H-M "C 2/C"
_symmetry_group_IT_number 15
_symmetry_cell_setting 'monoclinic'
loop_
_space_group_symop_operation_xyz
x,y,z
-x,y,1/2-z
-x,-y,-z
x,-y,1/2+z
1/2+x,1/2+y,z
1/2-x,1/2+y,1/2-z
1/2-x,1/2-y,-z
1/2+x,1/2-y,1/2+z
loop_
_atom_site_type_symbol
_atom_site_label
_atom_site_fract_x
_atom_site_fract_y
_atom_site_fract_z
Si Si1 0.082186 0.606459 0.702432
Si Si2 0.800589 0.236646 0.128928
Si Si3 0.809080 0.880740 0.241614
Si Si4 0.393901 0.086996 0.291759
Si Si5 0.160847 0.066358 0.251717
Si Si6 0.963423 0.862738 0.982917
Si Si7 0.942589 0.310941 0.977190
Si Si8 0.764828 0.288490 0.600938
O O1 0.118314 0.682058 0.791698
O O2 0.190282 0.608860 0.711945
O O3 0.075693 0.506720 0.719990
O O4 0.962941 0.627100 0.569705
O O5 0.853178 0.142735 0.189637
O O6 0.750000 0.250000 0.000000
O O7 0.685307 0.231728 0.108484
O O8 0.791099 0.793838 0.177881
O O9 0.922425 0.876328 0.381454
O O10 0.827844 0.970507 0.204536
O O11 0.278000 0.080249 0.274055
O O12 0.474985 0.138931 0.414317
O O13 0.368552 0.146976 0.195395
O O14 0.058607 0.073784 0.110120
O O15 0.848829 0.847750 0.959384
O O16 0.972981 0.768608 0.947713
O O17 0.750000 0.250000 0.500000
#
# Coordination Sequence:
#
# PCOD9300775 Si02
#       8
#     8   8   8   8   8   8   8   8
#     4  11  20  37  63  85 113 151 194 242 282 330
#     4  11  23  38  57  85 123 152 184 234 290 343
#     4  11  20  37  63  85 113 151 194 242 282 330
#     4   9  20  37  60  88 111 147 198 238 278 339
#     4   9  20  37  60  88 111 147 198 238 278 339
#     4  11  19  38  64  84 108 149 199 235 279 335
#     4  11  19  38  64  84 108 149 199 235 279 335
#     4  11  23  38  57  85 123 152 184 234 290 343
#
# _framework density 22.687207999999998
#
# number of rings (size 3 to 8) (size 9 to 14) (size 15 to 20)
#    0.000    1.500    5.000    1.500    0.000    2.000 
#    0.000    0.000    5.500    0.000    0.000    0.000 
#    0.000    0.000    0.000    0.000    0.000    0.000 
#
# Total GULP energy -178395.638975 kJ/mol
# GULP energy per Si atom -5574.863718 kJ/mol
# Density = 2.263557 g / cm^3
# Si number density = 22.687208 Si / 1000 Ang^3
#
#
#
# Elastic Constant Matrix: (Units=GPa)
#
#
# Indices 1 2 3 4 5 6 
#
# 1 31.6495 16.8619 9.9866 0.0000 6.2781 0.0000
# 2 16.8619 155.3184 34.3938 0.0000 -13.4550 0.0000
# 3 9.9866 34.3938 90.1604 0.0000 -6.8395 0.0000
# 4 0.0000 0.0000 0.0000 19.8739 0.0000 9.4016
# 5 6.2781 -13.4550 -6.8395 0.0000 23.6276 0.0000
# 6 0.0000 0.0000 0.0000 9.4016 0.0000 -1.7523
#
#
#
# Elastic Compliance Matrix: (Units=1/GPa)
#
#
# Indices 1 2 3 4 5 6 
#
# 1 0.037807 -0.004510 -0.003501 0.000000 -0.013627 0.000000
# 2 -0.004510 0.007831 -0.002105 0.000000 0.005049 0.000000
# 3 -0.003501 -0.002105 0.012537 0.000000 0.003361 0.000000
# 4 0.000000 0.000000 0.000000 0.014222 0.000000 0.076302
# 5 -0.013627 0.005049 0.003361 0.000000 0.049792 0.000000
# 6 0.000000 0.000000 0.000000 0.076302 0.000000 -0.161294
#
#
# Mechanical properties :
#
#
# Convention : Reuss Voigt Hill
#
# Bulk Modulus (GPa) = 26.35488 44.40144 35.37816
# Shear Modulus (GPa) = -803.14833 22.74222 -390.20305
#
# Velocity S-wave (km/s) = -18.83555 3.16954 -13.12882
# Velocity P-wave (km/s) = 21.48011 5.74529 14.63535
#
# Compressibility (1/GPa) = 0.03794364
#
# Stress axis : x y z
#
# Youngs Moduli (GPa) = 26.45046 127.69024 79.76335
#
# Poissons Ratio (x) = 0.57583 0.27926
# Poissons Ratio (y) = 0.11928 0.16790
# Poissons Ratio (z) = 0.09261 0.26879
#
# Static dielectric constant tensor:
#      x y z
#    x 1.890630 0.000000 0.022350 
#    y 0.000000 1.933080 0.000000 
#    z 0.022350 0.000000 1.869630 
# 
# From -- ./inp_files/162597.got.cif
#   From: 2010.05.17/outbox.cif.g08.bks.cpg/sg15_82_cif.got.tgz:162597.got - 2010.06.03 18:47:42.
