data_PCOD9300831
_publ_section_title
;
Structure prediction by ZEFSAII (Michael W. Deem and Ramdas Pophale) SiO2 
 PCOD9300831
Probable space group: C 2/C
;
_chemical_formula_sum "Si O2"
_cell_formula_units_Z 36
_cell_length_a 6.913298
_cell_length_b 15.695365
_cell_length_c 15.851347
_cell_angle_alpha 90.000000
_cell_angle_beta 113.653348
_cell_angle_gamma 90.000000
_cell_volume 1575.481828
_symmetry_space_group_name_H-M "C 2/C"
_symmetry_group_IT_number 15
_symmetry_cell_setting 'monoclinic'
loop_
_space_group_symop_operation_xyz
x,y,z
-x,y,1/2-z
-x,-y,-z
x,-y,1/2+z
1/2+x,1/2+y,z
1/2-x,1/2+y,1/2-z
1/2-x,1/2-y,-z
1/2+x,1/2-y,1/2+z
loop_
_atom_site_type_symbol
_atom_site_label
_atom_site_fract_x
_atom_site_fract_y
_atom_site_fract_z
Si Si1 0.044102 0.370251 0.082392
Si Si2 0.143167 0.524605 0.357455
Si Si3 0.084615 0.015230 0.857051
Si Si4 0.000000 0.727588 0.750000
Si Si5 0.636645 0.845364 0.617559
O O1 0.913419 0.456644 0.080177
O O2 0.049427 0.323570 0.172920
O O3 0.935814 0.318337 0.988340
O O4 0.269687 0.406003 0.090375
O O5 0.000000 0.503690 0.250000
O O6 0.069593 0.619395 0.369813
O O7 0.224205 0.931090 0.868384
O O8 0.000000 0.039535 0.750000
O O9 0.885355 0.989585 0.877725
O O10 0.789491 0.781400 0.692130
#
# Coordination Sequence:
#
# PCOD9300831 Si02
#       5
#     8   8   8   4   8
#     4  11  24  40  66 100 136 179 228 280 338 411
#     4  11  19  40  69 100 131 177 227 276 337 403
#     4  11  19  40  69 100 131 177 227 276 337 403
#     4  12  22  48  66  98 150 182 218 286 356 398
#     4  11  24  40  66 100 136 179 228 280 338 411
#
# _framework density 22.850151
#
# number of rings (size 3 to 8) (size 9 to 14) (size 15 to 20)
#    0.000    0.889    6.667    3.333    0.000    3.556 
#    0.000   10.000    0.000   13.333    0.000    0.000 
#    0.000    0.000    0.000    0.000    0.000    0.000 
#
# Total GULP energy -100632.744201 kJ/mol
# GULP energy per Si atom -5590.708011 kJ/mol
# Density = 2.279814 g / cm^3
# Si number density = 22.850151 Si / 1000 Ang^3
#
#
#
# Elastic Constant Matrix: (Units=GPa)
#
#
# Indices 1 2 3 4 5 6 
#
# 1 153.5569 30.7632 6.0479 0.0000 -2.3273 0.0000
# 2 30.7632 67.2879 36.1721 0.0000 2.9659 0.0000
# 3 6.0479 36.1721 129.4284 0.0000 3.9729 0.0000
# 4 0.0000 0.0000 0.0000 -913.3422 0.0000 -312.3736
# 5 -2.3273 2.9659 3.9729 0.0000 21.9202 0.0000
# 6 0.0000 0.0000 0.0000 -312.3736 0.0000 -74.4100
#
#
#
# Elastic Compliance Matrix: (Units=1/GPa)
#
#
# Indices 1 2 3 4 5 6 
#
# 1 0.007249 -0.003723 0.000666 0.000000 0.001153 0.000000
# 2 -0.003723 0.019450 -0.005198 0.000000 -0.002085 0.000000
# 3 0.000666 -0.005198 0.009175 0.000000 -0.000889 0.000000
# 4 0.000000 0.000000 0.000000 0.002513 0.000000 -0.010548
# 5 0.001153 -0.002085 -0.000889 0.000000 0.046186 0.000000
# 6 0.000000 0.000000 0.000000 -0.010548 0.000000 0.030840
#
#
# Mechanical properties :
#
#
# Convention : Reuss Voigt Hill
#
# Bulk Modulus (GPa) = 51.63982 55.13774 53.38878
# Shear Modulus (GPa) = 36.13317 -174.68041 -69.27362
#
# Velocity S-wave (km/s) = 3.98088 -8.75283 -5.51201
# Velocity P-wave (km/s) = 6.61652 8.82988 4.13452
#
# Compressibility (1/GPa) = 0.01936490
#
# Stress axis : x y z
#
# Youngs Moduli (GPa) = 137.94228 51.41412 108.99089
#
# Poissons Ratio (x) = 0.19144 -0.07264
# Poissons Ratio (y) = 0.51362 0.56651
# Poissons Ratio (z) = -0.09194 0.26724
#
# Static dielectric constant tensor:
#      x y z
#    x 1.886290 0.000000 -0.002500 
#    y 0.000000 1.834140 0.000000 
#    z -0.002500 0.000000 1.887280 
# 
# From -- ./inp_files/134043.got.cif
#   From: 2010.05.17/outbox.cif.g08.bks.cpg/sg15_68_cif.got.tgz:134043.got - 2010.06.03 18:47:42.
