data_PCOD9300329
_publ_section_title
;
Structure prediction by ZEFSAII (Michael W. Deem and Ramdas Pophale) SiO2 
 PCOD9300329
Probable space group: C 2/C
;
_chemical_formula_sum "Si O2"
_cell_formula_units_Z 28
_cell_length_a 21.128701
_cell_length_b 5.236078
_cell_length_c 16.198176
_cell_angle_alpha 90.000000
_cell_angle_beta 41.896714
_cell_angle_gamma 90.000000
_cell_volume 1196.698765
_symmetry_space_group_name_H-M "C 2/C"
_symmetry_group_IT_number 15
_symmetry_cell_setting 'monoclinic'
loop_
_space_group_symop_operation_xyz
x,y,z
-x,y,1/2-z
-x,-y,-z
x,-y,1/2+z
1/2+x,1/2+y,z
1/2-x,1/2+y,1/2-z
1/2-x,1/2-y,-z
1/2+x,1/2-y,1/2+z
loop_
_atom_site_type_symbol
_atom_site_label
_atom_site_fract_x
_atom_site_fract_y
_atom_site_fract_z
Si Si1 0.049268 0.444505 0.039192
Si Si2 0.000000 0.194495 0.250000
Si Si3 0.674883 0.371367 0.012691
Si Si4 0.719555 0.644022 0.824695
O O1 0.119991 0.662850 0.007572
O O2 0.988132 0.362331 0.178128
O O3 0.110763 0.202925 0.949749
O O4 0.000000 0.500000 0.000000
O O5 0.907176 0.024498 0.359152
O O6 0.750000 0.250000 0.000000
O O7 0.745759 0.546486 0.889016
O O8 0.735196 0.407097 0.748951
#
# Coordination Sequence:
#
# PCOD9300329 Si02
#       4
#     8   4   8   8
#     4  11  26  49  76 112 161 208 265 334 404 478
#     4  10  26  48  80 118 156 212 270 332 400 484
#     4  11  26  49  76 112 161 208 265 334 404 478
#     4  11  24  47  74 113 150 199 262 320 388 479
#
# _framework density 23.397703
#
# number of rings (size 3 to 8) (size 9 to 14) (size 15 to 20)
#    0.000    1.143    2.857    0.857    0.000   18.286 
#    5.143    0.000    0.000    0.000    0.000    0.000 
#    0.000    0.000    0.000    0.000    0.000    0.000 
#
# Total GULP energy -78075.821479 kJ/mol
# GULP energy per Si atom -5576.844391 kJ/mol
# Density = 2.334445 g / cm^3
# Si number density = 23.397703 Si / 1000 Ang^3
#
#
#
# Elastic Constant Matrix: (Units=GPa)
#
#
# Indices 1 2 3 4 5 6 
#
# 1 141.6462 49.2252 57.1635 0.1130 32.5639 0.2376
# 2 49.2252 140.3367 86.7102 0.1437 16.9104 0.3059
# 3 57.1635 86.7102 200.3457 0.0409 33.2931 0.0997
# 4 0.1130 0.1437 0.0409 6.3502 -0.1620 -153.1211
# 5 32.5639 16.9104 33.2931 -0.1620 28.8715 -0.3092
# 6 0.2376 0.3059 0.0997 -153.1211 -0.3092 -321.6286
#
#
#
# Elastic Compliance Matrix: (Units=1/GPa)
#
#
# Indices 1 2 3 4 5 6 
#
# 1 0.010223 -0.002195 -0.000327 -0.000002 -0.009868 0.000016
# 2 -0.002195 0.010223 -0.003977 0.000000 0.001073 0.000006
# 3 -0.000327 -0.003977 0.007865 -0.000001 -0.006371 0.000005
# 4 -0.000002 0.000000 -0.000001 0.012619 0.000009 -0.006007
# 5 -0.009868 0.001073 -0.006371 0.000009 0.052483 -0.000063
# 6 0.000016 0.000006 0.000005 -0.006007 -0.000063 -0.000249
#
#
# Mechanical properties :
#
#
# Convention : Reuss Voigt Hill
#
# Bulk Modulus (GPa) = 65.30244 96.50295 80.90269
# Shear Modulus (GPa) = 44.93760 -37.99940 3.46910
#
# Velocity S-wave (km/s) = 4.38722 -4.03434 1.21897
# Velocity P-wave (km/s) = 7.32352 4.43091 6.05256
#
# Compressibility (1/GPa) = 0.01531336
#
# Stress axis : x y z
#
# Youngs Moduli (GPa) = 97.81766 97.81482 127.15200
#
# Poissons Ratio (x) = 0.21468 0.04161
# Poissons Ratio (y) = 0.21468 0.50567
# Poissons Ratio (z) = 0.03201 0.38900
#
# Static dielectric constant tensor:
#      x y z
#    x 2.171880 0.000190 0.132180 
#    y 0.000190 2.325370 0.000110 
#    z 0.132180 0.000110 1.966160 
# 
# From -- ./inp_files/71520.got.cif
#   From: 2010.05.17/outbox.cif.g08.bks.cpg/sg15_36_cif.got.tgz:71520.got - 2010.06.03 18:47:42.
