data_PCOD9300413
_publ_section_title
;
Structure prediction by ZEFSAII (Michael W. Deem and Ramdas Pophale) SiO2 
 PCOD9300413
Probable space group: C 2/C
;
_chemical_formula_sum "Si O2"
_cell_formula_units_Z 32
_cell_length_a 17.746162
_cell_length_b 4.952438
_cell_length_c 13.129497
_cell_angle_alpha 90.000000
_cell_angle_beta 80.858993
_cell_angle_gamma 90.000000
_cell_volume 1139.254814
_symmetry_space_group_name_H-M "C 2/C"
_symmetry_group_IT_number 15
_symmetry_cell_setting 'monoclinic'
loop_
_space_group_symop_operation_xyz
x,y,z
-x,y,1/2-z
-x,-y,-z
x,-y,1/2+z
1/2+x,1/2+y,z
1/2-x,1/2+y,1/2-z
1/2-x,1/2-y,-z
1/2+x,1/2-y,1/2+z
loop_
_atom_site_type_symbol
_atom_site_label
_atom_site_fract_x
_atom_site_fract_y
_atom_site_fract_z
Si Si1 0.479938 0.246315 0.076037
Si Si2 0.928002 0.347475 0.316513
Si Si3 0.705570 0.766976 0.301908
Si Si4 0.670634 0.383349 0.479374
O O1 0.387414 0.274920 0.097641
O O2 0.537753 0.135969 0.151882
O O3 0.500000 0.500000 0.000000
O O4 0.500000 0.000000 0.000000
O O5 0.882573 0.180975 0.411640
O O6 0.000000 0.197645 0.250000
O O7 0.870495 0.363907 0.236293
O O8 0.764313 0.007786 0.268198
O O9 0.693149 0.669312 0.421268
O O10 0.750000 0.250000 0.500000
#
# Coordination Sequence:
#
# PCOD9300413 Si02
#       4
#     8   8   8   8
#     4  10  26  52  81 122 167 228 293 368 452 527
#     4  11  28  54  86 133 180 241 302 377 456 552
#     4  12  30  54  85 131 179 242 311 379 465 540
#     4  11  26  54  87 125 179 233 303 381 447 537
#
# _framework density 28.088532000000001
#
# number of rings (size 3 to 8) (size 9 to 14) (size 15 to 20)
#    0.000    1.000    2.500    0.000   10.500    7.000 
#    0.000    0.000    0.000    0.000    0.000    0.000 
#    0.000    0.000    0.000    0.000    0.000    0.000 
#
# Total GULP energy -89208.511907 kJ/mol
# GULP energy per Si atom -5575.531994 kJ/mol
# Density = 2.802460 g / cm^3
# Si number density = 28.088532 Si / 1000 Ang^3
#
#
#
# Elastic Constant Matrix: (Units=GPa)
#
#
# Indices 1 2 3 4 5 6 
#
# 1 257.1074 64.1922 85.5006 0.0000 24.4316 0.0000
# 2 64.1922 196.7158 82.5161 0.0000 10.2657 0.0000
# 3 85.5006 82.5161 180.3442 0.0000 -10.9753 0.0000
# 4 0.0000 0.0000 0.0000 537.8393 0.0000 193.6274
# 5 24.4316 10.2657 -10.9753 0.0000 73.2712 0.0000
# 6 0.0000 0.0000 0.0000 193.6274 0.0000 113.3519
#
#
#
# Elastic Compliance Matrix: (Units=1/GPa)
#
#
# Indices 1 2 3 4 5 6 
#
# 1 0.004946 -0.000598 -0.002186 0.000000 -0.001893 0.000000
# 2 -0.000598 0.006493 -0.002756 0.000000 -0.001123 0.000000
# 3 -0.002186 -0.002756 0.007983 0.000000 0.002311 0.000000
# 4 0.000000 0.000000 0.000000 0.004829 0.000000 -0.008249
# 5 -0.001893 -0.001123 0.002311 0.000000 0.014783 0.000000
# 6 0.000000 0.000000 0.000000 -0.008249 0.000000 0.022913
#
#
# Mechanical properties :
#
#
# Convention : Reuss Voigt Hill
#
# Bulk Modulus (GPa) = 119.87993 122.06504 120.97249
# Shear Modulus (GPa) = 65.95734 171.68971 118.82352
#
# Velocity S-wave (km/s) = 4.85107 7.82670 6.51115
# Velocity P-wave (km/s) = 8.61099 11.19052 9.98441
#
# Compressibility (1/GPa) = 0.00834168
#
# Stress axis : x y z
#
# Youngs Moduli (GPa) = 202.19859 154.00745 125.26622
#
# Poissons Ratio (x) = 0.09210 0.27387
# Poissons Ratio (y) = 0.12092 0.34521
# Poissons Ratio (z) = 0.44206 0.42441
#
# Static dielectric constant tensor:
#      x y z
#    x 2.238960 0.000000 0.059190 
#    y 0.000000 2.286920 0.000000 
#    z 0.059190 0.000000 2.341770 
# 
# From -- ./inp_files/158224.got.cif
#   From: 2010.05.17/outbox.cif.g08.bks.cpg/sg15_80_cif.got.tgz:158224.got - 2010.06.03 18:47:42.
