data_PCOD9300857
_publ_section_title
;
Structure prediction by ZEFSAII (Michael W. Deem and Ramdas Pophale) SiO2 
 PCOD9300857
Probable space group: C 2/C
;
_chemical_formula_sum "Si O2"
_cell_formula_units_Z 44
_cell_length_a 16.328624
_cell_length_b 8.484306
_cell_length_c 29.732345
_cell_angle_alpha 90.000000
_cell_angle_beta 27.285660
_cell_angle_gamma 90.000000
_cell_volume 1888.275654
_symmetry_space_group_name_H-M "C 2/C"
_symmetry_group_IT_number 15
_symmetry_cell_setting 'monoclinic'
loop_
_space_group_symop_operation_xyz
x,y,z
-x,y,1/2-z
-x,-y,-z
x,-y,1/2+z
1/2+x,1/2+y,z
1/2-x,1/2+y,1/2-z
1/2-x,1/2-y,-z
1/2+x,1/2-y,1/2+z
loop_
_atom_site_type_symbol
_atom_site_label
_atom_site_fract_x
_atom_site_fract_y
_atom_site_fract_z
Si Si1 0.878835 0.136948 0.466538
Si Si2 0.592016 0.615729 0.620014
Si Si3 0.500000 0.600898 0.250000
Si Si4 0.220058 0.869613 0.383551
Si Si5 0.227535 0.690368 0.193318
Si Si6 0.897409 0.655111 0.530914
O O1 0.750000 0.250000 0.500000
O O2 0.785200 0.105102 0.560168
O O3 0.078881 0.207914 0.376951
O O4 0.914031 0.976362 0.423203
O O5 0.541473 0.492605 0.684368
O O6 0.447883 0.756256 0.694145
O O7 0.798304 0.645574 0.531948
O O8 0.339758 0.718206 0.316451
O O9 0.719264 0.984068 0.676059
O O10 0.022656 0.807710 0.469264
O O11 0.245589 0.805138 0.141593
O O12 0.000000 0.500000 0.500000
#
# Coordination Sequence:
#
# PCOD9300857 Si02
#       6
#     8   8   4   8   8   8
#     4  11  23  46  71 109 143 184 237 308 357 415
#     4  12  23  43  75 109 139 190 243 296 361 429
#     4  12  22  40  76 100 142 192 234 292 352 438
#     4  11  25  45  71 103 144 192 237 292 365 428
#     4  11  25  45  68 103 146 187 238 293 356 440
#     4  11  19  41  70 101 134 188 233 281 351 440
#
# _framework density 23.301680999999999
#
# number of rings (size 3 to 8) (size 9 to 14) (size 15 to 20)
#    0.000    0.727    5.455    3.273    2.545    1.455 
#    0.000    5.455    0.000    0.000    0.000    0.000 
#    0.000    0.000    0.000    0.000    0.000    0.000 
#
# Total GULP energy -123050.962187 kJ/mol
# GULP energy per Si atom -5593.225554 kJ/mol
# Density = 2.324865 g / cm^3
# Si number density = 23.301681 Si / 1000 Ang^3
#
#
#
# Elastic Constant Matrix: (Units=GPa)
#
#
# Indices 1 2 3 4 5 6 
#
# 1 108.5798 39.1684 27.1457 0.0005 -11.2529 -0.0010
# 2 39.1684 123.2465 48.6391 0.0021 11.2258 0.0000
# 3 27.1457 48.6391 71.7519 -0.0005 -1.2934 -0.0002
# 4 0.0005 0.0021 -0.0005 48.7710 -0.0001 0.8983
# 5 -11.2529 11.2258 -1.2934 -0.0001 26.4814 0.0003
# 6 -0.0010 0.0000 -0.0002 0.8983 0.0003 44.3288
#
#
#
# Elastic Compliance Matrix: (Units=1/GPa)
#
#
# Indices 1 2 3 4 5 6 
#
# 1 0.011609 -0.003519 -0.001892 0.000000 0.006332 0.000000
# 2 -0.003519 0.012868 -0.007523 -0.000001 -0.007318 0.000000
# 3 -0.001892 -0.007523 0.019813 0.000001 0.003353 0.000000
# 4 0.000000 -0.000001 0.000001 0.020512 0.000000 -0.000416
# 5 0.006332 -0.007318 0.003353 0.000000 0.043719 0.000000
# 6 0.000000 0.000000 0.000000 -0.000416 0.000000 0.022567
#
#
# Mechanical properties :
#
#
# Convention : Reuss Voigt Hill
#
# Bulk Modulus (GPa) = 54.28820 59.27605 56.78213
# Shear Modulus (GPa) = 30.65660 36.49125 33.57392
#
# Velocity S-wave (km/s) = 3.63111 3.96161 3.79995
# Velocity P-wave (km/s) = 6.39754 6.81319 6.60863
#
# Compressibility (1/GPa) = 0.01842021
#
# Stress axis : x y z
#
# Youngs Moduli (GPa) = 86.14247 77.71272 50.47182
#
# Poissons Ratio (x) = 0.27350 0.09549
# Poissons Ratio (y) = 0.30317 0.37971
# Poissons Ratio (z) = 0.16298 0.58466
#
# Static dielectric constant tensor:
#      x y z
#    x 1.894680 0.000000 -0.078240 
#    y 0.000000 1.913960 0.000000 
#    z -0.078240 0.000000 2.052400 
# 
# From -- ./inp_files/296280.got.cif
#   From: 2010.05.17/outbox.cif.g08.bks.cpg/sg15_149_cif.got.tgz:296280.got - 2010.06.03 18:47:42.
