data_PCOD9300107
_publ_section_title
;
Structure prediction by ZEFSAII (Michael W. Deem and Ramdas Pophale) SiO2 
 PCOD9300107
Probable space group: C 2/C
;
_chemical_formula_sum "Si O2"
_cell_formula_units_Z 28
_cell_length_a 11.606390
_cell_length_b 8.952415
_cell_length_c 14.085652
_cell_angle_alpha 90.000000
_cell_angle_beta 57.794434
_cell_angle_gamma 90.000000
_cell_volume 1238.389506
_symmetry_space_group_name_H-M "C 2/C"
_symmetry_group_IT_number 15
_symmetry_cell_setting 'monoclinic'
loop_
_space_group_symop_operation_xyz
x,y,z
-x,y,1/2-z
-x,-y,-z
x,-y,1/2+z
1/2+x,1/2+y,z
1/2-x,1/2+y,1/2-z
1/2-x,1/2-y,-z
1/2+x,1/2-y,1/2+z
loop_
_atom_site_type_symbol
_atom_site_label
_atom_site_fract_x
_atom_site_fract_y
_atom_site_fract_z
Si Si1 0.000000 0.965764 0.250000
Si Si2 0.337487 0.972145 0.832591
Si Si3 0.658782 0.728775 0.812617
Si Si4 0.228693 0.398215 0.947372
O O1 0.033503 0.864269 0.326378
O O2 0.132706 0.060375 0.167406
O O3 0.500000 0.982567 0.750000
O O4 0.288295 0.822582 0.800923
O O5 0.264520 0.110000 0.810055
O O6 0.306960 0.980312 0.957883
O O7 0.626200 0.849077 0.909036
O O8 0.250000 0.250000 0.000000
#
# Coordination Sequence:
#
# PCOD9300107 Si02
#       4
#     4   8   8   8
#     4  12  24  48  68 102 146 172 238 280 342 412
#     4  11  25  45  69 103 138 180 235 276 345 407
#     4  11  24  45  70 105 136 185 225 287 341 402
#     4  10  26  44  72 102 136 189 221 287 346 398
#
# _framework density 22.610011
#
# number of rings (size 3 to 8) (size 9 to 14) (size 15 to 20)
#    0.000    1.143    4.286    0.000    8.000    9.143 
#    0.000    0.000    0.000    0.000    0.000    0.000 
#    0.000    0.000    0.000    0.000    0.000    0.000 
#
# Total GULP energy -78186.638266 kJ/mol
# GULP energy per Si atom -5584.759876 kJ/mol
# Density = 2.255855 g / cm^3
# Si number density = 22.610011 Si / 1000 Ang^3
#
#
#
# Elastic Constant Matrix: (Units=GPa)
#
#
# Indices 1 2 3 4 5 6 
#
# 1 121.4618 27.0294 28.5891 0.0000 21.2326 0.0000
# 2 27.0294 63.6906 0.3624 0.0000 9.4038 0.0000
# 3 28.5891 0.3624 72.1695 0.0000 12.6512 0.0000
# 4 0.0000 0.0000 0.0000 26.4061 0.0000 20.1027
# 5 21.2326 9.4038 12.6512 0.0000 31.4593 0.0000
# 6 0.0000 0.0000 0.0000 20.1027 0.0000 40.4831
#
#
#
# Elastic Compliance Matrix: (Units=1/GPa)
#
#
# Indices 1 2 3 4 5 6 
#
# 1 0.010709 -0.003829 -0.003396 0.000000 -0.004718 0.000000
# 2 -0.003829 0.017842 0.002054 0.000000 -0.003575 0.000000
# 3 -0.003396 0.002054 0.016027 0.000000 -0.004767 0.000000
# 4 0.000000 0.000000 0.000000 0.060888 0.000000 -0.030235
# 5 -0.004718 -0.003575 -0.004767 0.000000 0.037957 0.000000
# 6 0.000000 0.000000 0.000000 -0.030235 0.000000 0.039715
#
#
# Mechanical properties :
#
#
# Convention : Reuss Voigt Hill
#
# Bulk Modulus (GPa) = 29.20918 41.03152 35.12035
# Shear Modulus (GPa) = 24.40306 33.09243 28.74774
#
# Velocity S-wave (km/s) = 3.28884 3.82988 3.56962
# Velocity P-wave (km/s) = 5.23151 6.14363 5.70582
#
# Compressibility (1/GPa) = 0.03423581
#
# Stress axis : x y z
#
# Youngs Moduli (GPa) = 93.37811 56.04751 62.39495
#
# Poissons Ratio (x) = 0.21460 0.21190
# Poissons Ratio (y) = 0.35754 -0.12815
# Poissons Ratio (z) = 0.31712 -0.11512
#
# Static dielectric constant tensor:
#      x y z
#    x 1.810240 0.000000 0.051830 
#    y 0.000000 1.900630 0.000000 
#    z 0.051830 0.000000 1.842540 
# 
# From -- ./inp_files/83496.got.cif
#   From: 2010.05.17/outbox.cif.g08.bks.cpg/sg15_42_cif.got.tgz:83496.got - 2010.06.03 18:47:42.
