data_PCOD9300295
_publ_section_title
;
Structure prediction by ZEFSAII (Michael W. Deem and Ramdas Pophale) SiO2 
 PCOD9300295
Probable space group: C 2/C
;
_chemical_formula_sum "Si O2"
_cell_formula_units_Z 36
_cell_length_a 11.311542
_cell_length_b 9.649864
_cell_length_c 13.893342
_cell_angle_alpha 90.000000
_cell_angle_beta 68.969962
_cell_angle_gamma 90.000000
_cell_volume 1415.513452
_symmetry_space_group_name_H-M "C 2/C"
_symmetry_group_IT_number 15
_symmetry_cell_setting 'monoclinic'
loop_
_space_group_symop_operation_xyz
x,y,z
-x,y,1/2-z
-x,-y,-z
x,-y,1/2+z
1/2+x,1/2+y,z
1/2-x,1/2+y,1/2-z
1/2-x,1/2-y,-z
1/2+x,1/2-y,1/2+z
loop_
_atom_site_type_symbol
_atom_site_label
_atom_site_fract_x
_atom_site_fract_y
_atom_site_fract_z
Si Si1 0.500000 0.565921 0.250000
Si Si2 0.364225 0.846762 0.063075
Si Si3 0.274765 0.780151 0.290748
Si Si4 0.847885 0.622957 0.953192
Si Si5 0.495710 0.703725 0.859262
O O1 0.375911 0.659133 0.278119
O O2 0.504587 0.461285 0.158321
O O3 0.389253 0.746615 0.965257
O O4 0.325413 0.991057 0.026371
O O5 0.272768 0.813726 0.178065
O O6 0.502595 0.848944 0.075424
O O7 0.322537 0.903393 0.346605
O O8 0.130743 0.748732 0.360741
O O9 0.750000 0.750000 0.000000
O O10 0.500000 0.764758 0.750000
#
# Coordination Sequence:
#
# PCOD9300295 Si02
#       5
#     4   8   8   8   8
#     4  10  26  48  72 110 158 192 266 306 400 442
#     4  11  25  44  79 115 150 205 260 315 394 460
#     4  12  24  49  81 106 157 210 248 327 390 464
#     4  11  24  44  77 114 155 200 258 321 398 457
#     4  10  27  49  71 114 155 199 260 320 376 472
#
# _framework density 25.432466999999999
#
# number of rings (size 3 to 8) (size 9 to 14) (size 15 to 20)
#    0.667    0.444    4.444    0.000    3.111    7.111 
#    0.000    0.000    4.889    0.000    0.000    0.000 
#    0.000    0.000    0.000    0.000    0.000    0.000 
#
# Total GULP energy -100702.428200 kJ/mol
# GULP energy per Si atom -5594.579344 kJ/mol
# Density = 2.537458 g / cm^3
# Si number density = 25.432467 Si / 1000 Ang^3
#
#
#
# Elastic Constant Matrix: (Units=GPa)
#
#
# Indices 1 2 3 4 5 6 
#
# 1 143.9019 46.8042 44.5132 0.0000 -4.2484 0.0000
# 2 46.8042 112.5351 36.2215 0.0000 -5.6257 0.0000
# 3 44.5132 36.2215 165.1559 0.0000 4.7436 0.0000
# 4 0.0000 0.0000 0.0000 31.8602 0.0000 7.8651
# 5 -4.2484 -5.6257 4.7436 0.0000 57.2113 0.0000
# 6 0.0000 0.0000 0.0000 7.8651 0.0000 24.9379
#
#
#
# Elastic Compliance Matrix: (Units=1/GPa)
#
#
# Indices 1 2 3 4 5 6 
#
# 1 0.008431 -0.002956 -0.001638 0.000000 0.000471 0.000000
# 2 -0.002956 0.010669 -0.001571 0.000000 0.000960 0.000000
# 3 -0.001638 -0.001571 0.006865 0.000000 -0.000845 0.000000
# 4 0.000000 0.000000 0.000000 0.034037 0.000000 -0.010735
# 5 0.000471 0.000960 -0.000845 0.000000 0.017679 0.000000
# 6 0.000000 0.000000 0.000000 -0.010735 0.000000 0.043485
#
#
# Mechanical properties :
#
#
# Convention : Reuss Voigt Hill
#
# Bulk Modulus (GPa) = 73.33226 75.18562 74.25894
# Shear Modulus (GPa) = 36.22133 42.40548 39.31341
#
# Velocity S-wave (km/s) = 3.77797 4.08778 3.93593
# Velocity P-wave (km/s) = 6.92297 7.20465 7.06521
#
# Compressibility (1/GPa) = 0.01363656
#
# Stress axis : x y z
#
# Youngs Moduli (GPa) = 118.60912 93.72892 145.66562
#
# Poissons Ratio (x) = 0.27705 0.23854
# Poissons Ratio (y) = 0.35059 0.22881
# Poissons Ratio (z) = 0.19424 0.14723
#
# Static dielectric constant tensor:
#      x y z
#    x 1.985200 0.000000 0.044410 
#    y 0.000000 1.975500 0.000000 
#    z 0.044410 0.000000 2.117170 
# 
# From -- ./inp_files/141651.got.cif
#   From: 2010.05.17/outbox.cif.g08.bks.cpg/sg15_71_cif.got.tgz:141651.got - 2010.06.03 18:47:42.
