data_PCOD9300385
_publ_section_title
;
Structure prediction by ZEFSAII (Michael W. Deem and Ramdas Pophale) SiO2 
 PCOD9300385
Probable space group: C 2/C
;
_chemical_formula_sum "Si O2"
_cell_formula_units_Z 48
_cell_length_a 28.087892
_cell_length_b 5.651867
_cell_length_c 15.166123
_cell_angle_alpha 90.000000
_cell_angle_beta 125.028801
_cell_angle_gamma 90.000000
_cell_volume 1971.502040
_symmetry_space_group_name_H-M "C 2/C"
_symmetry_group_IT_number 15
_symmetry_cell_setting 'monoclinic'
loop_
_space_group_symop_operation_xyz
x,y,z
-x,y,1/2-z
-x,-y,-z
x,-y,1/2+z
1/2+x,1/2+y,z
1/2-x,1/2+y,1/2-z
1/2-x,1/2-y,-z
1/2+x,1/2-y,1/2+z
loop_
_atom_site_type_symbol
_atom_site_label
_atom_site_fract_x
_atom_site_fract_y
_atom_site_fract_z
Si Si1 0.250000 0.750000 0.500000
Si Si2 0.583991 0.634201 0.933549
Si Si3 0.740783 0.498158 0.818184
Si Si4 0.684055 0.679471 0.492398
Si Si5 0.895189 0.505178 0.695146
Si Si6 0.352179 0.836495 0.335680
Si Si7 0.000000 0.850872 0.750000
O O1 0.250271 0.723367 0.609141
O O2 0.296871 0.535875 0.546662
O O3 0.628897 0.416077 0.985622
O O4 0.521543 0.513354 0.854503
O O5 0.590927 0.772261 0.847110
O O6 0.602520 0.798796 0.034927
O O7 0.676408 0.420700 0.720316
O O8 0.794726 0.527366 0.807915
O O9 0.763588 0.268777 0.894972
O O10 0.664940 0.906961 0.414711
O O11 0.882136 0.531592 0.784807
O O12 0.946883 0.687301 0.725901
#
# Coordination Sequence:
#
# PCOD9300385 Si02
#       7
#     4   8   8   8   8   8   4
#     4  12  22  40  68  94 152 208 238 288 350 436
#     4  11  24  49  72 102 142 189 240 323 369 440
#     4  12  26  42  66 112 156 198 239 292 354 452
#     4  11  22  42  69  99 146 196 240 287 365 436
#     4  11  24  48  74 106 139 196 247 308 383 441
#     4  12  26  43  72 110 154 192 245 293 362 455
#     4  10  26  50  80  96 140 184 256 324 398 432
#
# _framework density 24.346920000000001
#
# number of rings (size 3 to 8) (size 9 to 14) (size 15 to 20)
#    0.000    0.667    5.000    2.000    2.333    0.667 
#    6.000    3.333    0.000    0.000    0.000    0.000 
#    0.000    0.000    0.000    0.000    0.000    0.000 
#
# Total GULP energy -133619.384204 kJ/mol
# GULP energy per Si atom -5567.474342 kJ/mol
# Density = 2.429151 g / cm^3
# Si number density = 24.346920 Si / 1000 Ang^3
#
#
#
# Elastic Constant Matrix: (Units=GPa)
#
#
# Indices 1 2 3 4 5 6 
#
# 1 79.0546 9.2119 50.1763 0.0000 -12.5875 0.0000
# 2 9.2119 64.1929 23.3693 0.0003 -3.0009 0.0000
# 3 50.1763 23.3693 139.4861 -0.0001 -1.1194 0.0000
# 4 0.0000 0.0003 -0.0001 35.8544 0.0000 16.0437
# 5 -12.5875 -3.0009 -1.1194 0.0000 42.9942 0.0000
# 6 0.0000 0.0000 0.0000 16.0437 0.0000 27.8509
#
#
#
# Elastic Compliance Matrix: (Units=1/GPa)
#
#
# Indices 1 2 3 4 5 6 
#
# 1 0.017376 -0.000002 -0.006211 0.000000 0.004925 0.000000
# 2 -0.000002 0.016641 -0.002778 0.000000 0.001088 0.000000
# 3 -0.006211 -0.002778 0.009855 0.000000 -0.001756 0.000000
# 4 0.000000 0.000000 0.000000 0.037577 0.000000 -0.021646
# 5 0.004925 0.001088 -0.001756 0.000000 0.024731 0.000000
# 6 0.000000 0.000000 0.000000 -0.021646 0.000000 0.048375
#
#
# Mechanical properties :
#
#
# Convention : Reuss Voigt Hill
#
# Bulk Modulus (GPa) = 38.62687 49.80538 44.21612
# Shear Modulus (GPa) = 27.59899 34.67163 31.13531
#
# Velocity S-wave (km/s) = 3.37051 3.77777 3.57994
# Velocity P-wave (km/s) = 5.57196 6.28727 5.94039
#
# Compressibility (1/GPa) = 0.02588872
#
# Stress axis : x y z
#
# Youngs Moduli (GPa) = 57.55105 60.09350 101.47479
#
# Poissons Ratio (x) = 0.00014 0.63022
# Poissons Ratio (y) = 0.00013 0.28194
# Poissons Ratio (z) = 0.35743 0.16696
#
# Static dielectric constant tensor:
#      x y z
#    x 2.212340 0.000000 0.062140 
#    y 0.000000 1.609070 0.000000 
#    z 0.062140 0.000000 2.157410 
# 
# From -- ./inp_files/180240.got.cif
#   From: 2010.05.17/outbox.cif.g08.bks.cpg/sg15_91_cif.got.tgz:180240.got - 2010.06.03 18:47:42.
