data_PCOD9300331
_publ_section_title
;
Structure prediction by ZEFSAII (Michael W. Deem and Ramdas Pophale) SiO2 
 PCOD9300331
Probable space group: C 2/C
;
_chemical_formula_sum "Si O2"
_cell_formula_units_Z 28
_cell_length_a 26.310135
_cell_length_b 5.410472
_cell_length_c 17.936916
_cell_angle_alpha 90.000000
_cell_angle_beta 24.803080
_cell_angle_gamma 90.000000
_cell_volume 1071.121857
_symmetry_space_group_name_H-M "C 2/C"
_symmetry_group_IT_number 15
_symmetry_cell_setting 'monoclinic'
loop_
_space_group_symop_operation_xyz
x,y,z
-x,y,1/2-z
-x,-y,-z
x,-y,1/2+z
1/2+x,1/2+y,z
1/2-x,1/2+y,1/2-z
1/2-x,1/2-y,-z
1/2+x,1/2-y,1/2+z
loop_
_atom_site_type_symbol
_atom_site_label
_atom_site_fract_x
_atom_site_fract_y
_atom_site_fract_z
Si Si1 0.651609 0.427199 0.438388
Si Si2 0.393982 0.791131 0.644959
Si Si3 0.772247 0.552789 0.037059
Si Si4 0.000000 0.258633 0.750000
O O1 0.582027 0.400254 0.453445
O O2 0.777538 0.569729 0.264304
O O3 0.686710 0.192101 0.442049
O O4 0.566123 0.590462 0.603058
O O5 0.332778 0.640675 0.796327
O O6 0.500000 0.000000 0.500000
O O7 0.750000 0.750000 0.000000
O O8 0.895086 0.414948 0.851072
#
# Coordination Sequence:
#
# PCOD9300331 Si02
#       4
#     8   8   8   4
#     4  11  24  51  78 116 162 214 273 342 418 506
#     4  11  26  50  84 118 164 219 281 345 428 505
#     4  11  26  51  79 122 160 218 280 346 429 505
#     4  10  26  48  84 110 168 206 272 344 422 498
#
# _framework density 26.140817999999999
#
# number of rings (size 3 to 8) (size 9 to 14) (size 15 to 20)
#    0.000    1.143    2.857    0.857    0.000   12.571 
#    5.143    5.714    0.000    0.000    0.000    0.000 
#    0.000    0.000    0.000    0.000    0.000    0.000 
#
# Total GULP energy -78320.795948 kJ/mol
# GULP energy per Si atom -5594.342568 kJ/mol
# Density = 2.608132 g / cm^3
# Si number density = 26.140818 Si / 1000 Ang^3
#
#
#
# Elastic Constant Matrix: (Units=GPa)
#
#
# Indices 1 2 3 4 5 6 
#
# 1 170.1730 67.7310 80.2945 -0.0032 1.2087 0.0014
# 2 67.7310 110.5107 74.3433 -0.0245 -5.5208 -0.0009
# 3 80.2945 74.3433 191.3450 -0.0088 -21.4755 -0.0053
# 4 -0.0032 -0.0245 -0.0088 60.4747 0.0009 -13.9166
# 5 1.2087 -5.5208 -21.4755 0.0009 19.3986 0.0020
# 6 0.0014 -0.0009 -0.0053 -13.9166 0.0020 47.4145
#
#
#
# Elastic Compliance Matrix: (Units=1/GPa)
#
#
# Indices 1 2 3 4 5 6 
#
# 1 0.008667 -0.003720 -0.002707 -0.000002 -0.004596 -0.000001
# 2 -0.003720 0.013919 -0.003855 0.000005 -0.000075 0.000001
# 3 -0.002707 -0.003855 0.008856 0.000000 0.008876 0.000001
# 4 -0.000002 0.000005 0.000000 0.017734 0.000000 0.005205
# 5 -0.004596 -0.000075 0.008876 0.000000 0.061641 -0.000002
# 6 -0.000001 0.000001 0.000001 0.005205 -0.000002 0.022618
#
#
# Mechanical properties :
#
#
# Convention : Reuss Voigt Hill
#
# Bulk Modulus (GPa) = 91.94052 101.86292 96.90172
# Shear Modulus (GPa) = 31.72051 42.10157 36.91104
#
# Velocity S-wave (km/s) = 3.48724 4.01754 3.76175
# Velocity P-wave (km/s) = 7.17370 7.78283 7.48447
#
# Compressibility (1/GPa) = 0.01087660
#
# Stress axis : x y z
#
# Youngs Moduli (GPa) = 115.37722 71.84577 112.91400
#
# Poissons Ratio (x) = 0.26729 0.30571
# Poissons Ratio (y) = 0.42924 0.43529
# Poissons Ratio (z) = 0.31238 0.27697
#
# Static dielectric constant tensor:
#      x y z
#    x 2.155040 0.000000 0.133770 
#    y 0.000000 3.685160 0.000030 
#    z 0.133770 0.000030 2.130120 
# 
# From -- ./inp_files/258370.got.cif
#   From: 2010.05.17/outbox.cif.g08.bks.cpg/sg15_130_cif.got.tgz:258370.got - 2010.06.03 18:47:42.
