data_PCOD9300111
_publ_section_title
;
Structure prediction by ZEFSAII (Michael W. Deem and Ramdas Pophale) SiO2 
 PCOD9300111
Probable space group: C 2/C
;
_chemical_formula_sum "Si O2"
_cell_formula_units_Z 36
_cell_length_a 27.264293
_cell_length_b 4.908168
_cell_length_c 20.925631
_cell_angle_alpha 90.000000
_cell_angle_beta 147.813057
_cell_angle_gamma 90.000000
_cell_volume 1491.631020
_symmetry_space_group_name_H-M "C 2/C"
_symmetry_group_IT_number 15
_symmetry_cell_setting 'monoclinic'
loop_
_space_group_symop_operation_xyz
x,y,z
-x,y,1/2-z
-x,-y,-z
x,-y,1/2+z
1/2+x,1/2+y,z
1/2-x,1/2+y,1/2-z
1/2-x,1/2-y,-z
1/2+x,1/2-y,1/2+z
loop_
_atom_site_type_symbol
_atom_site_label
_atom_site_fract_x
_atom_site_fract_y
_atom_site_fract_z
Si Si1 0.469995 0.990853 0.082025
Si Si2 0.310616 0.213490 0.324940
Si Si3 0.500000 0.711139 0.250000
Si Si4 0.687732 0.499111 0.411917
Si Si5 0.920259 0.997485 0.334717
O O1 0.488512 0.897176 0.174669
O O2 0.539873 0.800878 0.117828
O O3 0.497969 0.301125 0.100552
O O4 0.368427 0.911977 0.947017
O O5 0.238825 0.453909 0.262606
O O6 0.379885 0.369060 0.353836
O O7 0.590687 0.529181 0.341260
O O8 0.750000 0.250000 0.500000
O O9 0.659198 0.492493 0.306370
O O10 0.750000 0.750000 0.500000
#
# Coordination Sequence:
#
# PCOD9300111 Si02
#       5
#     8   8   4   8   8
#     4  11  24  45  70  98 139 187 232 293 348 439
#     4  12  26  42  70 103 138 182 237 297 351 422
#     4  10  26  44  72 104 142 186 238 284 372 416
#     4  11  25  42  70 101 142 184 230 294 347 432
#     4  11  24  45  68  99 137 185 237 284 366 411
#
# _framework density 24.134657000000001
#
# number of rings (size 3 to 8) (size 9 to 14) (size 15 to 20)
#    0.000    0.889    0.000    6.667    6.222    8.000 
#    0.000    0.000    0.000    0.000    0.000    0.000 
#    0.000    0.000    0.000    0.000    0.000    0.000 
#
# Total GULP energy -100946.168851 kJ/mol
# GULP energy per Si atom -5608.120492 kJ/mol
# Density = 2.407973 g / cm^3
# Si number density = 24.134657 Si / 1000 Ang^3
#
#
#
# Elastic Constant Matrix: (Units=GPa)
#
#
# Indices 1 2 3 4 5 6 
#
# 1 79.0270 -0.8150 25.0017 0.0003 12.7536 0.0003
# 2 -0.8150 123.3357 28.5059 0.0033 7.4715 0.0048
# 3 25.0017 28.5059 136.9900 -0.0007 -2.4974 0.0003
# 4 0.0003 0.0033 -0.0007 42.0584 0.0001 3.2662
# 5 12.7536 7.4715 -2.4974 0.0001 36.7094 0.0000
# 6 0.0003 0.0048 0.0003 3.2662 0.0000 11.5005
#
#
#
# Elastic Compliance Matrix: (Units=1/GPa)
#
#
# Indices 1 2 3 4 5 6 
#
# 1 0.014488 0.001114 -0.002976 0.000000 -0.005463 -0.000001
# 2 0.001114 0.008732 -0.002062 0.000000 -0.002305 -0.000003
# 3 -0.002976 -0.002062 0.008309 0.000000 0.002019 0.000001
# 4 0.000000 0.000000 0.000000 0.024313 0.000000 -0.006905
# 5 -0.005463 -0.002305 0.002019 0.000000 0.029745 0.000001
# 6 -0.000001 -0.000003 0.000001 -0.006905 0.000001 0.088913
#
#
# Mechanical properties :
#
#
# Convention : Reuss Voigt Hill
#
# Bulk Modulus (GPa) = 42.22688 49.41532 45.82110
# Shear Modulus (GPa) = 26.28239 37.16434 31.72336
#
# Velocity S-wave (km/s) = 3.30356 3.92838 3.62944
# Velocity P-wave (km/s) = 5.66443 6.41058 6.04902
#
# Compressibility (1/GPa) = 0.02368160
#
# Stress axis : x y z
#
# Youngs Moduli (GPa) = 69.02052 114.52668 120.35358
#
# Poissons Ratio (x) = -0.12763 0.35814
# Poissons Ratio (y) = -0.07692 0.24821
# Poissons Ratio (z) = 0.20539 0.23619
#
# Static dielectric constant tensor:
#      x y z
#    x 1.962390 0.000000 0.008390 
#    y 0.000000 1.803040 0.000000 
#    z 0.008390 0.000000 1.905500 
# 
# From -- ./inp_files/170414.got.cif
#   From: 2010.05.17/outbox.cif.g08.bks.cpg/sg15_86_cif.got.tgz:170414.got - 2010.06.03 18:47:42.
