data_PCOD9300686
_publ_section_title
;
Structure prediction by ZEFSAII (Michael W. Deem and Ramdas Pophale) SiO2 
 PCOD9300686
Probable space group: C 2/C
;
_chemical_formula_sum "Si O2"
_cell_formula_units_Z 36
_cell_length_a 15.171486
_cell_length_b 7.223767
_cell_length_c 14.851288
_cell_angle_alpha 90.000000
_cell_angle_beta 66.560994
_cell_angle_gamma 90.000000
_cell_volume 1493.325528
_symmetry_space_group_name_H-M "C 2/C"
_symmetry_group_IT_number 15
_symmetry_cell_setting 'monoclinic'
loop_
_space_group_symop_operation_xyz
x,y,z
-x,y,1/2-z
-x,-y,-z
x,-y,1/2+z
1/2+x,1/2+y,z
1/2-x,1/2+y,1/2-z
1/2-x,1/2-y,-z
1/2+x,1/2-y,1/2+z
loop_
_atom_site_type_symbol
_atom_site_label
_atom_site_fract_x
_atom_site_fract_y
_atom_site_fract_z
Si Si1 0.378473 0.328830 0.247308
Si Si2 0.377264 0.056538 0.948687
Si Si3 0.500000 0.021779 0.750000
Si Si4 0.916738 0.874633 0.422414
Si Si5 0.189871 0.859738 0.406405
O O1 0.357447 0.415098 0.353575
O O2 0.475008 0.400643 0.157661
O O3 0.298301 0.359916 0.205375
O O4 0.413629 0.119357 0.256678
O O5 0.465929 0.129280 0.851612
O O6 0.286002 0.101216 0.922835
O O7 0.397134 0.840102 0.953765
O O8 0.358240 0.164480 0.047513
O O9 0.882926 0.993826 0.519237
#
# Coordination Sequence:
#
# PCOD9300686 Si02
#       5
#     8   8   4   8   8
#     4   8  18  35  57  80 114 148 187 227 272 334
#     4   9  21  36  55  80 112 146 183 236 272 333
#     4   8  18  40  56  76 120 154 180 228 290 332
#     4   9  19  38  55  79 117 151 178 230 282 327
#     4  11  19  35  58  86 111 139 196 231 269 332
#
# _framework density 24.10727
#
# number of rings (size 3 to 8) (size 9 to 14) (size 15 to 20)
#    0.000    3.556    0.000    1.333    0.000    5.333 
#   16.000    4.444    0.000    0.000    0.000    0.000 
#    0.000    0.000    0.000    0.000    0.000    0.000 
#
# Total GULP energy -100421.157679 kJ/mol
# GULP energy per Si atom -5578.953204 kJ/mol
# Density = 2.405240 g / cm^3
# Si number density = 24.107270 Si / 1000 Ang^3
#
#
#
# Elastic Constant Matrix: (Units=GPa)
#
#
# Indices 1 2 3 4 5 6 
#
# 1 22.7733 12.3858 5.6186 0.0000 11.8052 0.0000
# 2 12.3858 72.5399 32.7824 0.0000 1.8203 0.0000
# 3 5.6186 32.7824 88.3846 0.0000 20.2786 0.0000
# 4 0.0000 0.0000 0.0000 17.4872 0.0000 5.7572
# 5 11.8052 1.8203 20.2786 0.0000 41.3809 0.0000
# 6 0.0000 0.0000 0.0000 5.7572 0.0000 -8.8857
#
#
#
# Elastic Compliance Matrix: (Units=1/GPa)
#
#
# Indices 1 2 3 4 5 6 
#
# 1 0.058785 -0.011792 0.004918 0.000000 -0.018662 0.000000
# 2 -0.011792 0.019173 -0.007819 0.000000 0.006352 0.000000
# 3 0.004918 -0.007819 0.015937 0.000000 -0.008869 0.000000
# 4 0.000000 0.000000 0.000000 0.047131 0.000000 0.030537
# 5 -0.018662 0.006352 -0.008869 0.000000 0.033556 0.000000
# 6 0.000000 0.000000 0.000000 0.030537 0.000000 -0.092755
#
#
# Mechanical properties :
#
#
# Convention : Reuss Voigt Hill
#
# Bulk Modulus (GPa) = 15.50166 31.69682 23.59924
# Shear Modulus (GPa) = 37.67473 18.85723 28.26598
#
# Velocity S-wave (km/s) = 3.95751 2.79986 3.42791
# Velocity P-wave (km/s) = 5.22750 4.86097 5.04756
#
# Compressibility (1/GPa) = 0.06450921
#
# Stress axis : x y z
#
# Youngs Moduli (GPa) = 17.01126 52.15613 62.74858
#
# Poissons Ratio (x) = 0.61500 -0.30862
# Poissons Ratio (y) = 0.20059 0.49065
# Poissons Ratio (z) = -0.08367 0.40783
#
# Static dielectric constant tensor:
#      x y z
#    x 2.061090 0.000000 -0.026030 
#    y 0.000000 1.932680 0.000000 
#    z -0.026030 0.000000 1.951470 
# 
# From -- ./inp_files/158718.got.cif
#   From: 2010.05.17/outbox.cif.g08.bks.cpg/sg15_80_cif.got.tgz:158718.got - 2010.06.03 18:47:42.
