data_PCOD9300274
_publ_section_title
;
Structure prediction by ZEFSAII (Michael W. Deem and Ramdas Pophale) SiO2 
 PCOD9300274
Probable space group: C 2/C
;
_chemical_formula_sum "Si O2"
_cell_formula_units_Z 40
_cell_length_a 20.586871
_cell_length_b 10.429803
_cell_length_c 11.620119
_cell_angle_alpha 90.000000
_cell_angle_beta 37.983793
_cell_angle_gamma 90.000000
_cell_volume 1535.542073
_symmetry_space_group_name_H-M "C 2/C"
_symmetry_group_IT_number 15
_symmetry_cell_setting 'monoclinic'
loop_
_space_group_symop_operation_xyz
x,y,z
-x,y,1/2-z
-x,-y,-z
x,-y,1/2+z
1/2+x,1/2+y,z
1/2-x,1/2+y,1/2-z
1/2-x,1/2-y,-z
1/2+x,1/2-y,1/2+z
loop_
_atom_site_type_symbol
_atom_site_label
_atom_site_fract_x
_atom_site_fract_y
_atom_site_fract_z
Si Si1 0.299620 0.734859 0.167699
Si Si2 0.000000 0.500000 0.000000
Si Si3 0.316080 0.425049 0.423064
Si Si4 0.662297 0.985865 0.957919
Si Si5 0.000000 0.894050 0.750000
Si Si6 0.024661 0.210776 0.964432
O O1 0.295520 0.889627 0.177083
O O2 0.214238 0.650194 0.352965
O O3 0.410984 0.690417 0.064713
O O4 0.297109 0.689028 0.039338
O O5 0.044576 0.487670 0.073448
O O6 0.953601 0.641627 0.089799
O O7 0.209374 0.485419 0.519006
O O8 0.393606 0.523247 0.380306
O O9 0.388957 0.377252 0.216054
O O10 0.987260 0.816621 0.884948
#
# Coordination Sequence:
#
# PCOD9300274 Si02
#       6
#     8   4   8   8   4   8
#     4  11  23  44  70 104 136 188 233 291 350 423
#     4  10  26  48  64  94 150 186 228 290 350 426
#     4  12  22  42  75 101 137 181 235 291 351 422
#     4  11  24  44  67 100 141 182 239 282 352 417
#     4  12  22  40  72 110 136 172 234 294 342 418
#     4  11  23  46  71 104 142 181 233 290 356 420
#
# _framework density 26.049433000000001
#
# number of rings (size 3 to 8) (size 9 to 14) (size 15 to 20)
#    0.000    0.800    4.000    3.600    0.000    0.000 
#   14.400    2.000    0.000    0.000    0.000    0.000 
#    0.000    0.000    0.000    0.000    0.000    0.000 
#
# Total GULP energy -111466.531515 kJ/mol
# GULP energy per Si atom -5573.326576 kJ/mol
# Density = 2.599014 g / cm^3
# Si number density = 26.049433 Si / 1000 Ang^3
#
#
#
# Elastic Constant Matrix: (Units=GPa)
#
#
# Indices 1 2 3 4 5 6 
#
# 1 224.4554 -14.7278 39.4428 0.0000 -10.8540 0.0000
# 2 -14.7278 87.1768 -1.4143 0.0000 9.1897 0.0000
# 3 39.4428 -1.4143 46.5748 0.0000 6.0841 0.0000
# 4 0.0000 0.0000 0.0000 15.5589 0.0000 0.8798
# 5 -10.8540 9.1897 6.0841 0.0000 51.3711 0.0000
# 6 0.0000 0.0000 0.0000 0.8798 0.0000 44.0963
#
#
#
# Elastic Compliance Matrix: (Units=1/GPa)
#
#
# Indices 1 2 3 4 5 6 
#
# 1 0.005415 0.000670 -0.004773 0.000000 0.001590 0.000000
# 2 0.000670 0.011793 0.000049 0.000000 -0.001974 0.000000
# 3 -0.004773 0.000049 0.026050 0.000000 -0.004102 0.000000
# 4 0.000000 0.000000 0.000000 0.064344 0.000000 -0.001284
# 5 0.001590 -0.001974 -0.004102 0.000000 0.020641 0.000000
# 6 0.000000 0.000000 0.000000 -0.001284 0.000000 0.022703
#
#
# Mechanical properties :
#
#
# Convention : Reuss Voigt Hill
#
# Bulk Modulus (GPa) = 28.45012 44.97871 36.71442
# Shear Modulus (GPa) = 29.27885 44.53236 36.90560
#
# Velocity S-wave (km/s) = 3.35621 4.13914 3.76806
# Velocity P-wave (km/s) = 5.09550 6.33620 5.74942
#
# Compressibility (1/GPa) = 0.03514923
#
# Stress axis : x y z
#
# Youngs Moduli (GPa) = 184.68003 84.79633 38.38732
#
# Poissons Ratio (x) = -0.05680 0.18322
# Poissons Ratio (y) = -0.12370 -0.00187
# Poissons Ratio (z) = 0.88146 -0.00413
#
# Static dielectric constant tensor:
#      x y z
#    x 2.027000 0.000000 -0.057840 
#    y 0.000000 1.999940 0.000000 
#    z -0.057840 0.000000 2.071950 
# 
# From -- ./inp_files/111414.got.cif
#   From: 2010.05.17/outbox.cif.g08.bks.cpg/sg15_56_cif.got.tgz:111414.got - 2010.06.03 18:47:42.
