data_PCOD9300505
_publ_section_title
;
Structure prediction by ZEFSAII (Michael W. Deem and Ramdas Pophale) SiO2 
 PCOD9300505
Probable space group: C 2/C
;
_chemical_formula_sum "Si O2"
_cell_formula_units_Z 48
_cell_length_a 9.429818
_cell_length_b 15.838470
_cell_length_c 23.280228
_cell_angle_alpha 90.000000
_cell_angle_beta 56.548839
_cell_angle_gamma 90.000000
_cell_volume 2901.049606
_symmetry_space_group_name_H-M "C 2/C"
_symmetry_group_IT_number 15
_symmetry_cell_setting 'monoclinic'
loop_
_space_group_symop_operation_xyz
x,y,z
-x,y,1/2-z
-x,-y,-z
x,-y,1/2+z
1/2+x,1/2+y,z
1/2-x,1/2+y,1/2-z
1/2-x,1/2-y,-z
1/2+x,1/2-y,1/2+z
loop_
_atom_site_type_symbol
_atom_site_label
_atom_site_fract_x
_atom_site_fract_y
_atom_site_fract_z
Si Si1 0.749737 0.561480 0.423816
Si Si2 0.740457 0.758202 0.598346
Si Si3 0.468523 0.774060 0.554256
Si Si4 0.418293 0.962434 0.576514
Si Si5 0.388646 0.589070 0.830571
Si Si6 0.051477 0.906050 0.418476
O O1 0.745808 0.645053 0.384949
O O2 0.672248 0.481322 0.409990
O O3 0.623464 0.584444 0.505403
O O4 0.932878 0.540414 0.409097
O O5 0.599892 0.767159 0.578729
O O6 0.685749 0.684702 0.653347
O O7 0.913704 0.728903 0.528609
O O8 0.373584 0.863216 0.577289
O O9 0.372012 0.685247 0.581489
O O10 0.500000 0.000000 0.500000
O O11 0.261757 0.021175 0.628834
O O12 0.500000 0.572552 0.750000
O O13 0.500805 0.587078 0.863550
#
# Coordination Sequence:
#
# PCOD9300505 Si02
#       6
#     8   8   8   8   8   8
#     4   9  17  31  57  78  99 127 170 218 247 292
#     4   8  14  29  49  74  93 128 171 200 241 293
#     4   8  14  27  52  72  98 127 162 209 245 289
#     4  11  17  31  52  78 100 131 177 211 245 296
#     4  11  21  33  50  74 105 135 166 210 259 305
#     4   9  17  33  51  78 104 129 163 209 262 295
#
# _framework density 16.545735000000001
#
# number of rings (size 3 to 8) (size 9 to 14) (size 15 to 20)
#    0.000    2.667    3.333    2.000    0.000    0.000 
#    0.000    8.333    0.000    0.000    0.000    0.000 
#    0.000    0.000    0.000    0.000    0.000    0.000 
#
# Total GULP energy -133613.676561 kJ/mol
# GULP energy per Si atom -5567.236523 kJ/mol
# Density = 1.650808 g / cm^3
# Si number density = 16.545735 Si / 1000 Ang^3
#
#
#
# Elastic Constant Matrix: (Units=GPa)
#
#
# Indices 1 2 3 4 5 6 
#
# 1 32.1863 43.2071 29.5902 0.0000 -1.1013 0.0000
# 2 43.2071 182.9349 61.5260 0.0000 -8.3056 0.0000
# 3 29.5902 61.5260 88.7895 0.0000 -6.9945 0.0000
# 4 0.0000 0.0000 0.0000 15.3471 0.0000 -1.5605
# 5 -1.1013 -8.3056 -6.9945 0.0000 12.4062 0.0000
# 6 0.0000 0.0000 0.0000 -1.5605 0.0000 27.1428
#
#
#
# Elastic Compliance Matrix: (Units=1/GPa)
#
#
# Indices 1 2 3 4 5 6 
#
# 1 0.054409 -0.009008 -0.012542 0.000000 -0.008272 0.000000
# 2 -0.009008 0.008671 -0.002733 0.000000 0.003464 0.000000
# 3 -0.012542 -0.002733 0.017900 0.000000 0.007148 0.000000
# 4 0.000000 0.000000 0.000000 0.065542 0.000000 0.003768
# 5 -0.008272 0.003464 0.007148 0.000000 0.086220 0.000000
# 6 0.000000 0.000000 0.000000 0.003768 0.000000 0.037059
#
#
# Mechanical properties :
#
#
# Convention : Reuss Voigt Hill
#
# Bulk Modulus (GPa) = 30.85244 63.61747 47.23495
# Shear Modulus (GPa) = 15.18969 22.28506 18.73737
#
# Velocity S-wave (km/s) = 3.03321 3.67396 3.36885
# Velocity P-wave (km/s) = 5.56367 7.51866 6.61380
#
# Compressibility (1/GPa) = 0.03241235
#
# Stress axis : x y z
#
# Youngs Moduli (GPa) = 18.37926 115.33251 55.86747
#
# Poissons Ratio (x) = 1.03893 0.70069
# Poissons Ratio (y) = 0.16556 0.15270
# Poissons Ratio (z) = 0.23051 0.31523
#
# Static dielectric constant tensor:
#      x y z
#    x 1.550080 0.000000 0.001250 
#    y 0.000000 1.627400 0.000000 
#    z 0.001250 0.000000 1.534210 
# 
# From -- ./inp_files/264942.got.cif
#   From: 2010.05.17/outbox.cif.g08.bks.cpg/sg15_133_cif.got.tgz:264942.got - 2010.06.03 18:47:42.
