data_PCOD9300444
_publ_section_title
;
Structure prediction by ZEFSAII (Michael W. Deem and Ramdas Pophale) SiO2 
 PCOD9300444
Probable space group: C 2/C
;
_chemical_formula_sum "Si O2"
_cell_formula_units_Z 60
_cell_length_a 21.783226
_cell_length_b 14.512069
_cell_length_c 28.121786
_cell_angle_alpha 90.000000
_cell_angle_beta 162.428059
_cell_angle_gamma 90.000000
_cell_volume 2683.872870
_symmetry_space_group_name_H-M "C 2/C"
_symmetry_group_IT_number 15
_symmetry_cell_setting 'monoclinic'
loop_
_space_group_symop_operation_xyz
x,y,z
-x,y,1/2-z
-x,-y,-z
x,-y,1/2+z
1/2+x,1/2+y,z
1/2-x,1/2+y,1/2-z
1/2-x,1/2-y,-z
1/2+x,1/2-y,1/2+z
loop_
_atom_site_type_symbol
_atom_site_label
_atom_site_fract_x
_atom_site_fract_y
_atom_site_fract_z
Si Si1 0.885037 0.693192 0.479357
Si Si2 0.174206 0.995400 0.339446
Si Si3 0.175590 0.942019 0.579697
Si Si4 0.914181 0.406765 0.849171
Si Si5 0.222968 0.822919 0.021667
Si Si6 0.000000 0.489104 0.250000
Si Si7 0.650996 0.720281 0.651966
Si Si8 0.603035 0.454507 0.690732
O O1 0.790212 0.592625 0.417601
O O2 0.749271 0.765592 0.409408
O O3 0.893636 0.733298 0.432351
O O4 0.115263 0.687663 0.670400
O O5 0.091844 0.973351 0.225485
O O6 0.000000 0.002745 0.250000
O O7 0.349820 0.925322 0.483272
O O8 0.285155 0.948547 0.710924
O O9 0.015861 0.858653 0.462725
O O10 0.359440 0.946060 0.677959
O O11 0.042465 0.026771 0.461638
O O12 0.872597 0.299143 0.825565
O O13 0.825333 0.449306 0.832573
O O14 0.360127 0.914762 0.117996
O O15 0.250000 0.750000 0.000000
O O16 0.995350 0.862863 0.859263
#
# Coordination Sequence:
#
# PCOD9300444 Si02
#       8
#     8   8   8   8   8   4   8   8
#     4  12  25  44  74 104 147 183 240 303 369 431
#     4  12  28  44  70 108 150 190 234 302 379 436
#     4  11  26  47  73 102 146 193 245 298 371 437
#     4  12  25  46  73 106 140 194 254 299 362 441
#     4  11  24  41  69 107 149 188 233 288 366 443
#     4  10  28  44  68 104 152 194 238 288 368 444
#     4  12  25  48  74 108 137 191 252 309 354 430
#     4  11  23  46  69 104 147 190 245 292 364 440
#
# _framework density 22.355754000000001
#
# number of rings (size 3 to 8) (size 9 to 14) (size 15 to 20)
#    0.000    0.533    4.000    2.400   12.133    2.133 
#    1.200    0.667    0.000    0.000    0.000    0.000 
#    0.000    0.000    0.000    0.000    0.000    0.000 
#
# Total GULP energy -167631.001669 kJ/mol
# GULP energy per Si atom -5587.700056 kJ/mol
# Density = 2.230487 g / cm^3
# Si number density = 22.355754 Si / 1000 Ang^3
#
#
#
# Elastic Constant Matrix: (Units=GPa)
#
#
# Indices 1 2 3 4 5 6 
#
# 1 144.9364 41.6446 63.0137 -0.0614 19.4063 -0.0095
# 2 41.6446 45.7888 17.6946 -0.0469 8.3011 -0.0014
# 3 63.0137 17.6946 97.4651 0.0786 10.0789 0.0024
# 4 -0.0614 -0.0469 0.0786 30.9256 -0.0191 9.8877
# 5 19.4063 8.3011 10.0789 -0.0191 46.4487 -0.0027
# 6 -0.0095 -0.0014 0.0024 9.8877 -0.0027 40.8841
#
#
#
# Elastic Compliance Matrix: (Units=1/GPa)
#
#
# Indices 1 2 3 4 5 6 
#
# 1 0.012313 -0.008385 -0.006200 0.000027 -0.002300 -0.000004
# 2 -0.008385 0.029718 0.000218 0.000029 -0.001855 -0.000008
# 3 -0.006200 0.000218 0.014286 -0.000052 -0.000548 0.000010
# 4 0.000027 0.000029 -0.000052 0.035046 0.000009 -0.008476
# 5 -0.002300 -0.001855 -0.000548 0.000009 0.022941 -0.000001
# 6 -0.000004 -0.000008 0.000010 -0.008476 -0.000001 0.026509
#
#
# Mechanical properties :
#
#
# Convention : Reuss Voigt Hill
#
# Bulk Modulus (GPa) = 36.25672 59.21070 47.73371
# Shear Modulus (GPa) = 27.97347 34.70749 31.34048
#
# Velocity S-wave (km/s) = 3.54119 3.94446 3.74825
# Velocity P-wave (km/s) = 5.74224 6.87664 6.33489
#
# Compressibility (1/GPa) = 0.02758109
#
# Stress axis : x y z
#
# Youngs Moduli (GPa) = 81.21797 33.64992 69.99910
#
# Poissons Ratio (x) = 0.28216 0.43401
# Poissons Ratio (y) = 0.68102 -0.01525
# Poissons Ratio (z) = 0.50357 -0.00733
#
# Static dielectric constant tensor:
#      x y z
#    x 1.869290 -0.000060 -0.062260 
#    y -0.000060 1.860420 -0.000050 
#    z -0.062260 -0.000050 1.911540 
# 
# From -- ./inp_files/301218.got.cif
#   From: 2010.05.17/outbox.cif.g08.bks.cpg/sg15_151_cif.got.tgz:301218.got - 2010.06.03 18:47:42.
