data_PCOD9300771
_publ_section_title
;
Structure prediction by ZEFSAII (Michael W. Deem and Ramdas Pophale) SiO2 
 PCOD9300771
Probable space group: C 2/C
;
_chemical_formula_sum "Si O2"
_cell_formula_units_Z 60
_cell_length_a 27.612146
_cell_length_b 23.037499
_cell_length_c 15.462783
_cell_angle_alpha 90.000000
_cell_angle_beta 163.481680
_cell_angle_gamma 90.000000
_cell_volume 2796.620105
_symmetry_space_group_name_H-M "C 2/C"
_symmetry_group_IT_number 15
_symmetry_cell_setting 'monoclinic'
loop_
_space_group_symop_operation_xyz
x,y,z
-x,y,1/2-z
-x,-y,-z
x,-y,1/2+z
1/2+x,1/2+y,z
1/2-x,1/2+y,1/2-z
1/2-x,1/2-y,-z
1/2+x,1/2-y,1/2+z
loop_
_atom_site_type_symbol
_atom_site_label
_atom_site_fract_x
_atom_site_fract_y
_atom_site_fract_z
Si Si1 0.585597 0.189365 0.156781
Si Si2 0.163910 0.366742 0.396990
Si Si3 0.795624 0.268139 0.402059
Si Si4 0.500000 0.946810 0.250000
Si Si5 0.654764 0.880900 0.948006
Si Si6 0.248956 0.747437 0.865852
Si Si7 0.474372 0.028809 0.050865
Si Si8 0.661956 0.612573 0.469494
O O1 0.739360 0.223291 0.377879
O O2 0.624051 0.159853 0.312866
O O3 0.501590 0.141790 0.948653
O O4 0.444281 0.237482 0.935821
O O5 0.188401 0.300947 0.471332
O O6 0.311728 0.394231 0.589460
O O7 0.131639 0.405955 0.424603
O O8 0.727550 0.335009 0.296788
O O9 0.734304 0.241470 0.206950
O O10 0.000000 0.272262 0.750000
O O11 0.576818 0.984508 0.460376
O O12 0.500000 0.890160 0.750000
O O13 0.650468 0.942814 0.891146
O O14 0.324269 0.682727 0.003607
O O15 0.325806 0.077587 0.787928
O O16 0.500000 0.000000 0.000000
O O17 0.500000 0.594727 0.250000
#
# Coordination Sequence:
#
# PCOD9300771 Si02
#       8
#     8   8   8   4   8   8   8   8
#     4  11  20  38  62  88 133 167 207 260 325 399
#     4  11  24  43  63 102 132 172 218 271 340 392
#     4  11  22  35  56  91 133 167 207 260 324 393
#     4  12  24  42  74  92 128 176 230 266 324 398
#     4  11  19  38  59  89 120 161 222 256 309 380
#     4  11  23  38  63  97 133 168 211 267 334 400
#     4  12  23  44  70  94 124 176 229 276 318 395
#     4  11  23  41  66 101 131 166 218 281 334 387
#
# _framework density 21.454469
#
# number of rings (size 3 to 8) (size 9 to 14) (size 15 to 20)
#    0.000    0.800    7.333    2.800    4.667    0.000 
#    0.000    0.667    2.933    1.600    0.000    0.000 
#    0.000    0.000    0.000    0.000    0.000    0.000 
#
# Total GULP energy -167034.989340 kJ/mol
# GULP energy per Si atom -5567.832978 kJ/mol
# Density = 2.140564 g / cm^3
# Si number density = 21.454469 Si / 1000 Ang^3
#
#
#
# Elastic Constant Matrix: (Units=GPa)
#
#
# Indices 1 2 3 4 5 6 
#
# 1 182.2095 53.4178 27.6968 0.0000 -5.9098 0.0000
# 2 53.4178 85.8122 11.5555 0.0000 4.4549 0.0000
# 3 27.6968 11.5555 25.0583 0.0000 8.5149 0.0000
# 4 0.0000 0.0000 0.0000 16.1518 0.0000 -23.0451
# 5 -5.9098 4.4549 8.5149 0.0000 35.6678 0.0000
# 6 0.0000 0.0000 0.0000 -23.0451 0.0000 44.5203
#
#
#
# Elastic Compliance Matrix: (Units=1/GPa)
#
#
# Indices 1 2 3 4 5 6 
#
# 1 0.008087 -0.004109 -0.008351 0.000000 0.003847 0.000000
# 2 -0.004109 0.014514 -0.001419 0.000000 -0.002155 0.000000
# 3 -0.008351 -0.001419 0.054633 -0.000001 -0.014249 0.000000
# 4 0.000000 0.000000 -0.000001 0.236801 0.000000 0.122576
# 5 0.003847 -0.002155 -0.014249 0.000000 0.032345 0.000000
# 6 0.000000 0.000000 0.000000 0.122576 0.000000 0.085911
#
#
# Mechanical properties :
#
#
# Convention : Reuss Voigt Hill
#
# Bulk Modulus (GPa) = 20.21162 53.15780 36.68471
# Shear Modulus (GPa) = 10.49228 32.62865 21.56046
#
# Velocity S-wave (km/s) = 2.21384 3.90402 3.17352
# Velocity P-wave (km/s) = 3.99699 6.71957 5.52850
#
# Compressibility (1/GPa) = 0.04947649
#
# Stress axis : x y z
#
# Youngs Moduli (GPa) = 123.65503 68.89733 18.30397
#
# Poissons Ratio (x) = 0.28312 0.15285
# Poissons Ratio (y) = 0.50814 0.02597
# Poissons Ratio (z) = 1.03260 0.09776
#
# Static dielectric constant tensor:
#      x y z
#    x 1.860750 0.000000 -0.012510 
#    y 0.000000 1.848740 0.000000 
#    z -0.012510 0.000000 1.859940 
# 
# From -- ./inp_files/179143.got.cif
#   From: 2010.05.17/outbox.cif.g08.bks.cpg/sg15_90_cif.got.tgz:179143.got - 2010.06.03 18:47:42.
