data_PCOD9300503
_publ_section_title
;
Structure prediction by ZEFSAII (Michael W. Deem and Ramdas Pophale) SiO2 
 PCOD9300503
Probable space group: C 2/C
;
_chemical_formula_sum "Si O2"
_cell_formula_units_Z 48
_cell_length_a 9.363465
_cell_length_b 15.268299
_cell_length_c 33.565740
_cell_angle_alpha 90.000000
_cell_angle_beta 144.206245
_cell_angle_gamma 90.000000
_cell_volume 2806.611346
_symmetry_space_group_name_H-M "C 2/C"
_symmetry_group_IT_number 15
_symmetry_cell_setting 'monoclinic'
loop_
_space_group_symop_operation_xyz
x,y,z
-x,y,1/2-z
-x,-y,-z
x,-y,1/2+z
1/2+x,1/2+y,z
1/2-x,1/2+y,1/2-z
1/2-x,1/2-y,-z
1/2+x,1/2-y,1/2+z
loop_
_atom_site_type_symbol
_atom_site_label
_atom_site_fract_x
_atom_site_fract_y
_atom_site_fract_z
Si Si1 0.696131 0.381631 0.828815
Si Si2 0.419170 0.726171 0.576028
Si Si3 0.400159 0.973114 0.079461
Si Si4 0.550364 0.460118 0.074776
Si Si5 0.359329 0.440420 0.598502
Si Si6 0.922717 0.374840 0.449044
O O1 0.500000 0.371455 0.750000
O O2 0.574565 0.397191 0.844709
O O3 0.882888 0.300673 0.872389
O O4 0.866651 0.466440 0.860588
O O5 0.250000 0.750000 0.500000
O O6 0.545712 0.634708 0.593439
O O7 0.246300 0.704565 0.574884
O O8 0.253221 0.962128 0.086787
O O9 0.481535 0.885302 0.074384
O O10 0.211461 0.021724 0.006275
O O11 0.562599 0.533809 0.111972
O O12 0.227011 0.534199 0.577579
O O13 0.154882 0.380918 0.530855
#
# Coordination Sequence:
#
# PCOD9300503 Si02
#       6
#     8   8   8   8   8   8
#     4  11  21  33  50  74 106 139 173 212 269 322
#     4  11  17  31  51  76 104 136 171 215 258 312
#     4   9  17  33  52  80 100 127 173 224 258 303
#     4   9  17  31  57  79 100 124 177 225 253 299
#     4   8  14  29  49  74  95 130 170 207 248 307
#     4   8  14  27  52  73  97 127 170 210 251 295
#
# _framework density 17.102474000000001
#
# number of rings (size 3 to 8) (size 9 to 14) (size 15 to 20)
#    0.000    2.667    3.333    2.000    0.000    0.000 
#    0.000    8.333    0.000    0.000    0.000    0.000 
#    0.000    0.000    0.000    0.000    0.000    0.000 
#
# Total GULP energy -133645.690316 kJ/mol
# GULP energy per Si atom -5568.570430 kJ/mol
# Density = 1.706355 g / cm^3
# Si number density = 17.102474 Si / 1000 Ang^3
#
#
#
# Elastic Constant Matrix: (Units=GPa)
#
#
# Indices 1 2 3 4 5 6 
#
# 1 139.8409 33.3592 49.6106 0.0000 -21.7174 0.0000
# 2 33.3592 47.4882 40.3209 0.0000 -9.3383 0.0000
# 3 49.6106 40.3209 105.6003 0.0001 -15.1690 -0.0001
# 4 0.0000 0.0000 0.0001 15.2517 -0.0001 1.9614
# 5 -21.7174 -9.3383 -15.1690 -0.0001 16.4721 -0.0001
# 6 0.0000 0.0000 -0.0001 1.9614 -0.0001 25.0730
#
#
#
# Elastic Compliance Matrix: (Units=1/GPa)
#
#
# Indices 1 2 3 4 5 6 
#
# 1 0.010214 -0.003533 -0.002078 0.000000 0.009550 0.000000
# 2 -0.003533 0.033260 -0.010372 0.000000 0.004646 0.000000
# 3 -0.002078 -0.010372 0.015175 0.000000 0.005355 0.000000
# 4 0.000000 0.000000 0.000000 0.066233 0.000000 -0.005181
# 5 0.009550 0.004646 0.005355 0.000000 0.080865 0.000000
# 6 0.000000 0.000000 0.000000 -0.005181 0.000000 0.040289
#
#
# Mechanical properties :
#
#
# Convention : Reuss Voigt Hill
#
# Bulk Modulus (GPa) = 37.47631 59.94564 48.71097
# Shear Modulus (GPa) = 17.42782 22.66862 20.04822
#
# Velocity S-wave (km/s) = 3.19568 3.64463 3.42751
# Velocity P-wave (km/s) = 5.96463 7.26898 6.64887
#
# Compressibility (1/GPa) = 0.02668352
#
# Stress axis : x y z
#
# Youngs Moduli (GPa) = 97.90451 30.06595 65.89575
#
# Poissons Ratio (x) = 0.10622 0.13691
# Poissons Ratio (y) = 0.34589 0.68350
# Poissons Ratio (z) = 0.20341 0.31186
#
# Static dielectric constant tensor:
#      x y z
#    x 1.650710 0.000000 -0.016300 
#    y 0.000000 1.586260 0.000000 
#    z -0.016300 0.000000 1.555380 
# 
# From -- ./inp_files/308105.got.cif
#   From: 2010.05.17/outbox.cif.g08.bks.cpg/sg15_155_cif.got.tgz:308105.got - 2010.06.03 18:47:42.
