data_PCOD9300372
_publ_section_title
;
Structure prediction by ZEFSAII (Michael W. Deem and Ramdas Pophale) SiO2 
 PCOD9300372
Probable space group: C 2/C
;
_chemical_formula_sum "Si O2"
_cell_formula_units_Z 44
_cell_length_a 25.769358
_cell_length_b 8.959806
_cell_length_c 10.893092
_cell_angle_alpha 90.000000
_cell_angle_beta 57.240672
_cell_angle_gamma 90.000000
_cell_volume 2115.066524
_symmetry_space_group_name_H-M "C 2/C"
_symmetry_group_IT_number 15
_symmetry_cell_setting 'monoclinic'
loop_
_space_group_symop_operation_xyz
x,y,z
-x,y,1/2-z
-x,-y,-z
x,-y,1/2+z
1/2+x,1/2+y,z
1/2-x,1/2+y,1/2-z
1/2-x,1/2-y,-z
1/2+x,1/2-y,1/2+z
loop_
_atom_site_type_symbol
_atom_site_label
_atom_site_fract_x
_atom_site_fract_y
_atom_site_fract_z
Si Si1 0.822648 0.468198 0.703822
Si Si2 0.177552 0.236250 0.603102
Si Si3 0.283869 0.695171 0.579999
Si Si4 0.500000 0.619556 0.750000
Si Si5 0.399632 0.764914 0.037097
Si Si6 0.384386 0.551715 0.288402
O O1 0.842388 0.387216 0.804564
O O2 0.764764 0.579903 0.797716
O O3 0.800185 0.335683 0.643970
O O4 0.880471 0.564566 0.583963
O O5 0.250000 0.250000 0.500000
O O6 0.148681 0.216995 0.506452
O O7 0.155871 0.090602 0.704818
O O8 0.250000 0.750000 0.500000
O O9 0.346581 0.619640 0.451029
O O10 0.534981 0.722967 0.606295
O O11 0.550558 0.515693 0.751473
O O12 0.390760 0.671761 0.172715
#
# Coordination Sequence:
#
# PCOD9300372 Si02
#       6
#     8   8   8   4   8   8
#     4  12  26  41  70 107 150 183 230 297 362 433
#     4  11  24  39  68 108 143 184 227 287 370 424
#     4  12  26  43  71 112 146 186 236 293 375 427
#     4  10  26  50  76 102 136 202 250 284 354 424
#     4  11  25  47  68 101 143 183 244 294 346 423
#     4  11  25  46  76 101 145 189 244 297 349 435
#
# _framework density 20.803128000000001
#
# number of rings (size 3 to 8) (size 9 to 14) (size 15 to 20)
#    0.000    0.727    3.636    2.727   10.182    0.000 
#    0.000    4.545    0.000    0.000    0.000    0.000 
#    0.000    0.000    0.000    0.000    0.000    0.000 
#
# Total GULP energy -123042.924701 kJ/mol
# GULP energy per Si atom -5592.860214 kJ/mol
# Density = 2.075578 g / cm^3
# Si number density = 20.803128 Si / 1000 Ang^3
#
#
#
# Elastic Constant Matrix: (Units=GPa)
#
#
# Indices 1 2 3 4 5 6 
#
# 1 93.1633 47.8579 45.1234 0.0000 -11.3718 0.0000
# 2 47.8579 153.7636 72.7409 0.0000 -2.0349 0.0000
# 3 45.1234 72.7409 121.1094 0.0000 -12.2176 0.0000
# 4 0.0000 0.0000 0.0000 63.1315 0.0000 1.5312
# 5 -11.3718 -2.0349 -12.2176 0.0000 32.6017 0.0000
# 6 0.0000 0.0000 0.0000 1.5312 0.0000 44.3513
#
#
#
# Elastic Compliance Matrix: (Units=1/GPa)
#
#
# Indices 1 2 3 4 5 6 
#
# 1 0.014190 -0.002848 -0.003217 0.000000 0.003566 0.000000
# 2 -0.002848 0.009731 -0.005012 0.000000 -0.002264 0.000000
# 3 -0.003217 -0.005012 0.012805 0.000000 0.003364 0.000000
# 4 0.000000 0.000000 0.000000 0.015853 0.000000 -0.000547
# 5 0.003566 -0.002264 0.003364 0.000000 0.033037 0.000000
# 6 0.000000 0.000000 0.000000 -0.000547 0.000000 0.022566
#
#
# Mechanical properties :
#
#
# Convention : Reuss Voigt Hill
#
# Bulk Modulus (GPa) = 68.61914 77.72008 73.16961
# Shear Modulus (GPa) = 36.98426 41.50450 39.24438
#
# Velocity S-wave (km/s) = 4.22100 4.47151 4.34806
# Velocity P-wave (km/s) = 7.53740 8.00625 7.77536
#
# Compressibility (1/GPa) = 0.01457319
#
# Stress axis : x y z
#
# Youngs Moduli (GPa) = 70.47204 102.76610 78.09301
#
# Poissons Ratio (x) = 0.29263 0.25122
# Poissons Ratio (y) = 0.20067 0.39140
# Poissons Ratio (z) = 0.22670 0.51507
#
# Static dielectric constant tensor:
#      x y z
#    x 1.735110 0.000000 0.017110 
#    y 0.000000 1.783640 0.000000 
#    z 0.017110 0.000000 1.800890 
# 
# From -- ./inp_files/121776.got.cif
#   From: 2010.05.17/outbox.cif.g08.bks.cpg/sg15_61_cif.got.tgz:121776.got - 2010.06.03 18:47:42.
