data_PCOD9300638
_publ_section_title
;
Structure prediction by ZEFSAII (Michael W. Deem and Ramdas Pophale) SiO2 
 PCOD9300638
Probable space group: C 2/C
;
_chemical_formula_sum "Si O2"
_cell_formula_units_Z 56
_cell_length_a 25.468432
_cell_length_b 13.073900
_cell_length_c 9.250685
_cell_angle_alpha 90.000000
_cell_angle_beta 42.293796
_cell_angle_gamma 90.000000
_cell_volume 2072.777629
_symmetry_space_group_name_H-M "C 2/C"
_symmetry_group_IT_number 15
_symmetry_cell_setting 'monoclinic'
loop_
_space_group_symop_operation_xyz
x,y,z
-x,y,1/2-z
-x,-y,-z
x,-y,1/2+z
1/2+x,1/2+y,z
1/2-x,1/2+y,1/2-z
1/2-x,1/2-y,-z
1/2+x,1/2-y,1/2+z
loop_
_atom_site_type_symbol
_atom_site_label
_atom_site_fract_x
_atom_site_fract_y
_atom_site_fract_z
Si Si1 0.766766 0.080215 0.525316
Si Si2 0.581399 0.114399 0.513467
Si Si3 0.885639 0.473556 0.277047
Si Si4 0.551147 0.746107 0.415882
Si Si5 0.370698 0.704704 0.736895
Si Si6 0.688277 0.276903 0.833526
Si Si7 0.412746 0.571321 0.396331
O O1 0.698428 0.004465 0.619081
O O2 0.732445 0.171020 0.699235
O O3 0.780316 0.138209 0.343674
O O4 0.839327 0.025808 0.457887
O O5 0.611121 0.025508 0.558277
O O6 0.640098 0.205081 0.360663
O O7 0.563095 0.058845 0.401586
O O8 0.500000 0.151518 0.750000
O O9 0.910053 0.356926 0.194572
O O10 0.458776 0.732634 0.611129
O O11 0.597486 0.719898 0.466532
O O12 0.572842 0.668073 0.241067
O O13 0.379904 0.604959 0.618855
O O14 0.315492 0.709134 0.986890
O O15 0.500000 0.525923 0.250000
#
# Coordination Sequence:
#
# PCOD9300638 Si02
#       7
#     8   8   8   8   8   8   8
#     4   9  20  38  50  71 109 145 184 229 284 328
#     4  12  24  37  52  80 116 156 194 227 250 324
#     4  11  23  37  52  72 113 159 193 220 268 311
#     4   9  17  33  49  72 113 145 177 217 267 319
#     4  11  19  31  52  83 109 140 189 226 267 323
#     4   9  19  30  52  74 102 149 181 220 281 325
#     4   9  17  34  57  79 105 137 171 231 292 333
#
# _framework density 27.016884999999998
#
# number of rings (size 3 to 8) (size 9 to 14) (size 15 to 20)
#    0.000    2.000    2.857    2.143    4.000    0.571 
#    0.000    0.000    0.000    0.000    0.000    1.000 
#    0.000    0.000    0.000    0.000    0.000    0.000 
#
# Total GULP energy -156395.466582 kJ/mol
# GULP energy per Si atom -5585.552378 kJ/mol
# Density = 2.695539 g / cm^3
# Si number density = 27.016885 Si / 1000 Ang^3
#
#
#
# Elastic Constant Matrix: (Units=GPa)
#
#
# Indices 1 2 3 4 5 6 
#
# 1 144.9450 7.0236 46.8887 0.0000 -14.4499 0.0000
# 2 7.0236 33.3630 19.5219 0.0000 4.5881 0.0000
# 3 46.8887 19.5219 174.8315 0.0000 35.5900 0.0000
# 4 0.0000 0.0000 0.0000 16.3046 0.0000 11.0435
# 5 -14.4499 4.5881 35.5900 0.0000 50.3144 0.0000
# 6 0.0000 0.0000 0.0000 11.0435 0.0000 3.7123
#
#
#
# Elastic Compliance Matrix: (Units=1/GPa)
#
#
# Indices 1 2 3 4 5 6 
#
# 1 0.008414 -0.000575 -0.003148 0.000000 0.004696 0.000000
# 2 -0.000575 0.032117 -0.003274 0.000000 -0.000778 0.000000
# 3 -0.003148 -0.003274 0.008239 0.000000 -0.006434 0.000000
# 4 0.000000 0.000000 0.000000 -0.060432 0.000000 0.179773
# 5 0.004696 -0.000778 -0.006434 0.000000 0.025845 0.000000
# 6 0.000000 0.000000 0.000000 0.179773 0.000000 -0.265418
#
#
# Mechanical properties :
#
#
# Convention : Reuss Voigt Hill
#
# Bulk Modulus (GPa) = 28.75502 55.55642 42.15572
# Shear Modulus (GPa) = -22.15832 32.71328 5.27748
#
# Velocity S-wave (km/s) = -2.86696 3.48350 1.39916
# Velocity P-wave (km/s) = 0.54113 6.06530 4.27171
#
# Compressibility (1/GPa) = 0.03477654
#
# Stress axis : x y z
#
# Youngs Moduli (GPa) = 118.85607 31.13626 121.36904
#
# Poissons Ratio (x) = 0.01790 0.38209
# Poissons Ratio (y) = 0.06833 0.39732
# Poissons Ratio (z) = 0.37417 0.10193
#
# Static dielectric constant tensor:
#      x y z
#    x 2.277200 0.000000 0.002150 
#    y 0.000000 2.070690 0.000000 
#    z 0.002150 0.000000 2.154430 
# 
# From -- ./inp_files/70474.got.cif
#   From: 2010.05.17/outbox.cif.g08.bks.cpg/sg15_36_cif.got.tgz:70474.got - 2010.06.03 18:47:42.
