data_PCOD9300554
_publ_section_title
;
Structure prediction by ZEFSAII (Michael W. Deem and Ramdas Pophale) SiO2 
 PCOD9300554
Probable space group: C 2/C
;
_chemical_formula_sum "Si O2"
_cell_formula_units_Z 64
_cell_length_a 20.110348
_cell_length_b 25.821866
_cell_length_c 11.665406
_cell_angle_alpha 90.000000
_cell_angle_beta 137.566452
_cell_angle_gamma 90.000000
_cell_volume 4087.333584
_symmetry_space_group_name_H-M "C 2/C"
_symmetry_group_IT_number 15
_symmetry_cell_setting 'monoclinic'
loop_
_space_group_symop_operation_xyz
x,y,z
-x,y,1/2-z
-x,-y,-z
x,-y,1/2+z
1/2+x,1/2+y,z
1/2-x,1/2+y,1/2-z
1/2-x,1/2-y,-z
1/2+x,1/2-y,1/2+z
loop_
_atom_site_type_symbol
_atom_site_label
_atom_site_fract_x
_atom_site_fract_y
_atom_site_fract_z
Si Si1 0.385033 0.765828 0.087443
Si Si2 0.703226 0.333362 0.901015
Si Si3 0.380183 0.546821 0.600877
Si Si4 0.883612 0.929635 0.574526
Si Si5 0.392455 0.635625 0.456675
Si Si6 0.698372 0.276871 0.257481
Si Si7 0.382616 0.389439 0.325515
Si Si8 0.888945 0.236906 0.602703
O O1 0.500000 0.777250 0.250000
O O2 0.360419 0.714117 0.128852
O O3 0.314563 0.811903 0.042233
O O4 0.350887 0.751569 0.913874
O O5 0.677573 0.384425 0.941271
O O6 0.670276 0.344397 0.729384
O O7 0.500000 0.546411 0.750000
O O8 0.350403 0.487191 0.566667
O O9 0.353099 0.581331 0.456339
O O10 0.348184 0.578628 0.671619
O O11 0.877748 0.924689 0.430797
O O12 0.000000 0.922479 0.750000
O O13 0.504505 0.627810 0.556026
O O14 0.392266 0.677947 0.558456
O O15 0.677612 0.337747 0.223940
O O16 0.813976 0.265229 0.421150
O O17 0.650996 0.260247 0.318705
O O18 0.000000 0.256857 0.750000
#
# Coordination Sequence:
#
# PCOD9300554 Si02
#       8
#     8   8   8   8   8   8   8   8
#     4  11  23  37  52  77 107 141 173 214 253 308
#     4  11  22  33  53  76 106 136 173 207 257 309
#     4   9  21  31  48  74 102 136 169 208 256 310
#     4  11  21  32  50  76 104 136 169 209 256 310
#     4  11  18  34  50  73 106 140 167 208 258 306
#     4  11  21  34  52  76 103 137 179 203 258 307
#     4  11  19  33  50  70 107 139 167 209 253 309
#     4  11  21  33  53  77 104 138 171 214 252 305
#
# _framework density 15.65813
#
# number of rings (size 3 to 8) (size 9 to 14) (size 15 to 20)
#    0.000    1.250    6.250    1.500    1.750    1.500 
#    0.000    0.000    0.000    0.000    0.000    1.750 
#    0.000    0.000    0.000    0.000    0.000    0.000 
#
# Total GULP energy -178476.516185 kJ/mol
# GULP energy per Si atom -5577.391131 kJ/mol
# Density = 1.562249 g / cm^3
# Si number density = 15.658130 Si / 1000 Ang^3
#
#
#
# Elastic Constant Matrix: (Units=GPa)
#
#
# Indices 1 2 3 4 5 6 
#
# 1 61.8186 34.6765 37.1619 0.0000 0.5109 0.0000
# 2 34.6765 90.5991 31.6500 0.0000 5.3249 0.0000
# 3 37.1619 31.6500 85.9079 0.0000 1.1784 0.0000
# 4 0.0000 0.0000 0.0000 14.8622 0.0000 1.5600
# 5 0.5109 5.3249 1.1784 0.0000 31.8920 0.0000
# 6 0.0000 0.0000 0.0000 1.5600 0.0000 18.3545
#
#
#
# Elastic Compliance Matrix: (Units=1/GPa)
#
#
# Indices 1 2 3 4 5 6 
#
# 1 0.024931 -0.006691 -0.008333 0.000000 0.001026 0.000000
# 2 -0.006691 0.014586 -0.002448 0.000000 -0.002238 0.000000
# 3 -0.008333 -0.002448 0.016148 0.000000 -0.000054 0.000000
# 4 0.000000 0.000000 0.000000 0.067890 0.000000 -0.005770
# 5 0.001026 -0.002238 -0.000054 0.000000 0.031715 0.000000
# 6 0.000000 0.000000 0.000000 -0.005770 0.000000 0.054973
#
#
# Mechanical properties :
#
#
# Convention : Reuss Voigt Hill
#
# Bulk Modulus (GPa) = 48.26667 49.47804 48.87235
# Shear Modulus (GPa) = 19.83377 22.01088 20.92233
#
# Velocity S-wave (km/s) = 3.56290 3.75335 3.65937
# Velocity P-wave (km/s) = 6.91505 7.10289 7.00960
#
# Compressibility (1/GPa) = 0.02071823
#
# Stress axis : x y z
#
# Youngs Moduli (GPa) = 40.11093 68.56109 61.92717
#
# Poissons Ratio (x) = 0.45876 0.51607
# Poissons Ratio (y) = 0.26839 0.15162
# Poissons Ratio (z) = 0.33426 0.16786
#
# Static dielectric constant tensor:
#      x y z
#    x 1.535800 0.000000 -0.022240 
#    y 0.000000 1.527440 0.000000 
#    z -0.022240 0.000000 1.533220 
# 
# From -- ./inp_files/114602.got.cif
#   From: 2010.05.17/outbox.cif.g08.bks.cpg/sg15_58_cif.got.tgz:114602.got - 2010.06.03 18:47:42.
