data_PCOD9300411
_publ_section_title
;
Structure prediction by ZEFSAII (Michael W. Deem and Ramdas Pophale) SiO2 
 PCOD9300411
Probable space group: C 2/C
;
_chemical_formula_sum "Si O2"
_cell_formula_units_Z 40
_cell_length_a 10.373618
_cell_length_b 27.469120
_cell_length_c 10.519518
_cell_angle_alpha 90.000000
_cell_angle_beta 148.394578
_cell_angle_gamma 90.000000
_cell_volume 1570.931476
_symmetry_space_group_name_H-M "C 2/C"
_symmetry_group_IT_number 15
_symmetry_cell_setting 'monoclinic'
loop_
_space_group_symop_operation_xyz
x,y,z
-x,y,1/2-z
-x,-y,-z
x,-y,1/2+z
1/2+x,1/2+y,z
1/2-x,1/2+y,1/2-z
1/2-x,1/2-y,-z
1/2+x,1/2-y,1/2+z
loop_
_atom_site_type_symbol
_atom_site_label
_atom_site_fract_x
_atom_site_fract_y
_atom_site_fract_z
Si Si1 0.236282 0.760597 0.764055
Si Si2 0.603898 0.446288 0.097185
Si Si3 0.255642 0.365970 0.683592
Si Si4 0.000000 0.203538 0.750000
Si Si5 0.179548 0.613585 0.503961
Si Si6 0.500000 0.090915 0.750000
O O1 0.131324 0.815438 0.678828
O O2 0.371918 0.737114 0.751359
O O3 0.971505 0.734505 0.556613
O O4 0.654469 0.424517 0.279435
O O5 0.857271 0.441820 0.231665
O O6 0.500000 0.500000 0.000000
O O7 0.409011 0.410269 0.868959
O O8 0.200437 0.376106 0.490286
O O9 0.989666 0.365713 0.526425
O O10 0.798770 0.162225 0.541479
O O11 0.000000 0.589916 0.250000
#
# Coordination Sequence:
#
# PCOD9300411 Si02
#       6
#     8   8   8   4   8   4
#     4  12  25  41  73 109 161 210 262 323 404 481
#     4  11  26  53  78 111 148 203 267 331 406 478
#     4  11  25  48  73 108 154 205 258 323 393 480
#     4  12  24  42  67 120 160 207 252 328 412 476
#     4  11  23  43  72 112 158 198 250 328 398 480
#     4  10  26  52  79 100 150 203 262 332 394 468
#
# _framework density 25.462599999999998
#
# number of rings (size 3 to 8) (size 9 to 14) (size 15 to 20)
#    0.000    0.800    2.000    4.800    4.200    3.200 
#   18.000    1.000    0.000    0.000    0.000    0.000 
#    0.000    0.000    0.000    0.000    0.000    0.000 
#
# Total GULP energy -111701.177110 kJ/mol
# GULP energy per Si atom -5585.058855 kJ/mol
# Density = 2.540465 g / cm^3
# Si number density = 25.462600 Si / 1000 Ang^3
#
#
#
# Elastic Constant Matrix: (Units=GPa)
#
#
# Indices 1 2 3 4 5 6 
#
# 1 97.7196 36.4791 19.0211 0.0000 -1.8536 0.0000
# 2 36.4791 202.3433 56.6040 0.0000 -12.8870 0.0000
# 3 19.0211 56.6040 159.5309 0.0000 -22.9108 0.0000
# 4 0.0000 0.0000 0.0000 37.9857 0.0000 11.9733
# 5 -1.8536 -12.8870 -22.9108 0.0000 49.2247 0.0000
# 6 0.0000 0.0000 0.0000 11.9733 0.0000 21.2273
#
#
#
# Elastic Compliance Matrix: (Units=1/GPa)
#
#
# Indices 1 2 3 4 5 6 
#
# 1 0.011045 -0.001812 -0.000731 0.000000 -0.000399 0.000000
# 2 -0.001812 0.005799 -0.001750 0.000000 0.000635 0.000000
# 3 -0.000731 -0.001750 0.007402 0.000000 0.002959 0.000000
# 4 0.000000 0.000000 0.000000 0.032018 0.000000 -0.018060
# 5 -0.000399 0.000635 0.002959 0.000000 0.021844 0.000000
# 6 0.000000 0.000000 0.000000 -0.018060 0.000000 0.057296
#
#
# Mechanical properties :
#
#
# Convention : Reuss Voigt Hill
#
# Bulk Modulus (GPa) = 63.86487 75.97803 69.92145
# Shear Modulus (GPa) = 33.51008 44.85351 39.18180
#
# Velocity S-wave (km/s) = 3.63168 4.20163 3.92701
# Velocity P-wave (km/s) = 6.53619 7.31041 6.93411
#
# Compressibility (1/GPa) = 0.01565806
#
# Stress axis : x y z
#
# Youngs Moduli (GPa) = 90.54241 172.44811 135.10678
#
# Poissons Ratio (x) = 0.31248 0.09879
# Poissons Ratio (y) = 0.16406 0.23647
# Poissons Ratio (z) = 0.06621 0.30183
#
# Static dielectric constant tensor:
#      x y z
#    x 2.124090 0.000000 -0.008380 
#    y 0.000000 1.927940 0.000000 
#    z -0.008380 0.000000 2.146040 
# 
# From -- ./inp_files/92261.got.cif
#   From: 2010.05.17/outbox.cif.g08.bks.cpg/sg15_47_cif.got.tgz:92261.got - 2010.06.03 18:47:42.
