data_PCOD9300466
_publ_section_title
;
Structure prediction by ZEFSAII (Michael W. Deem and Ramdas Pophale) SiO2 
 PCOD9300466
Probable space group: C 2/C
;
_chemical_formula_sum "Si O2"
_cell_formula_units_Z 48
_cell_length_a 14.705735
_cell_length_b 26.591967
_cell_length_c 8.789680
_cell_angle_alpha 90.000000
_cell_angle_beta 143.824883
_cell_angle_gamma 90.000000
_cell_volume 2028.850532
_symmetry_space_group_name_H-M "C 2/C"
_symmetry_group_IT_number 15
_symmetry_cell_setting 'monoclinic'
loop_
_space_group_symop_operation_xyz
x,y,z
-x,y,1/2-z
-x,-y,-z
x,-y,1/2+z
1/2+x,1/2+y,z
1/2-x,1/2+y,1/2-z
1/2-x,1/2-y,-z
1/2+x,1/2-y,1/2+z
loop_
_atom_site_type_symbol
_atom_site_label
_atom_site_fract_x
_atom_site_fract_y
_atom_site_fract_z
Si Si1 0.421635 0.243288 0.798224
Si Si2 0.415020 0.159591 0.327419
Si Si3 0.142794 0.156020 0.174275
Si Si4 0.266508 0.077396 0.906179
Si Si5 0.500000 0.578788 0.750000
Si Si6 0.000000 0.506056 0.750000
Si Si7 0.175553 0.594158 0.828349
O O1 0.500000 0.223996 0.750000
O O2 0.250000 0.250000 0.500000
O O3 0.463230 0.299793 0.904714
O O4 0.467208 0.207030 0.000850
O O5 0.264695 0.177865 0.216124
O O6 0.515615 0.119164 0.556181
O O7 0.345704 0.126718 0.092611
O O8 0.241968 0.129030 0.437452
O O9 0.054549 0.113877 0.961173
O O10 0.210676 0.092302 0.663419
O O11 0.149064 0.054392 0.872169
O O12 0.387488 0.034308 0.020479
O O13 0.882432 0.542271 0.678324
#
# Coordination Sequence:
#
# PCOD9300466 Si02
#       7
#     8   8   8   8   4   4   8
#     4  12  23  40  70 105 140 185 247 287 353 421
#     4  11  21  45  67 103 142 183 225 301 347 414
#     4  11  24  45  69  99 148 188 234 297 356 422
#     4  11  26  45  72 105 146 183 241 292 358 428
#     4  10  28  50  63 100 152 193 224 302 362 410
#     4  12  24  44  79 112 132 183 246 298 350 434
#     4  12  22  42  77 104 135 187 241 289 354 423
#
# _framework density 23.658716999999999
#
# number of rings (size 3 to 8) (size 9 to 14) (size 15 to 20)
#    0.000    0.667    6.667    0.500    2.333    0.000 
#    3.000    5.000    0.000    0.000    0.000    0.000 
#    0.000    0.000    0.000    0.000    0.000    0.000 
#
# Total GULP energy -133729.054114 kJ/mol
# GULP energy per Si atom -5572.043921 kJ/mol
# Density = 2.360487 g / cm^3
# Si number density = 23.658717 Si / 1000 Ang^3
#
#
#
# Elastic Constant Matrix: (Units=GPa)
#
#
# Indices 1 2 3 4 5 6 
#
# 1 77.6763 32.3154 8.8546 0.0000 -13.9375 0.0000
# 2 32.3154 114.9689 23.8314 0.0000 -14.4144 0.0000
# 3 8.8546 23.8314 57.2104 0.0000 -16.2226 0.0000
# 4 0.0000 0.0000 0.0000 -21.6923 0.0000 33.5766
# 5 -13.9375 -14.4144 -16.2226 0.0000 36.3216 0.0000
# 6 0.0000 0.0000 0.0000 33.5766 0.0000 3.2685
#
#
#
# Elastic Compliance Matrix: (Units=1/GPa)
#
#
# Indices 1 2 3 4 5 6 
#
# 1 0.015220 -0.003815 0.000527 0.000000 0.004561 0.000000
# 2 -0.003815 0.010647 -0.003506 0.000000 0.001196 0.000000
# 3 0.000527 -0.003506 0.021207 0.000000 0.008283 0.000000
# 4 0.000000 0.000000 0.000000 -0.002728 0.000000 0.028020
# 5 0.004561 0.001196 0.008283 0.000000 0.033456 0.000000
# 6 0.000000 0.000000 0.000000 0.028020 0.000000 0.018103
#
#
# Mechanical properties :
#
#
# Convention : Reuss Voigt Hill
#
# Bulk Modulus (GPa) = 29.86335 42.20649 36.03492
# Shear Modulus (GPa) = 41.44097 15.90319 28.67208
#
# Velocity S-wave (km/s) = 4.18977 2.59548 3.48502
# Velocity P-wave (km/s) = 6.00463 5.18271 5.60874
#
# Compressibility (1/GPa) = 0.03348586
#
# Stress axis : x y z
#
# Youngs Moduli (GPa) = 65.70488 93.92367 47.15497
#
# Poissons Ratio (x) = 0.35834 -0.02486
# Poissons Ratio (y) = 0.25068 0.16530
# Poissons Ratio (z) = -0.03464 0.32925
#
# Static dielectric constant tensor:
#      x y z
#    x 2.442240 0.000000 0.086170 
#    y 0.000000 1.914340 0.000000 
#    z 0.086170 0.000000 1.952690 
# 
# From -- ./inp_files/43988.got.cif
#   From: 2010.05.17/outbox.cif.g08.bks.cpg/sg15_22_cif.got.tgz:43988.got - 2010.06.03 18:47:42.
