data_PCOD9300662
_publ_section_title
;
Structure prediction by ZEFSAII (Michael W. Deem and Ramdas Pophale) SiO2 
 PCOD9300662
Probable space group: C 2/C
;
_chemical_formula_sum "Si O2"
_cell_formula_units_Z 60
_cell_length_a 10.789545
_cell_length_b 28.911521
_cell_length_c 15.105930
_cell_angle_alpha 90.000000
_cell_angle_beta 46.862655
_cell_angle_gamma 90.000000
_cell_volume 3438.554124
_symmetry_space_group_name_H-M "C 2/C"
_symmetry_group_IT_number 15
_symmetry_cell_setting 'monoclinic'
loop_
_space_group_symop_operation_xyz
x,y,z
-x,y,1/2-z
-x,-y,-z
x,-y,1/2+z
1/2+x,1/2+y,z
1/2-x,1/2+y,1/2-z
1/2-x,1/2-y,-z
1/2+x,1/2-y,1/2+z
loop_
_atom_site_type_symbol
_atom_site_label
_atom_site_fract_x
_atom_site_fract_y
_atom_site_fract_z
Si Si1 0.799880 0.804421 0.371736
Si Si2 0.616489 0.060097 0.317844
Si Si3 0.701981 0.797775 0.629363
Si Si4 0.000000 0.487341 0.250000
Si Si5 0.192257 0.000433 0.634007
Si Si6 0.636833 0.461280 0.466365
Si Si7 0.309423 0.899790 0.043549
Si Si8 0.361360 0.392115 0.561420
O O1 0.743637 0.800479 0.503203
O O2 0.749705 0.753580 0.360560
O O3 0.724594 0.854354 0.381779
O O4 0.000000 0.807439 0.250000
O O5 0.730978 0.036194 0.335290
O O6 0.499125 0.100810 0.411679
O O7 0.729585 0.077186 0.181631
O O8 0.494084 0.020872 0.337750
O O9 0.500000 0.804852 0.750000
O O10 0.815724 0.839724 0.609660
O O11 0.820094 0.462052 0.329754
O O12 0.178522 0.975329 0.546215
O O13 0.000000 0.012943 0.750000
O O14 0.290314 0.049253 0.593585
O O15 0.500000 0.500000 0.500000
O O16 0.543434 0.412661 0.496910
O O17 0.180444 0.898507 0.022326
#
# Coordination Sequence:
#
# PCOD9300662 Si02
#       8
#     8   8   8   4   8   8   8   8
#     4   9  18  33  49  81 114 138 174 230 291 345
#     4  12  20  33  52  77 106 144 192 224 261 323
#     4   9  18  32  57  79 106 142 185 229 278 350
#     4  12  22  36  54  72 108 150 194 224 260 336
#     4  12  22  32  48  74 110 143 179 229 263 313
#     4  12  21  37  51  74 107 149 190 223 269 326
#     4  11  20  32  51  77 110 149 173 216 289 339
#     4  11  19  34  54  74 103 147 187 215 270 332
#
# _framework density 17.449193999999999
#
# number of rings (size 3 to 8) (size 9 to 14) (size 15 to 20)
#    0.000    1.067    6.667    2.400    0.000    0.000 
#    0.000    0.000    0.000    0.000    0.000    0.933 
#    2.000    0.000    0.000    0.000    0.000    0.000 
#
# Total GULP energy -167072.425357 kJ/mol
# GULP energy per Si atom -5569.080845 kJ/mol
# Density = 1.740948 g / cm^3
# Si number density = 17.449194 Si / 1000 Ang^3
#
#
#
# Elastic Constant Matrix: (Units=GPa)
#
#
# Indices 1 2 3 4 5 6 
#
# 1 46.0686 21.9064 6.9602 0.0000 -5.5110 0.0000
# 2 21.9064 122.2366 25.0651 0.0000 -14.5869 0.0000
# 3 6.9602 25.0651 84.3574 0.0000 -23.2584 0.0000
# 4 0.0000 0.0000 0.0000 28.3348 0.0000 -3.3026
# 5 -5.5110 -14.5869 -23.2584 0.0000 27.1370 0.0000
# 6 0.0000 0.0000 0.0000 -3.3026 0.0000 9.3847
#
#
#
# Elastic Compliance Matrix: (Units=1/GPa)
#
#
# Indices 1 2 3 4 5 6 
#
# 1 0.023917 -0.003954 -0.000059 0.000000 0.002681 0.000000
# 2 -0.003954 0.009587 -0.001732 0.000000 0.002865 0.000000
# 3 -0.000059 -0.001732 0.015862 0.000000 0.012652 0.000000
# 4 0.000000 0.000000 0.000000 0.036802 0.000000 0.012951
# 5 0.002681 0.002865 0.012652 0.000000 0.049779 0.000000
# 6 0.000000 0.000000 0.000000 0.012951 0.000000 0.111114
#
#
# Mechanical properties :
#
#
# Convention : Reuss Voigt Hill
#
# Bulk Modulus (GPa) = 26.40316 40.05845 33.23080
# Shear Modulus (GPa) = 18.43825 26.22003 22.32914
#
# Velocity S-wave (km/s) = 3.25419 3.88061 3.58112
# Velocity P-wave (km/s) = 5.41147 6.56398 6.01539
#
# Compressibility (1/GPa) = 0.03787425
#
# Stress axis : x y z
#
# Youngs Moduli (GPa) = 41.81188 104.31205 63.04293
#
# Poissons Ratio (x) = 0.41246 0.00374
# Poissons Ratio (y) = 0.16533 0.10920
# Poissons Ratio (z) = 0.00248 0.18069
#
# Static dielectric constant tensor:
#      x y z
#    x 1.583130 0.000000 0.027290 
#    y 0.000000 1.651220 0.000000 
#    z 0.027290 0.000000 1.728370 
# 
# From -- ./inp_files/201121.got.cif
#   From: 2010.05.17/outbox.cif.g08.bks.cpg/sg15_101_cif.got.tgz:201121.got - 2010.06.03 18:47:42.
