data_PCOD9300993
_publ_section_title
;
Structure prediction by ZEFSAII (Michael W. Deem and Ramdas Pophale) SiO2 
 PCOD9300993
Probable space group: C 2/C
;
_chemical_formula_sum "Si O2"
_cell_formula_units_Z 60
_cell_length_a 18.744619
_cell_length_b 11.738826
_cell_length_c 27.313080
_cell_angle_alpha 90.000000
_cell_angle_beta 154.558032
_cell_angle_gamma 90.000000
_cell_volume 2581.861189
_symmetry_space_group_name_H-M "C 2/C"
_symmetry_group_IT_number 15
_symmetry_cell_setting 'monoclinic'
loop_
_space_group_symop_operation_xyz
x,y,z
-x,y,1/2-z
-x,-y,-z
x,-y,1/2+z
1/2+x,1/2+y,z
1/2-x,1/2+y,1/2-z
1/2-x,1/2-y,-z
1/2+x,1/2-y,1/2+z
loop_
_atom_site_type_symbol
_atom_site_label
_atom_site_fract_x
_atom_site_fract_y
_atom_site_fract_z
Si Si1 0.266060 0.919985 0.222504
Si Si2 0.028042 0.459775 0.820389
Si Si3 0.555423 0.860908 0.465888
Si Si4 0.898617 0.043759 0.287499
Si Si5 0.000000 0.913908 0.250000
Si Si6 0.662117 0.114961 0.500077
Si Si7 0.224552 0.835343 0.028883
Si Si8 0.409907 0.789594 0.914761
O O1 0.358086 0.010626 0.244436
O O2 0.416669 0.844441 0.338521
O O3 0.136337 0.842719 0.113291
O O4 0.184473 0.969020 0.221065
O O5 0.000000 0.407204 0.750000
O O6 0.142725 0.391862 0.929756
O O7 0.123974 0.579457 0.870064
O O8 0.684515 0.756335 0.545846
O O9 0.483356 0.847287 0.475503
O O10 0.632680 0.983462 0.500916
O O11 0.759725 0.138533 0.190678
O O12 0.064588 0.091760 0.415194
O O13 0.946392 0.985730 0.265342
O O14 0.837789 0.848619 0.130409
O O15 0.512585 0.187274 0.429314
O O16 0.250000 0.750000 0.000000
#
# Coordination Sequence:
#
# PCOD9300993 Si02
#       8
#     8   8   8   8   4   8   8   8
#     4  11  24  42  62  96 133 170 221 265 330 398
#     4  11  22  41  62  94 135 173 209 268 330 398
#     4  11  20  35  62  98 126 163 209 269 331 391
#     4  12  23  39  68  96 132 169 216 282 334 393
#     4  12  22  40  70  98 124 168 222 286 334 376
#     4  11  22  39  65  96 131 165 221 274 333 385
#     4  12  21  38  61  99 132 161 217 270 336 394
#     4  12  22  41  66  95 128 176 212 275 337 394
#
# _framework density 23.239049999999999
#
# number of rings (size 3 to 8) (size 9 to 14) (size 15 to 20)
#    0.000    0.533    9.333    2.000    0.000    0.000 
#    2.400    4.667    1.467    0.000    0.000    0.000 
#    0.000    0.000    0.000    0.000    0.000    0.000 
#
# Total GULP energy -167636.391457 kJ/mol
# GULP energy per Si atom -5587.879715 kJ/mol
# Density = 2.318616 g / cm^3
# Si number density = 23.239050 Si / 1000 Ang^3
#
#
#
# Elastic Constant Matrix: (Units=GPa)
#
#
# Indices 1 2 3 4 5 6 
#
# 1 117.7236 20.6144 32.7392 -0.0008 -7.7713 -0.0007
# 2 20.6144 36.4597 18.1724 0.0040 -0.0417 0.0019
# 3 32.7392 18.1724 92.7178 0.0089 -6.0603 0.0007
# 4 -0.0008 0.0040 0.0089 18.7027 -0.0007 -0.1756
# 5 -7.7713 -0.0417 -6.0603 -0.0007 46.2216 0.0003
# 6 -0.0007 0.0019 0.0007 -0.1756 0.0003 17.3658
#
#
#
# Elastic Compliance Matrix: (Units=1/GPa)
#
#
# Indices 1 2 3 4 5 6 
#
# 1 0.010079 -0.004397 -0.002609 0.000003 0.001349 0.000001
# 2 -0.004397 0.032342 -0.004875 -0.000005 -0.001349 -0.000003
# 3 -0.002609 -0.004875 0.012742 -0.000005 0.001228 0.000000
# 4 0.000003 -0.000005 -0.000005 0.053473 0.000001 0.000541
# 5 0.001349 -0.001349 0.001228 0.000001 0.022021 0.000000
# 6 0.000001 -0.000003 0.000000 0.000541 0.000000 0.057590
#
#
# Mechanical properties :
#
#
# Convention : Reuss Voigt Hill
#
# Bulk Modulus (GPa) = 31.84488 43.32813 37.58650
# Shear Modulus (GPa) = 22.47438 28.14967 25.31203
#
# Velocity S-wave (km/s) = 3.11319 3.48416 3.30389
# Velocity P-wave (km/s) = 5.16290 5.90516 5.54646
#
# Compressibility (1/GPa) = 0.03140222
#
# Stress axis : x y z
#
# Youngs Moduli (GPa) = 99.21629 30.92002 78.47860
#
# Poissons Ratio (x) = 0.13595 0.20476
# Poissons Ratio (y) = 0.43623 0.38254
# Poissons Ratio (z) = 0.25886 0.15072
#
# Static dielectric constant tensor:
#      x y z
#    x 2.011040 0.000000 0.016400 
#    y 0.000000 1.830630 -0.000010 
#    z 0.016400 -0.000010 1.776390 
# 
# From -- ./inp_files/298989.got.cif
#   From: 2010.05.17/outbox.cif.g08.bks.cpg/sg15_150_cif.got.tgz:298989.got - 2010.06.03 18:47:42.
