data_PCOD9300513
_publ_section_title
;
Structure prediction by ZEFSAII (Michael W. Deem and Ramdas Pophale) SiO2 
 PCOD9300513
Probable space group: C 2/C
;
_chemical_formula_sum "Si O2"
_cell_formula_units_Z 56
_cell_length_a 11.918487
_cell_length_b 20.952285
_cell_length_c 10.547610
_cell_angle_alpha 90.000000
_cell_angle_beta 86.874616
_cell_angle_gamma 90.000000
_cell_volume 2630.026586
_symmetry_space_group_name_H-M "C 2/C"
_symmetry_group_IT_number 15
_symmetry_cell_setting 'monoclinic'
loop_
_space_group_symop_operation_xyz
x,y,z
-x,y,1/2-z
-x,-y,-z
x,-y,1/2+z
1/2+x,1/2+y,z
1/2-x,1/2+y,1/2-z
1/2-x,1/2-y,-z
1/2+x,1/2-y,1/2+z
loop_
_atom_site_type_symbol
_atom_site_label
_atom_site_fract_x
_atom_site_fract_y
_atom_site_fract_z
Si Si1 0.006604 0.618737 0.086499
Si Si2 0.236087 0.565355 0.153411
Si Si3 0.225576 0.709856 0.678137
Si Si4 0.610573 0.896241 0.325122
Si Si5 0.298729 0.973319 0.575333
Si Si6 0.326547 0.295944 0.582876
Si Si7 0.561155 0.248105 0.462882
O O1 0.902728 0.574975 0.047802
O O2 0.100969 0.582588 0.163841
O O3 0.964548 0.688123 0.126534
O O4 0.077015 0.637364 0.956904
O O5 0.271085 0.555208 0.299454
O O6 0.294944 0.628857 0.092255
O O7 0.247307 0.504576 0.054609
O O8 0.203225 0.644154 0.749893
O O9 0.197360 0.767183 0.776208
O O10 0.350734 0.709004 0.617849
O O11 0.136032 0.718472 0.571552
O O12 0.500000 0.898928 0.250000
O O13 0.648475 0.965416 0.360565
O O14 0.250000 0.250000 0.500000
O O15 0.453245 0.284132 0.525161
#
# Coordination Sequence:
#
# PCOD9300513 Si02
#       7
#     8   8   8   8   8   8   8
#     4  11  19  36  59  93 129 166 212 281 345 403
#     4  11  23  38  64  96 137 178 219 289 339 421
#     4  11  23  38  64  98 128 176 225 283 339 404
#     4  11  17  33  57  85 129 164 208 276 329 400
#     4  11  23  37  59  99 131 176 228 270 355 399
#     4  12  22  43  64  96 139 179 220 277 355 406
#     4  11  23  40  65 100 133 171 228 276 345 412
#
# _framework density 21.292560000000002
#
# number of rings (size 3 to 8) (size 9 to 14) (size 15 to 20)
#    0.000    0.857    4.286    6.000    0.000    0.571 
#    0.000    0.000    0.000    0.857    7.429    0.000 
#    0.000    0.000    0.000    0.000    0.000    0.000 
#
# Total GULP energy -156245.472772 kJ/mol
# GULP energy per Si atom -5580.195456 kJ/mol
# Density = 2.124410 g / cm^3
# Si number density = 21.292560 Si / 1000 Ang^3
#
#
#
# Elastic Constant Matrix: (Units=GPa)
#
#
# Indices 1 2 3 4 5 6 
#
# 1 77.1126 23.2136 39.6385 0.0000 -24.1932 0.0000
# 2 23.2136 88.5550 29.8353 0.0000 -24.0377 0.0000
# 3 39.6385 29.8353 112.6536 0.0000 -6.2027 0.0000
# 4 0.0000 0.0000 0.0000 41.1497 0.0000 -10.7315
# 5 -24.1932 -24.0377 -6.2027 0.0000 49.4127 0.0000
# 6 0.0000 0.0000 0.0000 -10.7315 0.0000 26.1633
#
#
#
# Elastic Compliance Matrix: (Units=1/GPa)
#
#
# Indices 1 2 3 4 5 6 
#
# 1 0.018800 -0.000713 -0.005980 0.000000 0.008107 0.000000
# 2 -0.000713 0.014225 -0.003177 0.000000 0.006172 0.000000
# 3 -0.005980 -0.003177 0.011656 0.000000 -0.003010 0.000000
# 4 0.000000 0.000000 0.000000 0.027212 0.000000 0.011162
# 5 0.008107 0.006172 -0.003010 0.000000 0.026832 0.000000
# 6 0.000000 0.000000 0.000000 0.011162 0.000000 0.042800
#
#
# Mechanical properties :
#
#
# Convention : Reuss Voigt Hill
#
# Bulk Modulus (GPa) = 40.09185 51.52179 45.80682
# Shear Modulus (GPa) = 29.48486 35.72072 32.60279
#
# Velocity S-wave (km/s) = 3.72526 4.10031 3.91728
# Velocity P-wave (km/s) = 6.11337 6.83128 6.48227
#
# Compressibility (1/GPa) = 0.02494272
#
# Stress axis : x y z
#
# Youngs Moduli (GPa) = 53.19130 70.29906 85.78955
#
# Poissons Ratio (x) = 0.05011 0.51301
# Poissons Ratio (y) = 0.03792 0.27253
# Poissons Ratio (z) = 0.31808 0.22332
#
# Static dielectric constant tensor:
#      x y z
#    x 1.772590 0.000000 0.015970 
#    y 0.000000 2.018560 0.000000 
#    z 0.015970 0.000000 1.914360 
# 
# From -- ./inp_files/89561.got.cif
#   From: 2010.05.17/outbox.cif.g08.bks.cpg/sg15_45_cif.got.tgz:89561.got - 2010.06.03 18:47:42.
