data_PCOD9300816
_publ_section_title
;
Structure prediction by ZEFSAII (Michael W. Deem and Ramdas Pophale) SiO2 
 PCOD9300816
Probable space group: C 2/C
;
_chemical_formula_sum "Si O2"
_cell_formula_units_Z 44
_cell_length_a 22.505599
_cell_length_b 9.700485
_cell_length_c 12.091752
_cell_angle_alpha 90.000000
_cell_angle_beta 131.325294
_cell_angle_gamma 90.000000
_cell_volume 1982.427903
_symmetry_space_group_name_H-M "C 2/C"
_symmetry_group_IT_number 15
_symmetry_cell_setting 'monoclinic'
loop_
_space_group_symop_operation_xyz
x,y,z
-x,y,1/2-z
-x,-y,-z
x,-y,1/2+z
1/2+x,1/2+y,z
1/2-x,1/2+y,1/2-z
1/2-x,1/2-y,-z
1/2+x,1/2-y,1/2+z
loop_
_atom_site_type_symbol
_atom_site_label
_atom_site_fract_x
_atom_site_fract_y
_atom_site_fract_z
Si Si1 0.211766 0.889898 0.792853
Si Si2 0.873367 0.384503 0.849459
Si Si3 0.925551 0.912233 0.370169
Si Si4 0.213714 0.599617 0.479838
Si Si5 0.609739 0.830489 0.055725
Si Si6 0.000000 0.833763 0.250000
O O1 0.290094 0.866735 0.814642
O O2 0.152332 0.759998 0.703605
O O3 0.153553 0.013967 0.683877
O O4 0.239150 0.955230 0.944661
O O5 0.921225 0.242627 0.910562
O O6 0.849660 0.415656 0.694118
O O7 0.919033 0.519379 0.945024
O O8 0.935091 0.909844 0.247570
O O9 0.000000 0.000000 0.500000
O O10 0.250000 0.750000 0.500000
O O11 0.178692 0.628299 0.556312
O O12 0.548100 0.749276 0.902795
#
# Coordination Sequence:
#
# PCOD9300816 Si02
#       6
#     8   8   8   8   8   4
#     4  11  22  40  70 106 136 183 239 291 352 428
#     4  11  23  42  71 101 140 182 241 295 350 424
#     4  12  25  45  72 102 141 192 238 288 357 436
#     4  11  19  39  68  96 139 185 228 288 361 416
#     4  11  23  40  66  99 135 183 233 294 353 421
#     4  12  24  46  70  92 146 194 232 284 376 416
#
# _framework density 22.195005999999999
#
# number of rings (size 3 to 8) (size 9 to 14) (size 15 to 20)
#    0.000    0.727    7.273    1.091    0.000    1.455 
#    0.000    4.545    0.000    0.000    0.000    0.000 
#    0.000    0.000    0.000    0.000    0.000    0.000 
#
# Total GULP energy -122508.300609 kJ/mol
# GULP energy per Si atom -5568.559119 kJ/mol
# Density = 2.214449 g / cm^3
# Si number density = 22.195006 Si / 1000 Ang^3
#
#
#
# Elastic Constant Matrix: (Units=GPa)
#
#
# Indices 1 2 3 4 5 6 
#
# 1 101.1640 50.0026 9.4358 0.0000 9.1685 0.0000
# 2 50.0026 141.0971 46.2072 0.0000 -0.5224 0.0000
# 3 9.4358 46.2072 82.2037 0.0000 13.7793 0.0000
# 4 0.0000 0.0000 0.0000 48.8375 0.0000 3.7268
# 5 9.1685 -0.5224 13.7793 0.0000 23.6496 0.0000
# 6 0.0000 0.0000 0.0000 3.7268 0.0000 37.0041
#
#
#
# Elastic Compliance Matrix: (Units=1/GPa)
#
#
# Indices 1 2 3 4 5 6 
#
# 1 0.012969 -0.005520 0.002746 0.000000 -0.006749 0.000000
# 2 -0.005520 0.011285 -0.006771 0.000000 0.006335 0.000000
# 3 0.002746 -0.006771 0.017576 0.000000 -0.011455 0.000000
# 4 0.000000 0.000000 0.000000 0.020635 0.000000 -0.002078
# 5 -0.006749 0.006335 -0.011455 0.000000 0.051715 0.000000
# 6 0.000000 0.000000 0.000000 -0.002078 0.000000 0.027233
#
#
# Mechanical properties :
#
#
# Convention : Reuss Voigt Hill
#
# Bulk Modulus (GPa) = 43.97943 59.52843 51.75393
# Shear Modulus (GPa) = 29.74721 36.48620 33.11671
#
# Velocity S-wave (km/s) = 3.66494 4.05889 3.86693
# Velocity P-wave (km/s) = 6.14549 6.98892 6.58073
#
# Compressibility (1/GPa) = 0.02273790
#
# Stress axis : x y z
#
# Youngs Moduli (GPa) = 77.10690 88.61690 56.89577
#
# Poissons Ratio (x) = 0.48918 -0.15622
# Poissons Ratio (y) = 0.42564 0.38526
# Poissons Ratio (z) = -0.21171 0.60005
#
# Static dielectric constant tensor:
#      x y z
#    x 2.015070 0.000000 -0.091680 
#    y 0.000000 1.926940 0.000000 
#    z -0.091680 0.000000 2.006970 
# 
# From -- ./inp_files/122107.got.cif
#   From: 2010.05.17/outbox.cif.g08.bks.cpg/sg15_62_cif.got.tgz:122107.got - 2010.06.03 18:47:42.
