data_PCOD9300066
_publ_section_title
;
Structure prediction by ZEFSAII (Michael W. Deem and Ramdas Pophale) SiO2 
 PCOD9300066
Probable space group: C 2/C
;
_chemical_formula_sum "Si O2"
_cell_formula_units_Z 32
_cell_length_a 4.837919
_cell_length_b 25.977313
_cell_length_c 9.565011
_cell_angle_alpha 90.000000
_cell_angle_beta 82.813098
_cell_angle_gamma 90.000000
_cell_volume 1192.649168
_symmetry_space_group_name_H-M "C 2/C"
_symmetry_group_IT_number 15
_symmetry_cell_setting 'monoclinic'
loop_
_space_group_symop_operation_xyz
x,y,z
-x,y,1/2-z
-x,-y,-z
x,-y,1/2+z
1/2+x,1/2+y,z
1/2-x,1/2+y,1/2-z
1/2-x,1/2-y,-z
1/2+x,1/2-y,1/2+z
loop_
_atom_site_type_symbol
_atom_site_label
_atom_site_fract_x
_atom_site_fract_y
_atom_site_fract_z
Si Si1 0.723022 0.353888 0.953962
Si Si2 0.500000 0.278682 0.750000
Si Si3 0.826464 0.951117 0.968503
Si Si4 0.813307 0.322452 0.387306
Si Si5 0.500000 0.989449 0.250000
O O1 0.560978 0.406945 0.935626
O O2 0.038169 0.349462 0.988205
O O3 0.514483 0.331367 0.086069
O O4 0.693922 0.315676 0.826600
O O5 0.641049 0.238513 0.635598
O O6 0.631655 0.951358 0.121838
O O7 0.673556 0.970344 0.837247
O O8 0.000000 0.000000 0.000000
O O9 0.000000 0.343912 0.250000
#
# Coordination Sequence:
#
# PCOD9300066 Si02
#       5
#     8   4   8   8   4
#     4  12  26  46  75 108 142 201 241 299 380 437
#     4  10  26  45  76 100 156 186 251 306 362 444
#     4  11  27  46  77 106 155 188 257 307 376 454
#     4  10  26  43  71 104 146 186 246 302 360 438
#     4  10  26  49  72 108 152 194 243 318 374 434
#
# _framework density 26.831023999999999
#
# number of rings (size 3 to 8) (size 9 to 14) (size 15 to 20)
#    0.750    0.500    0.000    3.000   12.250    5.000 
#    0.000    0.000    0.000    0.000    0.000    0.000 
#    0.000    0.000    0.000    0.000    0.000    0.000 
#
# Total GULP energy -89321.024056 kJ/mol
# GULP energy per Si atom -5582.564004 kJ/mol
# Density = 2.676996 g / cm^3
# Si number density = 26.831024 Si / 1000 Ang^3
#
#
#
# Elastic Constant Matrix: (Units=GPa)
#
#
# Indices 1 2 3 4 5 6 
#
# 1 114.6093 24.0783 43.9470 0.0000 8.5440 0.0000
# 2 24.0783 181.0878 35.1278 0.0000 9.4522 0.0000
# 3 43.9470 35.1278 153.7415 0.0000 7.8644 0.0000
# 4 0.0000 0.0000 0.0000 22.2323 0.0000 22.2903
# 5 8.5440 9.4522 7.8644 0.0000 58.7992 0.0000
# 6 0.0000 0.0000 0.0000 22.2903 0.0000 20.8633
#
#
#
# Elastic Compliance Matrix: (Units=1/GPa)
#
#
# Indices 1 2 3 4 5 6 
#
# 1 0.009965 -0.000765 -0.002624 0.000000 -0.000974 0.000000
# 2 -0.000765 0.005871 -0.001088 0.000000 -0.000687 0.000000
# 3 -0.002624 -0.001088 0.007526 0.000000 -0.000451 0.000000
# 4 0.000000 0.000000 0.000000 -0.631894 0.000000 0.675113
# 5 -0.000974 -0.000687 -0.000451 0.000000 0.017319 0.000000
# 6 0.000000 0.000000 0.000000 0.675113 0.000000 -0.673357
#
#
# Mechanical properties :
#
#
# Convention : Reuss Voigt Hill
#
# Bulk Modulus (GPa) = 69.40315 72.86052 71.13183
# Shear Modulus (GPa) = -3.99739 43.46466 19.73363
#
# Velocity S-wave (km/s) = -1.22191 4.02921 2.71491
# Velocity P-wave (km/s) = 4.89205 6.99002 6.03293
#
# Compressibility (1/GPa) = 0.01440857
#
# Stress axis : x y z
#
# Youngs Moduli (GPa) = 100.35378 170.33609 132.87343
#
# Poissons Ratio (x) = 0.13033 0.34863
# Poissons Ratio (y) = 0.07679 0.14450
# Poissons Ratio (z) = 0.26331 0.18524
#
# Static dielectric constant tensor:
#      x y z
#    x 2.414900 0.000000 -0.164400 
#    y 0.000000 2.121890 0.000000 
#    z -0.164400 0.000000 2.129140 
# 
# From -- ./inp_files/19999.got.cif
#   From: 2010.05.17/outbox.cif.g08.bks.cpg/sg15_10_cif.got.tgz:19999.got - 2010.06.03 18:47:42.
