data_PCOD9300933
_publ_section_title
;
Structure prediction by ZEFSAII (Michael W. Deem and Ramdas Pophale) SiO2 
 PCOD9300933
Probable space group: C 2/C
;
_chemical_formula_sum "Si O2"
_cell_formula_units_Z 52
_cell_length_a 25.615694
_cell_length_b 6.701858
_cell_length_c 20.178976
_cell_angle_alpha 90.000000
_cell_angle_beta 140.956873
_cell_angle_gamma 90.000000
_cell_volume 2182.105026
_symmetry_space_group_name_H-M "C 2/C"
_symmetry_group_IT_number 15
_symmetry_cell_setting 'monoclinic'
loop_
_space_group_symop_operation_xyz
x,y,z
-x,y,1/2-z
-x,-y,-z
x,-y,1/2+z
1/2+x,1/2+y,z
1/2-x,1/2+y,1/2-z
1/2-x,1/2-y,-z
1/2+x,1/2-y,1/2+z
loop_
_atom_site_type_symbol
_atom_site_label
_atom_site_fract_x
_atom_site_fract_y
_atom_site_fract_z
Si Si1 0.500000 0.001544 0.750000
Si Si2 0.821760 0.617688 0.834445
Si Si3 0.320034 0.422713 0.006454
Si Si4 0.068275 0.691591 0.123210
Si Si5 0.359848 0.276857 0.176029
Si Si6 0.408894 0.031781 0.040271
Si Si7 0.146455 0.069752 0.599057
O O1 0.565325 0.863862 0.774925
O O2 0.552173 0.100778 0.861806
O O3 0.872193 0.497975 0.829166
O O4 0.855662 0.836538 0.883798
O O5 0.728671 0.641582 0.718270
O O6 0.834318 0.490984 0.915172
O O7 0.224403 0.354100 0.905637
O O8 0.342684 0.572414 0.969685
O O9 0.341469 0.453810 0.105164
O O10 0.373931 0.225929 0.043500
O O11 0.109978 0.830721 0.220756
O O12 0.982753 0.602235 0.064552
O O13 0.069773 0.813544 0.055969
#
# Coordination Sequence:
#
# PCOD9300933 Si02
#       7
#     4   8   8   8   8   8   8
#     4   8  16  30  52  82 108 148 192 228 282 334
#     4  11  20  34  53  82 110 146 187 229 278 336
#     4   9  17  31  52  78 107 148 186 223 277 334
#     4  11  20  35  56  82 113 147 186 241 283 328
#     4   9  16  31  54  77 108 147 188 227 273 331
#     4   9  19  32  53  83 112 144 191 234 280 337
#     4  11  21  35  57  82 116 149 187 235 282 332
#
# _framework density 23.830200999999999
#
# number of rings (size 3 to 8) (size 9 to 14) (size 15 to 20)
#    0.000    2.154    3.077    1.385    0.000    2.462 
#    0.000    0.000    0.000    8.308    0.000   20.462 
#    0.000    0.000    0.000    0.000    0.000    0.000 
#
# Total GULP energy -144923.846482 kJ/mol
# GULP energy per Si atom -5573.994095 kJ/mol
# Density = 2.377596 g / cm^3
# Si number density = 23.830201 Si / 1000 Ang^3
#
#
#
# Elastic Constant Matrix: (Units=GPa)
#
#
# Indices 1 2 3 4 5 6 
#
# 1 110.2711 23.4099 29.4642 0.0000 -1.0595 0.0000
# 2 23.4099 51.5655 23.7013 -0.0001 -1.0649 -0.0001
# 3 29.4642 23.7013 128.6576 0.0000 -33.4117 0.0000
# 4 0.0000 -0.0001 0.0000 26.1824 0.0000 -5.2219
# 5 -1.0595 -1.0649 -33.4117 0.0000 54.9728 0.0000
# 6 0.0000 -0.0001 0.0000 -5.2219 0.0000 15.5417
#
#
#
# Elastic Compliance Matrix: (Units=1/GPa)
#
#
# Indices 1 2 3 4 5 6 
#
# 1 0.010395 -0.003846 -0.001947 0.000000 -0.001057 0.000000
# 2 -0.003846 0.022864 -0.003842 0.000000 -0.001966 0.000000
# 3 -0.001947 -0.003842 0.010565 0.000000 0.006309 0.000000
# 4 0.000000 0.000000 0.000000 0.040937 0.000000 0.013755
# 5 -0.001057 -0.001966 0.006309 0.000000 0.021967 0.000000
# 6 0.000000 0.000000 0.000000 0.013755 0.000000 0.068965
#
#
# Mechanical properties :
#
#
# Convention : Reuss Voigt Hill
#
# Bulk Modulus (GPa) = 40.72596 49.29390 45.00993
# Shear Modulus (GPa) = 24.61279 33.60063 29.10671
#
# Velocity S-wave (km/s) = 3.21727 3.75907 3.49868
# Velocity P-wave (km/s) = 5.56132 6.29057 5.93715
#
# Compressibility (1/GPa) = 0.02455436
#
# Stress axis : x y z
#
# Youngs Moduli (GPa) = 96.19940 43.73649 94.65638
#
# Poissons Ratio (x) = 0.16822 0.18426
# Poissons Ratio (y) = 0.37001 0.36365
# Poissons Ratio (z) = 0.18726 0.16803
#
# Static dielectric constant tensor:
#      x y z
#    x 1.967660 0.000000 -0.080410 
#    y 0.000000 1.962670 0.000000 
#    z -0.080410 0.000000 2.028990 
# 
# From -- ./inp_files/221833.got.cif
#   From: 2010.05.17/outbox.cif.g08.bks.cpg/sg15_111_cif.got.tgz:221833.got - 2010.06.03 18:47:42.
