data_PCOD9300769
_publ_section_title
;
Structure prediction by ZEFSAII (Michael W. Deem and Ramdas Pophale) SiO2 
 PCOD9300769
Probable space group: C 2/C
;
_chemical_formula_sum "Si O2"
_cell_formula_units_Z 56
_cell_length_a 31.522657
_cell_length_b 9.219624
_cell_length_c 17.082640
_cell_angle_alpha 90.000000
_cell_angle_beta 142.410408
_cell_angle_gamma 90.000000
_cell_volume 3028.459196
_symmetry_space_group_name_H-M "C 2/C"
_symmetry_group_IT_number 15
_symmetry_cell_setting 'monoclinic'
loop_
_space_group_symop_operation_xyz
x,y,z
-x,y,1/2-z
-x,-y,-z
x,-y,1/2+z
1/2+x,1/2+y,z
1/2-x,1/2+y,1/2-z
1/2-x,1/2-y,-z
1/2+x,1/2-y,1/2+z
loop_
_atom_site_type_symbol
_atom_site_label
_atom_site_fract_x
_atom_site_fract_y
_atom_site_fract_z
Si Si1 0.679022 0.834916 0.577809
Si Si2 0.304163 0.456962 0.483865
Si Si3 0.764885 0.453906 0.460687
Si Si4 0.924853 0.825881 0.141607
Si Si5 0.798552 0.679477 0.216656
Si Si6 0.542834 0.025220 0.390728
Si Si7 0.593502 0.880394 0.743688
O O1 0.675958 0.703619 0.511967
O O2 0.728246 0.951472 0.607255
O O3 0.705548 0.776385 0.699648
O O4 0.606473 0.915954 0.491378
O O5 0.288168 0.481774 0.552614
O O6 0.363840 0.563512 0.540467
O O7 0.235492 0.520663 0.341810
O O8 0.741965 0.293002 0.399222
O O9 0.841166 0.454962 0.614274
O O10 0.927130 0.686687 0.086528
O O11 0.917956 0.758492 0.217976
O O12 0.000000 0.898915 0.250000
O O13 0.875791 0.664583 0.294574
O O14 0.500000 0.984237 0.250000
O O15 0.480586 0.038000 0.362992
#
# Coordination Sequence:
#
# PCOD9300769 Si02
#       7
#     8   8   8   8   8   8   8
#     4  12  23  33  52  91 119 142 175 247 302 318
#     4  11  21  35  56  83 109 150 190 231 276 335
#     4  11  19  38  57  78 113 150 196 228 268 349
#     4   9  16  33  59  81  95 143 202 226 251 334
#     4  11  21  35  59  81 115 149 189 231 282 340
#     4   9  18  35  59  79 112 144 194 231 268 337
#     4   9  16  35  63  77  98 153 201 220 260 331
#
# _framework density 18.491250999999998
#
# number of rings (size 3 to 8) (size 9 to 14) (size 15 to 20)
#    0.000    2.000    5.714    2.143    0.000    1.143 
#    0.000    0.000    0.000    3.429    0.000    0.000 
#    0.000    0.000    0.000    0.000    0.000    0.000 
#
# Total GULP energy -155890.104708 kJ/mol
# GULP energy per Si atom -5567.503740 kJ/mol
# Density = 1.844916 g / cm^3
# Si number density = 18.491251 Si / 1000 Ang^3
#
#
#
# Elastic Constant Matrix: (Units=GPa)
#
#
# Indices 1 2 3 4 5 6 
#
# 1 124.7054 36.3450 31.4643 0.0000 10.7677 0.0000
# 2 36.3450 66.1392 17.4063 0.0000 10.8300 0.0000
# 3 31.4643 17.4063 28.1848 0.0000 5.7055 0.0000
# 4 0.0000 0.0000 0.0000 14.9215 0.0000 -6.5966
# 5 10.7677 10.8300 5.7055 0.0000 34.8463 0.0000
# 6 0.0000 0.0000 0.0000 -6.5966 0.0000 7.2444
#
#
#
# Elastic Compliance Matrix: (Units=1/GPa)
#
#
# Indices 1 2 3 4 5 6 
#
# 1 0.011866 -0.003520 -0.010914 0.000000 -0.000786 0.000000
# 2 -0.003520 0.019630 -0.007425 0.000000 -0.003797 0.000000
# 3 -0.010914 -0.007425 0.052852 0.000000 -0.002973 0.000000
# 4 0.000000 0.000000 0.000000 0.112173 0.000000 0.102142
# 5 -0.000786 -0.003797 -0.002973 0.000000 0.030607 0.000000
# 6 0.000000 0.000000 0.000000 0.102142 0.000000 0.231045
#
#
# Mechanical properties :
#
#
# Convention : Reuss Voigt Hill
#
# Bulk Modulus (GPa) = 24.61240 43.27341 33.94291
# Shear Modulus (GPa) = 9.70058 20.32337 15.01198
#
# Velocity S-wave (km/s) = 2.29291 3.31883 2.85238
# Velocity P-wave (km/s) = 4.51100 6.17569 5.40778
#
# Compressibility (1/GPa) = 0.04062992
#
# Stress axis : x y z
#
# Youngs Moduli (GPa) = 84.27198 50.94330 18.92091
#
# Poissons Ratio (x) = 0.17931 0.20651
# Poissons Ratio (y) = 0.29662 0.14048
# Poissons Ratio (z) = 0.91977 0.37824
#
# Static dielectric constant tensor:
#      x y z
#    x 1.685750 0.000000 0.020480 
#    y 0.000000 1.647770 0.000000 
#    z 0.020480 0.000000 1.680230 
# 
# From -- ./inp_files/224440.got.cif
#   From: 2010.05.17/outbox.cif.g08.bks.cpg/sg15_113_cif.got.tgz:224440.got - 2010.06.03 18:47:42.
