data_PCOD9300379
_publ_section_title
;
Structure prediction by ZEFSAII (Michael W. Deem and Ramdas Pophale) SiO2 
 PCOD9300379
Probable space group: C 2/C
;
_chemical_formula_sum "Si O2"
_cell_formula_units_Z 44
_cell_length_a 19.164501
_cell_length_b 13.885490
_cell_length_c 9.198916
_cell_angle_alpha 90.000000
_cell_angle_beta 42.780884
_cell_angle_gamma 90.000000
_cell_volume 1662.611564
_symmetry_space_group_name_H-M "C 2/C"
_symmetry_group_IT_number 15
_symmetry_cell_setting 'monoclinic'
loop_
_space_group_symop_operation_xyz
x,y,z
-x,y,1/2-z
-x,-y,-z
x,-y,1/2+z
1/2+x,1/2+y,z
1/2-x,1/2+y,1/2-z
1/2-x,1/2-y,-z
1/2+x,1/2-y,1/2+z
loop_
_atom_site_type_symbol
_atom_site_label
_atom_site_fract_x
_atom_site_fract_y
_atom_site_fract_z
Si Si1 0.862513 0.579786 0.187989
Si Si2 0.166322 0.046932 0.091496
Si Si3 0.382669 0.307634 0.614637
Si Si4 0.000000 0.539575 0.250000
Si Si5 0.700891 0.289767 0.337144
Si Si6 0.598419 0.353620 0.244184
O O1 0.766596 0.509718 0.379188
O O2 0.833743 0.683062 0.159074
O O3 0.930934 0.593335 0.231750
O O4 0.926837 0.524704 0.964941
O O5 0.137638 0.137524 0.034528
O O6 0.081174 0.965387 0.240092
O O7 0.172043 0.097712 0.239095
O O8 0.308302 0.219197 0.759831
O O9 0.386881 0.307963 0.434252
O O10 0.800365 0.156294 0.814457
O O11 0.501152 0.309727 0.476125
#
# Coordination Sequence:
#
# PCOD9300379 Si02
#       6
#     8   8   8   4   8   8
#     4  11  26  48  79 112 159 206 264 333 394 470
#     4  12  26  48  77 111 161 203 257 328 402 466
#     4  11  25  47  73 115 149 206 260 318 389 476
#     4  10  26  50  78 118 154 206 272 328 392 470
#     4  12  27  48  77 112 157 206 262 324 400 472
#     4  11  26  46  76 110 155 203 261 319 397 466
#
# _framework density 26.464388
#
# number of rings (size 3 to 8) (size 9 to 14) (size 15 to 20)
#    0.000    0.727    1.818    3.818    2.545    8.000 
#    0.000    0.000    0.000    0.000    0.000    0.000 
#    0.000    0.000    0.000    0.000    0.000    0.000 
#
# Total GULP energy -122954.299420 kJ/mol
# GULP energy per Si atom -5588.831792 kJ/mol
# Density = 2.640415 g / cm^3
# Si number density = 26.464388 Si / 1000 Ang^3
#
#
#
# Elastic Constant Matrix: (Units=GPa)
#
#
# Indices 1 2 3 4 5 6 
#
# 1 120.4480 53.7676 37.9093 0.0000 2.4056 0.0000
# 2 53.7676 143.8062 47.3958 0.0000 -8.3421 0.0000
# 3 37.9093 47.3958 129.0125 0.0000 -10.7233 0.0000
# 4 0.0000 0.0000 0.0000 36.3942 0.0000 23.9205
# 5 2.4056 -8.3421 -10.7233 0.0000 29.4775 0.0000
# 6 0.0000 0.0000 0.0000 23.9205 0.0000 22.0564
#
#
#
# Elastic Compliance Matrix: (Units=1/GPa)
#
#
# Indices 1 2 3 4 5 6 
#
# 1 0.010520 -0.003406 -0.002054 0.000000 -0.002569 0.000000
# 2 -0.003406 0.009057 -0.002156 0.000000 0.002057 0.000000
# 3 -0.002054 -0.002156 0.009394 0.000000 0.002975 0.000000
# 4 0.000000 0.000000 0.000000 0.095674 0.000000 -0.103760
# 5 -0.002569 0.002057 0.002975 0.000000 0.035798 0.000000
# 6 0.000000 0.000000 0.000000 -0.103760 0.000000 0.157867
#
#
# Mechanical properties :
#
#
# Convention : Reuss Voigt Hill
#
# Bulk Modulus (GPa) = 72.77418 74.60136 73.68777
# Shear Modulus (GPa) = 14.78763 34.53188 24.65976
#
# Velocity S-wave (km/s) = 2.36641 3.61618 3.05587
# Velocity P-wave (km/s) = 5.91820 6.75916 6.35261
#
# Compressibility (1/GPa) = 0.01374114
#
# Stress axis : x y z
#
# Youngs Moduli (GPa) = 95.05446 110.41328 106.45286
#
# Poissons Ratio (x) = 0.37602 0.21863
# Poissons Ratio (y) = 0.32372 0.22947
# Poissons Ratio (z) = 0.19522 0.23801
#
# Static dielectric constant tensor:
#      x y z
#    x 2.261600 0.000000 -0.040120 
#    y 0.000000 2.071100 0.000000 
#    z -0.040120 0.000000 2.121660 
# 
# From -- ./inp_files/65691.got.cif
#   From: 2010.05.17/outbox.cif.g08.bks.cpg/sg15_33_cif.got.tgz:65691.got - 2010.06.03 18:47:42.
