data_PCOD9300108
_publ_section_title
;
Structure prediction by ZEFSAII (Michael W. Deem and Ramdas Pophale) SiO2 
 PCOD9300108
Probable space group: C 2/C
;
_chemical_formula_sum "Si O2"
_cell_formula_units_Z 44
_cell_length_a 16.331627
_cell_length_b 4.842269
_cell_length_c 29.349899
_cell_angle_alpha 90.000000
_cell_angle_beta 122.908495
_cell_angle_gamma 90.000000
_cell_volume 1948.614892
_symmetry_space_group_name_H-M "C 2/C"
_symmetry_group_IT_number 15
_symmetry_cell_setting 'monoclinic'
loop_
_space_group_symop_operation_xyz
x,y,z
-x,y,1/2-z
-x,-y,-z
x,-y,1/2+z
1/2+x,1/2+y,z
1/2-x,1/2+y,1/2-z
1/2-x,1/2-y,-z
1/2+x,1/2-y,1/2+z
loop_
_atom_site_type_symbol
_atom_site_label
_atom_site_fract_x
_atom_site_fract_y
_atom_site_fract_z
Si Si1 0.250000 0.250000 0.000000
Si Si2 0.602625 0.165369 0.804038
Si Si3 0.958726 0.133147 0.387608
Si Si4 0.468433 0.143429 0.036918
Si Si5 0.246777 0.877159 0.717693
Si Si6 0.387557 0.646640 0.629964
O O1 0.144885 0.279341 0.995130
O O2 0.189204 0.183366 0.933995
O O3 0.500000 0.240240 0.750000
O O4 0.671869 0.026096 0.787764
O O5 0.647810 0.432660 0.842103
O O6 0.588362 0.933345 0.838516
O O7 0.848236 0.186452 0.340811
O O8 0.969043 0.913381 0.431810
O O9 0.017402 0.993060 0.363946
O O10 0.011501 0.413032 0.418432
O O11 0.500000 0.000000 0.000000
O O12 0.217589 0.099419 0.747506
#
# Coordination Sequence:
#
# PCOD9300108 Si02
#       6
#     4   8   8   8   8   8
#     4  10  26  44  72 102 144 190 234 290 368 410
#     4  12  25  42  70 100 134 181 233 288 352 427
#     4  11  24  44  66  99 136 184 227 290 356 409
#     4  11  25  43  69 100 141 182 237 294 347 435
#     4  12  25  43  69  99 139 180 230 291 357 425
#     4  11  24  44  68  98 139 178 234 289 345 435
#
# _framework density 22.580144000000001
#
# number of rings (size 3 to 8) (size 9 to 14) (size 15 to 20)
#    0.000    0.727    0.000    7.636    5.091    6.545 
#    0.000    0.000    0.000    0.000    0.000    0.000 
#    0.000    0.000    0.000    0.000    0.000    0.000 
#
# Total GULP energy -122724.745523 kJ/mol
# GULP energy per Si atom -5578.397524 kJ/mol
# Density = 2.252875 g / cm^3
# Si number density = 22.580144 Si / 1000 Ang^3
#
#
#
# Elastic Constant Matrix: (Units=GPa)
#
#
# Indices 1 2 3 4 5 6 
#
# 1 70.2208 -25.6039 36.8086 0.0004 0.1511 -0.0006
# 2 -25.6039 86.9733 15.2890 0.0010 -8.2911 -0.0012
# 3 36.8086 15.2890 87.6543 0.0005 12.8675 -0.0002
# 4 0.0004 0.0010 0.0005 19.1231 -0.0001 -15.2200
# 5 0.1511 -8.2911 12.8675 -0.0001 35.6277 0.0005
# 6 -0.0006 -0.0012 -0.0002 -15.2200 0.0005 20.8421
#
#
#
# Elastic Compliance Matrix: (Units=1/GPa)
#
#
# Indices 1 2 3 4 5 6 
#
# 1 0.025026 0.010399 -0.013372 0.000000 0.007143 0.000001
# 2 0.010399 0.016664 -0.008275 0.000000 0.006823 0.000001
# 3 -0.013372 -0.008275 0.019791 -0.000001 -0.009017 -0.000001
# 4 0.000000 0.000000 -0.000001 0.124866 -0.000001 0.091184
# 5 0.007143 0.006823 -0.009017 -0.000001 0.032882 -0.000001
# 6 0.000001 0.000001 -0.000001 0.091184 -0.000001 0.114567
#
#
# Mechanical properties :
#
#
# Convention : Reuss Voigt Hill
#
# Bulk Modulus (GPa) = 25.65045 33.09288 29.37166
# Shear Modulus (GPa) = 13.53961 29.67556 21.60758
#
# Velocity S-wave (km/s) = 2.45138 3.62917 3.09678
# Velocity P-wave (km/s) = 4.40417 5.67879 5.08161
#
# Compressibility (1/GPa) = 0.03898567
#
# Stress axis : x y z
#
# Youngs Moduli (GPa) = 39.95794 60.00898 50.52906
#
# Poissons Ratio (x) = -0.62403 0.67566
# Poissons Ratio (y) = -0.41552 0.41813
# Poissons Ratio (z) = 0.53431 0.49657
#
# Static dielectric constant tensor:
#      x y z
#    x 1.841510 0.000000 -0.057680 
#    y 0.000000 1.870970 0.000000 
#    z -0.057680 0.000000 1.829260 
# 
# From -- ./inp_files/294480.got.cif
#   From: 2010.05.17/outbox.cif.g08.bks.cpg/sg15_148_cif.got.tgz:294480.got - 2010.06.03 18:47:42.
