data_PCOD9300870
_publ_section_title
;
Structure prediction by ZEFSAII (Michael W. Deem and Ramdas Pophale) SiO2 
 PCOD9300870
Probable space group: C 2/C
;
_chemical_formula_sum "Si O2"
_cell_formula_units_Z 56
_cell_length_a 14.983540
_cell_length_b 12.634974
_cell_length_c 12.606384
_cell_angle_alpha 90.000000
_cell_angle_beta 92.667198
_cell_angle_gamma 90.000000
_cell_volume 2384.012790
_symmetry_space_group_name_H-M "C 2/C"
_symmetry_group_IT_number 15
_symmetry_cell_setting 'monoclinic'
loop_
_space_group_symop_operation_xyz
x,y,z
-x,y,1/2-z
-x,-y,-z
x,-y,1/2+z
1/2+x,1/2+y,z
1/2-x,1/2+y,1/2-z
1/2-x,1/2-y,-z
1/2+x,1/2-y,1/2+z
loop_
_atom_site_type_symbol
_atom_site_label
_atom_site_fract_x
_atom_site_fract_y
_atom_site_fract_z
Si Si1 0.848246 0.270009 0.314387
Si Si2 0.408713 0.484623 0.556530
Si Si3 0.000000 0.125611 0.250000
Si Si4 0.221023 0.541204 0.556746
Si Si5 0.153021 0.771040 0.043130
Si Si6 0.685548 0.858241 0.730804
Si Si7 0.603433 0.902331 0.396028
Si Si8 0.000000 0.533118 0.250000
O O1 0.939125 0.202080 0.319243
O O2 0.828092 0.354093 0.404753
O O3 0.768098 0.183380 0.303876
O O4 0.856080 0.340374 0.204643
O O5 0.500000 0.500000 0.500000
O O6 0.435542 0.446044 0.675215
O O7 0.326638 0.565967 0.549719
O O8 0.368512 0.386526 0.491337
O O9 0.216679 0.449308 0.648610
O O10 0.171944 0.486543 0.453218
O O11 0.157888 0.747144 0.165577
O O12 0.250000 0.750000 0.000000
O O13 0.088615 0.685997 0.984344
O O14 0.591023 0.902559 0.763983
O O15 0.512169 0.957105 0.352422
#
# Coordination Sequence:
#
# PCOD9300870 Si02
#       8
#     8   8   4   8   8   8   8   4
#     4  12  23  44  75  98 142 187 237 294 351 423
#     4  12  26  43  68 103 139 182 238 293 350 422
#     4  12  25  46  71 106 132 190 243 282 357 436
#     4  11  24  44  72 104 137 190 233 291 354 418
#     4  11  19  42  70  91 130 188 229 270 351 428
#     4  11  23  42  67  98 138 179 232 280 350 421
#     4  11  22  43  70 101 134 181 241 280 355 419
#     4  12  27  40  69 108 138 174 231 308 349 402
#
# _framework density 23.489806999999999
#
# number of rings (size 3 to 8) (size 9 to 14) (size 15 to 20)
#    0.000    0.571    8.571    0.429    0.000    8.000 
#    0.000    1.429    0.000    0.000    0.000    0.000 
#    0.000    0.000    0.000    0.000    0.000    0.000 
#
# Total GULP energy -156454.041267 kJ/mol
# GULP energy per Si atom -5587.644331 kJ/mol
# Density = 2.343634 g / cm^3
# Si number density = 23.489807 Si / 1000 Ang^3
#
#
#
# Elastic Constant Matrix: (Units=GPa)
#
#
# Indices 1 2 3 4 5 6 
#
# 1 154.5930 35.2605 21.6144 0.0000 3.6899 0.0000
# 2 35.2605 38.8659 -0.3122 0.0000 5.6825 0.0000
# 3 21.6144 -0.3122 24.1209 0.0000 12.5740 0.0000
# 4 0.0000 0.0000 0.0000 3.1527 0.0000 4.4575
# 5 3.6899 5.6825 12.5740 0.0000 31.9441 0.0000
# 6 0.0000 0.0000 0.0000 4.4575 0.0000 38.0447
#
#
#
# Elastic Compliance Matrix: (Units=1/GPa)
#
#
# Indices 1 2 3 4 5 6 
#
# 1 0.010427 -0.010362 -0.012343 0.000000 0.005497 0.000000
# 2 -0.010362 0.036954 0.015811 0.000000 -0.011600 0.000000
# 3 -0.012343 0.015811 0.067244 0.000000 -0.027856 0.000000
# 4 0.000000 0.000000 0.000000 0.380159 0.000000 -0.044541
# 5 0.005497 -0.011600 -0.027856 0.000000 0.043698 0.000000
# 6 0.000000 0.000000 0.000000 -0.044541 0.000000 0.031504
#
#
# Mechanical properties :
#
#
# Convention : Reuss Voigt Hill
#
# Bulk Modulus (GPa) = 9.91719 36.74505 23.33112
# Shear Modulus (GPa) = 8.09867 25.36278 16.73073
#
# Velocity S-wave (km/s) = 1.85882 3.28950 2.67171
# Velocity P-wave (km/s) = 2.97288 5.48677 4.41264
#
# Compressibility (1/GPa) = 0.10083501
#
# Stress axis : x y z
#
# Youngs Moduli (GPa) = 95.90822 27.06094 14.87128
#
# Poissons Ratio (x) = 0.28041 0.18356
# Poissons Ratio (y) = 0.99383 -0.23513
# Poissons Ratio (z) = 1.18380 -0.42786
#
# Static dielectric constant tensor:
#      x y z
#    x 1.608940 0.000000 0.215660 
#    y 0.000000 1.938950 0.000000 
#    z 0.215660 0.000000 1.739530 
# 
# From -- ./inp_files/152661.got.cif
#   From: 2010.05.17/outbox.cif.g08.bks.cpg/sg15_77_cif.got.tgz:152661.got - 2010.06.03 18:47:42.
