data_PCOD9300661
_publ_section_title
;
Structure prediction by ZEFSAII (Michael W. Deem and Ramdas Pophale) SiO2 
 PCOD9300661
Probable space group: C 2/C
;
_chemical_formula_sum "Si O2"
_cell_formula_units_Z 56
_cell_length_a 5.038342
_cell_length_b 24.685454
_cell_length_c 24.603722
_cell_angle_alpha 90.000000
_cell_angle_beta 80.172913
_cell_angle_gamma 90.000000
_cell_volume 3015.158166
_symmetry_space_group_name_H-M "C 2/C"
_symmetry_group_IT_number 15
_symmetry_cell_setting 'monoclinic'
loop_
_space_group_symop_operation_xyz
x,y,z
-x,y,1/2-z
-x,-y,-z
x,-y,1/2+z
1/2+x,1/2+y,z
1/2-x,1/2+y,1/2-z
1/2-x,1/2-y,-z
1/2+x,1/2-y,1/2+z
loop_
_atom_site_type_symbol
_atom_site_label
_atom_site_fract_x
_atom_site_fract_y
_atom_site_fract_z
Si Si1 0.466576 0.497538 0.390502
Si Si2 0.688354 0.292238 0.080338
Si Si3 0.219977 0.599044 0.436478
Si Si4 0.401875 0.950098 0.445922
Si Si5 0.349556 0.154346 0.875318
Si Si6 0.717551 0.329955 0.956348
Si Si7 0.275019 0.572817 0.713072
O O1 0.358518 0.558524 0.389101
O O2 0.692934 0.494155 0.429774
O O3 0.599870 0.470857 0.332997
O O4 0.205485 0.462255 0.416615
O O5 0.377016 0.301401 0.104482
O O6 0.763987 0.229844 0.069432
O O7 0.862986 0.320221 0.121177
O O8 0.747028 0.321847 0.020531
O O9 0.128087 0.560046 0.489416
O O10 0.439377 0.640979 0.451714
O O11 0.961044 0.632537 0.427558
O O12 0.312691 0.894766 0.419304
O O13 0.307164 0.125620 0.819159
O O14 0.500000 0.585070 0.750000
O O15 0.000000 0.552269 0.750000
#
# Coordination Sequence:
#
# PCOD9300661 Si02
#       7
#     8   8   8   8   8   8   8
#     4  11  23  35  55  79 114 149 187 231 287 331
#     4  11  20  36  52  83 113 159 188 226 271 318
#     4  12  21  35  51  82 116 161 190 227 259 335
#     4  11  19  34  51  81 114 153 187 222 264 342
#     4  11  20  35  60  78 115 147 187 229 291 336
#     4  11  22  33  54  79 121 156 197 223 253 327
#     4  11  23  40  60  85 109 139 187 244 295 349
#
# _framework density 18.572824000000001
#
# number of rings (size 3 to 8) (size 9 to 14) (size 15 to 20)
#    0.000    0.857    2.857    7.714    0.000    2.286 
#    0.000    0.000    0.000    0.000    0.000   15.000 
#    0.000    0.000    0.000    0.000    0.000    0.000 
#
# Total GULP energy -156542.876387 kJ/mol
# GULP energy per Si atom -5590.817014 kJ/mol
# Density = 1.853055 g / cm^3
# Si number density = 18.572824 Si / 1000 Ang^3
#
#
#
# Elastic Constant Matrix: (Units=GPa)
#
#
# Indices 1 2 3 4 5 6 
#
# 1 84.0030 -3.1877 10.6135 0.0000 -12.5286 0.0000
# 2 -3.1877 48.9424 13.6733 0.0000 -11.4035 0.0000
# 3 10.6135 13.6733 62.1683 0.0000 -3.5777 0.0000
# 4 0.0000 0.0000 0.0000 5.8102 0.0000 -1.0321
# 5 -12.5286 -11.4035 -3.5777 0.0000 32.9710 0.0000
# 6 0.0000 0.0000 0.0000 -1.0321 0.0000 30.3819
#
#
#
# Elastic Compliance Matrix: (Units=1/GPa)
#
#
# Indices 1 2 3 4 5 6 
#
# 1 0.013195 0.002914 -0.002563 0.000000 0.005744 0.000000
# 2 0.002914 0.024176 -0.005303 0.000000 0.008893 0.000000
# 3 -0.002563 -0.005303 0.017638 0.000000 -0.000894 0.000000
# 4 0.000000 0.000000 0.000000 0.173155 0.000000 0.005882
# 5 0.005744 0.008893 -0.000894 0.000000 0.035491 0.000000
# 6 0.000000 0.000000 0.000000 0.005882 0.000000 0.033114
#
#
# Mechanical properties :
#
#
# Convention : Reuss Voigt Hill
#
# Bulk Modulus (GPa) = 22.17073 26.36799 24.26936
# Shear Modulus (GPa) = 15.54204 25.43361 20.48783
#
# Velocity S-wave (km/s) = 2.89592 3.70455 3.32491
# Velocity P-wave (km/s) = 4.81091 5.70317 5.27594
#
# Compressibility (1/GPa) = 0.04510451
#
# Stress axis : x y z
#
# Youngs Moduli (GPa) = 75.78406 41.36417 56.69653
#
# Poissons Ratio (x) = -0.12052 0.14532
# Poissons Ratio (y) = -0.22082 0.30065
# Poissons Ratio (z) = 0.19424 0.21935
#
# Static dielectric constant tensor:
#      x y z
#    x 1.649410 0.000000 0.002660 
#    y 0.000000 1.652140 0.000000 
#    z 0.002660 0.000000 1.631380 
# 
# From -- ./inp_files/286227.got.cif
#   From: 2010.05.17/outbox.cif.g08.bks.cpg/sg15_144_cif.got.tgz:286227.got - 2010.06.03 18:47:42.
