data_PCOD9300507
_publ_section_title
;
Structure prediction by ZEFSAII (Michael W. Deem and Ramdas Pophale) SiO2 
 PCOD9300507
Probable space group: C 2/C
;
_chemical_formula_sum "Si O2"
_cell_formula_units_Z 48
_cell_length_a 20.844998
_cell_length_b 9.437765
_cell_length_c 15.977761
_cell_angle_alpha 90.000000
_cell_angle_beta 113.222322
_cell_angle_gamma 90.000000
_cell_volume 2888.642819
_symmetry_space_group_name_H-M "C 2/C"
_symmetry_group_IT_number 15
_symmetry_cell_setting 'monoclinic'
loop_
_space_group_symop_operation_xyz
x,y,z
-x,y,1/2-z
-x,-y,-z
x,-y,1/2+z
1/2+x,1/2+y,z
1/2-x,1/2+y,1/2-z
1/2-x,1/2-y,-z
1/2+x,1/2-y,1/2+z
loop_
_atom_site_type_symbol
_atom_site_label
_atom_site_fract_x
_atom_site_fract_y
_atom_site_fract_z
Si Si1 0.578226 0.182408 0.259124
Si Si2 0.919948 0.164939 0.915513
Si Si3 0.102920 0.425272 0.497725
Si Si4 0.919946 0.836804 0.939031
Si Si5 0.050456 0.579046 0.641420
Si Si6 0.826974 0.688788 0.031294
O O1 0.500000 0.214849 0.250000
O O2 0.592445 0.274111 0.183302
O O3 0.631647 0.209220 0.360881
O O4 0.578492 0.017997 0.229945
O O5 0.881770 0.266080 0.963626
O O6 0.903652 0.999743 0.913332
O O7 0.002584 0.178372 0.980503
O O8 0.076477 0.502254 0.569415
O O9 0.162587 0.523139 0.488844
O O10 0.033880 0.425302 0.403810
O O11 0.923445 0.739072 0.857759
O O12 0.866476 0.773444 0.978159
O O13 0.750000 0.750000 0.000000
#
# Coordination Sequence:
#
# PCOD9300507 Si02
#       6
#     8   8   8   8   8   8
#     4  11  17  31  52  78  98 129 179 219 253 298
#     4   9  17  31  56  76 101 135 171 214 255 309
#     4   8  14  29  49  73  96 132 167 198 253 307
#     4   9  17  33  51  78 105 133 167 209 266 308
#     4   8  14  27  52  73  95 125 171 211 239 303
#     4  11  21  33  50  74 106 135 170 217 263 307
#
# _framework density 16.616800000000001
#
# number of rings (size 3 to 8) (size 9 to 14) (size 15 to 20)
#    0.000    2.667    3.333    2.000    0.000    0.000 
#    0.000    8.333    0.000    0.000    0.000    0.000 
#    0.000    0.000    0.000    0.000    0.000    0.000 
#
# Total GULP energy -133632.846593 kJ/mol
# GULP energy per Si atom -5568.035275 kJ/mol
# Density = 1.657898 g / cm^3
# Si number density = 16.616800 Si / 1000 Ang^3
#
#
#
# Elastic Constant Matrix: (Units=GPa)
#
#
# Indices 1 2 3 4 5 6 
#
# 1 72.3694 47.9022 43.7502 0.0000 3.7548 0.0000
# 2 47.9022 142.3191 37.2009 0.0000 -0.4193 0.0000
# 3 43.7502 37.2009 82.0377 0.0000 1.5500 0.0000
# 4 0.0000 0.0000 0.0000 14.8661 0.0000 -4.6352
# 5 3.7548 -0.4193 1.5500 0.0000 16.3696 0.0000
# 6 0.0000 0.0000 0.0000 -4.6352 0.0000 24.3252
#
#
#
# Elastic Compliance Matrix: (Units=1/GPa)
#
#
# Indices 1 2 3 4 5 6 
#
# 1 0.023730 -0.005350 -0.010142 0.000000 -0.004620 0.000000
# 2 -0.005350 0.009182 -0.001341 0.000000 0.001589 0.000000
# 3 -0.010142 -0.001341 0.018195 0.000000 0.000569 0.000000
# 4 0.000000 0.000000 0.000000 0.071516 0.000000 0.013627
# 5 -0.004620 0.001589 0.000569 0.000000 0.062135 0.000000
# 6 0.000000 0.000000 0.000000 0.013627 0.000000 0.043706
#
#
# Mechanical properties :
#
#
# Convention : Reuss Voigt Hill
#
# Bulk Modulus (GPa) = 57.33051 61.60364 59.46708
# Shear Modulus (GPa) = 18.66062 22.30373 20.48217
#
# Velocity S-wave (km/s) = 3.35475 3.66763 3.51468
# Velocity P-wave (km/s) = 7.04147 7.42219 7.23434
#
# Compressibility (1/GPa) = 0.01744272
#
# Stress axis : x y z
#
# Youngs Moduli (GPa) = 42.14099 108.90580 54.95911
#
# Poissons Ratio (x) = 0.58261 0.55739
# Poissons Ratio (y) = 0.22544 0.07369
# Poissons Ratio (z) = 0.42739 0.14603
#
# Static dielectric constant tensor:
#      x y z
#    x 1.546050 0.000000 -0.015680 
#    y 0.000000 1.613120 0.000000 
#    z -0.015680 0.000000 1.550750 
# 
# From -- ./inp_files/166380.got.cif
#   From: 2010.05.17/outbox.cif.g08.bks.cpg/sg15_84_cif.got.tgz:166380.got - 2010.06.03 18:47:42.
