data_PCOD9300814
_publ_section_title
;
Structure prediction by ZEFSAII (Michael W. Deem and Ramdas Pophale) SiO2 
 PCOD9300814
Probable space group: C 2/C
;
_chemical_formula_sum "Si O2"
_cell_formula_units_Z 48
_cell_length_a 6.572491
_cell_length_b 17.014931
_cell_length_c 23.151690
_cell_angle_alpha 90.000000
_cell_angle_beta 114.565688
_cell_angle_gamma 90.000000
_cell_volume 2354.716059
_symmetry_space_group_name_H-M "C 2/C"
_symmetry_group_IT_number 15
_symmetry_cell_setting 'monoclinic'
loop_
_space_group_symop_operation_xyz
x,y,z
-x,y,1/2-z
-x,-y,-z
x,-y,1/2+z
1/2+x,1/2+y,z
1/2-x,1/2+y,1/2-z
1/2-x,1/2-y,-z
1/2+x,1/2-y,1/2+z
loop_
_atom_site_type_symbol
_atom_site_label
_atom_site_fract_x
_atom_site_fract_y
_atom_site_fract_z
Si Si1 0.472529 0.532584 0.812665
Si Si2 0.179033 0.323363 0.312679
Si Si3 0.909384 0.716958 0.101506
Si Si4 0.865530 0.434305 0.672871
Si Si5 0.459478 0.807819 0.012634
Si Si6 0.969525 0.576915 0.887270
O O1 0.500000 0.507381 0.750000
O O2 0.281253 0.599594 0.793096
O O3 0.384364 0.461536 0.840658
O O4 0.703873 0.568469 0.861372
O O5 0.388377 0.271647 0.354200
O O6 0.000000 0.282970 0.250000
O O7 0.047358 0.354801 0.352615
O O8 0.875475 0.649869 0.144815
O O9 0.681640 0.765691 0.064758
O O10 0.988002 0.683136 0.048835
O O11 0.000000 0.438011 0.750000
O O12 0.951929 0.497321 0.635434
O O13 0.430815 0.892010 0.040703
O O14 0.250000 0.750000 0.000000
#
# Coordination Sequence:
#
# PCOD9300814 Si02
#       6
#     8   8   8   8   8   8
#     4  11  19  39  67  95 133 174 220 272 332 418
#     4  11  21  37  68 102 126 171 233 279 339 408
#     4  11  26  43  64 101 138 169 224 292 334 393
#     4  11  25  42  63 103 141 171 217 279 350 406
#     4  11  24  46  71  93 130 183 235 277 326 403
#     4  11  21  41  69  94 129 177 227 266 334 408
#
# _framework density 20.384623000000001
#
# number of rings (size 3 to 8) (size 9 to 14) (size 15 to 20)
#    0.000    1.000    6.667    1.000    0.000    4.000 
#    3.000    1.667    0.000    0.000    0.000    0.000 
#    0.000    0.000    0.000    0.000    0.000    0.000 
#
# Total GULP energy -134061.125967 kJ/mol
# GULP energy per Si atom -5585.880249 kJ/mol
# Density = 2.033823 g / cm^3
# Si number density = 20.384623 Si / 1000 Ang^3
#
#
#
# Elastic Constant Matrix: (Units=GPa)
#
#
# Indices 1 2 3 4 5 6 
#
# 1 124.5004 29.2480 37.6210 0.0000 3.3586 0.0000
# 2 29.2480 74.9099 42.2718 0.0000 -7.0119 0.0000
# 3 37.6210 42.2718 66.2190 0.0000 -1.6182 0.0000
# 4 0.0000 0.0000 0.0000 34.1670 0.0000 -16.4439
# 5 3.3586 -7.0119 -1.6182 0.0000 38.4496 0.0000
# 6 0.0000 0.0000 0.0000 -16.4439 0.0000 26.4121
#
#
#
# Elastic Compliance Matrix: (Units=1/GPa)
#
#
# Indices 1 2 3 4 5 6 
#
# 1 0.009813 -0.001232 -0.004820 0.000000 -0.001285 0.000000
# 2 -0.001232 0.021434 -0.012898 0.000000 0.003473 0.000000
# 3 -0.004820 -0.012898 0.026053 0.000000 -0.000835 0.000000
# 4 0.000000 0.000000 0.000000 0.041790 0.000000 0.026018
# 5 -0.001285 0.003473 -0.000835 0.000000 0.026719 0.000000
# 6 0.000000 0.000000 0.000000 0.026018 0.000000 0.054060
#
#
# Mechanical properties :
#
#
# Convention : Reuss Voigt Hill
#
# Bulk Modulus (GPa) = 51.54579 53.76790 52.65684
# Shear Modulus (GPa) = 22.29818 30.23832 26.26825
#
# Velocity S-wave (km/s) = 3.31096 3.85566 3.59364
# Velocity P-wave (km/s) = 6.32124 6.80113 6.56557
#
# Compressibility (1/GPa) = 0.01940023
#
# Stress axis : x y z
#
# Youngs Moduli (GPa) = 101.91008 46.65555 38.38328
#
# Poissons Ratio (x) = 0.05746 0.18501
# Poissons Ratio (y) = 0.12550 0.49507
# Poissons Ratio (z) = 0.49121 0.60176
#
# Static dielectric constant tensor:
#      x y z
#    x 1.737950 0.000000 -0.014220 
#    y 0.000000 1.720530 0.000000 
#    z -0.014220 0.000000 1.748700 
# 
# From -- ./inp_files/260896.got.cif
#   From: 2010.05.17/outbox.cif.g08.bks.cpg/sg15_131_cif.got.tgz:260896.got - 2010.06.03 18:47:42.
