data_PCOD9300578
_publ_section_title
;
Structure prediction by ZEFSAII (Michael W. Deem and Ramdas Pophale) SiO2 
 PCOD9300578
Probable space group: C 2/C
;
_chemical_formula_sum "Si O2"
_cell_formula_units_Z 40
_cell_length_a 14.353575
_cell_length_b 26.640463
_cell_length_c 13.310048
_cell_angle_alpha 90.000000
_cell_angle_beta 158.018073
_cell_angle_gamma 90.000000
_cell_volume 1905.099537
_symmetry_space_group_name_H-M "C 2/C"
_symmetry_group_IT_number 15
_symmetry_cell_setting 'monoclinic'
loop_
_space_group_symop_operation_xyz
x,y,z
-x,y,1/2-z
-x,-y,-z
x,-y,1/2+z
1/2+x,1/2+y,z
1/2-x,1/2+y,1/2-z
1/2-x,1/2-y,-z
1/2+x,1/2-y,1/2+z
loop_
_atom_site_type_symbol
_atom_site_label
_atom_site_fract_x
_atom_site_fract_y
_atom_site_fract_z
Si Si1 0.000000 0.488789 0.250000
Si Si2 0.500000 0.422772 0.750000
Si Si3 0.500017 0.070033 0.426666
Si Si4 0.999980 0.893183 0.972577
Si Si5 0.000000 0.649191 0.250000
Si Si6 0.000000 0.211831 0.750000
Si Si7 0.499997 0.724851 0.522955
O O1 0.251595 0.456633 0.501591
O O2 0.000013 0.522259 0.352224
O O3 0.500016 0.391555 0.647581
O O4 0.753057 0.077289 0.743000
O O5 0.500011 0.115871 0.348916
O O6 0.246983 0.077290 0.236928
O O7 0.999986 0.835575 0.012389
O O8 0.254302 0.678913 0.504299
O O9 0.999996 0.238218 0.858008
O O10 0.249999 0.750001 0.230234
#
# Coordination Sequence:
#
# PCOD9300578 Si02
#       7
#     4   4   8   8   4   4   8
#     4  11  26  44  69 109 130 163 216 271 326 404
#     4  12  28  47  66  95 131 168 236 284 313 364
#     4  11  22  41  70  96 133 173 205 256 331 411
#     4  12  25  45  68  92 132 182 216 269 332 378
#     4  11  18  35  60  94 127 163 206 232 310 413
#     4  12  20  36  59  94 134 166 192 257 327 393
#     4  12  24  40  62  97 133 169 220 269 322 394
#
# _framework density 20.996279000000001
#
# number of rings (size 3 to 8) (size 9 to 14) (size 15 to 20)
#    0.000    0.400    4.000    5.400    0.000    8.000 
#    0.000    1.000    0.000    0.000    0.000    0.000 
#    0.000    0.000    0.000    0.000    0.000    0.000 
#
# Total GULP energy -111846.700046 kJ/mol
# GULP energy per Si atom -5592.335002 kJ/mol
# Density = 2.094849 g / cm^3
# Si number density = 20.996279 Si / 1000 Ang^3
#
#
#
# Elastic Constant Matrix: (Units=GPa)
#
#
# Indices 1 2 3 4 5 6 
#
# 1 117.9779 18.7792 49.5779 -0.0001 -9.8952 0.0000
# 2 18.7792 70.0557 41.3282 -0.0001 6.7103 0.0000
# 3 49.5779 41.3282 186.9972 0.0002 30.4439 0.0002
# 4 -0.0001 -0.0001 0.0002 30.5108 -0.0002 7.1867
# 5 -9.8952 6.7103 30.4439 -0.0002 29.5558 -0.0001
# 6 0.0000 0.0000 0.0002 7.1867 -0.0001 6.3691
#
#
#
# Elastic Compliance Matrix: (Units=1/GPa)
#
#
# Indices 1 2 3 4 5 6 
#
# 1 0.011024 -0.001413 -0.003921 0.000000 0.008051 0.000000
# 2 -0.001413 0.016596 -0.003127 0.000000 -0.001020 0.000000
# 3 -0.003921 -0.003127 0.008622 0.000000 -0.009484 0.000000
# 4 0.000000 0.000000 0.000000 0.044639 0.000000 -0.050369
# 5 0.008051 -0.001020 -0.009484 0.000000 0.046531 0.000001
# 6 0.000000 0.000000 0.000000 -0.050369 0.000001 0.213841
#
#
# Mechanical properties :
#
#
# Convention : Reuss Voigt Hill
#
# Bulk Modulus (GPa) = 51.76097 66.04459 58.90278
# Shear Modulus (GPa) = 13.71306 30.97686 22.34496
#
# Velocity S-wave (km/s) = 2.55839 3.84520 3.26580
# Velocity P-wave (km/s) = 5.78214 7.15805 6.50657
#
# Compressibility (1/GPa) = 0.01931958
#
# Stress axis : x y z
#
# Youngs Moduli (GPa) = 90.71028 60.25683 115.97566
#
# Poissons Ratio (x) = 0.08515 0.45476
# Poissons Ratio (y) = 0.12818 0.36267
# Poissons Ratio (z) = 0.35569 0.18843
#
# Static dielectric constant tensor:
#      x y z
#    x 1.758230 0.000000 0.000700 
#    y 0.000000 1.758550 0.000000 
#    z 0.000700 0.000000 1.760620 
# 
# From -- ./inp_files/7959.got.cif
#   From: 2010.05.17/outbox.cif.g08.bks.cpg/sg15_4_cif.got.tgz:7959.got - 2010.06.03 18:47:42.
