data_PCOD9300927
_publ_section_title
;
Structure prediction by ZEFSAII (Michael W. Deem and Ramdas Pophale) SiO2 
 PCOD9300927
Probable space group: C 2/C
;
_chemical_formula_sum "Si O2"
_cell_formula_units_Z 48
_cell_length_a 17.803969
_cell_length_b 13.731700
_cell_length_c 12.243084
_cell_angle_alpha 90.000000
_cell_angle_beta 58.154123
_cell_angle_gamma 90.000000
_cell_volume 2542.612976
_symmetry_space_group_name_H-M "C 2/C"
_symmetry_group_IT_number 15
_symmetry_cell_setting 'monoclinic'
loop_
_space_group_symop_operation_xyz
x,y,z
-x,y,1/2-z
-x,-y,-z
x,-y,1/2+z
1/2+x,1/2+y,z
1/2-x,1/2+y,1/2-z
1/2-x,1/2-y,-z
1/2+x,1/2-y,1/2+z
loop_
_atom_site_type_symbol
_atom_site_label
_atom_site_fract_x
_atom_site_fract_y
_atom_site_fract_z
Si Si1 0.269062 0.375188 0.078640
Si Si2 0.557605 0.023601 0.293636
Si Si3 0.907236 0.721395 0.887052
Si Si4 0.261443 0.093762 0.437025
Si Si5 0.968625 0.356517 0.027218
Si Si6 0.779881 0.293216 0.148557
O O1 0.170255 0.347674 0.106209
O O2 0.286744 0.490659 0.049661
O O3 0.263668 0.335598 0.207627
O O4 0.347349 0.316403 0.958188
O O5 0.500000 0.965851 0.250000
O O6 0.640440 0.062992 0.169026
O O7 0.501491 0.112259 0.384109
O O8 0.572893 0.952700 0.383086
O O9 0.000000 0.741087 0.750000
O O10 0.946961 0.677790 0.968838
O O11 0.243655 0.184528 0.370837
O O12 0.257774 0.134856 0.563510
O O13 0.885515 0.286971 0.086474
#
# Coordination Sequence:
#
# PCOD9300927 Si02
#       6
#     8   8   8   8   8   8
#     4  11  24  41  67  90 122 166 204 249 310 360
#     4  11  20  33  61  88 117 158 200 255 313 352
#     4  11  22  40  64  93 122 156 209 253 298 363
#     4  11  23  40  60  90 125 161 206 248 307 368
#     4  11  21  35  59  91 122 152 201 260 305 350
#     4  11  23  39  61  89 126 161 197 258 306 362
#
# _framework density 18.878218
#
# number of rings (size 3 to 8) (size 9 to 14) (size 15 to 20)
#    0.000    1.000    5.000    2.500    2.333    2.667 
#    0.000    0.833    7.333    0.000    0.000    0.000 
#    0.000    0.000    0.000    0.000    0.000    0.000 
#
# Total GULP energy -133678.947391 kJ/mol
# GULP energy per Si atom -5569.956141 kJ/mol
# Density = 1.883525 g / cm^3
# Si number density = 18.878218 Si / 1000 Ang^3
#
#
#
# Elastic Constant Matrix: (Units=GPa)
#
#
# Indices 1 2 3 4 5 6 
#
# 1 81.8036 48.3391 24.3052 0.0000 -0.1989 0.0000
# 2 48.3391 145.1006 51.4946 0.0000 1.3301 0.0000
# 3 24.3052 51.4946 79.2310 0.0000 -5.7016 0.0000
# 4 0.0000 0.0000 0.0000 17.3190 0.0000 5.2614
# 5 -0.1989 1.3301 -5.7016 0.0000 33.0611 0.0000
# 6 0.0000 0.0000 0.0000 5.2614 0.0000 23.3750
#
#
#
# Elastic Compliance Matrix: (Units=1/GPa)
#
#
# Indices 1 2 3 4 5 6 
#
# 1 0.015418 -0.004493 -0.001812 0.000000 -0.000039 0.000000
# 2 -0.004493 0.010330 -0.005435 0.000000 -0.001380 0.000000
# 3 -0.001812 -0.005435 0.016935 0.000000 0.003128 0.000000
# 4 0.000000 0.000000 0.000000 0.061978 0.000000 -0.013950
# 5 -0.000039 -0.001380 0.003128 0.000000 0.030842 0.000000
# 6 0.000000 0.000000 0.000000 -0.013950 0.000000 0.045921
#
#
# Mechanical properties :
#
#
# Convention : Reuss Voigt Hill
#
# Bulk Modulus (GPa) = 52.07714 61.60146 56.83930
# Shear Modulus (GPa) = 23.66266 26.88410 25.27338
#
# Velocity S-wave (km/s) = 3.54423 3.77779 3.66287
# Velocity P-wave (km/s) = 6.66292 7.19241 6.93272
#
# Compressibility (1/GPa) = 0.01920229
#
# Stress axis : x y z
#
# Youngs Moduli (GPa) = 64.86084 96.80663 59.05049
#
# Poissons Ratio (x) = 0.43492 0.10703
# Poissons Ratio (y) = 0.29140 0.32093
# Poissons Ratio (z) = 0.11756 0.52612
#
# Static dielectric constant tensor:
#      x y z
#    x 1.693140 0.000000 0.016960 
#    y 0.000000 1.713020 0.000000 
#    z 0.016960 0.000000 1.683880 
# 
# From -- ./inp_files/96834.got.cif
#   From: 2010.05.17/outbox.cif.g08.bks.cpg/sg15_49_cif.got.tgz:96834.got - 2010.06.03 18:47:42.
