data_PCOD9300964
_publ_section_title
;
Structure prediction by ZEFSAII (Michael W. Deem and Ramdas Pophale) SiO2 
 PCOD9300964
Probable space group: C 2/C
;
_chemical_formula_sum "Si O2"
_cell_formula_units_Z 64
_cell_length_a 8.082260
_cell_length_b 23.135621
_cell_length_c 19.649080
_cell_angle_alpha 90.000000
_cell_angle_beta 57.194713
_cell_angle_gamma 90.000000
_cell_volume 3088.179256
_symmetry_space_group_name_H-M "C 2/C"
_symmetry_group_IT_number 15
_symmetry_cell_setting 'monoclinic'
loop_
_space_group_symop_operation_xyz
x,y,z
-x,y,1/2-z
-x,-y,-z
x,-y,1/2+z
1/2+x,1/2+y,z
1/2-x,1/2+y,1/2-z
1/2-x,1/2-y,-z
1/2+x,1/2-y,1/2+z
loop_
_atom_site_type_symbol
_atom_site_label
_atom_site_fract_x
_atom_site_fract_y
_atom_site_fract_z
Si Si1 0.961385 0.514572 0.589047
Si Si2 0.012234 0.239069 0.345682
Si Si3 0.040421 0.277788 0.941593
Si Si4 0.131349 0.325012 0.785706
Si Si5 0.198769 0.539855 0.249890
Si Si6 0.544055 0.148752 0.575148
Si Si7 0.656581 0.538784 0.426333
Si Si8 0.014807 0.834426 0.980705
O O1 0.788315 0.492724 0.680075
O O2 0.000000 0.500000 0.500000
O O3 0.971356 0.583635 0.592885
O O4 0.140676 0.483472 0.587598
O O5 0.169367 0.212448 0.259585
O O6 0.778061 0.230753 0.391617
O O7 0.042504 0.307397 0.349504
O O8 0.056087 0.202607 0.404130
O O9 0.003818 0.309558 0.879687
O O10 0.995520 0.319568 0.014730
O O11 0.952676 0.213348 0.967856
O O12 0.186875 0.392263 0.770241
O O13 0.000000 0.311135 0.750000
O O14 0.356115 0.532152 0.153235
O O15 0.000000 0.525420 0.250000
O O16 0.781671 0.149270 0.530988
O O17 0.500000 0.500000 0.500000
O O18 0.628161 0.605701 0.451964
#
# Coordination Sequence:
#
# PCOD9300964 Si02
#       8
#     8   8   8   8   8   8   8   8
#     4  11  22  38  58  88 121 157 196 242 299 355
#     4   9  18  35  58  78 111 146 185 245 291 346
#     4   9  19  34  58  86 108 144 190 245 296 350
#     4  11  20  35  53  80 116 147 191 236 294 355
#     4   9  21  37  57  82 117 159 198 237 289 364
#     4   9  18  36  58  82 112 143 193 242 295 349
#     4  11  20  38  63  82 113 162 204 243 287 348
#     4   9  17  36  59  85 106 141 201 243 288 352
#
# _framework density 20.724184999999999
#
# number of rings (size 3 to 8) (size 9 to 14) (size 15 to 20)
#    0.000    2.250    2.500    2.625    0.000    0.000 
#    4.500    3.125    0.000    0.000    0.000    0.000 
#    0.000    0.000    0.000    0.000    0.000    0.000 
#
# Total GULP energy -178336.101418 kJ/mol
# GULP energy per Si atom -5573.003169 kJ/mol
# Density = 2.067702 g / cm^3
# Si number density = 20.724185 Si / 1000 Ang^3
#
#
#
# Elastic Constant Matrix: (Units=GPa)
#
#
# Indices 1 2 3 4 5 6 
#
# 1 31.3080 30.4266 16.4245 0.0000 8.4998 0.0000
# 2 30.4266 149.8907 56.9387 0.0000 9.7263 0.0000
# 3 16.4245 56.9387 134.2784 0.0000 18.6368 0.0000
# 4 0.0000 0.0000 0.0000 30.8345 0.0000 -7.9328
# 5 8.4998 9.7263 18.6368 0.0000 30.3384 0.0000
# 6 0.0000 0.0000 0.0000 -7.9328 0.0000 17.2650
#
#
#
# Elastic Compliance Matrix: (Units=1/GPa)
#
#
# Indices 1 2 3 4 5 6 
#
# 1 0.042240 -0.007751 -0.000636 0.000000 -0.008958 0.000000
# 2 -0.007751 0.009382 -0.003186 0.000000 0.001121 0.000000
# 3 -0.000636 -0.003186 0.009521 0.000000 -0.004649 0.000000
# 4 0.000000 0.000000 0.000000 0.036779 0.000000 0.016899
# 5 -0.008958 0.001121 -0.004649 0.000000 0.037968 0.000000
# 6 0.000000 0.000000 0.000000 0.016899 0.000000 0.065685
#
#
# Mechanical properties :
#
#
# Convention : Reuss Voigt Hill
#
# Bulk Modulus (GPa) = 26.31851 58.11739 42.21795
# Shear Modulus (GPa) = 21.06255 29.80006 25.43131
#
# Velocity S-wave (km/s) = 3.19145 3.79613 3.50684
# Velocity P-wave (km/s) = 5.12908 6.87883 6.06736
#
# Compressibility (1/GPa) = 0.03799608
#
# Stress axis : x y z
#
# Youngs Moduli (GPa) = 23.67442 106.58160 105.02772
#
# Poissons Ratio (x) = 0.82614 0.06685
# Poissons Ratio (y) = 0.18351 0.33461
# Poissons Ratio (z) = 0.01507 0.33956
#
# Static dielectric constant tensor:
#      x y z
#    x 1.737400 0.000000 0.031140 
#    y 0.000000 1.696080 0.000000 
#    z 0.031140 0.000000 1.818400 
# 
# From -- ./inp_files/233831.got.cif
#   From: 2010.05.17/outbox.cif.g08.bks.cpg/sg15_117_cif.got.tgz:233831.got - 2010.06.03 18:47:42.
