data_PCOD9300611
_publ_section_title
;
Structure prediction by ZEFSAII (Michael W. Deem and Ramdas Pophale) SiO2 
 PCOD9300611
Probable space group: C 2/C
;
_chemical_formula_sum "Si O2"
_cell_formula_units_Z 48
_cell_length_a 20.995358
_cell_length_b 18.897934
_cell_length_c 14.364165
_cell_angle_alpha 90.000000
_cell_angle_beta 27.053193
_cell_angle_gamma 90.000000
_cell_volume 2592.120412
_symmetry_space_group_name_H-M "C 2/C"
_symmetry_group_IT_number 15
_symmetry_cell_setting 'monoclinic'
loop_
_space_group_symop_operation_xyz
x,y,z
-x,y,1/2-z
-x,-y,-z
x,-y,1/2+z
1/2+x,1/2+y,z
1/2-x,1/2+y,1/2-z
1/2-x,1/2-y,-z
1/2+x,1/2-y,1/2+z
loop_
_atom_site_type_symbol
_atom_site_label
_atom_site_fract_x
_atom_site_fract_y
_atom_site_fract_z
Si Si1 0.986470 0.656284 0.378592
Si Si2 0.653500 0.535855 0.082269
Si Si3 0.370302 0.444205 0.676185
Si Si4 0.974430 0.187600 0.933795
Si Si5 0.692776 0.631301 0.526174
Si Si6 0.351714 0.029636 0.655545
O O1 0.000000 0.668288 0.250000
O O2 0.951877 0.729477 0.475289
O O3 0.884262 0.593127 0.541341
O O4 0.143175 0.634584 0.201608
O O5 0.500000 0.560159 0.250000
O O6 0.683064 0.558962 0.148737
O O7 0.650706 0.450293 0.090403
O O8 0.765569 0.555428 0.857926
O O9 0.500000 0.500000 0.500000
O O10 0.429234 0.367782 0.570391
O O11 0.247974 0.472608 0.766905
O O12 0.882546 0.164578 0.964442
O O13 0.134351 0.172836 0.692440
O O14 0.500000 0.000000 0.500000
#
# Coordination Sequence:
#
# PCOD9300611 Si02
#       6
#     8   8   8   8   8   8
#     4  12  25  35  61  94 124 157 200 259 314 366
#     4  12  21  40  65  90 124 164 215 256 301 378
#     4  12  22  38  67  90 121 170 210 249 310 372
#     4  11  22  37  60  92 123 158 198 253 316 365
#     4  11  18  39  57  86 129 152 191 260 311 356
#     4  12  25  41  60  95 131 160 209 260 307 369
#
# _framework density 18.517657
#
# number of rings (size 3 to 8) (size 9 to 14) (size 15 to 20)
#    0.000    0.333   10.000    1.500    0.000    0.000 
#    0.000    0.833    0.000    0.000    0.000    0.000 
#    0.000    0.000    0.000    0.000    0.000    0.000 
#
# Total GULP energy -134055.779788 kJ/mol
# GULP energy per Si atom -5585.657491 kJ/mol
# Density = 1.847551 g / cm^3
# Si number density = 18.517657 Si / 1000 Ang^3
#
#
#
# Elastic Constant Matrix: (Units=GPa)
#
#
# Indices 1 2 3 4 5 6 
#
# 1 80.3101 6.9180 39.0820 0.0004 9.6854 -0.0003
# 2 6.9180 90.4260 21.5813 0.0001 10.6722 -0.0002
# 3 39.0820 21.5813 105.3916 0.0004 8.7241 -0.0005
# 4 0.0004 0.0001 0.0004 16.8706 -0.0004 13.6987
# 5 9.6854 10.6722 8.7241 -0.0004 34.4030 0.0003
# 6 -0.0003 -0.0002 -0.0005 13.6987 0.0003 16.9773
#
#
#
# Elastic Compliance Matrix: (Units=1/GPa)
#
#
# Indices 1 2 3 4 5 6 
#
# 1 0.015506 0.000516 -0.005599 -0.000001 -0.003106 0.000001
# 2 0.000516 0.011970 -0.002373 -0.000001 -0.003257 0.000001
# 3 -0.005599 -0.002373 0.012113 -0.000001 -0.000759 0.000001
# 4 -0.000001 -0.000001 -0.000001 0.171902 0.000004 -0.138705
# 5 -0.003106 -0.003257 -0.000759 0.000004 0.031145 -0.000004
# 6 0.000001 0.000001 0.000001 -0.138705 -0.000004 0.170822
#
#
# Mechanical properties :
#
#
# Convention : Reuss Voigt Hill
#
# Bulk Modulus (GPa) = 40.52026 45.69891 43.10958
# Shear Modulus (GPa) = 11.45226 27.55326 19.50276
#
# Velocity S-wave (km/s) = 2.48956 3.86157 3.24882
# Velocity P-wave (km/s) = 5.49485 6.67941 6.11587
#
# Compressibility (1/GPa) = 0.02467901
#
# Stress axis : x y z
#
# Youngs Moduli (GPa) = 64.48935 83.54224 82.55306
#
# Poissons Ratio (x) = -0.04315 0.46220
# Poissons Ratio (y) = -0.03331 0.19590
# Poissons Ratio (z) = 0.36107 0.19825
#
# Static dielectric constant tensor:
#      x y z
#    x 1.663550 0.000000 -0.012370 
#    y 0.000000 1.639530 0.000000 
#    z -0.012370 0.000000 1.665930 
# 
# From -- ./inp_files/168823.got.cif
#   From: 2010.05.17/outbox.cif.g08.bks.cpg/sg15_85_cif.got.tgz:168823.got - 2010.06.03 18:47:42.
