data_PCOD9300457
_publ_section_title
;
Structure prediction by ZEFSAII (Michael W. Deem and Ramdas Pophale) SiO2 
 PCOD9300457
Probable space group: C 2/C
;
_chemical_formula_sum "Si O2"
_cell_formula_units_Z 44
_cell_length_a 12.209594
_cell_length_b 8.129613
_cell_length_c 18.980922
_cell_angle_alpha 90.000000
_cell_angle_beta 79.211950
_cell_angle_gamma 90.000000
_cell_volume 1850.734734
_symmetry_space_group_name_H-M "C 2/C"
_symmetry_group_IT_number 15
_symmetry_cell_setting 'monoclinic'
loop_
_space_group_symop_operation_xyz
x,y,z
-x,y,1/2-z
-x,-y,-z
x,-y,1/2+z
1/2+x,1/2+y,z
1/2-x,1/2+y,1/2-z
1/2-x,1/2-y,-z
1/2+x,1/2-y,1/2+z
loop_
_atom_site_type_symbol
_atom_site_label
_atom_site_fract_x
_atom_site_fract_y
_atom_site_fract_z
Si Si1 0.406042 0.627574 0.037981
Si Si2 0.942158 0.666696 0.903550
Si Si3 0.294052 0.388763 0.834409
Si Si4 0.000000 0.935607 0.250000
Si Si5 0.547784 0.873283 0.816927
Si Si6 0.196575 0.526412 0.988779
O O1 0.462157 0.695274 0.102710
O O2 0.375068 0.805268 0.005710
O O3 0.500000 0.500000 0.000000
O O4 0.287423 0.540760 0.040647
O O5 0.851492 0.726464 0.858852
O O6 0.999003 0.494077 0.880128
O O7 0.878250 0.632532 0.984575
O O8 0.387067 0.467357 0.773713
O O9 0.179838 0.365642 0.806820
O O10 0.261627 0.498032 0.907539
O O11 0.005679 0.813219 0.316866
O O12 0.500000 0.946690 0.750000
#
# Coordination Sequence:
#
# PCOD9300457 Si02
#       6
#     8   8   8   4   8   8
#     4  11  24  41  68 108 150 183 225 284 364 431
#     4  12  26  43  75 106 144 186 238 297 369 439
#     4  12  26  48  75 104 142 192 243 297 367 435
#     4  10  30  46  68 100 140 188 248 300 352 424
#     4  10  28  47  71 100 141 190 245 298 359 420
#     4  11  26  44  72 111 149 178 237 295 368 438
#
# _framework density 23.774341
#
# number of rings (size 3 to 8) (size 9 to 14) (size 15 to 20)
#    0.545    0.364    3.636    1.091    8.909    1.455 
#    0.000    0.000    0.000    0.000    0.000    0.000 
#    0.000    0.000    0.000    0.000    0.000    0.000 
#
# Total GULP energy -122761.218419 kJ/mol
# GULP energy per Si atom -5580.055383 kJ/mol
# Density = 2.372023 g / cm^3
# Si number density = 23.774341 Si / 1000 Ang^3
#
#
#
# Elastic Constant Matrix: (Units=GPa)
#
#
# Indices 1 2 3 4 5 6 
#
# 1 198.0831 38.7756 18.8604 0.0000 10.5358 0.0000
# 2 38.7756 81.9848 10.7883 0.0001 -15.3505 0.0001
# 3 18.8604 10.7883 44.0403 0.0000 -6.4335 0.0000
# 4 0.0000 0.0001 0.0000-7574.4582 0.0000-5472.0418
# 5 10.5358 -15.3505 -6.4335 0.0000 26.6597 0.0000
# 6 0.0000 0.0001 0.0000-5472.0418 0.0000-3890.8984
#
#
#
# Elastic Compliance Matrix: (Units=1/GPa)
#
#
# Indices 1 2 3 4 5 6 
#
# 1 0.006271 -0.003597 -0.002559 0.000000 -0.005167 0.000000
# 2 -0.003597 0.015958 -0.000849 0.000000 0.010405 0.000000
# 3 -0.002559 -0.000849 0.024967 0.000000 0.006548 0.000000
# 4 0.000000 0.000000 0.000000 0.008247 0.000000 -0.011598
# 5 -0.005167 0.010405 0.006548 0.000000 0.047123 0.000000
# 6 0.000000 0.000000 0.000000 -0.011598 0.000000 0.016055
#
#
# Mechanical properties :
#
#
# Convention : Reuss Voigt Hill
#
# Bulk Modulus (GPa) = 30.13263 51.21740 40.67502
# Shear Modulus (GPa) = 34.79654 -2270.69378 -1117.94862
#
# Velocity S-wave (km/s) = 3.82988 -30.93826 -21.70839
# Velocity P-wave (km/s) = 5.67972 35.42097 24.72232
#
# Compressibility (1/GPa) = 0.03318661
#
# Stress axis : x y z
#
# Youngs Moduli (GPa) = 159.46654 62.66327 40.05294
#
# Poissons Ratio (x) = 0.22537 0.10251
# Poissons Ratio (y) = 0.57352 0.03400
# Poissons Ratio (z) = 0.40812 0.05320
#
# Static dielectric constant tensor:
#      x y z
#    x 1.894520 0.000000 0.049480 
#    y 0.000000 1.881840 0.000000 
#    z 0.049480 0.000000 1.970010 
# 
# From -- ./inp_files/236060.got.cif
#   From: 2010.05.17/outbox.cif.g08.bks.cpg/sg15_119_cif.got.tgz:236060.got - 2010.06.03 18:47:42.
