data_PCOD9300011
_publ_section_title
;
Structure prediction by ZEFSAII (Michael W. Deem and Ramdas Pophale) SiO2 
 PCOD9300011
Probable space group: C 2/C
;
_chemical_formula_sum "Si O2"
_cell_formula_units_Z 28
_cell_length_a 9.425131
_cell_length_b 7.794279
_cell_length_c 16.491107
_cell_angle_alpha 90.000000
_cell_angle_beta 99.342232
_cell_angle_gamma 90.000000
_cell_volume 1195.402808
_symmetry_space_group_name_H-M "C 2/C"
_symmetry_group_IT_number 15
_symmetry_cell_setting 'monoclinic'
loop_
_space_group_symop_operation_xyz
x,y,z
-x,y,1/2-z
-x,-y,-z
x,-y,1/2+z
1/2+x,1/2+y,z
1/2-x,1/2+y,1/2-z
1/2-x,1/2-y,-z
1/2+x,1/2-y,1/2+z
loop_
_atom_site_type_symbol
_atom_site_label
_atom_site_fract_x
_atom_site_fract_y
_atom_site_fract_z
Si Si1 0.947749 0.881112 0.161098
Si Si2 0.895360 0.263528 0.962661
Si Si3 0.366349 0.145691 0.893347
Si Si4 0.500000 0.286726 0.750000
O O1 0.800658 0.806329 0.112631
O O2 0.000000 0.795802 0.250000
O O3 0.073025 0.869677 0.106587
O O4 0.913305 0.075910 0.186617
O O5 0.894186 0.449119 0.919996
O O6 0.750000 0.250000 0.000000
O O7 0.027159 0.252689 0.037718
O O8 0.407045 0.178853 0.803673
#
# Coordination Sequence:
#
# PCOD9300011 Si02
#       4
#     8   8   8   4
#     4  10  26  43  69  99 136 177 225 281 339 399
#     4  11  26  46  70 101 137 180 228 276 341 402
#     4  11  25  44  70 100 135 180 226 279 335 406
#     4  10  26  40  72 102 134 174 230 280 342 392
#
# _framework density 23.423065000000001
#
# number of rings (size 3 to 8) (size 9 to 14) (size 15 to 20)
#    0.857    0.571    0.000    2.571   10.000    9.143 
#    0.000    0.000    0.000    0.000    0.000    0.000 
#    0.000    0.000    0.000    0.000    0.000    0.000 
#
# Total GULP energy -78226.725424 kJ/mol
# GULP energy per Si atom -5587.623245 kJ/mol
# Density = 2.336975 g / cm^3
# Si number density = 23.423065 Si / 1000 Ang^3
#
#
#
# Elastic Constant Matrix: (Units=GPa)
#
#
# Indices 1 2 3 4 5 6 
#
# 1 151.1410 12.3191 88.6914 0.0000 -10.6419 0.0000
# 2 12.3191 43.3821 51.1025 0.0000 -17.0573 0.0000
# 3 88.6914 51.1025 150.7844 0.0000 -27.0292 0.0000
# 4 0.0000 0.0000 0.0000 47.5622 0.0000 -9.1562
# 5 -10.6419 -17.0573 -27.0292 0.0000 64.6924 0.0000
# 6 0.0000 0.0000 0.0000 -9.1562 0.0000 16.4341
#
#
#
# Elastic Compliance Matrix: (Units=1/GPa)
#
#
# Indices 1 2 3 4 5 6 
#
# 1 0.011508 0.007840 -0.009422 0.000000 0.000024 0.000000
# 2 0.007840 0.045308 -0.019018 0.000000 0.005290 0.000000
# 3 -0.009422 -0.019018 0.018855 0.000000 0.001313 0.000000
# 4 0.000000 0.000000 0.000000 0.023551 0.000000 0.013121
# 5 0.000024 0.005290 0.001313 0.000000 0.017405 0.000000
# 6 0.000000 0.000000 0.000000 0.013121 0.000000 0.068159
#
#
# Mechanical properties :
#
#
# Convention : Reuss Voigt Hill
#
# Bulk Modulus (GPa) = 29.01102 72.17040 50.59071
# Shear Modulus (GPa) = 21.05475 38.61737 29.83606
#
# Velocity S-wave (km/s) = 3.00140 4.06481 3.57289
# Velocity P-wave (km/s) = 4.94204 7.27385 6.21822
#
# Compressibility (1/GPa) = 0.03446966
#
# Stress axis : x y z
#
# Youngs Moduli (GPa) = 86.89828 22.07134 53.03706
#
# Poissons Ratio (x) = -0.17303 0.49969
# Poissons Ratio (y) = -0.68126 1.00868
# Poissons Ratio (z) = 0.81872 0.41976
#
# Static dielectric constant tensor:
#      x y z
#    x 1.883970 0.000000 0.023750 
#    y 0.000000 1.922860 0.000000 
#    z 0.023750 0.000000 1.899270 
# 
# From -- ./inp_files/187097.got.cif
#   From: 2010.05.17/outbox.cif.g08.bks.cpg/sg15_94_cif.got.tgz:187097.got - 2010.06.03 18:47:42.
