data_PCOD9300789
_publ_section_title
;
Structure prediction by ZEFSAII (Michael W. Deem and Ramdas Pophale) SiO2 
 PCOD9300789
Probable space group: C 2/C
;
_chemical_formula_sum "Si O2"
_cell_formula_units_Z 40
_cell_length_a 12.860877
_cell_length_b 18.476968
_cell_length_c 9.900685
_cell_angle_alpha 90.000000
_cell_angle_beta 69.518779
_cell_angle_gamma 90.000000
_cell_volume 2203.978499
_symmetry_space_group_name_H-M "C 2/C"
_symmetry_group_IT_number 15
_symmetry_cell_setting 'monoclinic'
loop_
_space_group_symop_operation_xyz
x,y,z
-x,y,1/2-z
-x,-y,-z
x,-y,1/2+z
1/2+x,1/2+y,z
1/2-x,1/2+y,1/2-z
1/2-x,1/2-y,-z
1/2+x,1/2-y,1/2+z
loop_
_atom_site_type_symbol
_atom_site_label
_atom_site_fract_x
_atom_site_fract_y
_atom_site_fract_z
Si Si1 0.053305 0.200547 0.873464
Si Si2 0.812591 0.343372 0.599855
Si Si3 0.595388 0.726063 0.316645
Si Si4 0.581658 0.013156 0.338333
Si Si5 0.287286 0.868294 0.290991
O O1 0.108242 0.277078 0.892895
O O2 0.155442 0.143762 0.832124
O O3 0.000000 0.203903 0.750000
O O4 0.957711 0.189182 0.028155
O O5 0.690683 0.320902 0.703460
O O6 0.849713 0.415591 0.657668
O O7 0.813268 0.354223 0.437944
O O8 0.500000 0.737206 0.250000
O O9 0.650448 0.804373 0.319686
O O10 0.500000 0.023712 0.250000
O O11 0.661905 0.944861 0.274674
O O12 0.500000 0.000000 0.500000
#
# Coordination Sequence:
#
# PCOD9300789 Si02
#       5
#     8   8   8   8   8
#     4  11  23  39  63  94 123 150 202 259 297 345
#     4  11  22  39  63  93 119 159 207 241 298 368
#     4  11  19  38  69  86 114 164 202 241 301 359
#     4  12  24  39  62  89 123 157 197 248 302 354
#     4  11  22  40  63  90 122 160 202 246 301 362
#
# _framework density 18.148997999999999
#
# number of rings (size 3 to 8) (size 9 to 14) (size 15 to 20)
#    0.000    0.800    6.000    3.600    0.000    4.800 
#    0.000    2.000    0.000    0.000    0.000    0.000 
#    0.000    0.000    0.000    0.000    0.000    0.000 
#
# Total GULP energy -111761.708401 kJ/mol
# GULP energy per Si atom -5588.085420 kJ/mol
# Density = 1.810769 g / cm^3
# Si number density = 18.148998 Si / 1000 Ang^3
#
#
#
# Elastic Constant Matrix: (Units=GPa)
#
#
# Indices 1 2 3 4 5 6 
#
# 1 90.5730 49.2783 42.5366 0.0000 -6.0186 0.0000
# 2 49.2783 100.5618 17.3508 0.0000 -15.5233 0.0000
# 3 42.5366 17.3508 109.0848 0.0000 0.2729 0.0000
# 4 0.0000 0.0000 0.0000 23.6253 0.0000 5.7506
# 5 -6.0186 -15.5233 0.2729 0.0000 37.4457 0.0000
# 6 0.0000 0.0000 0.0000 5.7506 0.0000 18.5104
#
#
#
# Elastic Compliance Matrix: (Units=1/GPa)
#
#
# Indices 1 2 3 4 5 6 
#
# 1 0.018020 -0.007885 -0.005772 0.000000 -0.000331 0.000000
# 2 -0.007885 0.014400 0.000773 0.000000 0.004696 0.000000
# 3 -0.005772 0.000773 0.011297 0.000000 -0.000690 0.000000
# 4 0.000000 0.000000 0.000000 0.045790 0.000000 -0.014226
# 5 -0.000331 0.004696 -0.000690 0.000000 0.028604 0.000000
# 6 0.000000 0.000000 0.000000 -0.014226 0.000000 0.058443
#
#
# Mechanical properties :
#
#
# Convention : Reuss Voigt Hill
#
# Bulk Modulus (GPa) = 55.71782 57.61678 56.66730
# Shear Modulus (GPa) = 24.00331 28.65320 26.32825
#
# Velocity S-wave (km/s) = 3.64066 3.97769 3.81290
# Velocity P-wave (km/s) = 6.95984 7.27403 7.11867
#
# Compressibility (1/GPa) = 0.01794758
#
# Stress axis : x y z
#
# Youngs Moduli (GPa) = 55.49514 69.44508 88.52260
#
# Poissons Ratio (x) = 0.54760 0.51091
# Poissons Ratio (y) = 0.43760 -0.06840
# Poissons Ratio (z) = 0.32029 -0.05366
#
# Static dielectric constant tensor:
#      x y z
#    x 1.626080 0.000000 -0.031730 
#    y 0.000000 1.621820 0.000000 
#    z -0.031730 0.000000 1.621820 
# 
# From -- ./inp_files/29062.got.cif
#   From: 2010.05.17/outbox.cif.g08.bks.cpg/sg15_15_cif.got.tgz:29062.got - 2010.06.03 18:47:42.
