data_PCOD9300615
_publ_section_title
;
Structure prediction by ZEFSAII (Michael W. Deem and Ramdas Pophale) SiO2 
 PCOD9300615
Probable space group: C 2/C
;
_chemical_formula_sum "Si O2"
_cell_formula_units_Z 56
_cell_length_a 19.899733
_cell_length_b 7.841123
_cell_length_c 15.776989
_cell_angle_alpha 90.000000
_cell_angle_beta 62.273658
_cell_angle_gamma 90.000000
_cell_volume 2179.119979
_symmetry_space_group_name_H-M "C 2/C"
_symmetry_group_IT_number 15
_symmetry_cell_setting 'monoclinic'
loop_
_space_group_symop_operation_xyz
x,y,z
-x,y,1/2-z
-x,-y,-z
x,-y,1/2+z
1/2+x,1/2+y,z
1/2-x,1/2+y,1/2-z
1/2-x,1/2-y,-z
1/2+x,1/2-y,1/2+z
loop_
_atom_site_type_symbol
_atom_site_label
_atom_site_fract_x
_atom_site_fract_y
_atom_site_fract_z
Si Si1 0.170060 0.531492 0.837676
Si Si2 0.852404 0.883325 0.434958
Si Si3 0.574396 0.465898 0.754480
Si Si4 0.760479 0.350656 0.862218
Si Si5 0.481248 0.131921 0.358404
Si Si6 0.008990 0.297065 0.409680
Si Si7 0.106143 0.198981 0.890900
O O1 0.200069 0.480256 0.725523
O O2 0.226258 0.679878 0.838693
O O3 0.087936 0.625174 0.898965
O O4 0.169870 0.339051 0.879708
O O5 0.866811 0.028292 0.356768
O O6 0.815111 0.728711 0.401984
O O7 0.806474 0.938476 0.544173
O O8 0.928368 0.787022 0.417293
O O9 0.500000 0.550498 0.750000
O O10 0.538887 0.295297 0.809332
O O11 0.612301 0.543797 0.819380
O O12 0.500000 0.103469 0.250000
O O13 0.561499 0.177302 0.351744
O O14 0.456676 0.955132 0.413792
O O15 0.955403 0.176256 0.498068
#
# Coordination Sequence:
#
# PCOD9300615 Si02
#       7
#     8   8   8   8   8   8   8
#     4  11  24  44  65  96 130 171 227 265 315 390
#     4  11  21  43  68  90 129 177 216 253 332 400
#     4  12  23  41  65 100 132 161 212 277 334 389
#     4  11  25  41  69  89 125 182 218 262 314 392
#     4  11  18  39  68  92 125 165 210 267 327 383
#     4  11  25  38  69 101 130 164 214 284 329 373
#     4  11  20  42  67  97 127 172 213 271 334 383
#
# _framework density 25.698446000000001
#
# number of rings (size 3 to 8) (size 9 to 14) (size 15 to 20)
#    0.000    0.857    4.286    5.143    2.000    0.000 
#    2.571    0.714    0.000    0.000    0.000    0.000 
#    0.000    0.000    0.000    0.000    0.000    0.000 
#
# Total GULP energy -155984.989799 kJ/mol
# GULP energy per Si atom -5570.892493 kJ/mol
# Density = 2.563995 g / cm^3
# Si number density = 25.698446 Si / 1000 Ang^3
#
#
#
# Elastic Constant Matrix: (Units=GPa)
#
#
# Indices 1 2 3 4 5 6 
#
# 1 19.7302 -4.3470 1.2105 0.0000 -3.3990 0.0000
# 2 -4.3470 75.4853 46.9914 -0.0001 0.4121 0.0000
# 3 1.2105 46.9914 180.2379 -0.0001 -26.4784 0.0001
# 4 0.0000 -0.0001 -0.0001 -9.1955 0.0000 48.6103
# 5 -3.3990 0.4121 -26.4784 0.0000 30.0035 0.0000
# 6 0.0000 0.0000 0.0001 48.6103 0.0000 -39.1527
#
#
#
# Elastic Compliance Matrix: (Units=1/GPa)
#
#
# Indices 1 2 3 4 5 6 
#
# 1 0.052373 0.003219 -0.000374 0.000000 0.005559 0.000000
# 2 0.003219 0.016542 -0.004957 0.000000 -0.004237 0.000000
# 3 -0.000374 -0.004957 0.007867 0.000000 0.006968 0.000000
# 4 0.000000 0.000000 0.000000 0.019548 0.000000 0.024270
# 5 0.005559 -0.004237 0.006968 0.000000 0.040167 0.000000
# 6 0.000000 0.000000 0.000000 0.024270 0.000000 0.004591
#
#
# Mechanical properties :
#
#
# Convention : Reuss Voigt Hill
#
# Bulk Modulus (GPa) = 13.78225 40.35148 27.06686
# Shear Modulus (GPa) = 29.49886 11.77097 20.63491
#
# Velocity S-wave (km/s) = 3.39172 2.14251 2.83674
# Velocity P-wave (km/s) = 4.55116 4.67509 4.61354
#
# Compressibility (1/GPa) = 0.07255710
#
# Stress axis : x y z
#
# Youngs Moduli (GPa) = 19.09367 60.45269 127.11718
#
# Poissons Ratio (x) = -0.19458 0.04758
# Poissons Ratio (y) = -0.06146 0.63010
# Poissons Ratio (z) = 0.00715 0.29965
#
# Static dielectric constant tensor:
#      x y z
#    x 2.248050 0.000000 -0.029120 
#    y 0.000000 2.152000 0.000000 
#    z -0.029120 0.000000 2.091360 
# 
# From -- ./inp_files/172288.got.cif
#   From: 2010.05.17/outbox.cif.g08.bks.cpg/sg15_87_cif.got.tgz:172288.got - 2010.06.03 18:47:42.
