data_PCOD9300599
_publ_section_title
;
Structure prediction by ZEFSAII (Michael W. Deem and Ramdas Pophale) SiO2 
 PCOD9300599
Probable space group: C 2/C
;
_chemical_formula_sum "Si O2"
_cell_formula_units_Z 60
_cell_length_a 11.408040
_cell_length_b 20.174860
_cell_length_c 14.254299
_cell_angle_alpha 90.000000
_cell_angle_beta 76.433851
_cell_angle_gamma 90.000000
_cell_volume 3189.174356
_symmetry_space_group_name_H-M "C 2/C"
_symmetry_group_IT_number 15
_symmetry_cell_setting 'monoclinic'
loop_
_space_group_symop_operation_xyz
x,y,z
-x,y,1/2-z
-x,-y,-z
x,-y,1/2+z
1/2+x,1/2+y,z
1/2-x,1/2+y,1/2-z
1/2-x,1/2-y,-z
1/2+x,1/2-y,1/2+z
loop_
_atom_site_type_symbol
_atom_site_label
_atom_site_fract_x
_atom_site_fract_y
_atom_site_fract_z
Si Si1 0.880259 0.388871 0.648290
Si Si2 0.500000 0.291952 0.750000
Si Si3 0.262136 0.972558 0.511348
Si Si4 0.743144 0.745177 0.114851
Si Si5 0.347845 0.906626 0.872801
Si Si6 0.493214 0.495629 0.358151
Si Si7 0.091389 0.130571 0.411627
Si Si8 0.117001 0.870275 0.412261
O O1 0.845088 0.443476 0.577855
O O2 0.805231 0.322976 0.636949
O O3 0.848439 0.413591 0.759406
O O4 0.023838 0.376911 0.621823
O O5 0.393894 0.253353 0.823084
O O6 0.435759 0.336097 0.682606
O O7 0.208659 0.910866 0.462157
O O8 0.327964 0.024337 0.431092
O O9 0.144524 0.005610 0.581866
O O10 0.814541 0.808030 0.142490
O O11 0.750000 0.750000 0.000000
O O12 0.229247 0.863090 0.915811
O O13 0.500000 0.517377 0.250000
O O14 0.561009 0.552094 0.405583
O O15 0.559583 0.425787 0.356560
O O16 0.993459 0.155953 0.503623
#
# Coordination Sequence:
#
# PCOD9300599 Si02
#       8
#     8   4   8   8   8   8   8   8
#     4  11  24  40  62  93 126 171 209 255 315 380
#     4  12  22  38  70  90 112 164 222 258 312 378
#     4  11  20  38  66  93 123 162 207 262 319 371
#     4  12  23  42  65  87 124 166 214 261 303 377
#     4  11  22  39  62  93 129 162 208 255 322 386
#     4  11  20  34  61  95 124 153 204 267 320 366
#     4  11  18  37  65  92 116 155 209 263 306 372
#     4  11  22  37  62  92 123 158 203 266 312 362
#
# _framework density 18.813645999999999
#
# number of rings (size 3 to 8) (size 9 to 14) (size 15 to 20)
#    0.000    0.800    7.333    2.800    0.000    0.000 
#    2.400    3.333    0.000    0.000    0.000    0.000 
#    0.000    0.000    0.000    0.000    0.000    0.000 
#
# Total GULP energy -167523.929625 kJ/mol
# GULP energy per Si atom -5584.130987 kJ/mol
# Density = 1.877083 g / cm^3
# Si number density = 18.813646 Si / 1000 Ang^3
#
#
#
# Elastic Constant Matrix: (Units=GPa)
#
#
# Indices 1 2 3 4 5 6 
#
# 1 125.7570 34.8719 44.2189 0.0000 -13.3690 0.0000
# 2 34.8719 77.8147 30.5879 0.0000 -9.5666 0.0000
# 3 44.2189 30.5879 80.7683 0.0000 -9.0037 0.0000
# 4 0.0000 0.0000 0.0000 20.8504 0.0000 3.1132
# 5 -13.3690 -9.5666 -9.0037 0.0000 35.7927 0.0000
# 6 0.0000 0.0000 0.0000 3.1132 0.0000 22.8550
#
#
#
# Elastic Compliance Matrix: (Units=1/GPa)
#
#
# Indices 1 2 3 4 5 6 
#
# 1 0.010498 -0.002680 -0.004501 0.000000 0.002072 0.000000
# 2 -0.002680 0.016036 -0.004362 0.000000 0.002188 0.000000
# 3 -0.004501 -0.004362 0.016647 0.000000 0.001340 0.000000
# 4 0.000000 0.000000 0.000000 0.048956 0.000000 -0.006669
# 5 0.002072 0.002188 0.001340 0.000000 0.029635 0.000000
# 6 0.000000 0.000000 0.000000 -0.006669 0.000000 0.044662
#
#
# Mechanical properties :
#
#
# Convention : Reuss Voigt Hill
#
# Bulk Modulus (GPa) = 49.76654 55.96637 52.86646
# Shear Modulus (GPa) = 25.48176 27.54372 26.51274
#
# Velocity S-wave (km/s) = 3.68425 3.83041 3.75804
# Velocity P-wave (km/s) = 6.67893 7.02674 6.85504
#
# Compressibility (1/GPa) = 0.02009382
#
# Stress axis : x y z
#
# Youngs Moduli (GPa) = 95.25411 62.36100 60.07195
#
# Poissons Ratio (x) = 0.16716 0.27041
# Poissons Ratio (y) = 0.25532 0.26201
# Poissons Ratio (z) = 0.42878 0.27199
#
# Static dielectric constant tensor:
#      x y z
#    x 1.673470 0.000000 -0.005270 
#    y 0.000000 1.643990 0.000000 
#    z -0.005270 0.000000 1.663290 
# 
# From -- ./inp_files/146721.got.cif
#   From: 2010.05.17/outbox.cif.g08.bks.cpg/sg15_74_cif.got.tgz:146721.got - 2010.06.03 18:47:42.
