data_PCOD9300724
_publ_section_title
;
Structure prediction by ZEFSAII (Michael W. Deem and Ramdas Pophale) SiO2 
 PCOD9300724
Probable space group: C 2/C
;
_chemical_formula_sum "Si O2"
_cell_formula_units_Z 48
_cell_length_a 10.509192
_cell_length_b 20.165706
_cell_length_c 11.856338
_cell_angle_alpha 90.000000
_cell_angle_beta 121.225902
_cell_angle_gamma 90.000000
_cell_volume 2148.648947
_symmetry_space_group_name_H-M "C 2/C"
_symmetry_group_IT_number 15
_symmetry_cell_setting 'monoclinic'
loop_
_space_group_symop_operation_xyz
x,y,z
-x,y,1/2-z
-x,-y,-z
x,-y,1/2+z
1/2+x,1/2+y,z
1/2-x,1/2+y,1/2-z
1/2-x,1/2-y,-z
1/2+x,1/2-y,1/2+z
loop_
_atom_site_type_symbol
_atom_site_label
_atom_site_fract_x
_atom_site_fract_y
_atom_site_fract_z
Si Si1 0.918402 0.772036 0.094687
Si Si2 0.202230 0.369210 0.332009
Si Si3 0.049461 0.558940 0.103162
Si Si4 0.958901 0.314385 0.045419
Si Si5 0.213349 0.516436 0.377040
Si Si6 0.017655 0.079006 0.882106
O O1 0.901912 0.850872 0.096993
O O2 0.000000 0.750074 0.250000
O O3 0.750000 0.750000 0.000000
O O4 0.005719 0.747284 0.021321
O O5 0.169391 0.316544 0.416985
O O6 0.154353 0.441069 0.361567
O O7 0.363209 0.393755 0.363602
O O8 0.104914 0.340270 0.183324
O O9 0.192502 0.534321 0.237289
O O10 0.903310 0.564163 0.113985
O O11 0.080514 0.627226 0.058343
O O12 0.000000 0.500000 0.000000
O O13 0.375510 0.531949 0.496956
O O14 0.000000 0.048611 0.750000
#
# Coordination Sequence:
#
# PCOD9300724 Si02
#       6
#     8   8   8   8   8   8
#     4  11  25  45  69  98 129 175 232 272 323 396
#     4  11  22  42  63  99 131 171 214 273 343 395
#     4  11  19  36  62  93 126 161 219 270 318 390
#     4  11  22  39  69  94 131 172 221 274 327 392
#     4  11  22  37  63  96 130 169 218 271 333 399
#     4  11  25  43  64  92 135 175 220 271 334 393
#
# _framework density 22.33962
#
# number of rings (size 3 to 8) (size 9 to 14) (size 15 to 20)
#    0.000    1.000    3.333    5.500    4.667    0.667 
#    0.000    0.833    0.000    0.000    0.000    0.000 
#    0.000    0.000    0.000    0.000    0.000    0.000 
#
# Total GULP energy -133792.722696 kJ/mol
# GULP energy per Si atom -5574.696779 kJ/mol
# Density = 2.228877 g / cm^3
# Si number density = 22.339620 Si / 1000 Ang^3
#
#
#
# Elastic Constant Matrix: (Units=GPa)
#
#
# Indices 1 2 3 4 5 6 
#
# 1 107.1443 -12.4911 48.4212 0.0000 9.2049 0.0000
# 2 -12.4911 48.1145 39.6148 0.0000 -3.9908 0.0000
# 3 48.4212 39.6148 171.5002 0.0000 4.5110 0.0000
# 4 0.0000 0.0000 0.0000 23.9539 0.0000 -2.6165
# 5 9.2049 -3.9908 4.5110 0.0000 32.6929 0.0000
# 6 0.0000 0.0000 0.0000 -2.6165 0.0000 31.0006
#
#
#
# Elastic Compliance Matrix: (Units=1/GPa)
#
#
# Indices 1 2 3 4 5 6 
#
# 1 0.012764 0.007504 -0.005286 0.000000 -0.001948 0.000000
# 2 0.007504 0.030599 -0.009263 0.000000 0.002900 0.000000
# 3 -0.005286 -0.009263 0.009488 0.000000 -0.000952 0.000000
# 4 0.000000 0.000000 0.000000 0.042135 0.000000 0.003556
# 5 -0.001948 0.002900 -0.000952 0.000000 0.031622 0.000000
# 6 0.000000 0.000000 0.000000 0.003556 0.000000 0.032558
#
#
# Mechanical properties :
#
#
# Convention : Reuss Voigt Hill
#
# Bulk Modulus (GPa) = 25.79831 53.09429 39.44630
# Shear Modulus (GPa) = 26.85615 34.27708 30.56661
#
# Velocity S-wave (km/s) = 3.47100 3.92134 3.70303
# Velocity P-wave (km/s) = 5.25710 6.65741 5.99826
#
# Compressibility (1/GPa) = 0.03876223
#
# Stress axis : x y z
#
# Youngs Moduli (GPa) = 78.34279 32.68031 105.39494
#
# Poissons Ratio (x) = -0.24525 0.55713
# Poissons Ratio (y) = -0.58792 0.97630
# Poissons Ratio (z) = 0.41413 0.30273
#
# Static dielectric constant tensor:
#      x y z
#    x 2.044820 0.000000 -0.080010 
#    y 0.000000 1.840040 0.000000 
#    z -0.080010 0.000000 1.876200 
# 
# From -- ./inp_files/89785.got.cif
#   From: 2010.05.17/outbox.cif.g08.bks.cpg/sg15_45_cif.got.tgz:89785.got - 2010.06.03 18:47:42.
