data_PCOD9300392
_publ_section_title
;
Structure prediction by ZEFSAII (Michael W. Deem and Ramdas Pophale) SiO2 
 PCOD9300392
Probable space group: C 2/C
;
_chemical_formula_sum "Si O2"
_cell_formula_units_Z 48
_cell_length_a 19.954894
_cell_length_b 10.180947
_cell_length_c 16.846019
_cell_angle_alpha 90.000000
_cell_angle_beta 32.110521
_cell_angle_gamma 90.000000
_cell_volume 1819.208096
_symmetry_space_group_name_H-M "C 2/C"
_symmetry_group_IT_number 15
_symmetry_cell_setting 'monoclinic'
loop_
_space_group_symop_operation_xyz
x,y,z
-x,y,1/2-z
-x,-y,-z
x,-y,1/2+z
1/2+x,1/2+y,z
1/2-x,1/2+y,1/2-z
1/2-x,1/2-y,-z
1/2+x,1/2-y,1/2+z
loop_
_atom_site_type_symbol
_atom_site_label
_atom_site_fract_x
_atom_site_fract_y
_atom_site_fract_z
Si Si1 0.962307 0.135902 0.999193
Si Si2 0.203559 0.721593 0.231039
Si Si3 0.714634 0.970092 0.452315
Si Si4 0.547391 0.979019 0.360155
Si Si5 0.611908 0.487479 0.577159
Si Si6 0.772665 0.738255 0.881473
O O1 0.234511 0.158932 0.641721
O O2 0.940798 0.101125 0.927261
O O3 0.000000 0.000000 0.000000
O O4 0.829861 0.201225 0.153782
O O5 0.076761 0.768119 0.399826
O O6 0.000000 0.500000 0.500000
O O7 0.163058 0.581109 0.238549
O O8 0.565717 0.977179 0.584582
O O9 0.773991 0.967281 0.480077
O O10 0.762217 0.109276 0.368397
O O11 0.603209 0.840910 0.271394
O O12 0.500000 0.448304 0.750000
O O13 0.658375 0.363384 0.478644
O O14 0.750000 0.750000 0.000000
#
# Coordination Sequence:
#
# PCOD9300392 Si02
#       6
#     8   8   8   8   8   8
#     4  12  29  54  84 118 177 216 294 361 457 532
#     4  12  27  54  80 129 161 233 280 362 449 529
#     4  11  27  48  80 121 172 219 302 364 441 546
#     4  12  29  51  81 125 176 228 300 364 453 542
#     4  11  24  49  81 119 161 229 280 358 439 527
#     4  10  26  51  80 117 169 227 299 355 451 524
#
# _framework density 26.385107000000001
#
# number of rings (size 3 to 8) (size 9 to 14) (size 15 to 20)
#    0.000    0.667    5.000    0.000    7.000    6.667 
#    3.000    0.000    0.000    0.000    0.000    0.000 
#    0.000    0.000    0.000    0.000    0.000    0.000 
#
# Total GULP energy -134280.471246 kJ/mol
# GULP energy per Si atom -5595.019635 kJ/mol
# Density = 2.632505 g / cm^3
# Si number density = 26.385107 Si / 1000 Ang^3
#
#
#
# Elastic Constant Matrix: (Units=GPa)
#
#
# Indices 1 2 3 4 5 6 
#
# 1 154.0930 27.5613 68.9715 0.0000 -12.3799 0.0000
# 2 27.5613 156.5590 46.4640 0.0000 5.4509 0.0000
# 3 68.9715 46.4640 140.7758 0.0000 -18.9354 0.0000
# 4 0.0000 0.0000 0.0000 69.9391 0.0000 -12.1190
# 5 -12.3799 5.4509 -18.9354 0.0000 54.7125 0.0000
# 6 0.0000 0.0000 0.0000 -12.1190 0.0000 39.3101
#
#
#
# Elastic Compliance Matrix: (Units=1/GPa)
#
#
# Indices 1 2 3 4 5 6 
#
# 1 0.008340 -0.000331 -0.003900 0.000000 0.000570 0.000000
# 2 -0.000331 0.007228 -0.002444 0.000000 -0.001641 0.000000
# 3 -0.003900 -0.002444 0.010211 0.000000 0.002895 0.000000
# 4 0.000000 0.000000 0.000000 0.015105 0.000000 0.004657
# 5 0.000570 -0.001641 0.002895 0.000000 0.019572 0.000000
# 6 0.000000 0.000000 0.000000 0.004657 0.000000 0.026874
#
#
# Mechanical properties :
#
#
# Convention : Reuss Voigt Hill
#
# Bulk Modulus (GPa) = 80.46202 81.93573 81.19887
# Shear Modulus (GPa) = 47.69894 53.35440 50.52667
#
# Velocity S-wave (km/s) = 4.25643 4.50170 4.38078
# Velocity P-wave (km/s) = 7.39714 7.62506 7.51197
#
# Compressibility (1/GPa) = 0.01242822
#
# Stress axis : x y z
#
# Youngs Moduli (GPa) = 119.89897 138.34765 97.93672
#
# Poissons Ratio (x) = 0.04573 0.38200
# Poissons Ratio (y) = 0.03963 0.23940
# Poissons Ratio (z) = 0.46766 0.33819
#
# Static dielectric constant tensor:
#      x y z
#    x 2.135610 0.000000 0.031330 
#    y 0.000000 2.089580 0.000000 
#    z 0.031330 0.000000 2.172900 
# 
# From -- ./inp_files/216336.got.cif
#   From: 2010.05.17/outbox.cif.g08.bks.cpg/sg15_109_cif.got.tgz:216336.got - 2010.06.03 18:47:42.
