data_PCOD9300925
_publ_section_title
;
Structure prediction by ZEFSAII (Michael W. Deem and Ramdas Pophale) SiO2 
 PCOD9300925
Probable space group: C 2/C
;
_chemical_formula_sum "Si O2"
_cell_formula_units_Z 56
_cell_length_a 14.441331
_cell_length_b 13.739020
_cell_length_c 12.452629
_cell_angle_alpha 90.000000
_cell_angle_beta 92.231629
_cell_angle_gamma 90.000000
_cell_volume 2468.848962
_symmetry_space_group_name_H-M "C 2/C"
_symmetry_group_IT_number 15
_symmetry_cell_setting 'monoclinic'
loop_
_space_group_symop_operation_xyz
x,y,z
-x,y,1/2-z
-x,-y,-z
x,-y,1/2+z
1/2+x,1/2+y,z
1/2-x,1/2+y,1/2-z
1/2-x,1/2-y,-z
1/2+x,1/2-y,1/2+z
loop_
_atom_site_type_symbol
_atom_site_label
_atom_site_fract_x
_atom_site_fract_y
_atom_site_fract_z
Si Si1 0.851224 0.108639 0.756228
Si Si2 0.737520 0.352949 0.938305
Si Si3 0.091816 0.795129 0.613060
Si Si4 0.171044 0.528801 0.866997
Si Si5 0.000000 0.631622 0.750000
Si Si6 0.000000 0.036638 0.250000
Si Si7 0.294045 0.182765 0.192250
Si Si8 0.457167 0.392673 0.484924
O O1 0.751397 0.064336 0.785997
O O2 0.842408 0.212901 0.701591
O O3 0.919137 0.033678 0.700562
O O4 0.904911 0.118954 0.870874
O O5 0.769971 0.343141 0.816614
O O6 0.627513 0.372898 0.936251
O O7 0.750000 0.250000 0.000000
O O8 0.792559 0.431200 0.015536
O O9 0.200731 0.800786 0.620032
O O10 0.058427 0.701046 0.674309
O O11 0.035413 0.810823 0.502153
O O12 0.055250 0.890493 0.675323
O O13 0.161480 0.412656 0.857869
O O14 0.074087 0.573706 0.824617
O O15 0.500000 0.500000 0.500000
#
# Coordination Sequence:
#
# PCOD9300925 Si02
#       8
#     8   8   8   8   4   4   8   8
#     4  11  23  39  60  96 129 167 207 272 332 386
#     4  11  20  40  65  95 128 169 220 275 322 386
#     4  11  20  35  65  95 114 161 218 273 312 372
#     4  11  23  40  63  96 128 169 220 268 322 385
#     4  11  22  37  62  86 124 163 214 267 302 384
#     4  11  20  37  62  94 124 163 210 263 334 378
#     4  12  23  41  65  92 134 174 211 268 338 386
#     4  11  20  33  59  97 124 149 213 279 319 366
#
# _framework density 22.682635000000001
#
# number of rings (size 3 to 8) (size 9 to 14) (size 15 to 20)
#    0.000    0.857    7.143    3.429    0.000    0.571 
#    0.000    0.714    3.143    1.714    0.000    0.000 
#    0.000    0.000    0.000    0.000    0.000    0.000 
#
# Total GULP energy -156527.662992 kJ/mol
# GULP energy per Si atom -5590.273678 kJ/mol
# Density = 2.263101 g / cm^3
# Si number density = 22.682635 Si / 1000 Ang^3
#
#
#
# Elastic Constant Matrix: (Units=GPa)
#
#
# Indices 1 2 3 4 5 6 
#
# 1 80.9323 45.3801 23.5481 0.0000 24.9527 0.0000
# 2 45.3801 124.1819 4.4299 0.0000 28.0803 0.0000
# 3 23.5481 4.4299 55.9786 0.0000 19.8359 0.0000
# 4 0.0000 0.0000 0.0000 11.5161 0.0000 -0.6823
# 5 24.9527 28.0803 19.8359 0.0000 44.1456 0.0000
# 6 0.0000 0.0000 0.0000 -0.6823 0.0000 29.5161
#
#
#
# Elastic Compliance Matrix: (Units=1/GPa)
#
#
# Indices 1 2 3 4 5 6 
#
# 1 0.018504 -0.005584 -0.005821 0.000000 -0.004292 0.000000
# 2 -0.005584 0.011218 0.003415 0.000000 -0.005514 0.000000
# 3 -0.005821 0.003415 0.023367 0.000000 -0.009381 0.000000
# 4 0.000000 0.000000 0.000000 0.086954 0.000000 0.002010
# 5 -0.004292 -0.005514 -0.009381 0.000000 0.032801 0.000000
# 6 0.000000 0.000000 0.000000 0.002010 0.000000 0.033926
#
#
# Mechanical properties :
#
#
# Convention : Reuss Voigt Hill
#
# Bulk Modulus (GPa) = 26.94785 45.31210 36.12997
# Shear Modulus (GPa) = 21.26575 29.55121 25.40848
#
# Velocity S-wave (km/s) = 3.06524 3.61336 3.35053
# Velocity P-wave (km/s) = 4.94305 6.11788 5.56158
#
# Compressibility (1/GPa) = 0.03710871
#
# Stress axis : x y z
#
# Youngs Moduli (GPa) = 54.04268 89.14060 42.79590
#
# Poissons Ratio (x) = 0.49775 0.24913
# Poissons Ratio (y) = 0.30176 -0.14615
# Poissons Ratio (z) = 0.31460 -0.30442
#
# Static dielectric constant tensor:
#      x y z
#    x 1.871070 0.000000 -0.044180 
#    y 0.000000 1.841130 0.000000 
#    z -0.044180 0.000000 2.007700 
# 
# From -- ./inp_files/204156.got.cif
#   From: 2010.05.17/outbox.cif.g08.bks.cpg/sg15_103_cif.got.tgz:204156.got - 2010.06.03 18:47:42.
