data_PCOD9300785
_publ_section_title
;
Structure prediction by ZEFSAII (Michael W. Deem and Ramdas Pophale) SiO2 
 PCOD9300785
Probable space group: C 2/C
;
_chemical_formula_sum "Si O2"
_cell_formula_units_Z 48
_cell_length_a 31.946018
_cell_length_b 6.784920
_cell_length_c 14.092138
_cell_angle_alpha 90.000000
_cell_angle_beta 136.196945
_cell_angle_gamma 90.000000
_cell_volume 2114.260212
_symmetry_space_group_name_H-M "C 2/C"
_symmetry_group_IT_number 15
_symmetry_cell_setting 'monoclinic'
loop_
_space_group_symop_operation_xyz
x,y,z
-x,y,1/2-z
-x,-y,-z
x,-y,1/2+z
1/2+x,1/2+y,z
1/2-x,1/2+y,1/2-z
1/2-x,1/2-y,-z
1/2+x,1/2-y,1/2+z
loop_
_atom_site_type_symbol
_atom_site_label
_atom_site_fract_x
_atom_site_fract_y
_atom_site_fract_z
Si Si1 0.123988 0.462899 0.662055
Si Si2 0.237441 0.198767 0.865043
Si Si3 0.839653 0.961941 0.985981
Si Si4 0.427331 0.390117 0.301743
Si Si5 0.061844 0.831546 0.498216
Si Si6 0.733455 0.752843 0.364166
O O1 0.271373 0.472260 0.670736
O O2 0.087716 0.323943 0.676062
O O3 0.076929 0.595714 0.524532
O O4 0.169098 0.641523 0.760715
O O5 0.178569 0.309758 0.728693
O O6 0.250000 0.250000 0.000000
O O7 0.297995 0.267625 0.911973
O O8 0.874645 0.951108 0.143567
O O9 0.891689 0.945948 0.993626
O O10 0.788862 0.131848 0.905701
O O11 0.492038 0.366873 0.357347
O O12 0.432487 0.559486 0.390242
O O13 0.750000 0.750000 0.500000
#
# Coordination Sequence:
#
# PCOD9300785 Si02
#       6
#     8   8   8   8   8   8
#     4  11  21  40  65  91 132 171 224 276 341 399
#     4  11  20  38  66 100 126 174 220 282 344 407
#     4  11  23  42  68  99 136 177 230 281 344 414
#     4  11  23  45  69  91 138 184 228 285 347 396
#     4  11  26  42  65 102 133 182 235 283 334 417
#     4  11  19  38  67  98 130 172 221 275 349 408
#
# _framework density 22.702978000000002
#
# number of rings (size 3 to 8) (size 9 to 14) (size 15 to 20)
#    0.000    1.000    5.000    3.000    0.000    1.333 
#   18.000    0.000    0.000    6.000    0.000    0.000 
#    0.000    0.000    0.000    0.000    0.000    0.000 
#
# Total GULP energy -133917.922530 kJ/mol
# GULP energy per Si atom -5579.913439 kJ/mol
# Density = 2.265130 g / cm^3
# Si number density = 22.702978 Si / 1000 Ang^3
#
#
#
# Elastic Constant Matrix: (Units=GPa)
#
#
# Indices 1 2 3 4 5 6 
#
# 1 136.8123 10.5501 10.9912 0.0000 25.3056 0.0000
# 2 10.5501 130.7132 13.0321 0.0000 15.6188 0.0000
# 3 10.9912 13.0321 51.5051 0.0000 13.6878 0.0000
# 4 0.0000 0.0000 0.0000 29.2964 0.0000 5.6374
# 5 25.3056 15.6188 13.6878 0.0000 44.5680 0.0000
# 6 0.0000 0.0000 0.0000 5.6374 0.0000 35.6653
#
#
#
# Elastic Compliance Matrix: (Units=1/GPa)
#
#
# Indices 1 2 3 4 5 6 
#
# 1 0.008182 -0.000074 -0.000544 0.000000 -0.004453 0.000000
# 2 -0.000074 0.008078 -0.001401 0.000000 -0.002358 0.000000
# 3 -0.000544 -0.001401 0.021422 0.000000 -0.005779 0.000000
# 4 0.000000 0.000000 0.000000 0.035205 0.000000 -0.005565
# 5 -0.004453 -0.002358 -0.005779 0.000000 0.027567 0.000000
# 6 0.000000 0.000000 0.000000 -0.005565 0.000000 0.028918
#
#
# Mechanical properties :
#
#
# Convention : Reuss Voigt Hill
#
# Bulk Modulus (GPa) = 29.72347 43.13080 36.42713
# Shear Modulus (GPa) = 34.57202 40.86975 37.72089
#
# Velocity S-wave (km/s) = 3.90654 4.24747 4.08057
# Velocity P-wave (km/s) = 5.78522 6.56459 6.18719
#
# Compressibility (1/GPa) = 0.03364345
#
# Stress axis : x y z
#
# Youngs Moduli (GPa) = 122.21453 123.79552 46.68081
#
# Poissons Ratio (x) = 0.00917 0.02539
# Poissons Ratio (y) = 0.00906 0.06541
# Poissons Ratio (z) = 0.06648 0.17348
#
# Static dielectric constant tensor:
#      x y z
#    x 1.779450 0.000000 -0.041010 
#    y 0.000000 1.921580 0.000000 
#    z -0.041010 0.000000 1.974450 
# 
# From -- ./inp_files/121629.got.cif
#   From: 2010.05.17/outbox.cif.g08.bks.cpg/sg15_61_cif.got.tgz:121629.got - 2010.06.03 18:47:42.
