data_PCOD9300612
_publ_section_title
;
Structure prediction by ZEFSAII (Michael W. Deem and Ramdas Pophale) SiO2 
 PCOD9300612
Probable space group: C 2/C
;
_chemical_formula_sum "Si O2"
_cell_formula_units_Z 48
_cell_length_a 8.853935
_cell_length_b 22.884790
_cell_length_c 13.026265
_cell_angle_alpha 90.000000
_cell_angle_beta 117.431879
_cell_angle_gamma 90.000000
_cell_volume 2342.612723
_symmetry_space_group_name_H-M "C 2/C"
_symmetry_group_IT_number 15
_symmetry_cell_setting 'monoclinic'
loop_
_space_group_symop_operation_xyz
x,y,z
-x,y,1/2-z
-x,-y,-z
x,-y,1/2+z
1/2+x,1/2+y,z
1/2-x,1/2+y,1/2-z
1/2-x,1/2-y,-z
1/2+x,1/2-y,1/2+z
loop_
_atom_site_type_symbol
_atom_site_label
_atom_site_fract_x
_atom_site_fract_y
_atom_site_fract_z
Si Si1 0.353074 0.611067 0.490777
Si Si2 0.114117 0.953535 0.181834
Si Si3 0.152012 0.781561 0.373377
Si Si4 0.395226 0.143618 0.811950
Si Si5 0.995498 0.569541 0.474613
Si Si6 0.329485 0.586365 0.263832
O O1 0.494559 0.561900 0.549745
O O2 0.418190 0.662135 0.586505
O O3 0.173690 0.587860 0.477872
O O4 0.332562 0.626742 0.365491
O O5 0.262780 0.906406 0.235574
O O6 0.000000 0.949050 0.250000
O O7 0.177855 0.019440 0.198519
O O8 0.250000 0.750000 0.500000
O O9 0.295698 0.806619 0.342362
O O10 0.000000 0.757494 0.250000
O O11 0.500000 0.167554 0.750000
O O12 0.516116 0.107362 0.926005
O O13 0.000000 0.500000 0.500000
O O14 0.839559 0.589812 0.356051
O O15 0.500000 0.593695 0.250000
#
# Coordination Sequence:
#
# PCOD9300612 Si02
#       6
#     8   8   8   8   8   8
#     4  11  22  40  62  85 126 167 213 256 316 384
#     4  11  18  39  59  86 124 173 207 241 308 387
#     4  11  24  47  74  92 120 168 219 274 334 387
#     4  11  23  38  67  93 124 164 211 259 317 376
#     4  11  21  35  54  87 128 170 211 251 301 374
#     4  11  24  33  54  93 131 173 212 249 309 371
#
# _framework density 20.489941999999999
#
# number of rings (size 3 to 8) (size 9 to 14) (size 15 to 20)
#    0.000    1.000    6.667    2.000    4.667    2.667 
#    0.000    1.667    0.000    0.000    0.000    0.000 
#    0.000    0.000    0.000    0.000    0.000    0.000 
#
# Total GULP energy -133930.395513 kJ/mol
# GULP energy per Si atom -5580.433146 kJ/mol
# Density = 2.044331 g / cm^3
# Si number density = 20.489942 Si / 1000 Ang^3
#
#
#
# Elastic Constant Matrix: (Units=GPa)
#
#
# Indices 1 2 3 4 5 6 
#
# 1 34.0516 6.5165 42.3581 0.0000 -10.1634 0.0000
# 2 6.5165 22.4100 16.1159 0.0000 -5.4119 0.0000
# 3 42.3581 16.1159 173.9197 0.0000 15.4426 0.0000
# 4 0.0000 0.0000 0.0000 36.8803 0.0000 2.3995
# 5 -10.1634 -5.4119 15.4426 0.0000 43.7465 0.0000
# 6 0.0000 0.0000 0.0000 2.3995 0.0000 5.8624
#
#
#
# Elastic Compliance Matrix: (Units=1/GPa)
#
#
# Indices 1 2 3 4 5 6 
#
# 1 0.052209 -0.000904 -0.014142 0.000000 0.017010 0.000000
# 2 -0.000904 0.050491 -0.005156 0.000000 0.007856 0.000000
# 3 -0.014142 -0.005156 0.010344 0.000000 -0.007575 0.000000
# 4 0.000000 0.000000 0.000000 0.027857 0.000000 -0.011402
# 5 0.017010 0.007856 -0.007575 0.000000 0.030457 0.000000
# 6 0.000000 0.000000 0.000000 -0.011402 0.000000 0.175246
#
#
# Mechanical properties :
#
#
# Convention : Reuss Voigt Hill
#
# Bulk Modulus (GPa) = 13.76643 40.04026 26.90334
# Shear Modulus (GPa) = 12.15892 28.32389 20.24141
#
# Velocity S-wave (km/s) = 2.43864 3.72201 3.14645
# Velocity P-wave (km/s) = 3.82917 6.16887 5.13408
#
# Compressibility (1/GPa) = 0.07264048
#
# Stress axis : x y z
#
# Youngs Moduli (GPa) = 19.15378 19.80552 96.67015
#
# Poissons Ratio (x) = 0.01790 1.36712
# Poissons Ratio (y) = 0.01731 0.49844
# Poissons Ratio (z) = 0.27087 0.10212
#
# Static dielectric constant tensor:
#      x y z
#    x 1.666040 0.000000 -0.021490 
#    y 0.000000 1.779950 0.000000 
#    z -0.021490 0.000000 1.815540 
# 
# From -- ./inp_files/79089.got.cif
#   From: 2010.05.17/outbox.cif.g08.bks.cpg/sg15_40_cif.got.tgz:79089.got - 2010.06.03 18:47:42.
