data_PCOD9300797
_publ_section_title
;
Structure prediction by ZEFSAII (Michael W. Deem and Ramdas Pophale) SiO2 
 PCOD9300797
Probable space group: C 2/C
;
_chemical_formula_sum "Si O2"
_cell_formula_units_Z 60
_cell_length_a 27.247797
_cell_length_b 17.891804
_cell_length_c 8.989164
_cell_angle_alpha 90.000000
_cell_angle_beta 38.757189
_cell_angle_gamma 90.000000
_cell_volume 2743.430454
_symmetry_space_group_name_H-M "C 2/C"
_symmetry_group_IT_number 15
_symmetry_cell_setting 'monoclinic'
loop_
_space_group_symop_operation_xyz
x,y,z
-x,y,1/2-z
-x,-y,-z
x,-y,1/2+z
1/2+x,1/2+y,z
1/2-x,1/2+y,1/2-z
1/2-x,1/2-y,-z
1/2+x,1/2-y,1/2+z
loop_
_atom_site_type_symbol
_atom_site_label
_atom_site_fract_x
_atom_site_fract_y
_atom_site_fract_z
Si Si1 0.000000 0.790558 0.750000
Si Si2 0.690054 0.088639 0.953668
Si Si3 0.366946 0.402858 0.110993
Si Si4 0.417855 0.536842 0.167999
Si Si5 0.133675 0.274690 0.141130
Si Si6 0.788155 0.255357 0.070641
Si Si7 0.689314 0.069711 0.604699
Si Si8 0.851143 0.152374 0.138213
O O1 0.934606 0.842910 0.984046
O O2 0.944405 0.746114 0.766509
O O3 0.776410 0.114310 0.802737
O O4 0.654602 0.171896 0.054314
O O5 0.688514 0.068424 0.784424
O O6 0.669966 0.012703 0.088188
O O7 0.389864 0.430204 0.890009
O O8 0.366468 0.468716 0.230813
O O9 0.419184 0.598572 0.035276
O O10 0.500000 0.500000 0.000000
O O11 0.142975 0.224370 0.267058
O O12 0.212895 0.253095 0.861255
O O13 0.134915 0.362563 0.175369
O O14 0.840372 0.184223 0.999341
O O15 0.750000 0.250000 0.000000
O O16 0.774901 0.100917 0.353978
#
# Coordination Sequence:
#
# PCOD9300797 Si02
#       8
#     4   8   8   8   8   8   8   8
#     4  12  20  38  66  82 118 168 212 240 276 386
#     4  12  21  38  57  90 121 149 200 256 305 357
#     4  12  21  34  54  86 122 160 195 241 288 358
#     4  12  21  34  51  84 126 164 198 232 293 373
#     4  11  21  41  60  85 118 163 208 240 305 368
#     4  11  23  36  60  91 122 155 204 270 309 357
#     4  11  22  35  60  86 117 155 196 253 310 356
#     4  11  19  39  58  79 126 165 198 248 305 367
#
# _framework density 21.870428
#
# number of rings (size 3 to 8) (size 9 to 14) (size 15 to 20)
#    0.000    0.533    9.333    0.800    3.733    1.067 
#    0.000    0.000    0.000    0.800    0.000    0.000 
#    0.000    0.000    0.000    0.000    0.000    0.000 
#
# Total GULP energy -167401.413705 kJ/mol
# GULP energy per Si atom -5580.047124 kJ/mol
# Density = 2.182065 g / cm^3
# Si number density = 21.870428 Si / 1000 Ang^3
#
#
#
# Elastic Constant Matrix: (Units=GPa)
#
#
# Indices 1 2 3 4 5 6 
#
# 1 122.4152 57.8063 21.4344 0.0000 13.2701 0.0000
# 2 57.8063 155.6949 20.9880 0.0000 19.5489 0.0000
# 3 21.4344 20.9880 27.2244 0.0000 11.5356 0.0000
# 4 0.0000 0.0000 0.0000 21.2324 0.0000 7.8157
# 5 13.2701 19.5489 11.5356 0.0000 30.3861 0.0000
# 6 0.0000 0.0000 0.0000 7.8157 0.0000 60.3867
#
#
#
# Elastic Compliance Matrix: (Units=1/GPa)
#
#
# Indices 1 2 3 4 5 6 
#
# 1 0.010720 -0.003138 -0.005831 0.000000 -0.000449 0.000000
# 2 -0.003138 0.008322 -0.002690 0.000000 -0.002963 0.000000
# 3 -0.005831 -0.002690 0.049556 0.000000 -0.014536 0.000000
# 4 0.000000 0.000000 0.000000 0.049454 0.000000 -0.006401
# 5 -0.000449 -0.002963 -0.014536 0.000000 0.040530 0.000000
# 6 0.000000 0.000000 0.000000 -0.006401 0.000000 0.017388
#
#
# Mechanical properties :
#
#
# Convention : Reuss Voigt Hill
#
# Bulk Modulus (GPa) = 22.08454 56.19911 39.14182
# Shear Modulus (GPa) = 23.32282 36.07476 29.69879
#
# Velocity S-wave (km/s) = 3.26913 4.06578 3.68903
# Velocity P-wave (km/s) = 4.93654 6.91324 6.00676
#
# Compressibility (1/GPa) = 0.04528055
#
# Stress axis : x y z
#
# Youngs Moduli (GPa) = 93.28078 120.15697 20.17933
#
# Poissons Ratio (x) = 0.37703 0.11766
# Poissons Ratio (y) = 0.29269 0.05429
# Poissons Ratio (z) = 0.54391 0.32325
#
# Static dielectric constant tensor:
#      x y z
#    x 1.812220 0.000000 -0.032100 
#    y 0.000000 1.951090 0.000000 
#    z -0.032100 0.000000 1.831810 
# 
# From -- ./inp_files/67013.got.cif
#   From: 2010.05.17/outbox.cif.g08.bks.cpg/sg15_34_cif.got.tgz:67013.got - 2010.06.03 18:47:42.
