data_PCOD9300988
_publ_section_title
;
Structure prediction by ZEFSAII (Michael W. Deem and Ramdas Pophale) SiO2 
 PCOD9300988
Probable space group: C 2/C
;
_chemical_formula_sum "Si O2"
_cell_formula_units_Z 48
_cell_length_a 9.478931
_cell_length_b 15.427191
_cell_length_c 15.836274
_cell_angle_alpha 90.000000
_cell_angle_beta 96.565948
_cell_angle_gamma 90.000000
_cell_volume 2300.600773
_symmetry_space_group_name_H-M "C 2/C"
_symmetry_group_IT_number 15
_symmetry_cell_setting 'monoclinic'
loop_
_space_group_symop_operation_xyz
x,y,z
-x,y,1/2-z
-x,-y,-z
x,-y,1/2+z
1/2+x,1/2+y,z
1/2-x,1/2+y,1/2-z
1/2-x,1/2-y,-z
1/2+x,1/2-y,1/2+z
loop_
_atom_site_type_symbol
_atom_site_label
_atom_site_fract_x
_atom_site_fract_y
_atom_site_fract_z
Si Si1 0.475424 0.785883 0.495154
Si Si2 0.287188 0.439853 0.872375
Si Si3 0.526507 0.053267 0.088705
Si Si4 0.181453 0.987628 0.809183
Si Si5 0.670110 0.381171 0.448216
Si Si6 0.012019 0.189535 0.341280
O O1 0.562025 0.850403 0.559391
O O2 0.431961 0.699012 0.540662
O O3 0.329237 0.838751 0.461981
O O4 0.555231 0.755069 0.416793
O O5 0.332285 0.494075 0.793017
O O6 0.354941 0.345627 0.856218
O O7 0.118487 0.443061 0.868632
O O8 0.337540 0.449536 0.973269
O O9 0.654357 0.018879 0.152862
O O10 0.500000 0.000000 0.000000
O O11 0.104768 0.898142 0.834631
O O12 0.132376 0.068873 0.860856
O O13 0.000000 0.233348 0.250000
#
# Coordination Sequence:
#
# PCOD9300988 Si02
#       6
#     8   8   8   8   8   8
#     4   9  18  35  56  76 118 150 182 229 280 348
#     4   9  19  36  57  80 116 149 184 231 280 343
#     4  11  20  37  56  86 113 149 191 234 283 338
#     4  11  20  35  62  84 112 149 192 238 281 325
#     4   9  18  36  58  83 110 159 188 215 288 356
#     4   9  20  37  58  85 115 149 190 234 285 336
#
# _framework density 20.864115000000002
#
# number of rings (size 3 to 8) (size 9 to 14) (size 15 to 20)
#    0.000    2.333    3.333    1.500    0.000    3.333 
#    3.000    0.000    0.000   22.000    0.000    0.000 
#    0.000    0.000    0.000    0.000    0.000    0.000 
#
# Total GULP energy -133712.083131 kJ/mol
# GULP energy per Si atom -5571.336797 kJ/mol
# Density = 2.081663 g / cm^3
# Si number density = 20.864115 Si / 1000 Ang^3
#
#
#
# Elastic Constant Matrix: (Units=GPa)
#
#
# Indices 1 2 3 4 5 6 
#
# 1 63.7137 5.7262 20.3105 0.0000 0.4711 0.0000
# 2 5.7262 68.6815 51.1911 0.0000 -4.9715 0.0000
# 3 20.3105 51.1911 99.0365 0.0000 -26.6072 0.0000
# 4 0.0000 0.0000 0.0000 25.7898 0.0000 5.7131
# 5 0.4711 -4.9715 -26.6072 0.0000 28.6682 0.0000
# 6 0.0000 0.0000 0.0000 5.7131 0.0000 16.9480
#
#
#
# Elastic Compliance Matrix: (Units=1/GPa)
#
#
# Indices 1 2 3 4 5 6 
#
# 1 0.017675 0.003290 -0.006994 0.000000 -0.006211 0.000000
# 2 0.003290 0.026494 -0.017517 0.000000 -0.011717 0.000000
# 3 -0.006994 -0.017517 0.026378 0.000000 0.021559 0.000000
# 4 0.000000 0.000000 0.000000 0.041904 0.000000 -0.014126
# 5 -0.006211 -0.011717 0.021559 0.000000 0.052961 0.000000
# 6 0.000000 0.000000 0.000000 -0.014126 0.000000 0.063766
#
#
# Mechanical properties :
#
#
# Convention : Reuss Voigt Hill
#
# Bulk Modulus (GPa) = 35.58188 42.87637 39.22913
# Shear Modulus (GPa) = 17.79436 24.56146 21.17791
#
# Velocity S-wave (km/s) = 2.92356 3.43477 3.18943
# Velocity P-wave (km/s) = 5.33736 6.02703 5.69265
#
# Compressibility (1/GPa) = 0.02810419
#
# Stress axis : x y z
#
# Youngs Moduli (GPa) = 56.57720 37.74497 37.91051
#
# Poissons Ratio (x) = -0.12416 0.26514
# Poissons Ratio (y) = -0.18611 0.66407
# Poissons Ratio (z) = 0.39569 0.66117
#
# Static dielectric constant tensor:
#      x y z
#    x 1.798360 0.000000 -0.010740 
#    y 0.000000 1.754400 0.000000 
#    z -0.010740 0.000000 1.798660 
# 
# From -- ./inp_files/143626.got.cif
#   From: 2010.05.17/outbox.cif.g08.bks.cpg/sg15_72_cif.got.tgz:143626.got - 2010.06.03 18:47:42.
