data_PCOD9300415
_publ_section_title
;
Structure prediction by ZEFSAII (Michael W. Deem and Ramdas Pophale) SiO2 
 PCOD9300415
Probable space group: C 2/C
;
_chemical_formula_sum "Si O2"
_cell_formula_units_Z 20
_cell_length_a 16.415383
_cell_length_b 8.872542
_cell_length_c 12.549427
_cell_angle_alpha 90.000000
_cell_angle_beta 158.581270
_cell_angle_gamma 90.000000
_cell_volume 667.469315
_symmetry_space_group_name_H-M "C 2/C"
_symmetry_group_IT_number 15
_symmetry_cell_setting 'monoclinic'
loop_
_space_group_symop_operation_xyz
x,y,z
-x,y,1/2-z
-x,-y,-z
x,-y,1/2+z
1/2+x,1/2+y,z
1/2-x,1/2+y,1/2-z
1/2-x,1/2-y,-z
1/2+x,1/2-y,1/2+z
loop_
_atom_site_type_symbol
_atom_site_label
_atom_site_fract_x
_atom_site_fract_y
_atom_site_fract_z
Si Si1 0.525645 0.093345 0.658486
Si Si2 0.649318 0.642865 0.709423
Si Si3 0.000000 0.948544 0.250000
O O1 0.500000 0.144030 0.750000
O O2 0.418165 0.219004 0.449573
O O3 0.611761 0.062692 0.514748
O O4 0.784284 0.049201 0.957320
O O5 0.500000 0.500000 0.500000
O O6 0.581890 0.653424 0.751645
#
# Coordination Sequence:
#
# PCOD9300415 Si02
#       3
#     8   8   4
#     4  10  26  54  85 117 164 221 278 341 419 500
#     4  11  27  49  83 122 164 218 277 344 419 500
#     4  10  26  52  86 118 164 218 278 344 418 496
#
# _framework density 29.963925
#
# number of rings (size 3 to 8) (size 9 to 14) (size 15 to 20)
#    0.000    1.600    0.000    0.000    8.400   11.200 
#    0.000   12.000    0.000    2.400    0.000    0.000 
#    0.000    0.000    0.000    0.000    0.000    0.000 
#
# Total GULP energy -56157.497419 kJ/mol
# GULP energy per Si atom -5615.749742 kJ/mol
# Density = 2.989573 g / cm^3
# Si number density = 29.963925 Si / 1000 Ang^3
#
#
#
# Elastic Constant Matrix: (Units=GPa)
#
#
# Indices 1 2 3 4 5 6 
#
# 1 289.8621 161.1435 115.6474 0.0007 -22.4442 0.0001
# 2 161.1435 283.4693 154.8938 -0.0001 -13.6050 -0.0004
# 3 115.6474 154.8938 261.1732 0.0008 29.9446 0.0006
# 4 0.0007 -0.0001 0.0008 104.1415 0.0006 -24.1797
# 5 -22.4442 -13.6050 29.9446 0.0006 71.0956 0.0002
# 6 0.0001 -0.0004 0.0006 -24.1797 0.0002 32.1940
#
#
#
# Elastic Compliance Matrix: (Units=1/GPa)
#
#
# Indices 1 2 3 4 5 6 
#
# 1 0.005342 -0.002293 -0.001207 0.000000 0.001756 0.000000
# 2 -0.002293 0.006632 -0.003131 0.000000 0.001864 0.000000
# 3 -0.001207 -0.003131 0.006654 0.000000 -0.003783 0.000000
# 4 0.000000 0.000000 0.000000 0.011630 0.000000 0.008735
# 5 0.001756 0.001864 -0.003783 0.000000 0.016570 0.000000
# 6 0.000000 0.000000 0.000000 0.008735 0.000000 0.037622
#
#
# Mechanical properties :
#
#
# Convention : Reuss Voigt Hill
#
# Bulk Modulus (GPa) = 186.38334 188.65269 187.51801
# Shear Modulus (GPa) = 50.24992 68.34086 59.29539
#
# Velocity S-wave (km/s) = 4.09958 4.78092 4.45330
# Velocity P-wave (km/s) = 9.20578 9.67331 9.44244
#
# Compressibility (1/GPa) = 0.00536529
#
# Stress axis : x y z
#
# Youngs Moduli (GPa) = 187.18775 150.78662 150.28109
#
# Poissons Ratio (x) = 0.34578 0.18137
# Poissons Ratio (y) = 0.42925 0.47060
# Poissons Ratio (z) = 0.22591 0.47219
#
# Static dielectric constant tensor:
#      x y z
#    x 2.523570 0.000000 -0.024350 
#    y 0.000000 2.199560 0.000000 
#    z -0.024350 0.000000 2.506660 
# 
# From -- ./inp_files/93875.got.cif
#   From: 2010.05.17/outbox.cif.g08.bks.cpg/sg15_47_cif.got.tgz:93875.got - 2010.06.03 18:47:42.
