data_PCOD9300690
_publ_section_title
;
Structure prediction by ZEFSAII (Michael W. Deem and Ramdas Pophale) SiO2 
 PCOD9300690
Probable space group: C 2/C
;
_chemical_formula_sum "Si O2"
_cell_formula_units_Z 56
_cell_length_a 16.188795
_cell_length_b 18.811783
_cell_length_c 13.587228
_cell_angle_alpha 90.000000
_cell_angle_beta 131.686286
_cell_angle_gamma 90.000000
_cell_volume 3090.139864
_symmetry_space_group_name_H-M "C 2/C"
_symmetry_group_IT_number 15
_symmetry_cell_setting 'monoclinic'
loop_
_space_group_symop_operation_xyz
x,y,z
-x,y,1/2-z
-x,-y,-z
x,-y,1/2+z
1/2+x,1/2+y,z
1/2-x,1/2+y,1/2-z
1/2-x,1/2-y,-z
1/2+x,1/2-y,1/2+z
loop_
_atom_site_type_symbol
_atom_site_label
_atom_site_fract_x
_atom_site_fract_y
_atom_site_fract_z
Si Si1 0.342594 0.309295 0.547227
Si Si2 0.519488 0.899891 0.651533
Si Si3 0.081863 0.802676 0.674721
Si Si4 0.737854 0.575936 0.232475
Si Si5 0.611580 0.954908 0.462483
Si Si6 0.733473 0.056702 0.857780
Si Si7 0.071767 0.352367 0.113520
O O1 0.250000 0.250000 0.500000
O O2 0.449437 0.290418 0.565883
O O3 0.388671 0.325635 0.691640
O O4 0.296407 0.378610 0.458112
O O5 0.500000 0.884753 0.750000
O O6 0.649262 0.898302 0.730669
O O7 0.459360 0.849192 0.525452
O O8 0.467818 0.977355 0.582773
O O9 0.145152 0.862920 0.663242
O O10 0.120958 0.722345 0.687323
O O11 0.787190 0.552695 0.379410
O O12 0.700755 0.508357 0.137962
O O13 0.654102 0.966058 0.385239
O O14 0.537955 0.883061 0.417130
O O15 0.661868 0.088852 0.712346
#
# Coordination Sequence:
#
# PCOD9300690 Si02
#       7
#     8   8   8   8   8   8   8
#     4  11  23  39  62  89 123 164 199 259 323 377
#     4  11  20  36  61  93 120 160 211 262 310 363
#     4  11  25  39  56  92 131 158 202 258 324 374
#     4  11  22  37  58  89 131 161 204 258 317 371
#     4  11  19  35  59  99 118 155 206 266 317 360
#     4  12  20  34  63  89 121 160 209 255 308 374
#     4  11  21  33  60  92 123 156 203 262 311 368
#
# _framework density 18.122156
#
# number of rings (size 3 to 8) (size 9 to 14) (size 15 to 20)
#    0.000    0.857    7.143    2.143    4.000    0.571 
#    0.000    0.714    0.000    0.000    0.000    0.000 
#    0.000    0.000    0.000    0.000    0.000    0.000 
#
# Total GULP energy -155954.710498 kJ/mol
# GULP energy per Si atom -5569.811089 kJ/mol
# Density = 1.808091 g / cm^3
# Si number density = 18.122156 Si / 1000 Ang^3
#
#
#
# Elastic Constant Matrix: (Units=GPa)
#
#
# Indices 1 2 3 4 5 6 
#
# 1 87.0388 39.8297 19.9862 0.0000 -0.7965 0.0000
# 2 39.8297 102.0002 19.4729 0.0000 6.8268 0.0000
# 3 19.9862 19.4729 64.0822 0.0000 -15.0820 0.0000
# 4 0.0000 0.0000 0.0000 35.8356 0.0000 2.3905
# 5 -0.7965 6.8268 -15.0820 0.0000 32.4452 0.0000
# 6 0.0000 0.0000 0.0000 2.3905 0.0000 31.7347
#
#
#
# Elastic Compliance Matrix: (Units=1/GPa)
#
#
# Indices 1 2 3 4 5 6 
#
# 1 0.014504 -0.005102 -0.002961 0.000000 0.000053 0.000000
# 2 -0.005102 0.012714 -0.003292 0.000000 -0.004331 0.000000
# 3 -0.002961 -0.003292 0.019846 0.000000 0.009845 0.000000
# 4 0.000000 0.000000 0.000000 0.028046 0.000000 -0.002113
# 5 0.000053 -0.004331 0.009845 0.000000 0.036310 0.000000
# 6 0.000000 0.000000 0.000000 -0.002113 0.000000 0.031670
#
#
# Mechanical properties :
#
#
# Convention : Reuss Voigt Hill
#
# Bulk Modulus (GPa) = 41.05819 45.74432 43.40125
# Shear Modulus (GPa) = 28.74918 31.59193 30.17055
#
# Velocity S-wave (km/s) = 3.98730 4.17979 4.08468
# Velocity P-wave (km/s) = 6.62598 6.97074 6.80054
#
# Compressibility (1/GPa) = 0.02435568
#
# Stress axis : x y z
#
# Youngs Moduli (GPa) = 68.94553 78.65096 50.38891
#
# Poissons Ratio (x) = 0.40128 0.14919
# Poissons Ratio (y) = 0.35176 0.16586
# Poissons Ratio (z) = 0.20413 0.25888
#
# Static dielectric constant tensor:
#      x y z
#    x 1.683870 0.000000 0.034560 
#    y 0.000000 1.691260 0.000000 
#    z 0.034560 0.000000 1.656460 
# 
# From -- ./inp_files/162305.got.cif
#   From: 2010.05.17/outbox.cif.g08.bks.cpg/sg15_82_cif.got.tgz:162305.got - 2010.06.03 18:47:42.
