data_PCOD9300204
_publ_section_title
;
Structure prediction by ZEFSAII (Michael W. Deem and Ramdas Pophale) SiO2 
 PCOD9300204
Probable space group: C 2/C
;
_chemical_formula_sum "Si O2"
_cell_formula_units_Z 56
_cell_length_a 5.511856
_cell_length_b 27.897843
_cell_length_c 18.003454
_cell_angle_alpha 90.000000
_cell_angle_beta 118.779382
_cell_angle_gamma 90.000000
_cell_volume 2426.421941
_symmetry_space_group_name_H-M "C 2/C"
_symmetry_group_IT_number 15
_symmetry_cell_setting 'monoclinic'
loop_
_space_group_symop_operation_xyz
x,y,z
-x,y,1/2-z
-x,-y,-z
x,-y,1/2+z
1/2+x,1/2+y,z
1/2-x,1/2+y,1/2-z
1/2-x,1/2-y,-z
1/2+x,1/2-y,1/2+z
loop_
_atom_site_type_symbol
_atom_site_label
_atom_site_fract_x
_atom_site_fract_y
_atom_site_fract_z
Si Si1 0.294441 0.588937 0.497134
Si Si2 0.956328 0.819931 0.655596
Si Si3 0.279257 0.226907 0.838268
Si Si4 0.630164 0.426437 0.900908
Si Si5 0.000000 0.998775 0.750000
Si Si6 0.390794 0.413191 0.308831
Si Si7 0.000000 0.332177 0.250000
Si Si8 0.834644 0.305434 0.505204
O O1 0.473041 0.565131 0.456576
O O2 0.406138 0.573843 0.594610
O O3 0.319712 0.646832 0.489668
O O4 0.964139 0.579082 0.452206
O O5 0.998119 0.875996 0.646489
O O6 0.646291 0.808686 0.582185
O O7 0.000000 0.811661 0.750000
O O8 0.155740 0.783017 0.641200
O O9 0.505399 0.205675 0.817174
O O10 0.299213 0.192354 0.911053
O O11 0.000000 0.222841 0.750000
O O12 0.580990 0.466046 0.830683
O O13 0.786191 0.037908 0.753697
O O14 0.500000 0.386944 0.250000
O O15 0.201039 0.372599 0.313865
O O16 0.750000 0.250000 0.500000
#
# Coordination Sequence:
#
# PCOD9300204 Si02
#       8
#     8   8   8   8   4   8   4   8
#     4  11  26  45  75 109 150 195 245 306 376 442
#     4  11  23  43  68 105 142 198 247 301 361 449
#     4  12  25  42  69 105 144 196 246 298 375 439
#     4  11  26  49  75 108 148 193 246 314 368 445
#     4  10  26  53  74 108 142 189 254 310 388 440
#     4  10  26  46  71 107 138 194 244 310 376 451
#     4  12  24  41  72  98 148 185 242 310 366 450
#     4  11  24  41  66 106 146 195 245 301 360 444
#
# _framework density 23.079252
#
# number of rings (size 3 to 8) (size 9 to 14) (size 15 to 20)
#    0.429    0.571    1.429    4.286    8.000    4.000 
#    0.000    0.000    0.000    0.000    0.000    0.000 
#    0.000    0.000    0.000    0.000    0.000    0.000 
#
# Total GULP energy -155916.101812 kJ/mol
# GULP energy per Si atom -5568.432208 kJ/mol
# Density = 2.302672 g / cm^3
# Si number density = 23.079252 Si / 1000 Ang^3
#
#
#
# Elastic Constant Matrix: (Units=GPa)
#
#
# Indices 1 2 3 4 5 6 
#
# 1 47.0651 13.8816 31.3564 0.0000 -13.2202 0.0000
# 2 13.8816 116.9882 26.8181 0.0000 -6.6099 0.0000
# 3 31.3564 26.8181 132.2343 0.0000 -9.3032 0.0000
# 4 0.0000 0.0000 0.0000 -38.4033 0.0000 73.4265
# 5 -13.2202 -6.6099 -9.3032 0.0000 30.6171 0.0000
# 6 0.0000 0.0000 0.0000 73.4265 0.0000 -74.6991
#
#
#
# Elastic Compliance Matrix: (Units=1/GPa)
#
#
# Indices 1 2 3 4 5 6 
#
# 1 0.028346 -0.001480 -0.005705 0.000000 0.010186 0.000000
# 2 -0.001480 0.009102 -0.001432 0.000000 0.000891 0.000000
# 3 -0.005705 -0.001432 0.009207 0.000000 0.000025 0.000000
# 4 0.000000 0.000000 0.000000 0.029610 0.000000 0.029106
# 5 0.010186 0.000891 0.000025 0.000000 0.037260 0.000000
# 6 0.000000 0.000000 0.000000 0.029106 0.000000 0.015223
#
#
# Mechanical properties :
#
#
# Convention : Reuss Voigt Hill
#
# Bulk Modulus (GPa) = 33.98954 48.93331 41.46143
# Shear Modulus (GPa) = 32.09463 -1.54829 15.27317
#
# Velocity S-wave (km/s) = 3.73316 -0.81995 2.57528
# Velocity P-wave (km/s) = 5.77419 4.51131 5.18137
#
# Compressibility (1/GPa) = 0.02942082
#
# Stress axis : x y z
#
# Youngs Moduli (GPa) = 35.27867 109.86385 108.60906
#
# Poissons Ratio (x) = 0.16262 0.61958
# Poissons Ratio (y) = 0.05222 0.15556
# Poissons Ratio (z) = 0.20125 0.15736
#
# Static dielectric constant tensor:
#      x y z
#    x 1.988830 0.000000 -0.105620 
#    y 0.000000 1.881970 0.000000 
#    z -0.105620 0.000000 1.850690 
# 
# From -- ./inp_files/186812.got.cif
#   From: 2010.05.17/outbox.cif.g08.bks.cpg/sg15_94_cif.got.tgz:186812.got - 2010.06.03 18:47:42.
