data_PCOD9300650
_publ_section_title
;
Structure prediction by ZEFSAII (Michael W. Deem and Ramdas Pophale) SiO2 
 PCOD9300650
Probable space group: C 2/C
;
_chemical_formula_sum "Si O2"
_cell_formula_units_Z 56
_cell_length_a 30.148836
_cell_length_b 13.886819
_cell_length_c 8.691198
_cell_angle_alpha 90.000000
_cell_angle_beta 126.752945
_cell_angle_gamma 90.000000
_cell_volume 2915.455435
_symmetry_space_group_name_H-M "C 2/C"
_symmetry_group_IT_number 15
_symmetry_cell_setting 'monoclinic'
loop_
_space_group_symop_operation_xyz
x,y,z
-x,y,1/2-z
-x,-y,-z
x,-y,1/2+z
1/2+x,1/2+y,z
1/2-x,1/2+y,1/2-z
1/2-x,1/2-y,-z
1/2+x,1/2-y,1/2+z
loop_
_atom_site_type_symbol
_atom_site_label
_atom_site_fract_x
_atom_site_fract_y
_atom_site_fract_z
Si Si1 0.320818 0.547253 0.483180
Si Si2 0.700285 0.941777 0.802061
Si Si3 0.184409 0.359508 0.098567
Si Si4 0.874088 0.102125 0.895001
Si Si5 0.195471 0.750897 0.115569
Si Si6 0.960397 0.950531 0.041514
Si Si7 0.641530 0.307780 0.682252
O O1 0.265877 0.549898 0.467314
O O2 0.367157 0.575768 0.701926
O O3 0.330992 0.446092 0.425342
O O4 0.322177 0.617866 0.341773
O O5 0.697346 0.861913 0.661256
O O6 0.683807 0.046855 0.707543
O O7 0.675669 0.899548 0.908128
O O8 0.244146 0.301278 0.228026
O O9 0.138460 0.284396 0.063887
O O10 0.854658 0.210124 0.878585
O O11 0.928880 0.043196 0.050932
O O12 0.174399 0.771704 0.899711
O O13 0.000000 0.903335 0.250000
O O14 0.913861 0.870929 0.897884
O O15 0.000000 0.000000 0.000000
#
# Coordination Sequence:
#
# PCOD9300650 Si02
#       7
#     8   8   8   8   8   8   8
#     4  11  19  33  51  82 116 164 200 239 293 357
#     4  12  23  35  55  83 124 168 208 238 286 362
#     4  12  24  37  54  85 124 166 207 243 296 368
#     4  11  21  34  57  82 119 156 200 252 305 358
#     4  12  22  36  57  85 121 165 204 243 297 369
#     4  11  23  41  62  90 117 155 206 261 314 361
#     4  11  24  37  58  83 119 161 201 256 313 358
#
# _framework density 19.207977
#
# number of rings (size 3 to 8) (size 9 to 14) (size 15 to 20)
#    0.000    0.571    4.286    6.857    2.000    0.000 
#    0.000    0.000    0.000    0.000    0.000   10.000 
#    0.000    0.000    0.000    0.000    0.000    0.000 
#
# Total GULP energy -156005.590439 kJ/mol
# GULP energy per Si atom -5571.628230 kJ/mol
# Density = 1.916426 g / cm^3
# Si number density = 19.207977 Si / 1000 Ang^3
#
#
#
# Elastic Constant Matrix: (Units=GPa)
#
#
# Indices 1 2 3 4 5 6 
#
# 1 75.5727 35.1738 17.2146 0.0000 -9.2540 0.0000
# 2 35.1738 106.4621 6.6596 0.0000 2.4628 0.0000
# 3 17.2146 6.6596 64.4838 0.0000 -11.9000 0.0000
# 4 0.0000 0.0000 0.0000 23.2703 0.0000 -8.1543
# 5 -9.2540 2.4628 -11.9000 0.0000 27.5440 0.0000
# 6 0.0000 0.0000 0.0000 -8.1543 0.0000 34.3756
#
#
#
# Elastic Compliance Matrix: (Units=1/GPa)
#
#
# Indices 1 2 3 4 5 6 
#
# 1 0.017137 -0.005582 -0.003090 0.000000 0.004922 0.000000
# 2 -0.005582 0.011321 -0.000230 0.000000 -0.002987 0.000000
# 3 -0.003090 -0.000230 0.017569 0.000000 0.006573 0.000000
# 4 0.000000 0.000000 0.000000 0.046869 0.000000 0.011118
# 5 0.004922 -0.002987 0.006573 0.000000 0.041066 0.000000
# 6 0.000000 0.000000 0.000000 0.011118 0.000000 0.031728
#
#
# Mechanical properties :
#
#
# Convention : Reuss Voigt Hill
#
# Bulk Modulus (GPa) = 35.43333 40.51271 37.97302
# Shear Modulus (GPa) = 25.91975 29.53602 27.72789
#
# Velocity S-wave (km/s) = 3.67744 3.92560 3.80354
# Velocity P-wave (km/s) = 6.04307 6.45635 6.25313
#
# Compressibility (1/GPa) = 0.02822202
#
# Stress axis : x y z
#
# Youngs Moduli (GPa) = 58.35297 88.33230 56.91686
#
# Poissons Ratio (x) = 0.49311 0.17588
# Poissons Ratio (y) = 0.32575 0.01310
# Poissons Ratio (z) = 0.18032 0.02033
#
# Static dielectric constant tensor:
#      x y z
#    x 1.706790 0.000000 -0.030220 
#    y 0.000000 1.748890 0.000000 
#    z -0.030220 0.000000 1.767180 
# 
# From -- ./inp_files/69779.got.cif
#   From: 2010.05.17/outbox.cif.g08.bks.cpg/sg15_35_cif.got.tgz:69779.got - 2010.06.03 18:47:42.
