data_PCOD9300439
_publ_section_title
;
Structure prediction by ZEFSAII (Michael W. Deem and Ramdas Pophale) SiO2 
 PCOD9300439
Probable space group: C 2/C
;
_chemical_formula_sum "Si O2"
_cell_formula_units_Z 48
_cell_length_a 17.791333
_cell_length_b 17.866398
_cell_length_c 20.991797
_cell_angle_alpha 90.000000
_cell_angle_beta 18.492912
_cell_angle_gamma 90.000000
_cell_volume 2116.464326
_symmetry_space_group_name_H-M "C 2/C"
_symmetry_group_IT_number 15
_symmetry_cell_setting 'monoclinic'
loop_
_space_group_symop_operation_xyz
x,y,z
-x,y,1/2-z
-x,-y,-z
x,-y,1/2+z
1/2+x,1/2+y,z
1/2-x,1/2+y,1/2-z
1/2-x,1/2-y,-z
1/2+x,1/2-y,1/2+z
loop_
_atom_site_type_symbol
_atom_site_label
_atom_site_fract_x
_atom_site_fract_y
_atom_site_fract_z
Si Si1 0.821092 0.587671 0.237935
Si Si2 0.000000 0.552813 0.750000
Si Si3 0.598436 0.070134 0.534229
Si Si4 0.850523 0.818746 0.504320
Si Si5 0.187004 0.635198 0.842796
Si Si6 0.500000 0.311723 0.250000
Si Si7 0.475836 0.479977 0.632627
O O1 0.962003 0.510128 0.137671
O O2 0.767627 0.631204 0.345910
O O3 0.593611 0.567194 0.375705
O O4 0.998511 0.633720 0.050509
O O5 0.091057 0.593170 0.613213
O O6 0.246592 0.513831 0.574730
O O7 0.451444 0.128494 0.610943
O O8 0.843115 0.056310 0.300096
O O9 0.700544 0.744891 0.613113
O O10 0.892010 0.852702 0.398703
O O11 0.115878 0.801977 0.314326
O O12 0.342615 0.558691 0.726848
#
# Coordination Sequence:
#
# PCOD9300439 Si02
#       7
#     8   4   8   8   8   4   8
#     4   9  19  36  59  73 104 149 190 228 280 338
#     4  12  18  25  46  72 116 154 160 205 270 318
#     4   9  19  34  49  83 112 140 183 234 266 342
#     4  11  22  41  54  74 104 153 185 236 294 313
#     4   9  19  36  58  73 105 147 191 227 279 336
#     4  10  28  41  50  78 124 136 196 267 264 308
#     4   9  19  34  49  84 114 138 184 233 268 343
#
# _framework density 22.679333
#
# number of rings (size 3 to 8) (size 9 to 14) (size 15 to 20)
#    0.000    2.333    0.000    4.500    4.667    5.333 
#    6.000    0.000    0.000    0.000    0.000    0.000 
#    0.000   21.333    0.000    1.333    0.000    0.000 
#
# Total GULP energy -133904.471996 kJ/mol
# GULP energy per Si atom -5579.353000 kJ/mol
# Density = 2.262771 g / cm^3
# Si number density = 22.679333 Si / 1000 Ang^3
#
#
#
# Elastic Constant Matrix: (Units=GPa)
#
#
# Indices 1 2 3 4 5 6 
#
# 1 152.8320 44.1554 82.9262 0.3187 27.5565 -0.3642
# 2 44.1554 40.4342 26.5765 0.1795 2.0553 -0.2610
# 3 82.9262 26.5765 147.3528 0.3173 -0.0237 -0.5680
# 4 0.3187 0.1795 0.3173 12.4330 -0.1930 17.3720
# 5 27.5565 2.0553 -0.0237 -0.1930 57.0341 0.2671
# 6 -0.3642 -0.2610 -0.5680 17.3720 0.2671 8.7729
#
#
#
# Elastic Compliance Matrix: (Units=1/GPa)
#
#
# Indices 1 2 3 4 5 6 
#
# 1 0.014190 -0.011254 -0.005958 0.000136 -0.006451 -0.000204
# 2 -0.011254 0.037036 -0.000349 0.000483 0.004106 -0.000470
# 3 -0.005958 -0.000349 0.010201 0.000281 0.002898 -0.000243
# 4 0.000136 0.000483 0.000281 -0.045461 -0.000659 0.090080
# 5 -0.006451 0.004106 0.002898 -0.000659 0.020498 0.000722
# 6 -0.000204 -0.000470 -0.000243 0.090080 0.000722 -0.064449
#
#
# Mechanical properties :
#
#
# Convention : Reuss Voigt Hill
#
# Bulk Modulus (GPa) = 38.01362 71.99279 55.00321
# Shear Modulus (GPa) = 314.37219 28.11206 171.24213
#
# Velocity S-wave (km/s) = 11.78631 3.52454 8.69883
# Velocity P-wave (km/s) = 14.21339 6.95527 11.18920
#
# Compressibility (1/GPa) = 0.02630636
#
# Stress axis : x y z
#
# Youngs Moduli (GPa) = 70.47364 27.00067 98.02687
#
# Poissons Ratio (x) = 0.30385 0.58405
# Poissons Ratio (y) = 0.79308 0.03419
# Poissons Ratio (z) = 0.41988 0.00942
#
# Static dielectric constant tensor:
#      x y z
#    x 1.904270 0.000010 0.000860 
#    y 0.000010 1.889350 0.000110 
#    z 0.000860 0.000110 1.919020 
# 
# From -- ./inp_files/249973.got.cif
#   From: 2010.05.17/outbox.cif.g08.bks.cpg/sg15_125_cif.got.tgz:249973.got - 2010.06.03 18:47:42.
