data_PCOD9300865
_publ_section_title
;
Structure prediction by ZEFSAII (Michael W. Deem and Ramdas Pophale) SiO2 
 PCOD9300865
Probable space group: C 2/C
;
_chemical_formula_sum "Si O2"
_cell_formula_units_Z 48
_cell_length_a 19.706559
_cell_length_b 8.177611
_cell_length_c 20.139594
_cell_angle_alpha 90.000000
_cell_angle_beta 125.830257
_cell_angle_gamma 90.000000
_cell_volume 2631.343134
_symmetry_space_group_name_H-M "C 2/C"
_symmetry_group_IT_number 15
_symmetry_cell_setting 'monoclinic'
loop_
_space_group_symop_operation_xyz
x,y,z
-x,y,1/2-z
-x,-y,-z
x,-y,1/2+z
1/2+x,1/2+y,z
1/2-x,1/2+y,1/2-z
1/2-x,1/2-y,-z
1/2+x,1/2-y,1/2+z
loop_
_atom_site_type_symbol
_atom_site_label
_atom_site_fract_x
_atom_site_fract_y
_atom_site_fract_z
Si Si1 0.836423 0.745726 0.305243
Si Si2 0.494425 0.142079 0.168504
Si Si3 0.833744 0.768449 0.005535
Si Si4 0.498103 0.875222 0.062817
Si Si5 0.179185 0.613241 0.640173
Si Si6 0.406829 0.434591 0.465236
O O1 0.920896 0.722909 0.311078
O O2 0.820409 0.573299 0.333624
O O3 0.759175 0.795040 0.215142
O O4 0.855394 0.884175 0.370578
O O5 0.500000 0.122617 0.250000
O O6 0.486062 0.973689 0.123197
O O7 0.413213 0.240847 0.098436
O O8 0.826839 0.634997 0.942400
O O9 0.854480 0.937981 0.979216
O O10 0.750000 0.750000 0.000000
O O11 0.592788 0.807400 0.117313
O O12 0.429826 0.736386 0.013991
O O13 0.500000 0.000000 0.000000
O O14 0.500000 0.500000 0.500000
#
# Coordination Sequence:
#
# PCOD9300865 Si02
#       6
#     8   8   8   8   8   8
#     4  11  22  37  64  95 120 169 222 268 315 400
#     4  11  22  41  62  89 132 169 206 268 343 382
#     4  12  24  40  61  93 130 166 211 272 336 390
#     4  11  19  42  68  90 120 174 225 265 323 402
#     4  11  21  38  61  93 127 161 220 270 314 392
#     4  12  20  40  70  92 118 176 225 264 329 407
#
# _framework density 18.241634000000001
#
# number of rings (size 3 to 8) (size 9 to 14) (size 15 to 20)
#    0.000    0.667    8.333    2.000    0.000    1.333 
#    0.000    7.500    0.000    0.000    0.000    0.000 
#    0.000    0.000    0.000    0.000    0.000    0.000 
#
# Total GULP energy -133981.336914 kJ/mol
# GULP energy per Si atom -5582.555705 kJ/mol
# Density = 1.820012 g / cm^3
# Si number density = 18.241634 Si / 1000 Ang^3
#
#
#
# Elastic Constant Matrix: (Units=GPa)
#
#
# Indices 1 2 3 4 5 6 
#
# 1 128.8356 59.2333 56.3868 0.0000 -5.4348 0.0000
# 2 59.2333 74.8368 47.5555 0.0000 -9.8716 0.0000
# 3 56.3868 47.5555 153.9431 0.0000 -6.8225 0.0000
# 4 0.0000 0.0000 0.0000 36.6863 0.0000 2.6414
# 5 -5.4348 -9.8716 -6.8225 0.0000 43.8356 0.0000
# 6 0.0000 0.0000 0.0000 2.6414 0.0000 24.6232
#
#
#
# Elastic Compliance Matrix: (Units=1/GPa)
#
#
# Indices 1 2 3 4 5 6 
#
# 1 0.012663 -0.008898 -0.001922 0.000000 -0.000733 0.000000
# 2 -0.008898 0.023271 -0.003772 0.000000 0.003550 0.000000
# 3 -0.001922 -0.003772 0.008375 0.000000 0.000216 0.000000
# 4 0.000000 0.000000 0.000000 0.027470 0.000000 -0.002947
# 5 -0.000733 0.003550 0.000216 0.000000 0.023555 0.000000
# 6 0.000000 0.000000 0.000000 -0.002947 0.000000 0.040928
#
#
# Mechanical properties :
#
#
# Convention : Reuss Voigt Hill
#
# Bulk Modulus (GPa) = 66.12030 75.99627 71.05828
# Shear Modulus (GPa) = 29.32767 33.99167 31.65967
#
# Velocity S-wave (km/s) = 4.01400 4.32141 4.17054
# Velocity P-wave (km/s) = 7.60320 8.16399 7.88858
#
# Compressibility (1/GPa) = 0.01512395
#
# Stress axis : x y z
#
# Youngs Moduli (GPa) = 78.96949 42.97265 119.40721
#
# Poissons Ratio (x) = 0.38238 0.22950
# Poissons Ratio (y) = 0.70269 0.45041
# Poissons Ratio (z) = 0.15178 0.16210
#
# Static dielectric constant tensor:
#      x y z
#    x 1.621020 0.000000 0.020750 
#    y 0.000000 1.676050 0.000000 
#    z 0.020750 0.000000 1.621280 
# 
# From -- ./inp_files/209265.got.cif
#   From: 2010.05.17/outbox.cif.g08.bks.cpg/sg15_105_cif.got.tgz:209265.got - 2010.06.03 18:47:42.
