data_PCOD9300121
_publ_section_title
;
Structure prediction by ZEFSAII (Michael W. Deem and Ramdas Pophale) SiO2 
 PCOD9300121
Probable space group: C 2/C
;
_chemical_formula_sum "Si O2"
_cell_formula_units_Z 36
_cell_length_a 18.471308
_cell_length_b 5.017927
_cell_length_c 14.611394
_cell_angle_alpha 90.000000
_cell_angle_beta 65.300985
_cell_angle_gamma 90.000000
_cell_volume 1230.398847
_symmetry_space_group_name_H-M "C 2/C"
_symmetry_group_IT_number 15
_symmetry_cell_setting 'monoclinic'
loop_
_space_group_symop_operation_xyz
x,y,z
-x,y,1/2-z
-x,-y,-z
x,-y,1/2+z
1/2+x,1/2+y,z
1/2-x,1/2+y,1/2-z
1/2-x,1/2-y,-z
1/2+x,1/2-y,1/2+z
loop_
_atom_site_type_symbol
_atom_site_label
_atom_site_fract_x
_atom_site_fract_y
_atom_site_fract_z
Si Si1 0.422506 0.045860 0.735511
Si Si2 0.170031 0.036535 0.736411
Si Si3 0.000000 0.500000 0.000000
Si Si4 0.612154 0.547115 0.473699
Si Si5 0.804887 0.558386 0.033170
O O1 0.500000 0.968384 0.750000
O O2 0.353066 0.831256 0.781147
O O3 0.445087 0.059062 0.618069
O O4 0.390137 0.332708 0.781837
O O5 0.153389 0.987198 0.852144
O O6 0.256893 0.963088 0.653924
O O7 0.969206 0.206372 0.971756
O O8 0.612033 0.231852 0.503237
O O9 0.670070 0.753847 0.498900
O O10 0.750000 0.750000 0.000000
#
# Coordination Sequence:
#
# PCOD9300121 Si02
#       5
#     8   8   4   8   8
#     4  11  25  43  71 101 144 187 234 303 352 447
#     4  11  24  45  67 101 134 187 240 288 370 417
#     4  10  26  44  74 104 144 190 240 288 382 418
#     4  11  24  45  68  99 140 183 232 295 348 443
#     4  12  26  41  71 101 139 182 234 295 355 426
#
# _framework density 29.258804999999999
#
# number of rings (size 3 to 8) (size 9 to 14) (size 15 to 20)
#    0.000    0.889    0.000    6.667    6.222    8.000 
#    0.000    0.000    0.000    0.000    0.000    0.000 
#    0.000    0.000    0.000    0.000    0.000    0.000 
#
# Total GULP energy -100610.263627 kJ/mol
# GULP energy per Si atom -5589.459090 kJ/mol
# Density = 2.919221 g / cm^3
# Si number density = 29.258805 Si / 1000 Ang^3
#
#
#
# Elastic Constant Matrix: (Units=GPa)
#
#
# Indices 1 2 3 4 5 6 
#
# 1 63.7211 -4.9741 -31.7544 -0.0014 -8.1828 0.0023
# 2 -4.9741 187.5919 -12.0850 -0.0053 -6.0282 0.0074
# 3 -31.7544 -12.0850 119.5342 0.0008 -11.4732 0.0010
# 4 -0.0014 -0.0053 0.0008 26.9606 -0.0006 -26.7791
# 5 -8.1828 -6.0282 -11.4732 -0.0006 49.3455 -0.0003
# 6 0.0023 0.0074 0.0010 -26.7791 -0.0003 54.7280
#
#
#
# Elastic Compliance Matrix: (Units=1/GPa)
#
#
# Indices 1 2 3 4 5 6 
#
# 1 0.019177 0.001020 0.005640 0.000000 0.004616 -0.000001
# 2 0.001020 0.005451 0.000923 0.000001 0.001050 0.000000
# 3 0.005640 0.000923 0.010288 -0.000001 0.003440 -0.000001
# 4 0.000000 0.000001 -0.000001 0.072164 0.000001 0.035311
# 5 0.004616 0.001050 0.003440 0.000001 0.021959 0.000000
# 6 -0.000001 0.000000 -0.000001 0.035311 0.000000 0.035550
#
#
# Mechanical properties :
#
#
# Convention : Reuss Voigt Hill
#
# Bulk Modulus (GPa) = 19.96711 30.35782 25.16247
# Shear Modulus (GPa) = 30.09951 54.18419 42.14185
#
# Velocity S-wave (km/s) = 3.21087 4.30803 3.79926
# Velocity P-wave (km/s) = 4.53711 5.92821 5.27868
#
# Compressibility (1/GPa) = 0.05008236
#
# Stress axis : x y z
#
# Youngs Moduli (GPa) = 52.14675 183.45418 97.20352
#
# Poissons Ratio (x) = -0.18716 -0.54828
# Poissons Ratio (y) = -0.05320 -0.08970
# Poissons Ratio (z) = -0.29413 -0.16930
#
# Static dielectric constant tensor:
#      x y z
#    x 2.152570 0.000000 0.085640 
#    y 0.000000 2.372580 0.000000 
#    z 0.085640 0.000000 2.178620 
# 
# From -- ./inp_files/207929.got.cif
#   From: 2010.05.17/outbox.cif.g08.bks.cpg/sg15_104_cif.got.tgz:207929.got - 2010.06.03 18:47:42.
