data_PCOD9300215
_publ_section_title
;
Structure prediction by ZEFSAII (Michael W. Deem and Ramdas Pophale) SiO2 
 PCOD9300215
Probable space group: C 2/C
;
_chemical_formula_sum "Si O2"
_cell_formula_units_Z 60
_cell_length_a 31.036967
_cell_length_b 11.848768
_cell_length_c 8.111682
_cell_angle_alpha 90.000000
_cell_angle_beta 112.200162
_cell_angle_gamma 90.000000
_cell_volume 2761.933215
_symmetry_space_group_name_H-M "C 2/C"
_symmetry_group_IT_number 15
_symmetry_cell_setting 'monoclinic'
loop_
_space_group_symop_operation_xyz
x,y,z
-x,y,1/2-z
-x,-y,-z
x,-y,1/2+z
1/2+x,1/2+y,z
1/2-x,1/2+y,1/2-z
1/2-x,1/2-y,-z
1/2+x,1/2-y,1/2+z
loop_
_atom_site_type_symbol
_atom_site_label
_atom_site_fract_x
_atom_site_fract_y
_atom_site_fract_z
Si Si1 0.520668 0.116022 0.097506
Si Si2 0.628440 0.865794 0.691550
Si Si3 0.861674 0.026653 0.302115
Si Si4 0.736085 0.443732 0.454934
Si Si5 0.827519 0.782924 0.953478
Si Si6 0.500000 0.271082 0.750000
Si Si7 0.899491 0.158720 0.053841
Si Si8 0.697040 0.919669 0.244671
O O1 0.500000 0.141103 0.250000
O O2 0.576840 0.104215 0.182524
O O3 0.507046 0.202140 0.931229
O O4 0.500000 0.000000 0.000000
O O5 0.619456 0.782464 0.523587
O O6 0.660111 0.976408 0.697908
O O7 0.652741 0.788920 0.865746
O O8 0.861521 0.115223 0.451864
O O9 0.870265 0.096896 0.150778
O O10 0.810105 0.975108 0.210334
O O11 0.895543 0.923159 0.389775
O O12 0.719955 0.348258 0.561498
O O13 0.775657 0.406127 0.387667
O O14 0.761261 0.550855 0.572667
O O15 0.825748 0.702879 0.788979
O O16 0.548104 0.336589 0.806672
#
# Coordination Sequence:
#
# PCOD9300215 Si02
#       8
#     8   8   8   8   8   4   8   8
#     4  11  25  46  76 106 150 195 240 305 379 448
#     4  11  27  46  71 106 144 184 242 302 366 442
#     4  12  24  44  74  97 140 193 237 295 368 423
#     4  12  24  45  64 102 136 191 238 291 358 419
#     4  12  26  45  69  98 143 189 239 297 354 443
#     4  10  26  46  72 114 144 184 252 308 368 464
#     4  11  24  47  72 103 141 185 240 302 369 441
#     4  12  27  41  69 101 142 185 240 300 356 427
#
# _framework density 21.723911999999999
#
# number of rings (size 3 to 8) (size 9 to 14) (size 15 to 20)
#    0.000    0.533    6.000    0.400    5.600    1.067 
#    0.000    0.000    0.000    0.000    0.000    0.000 
#    0.000    0.000    0.000    0.000    0.000    0.000 
#
# Total GULP energy -167433.393231 kJ/mol
# GULP energy per Si atom -5581.113108 kJ/mol
# Density = 2.167447 g / cm^3
# Si number density = 21.723912 Si / 1000 Ang^3
#
#
#
# Elastic Constant Matrix: (Units=GPa)
#
#
# Indices 1 2 3 4 5 6 
#
# 1 83.0350 32.6844 21.0348 0.0000 14.0482 0.0000
# 2 32.6844 93.4715 13.2771 0.0000 7.5344 0.0000
# 3 21.0348 13.2771 67.0104 0.0000 12.3425 0.0000
# 4 0.0000 0.0000 0.0000 35.9926 0.0000 3.2001
# 5 14.0482 7.5344 12.3425 0.0000 47.0314 0.0000
# 6 0.0000 0.0000 0.0000 3.2001 0.0000 6.1931
#
#
#
# Elastic Compliance Matrix: (Units=1/GPa)
#
#
# Indices 1 2 3 4 5 6 
#
# 1 0.015191 -0.004605 -0.003317 0.000000 -0.002930 0.000000
# 2 -0.004605 0.012475 -0.000958 0.000000 -0.000372 0.000000
# 3 -0.003317 -0.000958 0.016753 0.000000 -0.003252 0.000000
# 4 0.000000 0.000000 0.000000 0.029121 0.000000 -0.015047
# 5 -0.002930 -0.000372 -0.003252 0.000000 0.023051 0.000000
# 6 0.000000 0.000000 0.000000 -0.015047 0.000000 0.169245
#
#
# Mechanical properties :
#
#
# Convention : Reuss Voigt Hill
#
# Bulk Modulus (GPa) = 37.50846 41.94549 39.72697
# Shear Modulus (GPa) = 17.09509 29.61146 23.35328
#
# Velocity S-wave (km/s) = 2.80826 3.69600 3.28228
# Velocity P-wave (km/s) = 5.27433 6.12897 5.71764
#
# Compressibility (1/GPa) = 0.02666065
#
# Stress axis : x y z
#
# Youngs Moduli (GPa) = 65.82633 80.16277 59.69083
#
# Poissons Ratio (x) = 0.36913 0.19798
# Poissons Ratio (y) = 0.30312 0.05717
# Poissons Ratio (z) = 0.21833 0.07678
#
# Static dielectric constant tensor:
#      x y z
#    x 1.821170 0.000000 -0.070330 
#    y 0.000000 1.926020 0.000000 
#    z -0.070330 0.000000 1.875200 
# 
# From -- ./inp_files/69409.got.cif
#   From: 2010.05.17/outbox.cif.g08.bks.cpg/sg15_35_cif.got.tgz:69409.got - 2010.06.03 18:47:42.
