data_PCOD9300602
_publ_section_title
;
Structure prediction by ZEFSAII (Michael W. Deem and Ramdas Pophale) SiO2 
 PCOD9300602
Probable space group: C 2/C
;
_chemical_formula_sum "Si O2"
_cell_formula_units_Z 60
_cell_length_a 25.911730
_cell_length_b 12.177532
_cell_length_c 11.941282
_cell_angle_alpha 90.000000
_cell_angle_beta 130.743479
_cell_angle_gamma 90.000000
_cell_volume 2854.756837
_symmetry_space_group_name_H-M "C 2/C"
_symmetry_group_IT_number 15
_symmetry_cell_setting 'monoclinic'
loop_
_space_group_symop_operation_xyz
x,y,z
-x,y,1/2-z
-x,-y,-z
x,-y,1/2+z
1/2+x,1/2+y,z
1/2-x,1/2+y,1/2-z
1/2-x,1/2-y,-z
1/2+x,1/2-y,1/2+z
loop_
_atom_site_type_symbol
_atom_site_label
_atom_site_fract_x
_atom_site_fract_y
_atom_site_fract_z
Si Si1 0.909717 0.532598 0.815835
Si Si2 0.411507 0.209582 0.427152
Si Si3 0.258030 0.218767 0.263250
Si Si4 0.000000 0.627347 0.750000
Si Si5 0.291979 0.944604 0.987456
Si Si6 0.063974 0.207518 0.768477
Si Si7 0.630024 0.124711 0.528434
Si Si8 0.713638 0.633516 0.985977
O O1 0.906923 0.410233 0.860739
O O2 0.837688 0.568921 0.661817
O O3 0.920093 0.609542 0.938281
O O4 0.962421 0.554767 0.791049
O O5 0.334735 0.254645 0.338698
O O6 0.448890 0.197949 0.599469
O O7 0.448572 0.277658 0.381440
O O8 0.196383 0.303590 0.156924
O O9 0.263143 0.164618 0.392105
O O10 0.240206 0.121573 0.150013
O O11 0.342082 0.006685 0.970943
O O12 0.237500 0.036381 0.941367
O O13 0.132855 0.137773 0.873328
O O14 0.000000 0.168365 0.750000
O O15 0.090710 0.318133 0.870332
O O16 0.750000 0.750000 0.000000
#
# Coordination Sequence:
#
# PCOD9300602 Si02
#       8
#     8   8   8   4   8   8   8   8
#     4  12  22  36  55  81 121 159 193 232 291 356
#     4  12  21  37  53  82 121 158 191 236 286 362
#     4  11  21  36  60  86 116 152 202 244 290 346
#     4  12  26  34  48  80 126 164 184 224 300 364
#     4  12  19  37  59  88 117 155 196 242 293 346
#     4  11  22  36  62  89 114 153 203 241 292 349
#     4  11  21  38  58  86 120 151 195 251 293 345
#     4  11  18  38  62  84 116 158 197 250 287 342
#
# _framework density 21.017551000000001
#
# number of rings (size 3 to 8) (size 9 to 14) (size 15 to 20)
#    0.000    0.533    9.333    1.200    0.933    0.533 
#    0.000    0.000    0.000    3.200    1.733    0.000 
#    0.000    0.000    0.000    0.000    0.000    0.000 
#
# Total GULP energy -167467.983398 kJ/mol
# GULP energy per Si atom -5582.266113 kJ/mol
# Density = 2.096971 g / cm^3
# Si number density = 21.017551 Si / 1000 Ang^3
#
#
#
# Elastic Constant Matrix: (Units=GPa)
#
#
# Indices 1 2 3 4 5 6 
#
# 1 138.6796 9.8574 24.9381 0.0000 -0.2416 0.0000
# 2 9.8574 8.6613 5.1717 0.0000 -2.3182 0.0000
# 3 24.9381 5.1717 115.8834 0.0000 -6.7544 0.0000
# 4 0.0000 0.0000 0.0000 27.6609 0.0000 -2.6407
# 5 -0.2416 -2.3182 -6.7544 0.0000 41.3586 0.0000
# 6 0.0000 0.0000 0.0000 -2.6407 0.0000 12.6264
#
#
#
# Elastic Compliance Matrix: (Units=1/GPa)
#
#
# Indices 1 2 3 4 5 6 
#
# 1 0.008066 -0.008524 -0.001394 0.000000 -0.000658 0.000000
# 2 -0.008524 0.129039 -0.003539 0.000000 0.006605 0.000000
# 3 -0.001394 -0.003539 0.009162 0.000000 0.001290 0.000000
# 4 0.000000 0.000000 0.000000 0.036889 0.000000 0.007715
# 5 -0.000658 0.006605 0.001290 0.000000 0.024756 0.000000
# 6 0.000000 0.000000 0.000000 0.007715 0.000000 0.080812
#
#
# Mechanical properties :
#
#
# Convention : Reuss Voigt Hill
#
# Bulk Modulus (GPa) = 8.37852 38.12873 23.25362
# Shear Modulus (GPa) = 14.06773 31.21299 22.64036
#
# Velocity S-wave (km/s) = 2.58995 3.85787 3.28565
# Velocity P-wave (km/s) = 3.59707 6.16644 5.04796
#
# Compressibility (1/GPa) = 0.11935287
#
# Stress axis : x y z
#
# Youngs Moduli (GPa) = 123.97321 7.74960 109.14107
#
# Poissons Ratio (x) = 0.06606 0.15212
# Poissons Ratio (y) = 1.05676 0.38630
# Poissons Ratio (z) = 0.17280 0.02743
#
# Static dielectric constant tensor:
#      x y z
#    x 1.842190 0.000000 -0.014270 
#    y 0.000000 1.743370 0.000000 
#    z -0.014270 0.000000 1.807220 
# 
# From -- ./inp_files/118792.got.cif
#   From: 2010.05.17/outbox.cif.g08.bks.cpg/sg15_60_cif.got.tgz:118792.got - 2010.06.03 18:47:42.
