data_PCOD9300976
_publ_section_title
;
Structure prediction by ZEFSAII (Michael W. Deem and Ramdas Pophale) SiO2 
 PCOD9300976
Probable space group: C 2/C
;
_chemical_formula_sum "Si O2"
_cell_formula_units_Z 64
_cell_length_a 22.946355
_cell_length_b 28.394428
_cell_length_c 11.819575
_cell_angle_alpha 90.000000
_cell_angle_beta 156.253112
_cell_angle_gamma 90.000000
_cell_volume 3101.180611
_symmetry_space_group_name_H-M "C 2/C"
_symmetry_group_IT_number 15
_symmetry_cell_setting 'monoclinic'
loop_
_space_group_symop_operation_xyz
x,y,z
-x,y,1/2-z
-x,-y,-z
x,-y,1/2+z
1/2+x,1/2+y,z
1/2-x,1/2+y,1/2-z
1/2-x,1/2-y,-z
1/2+x,1/2-y,1/2+z
loop_
_atom_site_type_symbol
_atom_site_label
_atom_site_fract_x
_atom_site_fract_y
_atom_site_fract_z
Si Si1 0.951317 0.776861 0.542219
Si Si2 0.417379 0.813461 0.330232
Si Si3 0.665196 0.992543 0.530620
Si Si4 0.188055 0.634241 0.283967
Si Si5 0.289110 0.116278 0.424938
Si Si6 0.161225 0.476874 0.778791
Si Si7 0.504451 0.663176 0.921936
Si Si8 0.641969 0.758575 0.065858
O O1 0.969634 0.817554 0.483839
O O2 0.786347 0.758090 0.249359
O O3 0.051293 0.732178 0.690162
O O4 0.000000 0.794126 0.750000
O O5 0.573060 0.833667 0.644147
O O6 0.330634 0.793658 0.281669
O O7 0.340674 0.854140 0.123577
O O8 0.500000 0.010477 0.250000
O O9 0.661224 0.937188 0.492209
O O10 0.723911 0.995109 0.766473
O O11 0.727957 0.013863 0.523823
O O12 0.155229 0.639608 0.092164
O O13 0.161876 0.579583 0.266096
O O14 0.352616 0.649544 0.596793
O O15 0.115326 0.120131 0.114579
O O16 0.000000 0.500000 0.500000
O O17 0.590272 0.707550 0.019295
O O18 0.500000 0.776544 0.750000
#
# Coordination Sequence:
#
# PCOD9300976 Si02
#       8
#     8   8   8   8   8   8   8   8
#     4  11  22  37  54  77 114 153 193 239 284 333
#     4  11  21  34  56  81 105 146 196 235 278 331
#     4   9  18  34  57  84 112 141 182 236 289 344
#     4  11  21  36  59  85 112 143 187 236 281 340
#     4  11  20  35  59  84 109 143 190 237 277 335
#     4   9  18  35  58  84 111 141 181 231 288 346
#     4  11  23  37  55  81 113 151 191 233 286 337
#     4  11  22  36  53  76 112 151 188 235 286 334
#
# _framework density 20.637301999999998
#
# number of rings (size 3 to 8) (size 9 to 14) (size 15 to 20)
#    0.000    1.500    0.000    8.250    0.000    4.000 
#    0.000   10.000    0.000    0.000    0.000    0.000 
#    0.000    0.000    0.000    0.000    0.000    0.000 
#
# Total GULP energy -178536.000729 kJ/mol
# GULP energy per Si atom -5579.250023 kJ/mol
# Density = 2.059033 g / cm^3
# Si number density = 20.637302 Si / 1000 Ang^3
#
#
#
# Elastic Constant Matrix: (Units=GPa)
#
#
# Indices 1 2 3 4 5 6 
#
# 1 110.5320 28.6529 13.9547 0.0000 -24.5838 0.0000
# 2 28.6529 52.8946 3.0347 0.0000 -6.4016 0.0000
# 3 13.9547 3.0347 64.6088 0.0000 2.7979 0.0000
# 4 0.0000 0.0000 0.0000 14.6569 0.0000 -2.9958
# 5 -24.5838 -6.4016 2.7979 0.0000 29.9460 0.0000
# 6 0.0000 0.0000 0.0000 -2.9958 0.0000 32.0582
#
#
#
# Elastic Compliance Matrix: (Units=1/GPa)
#
#
# Indices 1 2 3 4 5 6 
#
# 1 0.013089 -0.005733 -0.002982 0.000000 0.009798 0.000000
# 2 -0.005733 0.021997 0.000206 0.000000 -0.000024 0.000000
# 3 -0.002982 0.000206 0.016282 0.000000 -0.003925 0.000000
# 4 0.000000 0.000000 0.000000 0.069556 0.000000 0.006500
# 5 0.009798 -0.000024 -0.003925 0.000000 0.041799 0.000000
# 6 0.000000 0.000000 0.000000 0.006500 0.000000 0.031801
#
#
# Mechanical properties :
#
#
# Convention : Reuss Voigt Hill
#
# Bulk Modulus (GPa) = 29.11272 35.47997 32.29635
# Shear Modulus (GPa) = 22.42233 27.49175 24.95704
#
# Velocity S-wave (km/s) = 3.29978 3.65381 3.48130
# Velocity P-wave (km/s) = 5.35309 5.91861 5.64293
#
# Compressibility (1/GPa) = 0.03434924
#
# Stress axis : x y z
#
# Youngs Moduli (GPa) = 76.39884 45.46153 61.41688
#
# Poissons Ratio (x) = 0.26065 0.18315
# Poissons Ratio (y) = 0.43803 -0.01266
# Poissons Ratio (z) = 0.22783 -0.00937
#
# Static dielectric constant tensor:
#      x y z
#    x 1.793060 0.000000 -0.037780 
#    y 0.000000 1.694690 0.000000 
#    z -0.037780 0.000000 1.797710 
# 
# From -- ./inp_files/115026.got.cif
#   From: 2010.05.17/outbox.cif.g08.bks.cpg/sg15_58_cif.got.tgz:115026.got - 2010.06.03 18:47:42.
