data_PCOD9300564
_publ_section_title
;
Structure prediction by ZEFSAII (Michael W. Deem and Ramdas Pophale) SiO2 
 PCOD9300564
Probable space group: C 2/C
;
_chemical_formula_sum "Si O2"
_cell_formula_units_Z 64
_cell_length_a 20.682981
_cell_length_b 11.732036
_cell_length_c 22.079350
_cell_angle_alpha 90.000000
_cell_angle_beta 39.185201
_cell_angle_gamma 90.000000
_cell_volume 3385.107320
_symmetry_space_group_name_H-M "C 2/C"
_symmetry_group_IT_number 15
_symmetry_cell_setting 'monoclinic'
loop_
_space_group_symop_operation_xyz
x,y,z
-x,y,1/2-z
-x,-y,-z
x,-y,1/2+z
1/2+x,1/2+y,z
1/2-x,1/2+y,1/2-z
1/2-x,1/2-y,-z
1/2+x,1/2-y,1/2+z
loop_
_atom_site_type_symbol
_atom_site_label
_atom_site_fract_x
_atom_site_fract_y
_atom_site_fract_z
Si Si1 0.657321 0.963711 0.600682
Si Si2 0.468786 0.775736 0.874184
Si Si3 0.724463 0.801778 0.084158
Si Si4 0.944207 0.901176 0.960747
Si Si5 0.654816 0.599337 0.620279
Si Si6 0.802816 0.706408 0.320461
Si Si7 0.415637 0.343369 0.532851
Si Si8 0.421479 0.373415 0.758176
O O1 0.571496 0.894302 0.625473
O O2 0.761580 0.950168 0.486358
O O3 0.675474 0.896220 0.649264
O O4 0.646745 0.094535 0.626136
O O5 0.424329 0.677498 0.860998
O O6 0.590872 0.772388 0.790042
O O7 0.429348 0.747300 0.969323
O O8 0.675591 0.710329 0.165797
O O9 0.750000 0.750000 0.000000
O O10 0.832037 0.850924 0.030213
O O11 0.002293 0.838621 0.973498
O O12 0.017622 0.889934 0.848609
O O13 0.929475 0.032885 0.991239
O O14 0.709734 0.684822 0.626643
O O15 0.608976 0.496114 0.691880
O O16 0.700107 0.675668 0.359659
O O17 0.500000 0.322786 0.750000
#
# Coordination Sequence:
#
# PCOD9300564 Si02
#       8
#     8   8   8   8   8   8   8   8
#     4  11  19  36  59  93 130 156 202 257 316 354
#     4  11  21  35  62  98 127 163 191 265 323 365
#     4  12  23  40  63  90 124 165 206 260 304 363
#     4  11  25  44  63  92 122 170 216 252 308 377
#     4  11  18  34  62  94 129 153 210 255 309 367
#     4  11  20  34  62  93 124 160 199 257 312 366
#     4  11  22  43  66  87 132 164 205 262 308 376
#     4  12  23  38  64  92 120 165 214 252 300 372
#
# _framework density 18.906343
#
# number of rings (size 3 to 8) (size 9 to 14) (size 15 to 20)
#    0.000    0.750    6.250    4.500    0.000    2.000 
#    0.000    0.000    0.000    3.000    0.000    0.000 
#    0.000    0.000    0.000    0.000    0.000    0.000 
#
# Total GULP energy -178640.084406 kJ/mol
# GULP energy per Si atom -5582.502638 kJ/mol
# Density = 1.886331 g / cm^3
# Si number density = 18.906343 Si / 1000 Ang^3
#
#
#
# Elastic Constant Matrix: (Units=GPa)
#
#
# Indices 1 2 3 4 5 6 
#
# 1 102.6430 22.4915 32.4563 0.0000 -12.3341 0.0000
# 2 22.4915 91.6906 27.3600 0.0000 -0.9344 0.0000
# 3 32.4563 27.3600 99.6362 0.0000 -10.7507 0.0000
# 4 0.0000 0.0000 0.0000 20.5640 0.0000 -6.5538
# 5 -12.3341 -0.9344 -10.7507 0.0000 18.5859 0.0000
# 6 0.0000 0.0000 0.0000 -6.5538 0.0000 22.3231
#
#
#
# Elastic Compliance Matrix: (Units=1/GPa)
#
#
# Indices 1 2 3 4 5 6 
#
# 1 0.011757 -0.002045 -0.002600 0.000000 0.006196 0.000000
# 2 -0.002045 0.012268 -0.002968 0.000000 -0.002457 0.000000
# 3 -0.002600 -0.002968 0.012261 0.000000 0.005218 0.000000
# 4 0.000000 0.000000 0.000000 0.053648 0.000000 0.015750
# 5 0.006196 -0.002457 0.005218 0.000000 0.060811 0.000000
# 6 0.000000 0.000000 0.000000 0.015750 0.000000 0.049421
#
#
# Mechanical properties :
#
#
# Convention : Reuss Voigt Hill
#
# Bulk Modulus (GPa) = 47.47983 50.95392 49.21687
# Shear Modulus (GPa) = 22.48074 26.40541 24.44307
#
# Velocity S-wave (km/s) = 3.45201 3.74122 3.59952
# Velocity P-wave (km/s) = 6.40751 6.75807 6.58513
#
# Compressibility (1/GPa) = 0.02106158
#
# Stress axis : x y z
#
# Youngs Moduli (GPa) = 85.05413 81.50989 81.55711
#
# Poissons Ratio (x) = 0.16670 0.21203
# Poissons Ratio (y) = 0.17395 0.24205
# Poissons Ratio (z) = 0.22112 0.24191
#
# Static dielectric constant tensor:
#      x y z
#    x 1.651560 0.000000 -0.051430 
#    y 0.000000 1.679140 0.000000 
#    z -0.051430 0.000000 1.768180 
# 
# From -- ./inp_files/252550.got.cif
#   From: 2010.05.17/outbox.cif.g08.bks.cpg/sg15_127_cif.got.tgz:252550.got - 2010.06.03 18:47:42.
