data_PCOD9300222
_publ_section_title
;
Structure prediction by ZEFSAII (Michael W. Deem and Ramdas Pophale) SiO2 
 PCOD9300222
Probable space group: C 2/C
;
_chemical_formula_sum "Si O2"
_cell_formula_units_Z 28
_cell_length_a 8.233615
_cell_length_b 5.710960
_cell_length_c 28.308726
_cell_angle_alpha 90.000000
_cell_angle_beta 129.979102
_cell_angle_gamma 90.000000
_cell_volume 1020.015645
_symmetry_space_group_name_H-M "C 2/C"
_symmetry_group_IT_number 15
_symmetry_cell_setting 'monoclinic'
loop_
_space_group_symop_operation_xyz
x,y,z
-x,y,1/2-z
-x,-y,-z
x,-y,1/2+z
1/2+x,1/2+y,z
1/2-x,1/2+y,1/2-z
1/2-x,1/2-y,-z
1/2+x,1/2-y,1/2+z
loop_
_atom_site_type_symbol
_atom_site_label
_atom_site_fract_x
_atom_site_fract_y
_atom_site_fract_z
Si Si1 0.013798 0.253005 0.435683
Si Si2 0.000000 0.765891 0.250000
Si Si3 0.558962 0.010157 0.167421
Si Si4 0.496490 0.749441 0.562622
O O1 0.250000 0.250000 0.500000
O O2 0.913250 0.495889 0.435702
O O3 0.018523 0.293829 0.380121
O O4 0.916963 0.007088 0.433426
O O5 0.199442 0.933970 0.277760
O O6 0.963098 0.597701 0.198296
O O7 0.529626 0.222537 0.124961
O O8 0.250000 0.750000 0.500000
#
# Coordination Sequence:
#
# PCOD9300222 Si02
#       4
#     8   4   8   8
#     4   8  16  37  71 105 145 188 253 323 389 447
#     4  12  28  52  72 116 158 226 246 330 366 506
#     4  10  26  46  74 108 156 198 270 300 402 450
#     4   8  16  37  71 105 145 188 253 323 389 447
#
# _framework density 27.450559999999999
#
# number of rings (size 3 to 8) (size 9 to 14) (size 15 to 20)
#    1.714    1.143    0.000    0.000    4.000    1.143 
#    0.000    2.857    0.000    0.000    0.000    0.000 
#    0.000    0.000    0.000    0.000    0.000    0.000 
#
# Total GULP energy -78172.960173 kJ/mol
# GULP energy per Si atom -5583.782869 kJ/mol
# Density = 2.738808 g / cm^3
# Si number density = 27.450560 Si / 1000 Ang^3
#
#
#
# Elastic Constant Matrix: (Units=GPa)
#
#
# Indices 1 2 3 4 5 6 
#
# 1 81.0160 52.9744 32.9952 0.0000 -7.0684 0.0000
# 2 52.9744 278.9528 15.0178 0.0000 1.4533 0.0000
# 3 32.9952 15.0178 153.0201 0.0000 -27.7173 0.0000
# 4 0.0000 0.0000 0.0000 47.4118 0.0000 13.4508
# 5 -7.0684 1.4533 -27.7173 0.0000 61.6597 0.0000
# 6 0.0000 0.0000 0.0000 13.4508 0.0000 42.4753
#
#
#
# Elastic Compliance Matrix: (Units=1/GPa)
#
#
# Indices 1 2 3 4 5 6 
#
# 1 0.015402 -0.002768 -0.002959 0.000000 0.000501 0.000000
# 2 -0.002768 0.004105 0.000130 0.000000 -0.000356 0.000000
# 3 -0.002959 0.000130 0.007728 0.000000 0.003131 0.000000
# 4 0.000000 0.000000 0.000000 0.023174 0.000000 -0.007339
# 5 0.000501 -0.000356 0.003131 0.000000 0.017692 0.000000
# 6 0.000000 0.000000 0.000000 -0.007339 0.000000 0.025867
#
#
# Mechanical properties :
#
#
# Convention : Reuss Voigt Hill
#
# Bulk Modulus (GPa) = 62.34325 79.44039 70.89182
# Shear Modulus (GPa) = 45.24528 57.77612 51.51070
#
# Velocity S-wave (km/s) = 4.06426 4.59271 4.33655
# Velocity P-wave (km/s) = 6.69214 7.55819 7.13831
#
# Compressibility (1/GPa) = 0.01604023
#
# Stress axis : x y z
#
# Youngs Moduli (GPa) = 64.92663 243.58060 129.40692
#
# Poissons Ratio (x) = 0.67429 0.38287
# Poissons Ratio (y) = 0.17973 -0.01676
# Poissons Ratio (z) = 0.19210 -0.03155
#
# Static dielectric constant tensor:
#      x y z
#    x 2.129680 0.000000 0.034470 
#    y 0.000000 2.147280 0.000000 
#    z 0.034470 0.000000 2.137300 
# 
# From -- ./inp_files/266838.got.cif
#   From: 2010.05.17/outbox.cif.g08.bks.cpg/sg15_134_cif.got.tgz:266838.got - 2010.06.03 18:47:42.
