data_PCOD9300057
_publ_section_title
;
Structure prediction by ZEFSAII (Michael W. Deem and Ramdas Pophale) SiO2 
 PCOD9300057
Probable space group: C 2/C
;
_chemical_formula_sum "Si O2"
_cell_formula_units_Z 56
_cell_length_a 17.209311
_cell_length_b 6.847012
_cell_length_c 21.870822
_cell_angle_alpha 90.000000
_cell_angle_beta 70.167974
_cell_angle_gamma 90.000000
_cell_volume 2424.246610
_symmetry_space_group_name_H-M "C 2/C"
_symmetry_group_IT_number 15
_symmetry_cell_setting 'monoclinic'
loop_
_space_group_symop_operation_xyz
x,y,z
-x,y,1/2-z
-x,-y,-z
x,-y,1/2+z
1/2+x,1/2+y,z
1/2-x,1/2+y,1/2-z
1/2-x,1/2-y,-z
1/2+x,1/2-y,1/2+z
loop_
_atom_site_type_symbol
_atom_site_label
_atom_site_fract_x
_atom_site_fract_y
_atom_site_fract_z
Si Si1 0.555787 0.909076 0.676889
Si Si2 0.536638 0.196360 0.462132
Si Si3 0.690428 0.137601 0.701103
Si Si4 0.887659 0.986056 0.473378
Si Si5 0.095618 0.551752 0.851840
Si Si6 0.834825 0.044907 0.851901
Si Si7 0.309641 0.360530 0.616084
O O1 0.500000 0.952523 0.750000
O O2 0.497996 0.994326 0.640006
O O3 0.584681 0.685084 0.675668
O O4 0.637810 0.034803 0.661265
O O5 0.463986 0.329884 0.451503
O O6 0.575542 0.321310 0.506044
O O7 0.609237 0.121631 0.397004
O O8 0.500000 0.000000 0.500000
O O9 0.676092 0.365393 0.691783
O O10 0.652281 0.065727 0.775959
O O11 0.779021 0.038880 0.666275
O O12 0.823851 0.911447 0.541968
O O13 0.843975 0.017736 0.420196
O O14 0.107335 0.761564 0.880097
O O15 0.757292 0.187192 0.862004
#
# Coordination Sequence:
#
# PCOD9300057 Si02
#       7
#     8   8   8   8   8   8   8
#     4   9  21  44  66  99 132 179 229 289 339 414
#     4  11  24  43  69 104 134 178 233 297 348 407
#     4  10  26  43  67 102 138 186 232 280 362 412
#     4  11  25  43  71 101 135 185 237 282 354 420
#     4  11  23  46  73  95 145 176 235 299 347 421
#     4  11  24  45  68  99 141 182 230 282 348 421
#     4  11  26  43  67 105 139 185 225 287 355 417
#
# _framework density 23.099961
#
# number of rings (size 3 to 8) (size 9 to 14) (size 15 to 20)
#    0.000    1.429    2.857    0.429    6.000    2.286 
#    5.143    0.000    0.000    0.000    0.000    0.000 
#    0.000    0.000    0.000    0.000    0.000    0.000 
#
# Total GULP energy -156266.954475 kJ/mol
# GULP energy per Si atom -5580.962660 kJ/mol
# Density = 2.304738 g / cm^3
# Si number density = 23.099961 Si / 1000 Ang^3
#
#
#
# Elastic Constant Matrix: (Units=GPa)
#
#
# Indices 1 2 3 4 5 6 
#
# 1 56.5759 49.4021 16.9259 0.0000 4.0099 0.0000
# 2 49.4021 145.9372 32.5371 0.0001 -5.6369 0.0000
# 3 16.9259 32.5371 65.2070 0.0000 1.2093 0.0000
# 4 0.0000 0.0001 0.0000 30.1974 0.0000 -7.0795
# 5 4.0099 -5.6369 1.2093 0.0000 29.0873 0.0000
# 6 0.0000 0.0000 0.0000 -7.0795 0.0000 35.0904
#
#
#
# Elastic Compliance Matrix: (Units=1/GPa)
#
#
# Indices 1 2 3 4 5 6 
#
# 1 0.026224 -0.008529 -0.002455 0.000000 -0.005166 0.000000
# 2 -0.008529 0.010565 -0.003120 0.000000 0.003353 0.000000
# 3 -0.002455 -0.003120 0.017548 0.000000 -0.000996 0.000000
# 4 0.000000 0.000000 0.000000 0.034760 0.000000 0.007013
# 5 -0.005166 0.003353 -0.000996 0.000000 0.035783 0.000000
# 6 0.000000 0.000000 0.000000 0.007013 0.000000 0.029913
#
#
# Mechanical properties :
#
#
# Convention : Reuss Voigt Hill
#
# Bulk Modulus (GPa) = 38.27288 51.71670 44.99479
# Shear Modulus (GPa) = 26.08111 30.13201 28.10656
#
# Velocity S-wave (km/s) = 3.36379 3.61559 3.49196
# Velocity P-wave (km/s) = 5.62948 6.31402 5.98155
#
# Compressibility (1/GPa) = 0.02612816
#
# Stress axis : x y z
#
# Youngs Moduli (GPa) = 38.13318 94.65519 56.98575
#
# Poissons Ratio (x) = 0.80735 0.13991
# Poissons Ratio (y) = 0.32525 0.17778
# Poissons Ratio (z) = 0.09362 0.29530
#
# Static dielectric constant tensor:
#      x y z
#    x 1.973420 0.000000 0.023220 
#    y 0.000000 1.881660 0.000000 
#    z 0.023220 0.000000 1.899890 
# 
# From -- ./inp_files/278914.got.cif
#   From: 2010.05.17/outbox.cif.g08.bks.cpg/sg15_140_cif.got.tgz:278914.got - 2010.06.03 18:47:42.
