data_PCOD9300304
_publ_section_title
;
Structure prediction by ZEFSAII (Michael W. Deem and Ramdas Pophale) SiO2 
 PCOD9300304
Probable space group: C 2/C
;
_chemical_formula_sum "Si O2"
_cell_formula_units_Z 28
_cell_length_a 5.150743
_cell_length_b 23.479997
_cell_length_c 10.734819
_cell_angle_alpha 90.000000
_cell_angle_beta 106.928322
_cell_angle_gamma 90.000000
_cell_volume 1242.008863
_symmetry_space_group_name_H-M "C 2/C"
_symmetry_group_IT_number 15
_symmetry_cell_setting 'monoclinic'
loop_
_space_group_symop_operation_xyz
x,y,z
-x,y,1/2-z
-x,-y,-z
x,-y,1/2+z
1/2+x,1/2+y,z
1/2-x,1/2+y,1/2-z
1/2-x,1/2-y,-z
1/2+x,1/2-y,1/2+z
loop_
_atom_site_type_symbol
_atom_site_label
_atom_site_fract_x
_atom_site_fract_y
_atom_site_fract_z
Si Si1 0.126873 0.562462 0.531109
Si Si2 0.005544 0.210647 0.510152
Si Si3 0.000000 0.869734 0.250000
Si Si4 0.049275 0.100841 0.392926
O O1 0.256238 0.588131 0.674881
O O2 0.373620 0.566313 0.467968
O O3 0.000000 0.500000 0.500000
O O4 0.869428 0.601765 0.462754
O O5 0.750000 0.250000 0.500000
O O6 0.250000 0.250000 0.500000
O O7 0.061486 0.171333 0.640552
O O8 0.942970 0.164992 0.393428
O O9 0.000000 0.076799 0.250000
#
# Coordination Sequence:
#
# PCOD9300304 Si02
#       4
#     8   8   4   8
#     4  11  25  47  76 105 143 196 236 305 377 419
#     4  11  25  43  72 104 140 195 233 298 370 417
#     4  10  26  48  74 110 150 182 258 298 352 462
#     4  11  25  46  69 108 145 181 249 298 358 451
#
# _framework density 22.544122000000002
#
# number of rings (size 3 to 8) (size 9 to 14) (size 15 to 20)
#    0.000    1.143    0.000    5.143    6.000    9.143 
#   10.286    0.000    0.000    0.000    0.000    0.000 
#    0.000    0.000    0.000    0.000    0.000    0.000 
#
# Total GULP energy -78256.752557 kJ/mol
# GULP energy per Si atom -5589.768040 kJ/mol
# Density = 2.249281 g / cm^3
# Si number density = 22.544122 Si / 1000 Ang^3
#
#
#
# Elastic Constant Matrix: (Units=GPa)
#
#
# Indices 1 2 3 4 5 6 
#
# 1 128.9501 31.8640 48.7995 0.0000 13.6733 0.0000
# 2 31.8640 132.8548 28.8436 0.0000 3.1001 0.0000
# 3 48.7995 28.8436 120.5327 0.0000 10.1827 0.0000
# 4 0.0000 0.0000 0.0000 26.4302 0.0000 18.2734
# 5 13.6733 3.1001 10.1827 0.0000 46.6165 0.0000
# 6 0.0000 0.0000 0.0000 18.2734 0.0000 43.8247
#
#
#
# Elastic Compliance Matrix: (Units=1/GPa)
#
#
# Indices 1 2 3 4 5 6 
#
# 1 0.009615 -0.001530 -0.003359 0.000000 -0.001985 0.000000
# 2 -0.001530 0.008184 -0.001356 0.000000 0.000201 0.000000
# 3 -0.003359 -0.001356 0.010076 0.000000 -0.001126 0.000000
# 4 0.000000 0.000000 0.000000 0.053161 0.000000 -0.022166
# 5 -0.001985 0.000201 -0.001126 0.000000 0.022266 0.000000
# 6 0.000000 0.000000 0.000000 -0.022166 0.000000 0.032061
#
#
# Mechanical properties :
#
#
# Convention : Reuss Voigt Hill
#
# Bulk Modulus (GPa) = 65.00083 66.81685 65.90884
# Shear Modulus (GPa) = 32.68402 41.56298 37.12350
#
# Velocity S-wave (km/s) = 3.81173 4.29841 4.06236
# Velocity P-wave (km/s) = 6.94749 7.37141 7.16259
#
# Compressibility (1/GPa) = 0.01538442
#
# Stress axis : x y z
#
# Youngs Moduli (GPa) = 104.00821 122.19374 99.24724
#
# Poissons Ratio (x) = 0.18701 0.33334
# Poissons Ratio (y) = 0.15918 0.13455
# Poissons Ratio (z) = 0.34933 0.16566
#
# Static dielectric constant tensor:
#      x y z
#    x 1.816440 0.000000 -0.027190 
#    y 0.000000 1.864690 0.000000 
#    z -0.027190 0.000000 1.912390 
# 
# From -- ./inp_files/71726.got.cif
#   From: 2010.05.17/outbox.cif.g08.bks.cpg/sg15_36_cif.got.tgz:71726.got - 2010.06.03 18:47:42.
