data_PCOD9300007
_publ_section_title
;
Structure prediction by ZEFSAII (Michael W. Deem and Ramdas Pophale) SiO2 
 PCOD9300007
Probable space group: C 2/C
;
_chemical_formula_sum "Si O2"
_cell_formula_units_Z 52
_cell_length_a 14.773636
_cell_length_b 6.594331
_cell_length_c 27.296440
_cell_angle_alpha 90.000000
_cell_angle_beta 113.197528
_cell_angle_gamma 90.000000
_cell_volume 2444.283870
_symmetry_space_group_name_H-M "C 2/C"
_symmetry_group_IT_number 15
_symmetry_cell_setting 'monoclinic'
loop_
_space_group_symop_operation_xyz
x,y,z
-x,y,1/2-z
-x,-y,-z
x,-y,1/2+z
1/2+x,1/2+y,z
1/2-x,1/2+y,1/2-z
1/2-x,1/2-y,-z
1/2+x,1/2-y,1/2+z
loop_
_atom_site_type_symbol
_atom_site_label
_atom_site_fract_x
_atom_site_fract_y
_atom_site_fract_z
Si Si1 0.181571 0.567137 0.999730
Si Si2 0.200250 0.107207 0.661728
Si Si3 0.041085 0.182797 0.541672
Si Si4 0.648177 0.264276 0.431960
Si Si5 0.376214 0.192881 0.176315
Si Si6 0.000000 0.382330 0.250000
Si Si7 0.167289 0.063374 0.263021
O O1 0.095599 0.652535 0.017302
O O2 0.252695 0.394733 0.038745
O O3 0.250000 0.750000 0.000000
O O4 0.163220 0.475236 0.941588
O O5 0.117234 0.132753 0.602199
O O6 0.241263 0.327775 0.688987
O O7 0.282434 0.956754 0.656605
O O8 0.177044 0.994650 0.708258
O O9 0.938222 0.227741 0.546685
O O10 0.000000 0.000000 0.500000
O O11 0.611968 0.316726 0.370757
O O12 0.363934 0.357630 0.216273
O O13 0.465632 0.038092 0.201267
O O14 0.913868 0.237998 0.249329
#
# Coordination Sequence:
#
# PCOD9300007 Si02
#       7
#     8   8   8   8   8   4   8
#     4  11  23  48  69  97 143 179 238 288 351 419
#     4  11  25  44  71 102 141 185 235 295 358 420
#     4  12  26  45  70 106 144 187 240 292 355 432
#     4  11  26  43  74  99 134 192 230 297 354 420
#     4  11  24  45  68 101 139 178 238 289 361 432
#     4  10  26  40  68  96 142 172 230 290 358 426
#     4  11  23  46  70 101 137 187 232 299 361 425
#
# _framework density 21.274122999999999
#
# number of rings (size 3 to 8) (size 9 to 14) (size 15 to 20)
#    0.000    0.923    3.077    2.769    6.462    2.462 
#    5.538    0.000    0.000    0.000    0.000    0.000 
#    0.000    0.000    0.000    0.000    0.000    0.000 
#
# Total GULP energy -144756.790901 kJ/mol
# GULP energy per Si atom -5567.568881 kJ/mol
# Density = 2.122570 g / cm^3
# Si number density = 21.274123 Si / 1000 Ang^3
#
#
#
# Elastic Constant Matrix: (Units=GPa)
#
#
# Indices 1 2 3 4 5 6 
#
# 1 95.6278 39.8100 37.5787 0.0000 -10.7639 0.0000
# 2 39.8100 100.3774 36.7942 0.0000 3.3069 0.0000
# 3 37.5787 36.7942 107.7000 0.0000 -7.8438 0.0000
# 4 0.0000 0.0000 0.0000 25.6094 0.0000 -1.9262
# 5 -10.7639 3.3069 -7.8438 0.0000 43.2743 0.0000
# 6 0.0000 0.0000 0.0000 -1.9262 0.0000 28.9687
#
#
#
# Elastic Compliance Matrix: (Units=1/GPa)
#
#
# Indices 1 2 3 4 5 6 
#
# 1 0.013902 -0.004492 -0.003080 0.000000 0.003243 0.000000
# 2 -0.004492 0.012950 -0.003051 0.000000 -0.002660 0.000000
# 3 -0.003080 -0.003051 0.011515 0.000000 0.001554 0.000000
# 4 0.000000 0.000000 0.000000 0.039244 0.000000 0.002609
# 5 0.003243 -0.002660 0.001554 0.000000 0.024400 0.000000
# 6 0.000000 0.000000 0.000000 0.002609 0.000000 0.034694
#
#
# Mechanical properties :
#
#
# Convention : Reuss Voigt Hill
#
# Bulk Modulus (GPa) = 58.40219 59.11898 58.76059
# Shear Modulus (GPa) = 30.55164 32.20531 31.37848
#
# Velocity S-wave (km/s) = 3.79369 3.89501 3.84469
# Velocity P-wave (km/s) = 6.83384 6.93380 6.88400
#
# Compressibility (1/GPa) = 0.01712265
#
# Stress axis : x y z
#
# Youngs Moduli (GPa) = 71.92959 77.22253 86.84203
#
# Poissons Ratio (x) = 0.34685 0.26749
# Poissons Ratio (y) = 0.32307 0.26492
# Poissons Ratio (z) = 0.22156 0.23557
#
# Static dielectric constant tensor:
#      x y z
#    x 1.747940 0.000000 -0.004660 
#    y 0.000000 1.757460 0.000000 
#    z -0.004660 0.000000 1.778610 
# 
# From -- ./inp_files/312427.got.cif
#   From: 2010.05.17/outbox.cif.g08.bks.cpg/sg15_157_cif.got.tgz:312427.got - 2010.06.03 18:47:42.
