data_PCOD9300239
_publ_section_title
;
Structure prediction by ZEFSAII (Michael W. Deem and Ramdas Pophale) SiO2 
 PCOD9300239
Probable space group: C 2/C
;
_chemical_formula_sum "Si O2"
_cell_formula_units_Z 40
_cell_length_a 25.235832
_cell_length_b 5.094715
_cell_length_c 14.501202
_cell_angle_alpha 90.000000
_cell_angle_beta 82.360335
_cell_angle_gamma 90.000000
_cell_volume 1847.861447
_symmetry_space_group_name_H-M "C 2/C"
_symmetry_group_IT_number 15
_symmetry_cell_setting 'monoclinic'
loop_
_space_group_symop_operation_xyz
x,y,z
-x,y,1/2-z
-x,-y,-z
x,-y,1/2+z
1/2+x,1/2+y,z
1/2-x,1/2+y,1/2-z
1/2-x,1/2-y,-z
1/2+x,1/2-y,1/2+z
loop_
_atom_site_type_symbol
_atom_site_label
_atom_site_fract_x
_atom_site_fract_y
_atom_site_fract_z
Si Si1 0.616018 0.863802 0.713794
Si Si2 0.500000 0.930104 0.250000
Si Si3 0.721308 0.785360 0.797435
Si Si4 0.524492 0.251844 0.543461
Si Si5 0.634234 0.364433 0.584962
Si Si6 0.250000 0.750000 0.500000
O O1 0.554287 0.906099 0.755267
O O2 0.659349 0.795339 0.781518
O O3 0.617968 0.633977 0.637661
O O4 0.635936 0.133152 0.661062
O O5 0.489239 0.764013 0.344624
O O6 0.746273 0.499820 0.770375
O O7 0.731688 0.850152 0.900852
O O8 0.500000 0.500000 0.500000
O O9 0.588415 0.272824 0.525416
O O10 0.500000 0.000000 0.500000
O O11 0.691580 0.390561 0.526875
#
# Coordination Sequence:
#
# PCOD9300239 Si02
#       6
#     8   4   8   8   8   4
#     4  11  23  48  70 103 144 182 236 295 346 425
#     4  10  26  46  78 102 144 194 232 296 370 406
#     4  12  25  47  70 103 143 185 240 294 347 424
#     4  11  25  47  69 106 142 184 243 295 349 432
#     4  11  25  45  71 103 143 181 240 290 343 436
#     4  12  26  46  74 102 142 194 232 288 372 404
#
# _framework density 21.646646
#
# number of rings (size 3 to 8) (size 9 to 14) (size 15 to 20)
#    0.000    0.800    4.000    2.400    2.800   10.400 
#    3.600    0.000    0.000    0.000    0.000    0.000 
#    0.000    0.000    0.000    0.000    0.000    0.000 
#
# Total GULP energy -111358.321925 kJ/mol
# GULP energy per Si atom -5567.916096 kJ/mol
# Density = 2.159738 g / cm^3
# Si number density = 21.646646 Si / 1000 Ang^3
#
#
#
# Elastic Constant Matrix: (Units=GPa)
#
#
# Indices 1 2 3 4 5 6 
#
# 1 188.5857 13.9748 52.8582 0.0000 27.8378 0.0000
# 2 13.9748 74.6040 10.8032 0.0000 -14.8714 0.0000
# 3 52.8582 10.8032 49.8309 0.0000 19.5998 0.0000
# 4 0.0000 0.0000 0.0000 14.1799 0.0000 9.0592
# 5 27.8378 -14.8714 19.5998 0.0000 37.6622 0.0000
# 6 0.0000 0.0000 0.0000 9.0592 0.0000 27.3665
#
#
#
# Elastic Compliance Matrix: (Units=1/GPa)
#
#
# Indices 1 2 3 4 5 6 
#
# 1 0.007690 -0.000898 -0.007025 0.000000 -0.002383 0.000000
# 2 -0.000898 0.016756 -0.006970 0.000000 0.010907 0.000000
# 3 -0.007025 -0.006970 0.035296 0.000000 -0.015928 0.000000
# 4 0.000000 0.000000 0.000000 0.089437 0.000000 -0.029607
# 5 -0.002383 0.010907 -0.015928 0.000000 0.040909 0.000000
# 6 0.000000 0.000000 0.000000 -0.029607 0.000000 0.046342
#
#
# Mechanical properties :
#
#
# Convention : Reuss Voigt Hill
#
# Bulk Modulus (GPa) = 33.38373 52.03255 42.70814
# Shear Modulus (GPa) = 18.10271 31.53402 24.81836
#
# Velocity S-wave (km/s) = 2.89499 3.82090 3.38971
# Velocity P-wave (km/s) = 5.16045 6.59963 5.92391
#
# Compressibility (1/GPa) = 0.02995471
#
# Stress axis : x y z
#
# Youngs Moduli (GPa) = 130.03919 59.68036 28.33188
#
# Poissons Ratio (x) = 0.05360 0.19904
# Poissons Ratio (y) = 0.11679 0.19748
# Poissons Ratio (z) = 0.91357 0.41598
#
# Static dielectric constant tensor:
#      x y z
#    x 1.804010 0.000000 -0.005320 
#    y 0.000000 1.768000 0.000000 
#    z -0.005320 0.000000 1.794030 
# 
# From -- ./inp_files/170518.got.cif
#   From: 2010.05.17/outbox.cif.g08.bks.cpg/sg15_86_cif.got.tgz:170518.got - 2010.06.03 18:47:42.
