data_PCOD9300006
_publ_section_title
;
Structure prediction by ZEFSAII (Michael W. Deem and Ramdas Pophale) SiO2 
 PCOD9300006
Probable space group: C 2/C
;
_chemical_formula_sum "Si O2"
_cell_formula_units_Z 52
_cell_length_a 17.321612
_cell_length_b 9.052949
_cell_length_c 21.518011
_cell_angle_alpha 90.000000
_cell_angle_beta 49.342421
_cell_angle_gamma 90.000000
_cell_volume 2559.782334
_symmetry_space_group_name_H-M "C 2/C"
_symmetry_group_IT_number 15
_symmetry_cell_setting 'monoclinic'
loop_
_space_group_symop_operation_xyz
x,y,z
-x,y,1/2-z
-x,-y,-z
x,-y,1/2+z
1/2+x,1/2+y,z
1/2-x,1/2+y,1/2-z
1/2-x,1/2-y,-z
1/2+x,1/2-y,1/2+z
loop_
_atom_site_type_symbol
_atom_site_label
_atom_site_fract_x
_atom_site_fract_y
_atom_site_fract_z
Si Si1 0.500000 0.233745 0.250000
Si Si2 0.973876 0.079573 0.079271
Si Si3 0.906622 0.392452 0.569339
Si Si4 0.614236 0.315520 0.311412
Si Si5 0.684513 0.660707 0.984938
Si Si6 0.186302 0.686939 0.854727
Si Si7 0.713820 0.843195 0.580561
O O1 0.559457 0.317256 0.273651
O O2 0.406494 0.156849 0.337510
O O3 0.921871 0.237281 0.099627
O O4 0.894374 0.974245 0.153694
O O5 0.076744 0.094840 0.064393
O O6 0.000000 0.000000 0.000000
O O7 0.937473 0.298548 0.613777
O O8 0.855529 0.274529 0.548011
O O9 0.822569 0.512561 0.632659
O O10 0.000000 0.500000 0.500000
O O11 0.731477 0.275052 0.240617
O O12 0.748109 0.512868 0.936553
O O13 0.750000 0.750000 0.000000
O O14 0.227953 0.758331 0.895474
O O15 0.750000 0.750000 0.500000
#
# Coordination Sequence:
#
# PCOD9300006 Si02
#       7
#     4   8   8   8   8   8   8
#     4  10  26  40  68 108 140 190 236 302 364 422
#     4  12  21  44  70  96 135 187 236 289 353 433
#     4  12  24  42  70 102 139 183 241 292 354 434
#     4  11  24  43  68 101 143 182 241 292 360 429
#     4  12  26  41  68 108 138 184 247 297 359 426
#     4  11  23  41  67 102 131 187 235 291 362 427
#     4  11  23  43  70  99 149 192 241 297 368 436
#
# _framework density 20.314226000000001
#
# number of rings (size 3 to 8) (size 9 to 14) (size 15 to 20)
#    0.000    0.615    4.615    2.769    4.308    2.462 
#    0.000    1.538    0.000    1.846    0.000    0.000 
#    0.000    0.000    0.000    0.000    0.000    0.000 
#
# Total GULP energy -144902.038089 kJ/mol
# GULP energy per Si atom -5573.155311 kJ/mol
# Density = 2.026799 g / cm^3
# Si number density = 20.314226 Si / 1000 Ang^3
#
#
#
# Elastic Constant Matrix: (Units=GPa)
#
#
# Indices 1 2 3 4 5 6 
#
# 1 83.9459 22.6521 32.8632 0.0000 -3.4315 0.0000
# 2 22.6521 133.1195 44.1624 0.0000 7.7001 0.0001
# 3 32.8632 44.1624 111.5957 0.0000 -9.1242 0.0000
# 4 0.0000 0.0000 0.0000 31.5699 0.0000 -5.4821
# 5 -3.4315 7.7001 -9.1242 0.0000 37.4919 0.0000
# 6 0.0000 0.0001 0.0000 -5.4821 0.0000 32.4902
#
#
#
# Elastic Compliance Matrix: (Units=1/GPa)
#
#
# Indices 1 2 3 4 5 6 
#
# 1 0.013627 -0.001200 -0.003485 0.000000 0.000645 0.000000
# 2 -0.001200 0.009021 -0.003446 0.000000 -0.002801 0.000000
# 3 -0.003485 -0.003446 0.011614 0.000000 0.003215 0.000000
# 4 0.000000 0.000000 0.000000 0.032632 0.000000 0.005506
# 5 0.000645 -0.002801 0.003215 0.000000 0.028089 0.000000
# 6 0.000000 0.000000 0.000000 0.005506 0.000000 0.031708
#
#
# Mechanical properties :
#
#
# Convention : Reuss Voigt Hill
#
# Bulk Modulus (GPa) = 55.55494 58.66852 57.11173
# Shear Modulus (GPa) = 33.56766 35.57597 34.57182
#
# Velocity S-wave (km/s) = 4.06941 4.18937 4.12983
# Velocity P-wave (km/s) = 7.03472 7.23494 7.13553
#
# Compressibility (1/GPa) = 0.01800020
#
# Stress axis : x y z
#
# Youngs Moduli (GPa) = 73.38348 110.84772 86.10470
#
# Poissons Ratio (x) = 0.13301 0.30010
# Poissons Ratio (y) = 0.08805 0.29670
# Poissons Ratio (z) = 0.25577 0.38195
#
# Static dielectric constant tensor:
#      x y z
#    x 1.677610 0.000000 -0.036120 
#    y 0.000000 1.819280 0.000000 
#    z -0.036120 0.000000 1.788990 
# 
# From -- ./inp_files/247759.got.cif
#   From: 2010.05.17/outbox.cif.g08.bks.cpg/sg15_124_cif.got.tgz:247759.got - 2010.06.03 18:47:42.
