data_PCOD9300083
_publ_section_title
;
Structure prediction by ZEFSAII (Michael W. Deem and Ramdas Pophale) SiO2 
 PCOD9300083
Probable space group: C 2/C
;
_chemical_formula_sum "Si O2"
_cell_formula_units_Z 60
_cell_length_a 25.396268
_cell_length_b 6.686621
_cell_length_c 18.291847
_cell_angle_alpha 90.000000
_cell_angle_beta 123.313283
_cell_angle_gamma 90.000000
_cell_volume 2595.817811
_symmetry_space_group_name_H-M "C 2/C"
_symmetry_group_IT_number 15
_symmetry_cell_setting 'monoclinic'
loop_
_space_group_symop_operation_xyz
x,y,z
-x,y,1/2-z
-x,-y,-z
x,-y,1/2+z
1/2+x,1/2+y,z
1/2-x,1/2+y,1/2-z
1/2-x,1/2-y,-z
1/2+x,1/2-y,1/2+z
loop_
_atom_site_type_symbol
_atom_site_label
_atom_site_fract_x
_atom_site_fract_y
_atom_site_fract_z
Si Si1 0.380849 0.733060 0.413685
Si Si2 0.841332 0.394477 0.980278
Si Si3 0.110792 0.274325 0.250842
Si Si4 0.707579 0.520189 0.915649
Si Si5 0.500000 0.561052 0.250000
Si Si6 0.788462 0.904660 0.320233
Si Si7 0.096508 0.984263 0.936342
Si Si8 0.819880 0.359321 0.711973
O O1 0.402201 0.753803 0.346630
O O2 0.313734 0.625722 0.353342
O O3 0.415787 0.574242 0.493167
O O4 0.371088 0.928963 0.455146
O O5 0.780377 0.455514 0.982057
O O6 0.808054 0.244918 0.897888
O O7 0.895494 0.257159 0.056811
O O8 0.167406 0.138431 0.332896
O O9 0.122129 0.510913 0.272938
O O10 0.048891 0.191792 0.241903
O O11 0.664847 0.543471 0.955139
O O12 0.708779 0.733641 0.876061
O O13 0.456660 0.443720 0.159630
O O14 0.821512 0.812143 0.274803
O O15 0.715488 0.957756 0.272232
#
# Coordination Sequence:
#
# PCOD9300083 Si02
#       8
#     8   8   8   8   4   8   8   8
#     4  11  22  40  66 102 134 174 219 272 339 405
#     4  11  21  39  64  99 141 172 215 265 341 407
#     4  11  23  42  70  96 135 181 226 283 330 397
#     4  11  22  39  63 103 144 181 212 266 341 413
#     4  10  26  54  68  90 128 176 244 298 340 380
#     4  11  20  32  58 104 141 164 206 262 321 412
#     4  10  26  44  67  94 134 182 229 285 331 396
#     4  12  20  34  65 102 139 181 210 255 336 405
#
# _framework density 23.114103
#
# number of rings (size 3 to 8) (size 9 to 14) (size 15 to 20)
#    0.000    1.067    5.333    2.000    0.000    3.200 
#    0.000    6.667    0.000    0.000    0.000    0.000 
#    0.000    0.000    0.000    0.000    0.000    0.000 
#
# Total GULP energy -167245.015504 kJ/mol
# GULP energy per Si atom -5574.833850 kJ/mol
# Density = 2.306149 g / cm^3
# Si number density = 23.114103 Si / 1000 Ang^3
#
#
#
# Elastic Constant Matrix: (Units=GPa)
#
#
# Indices 1 2 3 4 5 6 
#
# 1 43.0316 11.8446 13.1468 0.0000 -6.1118 0.0000
# 2 11.8446 90.6120 17.6909 0.0001 -10.6804 0.0000
# 3 13.1468 17.6909 81.1687 0.0000 -10.8010 0.0000
# 4 0.0000 0.0001 0.0000 30.0783 0.0000 -15.7636
# 5 -6.1118 -10.6804 -10.8010 0.0000 26.2884 0.0000
# 6 0.0000 0.0000 0.0000 -15.7636 0.0000 16.3897
#
#
#
# Elastic Compliance Matrix: (Units=1/GPa)
#
#
# Indices 1 2 3 4 5 6 
#
# 1 0.025340 -0.002269 -0.003119 0.000000 0.003688 0.000000
# 2 -0.002269 0.012113 -0.001785 0.000000 0.003660 0.000000
# 3 -0.003119 -0.001785 0.013774 0.000000 0.004209 0.000000
# 4 0.000000 0.000000 0.000000 0.067038 0.000000 0.064477
# 5 0.003688 0.003660 0.004209 0.000000 0.042113 0.000000
# 6 0.000000 0.000000 0.000000 0.064477 0.000000 0.123028
#
#
# Mechanical properties :
#
#
# Convention : Reuss Voigt Hill
#
# Bulk Modulus (GPa) = 27.11462 33.35300 30.23381
# Shear Modulus (GPa) = 16.12664 26.02662 21.07663
#
# Velocity S-wave (km/s) = 2.64426 3.35924 3.02296
# Velocity P-wave (km/s) = 4.59119 5.43204 5.02922
#
# Compressibility (1/GPa) = 0.03688048
#
# Stress axis : x y z
#
# Youngs Moduli (GPa) = 39.46344 82.55843 72.59834
#
# Poissons Ratio (x) = 0.18730 0.22644
# Poissons Ratio (y) = 0.08953 0.12962
# Poissons Ratio (z) = 0.12309 0.14741
#
# Static dielectric constant tensor:
#      x y z
#    x 1.929590 0.000000 -0.012760 
#    y 0.000000 1.909210 0.000000 
#    z -0.012760 0.000000 1.931800 
# 
# From -- ./inp_files/256772.got.cif
#   From: 2010.05.17/outbox.cif.g08.bks.cpg/sg15_129_cif.got.tgz:256772.got - 2010.06.03 18:47:42.
