data_PCOD9300325
_publ_section_title
;
Structure prediction by ZEFSAII (Michael W. Deem and Ramdas Pophale) SiO2 
 PCOD9300325
Probable space group: C 2/C
;
_chemical_formula_sum "Si O2"
_cell_formula_units_Z 48
_cell_length_a 27.591812
_cell_length_b 7.249584
_cell_length_c 9.921137
_cell_angle_alpha 90.000000
_cell_angle_beta 91.016267
_cell_angle_gamma 90.000000
_cell_volume 1984.204524
_symmetry_space_group_name_H-M "C 2/C"
_symmetry_group_IT_number 15
_symmetry_cell_setting 'monoclinic'
loop_
_space_group_symop_operation_xyz
x,y,z
-x,y,1/2-z
-x,-y,-z
x,-y,1/2+z
1/2+x,1/2+y,z
1/2-x,1/2+y,1/2-z
1/2-x,1/2-y,-z
1/2+x,1/2-y,1/2+z
loop_
_atom_site_type_symbol
_atom_site_label
_atom_site_fract_x
_atom_site_fract_y
_atom_site_fract_z
Si Si1 0.615983 0.390318 0.727421
Si Si2 0.279741 0.594649 0.156423
Si Si3 0.384413 0.082417 0.983051
Si Si4 0.779771 0.523065 0.085389
Si Si5 0.016290 0.338973 0.900637
Si Si6 0.574251 0.333198 0.009042
O O1 0.668009 0.456188 0.783707
O O2 0.617863 0.186854 0.660225
O O3 0.580415 0.382408 0.852977
O O4 0.600280 0.524265 0.607775
O O5 0.241375 0.596652 0.276199
O O6 0.286094 0.802238 0.103324
O O7 0.259162 0.464342 0.037777
O O8 0.426511 0.177433 0.075267
O O9 0.331837 0.098574 0.046435
O O10 0.400179 0.868228 0.970861
O O11 0.000000 0.387601 0.750000
O O12 0.000000 0.500000 0.000000
O O13 0.981203 0.177059 0.945998
#
# Coordination Sequence:
#
# PCOD9300325 Si02
#       6
#     8   8   8   8   8   8
#     4  12  27  49  78 116 161 207 258 335 382 476
#     4  11  25  45  70 114 154 205 263 318 391 460
#     4  11  27  50  80 109 158 211 265 317 400 462
#     4  11  25  46  73 106 158 204 262 322 387 471
#     4  10  26  48  79 114 150 203 260 326 389 466
#     4  11  28  49  80 119 155 206 265 322 403 461
#
# _framework density 24.191053
#
# number of rings (size 3 to 8) (size 9 to 14) (size 15 to 20)
#    0.000    1.000    1.667    2.000   14.000    4.667 
#    0.000    0.000    0.000    0.000    0.000    0.000 
#    0.000    0.000    0.000    0.000    0.000    0.000 
#
# Total GULP energy -134568.284266 kJ/mol
# GULP energy per Si atom -5607.011844 kJ/mol
# Density = 2.413599 g / cm^3
# Si number density = 24.191053 Si / 1000 Ang^3
#
#
#
# Elastic Constant Matrix: (Units=GPa)
#
#
# Indices 1 2 3 4 5 6 
#
# 1 122.0731 19.1683 52.1188 0.0000 11.8451 0.0000
# 2 19.1683 73.8913 28.2192 0.0000 1.7358 0.0000
# 3 52.1188 28.2192 175.0771 0.0000 -5.7855 0.0000
# 4 0.0000 0.0000 0.0000 27.7809 0.0000 6.5301
# 5 11.8451 1.7358 -5.7855 0.0000 38.5645 0.0000
# 6 0.0000 0.0000 0.0000 6.5301 0.0000 20.5338
#
#
#
# Elastic Compliance Matrix: (Units=1/GPa)
#
#
# Indices 1 2 3 4 5 6 
#
# 1 0.009964 -0.001415 -0.002851 0.000000 -0.003424 0.000000
# 2 -0.001415 0.014661 -0.001959 0.000000 -0.000519 0.000000
# 3 -0.002851 -0.001959 0.006943 0.000000 0.002005 0.000000
# 4 0.000000 0.000000 0.000000 0.038904 0.000000 -0.012372
# 5 -0.003424 -0.000519 0.002005 0.000000 0.027307 0.000000
# 6 0.000000 0.000000 0.000000 -0.012372 0.000000 0.052635
#
#
# Mechanical properties :
#
#
# Convention : Reuss Voigt Hill
#
# Bulk Modulus (GPa) = 52.31147 63.33934 57.82540
# Shear Modulus (GPa) = 29.54468 35.47819 32.51144
#
# Velocity S-wave (km/s) = 3.49851 3.83375 3.66996
# Velocity P-wave (km/s) = 6.16366 6.77028 6.47408
#
# Compressibility (1/GPa) = 0.01911627
#
# Stress axis : x y z
#
# Youngs Moduli (GPa) = 100.36532 68.20885 144.04003
#
# Poissons Ratio (x) = 0.09654 0.41067
# Poissons Ratio (y) = 0.14206 0.28215
# Poissons Ratio (z) = 0.28615 0.13361
#
# Static dielectric constant tensor:
#      x y z
#    x 1.923250 0.000000 0.019210 
#    y 0.000000 1.958960 0.000000 
#    z 0.019210 0.000000 1.875000 
# 
# From -- ./inp_files/68574.got.cif
#   From: 2010.05.17/outbox.cif.g08.bks.cpg/sg15_35_cif.got.tgz:68574.got - 2010.06.03 18:47:42.
