data_PCOD9300557
_publ_section_title
;
Structure prediction by ZEFSAII (Michael W. Deem and Ramdas Pophale) SiO2 
 PCOD9300557
Probable space group: C 2/C
;
_chemical_formula_sum "Si O2"
_cell_formula_units_Z 40
_cell_length_a 13.094939
_cell_length_b 31.195538
_cell_length_c 5.301087
_cell_angle_alpha 90.000000
_cell_angle_beta 89.310082
_cell_angle_gamma 90.000000
_cell_volume 2165.356488
_symmetry_space_group_name_H-M "C 2/C"
_symmetry_group_IT_number 15
_symmetry_cell_setting 'monoclinic'
loop_
_space_group_symop_operation_xyz
x,y,z
-x,y,1/2-z
-x,-y,-z
x,-y,1/2+z
1/2+x,1/2+y,z
1/2-x,1/2+y,1/2-z
1/2-x,1/2-y,-z
1/2+x,1/2-y,1/2+z
loop_
_atom_site_type_symbol
_atom_site_label
_atom_site_fract_x
_atom_site_fract_y
_atom_site_fract_z
Si Si1 0.500000 0.822602 0.750000
Si Si2 0.765697 0.848031 0.297441
Si Si3 0.000000 0.529506 0.250000
Si Si4 0.113978 0.274373 0.128485
Si Si5 0.586325 0.901566 0.444961
Si Si6 0.620574 0.325214 0.693642
O O1 0.409789 0.792744 0.649140
O O2 0.544542 0.856156 0.548521
O O3 0.693815 0.806596 0.249251
O O4 0.692628 0.889553 0.313665
O O5 0.820840 0.841729 0.562074
O O6 0.842970 0.849026 0.060197
O O7 0.911005 0.564020 0.327766
O O8 0.000000 0.500000 0.500000
O O9 0.145205 0.225183 0.147130
O O10 0.000000 0.276693 0.250000
O O11 0.500000 0.916085 0.250000
O O12 0.500000 0.328540 0.750000
#
# Coordination Sequence:
#
# PCOD9300557 Si02
#       6
#     4   8   4   8   8   8
#     4  11  18  34  54  82 122 150 204 248 294 344
#     4  12  22  40  57  82 108 160 208 249 303 360
#     4  11  24  40  64  96 136 156 166 210 292 376
#     4  11  22  33  54  79 114 151 209 265 310 346
#     4  11  22  37  63  91 124 156 190 230 287 369
#     4  11  27  38  53  74 116 159 216 274 304 318
#
# _framework density 18.472708999999998
#
# number of rings (size 3 to 8) (size 9 to 14) (size 15 to 20)
#    0.000    0.800    5.000    3.000    8.400    0.000 
#    0.000    0.000    0.000    0.000    0.000    0.000 
#    0.000   16.000    0.000    0.000    0.000    0.000 
#
# Total GULP energy -111596.537860 kJ/mol
# GULP energy per Si atom -5579.826893 kJ/mol
# Density = 1.843066 g / cm^3
# Si number density = 18.472709 Si / 1000 Ang^3
#
#
#
# Elastic Constant Matrix: (Units=GPa)
#
#
# Indices 1 2 3 4 5 6 
#
# 1 73.6720 39.1904 31.8648 0.0000 -16.3161 0.0000
# 2 39.1904 81.9492 48.3109 0.0000 -7.8601 0.0000
# 3 31.8648 48.3109 120.9304 0.0000 -7.9715 0.0000
# 4 0.0000 0.0000 0.0000 32.6306 0.0000 -10.9889
# 5 -16.3161 -7.8601 -7.9715 0.0000 41.6977 0.0000
# 6 0.0000 0.0000 0.0000 -10.9889 0.0000 10.1694
#
#
#
# Elastic Compliance Matrix: (Units=1/GPa)
#
#
# Indices 1 2 3 4 5 6 
#
# 1 0.019830 -0.007932 -0.001665 0.000000 0.005946 0.000000
# 2 -0.007932 0.019271 -0.005645 0.000000 -0.000550 0.000000
# 3 -0.001665 -0.005645 0.010988 0.000000 0.000385 0.000000
# 4 0.000000 0.000000 0.000000 0.048178 0.000000 0.052060
# 5 0.005946 -0.000550 0.000385 0.000000 0.026279 0.000000
# 6 0.000000 0.000000 0.000000 0.052060 0.000000 0.154589
#
#
# Mechanical properties :
#
#
# Convention : Reuss Voigt Hill
#
# Bulk Modulus (GPa) = 51.00248 57.25378 54.12813
# Shear Modulus (GPa) = 15.81516 27.37858 21.59687
#
# Velocity S-wave (km/s) = 2.92916 3.85399 3.42295
# Velocity P-wave (km/s) = 6.25376 7.13200 6.70727
#
# Compressibility (1/GPa) = 0.01960689
#
# Stress axis : x y z
#
# Youngs Moduli (GPa) = 50.42940 51.89202 91.00581
#
# Poissons Ratio (x) = 0.41158 0.15148
# Poissons Ratio (y) = 0.39998 0.51372
# Poissons Ratio (z) = 0.08394 0.29292
#
# Static dielectric constant tensor:
#      x y z
#    x 1.681240 0.000000 -0.039330 
#    y 0.000000 1.626140 0.000000 
#    z -0.039330 0.000000 1.754490 
# 
# From -- ./inp_files/5605.got.cif
#   From: 2010.05.17/outbox.cif.g08.bks.cpg/sg15_3_cif.got.tgz:5605.got - 2010.06.03 18:47:42.
