data_PCOD9300494
_publ_section_title
;
Structure prediction by ZEFSAII (Michael W. Deem and Ramdas Pophale) SiO2 
 PCOD9300494
Probable space group: C 2/C
;
_chemical_formula_sum "Si O2"
_cell_formula_units_Z 48
_cell_length_a 32.918649
_cell_length_b 11.335872
_cell_length_c 8.188790
_cell_angle_alpha 90.000000
_cell_angle_beta 57.376067
_cell_angle_gamma 90.000000
_cell_volume 2573.629177
_symmetry_space_group_name_H-M "C 2/C"
_symmetry_group_IT_number 15
_symmetry_cell_setting 'monoclinic'
loop_
_space_group_symop_operation_xyz
x,y,z
-x,y,1/2-z
-x,-y,-z
x,-y,1/2+z
1/2+x,1/2+y,z
1/2-x,1/2+y,1/2-z
1/2-x,1/2-y,-z
1/2+x,1/2-y,1/2+z
loop_
_atom_site_type_symbol
_atom_site_label
_atom_site_fract_x
_atom_site_fract_y
_atom_site_fract_z
Si Si1 0.821523 0.255872 0.574389
Si Si2 0.896821 0.104590 0.574908
Si Si3 0.036770 0.946689 0.291176
Si Si4 0.682284 0.600965 0.247087
Si Si5 0.787279 0.687008 0.621477
Si Si6 0.709144 0.967534 0.056283
O O1 0.823818 0.175124 0.405244
O O2 0.769082 0.223653 0.763572
O O3 0.820569 0.387506 0.506052
O O4 0.867031 0.216958 0.580794
O O5 0.936347 0.053141 0.362251
O O6 0.857856 0.998443 0.662464
O O7 0.922983 0.120393 0.691699
O O8 0.000000 0.879286 0.250000
O O9 0.000000 0.000000 0.500000
O O10 0.684373 0.693474 0.393238
O O11 0.735073 0.543081 0.121418
O O12 0.803049 0.605141 0.436430
O O13 0.792823 0.599411 0.766607
#
# Coordination Sequence:
#
# PCOD9300494 Si02
#       6
#     8   8   8   8   8   8
#     4   9  17  28  44  65  90 132 157 184 223 260
#     4  11  16  30  50  66  96 118 158 177 227 297
#     4   9  20  32  46  68  92 116 138 197 247 283
#     4   9  17  28  44  65  90 132 157 185 222 257
#     4   9  17  30  42  60  97 128 164 190 212 245
#     4   9  17  30  42  60  97 128 164 189 213 246
#
# _framework density 18.650706
#
# number of rings (size 3 to 8) (size 9 to 14) (size 15 to 20)
#    0.000    2.667    3.333    2.000    0.000    0.000 
#    3.000    1.667    0.000    0.000    0.000    0.000 
#    0.000   26.667    0.000    0.000    0.000    0.000 
#
# Total GULP energy -133854.154946 kJ/mol
# GULP energy per Si atom -5577.256456 kJ/mol
# Density = 1.860826 g / cm^3
# Si number density = 18.650706 Si / 1000 Ang^3
#
#
#
# Elastic Constant Matrix: (Units=GPa)
#
#
# Indices 1 2 3 4 5 6 
#
# 1 148.6387 36.1414 22.0505 0.0000 21.0795 0.0000
# 2 36.1414 69.4081 12.2008 0.0000 5.7973 0.0000
# 3 22.0505 12.2008 41.4933 0.0000 -3.7920 0.0000
# 4 0.0000 0.0000 0.0000 22.8921 0.0000 8.0947
# 5 21.0795 5.7973 -3.7920 0.0000 30.6211 0.0000
# 6 0.0000 0.0000 0.0000 8.0947 0.0000 17.1315
#
#
#
# Elastic Compliance Matrix: (Units=1/GPa)
#
#
# Indices 1 2 3 4 5 6 
#
# 1 0.009087 -0.003449 -0.004376 0.000000 -0.006144 0.000000
# 2 -0.003449 0.016875 -0.003241 0.000000 -0.001222 0.000000
# 3 -0.004376 -0.003241 0.028027 0.000000 0.007097 0.000000
# 4 0.000000 0.000000 0.000000 0.052446 0.000000 -0.024781
# 5 -0.006144 -0.001222 0.007097 0.000000 0.037997 0.000000
# 6 0.000000 0.000000 0.000000 -0.024781 0.000000 0.070081
#
#
# Mechanical properties :
#
#
# Convention : Reuss Voigt Hill
#
# Bulk Modulus (GPa) = 31.39007 44.48060 37.93533
# Shear Modulus (GPa) = 20.22117 26.73878 23.47997
#
# Velocity S-wave (km/s) = 3.29630 3.79048 3.55199
# Velocity P-wave (km/s) = 5.59951 6.56186 6.09969
#
# Compressibility (1/GPa) = 0.03185721
#
# Stress axis : x y z
#
# Youngs Moduli (GPa) = 110.04728 59.25829 35.67928
#
# Poissons Ratio (x) = 0.20439 0.15615
# Poissons Ratio (y) = 0.37957 0.11563
# Poissons Ratio (z) = 0.48161 0.19204
#
# Static dielectric constant tensor:
#      x y z
#    x 1.687700 0.000000 0.073880 
#    y 0.000000 1.642280 0.000000 
#    z 0.073880 0.000000 1.725520 
# 
# From -- ./inp_files/61054.got.cif
#   From: 2010.05.17/outbox.cif.g08.bks.cpg/sg15_31_cif.got.tgz:61054.got - 2010.06.03 18:47:42.
