data_PCOD9300874
_publ_section_title
;
Structure prediction by ZEFSAII (Michael W. Deem and Ramdas Pophale) SiO2 
 PCOD9300874
Probable space group: C 2/C
;
_chemical_formula_sum "Si O2"
_cell_formula_units_Z 48
_cell_length_a 27.057017
_cell_length_b 14.568447
_cell_length_c 11.022202
_cell_angle_alpha 90.000000
_cell_angle_beta 32.265665
_cell_angle_gamma 90.000000
_cell_volume 2319.408831
_symmetry_space_group_name_H-M "C 2/C"
_symmetry_group_IT_number 15
_symmetry_cell_setting 'monoclinic'
loop_
_space_group_symop_operation_xyz
x,y,z
-x,y,1/2-z
-x,-y,-z
x,-y,1/2+z
1/2+x,1/2+y,z
1/2-x,1/2+y,1/2-z
1/2-x,1/2-y,-z
1/2+x,1/2-y,1/2+z
loop_
_atom_site_type_symbol
_atom_site_label
_atom_site_fract_x
_atom_site_fract_y
_atom_site_fract_z
Si Si1 0.785293 0.794414 0.549793
Si Si2 0.317303 0.659538 0.360714
Si Si3 0.197512 0.382225 0.313337
Si Si4 0.192016 0.578780 0.423121
Si Si5 0.957408 0.399335 0.076493
Si Si6 0.016664 0.219444 0.859983
O O1 0.750000 0.750000 0.500000
O O2 0.799346 0.712761 0.619923
O O3 0.715242 0.868584 0.751059
O O4 0.888295 0.834744 0.317416
O O5 0.250000 0.750000 0.500000
O O6 0.292631 0.612922 0.539266
O O7 0.277751 0.599203 0.333713
O O8 0.423302 0.682260 0.115590
O O9 0.183773 0.470575 0.424167
O O10 0.115956 0.390174 0.382259
O O11 0.101133 0.616959 0.679427
O O12 0.000000 0.500000 0.000000
O O13 0.029595 0.319990 0.893979
O O14 0.000000 0.226327 0.750000
#
# Coordination Sequence:
#
# PCOD9300874 Si02
#       6
#     8   8   8   8   8   8
#     4  12  26  42  63  98 135 175 220 274 335 398
#     4  11  19  43  69  89 120 178 220 259 330 396
#     4  11  23  43  64  94 138 167 214 275 339 395
#     4  11  23  40  64  93 131 170 207 272 334 387
#     4  11  23  37  66 102 126 163 216 275 345 407
#     4  12  20  41  69  91 124 175 224 267 322 398
#
# _framework density 20.694928999999998
#
# number of rings (size 3 to 8) (size 9 to 14) (size 15 to 20)
#    0.000    0.667    8.333    1.000    7.000    0.000 
#    0.000    3.333    3.667    0.000    0.000    0.000 
#    0.000    0.000    0.000    0.000    0.000    0.000 
#
# Total GULP energy -134080.611999 kJ/mol
# GULP energy per Si atom -5586.692167 kJ/mol
# Density = 2.064783 g / cm^3
# Si number density = 20.694929 Si / 1000 Ang^3
#
#
#
# Elastic Constant Matrix: (Units=GPa)
#
#
# Indices 1 2 3 4 5 6 
#
# 1 43.6342 -11.6392 21.2775 0.0000 0.3219 0.0000
# 2 -11.6392 31.2321 -5.6195 0.0000 -0.9399 0.0000
# 3 21.2775 -5.6195 125.5588 0.0000 0.5974 0.0000
# 4 0.0000 0.0000 0.0000 39.3648 0.0000 6.0007
# 5 0.3219 -0.9399 0.5974 0.0000 17.8322 0.0000
# 6 0.0000 0.0000 0.0000 6.0007 0.0000 30.4401
#
#
#
# Elastic Compliance Matrix: (Units=1/GPa)
#
#
# Indices 1 2 3 4 5 6 
#
# 1 0.027517 0.009496 -0.004239 0.000000 0.000146 0.000000
# 2 0.009496 0.035604 -0.000024 0.000000 0.001706 0.000000
# 3 -0.004239 -0.000024 0.008683 0.000000 -0.000216 0.000000
# 4 0.000000 0.000000 0.000000 0.026190 0.000000 -0.005163
# 5 0.000146 0.001706 -0.000216 0.000000 0.056173 0.000000
# 6 0.000000 0.000000 0.000000 -0.005163 0.000000 0.033869
#
#
# Mechanical properties :
#
#
# Convention : Reuss Voigt Hill
#
# Bulk Modulus (GPa) = 12.15493 23.16251 17.65872
# Shear Modulus (GPa) = 24.39114 30.62117 27.50615
#
# Velocity S-wave (km/s) = 3.43681 3.85079 3.64967
# Velocity P-wave (km/s) = 4.65134 5.56670 5.12948
#
# Compressibility (1/GPa) = 0.08227118
#
# Stress axis : x y z
#
# Youngs Moduli (GPa) = 36.34152 28.08647 115.17213
#
# Poissons Ratio (x) = -0.26672 0.48818
# Poissons Ratio (y) = -0.34511 0.00275
# Poissons Ratio (z) = 0.15404 0.00067
#
# Static dielectric constant tensor:
#      x y z
#    x 1.737210 0.000000 0.008650 
#    y 0.000000 1.773440 0.000000 
#    z 0.008650 0.000000 1.792860 
# 
# From -- ./inp_files/126833.got.cif
#   From: 2010.05.17/outbox.cif.g08.bks.cpg/sg15_64_cif.got.tgz:126833.got - 2010.06.03 18:47:42.
