data_PCOD9300254
_publ_section_title
;
Structure prediction by ZEFSAII (Michael W. Deem and Ramdas Pophale) SiO2 
 PCOD9300254
Probable space group: C 2/C
;
_chemical_formula_sum "Si O2"
_cell_formula_units_Z 44
_cell_length_a 12.083129
_cell_length_b 7.231403
_cell_length_c 24.939594
_cell_angle_alpha 90.000000
_cell_angle_beta 121.362688
_cell_angle_gamma 90.000000
_cell_volume 1860.772317
_symmetry_space_group_name_H-M "C 2/C"
_symmetry_group_IT_number 15
_symmetry_cell_setting 'monoclinic'
loop_
_space_group_symop_operation_xyz
x,y,z
-x,y,1/2-z
-x,-y,-z
x,-y,1/2+z
1/2+x,1/2+y,z
1/2-x,1/2+y,1/2-z
1/2-x,1/2-y,-z
1/2+x,1/2-y,1/2+z
loop_
_atom_site_type_symbol
_atom_site_label
_atom_site_fract_x
_atom_site_fract_y
_atom_site_fract_z
Si Si1 0.408709 0.231241 0.838676
Si Si2 0.648442 0.201197 0.427504
Si Si3 0.500000 0.675844 0.250000
Si Si4 0.860415 0.807243 0.196088
Si Si5 0.681288 0.234968 0.926410
Si Si6 0.919036 0.411103 0.928986
O O1 0.456754 0.204290 0.789915
O O2 0.259376 0.294197 0.804291
O O3 0.540426 0.333054 0.892052
O O4 0.397938 0.066098 0.878753
O O5 0.750000 0.250000 0.500000
O O6 0.659155 0.295662 0.372790
O O7 0.512182 0.232088 0.422468
O O8 0.660092 0.984159 0.414820
O O9 0.383038 0.525213 0.215280
O O10 0.000000 0.726797 0.250000
O O11 0.786918 0.318140 0.913600
O O12 0.750000 0.250000 0.000000
O O13 0.000000 0.500000 0.000000
#
# Coordination Sequence:
#
# PCOD9300254 Si02
#       6
#     8   8   4   8   8   8
#     4  11  23  45  76  99 145 197 247 306 379 454
#     4  11  25  42  74 107 146 192 247 320 376 450
#     4  10  26  48  76 104 148 206 254 316 378 464
#     4  10  26  47  69 108 149 189 254 310 375 455
#     4  11  24  42  72 107 143 195 244 303 385 446
#     4  11  22  43  71 108 148 186 250 314 372 468
#
# _framework density 23.646094000000002
#
# number of rings (size 3 to 8) (size 9 to 14) (size 15 to 20)
#    0.545    0.727    3.636    2.182    2.545    6.545 
#   13.091    0.000    0.000    0.000    0.000    0.000 
#    0.000    0.000    0.000    0.000    0.000    0.000 
#
# Total GULP energy -122592.220108 kJ/mol
# GULP energy per Si atom -5572.373641 kJ/mol
# Density = 2.359227 g / cm^3
# Si number density = 23.646094 Si / 1000 Ang^3
#
#
#
# Elastic Constant Matrix: (Units=GPa)
#
#
# Indices 1 2 3 4 5 6 
#
# 1 257.9909 32.9636 66.6162 0.0000 7.4489 0.0000
# 2 32.9636 83.5718 21.7552 0.0000 -8.1531 0.0000
# 3 66.6162 21.7552 135.0927 0.0000 -12.4229 0.0000
# 4 0.0000 0.0000 0.0000 37.5296 0.0000 -9.0422
# 5 7.4489 -8.1531 -12.4229 0.0000 53.8088 0.0000
# 6 0.0000 0.0000 0.0000 -9.0422 0.0000 38.3953
#
#
#
# Elastic Compliance Matrix: (Units=1/GPa)
#
#
# Indices 1 2 3 4 5 6 
#
# 1 0.004662 -0.001400 -0.002199 0.000000 -0.001365 0.000000
# 2 -0.001400 0.013023 -0.001234 0.000000 0.001882 0.000000
# 3 -0.002199 -0.001234 0.008885 0.000000 0.002169 0.000000
# 4 0.000000 0.000000 0.000000 0.028249 0.000000 0.006653
# 5 -0.001365 0.001882 0.002169 0.000000 0.019559 0.000000
# 6 0.000000 0.000000 0.000000 0.006653 0.000000 0.027612
#
#
# Mechanical properties :
#
#
# Convention : Reuss Voigt Hill
#
# Bulk Modulus (GPa) = 59.15631 79.92505 69.54068
# Shear Modulus (GPa) = 42.62969 49.63475 46.13222
#
# Velocity S-wave (km/s) = 4.25057 4.58653 4.42174
# Velocity P-wave (km/s) = 7.01153 7.86907 7.45264
#
# Compressibility (1/GPa) = 0.01690437
#
# Stress axis : x y z
#
# Youngs Moduli (GPa) = 214.49105 76.78936 112.55064
#
# Poissons Ratio (x) = 0.10748 0.24751
# Poissons Ratio (y) = 0.30021 0.13888
# Poissons Ratio (z) = 0.47170 0.09475
#
# Static dielectric constant tensor:
#      x y z
#    x 1.999030 0.000000 0.097970 
#    y 0.000000 1.999590 0.000000 
#    z 0.097970 0.000000 1.948170 
# 
# From -- ./inp_files/267863.got.cif
#   From: 2010.05.17/outbox.cif.g08.bks.cpg/sg15_134_cif.got.tgz:267863.got - 2010.06.03 18:47:42.
