data_PCOD9300829
_publ_section_title
;
Structure prediction by ZEFSAII (Michael W. Deem and Ramdas Pophale) SiO2 
 PCOD9300829
Probable space group: C 2/C
;
_chemical_formula_sum "Si O2"
_cell_formula_units_Z 60
_cell_length_a 8.455165
_cell_length_b 24.629854
_cell_length_c 14.922434
_cell_angle_alpha 90.000000
_cell_angle_beta 67.155321
_cell_angle_gamma 90.000000
_cell_volume 2863.831962
_symmetry_space_group_name_H-M "C 2/C"
_symmetry_group_IT_number 15
_symmetry_cell_setting 'monoclinic'
loop_
_space_group_symop_operation_xyz
x,y,z
-x,y,1/2-z
-x,-y,-z
x,-y,1/2+z
1/2+x,1/2+y,z
1/2-x,1/2+y,1/2-z
1/2-x,1/2-y,-z
1/2+x,1/2-y,1/2+z
loop_
_atom_site_type_symbol
_atom_site_label
_atom_site_fract_x
_atom_site_fract_y
_atom_site_fract_z
Si Si1 0.311235 0.206908 0.255196
Si Si2 0.337061 0.698269 0.028875
Si Si3 0.025277 0.033547 0.583526
Si Si4 0.279739 0.877615 0.602832
Si Si5 0.702227 0.337031 0.231281
Si Si6 0.000000 0.041382 0.250000
Si Si7 0.656021 0.101785 0.967890
Si Si8 0.666530 0.356106 0.426008
O O1 0.500000 0.190993 0.250000
O O2 0.172153 0.192971 0.362172
O O3 0.286617 0.174613 0.167995
O O4 0.303254 0.271992 0.264170
O O5 0.250000 0.750000 0.000000
O O6 0.237892 0.645554 0.017043
O O7 0.531331 0.693532 0.953642
O O8 0.223354 0.048851 0.560389
O O9 0.935178 0.089885 0.580003
O O10 0.945828 0.999293 0.682204
O O11 0.000000 0.000000 0.500000
O O12 0.146537 0.919858 0.676224
O O13 0.464628 0.905492 0.545705
O O14 0.230600 0.860771 0.512414
O O15 0.500000 0.353063 0.250000
O O16 0.819019 0.366687 0.132008
O O17 0.777747 0.350065 0.312859
#
# Coordination Sequence:
#
# PCOD9300829 Si02
#       8
#     8   8   8   8   8   4   8   8
#     4  11  22  36  65 101 137 189 232 270 340 420
#     4  11  19  40  68  96 136 187 238 280 330 418
#     4  11  23  46  74  94 126 180 237 286 351 421
#     4  12  27  44  67 106 146 176 229 303 356 416
#     4  11  20  40  70  97 135 193 236 272 338 419
#     4  12  26  48  72  94 134 184 230 284 366 416
#     4  11  24  42  70 103 135 178 237 290 341 421
#     4  11  24  43  68  99 139 180 231 291 350 415
#
# _framework density 20.950949000000001
#
# number of rings (size 3 to 8) (size 9 to 14) (size 15 to 20)
#    0.000    0.800    6.667    2.400    1.867    1.600 
#    0.000    1.333    0.000    0.000    0.000    0.000 
#    0.000    0.000    0.000    0.000    0.000    0.000 
#
# Total GULP energy -167250.116276 kJ/mol
# GULP energy per Si atom -5575.003876 kJ/mol
# Density = 2.090326 g / cm^3
# Si number density = 20.950949 Si / 1000 Ang^3
#
#
#
# Elastic Constant Matrix: (Units=GPa)
#
#
# Indices 1 2 3 4 5 6 
#
# 1 57.8201 23.6125 45.0793 0.0000 5.9976 0.0000
# 2 23.6125 67.9868 36.1437 0.0000 11.3664 0.0000
# 3 45.0793 36.1437 183.0456 0.0000 21.8874 0.0000
# 4 0.0000 0.0000 0.0000 35.1567 0.0000 6.3525
# 5 5.9976 11.3664 21.8874 0.0000 43.7739 0.0000
# 6 0.0000 0.0000 0.0000 6.3525 0.0000 11.1897
#
#
#
# Elastic Compliance Matrix: (Units=1/GPa)
#
#
# Indices 1 2 3 4 5 6 
#
# 1 0.023185 -0.005678 -0.004664 0.000000 0.000630 0.000000
# 2 -0.005678 0.018157 -0.001825 0.000000 -0.003024 0.000000
# 3 -0.004664 -0.001825 0.007274 0.000000 -0.002524 0.000000
# 4 0.000000 0.000000 0.000000 0.031695 0.000000 -0.017994
# 5 0.000630 -0.003024 -0.002524 0.000000 0.024806 0.000000
# 6 0.000000 0.000000 0.000000 -0.017994 0.000000 0.099583
#
#
# Mechanical properties :
#
#
# Convention : Reuss Voigt Hill
#
# Bulk Modulus (GPa) = 41.18463 57.61370 49.39917
# Shear Modulus (GPa) = 21.08574 31.62521 26.35548
#
# Velocity S-wave (km/s) = 3.17588 3.88943 3.55062
# Velocity P-wave (km/s) = 5.75748 6.90863 6.35916
#
# Compressibility (1/GPa) = 0.02428090
#
# Stress axis : x y z
#
# Youngs Moduli (GPa) = 43.13183 55.07608 137.47716
#
# Poissons Ratio (x) = 0.31273 0.64118
# Poissons Ratio (y) = 0.24491 0.25093
# Poissons Ratio (z) = 0.20116 0.10053
#
# Static dielectric constant tensor:
#      x y z
#    x 1.829930 0.000000 -0.015830 
#    y 0.000000 1.931000 0.000000 
#    z -0.015830 0.000000 1.843430 
# 
# From -- ./inp_files/137780.got.cif
#   From: 2010.05.17/outbox.cif.g08.bks.cpg/sg15_69_cif.got.tgz:137780.got - 2010.06.03 18:47:42.
