data_PCOD9300390
_publ_section_title
;
Structure prediction by ZEFSAII (Michael W. Deem and Ramdas Pophale) SiO2 
 PCOD9300390
Probable space group: C 2/C
;
_chemical_formula_sum "Si O2"
_cell_formula_units_Z 40
_cell_length_a 17.860004
_cell_length_b 17.772947
_cell_length_c 12.347117
_cell_angle_alpha 90.000000
_cell_angle_beta 23.399883
_cell_angle_gamma 90.000000
_cell_volume 1556.527407
_symmetry_space_group_name_H-M "C 2/C"
_symmetry_group_IT_number 15
_symmetry_cell_setting 'monoclinic'
loop_
_space_group_symop_operation_xyz
x,y,z
-x,y,1/2-z
-x,-y,-z
x,-y,1/2+z
1/2+x,1/2+y,z
1/2-x,1/2+y,1/2-z
1/2-x,1/2-y,-z
1/2+x,1/2-y,1/2+z
loop_
_atom_site_type_symbol
_atom_site_label
_atom_site_fract_x
_atom_site_fract_y
_atom_site_fract_z
Si Si1 0.789432 0.479005 0.577247
Si Si2 0.809445 0.899640 0.568556
Si Si3 0.593540 0.657234 0.244911
Si Si4 0.554771 0.870683 0.567956
Si Si5 0.753158 0.254108 0.709082
O O1 0.738402 0.449223 0.764009
O O2 0.644820 0.429785 0.697608
O O3 0.792488 0.568416 0.595610
O O4 0.000000 0.462458 0.250000
O O5 0.631662 0.911625 0.726478
O O6 0.809440 0.815853 0.620250
O O7 0.000000 0.913804 0.250000
O O8 0.500000 0.659874 0.250000
O O9 0.768103 0.701821 0.073677
O O10 0.433443 0.707953 0.514879
O O11 0.500000 0.826690 0.750000
O O12 0.615950 0.817731 0.390008
#
# Coordination Sequence:
#
# PCOD9300390 Si02
#       5
#     8   8   8   8   8
#     4  10  26  51  73 107 154 206 254 313 378 452
#     4  11  25  47  77 112 154 196 258 314 382 456
#     4  11  25  44  76 112 154 199 259 309 383 457
#     4  11  25  46  73 103 158 201 252 313 383 451
#     4  11  24  44  75 114 148 201 248 319 381 454
#
# _framework density 25.698231
#
# number of rings (size 3 to 8) (size 9 to 14) (size 15 to 20)
#    0.000    1.200    2.000    1.800    8.400    5.600 
#    3.600    0.000    0.000    0.000    0.000    0.000 
#    0.000    0.000    0.000    0.000    0.000    0.000 
#
# Total GULP energy -111395.929147 kJ/mol
# GULP energy per Si atom -5569.796457 kJ/mol
# Density = 2.563974 g / cm^3
# Si number density = 25.698231 Si / 1000 Ang^3
#
#
#
# Elastic Constant Matrix: (Units=GPa)
#
#
# Indices 1 2 3 4 5 6 
#
# 1 110.8756 60.5323 25.1629 -0.0028 -1.6058 0.0000
# 2 60.5323 156.6447 37.3762 -0.0161 7.7956 0.0078
# 3 25.1629 37.3762 94.0083 -0.0159 13.5076 0.0158
# 4 -0.0028 -0.0161 -0.0159 26.0105 0.0150 2.5846
# 5 -1.6058 7.7956 13.5076 0.0150 31.4706 -0.0055
# 6 0.0000 0.0078 0.0158 2.5846 -0.0055 35.3872
#
#
#
# Elastic Compliance Matrix: (Units=1/GPa)
#
#
# Indices 1 2 3 4 5 6 
#
# 1 0.011782 -0.004240 -0.001817 -0.000004 0.002431 0.000002
# 2 -0.004240 0.008589 -0.002071 0.000005 -0.001455 -0.000002
# 3 -0.001817 -0.002071 0.012668 0.000010 -0.005017 -0.000007
# 4 -0.000004 0.000005 0.000010 0.038727 -0.000025 -0.002829
# 5 0.002431 -0.001455 -0.005017 -0.000025 0.034414 0.000010
# 6 0.000002 -0.000002 -0.000007 -0.002829 0.000010 0.028465
#
#
# Mechanical properties :
#
#
# Convention : Reuss Voigt Hill
#
# Bulk Modulus (GPa) = 59.58641 67.51905 63.55273
# Shear Modulus (GPa) = 31.94990 34.47079 33.21035
#
# Velocity S-wave (km/s) = 3.52983 3.66644 3.59879
# Velocity P-wave (km/s) = 6.31271 6.65241 6.48478
#
# Compressibility (1/GPa) = 0.01678235
#
# Stress axis : x y z
#
# Youngs Moduli (GPa) = 84.87768 116.42875 78.93957
#
# Poissons Ratio (x) = 0.49369 0.14344
# Poissons Ratio (y) = 0.35990 0.16347
# Poissons Ratio (z) = 0.15423 0.24110
#
# Static dielectric constant tensor:
#      x y z
#    x 2.113550 -0.000010 -0.062590 
#    y -0.000010 2.083560 0.000010 
#    z -0.062590 0.000010 2.213930 
# 
# From -- ./inp_files/49965.got.cif
#   From: 2010.05.17/outbox.cif.g08.bks.cpg/sg15_25_cif.got.tgz:49965.got - 2010.06.03 18:47:42.
