data_PCOD9300041
_publ_section_title
;
Structure prediction by ZEFSAII (Michael W. Deem and Ramdas Pophale) SiO2 
 PCOD9300041
Probable space group: C 2/C
;
_chemical_formula_sum "Si O2"
_cell_formula_units_Z 44
_cell_length_a 24.173042
_cell_length_b 6.648552
_cell_length_c 10.331818
_cell_angle_alpha 90.000000
_cell_angle_beta 88.649720
_cell_angle_gamma 90.000000
_cell_volume 1660.024547
_symmetry_space_group_name_H-M "C 2/C"
_symmetry_group_IT_number 15
_symmetry_cell_setting 'monoclinic'
loop_
_space_group_symop_operation_xyz
x,y,z
-x,y,1/2-z
-x,-y,-z
x,-y,1/2+z
1/2+x,1/2+y,z
1/2-x,1/2+y,1/2-z
1/2-x,1/2-y,-z
1/2+x,1/2-y,1/2+z
loop_
_atom_site_type_symbol
_atom_site_label
_atom_site_fract_x
_atom_site_fract_y
_atom_site_fract_z
Si Si1 0.756505 0.567310 0.098087
Si Si2 0.172560 0.781404 0.209091
Si Si3 0.000000 0.326925 0.250000
Si Si4 0.129115 0.607868 0.990387
Si Si5 0.579768 0.529577 0.356427
Si Si6 0.024804 0.370446 0.915473
O O1 0.775154 0.673865 0.229070
O O2 0.701409 0.438973 0.110954
O O3 0.809306 0.430072 0.061717
O O4 0.750000 0.750000 0.000000
O O5 0.132718 0.911795 0.300107
O O6 0.135679 0.608782 0.144082
O O7 0.945975 0.186438 0.244876
O O8 0.002778 0.384696 0.077145
O O9 0.101918 0.824097 0.966511
O O10 0.088495 0.446703 0.930509
O O11 0.533177 0.368073 0.396375
O O12 0.000000 0.416792 0.750000
#
# Coordination Sequence:
#
# PCOD9300041 Si02
#       6
#     8   8   4   8   8   8
#     4  12  25  47  71 108 146 192 250 301 364 441
#     4  12  25  43  75  99 144 192 235 304 366 419
#     4  10  26  42  72 102 140 182 244 282 372 430
#     4  11  26  44  68 107 140 188 246 295 363 437
#     4  11  25  47  69 108 143 188 245 297 365 446
#     4  11  26  44  72 100 144 187 237 304 358 437
#
# _framework density 26.50563
#
# number of rings (size 3 to 8) (size 9 to 14) (size 15 to 20)
#    0.000    0.727    1.818    4.364    7.636    1.455 
#    0.000    0.000    0.000    0.000    0.000    0.000 
#    0.000    0.000    0.000    0.000    0.000    0.000 
#
# Total GULP energy -122867.024476 kJ/mol
# GULP energy per Si atom -5584.864749 kJ/mol
# Density = 2.644530 g / cm^3
# Si number density = 26.505630 Si / 1000 Ang^3
#
#
#
# Elastic Constant Matrix: (Units=GPa)
#
#
# Indices 1 2 3 4 5 6 
#
# 1 117.1704 51.0719 38.9979 0.0000 4.7012 0.0000
# 2 51.0719 164.3693 57.9098 0.0000 8.3211 0.0000
# 3 38.9979 57.9098 98.7397 0.0000 23.0941 0.0000
# 4 0.0000 0.0000 0.0000 56.6357 0.0000 2.7953
# 5 4.7012 8.3211 23.0941 0.0000 55.2066 0.0000
# 6 0.0000 0.0000 0.0000 2.7953 0.0000 56.4155
#
#
#
# Elastic Compliance Matrix: (Units=1/GPa)
#
#
# Indices 1 2 3 4 5 6 
#
# 1 0.010477 -0.002238 -0.002988 0.000000 0.000695 0.000000
# 2 -0.002238 0.008179 -0.004067 0.000000 0.000659 0.000000
# 3 -0.002988 -0.004067 0.014953 0.000000 -0.005388 0.000000
# 4 0.000000 0.000000 0.000000 0.017700 0.000000 -0.000877
# 5 0.000695 0.000659 -0.005388 0.000000 0.020209 0.000000
# 6 0.000000 0.000000 0.000000 -0.000877 0.000000 0.017769
#
#
# Mechanical properties :
#
#
# Convention : Reuss Voigt Hill
#
# Bulk Modulus (GPa) = 66.56492 75.13764 70.85128
# Shear Modulus (GPa) = 44.29496 49.13820 46.71658
#
# Velocity S-wave (km/s) = 4.09241 4.31034 4.20279
# Velocity P-wave (km/s) = 6.89191 7.29256 7.09506
#
# Compressibility (1/GPa) = 0.01502293
#
# Stress axis : x y z
#
# Youngs Moduli (GPa) = 95.45145 122.26924 66.87535
#
# Poissons Ratio (x) = 0.27360 0.19982
# Poissons Ratio (y) = 0.21359 0.27199
# Poissons Ratio (z) = 0.28520 0.49728
#
# Static dielectric constant tensor:
#      x y z
#    x 1.947290 0.000000 -0.021270 
#    y 0.000000 2.131510 0.000000 
#    z -0.021270 0.000000 2.610530 
# 
# From -- ./inp_files/125042.got.cif
#   From: 2010.05.17/outbox.cif.g08.bks.cpg/sg15_63_cif.got.tgz:125042.got - 2010.06.03 18:47:42.
