data_PCOD9300694
_publ_section_title
;
Structure prediction by ZEFSAII (Michael W. Deem and Ramdas Pophale) SiO2 
 PCOD9300694
Probable space group: C 2/C
;
_chemical_formula_sum "Si O2"
_cell_formula_units_Z 48
_cell_length_a 18.955415
_cell_length_b 6.774973
_cell_length_c 17.120175
_cell_angle_alpha 90.000000
_cell_angle_beta 112.204724
_cell_angle_gamma 90.000000
_cell_volume 2035.563889
_symmetry_space_group_name_H-M "C 2/C"
_symmetry_group_IT_number 15
_symmetry_cell_setting 'monoclinic'
loop_
_space_group_symop_operation_xyz
x,y,z
-x,y,1/2-z
-x,-y,-z
x,-y,1/2+z
1/2+x,1/2+y,z
1/2-x,1/2+y,1/2-z
1/2-x,1/2-y,-z
1/2+x,1/2-y,1/2+z
loop_
_atom_site_type_symbol
_atom_site_label
_atom_site_fract_x
_atom_site_fract_y
_atom_site_fract_z
Si Si1 0.417622 0.786536 0.454081
Si Si2 0.920591 0.419736 0.285882
Si Si3 0.804486 0.958481 0.369324
Si Si4 0.180187 0.831215 0.871671
Si Si5 0.170334 0.771857 0.287417
Si Si6 0.933086 0.353283 0.064995
O O1 0.390856 0.903749 0.364056
O O2 0.508899 0.764648 0.476007
O O3 0.371720 0.583712 0.437584
O O4 0.407708 0.934228 0.521932
O O5 0.872954 0.256822 0.219934
O O6 0.008961 0.378476 0.337908
O O7 0.902966 0.631113 0.241474
O O8 0.760089 0.781862 0.394671
O O9 0.830818 0.873536 0.297469
O O10 0.739665 0.119923 0.323583
O O11 0.181601 0.063252 0.857675
O O12 0.136350 0.770383 0.931444
#
# Coordination Sequence:
#
# PCOD9300694 Si02
#       6
#     8   8   8   8   8   8
#     4   9  19  39  63  78 123 161 195 239 306 357
#     4   9  19  36  62  83 110 153 198 241 291 352
#     4  11  20  34  58  88 114 156 196 246 294 355
#     4  11  21  34  62  88 119 147 200 255 293 345
#     4  11  19  35  62  88 112 152 197 243 298 342
#     4   9  20  39  59  86 120 160 192 250 296 358
#
# _framework density 23.580690000000001
#
# number of rings (size 3 to 8) (size 9 to 14) (size 15 to 20)
#    1.000    1.000    3.333    1.500    0.000    0.667 
#    0.000   15.000    7.333    0.000    0.000    0.000 
#    0.000    0.000    0.000    0.000    0.000    0.000 
#
# Total GULP energy -134072.391294 kJ/mol
# GULP energy per Si atom -5586.349637 kJ/mol
# Density = 2.352702 g / cm^3
# Si number density = 23.580690 Si / 1000 Ang^3
#
#
#
# Elastic Constant Matrix: (Units=GPa)
#
#
# Indices 1 2 3 4 5 6 
#
# 1 60.7770 20.6201 -5.6536 0.0000 -11.6234 0.0000
# 2 20.6201 96.6052 8.6694 0.0000 2.2646 0.0000
# 3 -5.6536 8.6694 70.8148 0.0000 18.0778 0.0000
# 4 0.0000 0.0000 0.0000 40.5943 0.0000 11.7784
# 5 -11.6234 2.2646 18.0778 0.0000 23.4695 0.0000
# 6 0.0000 0.0000 0.0000 11.7784 0.0000 27.0421
#
#
#
# Elastic Compliance Matrix: (Units=1/GPa)
#
#
# Indices 1 2 3 4 5 6 
#
# 1 0.019975 -0.004461 -0.000615 0.000000 0.010797 0.000000
# 2 -0.004461 0.011463 -0.001137 0.000000 -0.002440 0.000000
# 3 -0.000615 -0.001137 0.017752 0.000000 -0.013869 0.000000
# 4 0.000000 0.000000 0.000000 0.028198 0.000000 -0.012282
# 5 0.010797 -0.002440 -0.013869 0.000000 0.058874 0.000000
# 6 0.000000 0.000000 0.000000 -0.012282 0.000000 0.042329
#
#
# Mechanical properties :
#
#
# Convention : Reuss Voigt Hill
#
# Bulk Modulus (GPa) = 27.20150 30.60765 28.90458
# Shear Modulus (GPa) = 24.59765 31.85857 28.22811
#
# Velocity S-wave (km/s) = 3.23325 3.67964 3.46365
# Velocity P-wave (km/s) = 5.04966 5.57326 5.31791
#
# Compressibility (1/GPa) = 0.03676268
#
# Stress axis : x y z
#
# Youngs Moduli (GPa) = 50.06265 87.23795 56.33216
#
# Poissons Ratio (x) = 0.38921 0.03467
# Poissons Ratio (y) = 0.22335 0.06403
# Poissons Ratio (z) = 0.03081 0.09915
#
# Static dielectric constant tensor:
#      x y z
#    x 1.933510 0.000000 -0.020410 
#    y 0.000000 1.859050 0.000000 
#    z -0.020410 0.000000 1.946860 
# 
# From -- ./inp_files/217790.got.cif
#   From: 2010.05.17/outbox.cif.g08.bks.cpg/sg15_109_cif.got.tgz:217790.got - 2010.06.03 18:47:42.
