data_PCOD9300406
_publ_section_title
;
Structure prediction by ZEFSAII (Michael W. Deem and Ramdas Pophale) SiO2 
 PCOD9300406
Probable space group: C 2/C
;
_chemical_formula_sum "Si O2"
_cell_formula_units_Z 44
_cell_length_a 18.573741
_cell_length_b 14.138679
_cell_length_c 8.661314
_cell_angle_alpha 90.000000
_cell_angle_beta 59.895505
_cell_angle_gamma 90.000000
_cell_volume 1967.724876
_symmetry_space_group_name_H-M "C 2/C"
_symmetry_group_IT_number 15
_symmetry_cell_setting 'monoclinic'
loop_
_space_group_symop_operation_xyz
x,y,z
-x,y,1/2-z
-x,-y,-z
x,-y,1/2+z
1/2+x,1/2+y,z
1/2-x,1/2+y,1/2-z
1/2-x,1/2-y,-z
1/2+x,1/2-y,1/2+z
loop_
_atom_site_type_symbol
_atom_site_label
_atom_site_fract_x
_atom_site_fract_y
_atom_site_fract_z
Si Si1 0.222921 0.673560 0.898588
Si Si2 0.875271 0.678746 0.780229
Si Si3 0.064419 0.303093 0.966485
Si Si4 0.095145 0.536808 0.207283
Si Si5 0.598157 0.389560 0.353910
Si Si6 0.500000 0.465715 0.750000
O O1 0.185542 0.719680 0.783174
O O2 0.302772 0.612387 0.762132
O O3 0.250000 0.750000 0.000000
O O4 0.151600 0.603380 0.038856
O O5 0.865586 0.565560 0.808021
O O6 0.969409 0.693514 0.620694
O O7 0.875542 0.718061 0.953265
O O8 0.088135 0.403822 0.872271
O O9 0.073233 0.217881 0.836986
O O10 0.000000 0.526445 0.250000
O O11 0.553704 0.408239 0.566744
O O12 0.561764 0.467089 0.278719
#
# Coordination Sequence:
#
# PCOD9300406 Si02
#       6
#     8   8   8   8   8   4
#     4  12  27  44  67 108 143 185 233 295 352 425
#     4  11  24  41  69 106 141 185 233 290 360 433
#     4  11  22  42  70 100 140 189 233 283 360 433
#     4  12  22  44  72 107 150 189 230 291 364 441
#     4  11  26  49  70 101 130 192 242 300 356 414
#     4  10  26  52  74  88 134 186 254 294 352 424
#
# _framework density 22.360852000000001
#
# number of rings (size 3 to 8) (size 9 to 14) (size 15 to 20)
#    0.000    0.727    5.455    2.727    6.364    0.727 
#    0.000    0.000    0.000    0.000    0.000    0.000 
#    0.000    0.000    0.000    0.000    0.000    0.000 
#
# Total GULP energy -123013.558966 kJ/mol
# GULP energy per Si atom -5591.525408 kJ/mol
# Density = 2.230996 g / cm^3
# Si number density = 22.360852 Si / 1000 Ang^3
#
#
#
# Elastic Constant Matrix: (Units=GPa)
#
#
# Indices 1 2 3 4 5 6 
#
# 1 130.8719 20.6828 47.9890 0.0000 15.4719 0.0000
# 2 20.6828 93.6104 3.4523 0.0000 4.2707 0.0000
# 3 47.9890 3.4523 79.1913 0.0000 -13.5135 0.0000
# 4 0.0000 0.0000 0.0000 76.1828 0.0000 -35.8423
# 5 15.4719 4.2707 -13.5135 0.0000 43.4083 0.0000
# 6 0.0000 0.0000 0.0000 -35.8423 0.0000 50.2177
#
#
#
# Elastic Compliance Matrix: (Units=1/GPa)
#
#
# Indices 1 2 3 4 5 6 
#
# 1 0.011698 -0.001989 -0.008111 0.000000 -0.006499 0.000000
# 2 -0.001989 0.011104 0.000693 0.000000 -0.000168 0.000000
# 3 -0.008111 0.000693 0.019004 0.000000 0.008739 0.000000
# 4 0.000000 0.000000 0.000000 0.019763 0.000000 0.014105
# 5 -0.006499 -0.000168 0.008739 0.000000 0.028090 0.000000
# 6 0.000000 0.000000 0.000000 0.014105 0.000000 0.029981
#
#
# Mechanical properties :
#
#
# Convention : Reuss Voigt Hill
#
# Bulk Modulus (GPa) = 43.49526 49.76907 46.63217
# Shear Modulus (GPa) = 34.21882 49.39842 41.80862
#
# Velocity S-wave (km/s) = 3.91615 4.70526 4.32872
# Velocity P-wave (km/s) = 6.31997 7.19894 6.77373
#
# Compressibility (1/GPa) = 0.02299101
#
# Stress axis : x y z
#
# Youngs Moduli (GPa) = 85.48530 90.05642 52.62075
#
# Poissons Ratio (x) = 0.17912 0.42681
# Poissons Ratio (y) = 0.17003 -0.03644
# Poissons Ratio (z) = 0.69338 -0.06237
#
# Static dielectric constant tensor:
#      x y z
#    x 1.815530 0.000000 0.042540 
#    y 0.000000 1.797500 0.000000 
#    z 0.042540 0.000000 1.887280 
# 
# From -- ./inp_files/47387.got.cif
#   From: 2010.05.17/outbox.cif.g08.bks.cpg/sg15_24_cif.got.tgz:47387.got - 2010.06.03 18:47:42.
