data_PCOD9300276
_publ_section_title
;
Structure prediction by ZEFSAII (Michael W. Deem and Ramdas Pophale) SiO2 
 PCOD9300276
Probable space group: C 2/C
;
_chemical_formula_sum "Si O2"
_cell_formula_units_Z 44
_cell_length_a 11.949356
_cell_length_b 16.128622
_cell_length_c 11.691591
_cell_angle_alpha 90.000000
_cell_angle_beta 120.639967
_cell_angle_gamma 90.000000
_cell_volume 1938.693182
_symmetry_space_group_name_H-M "C 2/C"
_symmetry_group_IT_number 15
_symmetry_cell_setting 'monoclinic'
loop_
_space_group_symop_operation_xyz
x,y,z
-x,y,1/2-z
-x,-y,-z
x,-y,1/2+z
1/2+x,1/2+y,z
1/2-x,1/2+y,1/2-z
1/2-x,1/2-y,-z
1/2+x,1/2-y,1/2+z
loop_
_atom_site_type_symbol
_atom_site_label
_atom_site_fract_x
_atom_site_fract_y
_atom_site_fract_z
Si Si1 0.557196 0.152382 0.067180
Si Si2 0.769609 0.658902 0.955501
Si Si3 0.500000 0.500000 0.000000
Si Si4 0.793438 0.537173 0.180959
Si Si5 0.391405 0.666939 0.845143
Si Si6 0.861712 0.645286 0.642082
O O1 0.618621 0.082173 0.179381
O O2 0.554941 0.240041 0.131466
O O3 0.405042 0.142884 0.958508
O O4 0.641097 0.153392 0.995622
O O5 0.655727 0.641799 0.805732
O O6 0.750000 0.750000 0.000000
O O7 0.780982 0.595863 0.065090
O O8 0.356464 0.481659 0.865025
O O9 0.482325 0.599188 0.953068
O O10 0.856043 0.451325 0.173398
O O11 0.263215 0.679114 0.857736
O O12 0.000000 0.683209 0.750000
#
# Coordination Sequence:
#
# PCOD9300276 Si02
#       6
#     8   8   4   8   8   8
#     4  12  25  45  73 104 145 188 244 300 367 440
#     4  12  24  43  74 106 142 186 241 307 361 438
#     4  10  26  48  66 102 148 188 242 298 368 436
#     4  11  26  43  68 105 137 188 238 300 367 431
#     4  11  25  46  71 104 144 191 242 300 367 440
#     4  11  24  44  68 100 140 185 238 293 356 433
#
# _framework density 22.695701
#
# number of rings (size 3 to 8) (size 9 to 14) (size 15 to 20)
#    0.000    0.727    3.636    3.273    5.091    3.636 
#    3.273    0.000    0.000    0.000    0.000    0.000 
#    0.000    0.000    0.000    0.000    0.000    0.000 
#
# Total GULP energy -122493.497004 kJ/mol
# GULP energy per Si atom -5567.886227 kJ/mol
# Density = 2.264404 g / cm^3
# Si number density = 22.695701 Si / 1000 Ang^3
#
#
#
# Elastic Constant Matrix: (Units=GPa)
#
#
# Indices 1 2 3 4 5 6 
#
# 1 73.8096 -10.5114 16.8212 0.0000 15.2860 0.0000
# 2 -10.5114 85.7875 13.7832 0.0000 8.6687 0.0000
# 3 16.8212 13.7832 99.1780 0.0000 5.4203 0.0000
# 4 0.0000 0.0000 0.0000 37.0155 0.0000 -2.1612
# 5 15.2860 8.6687 5.4203 0.0000 47.9166 0.0000
# 6 0.0000 0.0000 0.0000 -2.1612 0.0000 24.2665
#
#
#
# Elastic Compliance Matrix: (Units=1/GPa)
#
#
# Indices 1 2 3 4 5 6 
#
# 1 0.015672 0.002892 -0.002775 0.000000 -0.005209 0.000000
# 2 0.002892 0.012647 -0.002086 0.000000 -0.002975 0.000000
# 3 -0.002775 -0.002086 0.010841 0.000000 0.000036 0.000000
# 4 0.000000 0.000000 0.000000 0.027157 0.000000 0.002419
# 5 -0.005209 -0.002975 0.000036 0.000000 0.023065 0.000000
# 6 0.000000 0.000000 0.000000 0.002419 0.000000 0.041424
#
#
# Mechanical properties :
#
#
# Convention : Reuss Voigt Hill
#
# Bulk Modulus (GPa) = 28.39065 33.21792 30.80428
# Shear Modulus (GPa) = 34.13336 37.75186 35.94261
#
# Velocity S-wave (km/s) = 3.88230 4.08290 3.98386
# Velocity P-wave (km/s) = 5.71251 6.07410 5.89608
#
# Compressibility (1/GPa) = 0.03522287
#
# Stress axis : x y z
#
# Youngs Moduli (GPa) = 63.81005 79.07147 92.23863
#
# Poissons Ratio (x) = -0.22871 0.25599
# Poissons Ratio (y) = -0.18457 0.19237
# Poissons Ratio (z) = 0.17709 0.16491
#
# Static dielectric constant tensor:
#      x y z
#    x 1.938140 0.000000 0.015700 
#    y 0.000000 1.817450 0.000000 
#    z 0.015700 0.000000 1.798400 
# 
# From -- ./inp_files/87954.got.cif
#   From: 2010.05.17/outbox.cif.g08.bks.cpg/sg15_44_cif.got.tgz:87954.got - 2010.06.03 18:47:42.
