data_PCOD9300545
_publ_section_title
;
Structure prediction by ZEFSAII (Michael W. Deem and Ramdas Pophale) SiO2 
 PCOD9300545
Probable space group: C 2/C
;
_chemical_formula_sum "Si O2"
_cell_formula_units_Z 52
_cell_length_a 20.527538
_cell_length_b 30.420656
_cell_length_c 8.177508
_cell_angle_alpha 90.000000
_cell_angle_beta 29.748700
_cell_angle_gamma 90.000000
_cell_volume 2533.846961
_symmetry_space_group_name_H-M "C 2/C"
_symmetry_group_IT_number 15
_symmetry_cell_setting 'monoclinic'
loop_
_space_group_symop_operation_xyz
x,y,z
-x,y,1/2-z
-x,-y,-z
x,-y,1/2+z
1/2+x,1/2+y,z
1/2-x,1/2+y,1/2-z
1/2-x,1/2-y,-z
1/2+x,1/2-y,1/2+z
loop_
_atom_site_type_symbol
_atom_site_label
_atom_site_fract_x
_atom_site_fract_y
_atom_site_fract_z
Si Si1 0.000000 0.210506 0.250000
Si Si2 0.947778 0.360844 0.183318
Si Si3 0.217076 0.726688 0.400491
Si Si4 0.080547 0.169716 0.733366
Si Si5 0.217541 0.388646 0.510513
Si Si6 0.104636 0.521726 0.392779
Si Si7 0.348827 0.927294 0.152542
O O1 0.872528 0.241304 0.512684
O O2 0.993970 0.185059 0.437927
O O3 0.865509 0.316609 0.370159
O O4 0.864369 0.400364 0.285838
O O5 0.000000 0.369289 0.250000
O O6 0.086005 0.358727 0.786033
O O7 0.250000 0.750000 0.500000
O O8 0.338721 0.709857 0.026346
O O9 0.181865 0.134550 0.588609
O O10 0.000000 0.152498 0.750000
O O11 0.181500 0.436935 0.657796
O O12 0.246677 0.399921 0.258312
O O13 0.188506 0.478732 0.259141
O O14 0.000000 0.500000 0.500000
O O15 0.000000 0.538473 0.750000
O O16 0.500000 0.927879 0.750000
#
# Coordination Sequence:
#
# PCOD9300545 Si02
#       7
#     4   8   8   8   8   8   8
#     4  12  26  50  70  94 138 174 230 288 338 402
#     4  11  20  36  62  98 132 163 210 270 334 395
#     4  12  25  45  68  99 128 174 226 280 337 393
#     4  12  27  47  70  98 130 184 230 277 339 402
#     4  11  22  39  63  99 136 172 212 272 338 401
#     4  11  18  32  58  97 137 161 200 260 330 399
#     4   9  20  33  54  97 136 169 204 256 337 398
#
# _framework density 20.522155000000001
#
# number of rings (size 3 to 8) (size 9 to 14) (size 15 to 20)
#    0.000    0.923    8.462    0.923    2.154    0.000 
#    5.538    0.000    0.000    0.923    0.000    0.000 
#    0.000    0.000    0.000    0.000    0.000    0.000 
#
# Total GULP energy -144878.643942 kJ/mol
# GULP energy per Si atom -5572.255536 kJ/mol
# Density = 2.047545 g / cm^3
# Si number density = 20.522155 Si / 1000 Ang^3
#
#
#
# Elastic Constant Matrix: (Units=GPa)
#
#
# Indices 1 2 3 4 5 6 
#
# 1 145.3852 48.0576 24.4357 0.0000 10.4535 0.0000
# 2 48.0576 94.5622 27.8940 0.0000 12.5029 0.0000
# 3 24.4357 27.8940 38.2340 0.0000 5.0627 0.0000
# 4 0.0000 0.0000 0.0000 2.5003 0.0000 -3.3354
# 5 10.4535 12.5029 5.0627 0.0000 25.5236 0.0000
# 6 0.0000 0.0000 0.0000 -3.3354 0.0000 40.0198
#
#
#
# Elastic Compliance Matrix: (Units=1/GPa)
#
#
# Indices 1 2 3 4 5 6 
#
# 1 0.008554 -0.003330 -0.002865 0.000000 -0.001304 0.000000
# 2 -0.003330 0.015363 -0.008487 0.000000 -0.004478 0.000000
# 3 -0.002865 -0.008487 0.034375 0.000000 -0.001487 0.000000
# 4 0.000000 0.000000 0.000000 0.449982 0.000000 0.037503
# 5 -0.001304 -0.004478 -0.001487 0.000000 0.042202 0.000000
# 6 0.000000 0.000000 0.000000 0.037503 0.000000 0.028113
#
#
# Mechanical properties :
#
#
# Convention : Reuss Voigt Hill
#
# Bulk Modulus (GPa) = 34.56881 53.21733 43.89307
# Shear Modulus (GPa) = 8.09590 25.46166 16.77878
#
# Velocity S-wave (km/s) = 1.98835 3.52617 2.86246
# Velocity P-wave (km/s) = 4.70665 6.52429 5.68854
#
# Compressibility (1/GPa) = 0.02892781
#
# Stress axis : x y z
#
# Youngs Moduli (GPa) = 116.90047 65.09159 29.09120
#
# Poissons Ratio (x) = 0.21674 0.08335
# Poissons Ratio (y) = 0.38926 0.24690
# Poissons Ratio (z) = 0.33494 0.55244
#
# Static dielectric constant tensor:
#      x y z
#    x 1.847430 0.000000 0.076770 
#    y 0.000000 1.791820 0.000000 
#    z 0.076770 0.000000 1.861970 
# 
# From -- ./inp_files/59302.got.cif
#   From: 2010.05.17/outbox.cif.g08.bks.cpg/sg15_30_cif.got.tgz:59302.got - 2010.06.03 18:47:42.
