data_PCOD9300189
_publ_section_title
;
Structure prediction by ZEFSAII (Michael W. Deem and Ramdas Pophale) SiO2 
 PCOD9300189
Probable space group: C 2/C
;
_chemical_formula_sum "Si O2"
_cell_formula_units_Z 40
_cell_length_a 14.137731
_cell_length_b 18.299582
_cell_length_c 20.535968
_cell_angle_alpha 90.000000
_cell_angle_beta 159.501570
_cell_angle_gamma 90.000000
_cell_volume 1860.499372
_symmetry_space_group_name_H-M "C 2/C"
_symmetry_group_IT_number 15
_symmetry_cell_setting 'monoclinic'
loop_
_space_group_symop_operation_xyz
x,y,z
-x,y,1/2-z
-x,-y,-z
x,-y,1/2+z
1/2+x,1/2+y,z
1/2-x,1/2+y,1/2-z
1/2-x,1/2-y,-z
1/2+x,1/2-y,1/2+z
loop_
_atom_site_type_symbol
_atom_site_label
_atom_site_fract_x
_atom_site_fract_y
_atom_site_fract_z
Si Si1 0.602993 0.351007 0.657146
Si Si2 0.015661 0.439397 0.836223
Si Si3 0.720215 0.426843 0.942813
Si Si4 0.556077 0.681159 0.862014
Si Si5 0.055936 0.703043 0.998265
O O1 0.423046 0.407820 0.581642
O O2 0.422283 0.287090 0.509210
O O3 0.778348 0.390714 0.714705
O O4 0.803105 0.315932 0.841603
O O5 0.000000 0.454780 0.750000
O O6 0.048354 0.514161 0.896969
O O7 0.286375 0.391451 0.017752
O O8 0.500000 0.457826 0.750000
O O9 0.818267 0.351643 0.973417
O O10 0.500000 0.679782 0.750000
O O11 0.264589 0.689064 0.706236
O O12 0.750000 0.750000 0.000000
#
# Coordination Sequence:
#
# PCOD9300189 Si02
#       5
#     8   8   8   8   8
#     4  11  25  44  69  98 131 174 220 272 328 393
#     4  12  27  42  64  99 133 175 219 273 332 386
#     4  10  26  46  68  94 133 180 217 266 333 397
#     4  12  22  40  64  98 133 171 219 271 327 387
#     4  11  23  43  70  98 130 172 220 273 324 391
#
# _framework density 21.499604999999999
#
# number of rings (size 3 to 8) (size 9 to 14) (size 15 to 20)
#    0.000    0.800    4.000    1.800    5.600    4.000 
#    0.000    0.000    0.000    0.000    0.000    0.000 
#    0.000    0.000    0.000    0.000    0.000    0.000 
#
# Total GULP energy -111910.408243 kJ/mol
# GULP energy per Si atom -5595.520412 kJ/mol
# Density = 2.145067 g / cm^3
# Si number density = 21.499605 Si / 1000 Ang^3
#
#
#
# Elastic Constant Matrix: (Units=GPa)
#
#
# Indices 1 2 3 4 5 6 
#
# 1 84.8192 16.1554 9.3437 0.0107 -10.2861 0.0217
# 2 16.1554 93.6026 19.4307 0.0034 -19.9202 -0.0039
# 3 9.3437 19.4307 50.2818 0.0011 -4.0179 0.0004
# 4 0.0107 0.0034 0.0011 40.7700 -0.0093 2.0098
# 5 -10.2861 -19.9202 -4.0179 -0.0093 21.8055 0.0278
# 6 0.0217 -0.0039 0.0004 2.0098 0.0278 20.1680
#
#
#
# Elastic Compliance Matrix: (Units=1/GPa)
#
#
# Indices 1 2 3 4 5 6 
#
# 1 0.012727 -0.000794 -0.001661 -0.000001 0.004973 -0.000021
# 2 -0.000794 0.014256 -0.004416 0.000002 0.011835 -0.000013
# 3 -0.001661 -0.004416 0.021840 0.000000 -0.000793 0.000002
# 4 -0.000001 0.000002 0.000000 0.024649 0.000015 -0.002456
# 5 0.004973 0.011835 -0.000793 0.000015 0.058872 -0.000086
# 6 -0.000021 -0.000013 0.000002 -0.002456 -0.000086 0.049828
#
#
# Mechanical properties :
#
#
# Convention : Reuss Voigt Hill
#
# Bulk Modulus (GPa) = 28.50485 35.39590 31.95038
# Shear Modulus (GPa) = 24.08408 28.80028 26.44218
#
# Velocity S-wave (km/s) = 3.35059 3.66399 3.51079
# Velocity P-wave (km/s) = 5.31561 5.86507 5.59708
#
# Compressibility (1/GPa) = 0.03508174
#
# Stress axis : x y z
#
# Youngs Moduli (GPa) = 78.57348 70.14663 45.78837
#
# Poissons Ratio (x) = 0.05567 0.07605
# Poissons Ratio (y) = 0.06235 0.20219
# Poissons Ratio (z) = 0.13051 0.30975
#
# Static dielectric constant tensor:
#      x y z
#    x 1.761710 -0.000030 0.001520 
#    y -0.000030 1.775090 -0.000180 
#    z 0.001520 -0.000180 1.751810 
# 
# From -- ./inp_files/38942.got.cif
#   From: 2010.05.17/outbox.cif.g08.bks.cpg/sg15_20_cif.got.tgz:38942.got - 2010.06.03 18:47:42.
