data_PCOD9300235
_publ_section_title
;
Structure prediction by ZEFSAII (Michael W. Deem and Ramdas Pophale) SiO2 
 PCOD9300235
Probable space group: C 2/C
;
_chemical_formula_sum "Si O2"
_cell_formula_units_Z 44
_cell_length_a 21.290663
_cell_length_b 6.199129
_cell_length_c 13.942482
_cell_angle_alpha 90.000000
_cell_angle_beta 99.155096
_cell_angle_gamma 90.000000
_cell_volume 1816.736952
_symmetry_space_group_name_H-M "C 2/C"
_symmetry_group_IT_number 15
_symmetry_cell_setting 'monoclinic'
loop_
_space_group_symop_operation_xyz
x,y,z
-x,y,1/2-z
-x,-y,-z
x,-y,1/2+z
1/2+x,1/2+y,z
1/2-x,1/2+y,1/2-z
1/2-x,1/2-y,-z
1/2+x,1/2-y,1/2+z
loop_
_atom_site_type_symbol
_atom_site_label
_atom_site_fract_x
_atom_site_fract_y
_atom_site_fract_z
Si Si1 0.500000 0.384205 0.750000
Si Si2 0.100618 0.219892 0.822099
Si Si3 0.802371 0.114806 0.223192
Si Si4 0.346976 0.964501 0.010486
Si Si5 0.901792 0.423148 0.318605
Si Si6 0.283543 0.402125 0.416629
O O1 0.547918 0.536431 0.820631
O O2 0.539120 0.234573 0.685761
O O3 0.083150 0.342626 0.719413
O O4 0.165858 0.090369 0.818625
O O5 0.109701 0.402521 0.904068
O O6 0.848294 0.321085 0.235518
O O7 0.741305 0.195337 0.151984
O O8 0.796795 0.064641 0.334308
O O9 0.373644 0.056282 0.917159
O O10 0.341413 0.701748 0.991732
O O11 0.274106 0.991828 0.032646
#
# Coordination Sequence:
#
# PCOD9300235 Si02
#       6
#     4   8   8   8   8   8
#     4  10  26  46  76  90 132 182 238 288 372 372
#     4  11  23  47  68 100 134 181 229 296 336 413
#     4  11  22  41  68  94 150 187 222 267 342 406
#     4  11  24  40  71 103 145 176 235 275 340 409
#     4  11  23  47  68 100 134 181 229 296 336 413
#     4  11  22  38  66 109 140 193 220 268 336 419
#
# _framework density 24.219245999999998
#
# number of rings (size 3 to 8) (size 9 to 14) (size 15 to 20)
#    0.000    1.091    3.636    2.727    0.000    5.091 
#    0.000    3.636    0.000    0.000    0.000    0.000 
#    0.000    0.000    0.000    0.000    0.000    0.000 
#
# Total GULP energy -122824.330134 kJ/mol
# GULP energy per Si atom -5582.924097 kJ/mol
# Density = 2.416412 g / cm^3
# Si number density = 24.219246 Si / 1000 Ang^3
#
#
#
# Elastic Constant Matrix: (Units=GPa)
#
#
# Indices 1 2 3 4 5 6 
#
# 1 91.5995 54.6518 49.7060 0.0000 -15.3978 0.0000
# 2 54.6518 98.8511 50.0155 0.0000 -16.9481 0.0000
# 3 49.7060 50.0155 113.3186 0.0000 -34.4805 0.0000
# 4 0.0000 0.0000 0.0000 36.4272 0.0000 5.7677
# 5 -15.3978 -16.9481 -34.4805 0.0000 18.9588 0.0000
# 6 0.0000 0.0000 0.0000 5.7677 0.0000 54.7352
#
#
#
# Elastic Compliance Matrix: (Units=1/GPa)
#
#
# Indices 1 2 3 4 5 6 
#
# 1 0.017911 -0.007654 -0.004778 0.000000 -0.000985 0.000000
# 2 -0.007654 0.016356 -0.002920 0.000000 0.003094 0.000000
# 3 -0.004778 -0.002920 0.022916 0.000000 0.035186 0.000000
# 4 0.000000 0.000000 0.000000 0.027918 0.000000 -0.002942
# 5 -0.000985 0.003094 0.035186 0.000000 0.118704 0.000000
# 6 0.000000 0.000000 0.000000 -0.002942 0.000000 0.018580
#
#
# Mechanical properties :
#
#
# Convention : Reuss Voigt Hill
#
# Bulk Modulus (GPa) = 37.76719 68.05732 52.91225
# Shear Modulus (GPa) = 19.09027 31.98397 25.53712
#
# Velocity S-wave (km/s) = 2.81058 3.63795 3.25070
# Velocity P-wave (km/s) = 5.11471 6.76814 5.99867
#
# Compressibility (1/GPa) = 0.02647801
#
# Stress axis : x y z
#
# Youngs Moduli (GPa) = 55.83247 61.14052 43.63814
#
# Poissons Ratio (x) = 0.46795 0.20850
# Poissons Ratio (y) = 0.42733 0.12744
# Poissons Ratio (z) = 0.26677 0.17856
#
# Static dielectric constant tensor:
#      x y z
#    x 1.957860 0.000000 0.011370 
#    y 0.000000 1.984040 0.000000 
#    z 0.011370 0.000000 1.979500 
# 
# From -- ./inp_files/170882.got.cif
#   From: 2010.05.17/outbox.cif.g08.bks.cpg/sg15_86_cif.got.tgz:170882.got - 2010.06.03 18:47:42.
