data_PCOD9300559
_publ_section_title
;
Structure prediction by ZEFSAII (Michael W. Deem and Ramdas Pophale) SiO2 
 PCOD9300559
Probable space group: C 2/C
;
_chemical_formula_sum "Si O2"
_cell_formula_units_Z 40
_cell_length_a 16.962378
_cell_length_b 20.798141
_cell_length_c 8.665840
_cell_angle_alpha 90.000000
_cell_angle_beta 135.091121
_cell_angle_gamma 90.000000
_cell_volume 2158.316540
_symmetry_space_group_name_H-M "C 2/C"
_symmetry_group_IT_number 15
_symmetry_cell_setting 'monoclinic'
loop_
_space_group_symop_operation_xyz
x,y,z
-x,y,1/2-z
-x,-y,-z
x,-y,1/2+z
1/2+x,1/2+y,z
1/2-x,1/2+y,1/2-z
1/2-x,1/2-y,-z
1/2+x,1/2-y,1/2+z
loop_
_atom_site_type_symbol
_atom_site_label
_atom_site_fract_x
_atom_site_fract_y
_atom_site_fract_z
Si Si1 0.814724 0.832732 0.817543
Si Si2 0.505408 0.571777 0.072689
Si Si3 0.917015 0.304897 0.493284
Si Si4 0.081023 0.286544 0.491609
Si Si5 0.814594 0.836009 0.189900
O O1 0.886903 0.889116 0.841922
O O2 0.689017 0.824412 0.580632
O O3 0.875955 0.764643 0.876423
O O4 0.807763 0.838036 0.994843
O O5 0.500000 0.571782 0.250000
O O6 0.500000 0.500000 0.000000
O O7 0.398157 0.609610 0.860787
O O8 0.807280 0.340630 0.401355
O O9 0.000000 0.294477 0.750000
O O10 0.997495 0.331968 0.472592
O O11 0.132918 0.231207 0.674101
O O12 0.000000 0.257207 0.250000
#
# Coordination Sequence:
#
# PCOD9300559 Si02
#       5
#     8   8   8   8   8
#     4  11  21  37  60  84 123 158 197 239 293 348
#     4  12  26  43  63  86 114 153 201 247 289 344
#     4  11  18  34  58  89 125 159 190 229 301 354
#     4  11  22  33  56  92 127 156 190 242 296 351
#     4  11  21  36  59  87 120 160 196 239 290 350
#
# _framework density 18.532964
#
# number of rings (size 3 to 8) (size 9 to 14) (size 15 to 20)
#    0.000    0.800    6.000    3.600    2.800    1.600 
#    0.000    0.000    0.000    2.400    0.000    0.000 
#    0.000    0.000    0.000    0.000    0.000    0.000 
#
# Total GULP energy -111641.255858 kJ/mol
# GULP energy per Si atom -5582.062793 kJ/mol
# Density = 1.849078 g / cm^3
# Si number density = 18.532964 Si / 1000 Ang^3
#
#
#
# Elastic Constant Matrix: (Units=GPa)
#
#
# Indices 1 2 3 4 5 6 
#
# 1 87.5732 38.9809 35.9638 0.0000 37.5845 0.0000
# 2 38.9809 90.4073 25.1524 0.0000 17.4391 0.0000
# 3 35.9638 25.1524 103.6330 0.0000 19.9336 0.0000
# 4 0.0000 0.0000 0.0000 19.2336 0.0000 -1.6335
# 5 37.5845 17.4391 19.9336 0.0000 43.0023 0.0000
# 6 0.0000 0.0000 0.0000 -1.6335 0.0000 24.5683
#
#
#
# Elastic Compliance Matrix: (Units=1/GPa)
#
#
# Indices 1 2 3 4 5 6 
#
# 1 0.021785 -0.005534 -0.003279 0.000000 -0.015276 0.000000
# 2 -0.005534 0.013867 -0.001420 0.000000 -0.000128 0.000000
# 3 -0.003279 -0.001420 0.011495 0.000000 -0.001887 0.000000
# 4 0.000000 0.000000 0.000000 0.052288 0.000000 0.003476
# 5 -0.015276 -0.000128 -0.001887 0.000000 0.037533 0.000000
# 6 0.000000 0.000000 0.000000 0.003476 0.000000 0.040934
#
#
# Mechanical properties :
#
#
# Convention : Reuss Voigt Hill
#
# Bulk Modulus (GPa) = 37.48019 53.53420 45.50720
# Shear Modulus (GPa) = 24.12409 29.46192 26.79301
#
# Velocity S-wave (km/s) = 3.61180 3.99143 3.80635
# Velocity P-wave (km/s) = 6.13685 7.08454 6.62766
#
# Compressibility (1/GPa) = 0.02668076
#
# Stress axis : x y z
#
# Youngs Moduli (GPa) = 45.90295 72.11278 86.99531
#
# Poissons Ratio (x) = 0.39909 0.28522
# Poissons Ratio (y) = 0.25404 0.12357
# Poissons Ratio (z) = 0.15049 0.10243
#
# Static dielectric constant tensor:
#      x y z
#    x 1.732900 0.000000 -0.028510 
#    y 0.000000 1.605430 0.000000 
#    z -0.028510 0.000000 1.671130 
# 
# From -- ./inp_files/30179.got.cif
#   From: 2010.05.17/outbox.cif.g08.bks.cpg/sg15_16_cif.got.tgz:30179.got - 2010.06.03 18:47:42.
