data_PCOD9300747
_publ_section_title
;
Structure prediction by ZEFSAII (Michael W. Deem and Ramdas Pophale) SiO2 
 PCOD9300747
Probable space group: C 2/C
;
_chemical_formula_sum "Si O2"
_cell_formula_units_Z 48
_cell_length_a 13.977205
_cell_length_b 19.658814
_cell_length_c 9.185679
_cell_angle_alpha 90.000000
_cell_angle_beta 102.837188
_cell_angle_gamma 90.000000
_cell_volume 2460.911030
_symmetry_space_group_name_H-M "C 2/C"
_symmetry_group_IT_number 15
_symmetry_cell_setting 'monoclinic'
loop_
_space_group_symop_operation_xyz
x,y,z
-x,y,1/2-z
-x,-y,-z
x,-y,1/2+z
1/2+x,1/2+y,z
1/2-x,1/2+y,1/2-z
1/2-x,1/2-y,-z
1/2+x,1/2-y,1/2+z
loop_
_atom_site_type_symbol
_atom_site_label
_atom_site_fract_x
_atom_site_fract_y
_atom_site_fract_z
Si Si1 0.105919 0.777041 0.049392
Si Si2 0.611054 0.848044 0.325483
Si Si3 0.291820 0.417667 0.477800
Si Si4 0.434930 0.347129 0.874991
Si Si5 0.603150 0.508082 0.219543
Si Si6 0.734598 0.753268 0.165986
O O1 0.167961 0.840494 0.006499
O O2 0.162781 0.756290 0.213982
O O3 0.106910 0.713737 0.940157
O O4 0.996105 0.807134 0.018283
O O5 0.500000 0.866563 0.250000
O O6 0.676131 0.908401 0.414849
O O7 0.669213 0.816210 0.205994
O O8 0.339932 0.452855 0.353455
O O9 0.330322 0.459089 0.630057
O O10 0.500000 0.338444 0.750000
O O11 0.425091 0.427430 0.892527
O O12 0.330236 0.312901 0.819814
O O13 0.500000 0.483139 0.250000
O O14 0.750000 0.750000 0.000000
#
# Coordination Sequence:
#
# PCOD9300747 Si02
#       6
#     8   8   8   8   8   8
#     4  11  20  38  65  84 117 163 207 237 307 378
#     4  11  21  43  67  86 115 168 218 243 297 383
#     4  11  23  38  60  90 119 164 203 253 301 365
#     4  11  19  37  62  84 118 163 201 240 297 389
#     4  11  22  38  59  88 125 157 203 247 311 365
#     4  11  22  34  55  94 124 148 194 267 313 340
#
# _framework density 19.504971999999999
#
# number of rings (size 3 to 8) (size 9 to 14) (size 15 to 20)
#    0.000    1.000    6.667    3.500    0.000    3.333 
#    0.000    0.833    0.000    0.000    0.000    0.000 
#    0.000    0.000    0.000    0.000    0.000    0.000 
#
# Total GULP energy -134049.911868 kJ/mol
# GULP energy per Si atom -5585.412995 kJ/mol
# Density = 1.946058 g / cm^3
# Si number density = 19.504972 Si / 1000 Ang^3
#
#
#
# Elastic Constant Matrix: (Units=GPa)
#
#
# Indices 1 2 3 4 5 6 
#
# 1 89.3476 52.6638 66.2591 0.0000 29.8298 0.0000
# 2 52.6638 48.7737 25.9481 0.0000 9.9677 0.0000
# 3 66.2591 25.9481 124.1159 0.0000 28.7767 0.0000
# 4 0.0000 0.0000 0.0000 17.2325 0.0000 3.4437
# 5 29.8298 9.9677 28.7767 0.0000 34.3466 0.0000
# 6 0.0000 0.0000 0.0000 3.4437 0.0000 30.4872
#
#
#
# Elastic Compliance Matrix: (Units=1/GPa)
#
#
# Indices 1 2 3 4 5 6 
#
# 1 0.067326 -0.057823 -0.017607 0.000000 -0.026939 0.000000
# 2 -0.057823 0.073034 0.011009 0.000000 0.019800 0.000000
# 3 -0.017607 0.011009 0.015328 0.000000 -0.000745 0.000000
# 4 0.000000 0.000000 0.000000 0.059370 0.000000 -0.006706
# 5 -0.026939 0.019800 -0.000745 0.000000 0.047390 0.000000
# 6 0.000000 0.000000 0.000000 -0.006706 0.000000 0.033558
#
#
# Mechanical properties :
#
#
# Convention : Reuss Voigt Hill
#
# Bulk Modulus (GPa) = 37.24922 61.33102 49.29012
# Shear Modulus (GPa) = 11.52611 24.23766 17.88189
#
# Velocity S-wave (km/s) = 2.43355 3.52893 3.03113
# Velocity P-wave (km/s) = 5.19951 6.93661 6.12991
#
# Compressibility (1/GPa) = 0.02684620
#
# Stress axis : x y z
#
# Youngs Moduli (GPa) = 14.85309 13.69216 65.24128
#
# Poissons Ratio (x) = 0.79172 1.14872
# Poissons Ratio (y) = 0.85885 -0.71826
# Poissons Ratio (z) = 0.26152 -0.15074
#
# Static dielectric constant tensor:
#      x y z
#    x 1.712820 0.000000 0.044490 
#    y 0.000000 1.680870 0.000000 
#    z 0.044490 0.000000 1.754690 
# 
# From -- ./inp_files/40933.got.cif
#   From: 2010.05.17/outbox.cif.g08.bks.cpg/sg15_21_cif.got.tgz:40933.got - 2010.06.03 18:47:42.
