data_PCOD9300561
_publ_section_title
;
Structure prediction by ZEFSAII (Michael W. Deem and Ramdas Pophale) SiO2 
 PCOD9300561
Probable space group: C 2/C
;
_chemical_formula_sum "Si O2"
_cell_formula_units_Z 64
_cell_length_a 13.389528
_cell_length_b 18.491760
_cell_length_c 14.207058
_cell_angle_alpha 90.000000
_cell_angle_beta 117.573344
_cell_angle_gamma 90.000000
_cell_volume 3118.076298
_symmetry_space_group_name_H-M "C 2/C"
_symmetry_group_IT_number 15
_symmetry_cell_setting 'monoclinic'
loop_
_space_group_symop_operation_xyz
x,y,z
-x,y,1/2-z
-x,-y,-z
x,-y,1/2+z
1/2+x,1/2+y,z
1/2-x,1/2+y,1/2-z
1/2-x,1/2-y,-z
1/2+x,1/2-y,1/2+z
loop_
_atom_site_type_symbol
_atom_site_label
_atom_site_fract_x
_atom_site_fract_y
_atom_site_fract_z
Si Si1 0.941926 0.799976 0.475826
Si Si2 0.755235 0.098517 0.880757
Si Si3 0.649502 0.785647 0.053875
Si Si4 0.645250 0.963152 0.501515
Si Si5 0.689744 0.834178 0.666282
Si Si6 0.604184 0.924378 0.138489
Si Si7 0.371541 0.205373 0.169698
Si Si8 0.380005 0.247681 0.655994
O O1 0.882438 0.874221 0.419348
O O2 0.889922 0.734246 0.392369
O O3 0.901094 0.783479 0.564130
O O4 0.075368 0.787761 0.525263
O O5 0.689720 0.068442 0.761880
O O6 0.690135 0.173477 0.880321
O O7 0.737786 0.046328 0.961535
O O8 0.598932 0.840405 0.107432
O O9 0.778888 0.769350 0.134607
O O10 0.637150 0.817023 0.943120
O O11 0.658114 0.898846 0.583479
O O12 0.521699 0.954058 0.400228
O O13 0.648335 0.034646 0.565119
O O14 0.668614 0.850048 0.766681
O O15 0.812483 0.803690 0.692689
O O16 0.500000 0.224975 0.250000
O O17 0.500000 0.229542 0.750000
#
# Coordination Sequence:
#
# PCOD9300561 Si02
#       8
#     8   8   8   8   8   8   8   8
#     4  11  18  34  59  88 121 146 191 275 311 358
#     4  11  20  35  57  87 121 158 201 255 320 360
#     4  11  22  38  56  92 117 154 209 245 314 371
#     4  11  21  37  54  83 124 163 205 244 297 374
#     4  11  19  35  53  83 118 151 198 245 311 356
#     4  11  23  35  57  82 123 164 201 248 293 378
#     4  11  22  36  59  82 121 160 190 256 299 376
#     4  11  19  30  58  90 118 148 185 265 324 355
#
# _framework density 20.525475
#
# number of rings (size 3 to 8) (size 9 to 14) (size 15 to 20)
#    0.000    1.000    5.000    4.875    0.000    1.000 
#    0.000    1.250    0.000    0.750    0.000    3.500 
#    0.000    0.000    0.000    0.000    0.000    0.000 
#
# Total GULP energy -178718.503092 kJ/mol
# GULP energy per Si atom -5584.953222 kJ/mol
# Density = 2.047876 g / cm^3
# Si number density = 20.525475 Si / 1000 Ang^3
#
#
#
# Elastic Constant Matrix: (Units=GPa)
#
#
# Indices 1 2 3 4 5 6 
#
# 1 82.2733 14.0627 32.7964 0.0000 -4.6791 0.0000
# 2 14.0627 34.8925 15.0758 0.0000 0.2414 0.0000
# 3 32.7964 15.0758 98.8125 0.0000 -11.5680 0.0000
# 4 0.0000 0.0000 0.0000 18.3260 0.0000 0.6657
# 5 -4.6791 0.2414 -11.5680 0.0000 25.6626 0.0000
# 6 0.0000 0.0000 0.0000 0.6657 0.0000 20.5089
#
#
#
# Elastic Compliance Matrix: (Units=1/GPa)
#
#
# Indices 1 2 3 4 5 6 
#
# 1 0.014537 -0.004092 -0.004102 0.000000 0.000840 0.000000
# 2 -0.004092 0.031991 -0.003848 0.000000 -0.002782 0.000000
# 3 -0.004102 -0.003848 0.012653 0.000000 0.004992 0.000000
# 4 0.000000 0.000000 0.000000 0.054632 0.000000 -0.001773
# 5 0.000840 -0.002782 0.004992 0.000000 0.041397 0.000000
# 6 0.000000 0.000000 0.000000 -0.001773 0.000000 0.048817
#
#
# Mechanical properties :
#
#
# Convention : Reuss Voigt Hill
#
# Bulk Modulus (GPa) = 28.49360 37.76089 33.12724
# Shear Modulus (GPa) = 20.84978 23.16905 22.00942
#
# Velocity S-wave (km/s) = 3.19062 3.36340 3.27815
# Velocity P-wave (km/s) = 5.24267 5.78967 5.52295
#
# Compressibility (1/GPa) = 0.03509561
#
# Stress axis : x y z
#
# Youngs Moduli (GPa) = 68.78939 31.25906 79.03081
#
# Poissons Ratio (x) = 0.12792 0.32421
# Poissons Ratio (y) = 0.28150 0.30413
# Poissons Ratio (z) = 0.28219 0.12029
#
# Static dielectric constant tensor:
#      x y z
#    x 1.781000 0.000000 -0.005590 
#    y 0.000000 1.733760 0.000000 
#    z -0.005590 0.000000 1.777920 
# 
# From -- ./inp_files/155202.got.cif
#   From: 2010.05.17/outbox.cif.g08.bks.cpg/sg15_78_cif.got.tgz:155202.got - 2010.06.03 18:47:42.
