data_PCOD9300070
_publ_section_title
;
Structure prediction by ZEFSAII (Michael W. Deem and Ramdas Pophale) SiO2 
 PCOD9300070
Probable space group: C 2/C
;
_chemical_formula_sum "Si O2"
_cell_formula_units_Z 60
_cell_length_a 23.729634
_cell_length_b 7.542272
_cell_length_c 14.872880
_cell_angle_alpha 90.000000
_cell_angle_beta 70.173709
_cell_angle_gamma 90.000000
_cell_volume 2504.096714
_symmetry_space_group_name_H-M "C 2/C"
_symmetry_group_IT_number 15
_symmetry_cell_setting 'monoclinic'
loop_
_space_group_symop_operation_xyz
x,y,z
-x,y,1/2-z
-x,-y,-z
x,-y,1/2+z
1/2+x,1/2+y,z
1/2-x,1/2+y,1/2-z
1/2-x,1/2-y,-z
1/2+x,1/2-y,1/2+z
loop_
_atom_site_type_symbol
_atom_site_label
_atom_site_fract_x
_atom_site_fract_y
_atom_site_fract_z
Si Si1 0.621006 0.406193 0.364411
Si Si2 0.000000 0.409468 0.250000
Si Si3 0.218795 0.664931 0.233406
Si Si4 0.165801 0.922293 0.539986
Si Si5 0.697310 0.992350 0.055414
Si Si6 0.449680 0.957525 0.598767
Si Si7 0.671645 0.875999 0.384390
Si Si8 0.934150 0.064565 0.272029
O O1 0.679082 0.335980 0.278743
O O2 0.639191 0.453620 0.455341
O O3 0.578280 0.235246 0.397828
O O4 0.586069 0.541509 0.319431
O O5 0.019234 0.524122 0.322631
O O6 0.053479 0.268208 0.204945
O O7 0.192711 0.562564 0.160064
O O8 0.286976 0.718957 0.175699
O O9 0.208938 0.546426 0.327119
O O10 0.232135 0.001154 0.506716
O O11 0.175979 0.711112 0.554247
O O12 0.119115 0.000787 0.636205
O O13 0.667022 0.110658 0.994430
O O14 0.500000 0.000000 0.500000
O O15 0.394052 0.092796 0.619184
O O16 0.000000 0.979415 0.250000
#
# Coordination Sequence:
#
# PCOD9300070 Si02
#       8
#     8   4   8   8   8   8   8   8
#     4  11  24  48  69 104 138 184 229 297 347 419
#     4  10  26  44  64 100 124 186 230 278 348 400
#     4  11  24  42  70 102 140 177 234 284 356 415
#     4  11  23  45  72 100 145 179 226 285 357 415
#     4  11  24  42  69 105 138 181 226 291 349 420
#     4  11  25  45  69  98 138 182 237 287 349 412
#     4  11  25  43  67 105 137 185 232 288 354 419
#     4  10  26  46  70  99 137 183 232 285 351 414
#
# _framework density 23.960735
#
# number of rings (size 3 to 8) (size 9 to 14) (size 15 to 20)
#    0.400    0.800    2.667    2.800    6.533    2.667 
#    2.400    0.000    0.000    0.000    0.000    0.000 
#    0.000    0.000    0.000    0.000    0.000    0.000 
#
# Total GULP energy -167900.892345 kJ/mol
# GULP energy per Si atom -5596.696411 kJ/mol
# Density = 2.390620 g / cm^3
# Si number density = 23.960735 Si / 1000 Ang^3
#
#
#
# Elastic Constant Matrix: (Units=GPa)
#
#
# Indices 1 2 3 4 5 6 
#
# 1 128.1340 25.4508 59.2241 0.0000 14.3512 0.0000
# 2 25.4508 51.7791 -1.1015 0.0000 1.5367 0.0000
# 3 59.2241 -1.1015 97.5884 0.0000 14.3675 0.0000
# 4 0.0000 0.0000 0.0000 24.4078 0.0000 6.7668
# 5 14.3512 1.5367 14.3675 0.0000 56.6030 0.0000
# 6 0.0000 0.0000 0.0000 6.7668 0.0000 37.7995
#
#
#
# Elastic Compliance Matrix: (Units=1/GPa)
#
#
# Indices 1 2 3 4 5 6 
#
# 1 0.012723 -0.006383 -0.007629 0.000000 -0.001116 0.000000
# 2 -0.006383 0.022540 0.004134 0.000000 -0.000043 0.000000
# 3 -0.007629 0.004134 0.015225 0.000000 -0.002042 0.000000
# 4 0.000000 0.000000 0.000000 0.043110 0.000000 -0.007718
# 5 -0.001116 -0.000043 -0.002042 0.000000 0.018469 0.000000
# 6 0.000000 0.000000 0.000000 -0.007718 0.000000 0.027837
#
#
# Mechanical properties :
#
#
# Convention : Reuss Voigt Hill
#
# Bulk Modulus (GPa) = 32.53974 49.40535 40.97255
# Shear Modulus (GPa) = 29.42841 36.69059 33.05950
#
# Velocity S-wave (km/s) = 3.50836 3.91740 3.71851
# Velocity P-wave (km/s) = 5.47918 6.41291 5.96435
#
# Compressibility (1/GPa) = 0.03073165
#
# Stress axis : x y z
#
# Youngs Moduli (GPa) = 78.59478 44.36654 65.68349
#
# Poissons Ratio (x) = 0.28320 0.50112
# Poissons Ratio (y) = 0.50168 -0.27157
# Poissons Ratio (z) = 0.59962 -0.18343
#
# Static dielectric constant tensor:
#      x y z
#    x 1.898880 0.000000 -0.004080 
#    y 0.000000 2.006000 0.000000 
#    z -0.004080 0.000000 1.818160 
# 
# From -- ./inp_files/172337.got.cif
#   From: 2010.05.17/outbox.cif.g08.bks.cpg/sg15_87_cif.got.tgz:172337.got - 2010.06.03 18:47:42.
