data_PCOD9300417
_publ_section_title
;
Structure prediction by ZEFSAII (Michael W. Deem and Ramdas Pophale) SiO2 
 PCOD9300417
Probable space group: C 2/C
;
_chemical_formula_sum "Si O2"
_cell_formula_units_Z 60
_cell_length_a 27.090573
_cell_length_b 8.377376
_cell_length_c 19.423790
_cell_angle_alpha 90.000000
_cell_angle_beta 30.606081
_cell_angle_gamma 90.000000
_cell_volume 2244.353289
_symmetry_space_group_name_H-M "C 2/C"
_symmetry_group_IT_number 15
_symmetry_cell_setting 'monoclinic'
loop_
_space_group_symop_operation_xyz
x,y,z
-x,y,1/2-z
-x,-y,-z
x,-y,1/2+z
1/2+x,1/2+y,z
1/2-x,1/2+y,1/2-z
1/2-x,1/2-y,-z
1/2+x,1/2-y,1/2+z
loop_
_atom_site_type_symbol
_atom_site_label
_atom_site_fract_x
_atom_site_fract_y
_atom_site_fract_z
Si Si1 0.058887 0.711813 0.480814
Si Si2 0.311206 0.513357 0.667200
Si Si3 0.870307 0.293080 0.750366
Si Si4 0.079342 0.221903 0.547535
Si Si5 0.172501 0.064631 0.139498
Si Si6 0.652350 0.124531 0.752013
Si Si7 0.832685 0.462672 0.531376
Si Si8 0.000000 0.972614 0.750000
O O1 0.082531 0.900957 0.455551
O O2 0.134358 0.682639 0.327200
O O3 0.091906 0.642367 0.515278
O O4 0.956227 0.632664 0.586420
O O5 0.341334 0.344015 0.599719
O O6 0.242641 0.610632 0.696135
O O7 0.251558 0.494105 0.809307
O O8 0.832470 0.469170 0.816150
O O9 0.984290 0.285853 0.625680
O O10 0.836515 0.125459 0.825935
O O11 0.121606 0.366804 0.539590
O O12 0.046121 0.080235 0.635468
O O13 0.141787 0.204719 0.228394
O O14 0.287160 0.095868 0.014551
O O15 0.098093 0.096085 0.166713
#
# Coordination Sequence:
#
# PCOD9300417 Si02
#       8
#     8   8   8   8   8   8   8   4
#     4  12  22  37  64 103 155 180 229 292 368 469
#     4  12  24  39  69 112 150 187 233 304 383 451
#     4  11  22  39  65 104 143 191 228 290 371 436
#     4  11  25  45  73 101 149 199 246 305 362 435
#     4  11  25  44  72  95 139 192 246 301 357 426
#     4  12  24  41  67 104 151 187 234 297 374 441
#     4  12  22  40  68 110 145 183 237 303 379 443
#     4  10  26  54  70  98 140 200 268 302 344 432
#
# _framework density 26.733761000000001
#
# number of rings (size 3 to 8) (size 9 to 14) (size 15 to 20)
#    0.000    0.533    5.333    4.400    1.867    1.600 
#    0.000    3.333    0.000    0.000    0.000    0.000 
#    0.000    0.000    0.000    0.000    0.000    0.000 
#
# Total GULP energy -167232.374490 kJ/mol
# GULP energy per Si atom -5574.412483 kJ/mol
# Density = 2.667291 g / cm^3
# Si number density = 26.733761 Si / 1000 Ang^3
#
#
#
# Elastic Constant Matrix: (Units=GPa)
#
#
# Indices 1 2 3 4 5 6 
#
# 1 152.5044 1.1097 16.6739 0.1249 -32.1382 0.1784
# 2 1.1097 96.7694 14.7709 -0.7191 -2.8414 -0.9953
# 3 16.6739 14.7709 29.6327 1.7030 -13.8524 2.3646
# 4 0.1249 -0.7191 1.7030 1939.9054 -0.7194 2614.7191
# 5 -32.1382 -2.8414 -13.8524 -0.7194 45.1278 -0.9965
# 6 0.1784 -0.9953 2.3646 2614.7191 -0.9965 3662.3054
#
#
#
# Elastic Compliance Matrix: (Units=1/GPa)
#
#
# Indices 1 2 3 4 5 6 
#
# 1 0.007840 0.000409 -0.002328 0.000001 0.004895 0.000002
# 2 0.000409 0.011260 -0.006276 0.000002 -0.000926 0.000005
# 3 -0.002328 -0.006276 0.043464 -0.000008 0.011288 -0.000021
# 4 0.000001 0.000002 -0.000008 0.013677 0.000001 -0.009765
# 5 0.004895 -0.000926 0.011288 0.000001 0.029052 -0.000001
# 6 0.000002 0.000005 -0.000021 -0.009765 -0.000001 0.007245
#
#
# Mechanical properties :
#
#
# Convention : Reuss Voigt Hill
#
# Bulk Modulus (GPa) = 21.65705 38.22396 29.94051
# Shear Modulus (GPa) = 34.64549 1145.89118 590.26833
#
# Velocity S-wave (km/s) = 3.60383 20.72586 14.87530
# Velocity P-wave (km/s) = 5.04335 24.22968 17.50018
#
# Compressibility (1/GPa) = 0.04617434
#
# Stress axis : x y z
#
# Youngs Moduli (GPa) = 127.54770 88.80937 23.00765
#
# Poissons Ratio (x) = -0.03633 0.05355
# Poissons Ratio (y) = -0.05218 0.14441
# Poissons Ratio (z) = 0.29687 0.55741
#
# Static dielectric constant tensor:
#      x y z
#    x 2.246250 0.000020 0.122930 
#    y 0.000020 2.327750 0.000060 
#    z 0.122930 0.000060 2.443210 
# 
# From -- ./inp_files/255153.got.cif
#   From: 2010.05.17/outbox.cif.g08.bks.cpg/sg15_128_cif.got.tgz:255153.got - 2010.06.03 18:47:42.
