data_PCOD9300030
_publ_section_title
;
Structure prediction by ZEFSAII (Michael W. Deem and Ramdas Pophale) SiO2 
 PCOD9300030
Probable space group: C 2/C
;
_chemical_formula_sum "Si O2"
_cell_formula_units_Z 48
_cell_length_a 10.582823
_cell_length_b 23.991711
_cell_length_c 14.024229
_cell_angle_alpha 90.000000
_cell_angle_beta 148.478361
_cell_angle_gamma 90.000000
_cell_volume 1861.634396
_symmetry_space_group_name_H-M "C 2/C"
_symmetry_group_IT_number 15
_symmetry_cell_setting 'monoclinic'
loop_
_space_group_symop_operation_xyz
x,y,z
-x,y,1/2-z
-x,-y,-z
x,-y,1/2+z
1/2+x,1/2+y,z
1/2-x,1/2+y,1/2-z
1/2-x,1/2-y,-z
1/2+x,1/2-y,1/2+z
loop_
_atom_site_type_symbol
_atom_site_label
_atom_site_fract_x
_atom_site_fract_y
_atom_site_fract_z
Si Si1 0.965907 0.703151 0.340070
Si Si2 0.168240 0.585164 0.264179
Si Si3 0.500000 0.099873 0.750000
Si Si4 0.260292 0.318739 0.196292
Si Si5 0.500000 0.000000 0.500000
Si Si6 0.756301 0.185609 0.035759
Si Si7 0.858304 0.937636 0.330644
O O1 0.794111 0.649704 0.240458
O O2 0.868478 0.762713 0.311710
O O3 0.000000 0.708378 0.250000
O O4 0.214382 0.689286 0.554226
O O5 0.412878 0.555744 0.455136
O O6 0.000000 0.584878 0.250000
O O7 0.038903 0.554276 0.094586
O O8 0.288988 0.141118 0.577876
O O9 0.391483 0.063519 0.766208
O O10 0.385624 0.375733 0.304939
O O11 0.985077 0.322683 0.057310
O O12 0.213859 0.981338 0.295498
O O13 0.000000 0.174802 0.250000
O O14 0.750000 0.250000 0.000000
#
# Coordination Sequence:
#
# PCOD9300030 Si02
#       7
#     8   8   4   8   4   8   8
#     4  11  23  42  68 107 152 192 241 296 370 447
#     4  11  27  50  78 112 149 195 249 314 372 442
#     4  10  26  42  66 106 140 190 242 296 364 432
#     4  11  23  41  68 106 147 194 242 294 367 447
#     4  12  26  54  76 108 142 198 254 304 380 428
#     4  11  22  36  62  98 143 190 235 290 352 424
#     4  11  26  49  75 108 149 189 255 306 370 445
#
# _framework density 25.783794
#
# number of rings (size 3 to 8) (size 9 to 14) (size 15 to 20)
#    0.000    1.000    2.500    3.000    8.167    2.000 
#    3.000    0.000    0.000    0.000    0.000    0.000 
#    0.000    0.000    0.000    0.000    0.000    0.000 
#
# Total GULP energy -133998.023957 kJ/mol
# GULP energy per Si atom -5583.250998 kJ/mol
# Density = 2.572511 g / cm^3
# Si number density = 25.783794 Si / 1000 Ang^3
#
#
#
# Elastic Constant Matrix: (Units=GPa)
#
#
# Indices 1 2 3 4 5 6 
#
# 1 55.2453 2.4710 -23.7309 0.0001 2.3698 0.0002
# 2 2.4710 90.0267 7.5604 0.0000 4.7611 0.0000
# 3 -23.7309 7.5604 150.8818 0.0002 -4.0833 0.0003
# 4 0.0001 0.0000 0.0002 36.7019 0.0001 1.6942
# 5 2.3698 4.7611 -4.0833 0.0001 28.6776 0.0002
# 6 0.0002 0.0000 0.0003 1.6942 0.0002 12.0733
#
#
#
# Elastic Compliance Matrix: (Units=1/GPa)
#
#
# Indices 1 2 3 4 5 6 
#
# 1 0.019500 -0.000738 0.003076 0.000000 -0.001051 0.000000
# 2 -0.000738 0.011291 -0.000734 0.000000 -0.001918 0.000000
# 3 0.003076 -0.000734 0.007172 0.000000 0.000889 0.000000
# 4 0.000000 0.000000 0.000000 0.027424 0.000000 -0.003848
# 5 -0.001051 -0.001918 0.000889 0.000000 0.035402 -0.000001
# 6 0.000000 0.000000 0.000000 -0.003848 -0.000001 0.083368
#
#
# Mechanical properties :
#
#
# Convention : Reuss Voigt Hill
#
# Bulk Modulus (GPa) = 24.28868 29.86165 27.07517
# Shear Modulus (GPa) = 25.68398 36.14743 30.91571
#
# Velocity S-wave (km/s) = 3.15958 3.74832 3.46647
# Velocity P-wave (km/s) = 4.76982 5.50816 5.15223
#
# Compressibility (1/GPa) = 0.04117144
#
# Stress axis : x y z
#
# Youngs Moduli (GPa) = 51.28128 88.56510 139.42609
#
# Poissons Ratio (x) = 0.06536 -0.42881
# Poissons Ratio (y) = 0.03784 0.10230
# Poissons Ratio (z) = -0.15772 0.06498
#
# Static dielectric constant tensor:
#      x y z
#    x 2.236300 0.000000 -0.115810 
#    y 0.000000 2.096510 0.000000 
#    z -0.115810 0.000000 2.072760 
# 
# From -- ./inp_files/148862.got.cif
#   From: 2010.05.17/outbox.cif.g08.bks.cpg/sg15_75_cif.got.tgz:148862.got - 2010.06.03 18:47:42.
