data_PCOD9300042
_publ_section_title
;
Structure prediction by ZEFSAII (Michael W. Deem and Ramdas Pophale) SiO2 
 PCOD9300042
Probable space group: C 2/C
;
_chemical_formula_sum "Si O2"
_cell_formula_units_Z 28
_cell_length_a 15.098455
_cell_length_b 16.300300
_cell_length_c 10.994149
_cell_angle_alpha 90.000000
_cell_angle_beta 155.281736
_cell_angle_gamma 90.000000
_cell_volume 1131.432730
_symmetry_space_group_name_H-M "C 2/C"
_symmetry_group_IT_number 15
_symmetry_cell_setting 'monoclinic'
loop_
_space_group_symop_operation_xyz
x,y,z
-x,y,1/2-z
-x,-y,-z
x,-y,1/2+z
1/2+x,1/2+y,z
1/2-x,1/2+y,1/2-z
1/2-x,1/2-y,-z
1/2+x,1/2-y,1/2+z
loop_
_atom_site_type_symbol
_atom_site_label
_atom_site_fract_x
_atom_site_fract_y
_atom_site_fract_z
Si Si1 0.793568 0.162205 0.119422
Si Si2 0.958481 0.410938 0.393723
Si Si3 0.776728 0.177226 0.698659
Si Si4 0.000000 0.177070 0.750000
O O1 0.741279 0.096465 0.948258
O O2 0.642338 0.130966 0.041138
O O3 0.977151 0.176090 0.037841
O O4 0.750000 0.250000 0.000000
O O5 0.906371 0.362069 0.450657
O O6 0.000000 0.500000 0.500000
O O7 0.868710 0.133213 0.692432
O O8 0.672250 0.262650 0.527553
#
# Coordination Sequence:
#
# PCOD9300042 Si02
#       4
#     8   8   8   4
#     4  11  27  48  86 123 153 213 286 338 399 496
#     4  11  28  49  77 119 169 206 262 343 420 485
#     4  11  25  46  74 114 164 203 271 322 420 469
#     4  10  26  42  72 124 158 200 258 364 384 472
#
# _framework density 24.747385000000001
#
# number of rings (size 3 to 8) (size 9 to 14) (size 15 to 20)
#    0.000    1.143    0.000    2.571   28.000    3.429 
#    0.000    2.857    0.000    0.000    0.000    0.000 
#    0.000    0.000    0.000    0.000    0.000    0.000 
#
# Total GULP energy -78209.129924 kJ/mol
# GULP energy per Si atom -5586.366423 kJ/mol
# Density = 2.469106 g / cm^3
# Si number density = 24.747385 Si / 1000 Ang^3
#
#
#
# Elastic Constant Matrix: (Units=GPa)
#
#
# Indices 1 2 3 4 5 6 
#
# 1 256.5717 73.4793 25.5771 0.0000 -24.7636 0.0000
# 2 73.4793 110.0256 71.7382 0.0000 -17.9976 0.0000
# 3 25.5771 71.7382 183.0142 0.0000 5.6125 0.0000
# 4 0.0000 0.0000 0.0000 31.1778 0.0000 -18.0403
# 5 -24.7636 -17.9976 5.6125 0.0000 45.1130 0.0000
# 6 0.0000 0.0000 0.0000 -18.0403 0.0000 20.2891
#
#
#
# Elastic Compliance Matrix: (Units=1/GPa)
#
#
# Indices 1 2 3 4 5 6 
#
# 1 0.004966 -0.003544 0.000657 0.000000 0.001230 0.000000
# 2 -0.003544 0.016260 -0.006041 0.000000 0.005293 0.000000
# 3 0.000657 -0.006041 0.007833 0.000000 -0.003024 0.000000
# 4 0.000000 0.000000 0.000000 0.066063 0.000000 0.058740
# 5 0.001230 0.005293 -0.003024 0.000000 0.025330 0.000000
# 6 0.000000 0.000000 0.000000 0.058740 0.000000 0.101517
#
#
# Mechanical properties :
#
#
# Convention : Reuss Voigt Hill
#
# Bulk Modulus (GPa) = 89.25112 99.02232 94.13672
# Shear Modulus (GPa) = 20.52915 44.57045 32.54980
#
# Velocity S-wave (km/s) = 2.88331 4.24844 3.63062
# Velocity P-wave (km/s) = 6.87225 8.01036 7.46303
#
# Compressibility (1/GPa) = 0.01120434
#
# Stress axis : x y z
#
# Youngs Moduli (GPa) = 201.38574 61.50184 127.66965
#
# Poissons Ratio (x) = 0.21793 -0.08392
# Poissons Ratio (y) = 0.71362 0.77120
# Poissons Ratio (z) = -0.13237 0.37151
#
# Static dielectric constant tensor:
#      x y z
#    x 2.078640 0.000000 0.023080 
#    y 0.000000 2.022750 0.000000 
#    z 0.023080 0.000000 2.013960 
# 
# From -- ./inp_files/29944.got.cif
#   From: 2010.05.17/outbox.cif.g08.bks.cpg/sg15_15_cif.got.tgz:29944.got - 2010.06.03 18:47:42.
