data_PCOD9300653
_publ_section_title
;
Structure prediction by ZEFSAII (Michael W. Deem and Ramdas Pophale) SiO2 
 PCOD9300653
Probable space group: C 2/C
;
_chemical_formula_sum "Si O2"
_cell_formula_units_Z 56
_cell_length_a 21.667776
_cell_length_b 12.852884
_cell_length_c 22.736981
_cell_angle_alpha 90.000000
_cell_angle_beta 159.311846
_cell_angle_gamma 90.000000
_cell_volume 2237.013143
_symmetry_space_group_name_H-M "C 2/C"
_symmetry_group_IT_number 15
_symmetry_cell_setting 'monoclinic'
loop_
_space_group_symop_operation_xyz
x,y,z
-x,y,1/2-z
-x,-y,-z
x,-y,1/2+z
1/2+x,1/2+y,z
1/2-x,1/2+y,1/2-z
1/2-x,1/2-y,-z
1/2+x,1/2-y,1/2+z
loop_
_atom_site_type_symbol
_atom_site_label
_atom_site_fract_x
_atom_site_fract_y
_atom_site_fract_z
Si Si1 0.699705 0.334934 0.327650
Si Si2 0.842967 0.888701 0.830036
Si Si3 0.693763 0.619108 0.064195
Si Si4 0.148791 0.582230 0.644518
Si Si5 0.815282 0.102196 0.001752
Si Si6 0.342739 0.468168 0.645976
Si Si7 0.219623 0.209318 0.641889
O O1 0.704824 0.224012 0.363799
O O2 0.827486 0.332783 0.384973
O O3 0.760273 0.439012 0.416145
O O4 0.504377 0.355874 0.131513
O O5 0.785485 0.887942 0.846789
O O6 0.728098 0.817903 0.683487
O O7 0.820385 0.008687 0.792699
O O8 0.036515 0.845723 0.993940
O O9 0.739451 0.507832 0.076450
O O10 0.138903 0.638120 0.698079
O O11 0.000000 0.500000 0.500000
O O12 0.754420 0.098502 0.015503
O O13 0.760947 0.194737 0.910371
O O14 0.029741 0.098716 0.198101
O O15 0.500000 0.526732 0.750000
#
# Coordination Sequence:
#
# PCOD9300653 Si02
#       7
#     8   8   8   8   8   8   8
#     4  11  22  36  56  87 124 157 197 244 295 357
#     4  12  22  35  56  88 123 159 198 242 307 370
#     4  11  19  33  56  83 122 159 189 240 297 364
#     4  12  25  37  57  85 124 163 201 248 304 362
#     4   8  18  35  59  81 111 158 201 240 298 343
#     4   7  17  37  59  84 111 159 211 244 290 348
#     4  12  22  38  60  86 124 156 197 248 305 363
#
# _framework density 25.033380000000001
#
# number of rings (size 3 to 8) (size 9 to 14) (size 15 to 20)
#    0.857    0.571    4.286    3.000    2.000    0.571 
#    0.000    0.000    0.000   10.286    0.000    0.000 
#    0.000    0.000    0.000    0.000    0.000    0.000 
#
# Total GULP energy -156356.110632 kJ/mol
# GULP energy per Si atom -5584.146808 kJ/mol
# Density = 2.497640 g / cm^3
# Si number density = 25.033380 Si / 1000 Ang^3
#
#
#
# Elastic Constant Matrix: (Units=GPa)
#
#
# Indices 1 2 3 4 5 6 
#
# 1 70.8072 23.6432 21.0066 -0.0022 -44.5728 -0.0006
# 2 23.6432 115.5699 32.0389 0.0094 -29.2754 0.0042
# 3 21.0066 32.0389 60.2310 0.0030 -25.0861 0.0035
# 4 -0.0022 0.0094 0.0030 42.3117 0.0022 -8.0503
# 5 -44.5728 -29.2754 -25.0861 0.0022 41.5270 0.0005
# 6 -0.0006 0.0042 0.0035 -8.0503 0.0005 32.6107
#
#
#
# Elastic Compliance Matrix: (Units=1/GPa)
#
#
# Indices 1 2 3 4 5 6 
#
# 1 0.045864 0.002992 0.005070 -0.000002 0.054400 -0.000001
# 2 0.002992 0.011262 -0.003193 -0.000003 0.009221 -0.000002
# 3 0.005070 -0.003193 0.023867 -0.000002 0.017609 -0.000003
# 4 -0.000002 -0.000003 -0.000002 0.024799 -0.000007 0.006122
# 5 0.054400 0.009221 0.017609 -0.000007 0.099608 -0.000005
# 6 -0.000001 -0.000002 -0.000003 0.006122 -0.000005 0.032176
#
#
# Mechanical properties :
#
#
# Convention : Reuss Voigt Hill
#
# Bulk Modulus (GPa) = 11.02172 44.44286 27.73229
# Shear Modulus (GPa) = 19.37364 34.61783 26.99574
#
# Velocity S-wave (km/s) = 2.78495 3.72273 3.28745
# Velocity P-wave (km/s) = 3.84104 6.02248 5.05093
#
# Compressibility (1/GPa) = 0.09072995
#
# Stress axis : x y z
#
# Youngs Moduli (GPa) = 21.80357 88.79493 41.89882
#
# Poissons Ratio (x) = -0.26565 -0.21243
# Poissons Ratio (y) = -0.06523 0.13380
# Poissons Ratio (z) = -0.11054 0.28355
#
# Static dielectric constant tensor:
#      x y z
#    x 2.035420 -0.000010 -0.044410 
#    y -0.000010 1.990860 0.000000 
#    z -0.044410 0.000000 2.080800 
# 
# From -- ./inp_files/282108.got.cif
#   From: 2010.05.17/outbox.cif.g08.bks.cpg/sg15_142_cif.got.tgz:282108.got - 2010.06.03 18:47:42.
