data_PCOD9300062
_publ_section_title
;
Structure prediction by ZEFSAII (Michael W. Deem and Ramdas Pophale) SiO2 
 PCOD9300062
Probable space group: C 2/C
;
_chemical_formula_sum "Si O2"
_cell_formula_units_Z 44
_cell_length_a 7.540053
_cell_length_b 26.870868
_cell_length_c 11.261983
_cell_angle_alpha 90.000000
_cell_angle_beta 57.226243
_cell_angle_gamma 90.000000
_cell_volume 1918.541608
_symmetry_space_group_name_H-M "C 2/C"
_symmetry_group_IT_number 15
_symmetry_cell_setting 'monoclinic'
loop_
_space_group_symop_operation_xyz
x,y,z
-x,y,1/2-z
-x,-y,-z
x,-y,1/2+z
1/2+x,1/2+y,z
1/2-x,1/2+y,1/2-z
1/2-x,1/2-y,-z
1/2+x,1/2-y,1/2+z
loop_
_atom_site_type_symbol
_atom_site_label
_atom_site_fract_x
_atom_site_fract_y
_atom_site_fract_z
Si Si1 0.928399 0.865948 0.001754
Si Si2 0.512890 0.733282 0.112562
Si Si3 0.825264 0.953313 0.709787
Si Si4 0.000000 0.531178 0.750000
Si Si5 0.550507 0.098586 0.497271
Si Si6 0.267782 0.331319 0.303254
O O1 0.046731 0.813087 0.948734
O O2 0.069165 0.913519 0.917959
O O3 0.744446 0.866763 0.968961
O O4 0.801227 0.863458 0.171042
O O5 0.500000 0.713653 0.250000
O O6 0.371734 0.782494 0.160023
O O7 0.750000 0.750000 0.000000
O O8 0.000000 0.965369 0.750000
O O9 0.716225 0.999340 0.683927
O O10 0.629718 0.928587 0.851812
O O11 0.979782 0.561221 0.880798
O O12 0.342920 0.132003 0.563260
O O13 0.500000 0.314926 0.250000
#
# Coordination Sequence:
#
# PCOD9300062 Si02
#       6
#     8   8   8   4   8   8
#     4  11  23  46  69  97 136 181 228 284 337 417
#     4  12  22  43  74  96 133 183 230 269 345 423
#     4  10  26  43  69 104 136 180 237 287 348 411
#     4  12  24  44  74 100 140 186 232 292 350 416
#     4  11  22  47  69  95 137 181 232 277 348 418
#     4  12  26  42  67 104 138 180 223 290 350 406
#
# _framework density 22.934087999999999
#
# number of rings (size 3 to 8) (size 9 to 14) (size 15 to 20)
#    0.000    0.727    5.455    2.182    2.545    4.364 
#    1.636    0.000    0.000    0.000    0.000    0.000 
#    0.000    0.000    0.000    0.000    0.000    0.000 
#
# Total GULP energy -123014.241720 kJ/mol
# GULP energy per Si atom -5591.556442 kJ/mol
# Density = 2.288189 g / cm^3
# Si number density = 22.934088 Si / 1000 Ang^3
#
#
#
# Elastic Constant Matrix: (Units=GPa)
#
#
# Indices 1 2 3 4 5 6 
#
# 1 77.2564 43.4420 27.8482 0.0000 -25.6211 0.0000
# 2 43.4420 115.9523 49.6640 0.0000 -21.8804 0.0000
# 3 27.8482 49.6640 105.9574 0.0000 -26.3737 0.0000
# 4 0.0000 0.0000 0.0000 43.0134 0.0000 -12.0448
# 5 -25.6211 -21.8804 -26.3737 0.0000 32.5446 0.0000
# 6 0.0000 0.0000 0.0000 -12.0448 0.0000 38.2195
#
#
#
# Elastic Compliance Matrix: (Units=1/GPa)
#
#
# Indices 1 2 3 4 5 6 
#
# 1 0.019889 -0.005250 0.000316 0.000000 0.012384 0.000000
# 2 -0.005250 0.012598 -0.004316 0.000000 0.000839 0.000000
# 3 0.000316 -0.004316 0.013426 0.000000 0.008227 0.000000
# 4 0.000000 0.000000 0.000000 0.025499 0.000000 0.008036
# 5 0.012384 0.000839 0.008227 0.000000 0.047708 0.000000
# 6 0.000000 0.000000 0.000000 0.008036 0.000000 0.028697
#
#
# Mechanical properties :
#
#
# Convention : Reuss Voigt Hill
#
# Bulk Modulus (GPa) = 36.47995 60.11940 48.29968
# Shear Modulus (GPa) = 28.49737 34.63630 31.56683
#
# Velocity S-wave (km/s) = 3.52884 3.89041 3.71403
# Velocity P-wave (km/s) = 5.70479 6.81552 6.28474
#
# Compressibility (1/GPa) = 0.02741232
#
# Stress axis : x y z
#
# Youngs Moduli (GPa) = 50.27844 79.37626 74.48482
#
# Poissons Ratio (x) = 0.41672 -0.02353
# Poissons Ratio (y) = 0.26396 0.32150
# Poissons Ratio (z) = -0.01588 0.34261
#
# Static dielectric constant tensor:
#      x y z
#    x 1.875450 0.000000 0.009100 
#    y 0.000000 1.867770 0.000000 
#    z 0.009100 0.000000 1.982530 
# 
# From -- ./inp_files/81065.got.cif
#   From: 2010.05.17/outbox.cif.g08.bks.cpg/sg15_41_cif.got.tgz:81065.got - 2010.06.03 18:47:42.
