data_PCOD9300734
_publ_section_title
;
Structure prediction by ZEFSAII (Michael W. Deem and Ramdas Pophale) SiO2 
 PCOD9300734
Probable space group: C 2/C
;
_chemical_formula_sum "Si O2"
_cell_formula_units_Z 52
_cell_length_a 17.666842
_cell_length_b 16.418274
_cell_length_c 11.431555
_cell_angle_alpha 90.000000
_cell_angle_beta 44.431840
_cell_angle_gamma 90.000000
_cell_volume 2321.278068
_symmetry_space_group_name_H-M "C 2/C"
_symmetry_group_IT_number 15
_symmetry_cell_setting 'monoclinic'
loop_
_space_group_symop_operation_xyz
x,y,z
-x,y,1/2-z
-x,-y,-z
x,-y,1/2+z
1/2+x,1/2+y,z
1/2-x,1/2+y,1/2-z
1/2-x,1/2-y,-z
1/2+x,1/2-y,1/2+z
loop_
_atom_site_type_symbol
_atom_site_label
_atom_site_fract_x
_atom_site_fract_y
_atom_site_fract_z
Si Si1 0.741965 0.971980 0.953994
Si Si2 0.124945 0.185854 0.119748
Si Si3 0.000000 0.433505 0.250000
Si Si4 0.996065 0.184846 0.620157
Si Si5 0.912682 0.320661 0.149732
Si Si6 0.182770 0.139681 0.832438
Si Si7 0.158892 0.032532 0.418041
O O1 0.791927 0.884623 0.936526
O O2 0.774207 0.972037 0.779895
O O3 0.613439 0.978582 0.108752
O O4 0.788112 0.030079 0.009255
O O5 0.130227 0.258333 0.204435
O O6 0.000000 0.159376 0.250000
O O7 0.152264 0.210610 0.957319
O O8 0.984579 0.380986 0.148014
O O9 0.031216 0.262443 0.505842
O O10 0.075083 0.107279 0.506755
O O11 0.000000 0.205036 0.750000
O O12 0.873196 0.160231 0.725691
O O13 0.811330 0.366512 0.200888
O O14 0.117618 0.060690 0.952530
#
# Coordination Sequence:
#
# PCOD9300734 Si02
#       7
#     8   8   4   8   8   8   8
#     4  11  25  42  71 101 139 187 233 295 351 424
#     4  11  19  36  66 100 128 166 223 290 351 394
#     4  12  24  44  72 102 138 184 244 290 348 420
#     4  12  26  42  68  99 145 190 229 295 365 428
#     4  12  23  40  66 101 133 177 233 291 345 413
#     4  11  23  40  66  98 136 177 236 289 345 422
#     4  11  23  45  66 104 139 187 239 293 355 423
#
# _framework density 22.401453
#
# number of rings (size 3 to 8) (size 9 to 14) (size 15 to 20)
#    0.000    0.615    6.923    1.846    2.154    4.923 
#    0.000    1.538    0.000    0.000    0.000    0.000 
#    0.000    0.000    0.000    0.000    0.000    0.000 
#
# Total GULP energy -144818.087527 kJ/mol
# GULP energy per Si atom -5569.926443 kJ/mol
# Density = 2.235047 g / cm^3
# Si number density = 22.401453 Si / 1000 Ang^3
#
#
#
# Elastic Constant Matrix: (Units=GPa)
#
#
# Indices 1 2 3 4 5 6 
#
# 1 166.1740 29.4525 66.4637 0.0000 8.8391 0.0000
# 2 29.4525 32.0984 22.2589 0.0000 9.4838 0.0000
# 3 66.4637 22.2589 66.8102 0.0000 17.0973 0.0000
# 4 0.0000 0.0000 0.0000 16.8141 0.0000 6.9207
# 5 8.8391 9.4838 17.0973 0.0000 47.2967 0.0000
# 6 0.0000 0.0000 0.0000 6.9207 0.0000 6.9885
#
#
#
# Elastic Compliance Matrix: (Units=1/GPa)
#
#
# Indices 1 2 3 4 5 6 
#
# 1 0.010433 -0.003441 -0.009818 0.000000 0.002289 0.000000
# 2 -0.003441 0.042206 -0.009518 0.000000 -0.004379 0.000000
# 3 -0.009818 -0.009518 0.029695 0.000000 -0.006991 0.000000
# 4 0.000000 0.000000 0.000000 0.100396 0.000000 -0.099422
# 5 0.002289 -0.004379 -0.006991 0.000000 0.024121 0.000000
# 6 0.000000 0.000000 0.000000 -0.099422 0.000000 0.241549
#
#
# Mechanical properties :
#
#
# Convention : Reuss Voigt Hill
#
# Bulk Modulus (GPa) = 27.18880 55.71476 41.45178
# Shear Modulus (GPa) = 9.87725 24.01368 16.94547
#
# Velocity S-wave (km/s) = 2.10209 3.27765 2.75334
# Velocity P-wave (km/s) = 4.24913 6.26490 5.35276
#
# Compressibility (1/GPa) = 0.03677985
#
# Stress axis : x y z
#
# Youngs Moduli (GPa) = 95.85172 23.69357 33.67541
#
# Poissons Ratio (x) = 0.08152 0.33063
# Poissons Ratio (y) = 0.32980 0.32052
# Poissons Ratio (z) = 0.94109 0.22551
#
# Static dielectric constant tensor:
#      x y z
#    x 1.904160 0.000000 0.012230 
#    y 0.000000 1.906990 0.000000 
#    z 0.012230 0.000000 1.893780 
# 
# From -- ./inp_files/107474.got.cif
#   From: 2010.05.17/outbox.cif.g08.bks.cpg/sg15_54_cif.got.tgz:107474.got - 2010.06.03 18:47:42.
