data_PCOD9300659
_publ_section_title
;
Structure prediction by ZEFSAII (Michael W. Deem and Ramdas Pophale) SiO2 
 PCOD9300659
Probable space group: C 2/C
;
_chemical_formula_sum "Si O2"
_cell_formula_units_Z 48
_cell_length_a 24.741581
_cell_length_b 9.647723
_cell_length_c 9.410290
_cell_angle_alpha 90.000000
_cell_angle_beta 104.847298
_cell_angle_gamma 90.000000
_cell_volume 2171.238582
_symmetry_space_group_name_H-M "C 2/C"
_symmetry_group_IT_number 15
_symmetry_cell_setting 'monoclinic'
loop_
_space_group_symop_operation_xyz
x,y,z
-x,y,1/2-z
-x,-y,-z
x,-y,1/2+z
1/2+x,1/2+y,z
1/2-x,1/2+y,1/2-z
1/2-x,1/2-y,-z
1/2+x,1/2-y,1/2+z
loop_
_atom_site_type_symbol
_atom_site_label
_atom_site_fract_x
_atom_site_fract_y
_atom_site_fract_z
Si Si1 0.555057 0.981719 0.631623
Si Si2 0.096818 0.867764 0.507605
Si Si3 0.797813 0.348695 0.093471
Si Si4 0.500000 0.737684 0.750000
Si Si5 0.898500 0.862339 0.649534
Si Si6 0.000000 0.722828 0.750000
Si Si7 0.666244 0.909986 0.076669
O O1 0.545130 0.841031 0.708335
O O2 0.500000 0.000000 0.500000
O O3 0.546294 0.118263 0.720332
O O4 0.613546 0.997145 0.594817
O O5 0.092711 0.889321 0.675099
O O6 0.136482 0.733454 0.510640
O O7 0.036573 0.841213 0.392124
O O8 0.121004 0.001922 0.446011
O O9 0.853600 0.258514 0.104995
O O10 0.795712 0.376416 0.260993
O O11 0.750000 0.250000 0.000000
O O12 0.802975 0.496938 0.018942
O O13 0.959533 0.818489 0.630078
#
# Coordination Sequence:
#
# PCOD9300659 Si02
#       7
#     8   8   8   4   8   4   8
#     4  11  19  33  64  97 133 178 223 277 338 419
#     4  11  24  40  60  95 140 182 227 279 339 418
#     4  11  26  48  74 100 133 181 234 296 346 407
#     4  11  21  34  60 100 136 186 230 266 352 412
#     4  11  25  42  62  97 141 179 230 280 354 406
#     4  11  19  36  60  92 138 180 214 282 334 410
#     4  11  23  47  70 102 135 178 236 283 348 417
#
# _framework density 22.107195999999998
#
# number of rings (size 3 to 8) (size 9 to 14) (size 15 to 20)
#    0.000    1.000    5.000    2.500    0.000    9.333 
#    0.000    1.667    0.000    0.000    0.000    0.000 
#    0.000    0.000    0.000    0.000    0.000    0.000 
#
# Total GULP energy -134056.327089 kJ/mol
# GULP energy per Si atom -5585.680295 kJ/mol
# Density = 2.205688 g / cm^3
# Si number density = 22.107196 Si / 1000 Ang^3
#
#
#
# Elastic Constant Matrix: (Units=GPa)
#
#
# Indices 1 2 3 4 5 6 
#
# 1 31.6333 9.1123 24.6817 0.0000 13.7824 0.0000
# 2 9.1123 102.2675 47.5355 0.0000 -12.1836 0.0000
# 3 24.6817 47.5355 135.8841 0.0000 14.7849 0.0000
# 4 0.0000 0.0000 0.0000 40.9377 0.0000 -1.5602
# 5 13.7824 -12.1836 14.7849 0.0000 30.5850 0.0000
# 6 0.0000 0.0000 0.0000 -1.5602 0.0000 26.3888
#
#
#
# Elastic Compliance Matrix: (Units=1/GPa)
#
#
# Indices 1 2 3 4 5 6 
#
# 1 0.044993 -0.004260 -0.004530 0.000000 -0.019782 0.000000
# 2 -0.004260 0.013694 -0.005086 0.000000 0.009834 0.000000
# 3 -0.004530 -0.005086 0.010513 0.000000 -0.005067 0.000000
# 4 0.000000 0.000000 0.000000 0.024483 0.000000 0.001448
# 5 -0.019782 0.009834 -0.005067 0.000000 0.047977 0.000000
# 6 0.000000 0.000000 0.000000 0.001448 0.000000 0.037980
#
#
# Mechanical properties :
#
#
# Convention : Reuss Voigt Hill
#
# Bulk Modulus (GPa) = 24.12764 48.04930 36.08847
# Shear Modulus (GPa) = 22.60328 32.14599 27.37464
#
# Velocity S-wave (km/s) = 3.20103 3.81740 3.52272
# Velocity P-wave (km/s) = 4.95981 6.41965 5.73636
#
# Compressibility (1/GPa) = 0.04144624
#
# Stress axis : x y z
#
# Youngs Moduli (GPa) = 22.22585 73.02652 95.12375
#
# Poissons Ratio (x) = 0.31111 0.43087
# Poissons Ratio (y) = 0.09469 0.48384
# Poissons Ratio (z) = 0.10067 0.37145
#
# Static dielectric constant tensor:
#      x y z
#    x 1.869070 0.000000 0.008740 
#    y 0.000000 1.886200 0.000000 
#    z 0.008740 0.000000 1.913650 
# 
# From -- ./inp_files/121648.got.cif
#   From: 2010.05.17/outbox.cif.g08.bks.cpg/sg15_61_cif.got.tgz:121648.got - 2010.06.03 18:47:42.
