data_PCOD9300671
_publ_section_title
;
Structure prediction by ZEFSAII (Michael W. Deem and Ramdas Pophale) SiO2 
 PCOD9300671
Probable space group: C 2/C
;
_chemical_formula_sum "Si O2"
_cell_formula_units_Z 56
_cell_length_a 24.390275
_cell_length_b 19.386898
_cell_length_c 11.720290
_cell_angle_alpha 90.000000
_cell_angle_beta 149.360142
_cell_angle_gamma 90.000000
_cell_volume 2824.404842
_symmetry_space_group_name_H-M "C 2/C"
_symmetry_group_IT_number 15
_symmetry_cell_setting 'monoclinic'
loop_
_space_group_symop_operation_xyz
x,y,z
-x,y,1/2-z
-x,-y,-z
x,-y,1/2+z
1/2+x,1/2+y,z
1/2-x,1/2+y,1/2-z
1/2-x,1/2-y,-z
1/2+x,1/2-y,1/2+z
loop_
_atom_site_type_symbol
_atom_site_label
_atom_site_fract_x
_atom_site_fract_y
_atom_site_fract_z
Si Si1 0.690308 0.347285 0.177009
Si Si2 0.094501 0.905837 0.601087
Si Si3 0.355884 0.547212 0.718124
Si Si4 0.141479 0.215176 0.349069
Si Si5 0.568022 0.787422 0.539048
Si Si6 0.767680 0.867197 0.870503
Si Si7 0.892944 0.724894 0.129932
O O1 0.655817 0.417286 0.178096
O O2 0.622506 0.286853 0.115939
O O3 0.813866 0.328896 0.425621
O O4 0.663585 0.333849 0.997156
O O5 0.096218 0.832877 0.667752
O O6 0.162302 0.896822 0.607629
O O7 0.971281 0.930898 0.370812
O O8 0.148200 0.965728 0.773421
O O9 0.269627 0.579912 0.478679
O O10 0.250000 0.250000 0.500000
O O11 0.053844 0.274510 0.217970
O O12 0.647129 0.843159 0.623458
O O13 0.576078 0.800065 0.688807
O O14 0.827322 0.796860 0.018143
O O15 0.000000 0.736870 0.250000
#
# Coordination Sequence:
#
# PCOD9300671 Si02
#       7
#     8   8   8   8   8   8   8
#     4  11  21  36  58  88 127 157 198 258 311 372
#     4  11  25  37  61  90 128 167 202 257 312 378
#     4  11  22  40  59  91 124 167 209 251 309 376
#     4  12  24  40  61  97 127 156 205 265 328 370
#     4  11  20  37  61  90 120 161 206 257 314 372
#     4  11  20  39  61  88 121 163 212 253 306 378
#     4  11  19  34  61  89 121 159 206 254 303 365
#
# _framework density 19.827186000000001
#
# number of rings (size 3 to 8) (size 9 to 14) (size 15 to 20)
#    0.000    0.857    4.286    6.000    2.000    0.000 
#    0.000    0.000    0.000    2.571    0.000    0.000 
#    0.000    0.000    0.000    0.000    0.000    0.000 
#
# Total GULP energy -156434.653236 kJ/mol
# GULP energy per Si atom -5586.951901 kJ/mol
# Density = 1.978206 g / cm^3
# Si number density = 19.827186 Si / 1000 Ang^3
#
#
#
# Elastic Constant Matrix: (Units=GPa)
#
#
# Indices 1 2 3 4 5 6 
#
# 1 92.0971 15.5409 28.9574 0.0000 -2.7160 0.0000
# 2 15.5409 57.7204 19.7219 0.0000 12.9139 0.0000
# 3 28.9574 19.7219 73.1002 0.0000 8.8650 0.0000
# 4 0.0000 0.0000 0.0000 18.7573 0.0000 3.8365
# 5 -2.7160 12.9139 8.8650 0.0000 31.2460 0.0000
# 6 0.0000 0.0000 0.0000 3.8365 0.0000 21.1991
#
#
#
# Elastic Compliance Matrix: (Units=1/GPa)
#
#
# Indices 1 2 3 4 5 6 
#
# 1 0.012932 -0.002627 -0.004849 0.000000 0.003586 0.000000
# 2 -0.002627 0.021055 -0.003683 0.000000 -0.007885 0.000000
# 3 -0.004849 -0.003683 0.017047 0.000000 -0.003736 0.000000
# 4 0.000000 0.000000 0.000000 0.055362 0.000000 -0.010019
# 5 0.003586 -0.007885 -0.003736 0.000000 0.036635 0.000000
# 6 0.000000 0.000000 0.000000 -0.010019 0.000000 0.048985
#
#
# Mechanical properties :
#
#
# Convention : Reuss Voigt Hill
#
# Bulk Modulus (GPa) = 34.82468 39.03978 36.93223
# Shear Modulus (GPa) = 22.33074 24.82031 23.57553
#
# Velocity S-wave (km/s) = 3.35963 3.54196 3.45200
# Velocity P-wave (km/s) = 5.71417 6.03822 5.87843
#
# Compressibility (1/GPa) = 0.02871527
#
# Stress axis : x y z
#
# Youngs Moduli (GPa) = 77.32917 47.49451 58.66004
#
# Poissons Ratio (x) = 0.12478 0.28442
# Poissons Ratio (y) = 0.20317 0.21607
# Poissons Ratio (z) = 0.37494 0.17494
#
# Static dielectric constant tensor:
#      x y z
#    x 1.733400 0.000000 -0.013340 
#    y 0.000000 1.685070 0.000000 
#    z -0.013340 0.000000 1.744900 
# 
# From -- ./inp_files/119843.got.cif
#   From: 2010.05.17/outbox.cif.g08.bks.cpg/sg15_60_cif.got.tgz:119843.got - 2010.06.03 18:47:42.
