data_PCOD9300183
_publ_section_title
;
Structure prediction by ZEFSAII (Michael W. Deem and Ramdas Pophale) SiO2 
 PCOD9300183
Probable space group: C 2/C
;
_chemical_formula_sum "Si O2"
_cell_formula_units_Z 28
_cell_length_a 11.989814
_cell_length_b 10.110252
_cell_length_c 9.610223
_cell_angle_alpha 90.000000
_cell_angle_beta 112.315485
_cell_angle_gamma 90.000000
_cell_volume 1077.705057
_symmetry_space_group_name_H-M "C 2/C"
_symmetry_group_IT_number 15
_symmetry_cell_setting 'monoclinic'
loop_
_space_group_symop_operation_xyz
x,y,z
-x,y,1/2-z
-x,-y,-z
x,-y,1/2+z
1/2+x,1/2+y,z
1/2-x,1/2+y,1/2-z
1/2-x,1/2-y,-z
1/2+x,1/2-y,1/2+z
loop_
_atom_site_type_symbol
_atom_site_label
_atom_site_fract_x
_atom_site_fract_y
_atom_site_fract_z
Si Si1 0.500000 0.263709 0.250000
Si Si2 0.185889 0.038633 0.702076
Si Si3 0.563369 0.861229 0.057980
Si Si4 0.864358 0.161452 0.088065
O O1 0.405593 0.352507 0.285484
O O2 0.423567 0.188849 0.094872
O O3 0.152009 0.035220 0.523557
O O4 0.317970 0.096353 0.799826
O O5 0.155981 0.904996 0.771012
O O6 0.475404 0.757199 0.096353
O O7 0.500000 0.000000 0.000000
O O8 0.750000 0.250000 0.000000
#
# Coordination Sequence:
#
# PCOD9300183 Si02
#       4
#     4   8   8   8
#     4  10  26  46  68 106 140 196 246 300 384 424
#     4  11  26  47  76 105 151 187 253 307 366 446
#     4  11  24  44  74 105 146 195 245 306 369 444
#     4  11  26  48  75 113 146 200 248 306 379 435
#
# _framework density 25.981134000000001
#
# number of rings (size 3 to 8) (size 9 to 14) (size 15 to 20)
#    0.000    1.143    2.857    0.857    4.000   10.286 
#    0.000    0.000    0.000    0.000    0.000    0.000 
#    0.000    0.000    0.000    0.000    0.000    0.000 
#
# Total GULP energy -78365.620374 kJ/mol
# GULP energy per Si atom -5597.544312 kJ/mol
# Density = 2.592200 g / cm^3
# Si number density = 25.981134 Si / 1000 Ang^3
#
#
#
# Elastic Constant Matrix: (Units=GPa)
#
#
# Indices 1 2 3 4 5 6 
#
# 1 123.7816 41.3416 41.5199 0.0000 39.0486 0.0000
# 2 41.3416 126.5176 44.0648 0.0000 14.5599 0.0000
# 3 41.5199 44.0648 101.3982 0.0000 12.4997 0.0000
# 4 0.0000 0.0000 0.0000 51.2598 0.0000 12.6182
# 5 39.0486 14.5599 12.4997 0.0000 46.3214 0.0000
# 6 0.0000 0.0000 0.0000 12.6182 0.0000 34.5683
#
#
#
# Elastic Compliance Matrix: (Units=1/GPa)
#
#
# Indices 1 2 3 4 5 6 
#
# 1 0.012734 -0.001977 -0.003215 0.000000 -0.009246 0.000000
# 2 -0.001977 0.009785 -0.003381 0.000000 -0.000496 0.000000
# 3 -0.003215 -0.003381 0.012602 0.000000 0.000373 0.000000
# 4 0.000000 0.000000 0.000000 0.021434 0.000000 -0.007824
# 5 -0.009246 -0.000496 0.000373 0.000000 0.029438 0.000000
# 6 0.000000 0.000000 0.000000 -0.007824 0.000000 0.031784
#
#
# Mechanical properties :
#
#
# Convention : Reuss Voigt Hill
#
# Bulk Modulus (GPa) = 55.63759 67.28331 61.46045
# Shear Modulus (GPa) = 35.48177 41.41464 38.44821
#
# Velocity S-wave (km/s) = 3.69951 3.99686 3.85106
# Velocity P-wave (km/s) = 6.30156 6.87409 6.59404
#
# Compressibility (1/GPa) = 0.01797346
#
# Stress axis : x y z
#
# Youngs Moduli (GPa) = 78.52768 102.19740 79.35089
#
# Poissons Ratio (x) = 0.20207 0.25514
# Poissons Ratio (y) = 0.15527 0.26832
# Poissons Ratio (z) = 0.25250 0.34558
#
# Static dielectric constant tensor:
#      x y z
#    x 2.037660 0.000000 -0.122290 
#    y 0.000000 2.021080 0.000000 
#    z -0.122290 0.000000 2.470360 
# 
# From -- ./inp_files/36510.got.cif
#   From: 2010.05.17/outbox.cif.g08.bks.cpg/sg15_19_cif.got.tgz:36510.got - 2010.06.03 18:47:42.
