data_PCOD9300150
_publ_section_title
;
Structure prediction by ZEFSAII (Michael W. Deem and Ramdas Pophale) SiO2 
 PCOD9300150
Probable space group: C 2/C
;
_chemical_formula_sum "Si O2"
_cell_formula_units_Z 40
_cell_length_a 13.349250
_cell_length_b 17.035943
_cell_length_c 19.643492
_cell_angle_alpha 90.000000
_cell_angle_beta 155.637121
_cell_angle_gamma 90.000000
_cell_volume 1842.810910
_symmetry_space_group_name_H-M "C 2/C"
_symmetry_group_IT_number 15
_symmetry_cell_setting 'monoclinic'
loop_
_space_group_symop_operation_xyz
x,y,z
-x,y,1/2-z
-x,-y,-z
x,-y,1/2+z
1/2+x,1/2+y,z
1/2-x,1/2+y,1/2-z
1/2-x,1/2-y,-z
1/2+x,1/2-y,1/2+z
loop_
_atom_site_type_symbol
_atom_site_label
_atom_site_fract_x
_atom_site_fract_y
_atom_site_fract_z
Si Si1 0.871627 0.349454 0.338680
Si Si2 0.519105 0.530176 0.933772
Si Si3 0.870374 0.670814 0.102539
Si Si4 0.103573 0.893409 0.883956
Si Si5 0.364737 0.197380 0.362556
O O1 0.737060 0.433065 0.250250
O O2 0.689598 0.287353 0.190917
O O3 0.131831 0.357192 0.463292
O O4 0.941347 0.318866 0.457495
O O5 0.602387 0.456107 0.942241
O O6 0.500000 0.500000 0.000000
O O7 0.708734 0.598620 0.029152
O O8 0.000000 0.698999 0.250000
O O9 0.051094 0.649791 0.152390
O O10 0.750000 0.750000 0.000000
O O11 0.000000 0.931106 0.750000
O O12 0.897377 0.830824 0.774327
#
# Coordination Sequence:
#
# PCOD9300150 Si02
#       5
#     8   8   8   8   8
#     4  11  26  47  75 108 147 193 248 310 372 454
#     4  12  29  46  71 109 151 197 245 312 385 447
#     4  12  26  44  73 107 145 193 249 311 372 445
#     4  10  26  45  72 102 146 197 240 303 380 452
#     4  11  24  47  75 108 145 192 253 307 371 446
#
# _framework density 21.705971999999999
#
# number of rings (size 3 to 8) (size 9 to 14) (size 15 to 20)
#    0.000    0.800    2.000    3.000   11.200    1.600 
#    0.000    0.000    0.000    0.000    0.000    0.000 
#    0.000    0.000    0.000    0.000    0.000    0.000 
#
# Total GULP energy -111686.112127 kJ/mol
# GULP energy per Si atom -5584.305606 kJ/mol
# Density = 2.165657 g / cm^3
# Si number density = 21.705972 Si / 1000 Ang^3
#
#
#
# Elastic Constant Matrix: (Units=GPa)
#
#
# Indices 1 2 3 4 5 6 
#
# 1 156.8561 30.1935 41.6044 -0.6679 -8.7728 -0.2818
# 2 30.1935 66.0935 19.4774 -0.4187 -16.5321 -0.1795
# 3 41.6044 19.4774 83.5036 -0.5657 -6.7303 -0.2559
# 4 -0.6679 -0.4187 -0.5657 131.0871 -0.3560 43.5028
# 5 -8.7728 -16.5321 -6.7303 -0.3560 43.2599 -0.1603
# 6 -0.2818 -0.1795 -0.2559 43.5028 -0.1603 57.7144
#
#
#
# Elastic Compliance Matrix: (Units=1/GPa)
#
#
# Indices 1 2 3 4 5 6 
#
# 1 0.007734 -0.002553 -0.003251 0.000016 0.000087 0.000003
# 2 -0.002553 0.018602 -0.002567 0.000047 0.006192 0.000016
# 3 -0.003251 -0.002567 0.014241 0.000033 0.000576 0.000016
# 4 0.000016 0.000047 0.000033 0.010174 0.000082 -0.007668
# 5 0.000087 0.006192 0.000576 0.000082 0.025590 0.000032
# 6 0.000003 0.000016 0.000016 -0.007668 0.000032 0.023107
#
#
# Mechanical properties :
#
#
# Convention : Reuss Voigt Hill
#
# Bulk Modulus (GPa) = 41.95650 54.33374 48.14512
# Shear Modulus (GPa) = 40.27865 60.75748 50.51807
#
# Velocity S-wave (km/s) = 4.31240 5.29640 4.82953
# Velocity P-wave (km/s) = 6.64584 7.90497 7.30259
#
# Compressibility (1/GPa) = 0.02383421
#
# Stress axis : x y z
#
# Youngs Moduli (GPa) = 129.30117 53.75678 70.22171
#
# Poissons Ratio (x) = 0.13725 0.22826
# Poissons Ratio (y) = 0.33014 0.18029
# Poissons Ratio (z) = 0.42031 0.13802
#
# Static dielectric constant tensor:
#      x y z
#    x 1.837360 0.000000 0.053210 
#    y 0.000000 1.824640 -0.000020 
#    z 0.053210 -0.000020 1.798440 
# 
# From -- ./inp_files/199725.got.cif
#   From: 2010.05.17/outbox.cif.g08.bks.cpg/sg15_100_cif.got.tgz:199725.got - 2010.06.03 18:47:42.
