data_PCOD9300028
_publ_section_title
;
Structure prediction by ZEFSAII (Michael W. Deem and Ramdas Pophale) SiO2 
 PCOD9300028
Probable space group: C 2/C
;
_chemical_formula_sum "Si O2"
_cell_formula_units_Z 48
_cell_length_a 14.539595
_cell_length_b 23.212136
_cell_length_c 10.823706
_cell_angle_alpha 90.000000
_cell_angle_beta 138.509874
_cell_angle_gamma 90.000000
_cell_volume 2420.044572
_symmetry_space_group_name_H-M "C 2/C"
_symmetry_group_IT_number 15
_symmetry_cell_setting 'monoclinic'
loop_
_space_group_symop_operation_xyz
x,y,z
-x,y,1/2-z
-x,-y,-z
x,-y,1/2+z
1/2+x,1/2+y,z
1/2-x,1/2+y,1/2-z
1/2-x,1/2-y,-z
1/2+x,1/2-y,1/2+z
loop_
_atom_site_type_symbol
_atom_site_label
_atom_site_fract_x
_atom_site_fract_y
_atom_site_fract_z
Si Si1 0.225287 0.275900 0.839038
Si Si2 0.500000 0.377731 0.750000
Si Si3 0.523328 0.681494 0.533687
Si Si4 0.337761 0.098855 0.215606
Si Si5 0.266041 0.453054 0.638534
Si Si6 0.500000 0.992828 0.750000
Si Si7 0.378878 0.429824 0.216439
O O1 0.141483 0.228635 0.678065
O O2 0.130999 0.333606 0.750645
O O3 0.250000 0.250000 0.000000
O O4 0.374312 0.294788 0.931972
O O5 0.477767 0.337791 0.608790
O O6 0.370953 0.418502 0.656623
O O7 0.563863 0.624073 0.650898
O O8 0.262997 0.083043 0.267918
O O9 0.456810 0.051448 0.315600
O O10 0.240836 0.090175 0.998058
O O11 0.127054 0.468394 0.423214
O O12 0.327541 0.515198 0.740645
O O13 0.500000 0.451987 0.250000
#
# Coordination Sequence:
#
# PCOD9300028 Si02
#       7
#     8   4   8   8   8   4   8
#     4  12  24  45  71  96 134 173 231 295 335 386
#     4  12  26  48  67  99 138 188 224 270 338 426
#     4  12  27  44  69 101 135 178 234 275 342 403
#     4  11  23  43  68 102 135 176 227 282 339 398
#     4  11  24  43  71  97 143 179 222 277 341 415
#     4  10  26  42  65 107 142 176 224 272 356 404
#     4  11  20  38  68 102 130 168 225 277 329 397
#
# _framework density 19.834344999999999
#
# number of rings (size 3 to 8) (size 9 to 14) (size 15 to 20)
#    0.000    0.667    5.833    1.000    7.000    2.000 
#    3.000    0.000    0.000    0.000    0.000    0.000 
#    0.000    0.000    0.000    0.000    0.000    0.000 
#
# Total GULP energy -134139.769288 kJ/mol
# GULP energy per Si atom -5589.157054 kJ/mol
# Density = 1.978920 g / cm^3
# Si number density = 19.834345 Si / 1000 Ang^3
#
#
#
# Elastic Constant Matrix: (Units=GPa)
#
#
# Indices 1 2 3 4 5 6 
#
# 1 131.8235 62.7220 59.7720 0.0000 -6.9586 0.0000
# 2 62.7220 152.0096 75.4364 0.0000 -8.3778 0.0000
# 3 59.7720 75.4364 110.4193 0.0000 2.6391 0.0000
# 4 0.0000 0.0000 0.0000 35.8045 0.0000 3.2226
# 5 -6.9586 -8.3778 2.6391 0.0000 28.0919 0.0000
# 6 0.0000 0.0000 0.0000 3.2226 0.0000 32.2816
#
#
#
# Elastic Compliance Matrix: (Units=1/GPa)
#
#
# Indices 1 2 3 4 5 6 
#
# 1 0.010719 -0.002087 -0.004435 0.000000 0.002450 0.000000
# 2 -0.002087 0.010740 -0.006286 0.000000 0.003276 0.000000
# 3 -0.004435 -0.006286 0.015858 0.000000 -0.004463 0.000000
# 4 0.000000 0.000000 0.000000 0.028183 0.000000 -0.002813
# 5 0.002450 0.003276 -0.004463 0.000000 0.037601 0.000000
# 6 0.000000 0.000000 0.000000 -0.002813 0.000000 0.031258
#
#
# Mechanical properties :
#
#
# Convention : Reuss Voigt Hill
#
# Bulk Modulus (GPa) = 85.46135 87.79038 86.62586
# Shear Modulus (GPa) = 30.51108 32.32374 31.41741
#
# Velocity S-wave (km/s) = 3.92637 4.04132 3.98426
# Velocity P-wave (km/s) = 7.98350 8.13229 8.05824
#
# Compressibility (1/GPa) = 0.01170120
#
# Stress axis : x y z
#
# Youngs Moduli (GPa) = 93.29009 93.11394 63.05852
#
# Poissons Ratio (x) = 0.19432 0.27969
# Poissons Ratio (y) = 0.19468 0.39637
# Poissons Ratio (z) = 0.41378 0.58529
#
# Static dielectric constant tensor:
#      x y z
#    x 1.718020 0.000000 0.055220 
#    y 0.000000 1.688950 0.000000 
#    z 0.055220 0.000000 1.747000 
# 
# From -- ./inp_files/100100.got.cif
#   From: 2010.05.17/outbox.cif.g08.bks.cpg/sg15_51_cif.got.tgz:100100.got - 2010.06.03 18:47:42.
