data_PCOD9300369
_publ_section_title
;
Structure prediction by ZEFSAII (Michael W. Deem and Ramdas Pophale) SiO2 
 PCOD9300369
Probable space group: C 2/C
;
_chemical_formula_sum "Si O2"
_cell_formula_units_Z 32
_cell_length_a 13.468863
_cell_length_b 4.912985
_cell_length_c 22.310260
_cell_angle_alpha 90.000000
_cell_angle_beta 127.505789
_cell_angle_gamma 90.000000
_cell_volume 1171.153946
_symmetry_space_group_name_H-M "C 2/C"
_symmetry_group_IT_number 15
_symmetry_cell_setting 'monoclinic'
loop_
_space_group_symop_operation_xyz
x,y,z
-x,y,1/2-z
-x,-y,-z
x,-y,1/2+z
1/2+x,1/2+y,z
1/2-x,1/2+y,1/2-z
1/2-x,1/2-y,-z
1/2+x,1/2-y,1/2+z
loop_
_atom_site_type_symbol
_atom_site_label
_atom_site_fract_x
_atom_site_fract_y
_atom_site_fract_z
Si Si1 0.141014 0.030479 0.294037
Si Si2 0.999002 0.255694 0.045672
Si Si3 0.849166 0.059332 0.566217
Si Si4 0.883279 0.360059 0.821783
O O1 0.126446 0.752890 0.249972
O O2 0.000000 0.151034 0.250000
O O3 0.816236 0.979694 0.122995
O O4 0.247299 0.210119 0.300425
O O5 0.092207 0.349421 0.134801
O O6 0.873889 0.209640 0.037206
O O7 0.000000 0.500000 0.000000
O O8 0.000000 0.000000 0.000000
O O9 0.750000 0.250000 0.500000
O O10 0.988679 0.198610 0.614604
#
# Coordination Sequence:
#
# PCOD9300369 Si02
#       4
#     8   8   8   8
#     4  10  26  50  74 122 171 229 294 365 459 545
#     4  12  26  51  88 125 173 230 292 375 456 536
#     4  11  26  52  85 130 171 235 302 383 454 559
#     4  11  26  51  81 122 177 233 293 382 459 545
#
# _framework density 27.323478999999999
#
# number of rings (size 3 to 8) (size 9 to 14) (size 15 to 20)
#    0.000    1.000    2.500    1.500    7.000    3.000 
#   13.500    0.000    0.000    0.000    0.000    0.000 
#    0.000    0.000    0.000    0.000    0.000    0.000 
#
# Total GULP energy -89343.282468 kJ/mol
# GULP energy per Si atom -5583.955154 kJ/mol
# Density = 2.726129 g / cm^3
# Si number density = 27.323479 Si / 1000 Ang^3
#
#
#
# Elastic Constant Matrix: (Units=GPa)
#
#
# Indices 1 2 3 4 5 6 
#
# 1 222.9090 55.1410 84.2346 0.0000 -13.3045 0.0001
# 2 55.1410 148.6292 37.5599 -0.0002 -11.8572 0.0002
# 3 84.2346 37.5599 150.5642 0.0000 -39.6181 0.0000
# 4 0.0000 -0.0002 0.0000 35.5634 0.0000 -6.3320
# 5 -13.3045 -11.8572 -39.6181 0.0000 81.1567 0.0000
# 6 0.0001 0.0002 0.0000 -6.3320 0.0000 64.3540
#
#
#
# Elastic Compliance Matrix: (Units=1/GPa)
#
#
# Indices 1 2 3 4 5 6 
#
# 1 0.006017 -0.001486 -0.003205 0.000000 -0.000795 0.000000
# 2 -0.001486 0.007551 -0.000948 0.000000 0.000397 0.000000
# 3 -0.003205 -0.000948 0.009749 0.000000 0.004095 0.000000
# 4 0.000000 0.000000 0.000000 0.028620 0.000000 0.002816
# 5 -0.000795 0.000397 0.004095 0.000000 0.014249 0.000000
# 6 0.000000 0.000000 0.000000 0.002816 0.000000 0.015816
#
#
# Mechanical properties :
#
#
# Convention : Reuss Voigt Hill
#
# Bulk Modulus (GPa) = 83.06236 97.33036 90.19636
# Shear Modulus (GPa) = 51.39147 59.22595 55.30871
#
# Velocity S-wave (km/s) = 4.34159 4.66078 4.50401
# Velocity P-wave (km/s) = 7.45641 8.04131 7.75438
#
# Compressibility (1/GPa) = 0.01203915
#
# Stress axis : x y z
#
# Youngs Moduli (GPa) = 166.18472 132.43954 102.57675
#
# Poissons Ratio (x) = 0.19680 0.32876
# Poissons Ratio (y) = 0.24694 0.09723
# Poissons Ratio (z) = 0.53263 0.12553
#
# Static dielectric constant tensor:
#      x y z
#    x 2.033410 0.000000 0.145680 
#    y 0.000000 2.459350 0.000000 
#    z 0.145680 0.000000 2.316990 
# 
# From -- ./inp_files/271795.got.cif
#   From: 2010.05.17/outbox.cif.g08.bks.cpg/sg15_136_cif.got.tgz:271795.got - 2010.06.03 18:47:42.
