data_PCOD9300172
_publ_section_title
;
Structure prediction by ZEFSAII (Michael W. Deem and Ramdas Pophale) SiO2 
 PCOD9300172
Probable space group: C 2/C
;
_chemical_formula_sum "Si O2"
_cell_formula_units_Z 36
_cell_length_a 18.787028
_cell_length_b 9.400692
_cell_length_c 23.723024
_cell_angle_alpha 90.000000
_cell_angle_beta 24.687975
_cell_angle_gamma 90.000000
_cell_volume 1749.959034
_symmetry_space_group_name_H-M "C 2/C"
_symmetry_group_IT_number 15
_symmetry_cell_setting 'monoclinic'
loop_
_space_group_symop_operation_xyz
x,y,z
-x,y,1/2-z
-x,-y,-z
x,-y,1/2+z
1/2+x,1/2+y,z
1/2-x,1/2+y,1/2-z
1/2-x,1/2-y,-z
1/2+x,1/2-y,1/2+z
loop_
_atom_site_type_symbol
_atom_site_label
_atom_site_fract_x
_atom_site_fract_y
_atom_site_fract_z
Si Si1 0.500000 0.742387 0.250000
Si Si2 0.712779 0.960640 0.909237
Si Si3 0.643500 0.739886 0.861862
Si Si4 0.752989 0.269367 0.841691
Si Si5 0.929743 0.457249 0.205856
O O1 0.657927 0.641418 0.150731
O O2 0.521411 0.846858 0.181469
O O3 0.662068 0.877893 0.888622
O O4 0.791993 0.113133 0.837407
O O5 0.549664 0.983659 0.066104
O O6 0.721310 0.765775 0.744331
O O7 0.755887 0.617391 0.810037
O O8 0.444660 0.701300 0.002036
O O9 0.875219 0.395596 0.774048
#
# Coordination Sequence:
#
# PCOD9300172 Si02
#       5
#     4   8   8   8   8
#     4  10  26  46  66  86 122 180 222 260 320 372
#     4  11  23  44  65  93 134 169 211 268 311 380
#     4  11  22  40  69  97 135 166 205 258 331 380
#     4  12  22  40  67 101 130 166 207 266 324 378
#     4  11  23  43  66  95 129 170 216 263 312 384
#
# _framework density 20.571909999999999
#
# number of rings (size 3 to 8) (size 9 to 14) (size 15 to 20)
#    0.000    0.889    4.444    3.333    0.000    0.889 
#    8.000    2.222    0.000    0.000    0.000    0.000 
#    0.000    0.000    0.000    0.000    0.000    0.000 
#
# Total GULP energy -100662.485244 kJ/mol
# GULP energy per Si atom -5592.360291 kJ/mol
# Density = 2.052509 g / cm^3
# Si number density = 20.571910 Si / 1000 Ang^3
#
#
#
# Elastic Constant Matrix: (Units=GPa)
#
#
# Indices 1 2 3 4 5 6 
#
# 1 65.8325 38.7677 16.9539 0.0004 -1.7735 -0.0001
# 2 38.7677 167.0428 39.6586 0.0010 -4.8277 -0.0004
# 3 16.9539 39.6586 94.0536 0.0031 7.8270 -0.0010
# 4 0.0004 0.0010 0.0031 29.9206 0.0004 8.9903
# 5 -1.7735 -4.8277 7.8270 0.0004 15.5090 -0.0002
# 6 -0.0001 -0.0004 -0.0010 8.9903 -0.0002 17.0129
#
#
#
# Elastic Compliance Matrix: (Units=1/GPa)
#
#
# Indices 1 2 3 4 5 6 
#
# 1 0.017865 -0.003659 -0.001830 0.000000 0.001827 0.000000
# 2 -0.003659 0.007605 -0.002828 0.000000 0.003376 0.000000
# 3 -0.001830 -0.002828 0.012782 -0.000002 -0.007540 0.000001
# 4 0.000000 0.000000 -0.000002 0.039730 -0.000001 -0.020995
# 5 0.001827 0.003376 -0.007540 -0.000001 0.069544 0.000001
# 6 0.000000 0.000000 0.000001 -0.020995 0.000001 0.069873
#
#
# Mechanical properties :
#
#
# Convention : Reuss Voigt Hill
#
# Bulk Modulus (GPa) = 46.25616 57.52105 51.88860
# Shear Modulus (GPa) = 20.72638 27.92510 24.32574
#
# Velocity S-wave (km/s) = 3.17757 3.68834 3.44244
# Velocity P-wave (km/s) = 5.99971 6.79413 6.40924
#
# Compressibility (1/GPa) = 0.02161874
#
# Stress axis : x y z
#
# Youngs Moduli (GPa) = 55.97479 131.49849 78.23539
#
# Poissons Ratio (x) = 0.48116 0.14314
# Poissons Ratio (y) = 0.20481 0.22125
# Poissons Ratio (z) = 0.10241 0.37187
#
# Static dielectric constant tensor:
#      x y z
#    x 1.735800 0.000000 -0.007700 
#    y 0.000000 1.755200 0.000000 
#    z -0.007700 0.000000 1.683160 
# 
# From -- ./inp_files/53592.got.cif
#   From: 2010.05.17/outbox.cif.g08.bks.cpg/sg15_27_cif.got.tgz:53592.got - 2010.06.03 18:47:42.
