data_PCOD9300551
_publ_section_title
;
Structure prediction by ZEFSAII (Michael W. Deem and Ramdas Pophale) SiO2 
 PCOD9300551
Probable space group: C 2/C
;
_chemical_formula_sum "Si O2"
_cell_formula_units_Z 56
_cell_length_a 14.670756
_cell_length_b 7.037903
_cell_length_c 21.223423
_cell_angle_alpha 90.000000
_cell_angle_beta 110.394865
_cell_angle_gamma 90.000000
_cell_volume 2053.978749
_symmetry_space_group_name_H-M "C 2/C"
_symmetry_group_IT_number 15
_symmetry_cell_setting 'monoclinic'
loop_
_space_group_symop_operation_xyz
x,y,z
-x,y,1/2-z
-x,-y,-z
x,-y,1/2+z
1/2+x,1/2+y,z
1/2-x,1/2+y,1/2-z
1/2-x,1/2-y,-z
1/2+x,1/2-y,1/2+z
loop_
_atom_site_type_symbol
_atom_site_label
_atom_site_fract_x
_atom_site_fract_y
_atom_site_fract_z
Si Si1 0.143378 0.246131 0.091235
Si Si2 0.153136 0.122069 0.538091
Si Si3 0.004804 0.784188 0.398345
Si Si4 0.936500 0.629206 0.585016
Si Si5 0.665861 0.925046 0.326222
Si Si6 0.334123 0.440779 0.289670
Si Si7 0.157462 0.118006 0.845612
O O1 0.151584 0.107095 0.032890
O O2 0.152820 0.107478 0.155467
O O3 0.230359 0.395472 0.107309
O O4 0.040626 0.333504 0.079838
O O5 0.139889 0.254146 0.475123
O O6 0.248744 0.144997 0.604369
O O7 0.054813 0.159557 0.554624
O O8 0.068203 0.597391 0.424332
O O9 0.078001 0.924543 0.379315
O O10 0.912141 0.777142 0.327450
O O11 0.926554 0.657154 0.658345
O O12 0.720591 0.885793 0.273580
O O13 0.649734 0.154771 0.326037
O O14 0.354848 0.490185 0.222818
#
# Coordination Sequence:
#
# PCOD9300551 Si02
#       7
#     8   8   8   8   8   8   8
#     4   9  21  34  51  79 103 133 176 207 257 311
#     4   9  18  36  53  75 108 141 167 209 260 301
#     4   9  19  32  54  80  97 133 182 202 250 319
#     4  11  18  33  55  78 108 134 168 220 251 299
#     4   8  19  33  53  80  98 132 181 204 249 312
#     4   9  18  37  53  71 103 138 170 214 261 304
#     4   9  17  35  54  69 102 139 165 212 257 300
#
# _framework density 27.264154999999999
#
# number of rings (size 3 to 8) (size 9 to 14) (size 15 to 20)
#    0.000    3.429    0.000    1.714    0.000    2.286 
#    0.000   20.000    0.000    0.000    0.000    0.000 
#    0.000    0.000    0.000    0.000    0.000    0.000 
#
# Total GULP energy -156224.322368 kJ/mol
# GULP energy per Si atom -5579.440085 kJ/mol
# Density = 2.720210 g / cm^3
# Si number density = 27.264155 Si / 1000 Ang^3
#
#
#
# Elastic Constant Matrix: (Units=GPa)
#
#
# Indices 1 2 3 4 5 6 
#
# 1 121.1427 -17.7718 6.7610 0.0000 -28.2328 0.0000
# 2 -17.7718 83.4887 10.1716 0.0000 -0.3036 0.0000
# 3 6.7610 10.1716 53.7167 0.0000 -23.5595 0.0000
# 4 0.0000 0.0000 0.0000 31.0512 0.0000 -4.8302
# 5 -28.2328 -0.3036 -23.5595 0.0000 37.7117 0.0000
# 6 0.0000 0.0000 0.0000 -4.8302 0.0000 18.3578
#
#
#
# Elastic Compliance Matrix: (Units=1/GPa)
#
#
# Indices 1 2 3 4 5 6 
#
# 1 0.010626 0.001998 0.002452 0.000000 0.009503 0.000000
# 2 0.001998 0.012732 -0.002702 0.000000 -0.000090 0.000000
# 3 0.002452 -0.002702 0.027017 0.000000 0.018693 0.000000
# 4 0.000000 0.000000 0.000000 0.033579 0.000000 0.008835
# 5 0.009503 -0.000090 0.018693 0.000000 0.045308 0.000000
# 6 0.000000 0.000000 0.000000 0.008835 0.000000 0.056797
#
#
# Mechanical properties :
#
#
# Convention : Reuss Voigt Hill
#
# Bulk Modulus (GPa) = 18.56282 28.51885 23.54083
# Shear Modulus (GPa) = 24.93512 34.70329 29.81920
#
# Velocity S-wave (km/s) = 3.02747 3.57158 3.31072
# Velocity P-wave (km/s) = 4.36395 5.24320 4.82365
#
# Compressibility (1/GPa) = 0.05387114
#
# Stress axis : x y z
#
# Youngs Moduli (GPa) = 94.11232 78.54402 37.01307
#
# Poissons Ratio (x) = -0.15690 -0.09076
# Poissons Ratio (y) = -0.18800 0.10000
# Poissons Ratio (z) = -0.23078 0.21220
#
# Static dielectric constant tensor:
#      x y z
#    x 2.157650 0.000000 0.054260 
#    y 0.000000 2.253830 0.000000 
#    z 0.054260 0.000000 2.166960 
# 
# From -- ./inp_files/272672.got.cif
#   From: 2010.05.17/outbox.cif.g08.bks.cpg/sg15_137_cif.got.tgz:272672.got - 2010.06.03 18:47:42.
