data_PCOD9300517
_publ_section_title
;
Structure prediction by ZEFSAII (Michael W. Deem and Ramdas Pophale) SiO2 
 PCOD9300517
Probable space group: C 2/C
;
_chemical_formula_sum "Si O2"
_cell_formula_units_Z 56
_cell_length_a 7.309621
_cell_length_b 24.888871
_cell_length_c 17.827345
_cell_angle_alpha 90.000000
_cell_angle_beta 53.067014
_cell_angle_gamma 90.000000
_cell_volume 2592.493343
_symmetry_space_group_name_H-M "C 2/C"
_symmetry_group_IT_number 15
_symmetry_cell_setting 'monoclinic'
loop_
_space_group_symop_operation_xyz
x,y,z
-x,y,1/2-z
-x,-y,-z
x,-y,1/2+z
1/2+x,1/2+y,z
1/2-x,1/2+y,1/2-z
1/2-x,1/2-y,-z
1/2+x,1/2-y,1/2+z
loop_
_atom_site_type_symbol
_atom_site_label
_atom_site_fract_x
_atom_site_fract_y
_atom_site_fract_z
Si Si1 0.240041 0.670164 0.198328
Si Si2 0.243284 0.017763 0.844166
Si Si3 0.284472 0.886722 0.242687
Si Si4 0.602439 0.703767 0.995062
Si Si5 0.273257 0.272427 0.198940
Si Si6 0.855079 0.411163 0.455857
Si Si7 0.042767 0.071183 0.156268
O O1 0.178202 0.718969 0.268026
O O2 0.429077 0.630023 0.184200
O O3 0.000000 0.639469 0.250000
O O4 0.360745 0.694839 0.095174
O O5 0.500000 0.006846 0.750000
O O6 0.097344 0.965047 0.867714
O O7 0.144313 0.065322 0.814885
O O8 0.262600 0.042583 0.922300
O O9 0.500000 0.883254 0.250000
O O10 0.184503 0.827643 0.267337
O O11 0.387768 0.902665 0.137082
O O12 0.594065 0.721784 0.911440
O O13 0.731695 0.646033 0.968075
O O14 0.750000 0.750000 0.000000
O O15 0.000000 0.269577 0.250000
O O16 0.793849 0.424396 0.556976
O O17 0.000000 0.049145 0.250000
#
# Coordination Sequence:
#
# PCOD9300517 Si02
#       7
#     8   8   8   8   8   8   8
#     4  11  25  38  52  83 124 156 185 234 302 349
#     4   9  17  35  59  79 106 145 188 237 286 339
#     4   8  14  30  57  84 100 136 188 241 269 326
#     4  11  19  32  63  90 111 150 196 234 279 346
#     4  11  17  35  61  86 112 145 200 241 275 337
#     4   9  17  32  56  85 106 146 194 228 285 341
#     4  11  23  36  54  81 113 151 193 238 285 350
#
# _framework density 21.600826000000001
#
# number of rings (size 3 to 8) (size 9 to 14) (size 15 to 20)
#    0.000    2.286    5.714    1.286    2.000    0.571 
#    0.000    3.571    0.000    0.000    0.000    0.000 
#    0.000    0.000    0.000    0.000    0.000    0.000 
#
# Total GULP energy -156106.585493 kJ/mol
# GULP energy per Si atom -5575.235196 kJ/mol
# Density = 2.155166 g / cm^3
# Si number density = 21.600826 Si / 1000 Ang^3
#
#
#
# Elastic Constant Matrix: (Units=GPa)
#
#
# Indices 1 2 3 4 5 6 
#
# 1 26.4480 -4.4386 24.5002 0.0000 -0.9500 0.0000
# 2 -4.4386 72.8963 10.9943 0.0000 10.4226 0.0000
# 3 24.5002 10.9943 143.9843 0.0000 12.1053 0.0000
# 4 0.0000 0.0000 0.0000 18.3606 0.0000 5.9833
# 5 -0.9500 10.4226 12.1053 0.0000 18.3722 0.0000
# 6 0.0000 0.0000 0.0000 5.9833 0.0000 8.8876
#
#
#
# Elastic Compliance Matrix: (Units=1/GPa)
#
#
# Indices 1 2 3 4 5 6 
#
# 1 0.046659 0.003254 -0.008719 0.000000 0.006311 0.000000
# 2 0.003254 0.015184 -0.001062 0.000000 -0.007746 0.000000
# 3 -0.008719 -0.001062 0.008995 0.000000 -0.005775 0.000000
# 4 0.000000 0.000000 0.000000 0.069771 0.000000 -0.046971
# 5 0.006311 -0.007746 -0.005775 0.000000 0.062956 0.000000
# 6 0.000000 0.000000 0.000000 -0.046971 0.000000 0.144139
#
#
# Mechanical properties :
#
#
# Convention : Reuss Voigt Hill
#
# Bulk Modulus (GPa) = 17.30553 33.93782 25.62167
# Shear Modulus (GPa) = 13.15722 23.27559 18.21640
#
# Velocity S-wave (km/s) = 2.47069 3.28614 2.90715
# Velocity P-wave (km/s) = 4.02094 5.49033 4.81205
#
# Compressibility (1/GPa) = 0.05778500
#
# Stress axis : x y z
#
# Youngs Moduli (GPa) = 21.43198 65.85931 111.16825
#
# Poissons Ratio (x) = -0.21428 0.96922
# Poissons Ratio (y) = -0.06973 0.11804
# Poissons Ratio (z) = 0.18686 0.06993
#
# Static dielectric constant tensor:
#      x y z
#    x 1.857320 0.000000 -0.004350 
#    y 0.000000 1.810620 0.000000 
#    z -0.004350 0.000000 1.823780 
# 
# From -- ./inp_files/193578.got.cif
#   From: 2010.05.17/outbox.cif.g08.bks.cpg/sg15_97_cif.got.tgz:193578.got - 2010.06.03 18:47:42.
