data_PCOD9300867
_publ_section_title
;
Structure prediction by ZEFSAII (Michael W. Deem and Ramdas Pophale) SiO2 
 PCOD9300867
Probable space group: C 2/C
;
_chemical_formula_sum "Si O2"
_cell_formula_units_Z 48
_cell_length_a 17.408794
_cell_length_b 11.475442
_cell_length_c 12.811719
_cell_angle_alpha 90.000000
_cell_angle_beta 68.998294
_cell_angle_gamma 90.000000
_cell_volume 2389.418857
_symmetry_space_group_name_H-M "C 2/C"
_symmetry_group_IT_number 15
_symmetry_cell_setting 'monoclinic'
loop_
_space_group_symop_operation_xyz
x,y,z
-x,y,1/2-z
-x,-y,-z
x,-y,1/2+z
1/2+x,1/2+y,z
1/2-x,1/2+y,1/2-z
1/2-x,1/2-y,-z
1/2+x,1/2-y,1/2+z
loop_
_atom_site_type_symbol
_atom_site_label
_atom_site_fract_x
_atom_site_fract_y
_atom_site_fract_z
Si Si1 0.804604 0.761741 0.370694
Si Si2 0.061265 0.056092 0.624366
Si Si3 0.499600 0.242530 0.485229
Si Si4 0.656252 0.827211 0.300894
Si Si5 0.584863 0.296696 0.642331
Si Si6 0.577299 0.067929 0.278001
O O1 0.750000 0.750000 0.500000
O O2 0.868243 0.860950 0.368613
O O3 0.745016 0.800351 0.305794
O O4 0.859051 0.648523 0.316968
O O5 0.013700 0.127657 0.556627
O O6 0.000000 0.043789 0.750000
O O7 0.098653 0.927591 0.593169
O O8 0.411960 0.216479 0.582091
O O9 0.565698 0.228746 0.545749
O O10 0.530631 0.154038 0.381723
O O11 0.647046 0.759360 0.194756
O O12 0.630386 0.961481 0.297057
O O13 0.500000 0.296532 0.750000
O O14 0.500000 0.017544 0.250000
#
# Coordination Sequence:
#
# PCOD9300867 Si02
#       6
#     8   8   8   8   8   8
#     4  12  24  43  63  95 128 170 214 269 332 378
#     4  11  20  41  66  90 123 167 220 261 312 399
#     4  11  19  42  68  97 120 172 224 263 314 392
#     4  11  25  41  64  99 134 167 212 277 331 377
#     4   9  22  38  63  94 127 159 207 262 324 376
#     4  12  23  44  71  94 129 176 226 263 316 404
#
# _framework density 20.088567000000001
#
# number of rings (size 3 to 8) (size 9 to 14) (size 15 to 20)
#    0.000    1.000    5.000    2.500    2.333    1.333 
#    3.000    0.833    0.000    0.000    0.000    0.000 
#    0.000    0.000    0.000    0.000    0.000    0.000 
#
# Total GULP energy -133856.171507 kJ/mol
# GULP energy per Si atom -5577.340479 kJ/mol
# Density = 2.004284 g / cm^3
# Si number density = 20.088567 Si / 1000 Ang^3
#
#
#
# Elastic Constant Matrix: (Units=GPa)
#
#
# Indices 1 2 3 4 5 6 
#
# 1 109.0205 12.0649 18.8262 0.0000 25.2382 0.0000
# 2 12.0649 74.2131 17.9481 0.0000 5.6068 0.0000
# 3 18.8262 17.9481 64.6476 0.0000 10.4866 0.0000
# 4 0.0000 0.0000 0.0000 3.3375 0.0000 4.4459
# 5 25.2382 5.6068 10.4866 0.0000 33.5611 0.0000
# 6 0.0000 0.0000 0.0000 4.4459 0.0000 13.3244
#
#
#
# Elastic Compliance Matrix: (Units=1/GPa)
#
#
# Indices 1 2 3 4 5 6 
#
# 1 0.011398 -0.000820 -0.001816 0.000000 -0.007867 0.000000
# 2 -0.000820 0.014551 -0.003694 0.000000 -0.000660 0.000000
# 3 -0.001816 -0.003694 0.017593 0.000000 -0.003515 0.000000
# 4 0.000000 0.000000 0.000000 0.539350 0.000000 -0.179963
# 5 -0.007867 -0.000660 -0.003515 0.000000 0.036921 0.000000
# 6 0.000000 0.000000 0.000000 -0.179963 0.000000 0.135098
#
#
# Mechanical properties :
#
#
# Convention : Reuss Voigt Hill
#
# Bulk Modulus (GPa) = 32.37941 38.39552 35.38747
# Shear Modulus (GPa) = 6.42786 23.31406 14.87096
#
# Velocity S-wave (km/s) = 1.79073 3.41040 2.72374
# Velocity P-wave (km/s) = 4.51984 5.88748 5.24840
#
# Compressibility (1/GPa) = 0.03088382
#
# Stress axis : x y z
#
# Youngs Moduli (GPa) = 87.73413 68.72274 56.84114
#
# Poissons Ratio (x) = 0.05632 0.10320
# Poissons Ratio (y) = 0.07190 0.20997
# Poissons Ratio (z) = 0.15929 0.25387
#
# Static dielectric constant tensor:
#      x y z
#    x 1.701210 0.000000 0.052700 
#    y 0.000000 1.786450 0.000000 
#    z 0.052700 0.000000 1.700370 
# 
# From -- ./inp_files/104164.got.cif
#   From: 2010.05.17/outbox.cif.g08.bks.cpg/sg15_53_cif.got.tgz:104164.got - 2010.06.03 18:47:42.
