data_PCOD9300584
_publ_section_title
;
Structure prediction by ZEFSAII (Michael W. Deem and Ramdas Pophale) SiO2 
 PCOD9300584
Probable space group: C 2/C
;
_chemical_formula_sum "Si O2"
_cell_formula_units_Z 60
_cell_length_a 15.781562
_cell_length_b 19.285225
_cell_length_c 11.650110
_cell_angle_alpha 90.000000
_cell_angle_beta 84.970472
_cell_angle_gamma 90.000000
_cell_volume 3532.070051
_symmetry_space_group_name_H-M "C 2/C"
_symmetry_group_IT_number 15
_symmetry_cell_setting 'monoclinic'
loop_
_space_group_symop_operation_xyz
x,y,z
-x,y,1/2-z
-x,-y,-z
x,-y,1/2+z
1/2+x,1/2+y,z
1/2-x,1/2+y,1/2-z
1/2-x,1/2-y,-z
1/2+x,1/2-y,1/2+z
loop_
_atom_site_type_symbol
_atom_site_label
_atom_site_fract_x
_atom_site_fract_y
_atom_site_fract_z
Si Si1 0.038074 0.610959 0.089487
Si Si2 0.103896 0.762402 0.546226
Si Si3 0.146370 0.403418 0.349595
Si Si4 0.367591 0.060315 0.192889
Si Si5 0.000000 0.319093 0.250000
Si Si6 0.270157 0.193313 0.155413
Si Si7 0.024602 0.221163 0.617153
Si Si8 0.284911 0.288715 0.382823
O O1 0.088159 0.581219 0.192758
O O2 0.027783 0.694288 0.103767
O O3 0.945277 0.575861 0.095327
O O4 0.094752 0.594892 0.974058
O O5 0.035827 0.724660 0.637937
O O6 0.175026 0.797261 0.618436
O O7 0.162590 0.717347 0.451153
O O8 0.044285 0.805272 0.465985
O O9 0.161800 0.481514 0.308066
O O10 0.227828 0.354825 0.357884
O O11 0.080589 0.365629 0.272976
O O12 0.292868 0.114401 0.179702
O O13 0.284071 0.238893 0.269725
O O14 0.119263 0.193309 0.593485
O O15 0.000000 0.206606 0.750000
O O16 0.250000 0.250000 0.500000
#
# Coordination Sequence:
#
# PCOD9300584 Si02
#       8
#     8   8   8   8   4   8   8   8
#     4  11  18  36  55  81 116 154 180 223 290 368
#     4  11  22  35  58  86 116 148 192 239 290 336
#     4  12  24  34  54  89 118 147 190 240 289 349
#     4  11  21  36  55  81 118 155 183 224 301 360
#     4  12  20  36  54  90 120 142 180 242 296 342
#     4  11  21  38  57  82 119 153 190 238 290 347
#     4  12  19  37  61  80 112 156 199 234 286 347
#     4  12  21  38  60  83 118 154 205 244 279 347
#
# _framework density 16.987206
#
# number of rings (size 3 to 8) (size 9 to 14) (size 15 to 20)
#    0.000    0.533    9.333    1.200    0.000    1.067 
#    0.000    0.000    0.000    0.800    1.733    0.000 
#    0.000    0.000    0.000    0.000    0.000    0.000 
#
# Total GULP energy -167360.133213 kJ/mol
# GULP energy per Si atom -5578.671107 kJ/mol
# Density = 1.694854 g / cm^3
# Si number density = 16.987206 Si / 1000 Ang^3
#
#
#
# Elastic Constant Matrix: (Units=GPa)
#
#
# Indices 1 2 3 4 5 6 
#
# 1 109.0795 35.9921 13.8007 0.0000 27.2063 0.0000
# 2 35.9921 74.6737 8.4533 0.0000 7.3877 0.0000
# 3 13.8007 8.4533 79.0497 0.0000 -0.3693 0.0000
# 4 0.0000 0.0000 0.0000 0.4813 0.0000 -2.1531
# 5 27.2063 7.3877 -0.3693 0.0000 28.8007 0.0000
# 6 0.0000 0.0000 0.0000 -2.1531 0.0000 20.7732
#
#
#
# Elastic Compliance Matrix: (Units=1/GPa)
#
#
# Indices 1 2 3 4 5 6 
#
# 1 0.014218 -0.005438 -0.001957 0.000000 -0.012061 0.000000
# 2 -0.005438 0.015997 -0.000756 0.000000 0.001024 0.000000
# 3 -0.001957 -0.000756 0.013083 0.000000 0.002210 0.000000
# 4 0.000000 0.000000 0.000000 3.874089 0.000000 0.401540
# 5 -0.012061 0.001024 0.002210 0.000000 0.045880 0.000000
# 6 0.000000 0.000000 0.000000 0.401540 0.000000 0.089757
#
#
# Mechanical properties :
#
#
# Convention : Reuss Voigt Hill
#
# Bulk Modulus (GPa) = 37.04417 42.14391 39.59404
# Shear Modulus (GPa) = 1.22599 23.64817 12.43708
#
# Velocity S-wave (km/s) = 0.85046 3.73516 2.70875
# Velocity P-wave (km/s) = 4.77690 6.59279 5.75690
#
# Compressibility (1/GPa) = 0.02699480
#
# Stress axis : x y z
#
# Youngs Moduli (GPa) = 70.33464 62.51158 76.43414
#
# Poissons Ratio (x) = 0.33994 0.14958
# Poissons Ratio (y) = 0.38249 0.05782
# Poissons Ratio (z) = 0.13764 0.04729
#
# Static dielectric constant tensor:
#      x y z
#    x 1.596240 0.000000 -0.016210 
#    y 0.000000 1.565120 0.000000 
#    z -0.016210 0.000000 1.194690 
# 
# From -- ./inp_files/98299.got.cif
#   From: 2010.05.17/outbox.cif.g08.bks.cpg/sg15_50_cif.got.tgz:98299.got - 2010.06.03 18:47:42.
