data_PCOD9300210
_publ_section_title
;
Structure prediction by ZEFSAII (Michael W. Deem and Ramdas Pophale) SiO2 
 PCOD9300210
Probable space group: C 2/C
;
_chemical_formula_sum "Si O2"
_cell_formula_units_Z 52
_cell_length_a 9.087488
_cell_length_b 9.464978
_cell_length_c 25.360787
_cell_angle_alpha 90.000000
_cell_angle_beta 92.322368
_cell_angle_gamma 90.000000
_cell_volume 2179.562525
_symmetry_space_group_name_H-M "C 2/C"
_symmetry_group_IT_number 15
_symmetry_cell_setting 'monoclinic'
loop_
_space_group_symop_operation_xyz
x,y,z
-x,y,1/2-z
-x,-y,-z
x,-y,1/2+z
1/2+x,1/2+y,z
1/2-x,1/2+y,1/2-z
1/2-x,1/2-y,-z
1/2+x,1/2-y,1/2+z
loop_
_atom_site_type_symbol
_atom_site_label
_atom_site_fract_x
_atom_site_fract_y
_atom_site_fract_z
Si Si1 0.703497 0.935141 0.056714
Si Si2 0.143282 0.248622 0.567813
Si Si3 0.000000 0.000000 0.500000
Si Si4 0.563850 0.576407 0.201064
Si Si5 0.407610 0.667108 0.651825
Si Si6 0.526440 0.794590 0.388140
Si Si7 0.606707 0.975171 0.801682
O O1 0.781887 0.903076 0.114286
O O2 0.572172 0.823372 0.061608
O O3 0.625259 0.087567 0.052514
O O4 0.840632 0.927924 0.019173
O O5 0.096337 0.133953 0.524214
O O6 0.312294 0.241994 0.588750
O O7 0.044506 0.202164 0.615910
O O8 0.500000 0.663441 0.250000
O O9 0.449069 0.450611 0.193693
O O10 0.545049 0.668726 0.147523
O O11 0.721712 0.501896 0.208794
O O12 0.378793 0.813705 0.679222
O O13 0.548440 0.926702 0.348537
O O14 0.500000 0.986695 0.750000
#
# Coordination Sequence:
#
# PCOD9300210 Si02
#       7
#     8   8   4   8   8   8   8
#     4  11  23  45  72 100 134 175 224 285 346 415
#     4  11  23  45  72 100 134 175 224 285 346 415
#     4  10  26  46  72 104 134 174 222 284 362 422
#     4  12  27  42  65 102 139 184 235 278 327 398
#     4  11  23  43  69  94 138 184 227 277 339 393
#     4  12  25  43  72 100 136 184 226 277 341 404
#     4  12  27  42  65 102 139 184 235 278 327 398
#
# _framework density 23.857997999999998
#
# number of rings (size 3 to 8) (size 9 to 14) (size 15 to 20)
#    0.000    0.615    6.154    1.385    4.308    3.077 
#    0.000    1.538    0.000    0.000    0.000    0.000 
#    0.000    0.000    0.000    0.000    0.000    0.000 
#
# Total GULP energy -144796.627321 kJ/mol
# GULP energy per Si atom -5569.101051 kJ/mol
# Density = 2.380370 g / cm^3
# Si number density = 23.857998 Si / 1000 Ang^3
#
#
#
# Elastic Constant Matrix: (Units=GPa)
#
#
# Indices 1 2 3 4 5 6 
#
# 1 93.2915 -19.3071 14.1926 0.0000 -1.7643 0.0000
# 2 -19.3071 66.7415 28.3076 0.0000 1.3815 0.0000
# 3 14.1926 28.3076 60.6530 0.0000 1.1894 0.0000
# 4 0.0000 0.0000 0.0000 11.1743 0.0000 -5.6696
# 5 -1.7643 1.3815 1.1894 0.0000 48.8772 0.0000
# 6 0.0000 0.0000 0.0000 -5.6696 0.0000 32.7166
#
#
#
# Elastic Compliance Matrix: (Units=1/GPa)
#
#
# Indices 1 2 3 4 5 6 
#
# 1 0.012928 0.006256 -0.005953 0.000000 0.000435 0.000000
# 2 0.006256 0.021713 -0.011596 0.000000 -0.000106 0.000000
# 3 -0.005953 -0.011596 0.023301 0.000000 -0.000454 0.000000
# 4 0.000000 0.000000 0.000000 0.098118 0.000000 0.017003
# 5 0.000435 -0.000106 -0.000454 0.000000 0.020489 0.000000
# 6 0.000000 0.000000 0.000000 0.017003 0.000000 0.033512
#
#
# Mechanical properties :
#
#
# Convention : Reuss Voigt Hill
#
# Bulk Modulus (GPa) = 28.28401 29.67469 28.97935
# Shear Modulus (GPa) = 20.45554 31.71982 26.08768
#
# Velocity S-wave (km/s) = 2.93129 3.65022 3.31033
# Velocity P-wave (km/s) = 4.83089 5.49823 5.17533
#
# Compressibility (1/GPa) = 0.03535566
#
# Stress axis : x y z
#
# Youngs Moduli (GPa) = 77.35373 46.05509 42.91672
#
# Poissons Ratio (x) = -0.28811 0.25549
# Poissons Ratio (y) = -0.48390 0.49764
# Poissons Ratio (z) = 0.46050 0.53403
#
# Static dielectric constant tensor:
#      x y z
#    x 1.979360 0.000000 -0.002260 
#    y 0.000000 1.883520 0.000000 
#    z -0.002260 0.000000 1.926220 
# 
# From -- ./inp_files/287700.got.cif
#   From: 2010.05.17/outbox.cif.g08.bks.cpg/sg15_144_cif.got.tgz:287700.got - 2010.06.03 18:47:42.
