data_PCOD9300211
_publ_section_title
;
Structure prediction by ZEFSAII (Michael W. Deem and Ramdas Pophale) SiO2 
 PCOD9300211
Probable space group: C 2/C
;
_chemical_formula_sum "Si O2"
_cell_formula_units_Z 48
_cell_length_a 25.374338
_cell_length_b 6.330354
_cell_length_c 17.675671
_cell_angle_alpha 90.000000
_cell_angle_beta 37.378296
_cell_angle_gamma 90.000000
_cell_volume 1723.617442
_symmetry_space_group_name_H-M "C 2/C"
_symmetry_group_IT_number 15
_symmetry_cell_setting 'monoclinic'
loop_
_space_group_symop_operation_xyz
x,y,z
-x,y,1/2-z
-x,-y,-z
x,-y,1/2+z
1/2+x,1/2+y,z
1/2-x,1/2+y,1/2-z
1/2-x,1/2-y,-z
1/2+x,1/2-y,1/2+z
loop_
_atom_site_type_symbol
_atom_site_label
_atom_site_fract_x
_atom_site_fract_y
_atom_site_fract_z
Si Si1 0.235497 0.339735 0.147633
Si Si2 0.667732 0.680310 0.379704
Si Si3 0.696914 0.951493 0.470693
Si Si4 0.614519 0.310585 0.199814
Si Si5 0.000000 0.000000 0.000000
Si Si6 0.535407 0.084086 0.851994
Si Si7 0.500000 0.332237 0.750000
O O1 0.280943 0.557347 0.113872
O O2 0.225467 0.231312 0.241409
O O3 0.139020 0.366322 0.228544
O O4 0.296646 0.201211 0.026023
O O5 0.649652 0.894877 0.445675
O O6 0.588515 0.540325 0.443754
O O7 0.651074 0.835707 0.591548
O O8 0.801431 0.896911 0.351295
O O9 0.565628 0.502441 0.215278
O O10 0.548188 0.174997 0.328528
O O11 0.990983 0.255928 0.049740
O O12 0.485395 0.171587 0.836073
#
# Coordination Sequence:
#
# PCOD9300211 Si02
#       7
#     8   8   8   8   4   8   4
#     4  11  22  40  73  97 140 188 241 300 370 439
#     4  11  22  43  70 102 139 188 241 306 369 445
#     4  11  23  42  66 104 135 188 242 299 362 452
#     4  11  25  41  69 100 144 190 243 296 372 442
#     4  10  26  46  72 104 142 182 248 310 374 424
#     4  11  24  46  69 104 143 195 242 306 371 441
#     4  12  24  44  68 102 152 186 240 308 360 440
#
# _framework density 27.848407999999999
#
# number of rings (size 3 to 8) (size 9 to 14) (size 15 to 20)
#    0.000    1.000    5.000    1.500    0.000    4.667 
#    0.000    1.667    0.000    0.000    0.000    0.000 
#    0.000    0.000    0.000    0.000    0.000    0.000 
#
# Total GULP energy -133826.735029 kJ/mol
# GULP energy per Si atom -5576.113960 kJ/mol
# Density = 2.778502 g / cm^3
# Si number density = 27.848408 Si / 1000 Ang^3
#
#
#
# Elastic Constant Matrix: (Units=GPa)
#
#
# Indices 1 2 3 4 5 6 
#
# 1 119.6615 15.2320 32.5573 -0.0081 -12.8795 0.0066
# 2 15.2320 87.4441 42.8186 -0.0277 -10.2225 0.0569
# 3 32.5573 42.8186 103.8139 -0.0121 11.9909 0.0057
# 4 -0.0081 -0.0277 -0.0121 52.1886 -0.0024 -0.4984
# 5 -12.8795 -10.2225 11.9909 -0.0024 47.1468 -0.0066
# 6 0.0066 0.0569 0.0057 -0.4984 -0.0066 41.0965
#
#
#
# Elastic Compliance Matrix: (Units=1/GPa)
#
#
# Indices 1 2 3 4 5 6 
#
# 1 0.009691 0.000556 -0.003697 0.000001 0.003708 -0.000001
# 2 0.000556 0.015475 -0.007173 0.000007 0.005331 -0.000020
# 3 -0.003697 -0.007173 0.014472 -0.000001 -0.006246 0.000007
# 4 0.000001 0.000007 -0.000001 0.019164 0.000003 0.000232
# 5 0.003708 0.005331 -0.006246 0.000003 0.024968 -0.000003
# 6 -0.000001 -0.000020 0.000007 0.000232 -0.000003 0.024336
#
#
# Mechanical properties :
#
#
# Convention : Reuss Voigt Hill
#
# Bulk Modulus (GPa) = 52.60407 54.68168 53.64288
# Shear Modulus (GPa) = 37.01833 42.77383 39.89608
#
# Velocity S-wave (km/s) = 3.64988 3.92337 3.78910
# Velocity P-wave (km/s) = 6.05745 6.34050 6.20059
#
# Compressibility (1/GPa) = 0.01900993
#
# Stress axis : x y z
#
# Youngs Moduli (GPa) = 103.18770 64.62240 69.10050
#
# Poissons Ratio (x) = -0.03590 0.25544
# Poissons Ratio (y) = -0.05732 0.49563
# Poissons Ratio (z) = 0.38145 0.46351
#
# Static dielectric constant tensor:
#      x y z
#    x 1.978010 0.000050 0.046160 
#    y 0.000050 2.439420 -0.000080 
#    z 0.046160 -0.000080 2.131470 
# 
# From -- ./inp_files/258546.got.cif
#   From: 2010.05.17/outbox.cif.g08.bks.cpg/sg15_130_cif.got.tgz:258546.got - 2010.06.03 18:47:42.
