data_PCOD9300129
_publ_section_title
;
Structure prediction by ZEFSAII (Michael W. Deem and Ramdas Pophale) SiO2 
 PCOD9300129
Probable space group: C 2/C
;
_chemical_formula_sum "Si O2"
_cell_formula_units_Z 36
_cell_length_a 17.982742
_cell_length_b 10.058636
_cell_length_c 14.878896
_cell_angle_alpha 90.000000
_cell_angle_beta 147.309050
_cell_angle_gamma 90.000000
_cell_volume 1453.603090
_symmetry_space_group_name_H-M "C 2/C"
_symmetry_group_IT_number 15
_symmetry_cell_setting 'monoclinic'
loop_
_space_group_symop_operation_xyz
x,y,z
-x,y,1/2-z
-x,-y,-z
x,-y,1/2+z
1/2+x,1/2+y,z
1/2-x,1/2+y,1/2-z
1/2-x,1/2-y,-z
1/2+x,1/2-y,1/2+z
loop_
_atom_site_type_symbol
_atom_site_label
_atom_site_fract_x
_atom_site_fract_y
_atom_site_fract_z
Si Si1 0.023360 0.103545 0.443222
Si Si2 0.124084 0.488886 0.556816
Si Si3 0.289191 0.772188 0.262846
Si Si4 0.500000 0.443274 0.250000
Si Si5 0.750000 0.750000 0.000000
Si Si6 0.500000 0.054655 0.250000
O O1 0.220692 0.373025 0.692865
O O2 0.183822 0.140466 0.596900
O O3 0.961135 0.036326 0.293114
O O4 0.000000 0.000000 0.500000
O O5 0.197437 0.637024 0.633708
O O6 0.068544 0.471636 0.400188
O O7 0.940187 0.237155 0.381634
O O8 0.500000 0.000000 0.500000
O O9 0.631392 0.356824 0.409593
O O10 0.876851 0.647457 0.161631
#
# Coordination Sequence:
#
# PCOD9300129 Si02
#       6
#     8   8   8   4   4   4
#     4  12  28  46  75 110 151 197 253 318 381 454
#     4  12  28  48  76 113 154 202 256 322 383 465
#     4  12  27  48  77 109 155 200 260 310 393 449
#     4  11  28  47  72 116 152 202 254 318 380 460
#     4  10  26  44  76 106 152 196 260 302 372 456
#     4  11  28  43  76 110 150 198 258 306 388 450
#
# _framework density 24.766047
#
# number of rings (size 3 to 8) (size 9 to 14) (size 15 to 20)
#    0.000    0.444    4.444    1.333   12.444    1.778 
#    0.000    0.000    0.000    0.000    0.000    0.000 
#    0.000    0.000    0.000    0.000    0.000    0.000 
#
# Total GULP energy -100213.884035 kJ/mol
# GULP energy per Si atom -5567.438002 kJ/mol
# Density = 2.470968 g / cm^3
# Si number density = 24.766047 Si / 1000 Ang^3
#
#
#
# Elastic Constant Matrix: (Units=GPa)
#
#
# Indices 1 2 3 4 5 6 
#
# 1 50.4398 26.6674 25.2734 0.0000 -13.4955 0.0000
# 2 26.6674 142.9410 37.7555 0.0000 -11.4016 0.0000
# 3 25.2734 37.7555 125.5523 0.0000 18.3341 0.0000
# 4 0.0000 0.0000 0.0000 38.1354 0.0000 25.2772
# 5 -13.4955 -11.4016 18.3341 0.0000 53.3725 0.0000
# 6 0.0000 0.0000 0.0000 25.2772 0.0000 32.9791
#
#
#
# Elastic Compliance Matrix: (Units=1/GPa)
#
#
# Indices 1 2 3 4 5 6 
#
# 1 0.026237 -0.002778 -0.005610 0.000000 0.007968 0.000000
# 2 -0.002778 0.008234 -0.002181 0.000000 0.001806 0.000000
# 3 -0.005610 -0.002181 0.010554 0.000000 -0.005510 0.000000
# 4 0.000000 0.000000 0.000000 0.053301 0.000000 -0.040853
# 5 0.007968 0.001806 -0.005510 0.000000 0.023029 0.000000
# 6 0.000000 0.000000 0.000000 -0.040853 0.000000 0.061635
#
#
# Mechanical properties :
#
#
# Convention : Reuss Voigt Hill
#
# Bulk Modulus (GPa) = 41.85958 55.36951 48.61454
# Shear Modulus (GPa) = 23.57500 40.17986 31.87743
#
# Velocity S-wave (km/s) = 3.08865 4.03224 3.59157
# Velocity P-wave (km/s) = 5.44595 6.63959 6.07217
#
# Compressibility (1/GPa) = 0.02388940
#
# Stress axis : x y z
#
# Youngs Moduli (GPa) = 38.11458 121.44598 94.74752
#
# Poissons Ratio (x) = 0.33732 0.53150
# Poissons Ratio (y) = 0.10587 0.20662
# Poissons Ratio (z) = 0.21381 0.26484
#
# Static dielectric constant tensor:
#      x y z
#    x 2.061290 0.000000 0.036210 
#    y 0.000000 2.068060 0.000000 
#    z 0.036210 0.000000 1.942800 
# 
# From -- ./inp_files/214386.got.cif
#   From: 2010.05.17/outbox.cif.g08.bks.cpg/sg15_108_cif.got.tgz:214386.got - 2010.06.03 18:47:42.
