data_PCOD9300820
_publ_section_title
;
Structure prediction by ZEFSAII (Michael W. Deem and Ramdas Pophale) SiO2 
 PCOD9300820
Probable space group: C 2/C
;
_chemical_formula_sum "Si O2"
_cell_formula_units_Z 32
_cell_length_a 14.577358
_cell_length_b 15.916017
_cell_length_c 12.009155
_cell_angle_alpha 90.000000
_cell_angle_beta 150.108128
_cell_angle_gamma 90.000000
_cell_volume 1388.586652
_symmetry_space_group_name_H-M "C 2/C"
_symmetry_group_IT_number 15
_symmetry_cell_setting 'monoclinic'
loop_
_space_group_symop_operation_xyz
x,y,z
-x,y,1/2-z
-x,-y,-z
x,-y,1/2+z
1/2+x,1/2+y,z
1/2-x,1/2+y,1/2-z
1/2-x,1/2-y,-z
1/2+x,1/2-y,1/2+z
loop_
_atom_site_type_symbol
_atom_site_label
_atom_site_fract_x
_atom_site_fract_y
_atom_site_fract_z
Si Si1 0.139011 0.423829 0.136640
Si Si2 0.668313 0.682510 0.497308
Si Si3 0.035294 0.124093 0.665286
Si Si4 0.156070 0.711175 0.213218
O O1 0.199284 0.390623 0.321292
O O2 0.328838 0.432551 0.266896
O O3 0.000000 0.500000 0.000000
O O4 0.017119 0.349448 0.955733
O O5 0.750000 0.750000 0.500000
O O6 0.630373 0.737252 0.569559
O O7 0.500000 0.646055 0.250000
O O8 0.141436 0.213701 0.786321
O O9 0.000000 0.088079 0.750000
O O10 0.838829 0.153854 0.407511
#
# Coordination Sequence:
#
# PCOD9300820 Si02
#       4
#     8   8   8   8
#     4  11  25  43  65 106 153 189 239 323 373 418
#     4  11  19  39  71 101 133 192 252 293 353 446
#     4  11  22  40  70 102 138 194 249 294 366 458
#     4  11  21  39  68 103 140 186 245 310 355 434
#
# _framework density 23.045016
#
# number of rings (size 3 to 8) (size 9 to 14) (size 15 to 20)
#    0.000    1.000    7.500    2.250    0.000    1.000 
#    0.000    6.250    0.000    0.000    0.000    0.000 
#    0.000    0.000    0.000    0.000    0.000    0.000 
#
# Total GULP energy -89321.451151 kJ/mol
# GULP energy per Si atom -5582.590697 kJ/mol
# Density = 2.299256 g / cm^3
# Si number density = 23.045016 Si / 1000 Ang^3
#
#
#
# Elastic Constant Matrix: (Units=GPa)
#
#
# Indices 1 2 3 4 5 6 
#
# 1 104.5295 19.4997 41.5292 0.0000 10.7392 0.0000
# 2 19.4997 69.5165 42.9581 0.0000 5.7064 0.0000
# 3 41.5292 42.9581 165.2502 0.0000 25.1272 0.0000
# 4 0.0000 0.0000 0.0000 46.4456 0.0000 18.9163
# 5 10.7392 5.7064 25.1272 0.0000 39.0246 0.0000
# 6 0.0000 0.0000 0.0000 18.9163 0.0000 15.3839
#
#
#
# Elastic Compliance Matrix: (Units=1/GPa)
#
#
# Indices 1 2 3 4 5 6 
#
# 1 0.010845 -0.001638 -0.002087 0.000000 -0.001401 0.000000
# 2 -0.001638 0.017391 -0.004203 0.000000 0.000614 0.000000
# 3 -0.002087 -0.004203 0.008300 0.000000 -0.004156 0.000000
# 4 0.000000 0.000000 0.000000 0.043130 0.000000 -0.053034
# 5 -0.001401 0.000614 -0.004156 0.000000 0.028597 0.000000
# 6 0.000000 0.000000 0.000000 -0.053034 0.000000 0.130214
#
#
# Mechanical properties :
#
#
# Convention : Reuss Voigt Hill
#
# Bulk Modulus (GPa) = 48.35001 60.80781 54.57891
# Shear Modulus (GPa) = 19.14052 35.85809 27.49931
#
# Velocity S-wave (km/s) = 2.88509 3.94890 3.45815
# Velocity P-wave (km/s) = 5.66785 6.87281 6.29921
#
# Compressibility (1/GPa) = 0.02068252
#
# Stress axis : x y z
#
# Youngs Moduli (GPa) = 92.20675 57.50046 120.47816
#
# Poissons Ratio (x) = 0.09416 0.25140
# Poissons Ratio (y) = 0.15100 0.50634
# Poissons Ratio (z) = 0.19241 0.24166
#
# Static dielectric constant tensor:
#      x y z
#    x 2.140960 0.000000 0.083030 
#    y 0.000000 1.906300 0.000000 
#    z 0.083030 0.000000 2.076860 
# 
# From -- ./inp_files/98046.got.cif
#   From: 2010.05.17/outbox.cif.g08.bks.cpg/sg15_50_cif.got.tgz:98046.got - 2010.06.03 18:47:42.
