data_PCOD9300536
_publ_section_title
;
Structure prediction by ZEFSAII (Michael W. Deem and Ramdas Pophale) SiO2 
 PCOD9300536
Probable space group: C 2/C
;
_chemical_formula_sum "Si O2"
_cell_formula_units_Z 52
_cell_length_a 16.155305
_cell_length_b 22.138041
_cell_length_c 13.080107
_cell_angle_alpha 90.000000
_cell_angle_beta 138.808991
_cell_angle_gamma 90.000000
_cell_volume 3080.835428
_symmetry_space_group_name_H-M "C 2/C"
_symmetry_group_IT_number 15
_symmetry_cell_setting 'monoclinic'
loop_
_space_group_symop_operation_xyz
x,y,z
-x,y,1/2-z
-x,-y,-z
x,-y,1/2+z
1/2+x,1/2+y,z
1/2-x,1/2+y,1/2-z
1/2-x,1/2-y,-z
1/2+x,1/2-y,1/2+z
loop_
_atom_site_type_symbol
_atom_site_label
_atom_site_fract_x
_atom_site_fract_y
_atom_site_fract_z
Si Si1 0.783496 0.495222 0.651162
Si Si2 0.894456 0.802358 0.563439
Si Si3 0.408941 0.411492 0.427111
Si Si4 0.361124 0.535371 0.668085
Si Si5 0.307048 0.424821 0.756162
Si Si6 0.000000 0.571321 0.750000
Si Si7 0.175253 0.331107 0.512139
O O1 0.674259 0.544007 0.578847
O O2 0.734821 0.453743 0.512936
O O3 0.793287 0.454747 0.761318
O O4 0.906045 0.530460 0.728869
O O5 0.906595 0.846522 0.478629
O O6 0.891794 0.732294 0.528472
O O7 0.762710 0.818397 0.495266
O O8 0.000000 0.811885 0.750000
O O9 0.358708 0.421698 0.265421
O O10 0.556349 0.428218 0.564172
O O11 0.500000 0.535563 0.750000
O O12 0.325265 0.468402 0.675570
O O13 0.265324 0.358681 0.682835
O O14 0.079261 0.615815 0.896043
#
# Coordination Sequence:
#
# PCOD9300536 Si02
#       7
#     8   8   8   8   8   4   8
#     4  11  22  35  53  82 116 146 178 216 285 327
#     4  11  21  36  58  80 107 143 185 234 271 308
#     4  11  20  33  58  84 108 137 189 234 268 319
#     4  11  18  32  55  84 110 134 176 233 274 316
#     4  11  20  34  58  83 108 143 179 231 272 326
#     4  12  22  36  52  76 120 150 174 212 274 354
#     4  11  23  35  54  81 112 146 183 219 274 332
#
# _framework density 16.878539
#
# number of rings (size 3 to 8) (size 9 to 14) (size 15 to 20)
#    0.000    0.923    8.462    0.923    0.000    0.615 
#    0.000    0.000    0.000    0.923    2.000    0.000 
#    0.000    0.000    0.000    0.000    0.000    0.000 
#
# Total GULP energy -145012.039794 kJ/mol
# GULP energy per Si atom -5577.386146 kJ/mol
# Density = 1.684012 g / cm^3
# Si number density = 16.878539 Si / 1000 Ang^3
#
#
#
# Elastic Constant Matrix: (Units=GPa)
#
#
# Indices 1 2 3 4 5 6 
#
# 1 91.8486 49.1937 30.8966 0.0000 -5.4797 0.0000
# 2 49.1937 86.4211 22.0945 0.0000 -9.5469 0.0000
# 3 30.8966 22.0945 52.0861 0.0000 -5.5719 0.0000
# 4 0.0000 0.0000 0.0000 28.3221 0.0000 -0.6438
# 5 -5.4797 -9.5469 -5.5719 0.0000 26.4553 0.0000
# 6 0.0000 0.0000 0.0000 -0.6438 0.0000 19.4250
#
#
#
# Elastic Compliance Matrix: (Units=1/GPa)
#
#
# Indices 1 2 3 4 5 6 
#
# 1 0.017680 -0.008358 -0.007031 0.000000 -0.000835 0.000000
# 2 -0.008358 0.017276 -0.001932 0.000000 0.004096 0.000000
# 3 -0.007031 -0.001932 0.024511 0.000000 0.003009 0.000000
# 4 0.000000 0.000000 0.000000 0.035335 0.000000 0.001171
# 5 -0.000835 0.004096 0.003009 0.000000 0.039739 0.000000
# 6 0.000000 0.000000 0.000000 0.001171 0.000000 0.051519
#
#
# Mechanical properties :
#
#
# Convention : Reuss Voigt Hill
#
# Bulk Modulus (GPa) = 40.28440 48.30280 44.29360
# Shear Modulus (GPa) = 21.83643 23.38522 22.61083
#
# Velocity S-wave (km/s) = 3.60076 3.72627 3.66405
# Velocity P-wave (km/s) = 6.41922 6.86975 6.64830
#
# Compressibility (1/GPa) = 0.02482350
#
# Stress axis : x y z
#
# Youngs Moduli (GPa) = 56.56262 57.88527 40.79806
#
# Poissons Ratio (x) = 0.48383 0.28685
# Poissons Ratio (y) = 0.47278 0.07882
# Poissons Ratio (z) = 0.39769 0.11183
#
# Static dielectric constant tensor:
#      x y z
#    x 1.571840 0.000000 0.010390 
#    y 0.000000 1.582320 0.000000 
#    z 0.010390 0.000000 1.644270 
# 
# From -- ./inp_files/99844.got.cif
#   From: 2010.05.17/outbox.cif.g08.bks.cpg/sg15_50_cif.got.tgz:99844.got - 2010.06.03 18:47:42.
