data_PCOD9300123
_publ_section_title
;
Structure prediction by ZEFSAII (Michael W. Deem and Ramdas Pophale) SiO2 
 PCOD9300123
Probable space group: C 2/C
;
_chemical_formula_sum "Si O2"
_cell_formula_units_Z 44
_cell_length_a 16.423725
_cell_length_b 7.890815
_cell_length_c 14.782682
_cell_angle_alpha 90.000000
_cell_angle_beta 74.125602
_cell_angle_gamma 90.000000
_cell_volume 1842.723879
_symmetry_space_group_name_H-M "C 2/C"
_symmetry_group_IT_number 15
_symmetry_cell_setting 'monoclinic'
loop_
_space_group_symop_operation_xyz
x,y,z
-x,y,1/2-z
-x,-y,-z
x,-y,1/2+z
1/2+x,1/2+y,z
1/2-x,1/2+y,1/2-z
1/2-x,1/2-y,-z
1/2+x,1/2-y,1/2+z
loop_
_atom_site_type_symbol
_atom_site_label
_atom_site_fract_x
_atom_site_fract_y
_atom_site_fract_z
Si Si1 0.717431 0.509787 0.766800
Si Si2 0.890094 0.090167 0.860355
Si Si3 0.630529 0.830092 0.334945
Si Si4 0.930191 0.390492 0.962730
Si Si5 0.245871 0.558634 0.534000
Si Si6 0.000000 0.790162 0.750000
O O1 0.654349 0.621124 0.723788
O O2 0.681597 0.321553 0.773591
O O3 0.808563 0.512141 0.691413
O O4 0.727526 0.550675 0.869036
O O5 0.945987 0.245615 0.882256
O O6 0.811159 0.048105 0.951298
O O7 0.945671 0.920540 0.828185
O O8 0.609905 0.784705 0.442330
O O9 0.547249 0.836096 0.302364
O O10 0.851534 0.498434 0.947713
O O11 0.000000 0.500000 0.000000
O O12 0.250000 0.750000 0.500000
#
# Coordination Sequence:
#
# PCOD9300123 Si02
#       6
#     8   8   8   8   8   4
#     4  11  23  44  78  97 141 189 250 297 362 436
#     4  11  24  51  71 104 146 196 244 302 370 441
#     4  11  24  47  68 106 139 189 238 307 364 437
#     4  12  28  47  71 108 153 194 246 308 373 440
#     4  12  25  45  75 106 140 196 252 297 367 447
#     4  10  26  44  74 106 148 184 244 302 374 436
#
# _framework density 23.877696
#
# number of rings (size 3 to 8) (size 9 to 14) (size 15 to 20)
#    0.000    0.727    3.636    3.818    5.091    3.636 
#    3.273    0.000    0.000    0.000    0.000    0.000 
#    0.000    0.000    0.000    0.000    0.000    0.000 
#
# Total GULP energy -122862.554453 kJ/mol
# GULP energy per Si atom -5584.661566 kJ/mol
# Density = 2.382335 g / cm^3
# Si number density = 23.877696 Si / 1000 Ang^3
#
#
#
# Elastic Constant Matrix: (Units=GPa)
#
#
# Indices 1 2 3 4 5 6 
#
# 1 87.9042 20.0503 51.8380 0.0000 27.6699 0.0000
# 2 20.0503 50.0855 7.1141 0.0000 17.7435 0.0000
# 3 51.8380 7.1141 104.2943 0.0000 38.3906 0.0000
# 4 0.0000 0.0000 0.0000 32.9390 0.0000 10.0121
# 5 27.6699 17.7435 38.3906 0.0000 46.1753 0.0000
# 6 0.0000 0.0000 0.0000 10.0121 0.0000 23.1711
#
#
#
# Elastic Compliance Matrix: (Units=1/GPa)
#
#
# Indices 1 2 3 4 5 6 
#
# 1 0.017800 -0.005223 -0.007642 0.000000 -0.002305 0.000000
# 2 -0.005223 0.025084 0.004728 0.000000 -0.010440 0.000000
# 3 -0.007642 0.004728 0.017360 0.000000 -0.011671 0.000000
# 4 0.000000 0.000000 0.000000 0.034949 0.000000 -0.015101
# 5 -0.002305 -0.010440 -0.011671 0.000000 0.036753 0.000000
# 6 0.000000 0.000000 0.000000 -0.015101 0.000000 0.049682
#
#
# Mechanical properties :
#
#
# Convention : Reuss Voigt Hill
#
# Bulk Modulus (GPa) = 22.74364 44.47654 33.61009
# Shear Modulus (GPa) = 23.52278 31.34251 27.43265
#
# Velocity S-wave (km/s) = 3.14209 3.62695 3.39319
# Velocity P-wave (km/s) = 4.76544 6.01722 5.42754
#
# Compressibility (1/GPa) = 0.04396834
#
# Stress axis : x y z
#
# Youngs Moduli (GPa) = 56.18033 39.86646 57.60298
#
# Poissons Ratio (x) = 0.20824 0.44022
# Poissons Ratio (y) = 0.29346 -0.27235
# Poissons Ratio (z) = 0.42935 -0.18849
#
# Static dielectric constant tensor:
#      x y z
#    x 2.074800 0.000000 -0.028050 
#    y 0.000000 1.929780 0.000000 
#    z -0.028050 0.000000 1.917600 
# 
# From -- ./inp_files/159284.got.cif
#   From: 2010.05.17/outbox.cif.g08.bks.cpg/sg15_80_cif.got.tgz:159284.got - 2010.06.03 18:47:42.
