data_PCOD9300727
_publ_section_title
;
Structure prediction by ZEFSAII (Michael W. Deem and Ramdas Pophale) SiO2 
 PCOD9300727
Probable space group: C 2/C
;
_chemical_formula_sum "Si O2"
_cell_formula_units_Z 56
_cell_length_a 18.271865
_cell_length_b 17.837150
_cell_length_c 10.827611
_cell_angle_alpha 90.000000
_cell_angle_beta 129.503029
_cell_angle_gamma 90.000000
_cell_volume 2722.877575
_symmetry_space_group_name_H-M "C 2/C"
_symmetry_group_IT_number 15
_symmetry_cell_setting 'monoclinic'
loop_
_space_group_symop_operation_xyz
x,y,z
-x,y,1/2-z
-x,-y,-z
x,-y,1/2+z
1/2+x,1/2+y,z
1/2-x,1/2+y,1/2-z
1/2-x,1/2-y,-z
1/2+x,1/2-y,1/2+z
loop_
_atom_site_type_symbol
_atom_site_label
_atom_site_fract_x
_atom_site_fract_y
_atom_site_fract_z
Si Si1 0.964552 0.701872 0.575947
Si Si2 0.128820 0.688241 0.560006
Si Si3 0.864266 0.922294 0.844795
Si Si4 0.290921 0.412696 0.239157
Si Si5 0.454396 0.618769 0.074597
Si Si6 0.388795 0.334027 0.115802
Si Si7 0.251123 0.708617 0.130893
O O1 0.969199 0.792341 0.583249
O O2 0.853916 0.683081 0.443797
O O3 0.000000 0.676024 0.750000
O O4 0.032477 0.679807 0.535481
O O5 0.181083 0.608626 0.603659
O O6 0.119379 0.746182 0.434710
O O7 0.203388 0.733430 0.725083
O O8 0.822272 0.860757 0.706526
O O9 0.977807 0.919553 0.953586
O O10 0.816714 0.000061 0.757065
O O11 0.846358 0.887316 0.961718
O O12 0.345033 0.395238 0.426559
O O13 0.340264 0.358893 0.190456
O O14 0.500000 0.589950 0.250000
O O15 0.500000 0.348587 0.250000
O O16 0.250000 0.750000 0.000000
#
# Coordination Sequence:
#
# PCOD9300727 Si02
#       7
#     8   8   8   8   8   8   8
#     4  11  19  36  63  94 120 157 214 264 298 361
#     4  11  23  39  61  92 123 170 215 246 312 379
#     4  11  25  39  60  96 124 162 208 261 322 383
#     4  12  25  39  62  89 134 172 195 258 326 379
#     4  11  21  35  63  95 124 157 204 260 326 375
#     4  11  23  43  61  89 129 166 216 258 308 381
#     4  11  20  38  64  92 123 157 205 264 309 363
#
# _framework density 20.566476999999999
#
# number of rings (size 3 to 8) (size 9 to 14) (size 15 to 20)
#    0.000    0.857    7.143    1.714    2.000    0.000 
#    0.000    0.714    0.000    0.857    0.000    0.000 
#    0.000    0.000    0.000    0.000    0.000    0.000 
#
# Total GULP energy -156229.367989 kJ/mol
# GULP energy per Si atom -5579.620285 kJ/mol
# Density = 2.051967 g / cm^3
# Si number density = 20.566477 Si / 1000 Ang^3
#
#
#
# Elastic Constant Matrix: (Units=GPa)
#
#
# Indices 1 2 3 4 5 6 
#
# 1 29.8028 -4.0131 11.2162 0.0000 15.0774 0.0000
# 2 -4.0131 71.2738 15.0943 0.0000 0.1244 0.0000
# 3 11.2162 15.0943 76.2705 0.0000 -3.1046 0.0000
# 4 0.0000 0.0000 0.0000 26.3998 0.0000 -0.9374
# 5 15.0774 0.1244 -3.1046 0.0000 39.2813 0.0000
# 6 0.0000 0.0000 0.0000 -0.9374 0.0000 -3.2184
#
#
#
# Elastic Compliance Matrix: (Units=1/GPa)
#
#
# Indices 1 2 3 4 5 6 
#
# 1 0.046802 0.004474 -0.008527 0.000000 -0.018652 0.000000
# 2 0.004474 0.015075 -0.003725 0.000000 -0.002059 0.000000
# 3 -0.008527 -0.003725 0.015285 0.000000 0.004493 0.000000
# 4 0.000000 0.000000 0.000000 0.037491 0.000000 -0.010920
# 5 -0.018652 -0.002059 0.004493 0.000000 0.032978 0.000000
# 6 0.000000 0.000000 0.000000 -0.010920 0.000000 -0.307529
#
#
# Mechanical properties :
#
#
# Convention : Reuss Voigt Hill
#
# Bulk Modulus (GPa) = 16.23256 24.66020 20.44638
# Shear Modulus (GPa) = -40.38599 22.82917 -8.77841
#
# Velocity S-wave (km/s) = -4.43615 3.33531 -2.06823
# Velocity P-wave (km/s) = 4.28128 5.18159 2.06392
#
# Compressibility (1/GPa) = 0.06160456
#
# Stress axis : x y z
#
# Youngs Moduli (GPa) = 21.36678 66.33590 65.42236
#
# Poissons Ratio (x) = -0.29676 0.55786
# Poissons Ratio (y) = -0.09559 0.24370
# Poissons Ratio (z) = 0.18220 0.24711
#
# Static dielectric constant tensor:
#      x y z
#    x 1.819300 0.000000 -0.050400 
#    y 0.000000 1.756850 0.000000 
#    z -0.050400 0.000000 1.789480 
# 
# From -- ./inp_files/106731.got.cif
#   From: 2010.05.17/outbox.cif.g08.bks.cpg/sg15_54_cif.got.tgz:106731.got - 2010.06.03 18:47:42.
