data_PCOD9300973
_publ_section_title
;
Structure prediction by ZEFSAII (Michael W. Deem and Ramdas Pophale) SiO2 
 PCOD9300973
Probable space group: C 2/C
;
_chemical_formula_sum "Si O2"
_cell_formula_units_Z 60
_cell_length_a 23.917788
_cell_length_b 22.250845
_cell_length_c 12.581627
_cell_angle_alpha 90.000000
_cell_angle_beta 148.552129
_cell_angle_gamma 90.000000
_cell_volume 3493.365074
_symmetry_space_group_name_H-M "C 2/C"
_symmetry_group_IT_number 15
_symmetry_cell_setting 'monoclinic'
loop_
_space_group_symop_operation_xyz
x,y,z
-x,y,1/2-z
-x,-y,-z
x,-y,1/2+z
1/2+x,1/2+y,z
1/2-x,1/2+y,1/2-z
1/2-x,1/2-y,-z
1/2+x,1/2-y,1/2+z
loop_
_atom_site_type_symbol
_atom_site_label
_atom_site_fract_x
_atom_site_fract_y
_atom_site_fract_z
Si Si1 0.310187 0.700937 0.374036
Si Si2 0.588814 0.751901 0.602739
Si Si3 0.914593 0.023537 0.778853
Si Si4 0.353738 0.289005 0.696771
Si Si5 0.875817 0.905669 0.584921
Si Si6 0.000000 0.885182 0.250000
Si Si7 0.100863 0.687414 0.353471
Si Si8 0.197978 0.879521 0.267551
O O1 0.182233 0.709445 0.192780
O O2 0.337440 0.695925 0.294399
O O3 0.389460 0.652325 0.557362
O O4 0.356607 0.762336 0.496389
O O5 0.466328 0.746964 0.362740
O O6 0.584418 0.780316 0.713869
O O7 0.626801 0.681716 0.666747
O O8 0.836729 0.062571 0.724199
O O9 0.978886 0.070955 0.812600
O O10 0.864772 0.969452 0.628016
O O11 0.000000 0.000000 0.000000
O O12 0.250000 0.250000 0.500000
O O13 0.357062 0.349670 0.632937
O O14 0.806830 0.895320 0.365760
O O15 0.000000 0.903980 0.750000
O O16 0.191509 0.638385 0.499058
O O17 0.000000 0.661044 0.250000
#
# Coordination Sequence:
#
# PCOD9300973 Si02
#       8
#     8   8   8   8   8   4   8   8
#     4  11  21  34  55  86 123 155 191 244 287 357
#     4  11  21  37  56  88 126 155 197 245 300 353
#     4  12  21  36  57  85 117 152 197 243 297 349
#     4  12  24  37  59  86 120 160 194 240 300 367
#     4  12  23  39  57  87 121 155 195 247 302 361
#     4  12  20  34  56  90 118 152 192 238 298 340
#     4  11  20  35  58  87 118 156 200 238 293 355
#     4  11  22  37  58  84 119 157 191 248 299 352
#
# _framework density 17.175416999999999
#
# number of rings (size 3 to 8) (size 9 to 14) (size 15 to 20)
#    0.000    0.533    5.333    6.400    0.000    0.000 
#    0.000    0.000    0.000    0.800    6.933    0.000 
#    0.000    0.000    0.000    0.000    0.000    0.000 
#
# Total GULP energy -167196.537317 kJ/mol
# GULP energy per Si atom -5573.217911 kJ/mol
# Density = 1.713632 g / cm^3
# Si number density = 17.175417 Si / 1000 Ang^3
#
#
#
# Elastic Constant Matrix: (Units=GPa)
#
#
# Indices 1 2 3 4 5 6 
#
# 1 84.8358 57.6603 36.3422 0.0000 -8.0176 0.0000
# 2 57.6603 116.4445 50.8767 0.0000 5.1493 0.0000
# 3 36.3422 50.8767 83.8223 0.0000 20.9586 0.0000
# 4 0.0000 0.0000 0.0000 31.1653 0.0000 -4.4616
# 5 -8.0176 5.1493 20.9586 0.0000 26.7623 0.0000
# 6 0.0000 0.0000 0.0000 -4.4616 0.0000 42.8266
#
#
#
# Elastic Compliance Matrix: (Units=1/GPa)
#
#
# Indices 1 2 3 4 5 6 
#
# 1 0.022258 -0.007943 -0.008553 0.000000 0.014895 0.000000
# 2 -0.007943 0.014897 -0.005330 0.000000 -0.001072 0.000000
# 3 -0.008553 -0.005330 0.023947 0.000000 -0.020291 0.000000
# 4 0.000000 0.000000 0.000000 0.032573 0.000000 0.003393
# 5 0.014895 -0.001072 -0.020291 0.000000 0.057925 0.000000
# 6 0.000000 0.000000 0.000000 0.003393 0.000000 0.023703
#
#
# Mechanical properties :
#
#
# Convention : Reuss Voigt Hill
#
# Bulk Modulus (GPa) = 57.31017 63.87342 60.59180
# Shear Modulus (GPa) = 22.24464 29.49905 25.87185
#
# Velocity S-wave (km/s) = 3.60272 4.14879 3.88536
# Velocity P-wave (km/s) = 7.12363 7.76012 7.44868
#
# Compressibility (1/GPa) = 0.01744891
#
# Stress axis : x y z
#
# Youngs Moduli (GPa) = 44.92773 67.12638 41.75885
#
# Poissons Ratio (x) = 0.53319 0.35718
# Poissons Ratio (y) = 0.35687 0.22258
# Poissons Ratio (z) = 0.38428 0.35780
#
# Static dielectric constant tensor:
#      x y z
#    x 1.678110 0.000000 -0.014090 
#    y 0.000000 1.633560 0.000000 
#    z -0.014090 0.000000 1.520570 
# 
# From -- ./inp_files/119990.got.cif
#   From: 2010.05.17/outbox.cif.g08.bks.cpg/sg15_60_cif.got.tgz:119990.got - 2010.06.03 18:47:42.
