data_PCOD9300337
_publ_section_title
;
Structure prediction by ZEFSAII (Michael W. Deem and Ramdas Pophale) SiO2 
 PCOD9300337
Probable space group: C 2/C
;
_chemical_formula_sum "Si O2"
_cell_formula_units_Z 52
_cell_length_a 27.015147
_cell_length_b 8.889111
_cell_length_c 11.426976
_cell_angle_alpha 90.000000
_cell_angle_beta 122.147163
_cell_angle_gamma 90.000000
_cell_volume 2323.370347
_symmetry_space_group_name_H-M "C 2/C"
_symmetry_group_IT_number 15
_symmetry_cell_setting 'monoclinic'
loop_
_space_group_symop_operation_xyz
x,y,z
-x,y,1/2-z
-x,-y,-z
x,-y,1/2+z
1/2+x,1/2+y,z
1/2-x,1/2+y,1/2-z
1/2-x,1/2-y,-z
1/2+x,1/2-y,1/2+z
loop_
_atom_site_type_symbol
_atom_site_label
_atom_site_fract_x
_atom_site_fract_y
_atom_site_fract_z
Si Si1 0.597421 0.229497 0.980180
Si Si2 0.358529 0.281132 0.005516
Si Si3 0.181202 0.318127 0.276316
Si Si4 0.531953 0.541144 0.915327
Si Si5 0.500000 0.984877 0.250000
Si Si6 0.693833 0.596530 0.478754
Si Si7 0.596068 0.917803 0.726988
O O1 0.660379 0.269429 0.006526
O O2 0.603567 0.178657 0.120371
O O3 0.563511 0.385121 0.926792
O O4 0.555462 0.110024 0.864172
O O5 0.317202 0.200268 0.860402
O O6 0.331241 0.434040 0.022215
O O7 0.417748 0.332036 0.011236
O O8 0.373801 0.168207 0.128120
O O9 0.238603 0.395164 0.402164
O O10 0.180798 0.150294 0.330496
O O11 0.126009 0.421572 0.239729
O O12 0.500000 0.578261 0.750000
O O13 0.500000 0.500000 0.000000
O O14 0.472136 0.072940 0.323434
#
# Coordination Sequence:
#
# PCOD9300337 Si02
#       7
#     8   8   8   8   4   8   8
#     4  11  24  44  69  99 138 186 232 290 360 423
#     4  11  28  45  74 105 141 187 245 291 366 434
#     4  11  26  48  74 102 147 183 244 301 359 432
#     4  11  25  42  71 101 142 186 241 296 358 435
#     4  12  24  44  68 100 150 186 228 292 364 430
#     4  10  26  49  72 104 139 189 241 299 361 426
#     4  12  27  44  71 109 142 188 240 295 365 434
#
# _framework density 22.38128
#
# number of rings (size 3 to 8) (size 9 to 14) (size 15 to 20)
#    0.000    0.923    2.308    2.308   16.154    1.846 
#    0.000    0.000    0.000    0.000    0.000    0.000 
#    0.000    0.000    0.000    0.000    0.000    0.000 
#
# Total GULP energy -145278.298200 kJ/mol
# GULP energy per Si atom -5587.626854 kJ/mol
# Density = 2.233034 g / cm^3
# Si number density = 22.381280 Si / 1000 Ang^3
#
#
#
# Elastic Constant Matrix: (Units=GPa)
#
#
# Indices 1 2 3 4 5 6 
#
# 1 60.4086 2.1853 3.8628 0.0000 4.0263 0.0000
# 2 2.1853 75.5296 21.8194 0.0000 0.8514 0.0000
# 3 3.8628 21.8194 96.6995 0.0000 -10.1286 0.0000
# 4 0.0000 0.0000 0.0000 -12.7225 0.0000 25.0748
# 5 4.0263 0.8514 -10.1286 0.0000 25.6063 0.0000
# 6 0.0000 0.0000 0.0000 25.0748 0.0000 13.0165
#
#
#
# Elastic Compliance Matrix: (Units=1/GPa)
#
#
# Indices 1 2 3 4 5 6 
#
# 1 0.016822 -0.000179 -0.000947 0.000000 -0.003014 0.000000
# 2 -0.000179 0.014246 -0.003395 0.000000 -0.001788 0.000000
# 3 -0.000947 -0.003395 0.011655 0.000000 0.004872 0.000000
# 4 0.000000 0.000000 0.000000 -0.016386 0.000000 0.031567
# 5 -0.003014 -0.001788 0.004872 0.000000 0.041513 0.000000
# 6 0.000000 0.000000 0.000000 0.031567 0.000000 0.016016
#
#
# Mechanical properties :
#
#
# Convention : Reuss Voigt Hill
#
# Bulk Modulus (GPa) = 29.69010 32.04142 30.86576
# Shear Modulus (GPa) = 48.01439 18.83140 33.42290
#
# Velocity S-wave (km/s) = 4.63676 2.90382 3.86857
# Velocity P-wave (km/s) = 6.47768 5.05867 5.81165
#
# Compressibility (1/GPa) = 0.03368126
#
# Stress axis : x y z
#
# Youngs Moduli (GPa) = 59.44653 70.19598 85.79684
#
# Poissons Ratio (x) = 0.01257 0.08127
# Poissons Ratio (y) = 0.01065 0.29125
# Poissons Ratio (z) = 0.05631 0.23829
#
# Static dielectric constant tensor:
#      x y z
#    x 2.216540 0.000000 -0.449600 
#    y 0.000000 1.850250 0.000000 
#    z -0.449600 0.000000 2.357760 
# 
# From -- ./inp_files/122076.got.cif
#   From: 2010.05.17/outbox.cif.g08.bks.cpg/sg15_62_cif.got.tgz:122076.got - 2010.06.03 18:47:42.
