data_PCOD9300915
_publ_section_title
;
Structure prediction by ZEFSAII (Michael W. Deem and Ramdas Pophale) SiO2 
 PCOD9300915
Probable space group: C 2/C
;
_chemical_formula_sum "Si O2"
_cell_formula_units_Z 48
_cell_length_a 17.858673
_cell_length_b 4.897092
_cell_length_c 25.581095
_cell_angle_alpha 90.000000
_cell_angle_beta 107.283972
_cell_angle_gamma 90.000000
_cell_volume 2136.185582
_symmetry_space_group_name_H-M "C 2/C"
_symmetry_group_IT_number 15
_symmetry_cell_setting 'monoclinic'
loop_
_space_group_symop_operation_xyz
x,y,z
-x,y,1/2-z
-x,-y,-z
x,-y,1/2+z
1/2+x,1/2+y,z
1/2-x,1/2+y,1/2-z
1/2-x,1/2-y,-z
1/2+x,1/2-y,1/2+z
loop_
_atom_site_type_symbol
_atom_site_label
_atom_site_fract_x
_atom_site_fract_y
_atom_site_fract_z
Si Si1 0.870544 0.182590 0.403026
Si Si2 0.691458 0.873753 0.885712
Si Si3 0.648201 0.912323 0.209216
Si Si4 0.835813 0.910799 0.224877
Si Si5 0.075466 0.684618 0.025786
Si Si6 0.325318 0.359620 0.547890
O O1 0.781602 0.070738 0.387208
O O2 0.892216 0.291968 0.350348
O O3 0.867626 0.452178 0.438725
O O4 0.925791 0.939531 0.434713
O O5 0.650920 0.725238 0.828353
O O6 0.686812 0.662583 0.933085
O O7 0.660425 0.160034 0.900167
O O8 0.741149 0.912100 0.213769
O O9 0.637501 0.714558 0.256611
O O10 0.628924 0.215620 0.223000
O O11 0.105529 0.820743 0.978985
O O12 0.000000 0.500000 0.000000
O O13 0.250000 0.250000 0.500000
#
# Coordination Sequence:
#
# PCOD9300915 Si02
#       6
#     8   8   8   8   8   8
#     4  11  20  36  56  80 111 151 188 228 287 342
#     4  11  20  33  57  84 111 147 184 232 290 343
#     4   9  17  29  49  75 111 144 170 219 282 340
#     4   9  17  29  46  80 113 135 173 223 280 339
#     4  12  25  38  54  80 114 151 195 235 274 338
#     4  12  21  36  56  80 111 151 191 231 285 340
#
# _framework density 22.469958999999999
#
# number of rings (size 3 to 8) (size 9 to 14) (size 15 to 20)
#    0.000    1.333    3.333    4.000    0.000    5.333 
#    0.000    0.000    0.000    0.000    0.000   17.500 
#    0.000    0.000    0.000    0.000    0.000    0.000 
#
# Total GULP energy -134098.405768 kJ/mol
# GULP energy per Si atom -5587.433574 kJ/mol
# Density = 2.241882 g / cm^3
# Si number density = 22.469959 Si / 1000 Ang^3
#
#
#
# Elastic Constant Matrix: (Units=GPa)
#
#
# Indices 1 2 3 4 5 6 
#
# 1 26.1243 -2.0405 12.1956 -0.0001 2.8120 0.0001
# 2 -2.0405 100.3496 -0.3795 -0.0004 4.8277 0.0006
# 3 12.1956 -0.3795 56.9725 -0.0001 -14.4700 0.0001
# 4 -0.0001 -0.0004 -0.0001 34.3216 0.0001 -5.3618
# 5 2.8120 4.8277 -14.4700 0.0001 7.0748 -0.0001
# 6 0.0001 0.0006 0.0001 -5.3618 -0.0001 26.1452
#
#
#
# Elastic Compliance Matrix: (Units=1/GPa)
#
#
# Indices 1 2 3 4 5 6 
#
# 1 0.082403 0.008950 -0.057123 0.000000 -0.155694 -0.000001
# 2 0.008950 0.011637 -0.009903 0.000000 -0.031753 0.000000
# 3 -0.057123 -0.009903 0.077409 0.000000 0.187787 0.000001
# 4 0.000000 0.000000 0.000000 0.030100 -0.000001 0.006173
# 5 -0.155694 -0.031753 0.187787 -0.000001 0.608979 0.000003
# 6 -0.000001 0.000000 0.000001 0.006173 0.000003 0.039514
#
#
# Mechanical properties :
#
#
# Convention : Reuss Voigt Hill
#
# Bulk Modulus (GPa) = 18.08443 22.55531 20.31987
# Shear Modulus (GPa) = 5.07806 25.08638 15.08222
#
# Velocity S-wave (km/s) = 1.50494 3.34494 2.59360
# Velocity P-wave (km/s) = 3.32949 4.99780 4.24638
#
# Compressibility (1/GPa) = 0.05529620
#
# Stress axis : x y z
#
# Youngs Moduli (GPa) = 12.13546 85.93061 12.91843
#
# Poissons Ratio (x) = -0.76906 0.73794
# Poissons Ratio (y) = -0.10861 0.12793
# Poissons Ratio (z) = 0.69322 0.85097
#
# Static dielectric constant tensor:
#      x y z
#    x 1.852680 0.000000 0.030690 
#    y 0.000000 1.805680 0.000000 
#    z 0.030690 0.000000 1.897830 
# 
# From -- ./inp_files/275875.got.cif
#   From: 2010.05.17/outbox.cif.g08.bks.cpg/sg15_138_cif.got.tgz:275875.got - 2010.06.03 18:47:42.
