data_PCOD9300788
_publ_section_title
;
Structure prediction by ZEFSAII (Michael W. Deem and Ramdas Pophale) SiO2 
 PCOD9300788
Probable space group: C 2/C
;
_chemical_formula_sum "Si O2"
_cell_formula_units_Z 40
_cell_length_a 18.752753
_cell_length_b 15.859044
_cell_length_c 5.432351
_cell_angle_alpha 90.000000
_cell_angle_beta 80.190533
_cell_angle_gamma 90.000000
_cell_volume 1591.964939
_symmetry_space_group_name_H-M "C 2/C"
_symmetry_group_IT_number 15
_symmetry_cell_setting 'monoclinic'
loop_
_space_group_symop_operation_xyz
x,y,z
-x,y,1/2-z
-x,-y,-z
x,-y,1/2+z
1/2+x,1/2+y,z
1/2-x,1/2+y,1/2-z
1/2-x,1/2-y,-z
1/2+x,1/2-y,1/2+z
loop_
_atom_site_type_symbol
_atom_site_label
_atom_site_fract_x
_atom_site_fract_y
_atom_site_fract_z
Si Si1 0.456462 0.118574 0.031124
Si Si2 0.305430 0.280528 0.675118
Si Si3 0.798513 0.610734 0.987684
Si Si4 0.833987 0.044493 0.632588
Si Si5 0.574758 0.307855 0.275550
O O1 0.500000 0.087810 0.250000
O O2 0.444165 0.218421 0.090578
O O3 0.500000 0.108129 0.750000
O O4 0.375288 0.081503 0.046484
O O5 0.250000 0.250000 0.500000
O O6 0.311719 0.203048 0.859486
O O7 0.381622 0.291868 0.500403
O O8 0.265508 0.365824 0.783935
O O9 0.753608 0.555308 0.820382
O O10 0.872757 0.135382 0.592041
O O11 0.856341 0.990451 0.384561
O O12 0.500000 0.351835 0.250000
#
# Coordination Sequence:
#
# PCOD9300788 Si02
#       5
#     8   8   8   8   8
#     4  11  24  39  68 107 132 161 203 275 371 407
#     4  11  19  38  69 100 123 171 214 277 355 385
#     4  11  22  40  67  93 136 166 223 287 324 397
#     4  12  28  44  64  91 127 192 239 258 304 380
#     4  11  23  42  66  99 141 168 213 276 335 399
#
# _framework density 25.126183000000001
#
# number of rings (size 3 to 8) (size 9 to 14) (size 15 to 20)
#    0.000    0.800    4.000    4.800    0.000    4.000 
#    0.000    0.000    0.000    3.600    0.000    0.000 
#    0.000    0.000    0.000    0.000    0.000    0.000 
#
# Total GULP energy -111958.751760 kJ/mol
# GULP energy per Si atom -5597.937588 kJ/mol
# Density = 2.506899 g / cm^3
# Si number density = 25.126183 Si / 1000 Ang^3
#
#
#
# Elastic Constant Matrix: (Units=GPa)
#
#
# Indices 1 2 3 4 5 6 
#
# 1 186.4179 9.3486 46.8525 0.0000 -0.2036 0.0000
# 2 9.3486 81.4720 23.7236 0.0000 -3.3410 0.0000
# 3 46.8525 23.7236 136.4621 0.0000 -11.1653 0.0000
# 4 0.0000 0.0000 0.0000 21.9631 0.0000 8.0261
# 5 -0.2036 -3.3410 -11.1653 0.0000 46.6517 0.0000
# 6 0.0000 0.0000 0.0000 8.0261 0.0000 31.4708
#
#
#
# Elastic Compliance Matrix: (Units=1/GPa)
#
#
# Indices 1 2 3 4 5 6 
#
# 1 0.005882 -0.000100 -0.002040 0.000000 -0.000470 0.000000
# 2 -0.000100 0.012937 -0.002182 0.000000 0.000404 0.000000
# 3 -0.002040 -0.002182 0.008562 0.000000 0.001884 0.000000
# 4 0.000000 0.000000 0.000000 0.050210 0.000000 -0.012805
# 5 -0.000470 0.000404 0.001884 0.000000 0.021913 0.000000
# 6 0.000000 0.000000 0.000000 -0.012805 0.000000 0.035041
#
#
# Mechanical properties :
#
#
# Convention : Reuss Voigt Hill
#
# Bulk Modulus (GPa) = 53.37109 62.68905 58.03007
# Shear Modulus (GPa) = 33.45916 41.64563 37.55240
#
# Velocity S-wave (km/s) = 3.65313 4.07561 3.87014
# Velocity P-wave (km/s) = 6.25149 6.86668 6.56629
#
# Compressibility (1/GPa) = 0.01873673
#
# Stress axis : x y z
#
# Youngs Moduli (GPa) = 170.02125 77.29474 116.79448
#
# Poissons Ratio (x) = 0.00773 0.23831
# Poissons Ratio (y) = 0.01700 0.25482
# Poissons Ratio (z) = 0.34692 0.16864
#
# Static dielectric constant tensor:
#      x y z
#    x 1.972670 0.000000 0.088580 
#    y 0.000000 2.060520 0.000000 
#    z 0.088580 0.000000 1.574550 
# 
# From -- ./inp_files/9810.got.cif
#   From: 2010.05.17/outbox.cif.g08.bks.cpg/sg15_5_cif.got.tgz:9810.got - 2010.06.03 18:47:42.
