data_PCOD9300097
_publ_section_title
;
Structure prediction by ZEFSAII (Michael W. Deem and Ramdas Pophale) SiO2 
 PCOD9300097
Probable space group: C 2/C
;
_chemical_formula_sum "Si O2"
_cell_formula_units_Z 44
_cell_length_a 14.877479
_cell_length_b 19.332980
_cell_length_c 8.137200
_cell_angle_alpha 90.000000
_cell_angle_beta 59.371221
_cell_angle_gamma 90.000000
_cell_volume 2013.942488
_symmetry_space_group_name_H-M "C 2/C"
_symmetry_group_IT_number 15
_symmetry_cell_setting 'monoclinic'
loop_
_space_group_symop_operation_xyz
x,y,z
-x,y,1/2-z
-x,-y,-z
x,-y,1/2+z
1/2+x,1/2+y,z
1/2-x,1/2+y,1/2-z
1/2-x,1/2-y,-z
1/2+x,1/2-y,1/2+z
loop_
_atom_site_type_symbol
_atom_site_label
_atom_site_fract_x
_atom_site_fract_y
_atom_site_fract_z
Si Si1 0.532229 0.843604 0.410377
Si Si2 0.475246 0.694157 0.462024
Si Si3 0.260152 0.386370 0.165867
Si Si4 0.232581 0.510676 0.998129
Si Si5 0.000000 0.443497 0.750000
Si Si6 0.435549 0.563250 0.975247
O O1 0.500000 0.858815 0.250000
O O2 0.486443 0.771132 0.520136
O O3 0.657644 0.840372 0.281100
O O4 0.504076 0.899993 0.575579
O O5 0.500000 0.705670 0.250000
O O6 0.363014 0.658832 0.590801
O O7 0.555910 0.635574 0.441723
O O8 0.260970 0.429687 0.994042
O O9 0.249620 0.445789 0.315837
O O10 0.110071 0.516351 0.154523
O O11 0.317362 0.545958 0.039494
O O12 0.500000 0.573859 0.750000
O O13 0.500000 0.500000 0.000000
#
# Coordination Sequence:
#
# PCOD9300097 Si02
#       6
#     8   8   8   8   4   8
#     4  10  26  46  67  97 140 187 232 286 337 428
#     4  11  25  42  67  98 137 182 229 285 347 419
#     4  11  25  43  67 102 136 178 231 287 356 405
#     4  11  24  41  68 103 135 180 224 293 346 412
#     4  10  26  44  70 104 134 190 234 278 360 406
#     4  12  22  39  64 101 133 173 224 286 352 398
#
# _framework density 21.847695999999999
#
# number of rings (size 3 to 8) (size 9 to 14) (size 15 to 20)
#    0.000    1.091    3.636    0.545    7.636    5.818 
#    0.000    3.636    0.000    0.000    0.000    0.000 
#    0.000    0.000    0.000    0.000    0.000    0.000 
#
# Total GULP energy -122821.153003 kJ/mol
# GULP energy per Si atom -5582.779682 kJ/mol
# Density = 2.179797 g / cm^3
# Si number density = 21.847696 Si / 1000 Ang^3
#
#
#
# Elastic Constant Matrix: (Units=GPa)
#
#
# Indices 1 2 3 4 5 6 
#
# 1 137.8660 47.5169 34.9214 0.0000 -30.2479 0.0000
# 2 47.5169 93.2977 13.1313 0.0000 -5.8696 0.0000
# 3 34.9214 13.1313 52.4618 0.0000 -9.7955 0.0000
# 4 0.0000 0.0000 0.0000 20.7490 0.0000 -6.7663
# 5 -30.2479 -5.8696 -9.7955 0.0000 43.1472 0.0000
# 6 0.0000 0.0000 0.0000 -6.7663 0.0000 26.0292
#
#
#
# Elastic Compliance Matrix: (Units=1/GPa)
#
#
# Indices 1 2 3 4 5 6 
#
# 1 0.011643 -0.004777 -0.005380 0.000000 0.006291 0.000000
# 2 -0.004777 0.013105 -0.000410 0.000000 -0.001659 0.000000
# 3 -0.005380 -0.000410 0.023006 0.000000 0.001396 0.000000
# 4 0.000000 0.000000 0.000000 0.052659 0.000000 0.013689
# 5 0.006291 -0.001659 0.001396 0.000000 0.027678 0.000000
# 6 0.000000 0.000000 0.000000 0.013689 0.000000 0.041977
#
#
# Mechanical properties :
#
#
# Convention : Reuss Voigt Hill
#
# Bulk Modulus (GPa) = 37.56627 52.75164 45.15895
# Shear Modulus (GPa) = 24.99085 30.52214 27.75649
#
# Velocity S-wave (km/s) = 3.38578 3.74176 3.56821
# Velocity P-wave (km/s) = 5.70233 6.54716 6.13929
#
# Compressibility (1/GPa) = 0.02661962
#
# Stress axis : x y z
#
# Youngs Moduli (GPa) = 85.89104 76.30945 43.46722
#
# Poissons Ratio (x) = 0.36451 0.23384
# Poissons Ratio (y) = 0.41028 0.01783
# Poissons Ratio (z) = 0.46207 0.03131
#
# Static dielectric constant tensor:
#      x y z
#    x 1.679130 0.000000 -0.152280 
#    y 0.000000 1.655300 0.000000 
#    z -0.152280 0.000000 1.571040 
# 
# From -- ./inp_files/31026.got.cif
#   From: 2010.05.17/outbox.cif.g08.bks.cpg/sg15_16_cif.got.tgz:31026.got - 2010.06.03 18:47:42.
