data_PCOD9300940
_publ_section_title
;
Structure prediction by ZEFSAII (Michael W. Deem and Ramdas Pophale) SiO2 
 PCOD9300940
Probable space group: C 2/C
;
_chemical_formula_sum "Si O2"
_cell_formula_units_Z 48
_cell_length_a 30.778625
_cell_length_b 9.179132
_cell_length_c 17.793749
_cell_angle_alpha 90.000000
_cell_angle_beta 151.771038
_cell_angle_gamma 90.000000
_cell_volume 2377.803325
_symmetry_space_group_name_H-M "C 2/C"
_symmetry_group_IT_number 15
_symmetry_cell_setting 'monoclinic'
loop_
_space_group_symop_operation_xyz
x,y,z
-x,y,1/2-z
-x,-y,-z
x,-y,1/2+z
1/2+x,1/2+y,z
1/2-x,1/2+y,1/2-z
1/2-x,1/2-y,-z
1/2+x,1/2-y,1/2+z
loop_
_atom_site_type_symbol
_atom_site_label
_atom_site_fract_x
_atom_site_fract_y
_atom_site_fract_z
Si Si1 0.031490 0.380845 0.987417
Si Si2 0.419813 0.618758 0.869385
Si Si3 0.264064 0.026820 0.474563
Si Si4 0.270433 0.849870 0.138584
Si Si5 0.353788 0.954579 0.468836
Si Si6 0.190283 0.224966 0.659649
O O1 0.131154 0.334651 0.171860
O O2 0.053287 0.431603 0.936005
O O3 0.000000 0.500000 0.000000
O O4 0.960784 0.249781 0.883550
O O5 0.328842 0.553123 0.692717
O O6 0.390134 0.681072 0.905951
O O7 0.500000 0.500000 0.000000
O O8 0.275444 0.028856 0.581506
O O9 0.251728 0.194798 0.431822
O O10 0.347079 0.972291 0.548229
O O11 0.195421 0.867849 0.090124
O O12 0.283935 0.822430 0.344017
O O13 0.314439 0.105958 0.371953
#
# Coordination Sequence:
#
# PCOD9300940 Si02
#       6
#     8   8   8   8   8   8
#     4  11  20  34  56  83 114 146 189 233 283 336
#     4  11  20  34  56  85 111 148 192 241 280 334
#     4   9  18  35  58  81 109 143 193 231 279 336
#     4   9  18  35  58  81 108 147 186 235 280 338
#     4   9  18  32  54  81 107 145 186 229 275 347
#     4   9  18  32  54  81 105 143 190 225 280 345
#
# _framework density 20.186699000000001
#
# number of rings (size 3 to 8) (size 9 to 14) (size 15 to 20)
#    0.000    2.333    3.333    0.000    2.333    0.000 
#    0.000    2.500    0.000    2.000    0.000    0.000 
#    0.000    0.000    0.000    0.000    0.000    0.000 
#
# Total GULP energy -133704.215952 kJ/mol
# GULP energy per Si atom -5571.008998 kJ/mol
# Density = 2.014075 g / cm^3
# Si number density = 20.186699 Si / 1000 Ang^3
#
#
#
# Elastic Constant Matrix: (Units=GPa)
#
#
# Indices 1 2 3 4 5 6 
#
# 1 175.7834 47.7028 41.7068 0.0000 17.6329 0.0000
# 2 47.7028 49.2022 -0.9383 0.0000 5.8162 0.0000
# 3 41.7068 -0.9383 37.2640 0.0000 -1.3679 0.0000
# 4 0.0000 0.0000 0.0000 19.4243 0.0000 4.8045
# 5 17.6329 5.8162 -1.3679 0.0000 25.1166 0.0000
# 6 0.0000 0.0000 0.0000 4.8045 0.0000 30.2531
#
#
#
# Elastic Compliance Matrix: (Units=1/GPa)
#
#
# Indices 1 2 3 4 5 6 
#
# 1 0.013629 -0.012628 -0.015847 0.000000 -0.007507 0.000000
# 2 -0.012628 0.032602 0.015033 0.000000 0.002135 0.000000
# 3 -0.015847 0.015033 0.045322 0.000000 0.010113 0.000000
# 4 0.000000 0.000000 0.000000 0.053587 0.000000 -0.008510
# 5 -0.007507 0.002135 0.010113 0.000000 0.045141 0.000000
# 6 0.000000 0.000000 0.000000 -0.008510 0.000000 0.034406
#
#
# Mechanical properties :
#
#
# Convention : Reuss Voigt Hill
#
# Bulk Modulus (GPa) = 15.46353 48.79913 32.13133
# Shear Modulus (GPa) = 18.30650 26.54400 22.42525
#
# Velocity S-wave (km/s) = 3.01468 3.63012 3.33662
# Velocity P-wave (km/s) = 4.44911 6.46504 5.54939
#
# Compressibility (1/GPa) = 0.06466830
#
# Stress axis : x y z
#
# Youngs Moduli (GPa) = 73.37437 30.67285 22.06435
#
# Poissons Ratio (x) = 0.38735 0.34966
# Poissons Ratio (y) = 0.92659 -0.33170
# Poissons Ratio (z) = 1.16278 -0.46111
#
# Static dielectric constant tensor:
#      x y z
#    x 1.790330 0.000000 -0.010320 
#    y 0.000000 1.717760 0.000000 
#    z -0.010320 0.000000 1.707070 
# 
# From -- ./inp_files/213280.got.cif
#   From: 2010.05.17/outbox.cif.g08.bks.cpg/sg15_107_cif.got.tgz:213280.got - 2010.06.03 18:47:42.
