data_PCOD9300202
_publ_section_title
;
Structure prediction by ZEFSAII (Michael W. Deem and Ramdas Pophale) SiO2 
 PCOD9300202
Probable space group: C 2/C
;
_chemical_formula_sum "Si O2"
_cell_formula_units_Z 40
_cell_length_a 19.183984
_cell_length_b 9.584194
_cell_length_c 9.856664
_cell_angle_alpha 90.000000
_cell_angle_beta 57.791261
_cell_angle_gamma 90.000000
_cell_volume 1533.388298
_symmetry_space_group_name_H-M "C 2/C"
_symmetry_group_IT_number 15
_symmetry_cell_setting 'monoclinic'
loop_
_space_group_symop_operation_xyz
x,y,z
-x,y,1/2-z
-x,-y,-z
x,-y,1/2+z
1/2+x,1/2+y,z
1/2-x,1/2+y,1/2-z
1/2-x,1/2-y,-z
1/2+x,1/2-y,1/2+z
loop_
_atom_site_type_symbol
_atom_site_label
_atom_site_fract_x
_atom_site_fract_y
_atom_site_fract_z
Si Si1 0.063719 0.662443 0.296285
Si Si2 0.161793 0.264291 0.016598
Si Si3 0.686861 0.935698 0.463268
Si Si4 0.873192 0.060081 0.690168
Si Si5 0.922309 0.744441 0.620991
O O1 0.148843 0.595198 0.152114
O O2 0.000000 0.609643 0.250000
O O3 0.005833 0.666946 0.489965
O O4 0.077008 0.829702 0.271324
O O5 0.161477 0.410739 0.939180
O O6 0.096760 0.278976 0.203212
O O7 0.250000 0.250000 0.000000
O O8 0.144266 0.138364 0.934051
O O9 0.649062 0.821475 0.400533
O O10 0.784923 0.945160 0.355865
O O11 0.915495 0.912371 0.618854
#
# Coordination Sequence:
#
# PCOD9300202 Si02
#       5
#     8   8   8   8   8
#     4  10  26  46  71 104 147 189 241 299 366 429
#     4  12  26  44  75 110 141 187 249 303 359 438
#     4  11  24  46  74 103 147 191 242 299 362 436
#     4  12  24  45  77 104 141 198 243 302 359 431
#     4  11  26  49  70 108 150 184 251 297 366 437
#
# _framework density 26.086020999999999
#
# number of rings (size 3 to 8) (size 9 to 14) (size 15 to 20)
#    0.000    0.800    4.000    1.200    8.400    3.200 
#    7.200    0.000    0.000    0.000    0.000    0.000 
#    0.000    0.000    0.000    0.000    0.000    0.000 
#
# Total GULP energy -111873.072814 kJ/mol
# GULP energy per Si atom -5593.653641 kJ/mol
# Density = 2.602665 g / cm^3
# Si number density = 26.086021 Si / 1000 Ang^3
#
#
#
# Elastic Constant Matrix: (Units=GPa)
#
#
# Indices 1 2 3 4 5 6 
#
# 1 62.3431 8.0881 34.4597 0.0000 -8.9605 0.0000
# 2 8.0881 150.3811 3.2782 0.0000 9.4943 0.0000
# 3 34.4597 3.2782 226.4764 0.0000 -5.1002 0.0000
# 4 0.0000 0.0000 0.0000 40.6566 0.0000 5.1948
# 5 -8.9605 9.4943 -5.1002 0.0000 44.7046 0.0000
# 6 0.0000 0.0000 0.0000 5.1948 0.0000 36.7033
#
#
#
# Elastic Compliance Matrix: (Units=1/GPa)
#
#
# Indices 1 2 3 4 5 6 
#
# 1 0.018179 -0.001146 -0.002669 0.000000 0.003583 0.000000
# 2 -0.001146 0.006816 0.000038 0.000000 -0.001673 0.000000
# 3 -0.002669 0.000038 0.004821 0.000000 0.000007 0.000000
# 4 0.000000 0.000000 0.000000 0.025049 0.000000 -0.003545
# 5 0.003583 -0.001673 0.000007 0.000000 0.023443 0.000000
# 6 0.000000 0.000000 0.000000 -0.003545 0.000000 0.027747
#
#
# Mechanical properties :
#
#
# Convention : Reuss Voigt Hill
#
# Bulk Modulus (GPa) = 44.91705 58.98363 51.95034
# Shear Modulus (GPa) = 41.31196 50.63787 45.97492
#
# Velocity S-wave (km/s) = 3.98387 4.41067 4.20269
# Velocity P-wave (km/s) = 6.19821 6.97130 6.59609
#
# Compressibility (1/GPa) = 0.02226326
#
# Stress axis : x y z
#
# Youngs Moduli (GPa) = 55.00857 146.70960 207.41944
#
# Poissons Ratio (x) = 0.16809 0.55356
# Poissons Ratio (y) = 0.06303 -0.00788
# Poissons Ratio (z) = 0.14681 -0.00557
#
# Static dielectric constant tensor:
#      x y z
#    x 2.168540 0.000000 -0.008510 
#    y 0.000000 2.034730 0.000000 
#    z -0.008510 0.000000 2.083720 
# 
# From -- ./inp_files/110448.got.cif
#   From: 2010.05.17/outbox.cif.g08.bks.cpg/sg15_56_cif.got.tgz:110448.got - 2010.06.03 18:47:42.
