data_PCOD9300714
_publ_section_title
;
Structure prediction by ZEFSAII (Michael W. Deem and Ramdas Pophale) SiO2 
 PCOD9300714
Probable space group: C 2/C
;
_chemical_formula_sum "Si O2"
_cell_formula_units_Z 52
_cell_length_a 19.615938
_cell_length_b 8.919097
_cell_length_c 12.854040
_cell_angle_alpha 90.000000
_cell_angle_beta 63.856326
_cell_angle_gamma 90.000000
_cell_volume 2018.817005
_symmetry_space_group_name_H-M "C 2/C"
_symmetry_group_IT_number 15
_symmetry_cell_setting 'monoclinic'
loop_
_space_group_symop_operation_xyz
x,y,z
-x,y,1/2-z
-x,-y,-z
x,-y,1/2+z
1/2+x,1/2+y,z
1/2-x,1/2+y,1/2-z
1/2-x,1/2-y,-z
1/2+x,1/2-y,1/2+z
loop_
_atom_site_type_symbol
_atom_site_label
_atom_site_fract_x
_atom_site_fract_y
_atom_site_fract_z
Si Si1 0.166853 0.659323 0.352601
Si Si2 0.500000 0.943515 0.250000
Si Si3 0.179716 0.772256 0.664688
Si Si4 0.107604 0.392681 0.522098
Si Si5 0.267654 0.070938 0.405950
Si Si6 0.110138 0.080319 0.013241
Si Si7 0.546754 0.300473 0.890154
O O1 0.238839 0.652246 0.381735
O O2 0.116631 0.520140 0.425834
O O3 0.202136 0.660530 0.214521
O O4 0.124730 0.814660 0.403448
O O5 0.472987 0.835271 0.175403
O O6 0.438950 0.046796 0.347992
O O7 0.199712 0.596734 0.645529
O O8 0.133120 0.815956 0.595137
O O9 0.130535 0.836915 0.792511
O O10 0.190676 0.368834 0.518005
O O11 0.060310 0.262732 0.496506
O O12 0.176640 0.044031 0.473982
O O13 0.018580 0.075138 0.080979
#
# Coordination Sequence:
#
# PCOD9300714 Si02
#       7
#     8   4   8   8   8   8   8
#     4  11  20  35  59  86 114 160 207 247 296 365
#     4  12  20  30  52  90 120 144 188 246 320 346
#     4  11  19  36  60  87 116 159 202 249 301 362
#     4  12  21  33  56  89 124 149 193 254 312 356
#     4  11  21  37  57  85 122 160 199 249 309 359
#     4  11  21  37  59  89 122 156 202 255 301 361
#     4  12  21  34  58  90 121 153 198 258 304 355
#
# _framework density 25.757659
#
# number of rings (size 3 to 8) (size 9 to 14) (size 15 to 20)
#    0.000    0.615    9.231    1.385    2.154    0.000 
#    0.000    1.538    0.000    0.000    0.000    0.000 
#    0.000    0.000    0.000    0.000    0.000    0.000 
#
# Total GULP energy -145338.154171 kJ/mol
# GULP energy per Si atom -5589.929007 kJ/mol
# Density = 2.569903 g / cm^3
# Si number density = 25.757659 Si / 1000 Ang^3
#
#
#
# Elastic Constant Matrix: (Units=GPa)
#
#
# Indices 1 2 3 4 5 6 
#
# 1 124.2709 37.3993 41.5107 0.0000 -5.9226 0.0000
# 2 37.3993 54.3371 20.0790 0.0000 3.1407 0.0000
# 3 41.5107 20.0790 99.9047 0.0000 -2.8087 0.0000
# 4 0.0000 0.0000 0.0000 28.0188 0.0000 9.8584
# 5 -5.9226 3.1407 -2.8087 0.0000 53.2323 0.0000
# 6 0.0000 0.0000 0.0000 9.8584 0.0000 47.4546
#
#
#
# Elastic Compliance Matrix: (Units=1/GPa)
#
#
# Indices 1 2 3 4 5 6 
#
# 1 0.011193 -0.006573 -0.003289 0.000000 0.001460 0.000000
# 2 -0.006573 0.023843 -0.002124 0.000000 -0.002250 0.000000
# 3 -0.003289 -0.002124 0.011814 0.000000 0.000383 0.000000
# 4 0.000000 0.000000 0.000000 0.038505 0.000000 -0.007999
# 5 0.001460 -0.002250 0.000383 0.000000 0.019101 0.000000
# 6 0.000000 0.000000 0.000000 -0.007999 0.000000 0.022735
#
#
# Mechanical properties :
#
#
# Convention : Reuss Voigt Hill
#
# Bulk Modulus (GPa) = 43.71047 52.94342 48.32695
# Shear Modulus (GPa) = 31.48856 37.70938 34.59897
#
# Velocity S-wave (km/s) = 3.50021 3.83038 3.66901
# Velocity P-wave (km/s) = 5.77426 6.33731 6.06232
#
# Compressibility (1/GPa) = 0.02287781
#
# Stress axis : x y z
#
# Youngs Moduli (GPa) = 89.33955 41.94139 84.64784
#
# Poissons Ratio (x) = 0.27569 0.27838
# Poissons Ratio (y) = 0.58725 0.17979
# Poissons Ratio (z) = 0.29381 0.08908
#
# Static dielectric constant tensor:
#      x y z
#    x 2.079170 0.000000 -0.042390 
#    y 0.000000 2.061910 0.000000 
#    z -0.042390 0.000000 2.000390 
# 
# From -- ./inp_files/110927.got.cif
#   From: 2010.05.17/outbox.cif.g08.bks.cpg/sg15_56_cif.got.tgz:110927.got - 2010.06.03 18:47:42.
