data_PCOD9300579
_publ_section_title
;
Structure prediction by ZEFSAII (Michael W. Deem and Ramdas Pophale) SiO2 
 PCOD9300579
Probable space group: C 2/C
;
_chemical_formula_sum "Si O2"
_cell_formula_units_Z 52
_cell_length_a 20.845240
_cell_length_b 13.108647
_cell_length_c 11.592241
_cell_angle_alpha 90.000000
_cell_angle_beta 37.476421
_cell_angle_gamma 90.000000
_cell_volume 1927.286496
_symmetry_space_group_name_H-M "C 2/C"
_symmetry_group_IT_number 15
_symmetry_cell_setting 'monoclinic'
loop_
_space_group_symop_operation_xyz
x,y,z
-x,y,1/2-z
-x,-y,-z
x,-y,1/2+z
1/2+x,1/2+y,z
1/2-x,1/2+y,1/2-z
1/2-x,1/2-y,-z
1/2+x,1/2-y,1/2+z
loop_
_atom_site_type_symbol
_atom_site_label
_atom_site_fract_x
_atom_site_fract_y
_atom_site_fract_z
Si Si1 0.750000 0.750000 0.000000
Si Si2 0.099612 0.108258 0.314760
Si Si3 0.865751 0.621970 0.640562
Si Si4 0.290678 0.900205 0.674018
Si Si5 0.400289 0.184075 0.238432
Si Si6 0.607771 0.970926 0.163057
Si Si7 0.427784 0.398838 0.239965
O O1 0.866774 0.801823 0.816101
O O2 0.774525 0.689226 0.830044
O O3 0.166892 0.108430 0.338971
O O4 0.984263 0.113218 0.532773
O O5 0.127018 0.006466 0.203844
O O6 0.820655 0.520586 0.640532
O O7 0.918529 0.566987 0.674033
O O8 0.969941 0.676621 0.438083
O O9 0.352919 0.836088 0.678292
O O10 0.318160 0.881502 0.497580
O O11 0.357041 0.086895 0.369929
O O12 0.367221 0.292445 0.336476
O O13 0.500000 0.968409 0.250000
O O14 0.500000 0.409547 0.250000
#
# Coordination Sequence:
#
# PCOD9300579 Si02
#       7
#     4   8   8   8   8   8   8
#     4  12  24  42  70  98 138 180 240 296 344 438
#     4  11  27  49  69 105 140 192 244 300 367 443
#     4  11  22  37  63 101 140 176 235 294 357 421
#     4  11  23  40  70 102 142 174 240 305 349 426
#     4  11  22  40  68 105 139 188 235 292 369 432
#     4  11  18  35  62  99 136 177 223 293 354 408
#     4  11  27  51  73 100 151 196 244 293 375 450
#
# _framework density 26.98094
#
# number of rings (size 3 to 8) (size 9 to 14) (size 15 to 20)
#    0.000    0.923    6.154    1.385    2.154    1.231 
#    2.769    2.308    0.000    0.000    0.000    0.000 
#    0.000    0.000    0.000    0.000    0.000    0.000 
#
# Total GULP energy -144784.233822 kJ/mol
# GULP energy per Si atom -5568.624378 kJ/mol
# Density = 2.691953 g / cm^3
# Si number density = 26.980940 Si / 1000 Ang^3
#
#
#
# Elastic Constant Matrix: (Units=GPa)
#
#
# Indices 1 2 3 4 5 6 
#
# 1 88.5443 11.0487 -3.1377 0.0000 17.7820 0.0000
# 2 11.0487 144.7288 12.1817 0.0000 -2.3280 0.0000
# 3 -3.1377 12.1817 101.1779 0.0000 5.5197 0.0000
# 4 0.0000 0.0000 0.0000 44.4898 0.0000 -10.3608
# 5 17.7820 -2.3280 5.5197 0.0000 24.9872 0.0000
# 6 0.0000 0.0000 0.0000 -10.3608 0.0000 23.6487
#
#
#
# Elastic Compliance Matrix: (Units=1/GPa)
#
#
# Indices 1 2 3 4 5 6 
#
# 1 0.013496 -0.001285 0.001117 0.000000 -0.009971 0.000000
# 2 -0.001285 0.007120 -0.000995 0.000000 0.001797 0.000000
# 3 0.001117 -0.000995 0.010210 0.000000 -0.003143 0.000000
# 4 0.000000 0.000000 0.000000 0.025031 0.000000 0.010966
# 5 -0.009971 0.001797 -0.003143 0.000000 0.047978 0.000000
# 6 0.000000 0.000000 0.000000 0.010966 0.000000 0.047090
#
#
# Mechanical properties :
#
#
# Convention : Reuss Voigt Hill
#
# Bulk Modulus (GPa) = 35.08721 41.62627 38.35674
# Shear Modulus (GPa) = 30.72188 39.58236 35.15212
#
# Velocity S-wave (km/s) = 3.37805 3.83436 3.61342
# Velocity P-wave (km/s) = 5.31485 5.92154 5.62638
#
# Compressibility (1/GPa) = 0.02850041
#
# Stress axis : x y z
#
# Youngs Moduli (GPa) = 74.09547 140.44498 97.94785
#
# Poissons Ratio (x) = 0.18043 -0.10943
# Poissons Ratio (y) = 0.09519 0.09747
# Poissons Ratio (z) = -0.08278 0.13977
#
# Static dielectric constant tensor:
#      x y z
#    x 2.137780 0.000000 0.055690 
#    y 0.000000 1.813220 0.000000 
#    z 0.055690 0.000000 2.240840 
# 
# From -- ./inp_files/118745.got.cif
#   From: 2010.05.17/outbox.cif.g08.bks.cpg/sg15_60_cif.got.tgz:118745.got - 2010.06.03 18:47:42.
