data_PCOD9300394
_publ_section_title
;
Structure prediction by ZEFSAII (Michael W. Deem and Ramdas Pophale) SiO2 
 PCOD9300394
Probable space group: C 2/C
;
_chemical_formula_sum "Si O2"
_cell_formula_units_Z 36
_cell_length_a 21.354200
_cell_length_b 7.560871
_cell_length_c 8.916000
_cell_angle_alpha 90.000000
_cell_angle_beta 69.743945
_cell_angle_gamma 90.000000
_cell_volume 1350.515825
_symmetry_space_group_name_H-M "C 2/C"
_symmetry_group_IT_number 15
_symmetry_cell_setting 'monoclinic'
loop_
_space_group_symop_operation_xyz
x,y,z
-x,y,1/2-z
-x,-y,-z
x,-y,1/2+z
1/2+x,1/2+y,z
1/2-x,1/2+y,1/2-z
1/2-x,1/2-y,-z
1/2+x,1/2-y,1/2+z
loop_
_atom_site_type_symbol
_atom_site_label
_atom_site_fract_x
_atom_site_fract_y
_atom_site_fract_z
Si Si1 0.700180 0.622813 0.446073
Si Si2 0.894751 0.350865 0.550917
Si Si3 0.000000 0.707888 0.750000
Si Si4 0.181748 0.628824 0.687208
Si Si5 0.929497 0.942512 0.245514
O O1 0.750000 0.750000 0.500000
O O2 0.744666 0.453066 0.377133
O O3 0.684006 0.710181 0.300186
O O4 0.588058 0.661659 0.890769
O O5 0.961323 0.402911 0.405140
O O6 0.868050 0.483284 0.698169
O O7 0.840319 0.343735 0.464637
O O8 0.867034 0.091830 0.905264
O O9 0.052149 0.848897 0.780479
O O10 0.000000 0.867320 0.250000
#
# Coordination Sequence:
#
# PCOD9300394 Si02
#       5
#     8   8   4   8   8
#     4  12  26  53  78 118 163 209 276 325 414 472
#     4  12  25  52  74 123 153 214 273 322 414 466
#     4  10  28  46  84 114 164 210 264 334 400 488
#     4  12  29  49  82 116 163 215 267 347 391 494
#     4  10  26  51  83 116 160 213 267 331 400 490
#
# _framework density 26.656482
#
# number of rings (size 3 to 8) (size 9 to 14) (size 15 to 20)
#    0.667    0.000    4.444    0.667    6.222    3.556 
#    4.000    0.000    0.000    0.000    0.000    0.000 
#    0.000    0.000    0.000    0.000    0.000    0.000 
#
# Total GULP energy -101076.042558 kJ/mol
# GULP energy per Si atom -5615.335698 kJ/mol
# Density = 2.659581 g / cm^3
# Si number density = 26.656482 Si / 1000 Ang^3
#
#
#
# Elastic Constant Matrix: (Units=GPa)
#
#
# Indices 1 2 3 4 5 6 
#
# 1 182.4101 55.1717 72.4872 0.0000 2.6034 0.0000
# 2 55.1717 69.6592 38.1945 0.0000 1.3614 0.0000
# 3 72.4872 38.1945 166.3262 0.0000 -35.8061 0.0000
# 4 0.0000 0.0000 0.0000 46.0165 0.0000 8.3736
# 5 2.6034 1.3614 -35.8061 0.0000 83.4509 0.0000
# 6 0.0000 0.0000 0.0000 8.3736 0.0000 55.4460
#
#
#
# Elastic Compliance Matrix: (Units=1/GPa)
#
#
# Indices 1 2 3 4 5 6 
#
# 1 0.008035 -0.004877 -0.002665 0.000000 -0.001314 0.000000
# 2 -0.004877 0.019718 -0.002687 0.000000 -0.001322 0.000000
# 3 -0.002665 -0.002687 0.008614 0.000000 0.003823 0.000000
# 4 0.000000 0.000000 0.000000 0.022345 0.000000 -0.003375
# 5 -0.001314 -0.001322 0.003823 0.000000 0.013686 0.000000
# 6 0.000000 0.000000 0.000000 -0.003375 0.000000 0.018545
#
#
# Mechanical properties :
#
#
# Convention : Reuss Voigt Hill
#
# Bulk Modulus (GPa) = 62.86016 83.34471 73.10244
# Shear Modulus (GPa) = 42.84368 53.81881 48.33125
#
# Velocity S-wave (km/s) = 4.01340 4.49818 4.26269
# Velocity P-wave (km/s) = 6.71635 7.63624 7.19102
#
# Compressibility (1/GPa) = 0.01590833
#
# Stress axis : x y z
#
# Youngs Moduli (GPa) = 124.45576 50.71623 116.09520
#
# Poissons Ratio (x) = 0.24735 0.30937
# Poissons Ratio (y) = 0.60698 0.31195
# Poissons Ratio (z) = 0.33165 0.13628
#
# Static dielectric constant tensor:
#      x y z
#    x 2.117180 0.000000 -0.024480 
#    y 0.000000 2.122720 0.000000 
#    z -0.024480 0.000000 2.025200 
# 
# From -- ./inp_files/115876.got.cif
#   From: 2010.05.17/outbox.cif.g08.bks.cpg/sg15_58_cif.got.tgz:115876.got - 2010.06.03 18:47:42.
