data_PCOD9300103
_publ_section_title
;
Structure prediction by ZEFSAII (Michael W. Deem and Ramdas Pophale) SiO2 
 PCOD9300103
Probable space group: C 2/C
;
_chemical_formula_sum "Si O2"
_cell_formula_units_Z 28
_cell_length_a 13.525960
_cell_length_b 4.839914
_cell_length_c 15.395997
_cell_angle_alpha 90.000000
_cell_angle_beta 75.754614
_cell_angle_gamma 90.000000
_cell_volume 976.899074
_symmetry_space_group_name_H-M "C 2/C"
_symmetry_group_IT_number 15
_symmetry_cell_setting 'monoclinic'
loop_
_space_group_symop_operation_xyz
x,y,z
-x,y,1/2-z
-x,-y,-z
x,-y,1/2+z
1/2+x,1/2+y,z
1/2-x,1/2+y,1/2-z
1/2-x,1/2-y,-z
1/2+x,1/2-y,1/2+z
loop_
_atom_site_type_symbol
_atom_site_label
_atom_site_fract_x
_atom_site_fract_y
_atom_site_fract_z
Si Si1 0.249038 0.456512 0.918845
Si Si2 0.000000 0.189282 0.250000
Si Si3 0.929112 0.796928 0.459861
Si Si4 0.596667 0.841909 0.813100
O O1 0.364525 0.562394 0.894842
O O2 0.202671 0.339514 0.840593
O O3 0.250000 0.250000 0.000000
O O4 0.164855 0.685676 0.963003
O O5 0.911478 0.433568 0.260981
O O6 0.941019 0.964377 0.201777
O O7 0.006396 0.574629 0.402197
O O8 0.000000 0.000000 0.500000
#
# Coordination Sequence:
#
# PCOD9300103 Si02
#       4
#     8   4   8   8
#     4  11  24  39  72 110 130 167 227 294 353 416
#     4  10  26  44  70  92 132 206 220 272 316 416
#     4  11  23  41  70 105 139 173 216 292 368 400
#     4  11  23  47  69  95 144 177 234 270 343 400
#
# _framework density 28.662122
#
# number of rings (size 3 to 8) (size 9 to 14) (size 15 to 20)
#    0.000    1.143    2.857    2.571    8.000    0.000 
#    0.000    5.714    0.000    0.000    0.000    0.000 
#    0.000    0.000    0.000    0.000    0.000    0.000 
#
# Total GULP energy -78168.589669 kJ/mol
# GULP energy per Si atom -5583.470691 kJ/mol
# Density = 2.859689 g / cm^3
# Si number density = 28.662122 Si / 1000 Ang^3
#
#
#
# Elastic Constant Matrix: (Units=GPa)
#
#
# Indices 1 2 3 4 5 6 
#
# 1 304.3868 77.8156 67.0552 0.0000 61.9481 0.0000
# 2 77.8156 175.9181 33.7656 0.0000 29.8980 0.0000
# 3 67.0552 33.7656 89.1117 0.0000 35.3820 0.0000
# 4 0.0000 0.0000 0.0000 38.8375 0.0000 13.5286
# 5 61.9481 29.8980 35.3820 0.0000 78.2613 0.0000
# 6 0.0000 0.0000 0.0000 13.5286 0.0000 58.9522
#
#
#
# Elastic Compliance Matrix: (Units=1/GPa)
#
#
# Indices 1 2 3 4 5 6 
#
# 1 0.004491 -0.001225 -0.002059 0.000000 -0.002156 0.000000
# 2 -0.001225 0.006628 -0.001181 0.000000 -0.001028 0.000000
# 3 -0.002059 -0.001181 0.015104 0.000000 -0.004747 0.000000
# 4 0.000000 0.000000 0.000000 0.027985 0.000000 -0.006422
# 5 -0.002156 -0.001028 -0.004747 0.000000 0.017023 0.000000
# 6 0.000000 0.000000 0.000000 -0.006422 0.000000 0.018437
#
#
# Mechanical properties :
#
#
# Convention : Reuss Voigt Hill
#
# Bulk Modulus (GPa) = 57.83111 102.96549 80.39830
# Shear Modulus (GPa) = 47.90995 61.26223 54.58609
#
# Velocity S-wave (km/s) = 4.09289 4.62821 4.36876
# Velocity P-wave (km/s) = 6.52352 8.03507 7.31842
#
# Compressibility (1/GPa) = 0.01729173
#
# Stress axis : x y z
#
# Youngs Moduli (GPa) = 222.67758 150.88006 66.20814
#
# Poissons Ratio (x) = 0.18480 0.13633
# Poissons Ratio (y) = 0.27274 0.07822
# Poissons Ratio (z) = 0.45853 0.17824
#
# Static dielectric constant tensor:
#      x y z
#    x 2.150460 0.000000 -0.008890 
#    y 0.000000 2.265150 0.000000 
#    z -0.008890 0.000000 2.631560 
# 
# From -- ./inp_files/235111.got.cif
#   From: 2010.05.17/outbox.cif.g08.bks.cpg/sg15_118_cif.got.tgz:235111.got - 2010.06.03 18:47:42.
