data_PCOD9300407
_publ_section_title
;
Structure prediction by ZEFSAII (Michael W. Deem and Ramdas Pophale) SiO2 
 PCOD9300407
Probable space group: C 2/C
;
_chemical_formula_sum "Si O2"
_cell_formula_units_Z 52
_cell_length_a 25.815057
_cell_length_b 8.492833
_cell_length_c 11.131490
_cell_angle_alpha 90.000000
_cell_angle_beta 111.067333
_cell_angle_gamma 90.000000
_cell_volume 2277.374492
_symmetry_space_group_name_H-M "C 2/C"
_symmetry_group_IT_number 15
_symmetry_cell_setting 'monoclinic'
loop_
_space_group_symop_operation_xyz
x,y,z
-x,y,1/2-z
-x,-y,-z
x,-y,1/2+z
1/2+x,1/2+y,z
1/2-x,1/2+y,1/2-z
1/2-x,1/2-y,-z
1/2+x,1/2-y,1/2+z
loop_
_atom_site_type_symbol
_atom_site_label
_atom_site_fract_x
_atom_site_fract_y
_atom_site_fract_z
Si Si1 0.201429 0.203402 0.200168
Si Si2 0.083616 0.368945 0.740464
Si Si3 0.280223 0.414436 0.134977
Si Si4 0.385161 0.361030 0.049629
Si Si5 0.092305 0.783081 0.987220
Si Si6 0.500000 0.117497 0.750000
Si Si7 0.181971 0.589885 0.913976
O O1 0.252086 0.255274 0.158478
O O2 0.203105 0.305507 0.321460
O O3 0.203887 0.021705 0.238020
O O4 0.143478 0.232330 0.083629
O O5 0.073042 0.246006 0.840249
O O6 0.089034 0.277564 0.620518
O O7 0.037235 0.502969 0.698997
O O8 0.139923 0.459627 0.825959
O O9 0.333706 0.393823 0.097487
O O10 0.231912 0.508698 0.026001
O O11 0.406579 0.528661 0.023069
O O12 0.040769 0.719008 0.866381
O O13 0.146708 0.703877 0.972173
#
# Coordination Sequence:
#
# PCOD9300407 Si02
#       7
#     8   8   8   8   8   4   8
#     4  12  25  40  66  97 148 188 235 277 332 404
#     4  11  25  47  76 101 137 179 229 294 350 419
#     4  12  25  42  62 105 146 193 231 278 332 404
#     4  12  26  44  66 108 141 184 232 284 345 407
#     4  11  25  47  74 102 138 176 230 296 351 412
#     4  10  26  52  76 108 126 172 236 284 372 428
#     4  11  24  43  68  99 142 188 240 273 339 404
#
# _framework density 22.833311999999999
#
# number of rings (size 3 to 8) (size 9 to 14) (size 15 to 20)
#    0.000    0.615    3.077    4.154    8.615    0.615 
#    0.000    1.538    0.000    0.000    0.000    0.000 
#    0.000    0.000    0.000    0.000    0.000    0.000 
#
# Total GULP energy -145764.495658 kJ/mol
# GULP energy per Si atom -5606.326756 kJ/mol
# Density = 2.278134 g / cm^3
# Si number density = 22.833312 Si / 1000 Ang^3
#
#
#
# Elastic Constant Matrix: (Units=GPa)
#
#
# Indices 1 2 3 4 5 6 
#
# 1 41.3618 0.1937 9.3304 0.0000 7.7518 0.0000
# 2 0.1937 61.8509 0.0903 0.0000 -2.8587 0.0000
# 3 9.3304 0.0903 80.0905 0.0000 -6.4501 0.0000
# 4 0.0000 0.0000 0.0000 36.0947 0.0000 -3.5285
# 5 7.7518 -2.8587 -6.4501 0.0000 27.4103 0.0000
# 6 0.0000 0.0000 0.0000 -3.5285 0.0000 28.1999
#
#
#
# Elastic Compliance Matrix: (Units=1/GPa)
#
#
# Indices 1 2 3 4 5 6 
#
# 1 0.026619 -0.000469 -0.003782 0.000000 -0.008467 0.000000
# 2 -0.000469 0.016256 0.000187 0.000000 0.001872 0.000000
# 3 -0.003782 0.000187 0.013265 0.000000 0.004211 0.000000
# 4 0.000000 0.000000 0.000000 0.028048 0.000000 0.003510
# 5 -0.008467 0.001872 0.004211 0.000000 0.040063 0.000000
# 6 0.000000 0.000000 0.000000 0.003510 0.000000 0.035900
#
#
# Mechanical properties :
#
#
# Convention : Reuss Voigt Hill
#
# Bulk Modulus (GPa) = 20.82848 22.50356 21.66602
# Shear Modulus (GPa) = 27.13193 29.92022 28.52608
#
# Velocity S-wave (km/s) = 3.45086 3.62384 3.53840
# Velocity P-wave (km/s) = 5.00196 5.23322 5.11890
#
# Compressibility (1/GPa) = 0.04801117
#
# Stress axis : x y z
#
# Youngs Moduli (GPa) = 37.56686 61.51713 75.38395
#
# Poissons Ratio (x) = 0.02886 0.28514
# Poissons Ratio (y) = 0.01763 -0.01410
# Poissons Ratio (z) = 0.14210 -0.01151
#
# Static dielectric constant tensor:
#      x y z
#    x 1.824850 0.000000 -0.000840 
#    y 0.000000 1.859340 0.000000 
#    z -0.000840 0.000000 1.837620 
# 
# From -- ./inp_files/121432.got.cif
#   From: 2010.05.17/outbox.cif.g08.bks.cpg/sg15_61_cif.got.tgz:121432.got - 2010.06.03 18:47:42.
