data_PCOD9300501
_publ_section_title
;
Structure prediction by ZEFSAII (Michael W. Deem and Ramdas Pophale) SiO2 
 PCOD9300501
Probable space group: C 2/C
;
_chemical_formula_sum "Si O2"
_cell_formula_units_Z 56
_cell_length_a 24.851208
_cell_length_b 17.658439
_cell_length_c 7.953554
_cell_angle_alpha 90.000000
_cell_angle_beta 101.560114
_cell_angle_gamma 90.000000
_cell_volume 3419.485774
_symmetry_space_group_name_H-M "C 2/C"
_symmetry_group_IT_number 15
_symmetry_cell_setting 'monoclinic'
loop_
_space_group_symop_operation_xyz
x,y,z
-x,y,1/2-z
-x,-y,-z
x,-y,1/2+z
1/2+x,1/2+y,z
1/2-x,1/2+y,1/2-z
1/2-x,1/2-y,-z
1/2+x,1/2-y,1/2+z
loop_
_atom_site_type_symbol
_atom_site_label
_atom_site_fract_x
_atom_site_fract_y
_atom_site_fract_z
Si Si1 0.560233 0.188566 0.820804
Si Si2 0.177723 0.509383 0.567390
Si Si3 0.057001 0.360543 0.704897
Si Si4 0.174978 0.254056 0.278998
Si Si5 0.768101 0.349376 0.890386
Si Si6 0.594022 0.025867 0.768685
Si Si7 0.824463 0.329999 0.577362
O O1 0.500000 0.220643 0.750000
O O2 0.611074 0.237650 0.786261
O O3 0.565099 0.106226 0.731506
O O4 0.564923 0.170836 0.021988
O O5 0.217355 0.438050 0.598486
O O6 0.157361 0.531679 0.740927
O O7 0.115241 0.487160 0.472524
O O8 0.195890 0.586072 0.489877
O O9 0.058337 0.452163 0.709325
O O10 0.110492 0.337013 0.845330
O O11 0.000000 0.334481 0.750000
O O12 0.205757 0.311779 0.426722
O O13 0.204745 0.174570 0.335510
O O14 0.183838 0.277122 0.089547
O O15 0.796807 0.314139 0.740353
#
# Coordination Sequence:
#
# PCOD9300501 Si02
#       7
#     8   8   8   8   8   8   8
#     4  12  22  33  48  71 102 138 178 209 251 302
#     4  11  17  31  51  70 100 134 169 217 248 293
#     4  11  22  31  44  69 100 135 177 218 241 291
#     4  11  22  36  52  74  99 142 174 215 265 301
#     4  11  21  36  52  73 104 134 179 217 256 315
#     4  11  18  30  46  66  98 132 176 204 248 282
#     4  11  20  35  54  72 102 136 178 213 262 299
#
# _framework density 16.376732000000001
#
# number of rings (size 3 to 8) (size 9 to 14) (size 15 to 20)
#    0.000    0.857    8.571    1.714    2.000    1.143 
#    0.000    0.000    0.000    0.000    0.000    0.000 
#    0.000    1.143    0.000    0.000    0.000    0.000 
#
# Total GULP energy -155927.904349 kJ/mol
# GULP energy per Si atom -5568.853727 kJ/mol
# Density = 1.633946 g / cm^3
# Si number density = 16.376732 Si / 1000 Ang^3
#
#
#
# Elastic Constant Matrix: (Units=GPa)
#
#
# Indices 1 2 3 4 5 6 
#
# 1 65.5804 19.4677 0.1771 0.0000 18.9871 0.0000
# 2 19.4677 26.1567 12.7176 0.0000 6.4836 0.0000
# 3 0.1771 12.7176 49.7564 0.0000 12.5070 0.0000
# 4 0.0000 0.0000 0.0000 11.1603 0.0000 4.8440
# 5 18.9871 6.4836 12.5070 0.0000 13.5756 0.0000
# 6 0.0000 0.0000 0.0000 4.8440 0.0000 24.9946
#
#
#
# Elastic Compliance Matrix: (Units=1/GPa)
#
#
# Indices 1 2 3 4 5 6 
#
# 1 0.043656 -0.026856 0.024508 0.000000 -0.070811 0.000000
# 2 -0.026856 0.062245 -0.023142 0.000000 0.029154 0.000000
# 3 0.024508 -0.023142 0.041337 0.000000 -0.061308 0.000000
# 4 0.000000 0.000000 0.000000 0.097832 0.000000 -0.018960
# 5 -0.070811 0.029154 -0.061308 0.000000 0.215258 0.000000
# 6 0.000000 0.000000 0.000000 -0.018960 0.000000 0.043683
#
#
# Mechanical properties :
#
#
# Convention : Reuss Voigt Hill
#
# Bulk Modulus (GPa) = 10.38877 22.91313 16.65095
# Shear Modulus (GPa) = 8.51677 17.22152 12.86915
#
# Velocity S-wave (km/s) = 2.28294 3.24633 2.80629
# Velocity P-wave (km/s) = 3.64781 5.29842 4.54861
#
# Compressibility (1/GPa) = 0.09625777
#
# Stress axis : x y z
#
# Youngs Moduli (GPa) = 22.90626 16.06561 24.19164
#
# Poissons Ratio (x) = 0.43146 -0.59290
# Poissons Ratio (y) = 0.61517 0.55985
# Poissons Ratio (z) = -0.56140 0.37180
#
# Static dielectric constant tensor:
#      x y z
#    x 1.561540 0.000000 -0.050610 
#    y 0.000000 1.573260 0.000000 
#    z -0.050610 0.000000 1.757690 
# 
# From -- ./inp_files/57302.got.cif
#   From: 2010.05.17/outbox.cif.g08.bks.cpg/sg15_29_cif.got.tgz:57302.got - 2010.06.03 18:47:42.
