data_PCOD9300061
_publ_section_title
;
Structure prediction by ZEFSAII (Michael W. Deem and Ramdas Pophale) SiO2 
 PCOD9300061
Probable space group: C 2/C
;
_chemical_formula_sum "Si O2"
_cell_formula_units_Z 56
_cell_length_a 15.774334
_cell_length_b 6.316603
_cell_length_c 30.896022
_cell_angle_alpha 90.000000
_cell_angle_beta 61.982558
_cell_angle_gamma 90.000000
_cell_volume 2717.701693
_symmetry_space_group_name_H-M "C 2/C"
_symmetry_group_IT_number 15
_symmetry_cell_setting 'monoclinic'
loop_
_space_group_symop_operation_xyz
x,y,z
-x,y,1/2-z
-x,-y,-z
x,-y,1/2+z
1/2+x,1/2+y,z
1/2-x,1/2+y,1/2-z
1/2-x,1/2-y,-z
1/2+x,1/2-y,1/2+z
loop_
_atom_site_type_symbol
_atom_site_label
_atom_site_fract_x
_atom_site_fract_y
_atom_site_fract_z
Si Si1 0.683798 0.256111 0.706957
Si Si2 0.837702 0.733208 0.945350
Si Si3 0.144357 0.433616 0.304848
Si Si4 0.491481 0.500760 0.553092
Si Si5 0.147376 0.028181 0.639008
Si Si6 0.791275 0.125803 0.139709
Si Si7 0.038428 0.652137 0.108594
O O1 0.770523 0.395220 0.707343
O O2 0.623715 0.406997 0.689300
O O3 0.631960 0.131194 0.757987
O O4 0.730218 0.080947 0.664605
O O5 0.929941 0.841838 0.945752
O O6 0.818749 0.866023 0.906235
O O7 0.871013 0.498347 0.923537
O O8 0.750000 0.750000 0.000000
O O9 0.175472 0.223017 0.322640
O O10 0.048303 0.518233 0.350556
O O11 0.500000 0.500000 0.500000
O O12 0.385362 0.429592 0.590806
O O13 0.509120 0.726808 0.571838
O O14 0.230703 0.192993 0.630857
O O15 0.063927 0.166721 0.637376
#
# Coordination Sequence:
#
# PCOD9300061 Si02
#       7
#     8   8   8   8   8   8   8
#     4  11  22  42  71 101 129 177 222 279 335 405
#     4  11  26  45  66  96 138 183 220 274 341 399
#     4  11  22  41  74  97 132 174 225 278 338 393
#     4  11  26  40  71 104 131 175 228 279 332 400
#     4  10  26  43  68  95 136 177 217 274 335 399
#     4  11  22  43  67 100 135 169 224 277 327 397
#     4  11  24  47  67  99 142 177 221 282 335 408
#
# _framework density 20.605647999999999
#
# number of rings (size 3 to 8) (size 9 to 14) (size 15 to 20)
#    0.000    1.143    4.286    0.857    6.000    1.714 
#    0.000    4.286    0.000    0.000    0.000    0.000 
#    0.000    0.000    0.000    0.000    0.000    0.000 
#
# Total GULP energy -156545.766473 kJ/mol
# GULP energy per Si atom -5590.920231 kJ/mol
# Density = 2.055875 g / cm^3
# Si number density = 20.605648 Si / 1000 Ang^3
#
#
#
# Elastic Constant Matrix: (Units=GPa)
#
#
# Indices 1 2 3 4 5 6 
#
# 1 46.8166 26.7024 43.1753 -0.0001 21.5535 -0.0001
# 2 26.7024 93.9266 44.0541 -0.0005 15.2316 -0.0003
# 3 43.1753 44.0541 124.6311 0.0003 23.3780 0.0000
# 4 -0.0001 -0.0005 0.0003 30.0284 -0.0001 1.3559
# 5 21.5535 15.2316 23.3780 -0.0001 34.8018 0.0000
# 6 -0.0001 -0.0003 0.0000 1.3559 0.0000 26.5838
#
#
#
# Elastic Compliance Matrix: (Units=1/GPa)
#
#
# Indices 1 2 3 4 5 6 
#
# 1 0.040004 -0.004356 -0.009186 0.000000 -0.016698 0.000000
# 2 -0.004356 0.013502 -0.003045 0.000000 -0.001166 0.000000
# 3 -0.009186 -0.003045 0.012546 0.000000 -0.001406 0.000000
# 4 0.000000 0.000000 0.000000 0.033379 0.000000 -0.001703
# 5 -0.016698 -0.001166 -0.001406 0.000000 0.040530 0.000000
# 6 0.000000 0.000000 0.000000 -0.001703 0.000000 0.037704
#
#
# Mechanical properties :
#
#
# Convention : Reuss Voigt Hill
#
# Bulk Modulus (GPa) = 30.41622 54.80421 42.61022
# Shear Modulus (GPa) = 22.54295 28.37897 25.46096
#
# Velocity S-wave (km/s) = 3.31118 3.71515 3.51897
# Velocity P-wave (km/s) = 5.42326 6.71249 6.10202
#
# Compressibility (1/GPa) = 0.03287719
#
# Stress axis : x y z
#
# Youngs Moduli (GPa) = 24.99760 74.06153 79.70626
#
# Poissons Ratio (x) = 0.32263 0.73221
# Poissons Ratio (y) = 0.10890 0.24269
# Poissons Ratio (z) = 0.22964 0.22551
#
# Static dielectric constant tensor:
#      x y z
#    x 1.733220 0.000000 0.027250 
#    y 0.000000 1.738920 0.000000 
#    z 0.027250 0.000000 1.714990 
# 
# From -- ./inp_files/315025.got.cif
#   From: 2010.05.17/outbox.cif.g08.bks.cpg/sg15_158_cif.got.tgz:315025.got - 2010.06.03 18:47:42.
