data_PCOD9300574
_publ_section_title
;
Structure prediction by ZEFSAII (Michael W. Deem and Ramdas Pophale) SiO2 
 PCOD9300574
Probable space group: C 2/C
;
_chemical_formula_sum "Si O2"
_cell_formula_units_Z 56
_cell_length_a 15.158913
_cell_length_b 22.586444
_cell_length_c 9.591656
_cell_angle_alpha 90.000000
_cell_angle_beta 54.898777
_cell_angle_gamma 90.000000
_cell_volume 2686.802759
_symmetry_space_group_name_H-M "C 2/C"
_symmetry_group_IT_number 15
_symmetry_cell_setting 'monoclinic'
loop_
_space_group_symop_operation_xyz
x,y,z
-x,y,1/2-z
-x,-y,-z
x,-y,1/2+z
1/2+x,1/2+y,z
1/2-x,1/2+y,1/2-z
1/2-x,1/2-y,-z
1/2+x,1/2-y,1/2+z
loop_
_atom_site_type_symbol
_atom_site_label
_atom_site_fract_x
_atom_site_fract_y
_atom_site_fract_z
Si Si1 0.379254 0.285761 0.378772
Si Si2 0.803491 0.145427 0.187413
Si Si3 0.573734 0.159647 0.299559
Si Si4 0.301499 0.352785 0.203927
Si Si5 0.878802 0.207519 0.373824
Si Si6 0.999737 0.938386 0.081652
Si Si7 0.076763 0.664016 0.796838
O O1 0.500000 0.311229 0.250000
O O2 0.343443 0.295326 0.568649
O O3 0.389265 0.220588 0.308798
O O4 0.298984 0.324630 0.359144
O O5 0.683324 0.129091 0.250292
O O6 0.806356 0.164936 0.344858
O O7 0.893711 0.098004 0.062867
O O8 0.500000 0.128014 0.250000
O O9 0.499001 0.174846 0.500064
O O10 0.392310 0.403000 0.130484
O O11 0.183899 0.368707 0.253398
O O12 0.345609 0.300572 0.063020
O O13 0.884316 0.274178 0.310633
O O14 0.000000 0.184067 0.250000
O O15 0.000000 0.945926 0.250000
O O16 0.000000 0.000000 0.000000
O O17 0.000000 0.634595 0.750000
#
# Coordination Sequence:
#
# PCOD9300574 Si02
#       7
#     8   8   8   8   8   8   8
#     4  11  18  35  56  92 126 166 206 247 306 378
#     4  12  21  40  61  88 128 164 208 262 311 369
#     4  11  23  34  58  93 130 172 209 241 299 382
#     4  12  21  40  64  84 129 171 206 264 312 361
#     4  11  20  33  58  93 130 173 210 243 303 369
#     4  12  28  47  71  97 116 155 215 278 333 372
#     4  11  23  37  54  94 136 173 212 240 293 382
#
# _framework density 20.842618000000002
#
# number of rings (size 3 to 8) (size 9 to 14) (size 15 to 20)
#    0.000    0.571    4.286    6.857    2.000    0.000 
#    0.000    0.000    0.000    1.714    0.000    0.000 
#    0.000    0.000    0.000    0.000    0.000    0.000 
#
# Total GULP energy -156493.684573 kJ/mol
# GULP energy per Si atom -5589.060163 kJ/mol
# Density = 2.079518 g / cm^3
# Si number density = 20.842618 Si / 1000 Ang^3
#
#
#
# Elastic Constant Matrix: (Units=GPa)
#
#
# Indices 1 2 3 4 5 6 
#
# 1 204.5909 47.2221 27.0655 0.0000 -13.5204 0.0000
# 2 47.2221 64.8756 34.8984 0.0000 -7.2592 0.0000
# 3 27.0655 34.8984 100.5711 0.0000 2.2586 0.0000
# 4 0.0000 0.0000 0.0000 16.6093 0.0000 3.4347
# 5 -13.5204 -7.2592 2.2586 0.0000 39.2917 0.0000
# 6 0.0000 0.0000 0.0000 3.4347 0.0000 6.7997
#
#
#
# Elastic Compliance Matrix: (Units=1/GPa)
#
#
# Indices 1 2 3 4 5 6 
#
# 1 0.005940 -0.004060 -0.000219 0.000000 0.001307 0.000000
# 2 -0.004060 0.022337 -0.006729 0.000000 0.003117 0.000000
# 3 -0.000219 -0.006729 0.012383 0.000000 -0.002030 0.000000
# 4 0.000000 0.000000 0.000000 0.067230 0.000000 -0.033959
# 5 0.001307 0.003117 -0.002030 0.000000 0.026593 0.000000
# 6 0.000000 0.000000 0.000000 -0.033959 0.000000 0.164219
#
#
# Mechanical properties :
#
#
# Convention : Reuss Voigt Hill
#
# Bulk Modulus (GPa) = 53.63308 65.37885 59.50597
# Shear Modulus (GPa) = 15.29371 29.93025 22.61198
#
# Velocity S-wave (km/s) = 2.71176 3.79359 3.29734
# Velocity P-wave (km/s) = 5.96600 7.11508 6.56573
#
# Compressibility (1/GPa) = 0.01864521
#
# Stress axis : x y z
#
# Youngs Moduli (GPa) = 168.34543 44.76819 80.75819
#
# Poissons Ratio (x) = 0.18174 0.01771
# Poissons Ratio (y) = 0.68342 0.54339
# Poissons Ratio (z) = 0.03691 0.30123
#
# Static dielectric constant tensor:
#      x y z
#    x 1.856060 0.000000 -0.025330 
#    y 0.000000 1.698800 0.000000 
#    z -0.025330 0.000000 1.738100 
# 
# From -- ./inp_files/42545.got.cif
#   From: 2010.05.17/outbox.cif.g08.bks.cpg/sg15_22_cif.got.tgz:42545.got - 2010.06.03 18:47:42.
