data_PCOD9300181
_publ_section_title
;
Structure prediction by ZEFSAII (Michael W. Deem and Ramdas Pophale) SiO2 
 PCOD9300181
Probable space group: C 2/C
;
_chemical_formula_sum "Si O2"
_cell_formula_units_Z 40
_cell_length_a 12.690617
_cell_length_b 26.340262
_cell_length_c 5.128178
_cell_angle_alpha 90.000000
_cell_angle_beta 65.323225
_cell_angle_gamma 90.000000
_cell_volume 1557.670830
_symmetry_space_group_name_H-M "C 2/C"
_symmetry_group_IT_number 15
_symmetry_cell_setting 'monoclinic'
loop_
_space_group_symop_operation_xyz
x,y,z
-x,y,1/2-z
-x,-y,-z
x,-y,1/2+z
1/2+x,1/2+y,z
1/2-x,1/2+y,1/2-z
1/2-x,1/2-y,-z
1/2+x,1/2-y,1/2+z
loop_
_atom_site_type_symbol
_atom_site_label
_atom_site_fract_x
_atom_site_fract_y
_atom_site_fract_z
Si Si1 0.131755 0.575019 0.654553
Si Si2 0.164717 0.030417 0.780799
Si Si3 0.000000 0.165151 0.250000
Si Si4 0.189700 0.114507 0.401225
Si Si5 0.378688 0.829558 0.996942
Si Si6 0.000000 0.768621 0.250000
O O1 0.215759 0.575857 0.318869
O O2 0.000000 0.559839 0.750000
O O3 0.198330 0.541932 0.801959
O O4 0.134664 0.634731 0.738668
O O5 0.127709 0.084475 0.699748
O O6 0.127508 0.008912 0.096566
O O7 0.896561 0.132993 0.230441
O O8 0.959842 0.198713 0.542646
O O9 0.267559 0.159360 0.436349
O O10 0.500000 0.850398 0.750000
O O11 0.405211 0.769931 0.974161
#
# Coordination Sequence:
#
# PCOD9300181 Si02
#       6
#     8   8   4   8   8   4
#     4  11  21  40  71 101 138 183 217 280 344 407
#     4  11  24  44  68 102 136 176 227 278 341 409
#     4  12  30  46  68 103 134 187 228 292 326 390
#     4  11  25  46  71  96 146 177 227 277 348 399
#     4   9  21  40  67 100 136 180 220 272 339 405
#     4  10  26  46  68 103 138 173 242 272 338 404
#
# _framework density 25.679364
#
# number of rings (size 3 to 8) (size 9 to 14) (size 15 to 20)
#    0.600    0.800    4.000    0.000    9.800    2.400 
#    0.000    1.000    0.000    0.000    0.000    0.000 
#    0.000    0.000    0.000    0.000    0.000    0.000 
#
# Total GULP energy -111754.346636 kJ/mol
# GULP energy per Si atom -5587.717332 kJ/mol
# Density = 2.562092 g / cm^3
# Si number density = 25.679364 Si / 1000 Ang^3
#
#
#
# Elastic Constant Matrix: (Units=GPa)
#
#
# Indices 1 2 3 4 5 6 
#
# 1 212.5556 57.0820 47.8745 0.0000 21.6183 0.0000
# 2 57.0820 108.7742 22.6395 0.0000 9.9710 0.0000
# 3 47.8745 22.6395 102.7117 0.0000 22.0702 0.0000
# 4 0.0000 0.0000 0.0000 53.2836 0.0000 2.1313
# 5 21.6183 9.9710 22.0702 0.0000 41.4278 0.0000
# 6 0.0000 0.0000 0.0000 2.1313 0.0000 13.5138
#
#
#
# Elastic Compliance Matrix: (Units=1/GPa)
#
#
# Indices 1 2 3 4 5 6 
#
# 1 0.005983 -0.002609 -0.001895 0.000000 -0.001485 0.000000
# 2 -0.002609 0.010840 -0.001022 0.000000 -0.000703 0.000000
# 3 -0.001895 -0.001022 0.011947 0.000000 -0.005130 0.000000
# 4 0.000000 0.000000 0.000000 0.018887 0.000000 -0.002979
# 5 -0.001485 -0.000703 -0.005130 0.000000 0.027815 0.000000
# 6 0.000000 0.000000 0.000000 -0.002979 0.000000 0.074468
#
#
# Mechanical properties :
#
#
# Convention : Reuss Voigt Hill
#
# Bulk Modulus (GPa) = 56.44090 75.47038 65.95564
# Shear Modulus (GPa) = 29.95850 41.40808 35.68329
#
# Velocity S-wave (km/s) = 3.41931 4.01996 3.73174
# Velocity P-wave (km/s) = 6.13317 7.14143 6.65642
#
# Compressibility (1/GPa) = 0.01771765
#
# Stress axis : x y z
#
# Youngs Moduli (GPa) = 167.13643 92.25232 83.70587
#
# Poissons Ratio (x) = 0.24072 0.15859
# Poissons Ratio (y) = 0.43612 0.08555
# Poissons Ratio (z) = 0.31665 0.09428
#
# Static dielectric constant tensor:
#      x y z
#    x 1.977800 0.000000 -0.052170 
#    y 0.000000 2.080380 0.000000 
#    z -0.052170 0.000000 2.082160 
# 
# From -- ./inp_files/5523.got.cif
#   From: 2010.05.17/outbox.cif.g08.bks.cpg/sg15_3_cif.got.tgz:5523.got - 2010.06.03 18:47:42.
