data_PCOD9300805
_publ_section_title
;
Structure prediction by ZEFSAII (Michael W. Deem and Ramdas Pophale) SiO2 
 PCOD9300805
Probable space group: C 2/C
;
_chemical_formula_sum "Si O2"
_cell_formula_units_Z 48
_cell_length_a 12.632438
_cell_length_b 10.765226
_cell_length_c 16.907047
_cell_angle_alpha 90.000000
_cell_angle_beta 107.739042
_cell_angle_gamma 90.000000
_cell_volume 2189.889178
_symmetry_space_group_name_H-M "C 2/C"
_symmetry_group_IT_number 15
_symmetry_cell_setting 'monoclinic'
loop_
_space_group_symop_operation_xyz
x,y,z
-x,y,1/2-z
-x,-y,-z
x,-y,1/2+z
1/2+x,1/2+y,z
1/2-x,1/2+y,1/2-z
1/2-x,1/2-y,-z
1/2+x,1/2-y,1/2+z
loop_
_atom_site_type_symbol
_atom_site_label
_atom_site_fract_x
_atom_site_fract_y
_atom_site_fract_z
Si Si1 0.588062 0.998064 0.948350
Si Si2 0.458774 0.472605 0.832755
Si Si3 0.270832 0.995045 0.765307
Si Si4 0.691251 0.452258 0.408485
Si Si5 0.964215 0.305596 0.331397
Si Si6 0.108985 0.700927 0.319646
O O1 0.566328 0.889907 0.879546
O O2 0.564536 0.128512 0.900379
O O3 0.712274 0.972861 0.006812
O O4 0.500000 0.000000 0.000000
O O5 0.500000 0.474783 0.750000
O O6 0.339862 0.540468 0.806084
O O7 0.564923 0.520417 0.904851
O O8 0.436026 0.331288 0.854254
O O9 0.324950 0.885258 0.727184
O O10 0.225975 0.959659 0.842195
O O11 0.361827 0.099315 0.804363
O O12 0.681785 0.311899 0.372447
O O13 0.000000 0.290815 0.250000
O O14 0.000000 0.751816 0.250000
#
# Coordination Sequence:
#
# PCOD9300805 Si02
#       6
#     8   8   8   8   8   8
#     4  12  23  41  64  95 130 169 220 264 332 373
#     4   9  22  38  62  91 125 164 208 264 322 373
#     4  11  19  39  64  95 117 165 218 260 309 379
#     4  11  24  41  62  97 134 165 209 274 326 382
#     4  11  20  41  66  90 123 167 220 264 309 391
#     4  12  22  41  69  95 124 171 222 262 316 389
#
# _framework density 21.918917
#
# number of rings (size 3 to 8) (size 9 to 14) (size 15 to 20)
#    0.000    1.000    5.000    3.000    0.000    0.667 
#    0.000    0.833    3.667    0.000    0.000    0.000 
#    0.000    0.000    0.000    0.000    0.000    0.000 
#
# Total GULP energy -134005.267767 kJ/mol
# GULP energy per Si atom -5583.552824 kJ/mol
# Density = 2.186903 g / cm^3
# Si number density = 21.918917 Si / 1000 Ang^3
#
#
#
# Elastic Constant Matrix: (Units=GPa)
#
#
# Indices 1 2 3 4 5 6 
#
# 1 85.4025 26.0638 23.1635 0.0000 38.0189 0.0000
# 2 26.0638 85.1498 21.8392 0.0000 7.4151 0.0000
# 3 23.1635 21.8392 80.3885 0.0000 25.7359 0.0000
# 4 0.0000 0.0000 0.0000 17.9425 0.0000 9.8945
# 5 38.0189 7.4151 25.7359 0.0000 50.2902 0.0000
# 6 0.0000 0.0000 0.0000 9.8945 0.0000 31.3962
#
#
#
# Elastic Compliance Matrix: (Units=1/GPa)
#
#
# Indices 1 2 3 4 5 6 
#
# 1 0.019352 -0.004755 0.000209 0.000000 -0.014036 0.000000
# 2 -0.004755 0.013793 -0.003440 0.000000 0.003322 0.000000
# 3 0.000209 -0.003440 0.015789 0.000000 -0.007731 0.000000
# 4 0.000000 0.000000 0.000000 0.067457 0.000000 -0.021259
# 5 -0.014036 0.003322 -0.007731 0.000000 0.033962 0.000000
# 6 0.000000 0.000000 0.000000 -0.021259 0.000000 0.038551
#
#
# Mechanical properties :
#
#
# Convention : Reuss Voigt Hill
#
# Bulk Modulus (GPa) = 30.33858 43.67484 37.00671
# Shear Modulus (GPa) = 23.16287 31.91739 27.54013
#
# Velocity S-wave (km/s) = 3.25430 3.82010 3.54850
# Velocity P-wave (km/s) = 5.29074 6.27905 5.80596
#
# Compressibility (1/GPa) = 0.03296133
#
# Stress axis : x y z
#
# Youngs Moduli (GPa) = 51.67399 72.50279 63.33551
#
# Poissons Ratio (x) = 0.34474 -0.01324
# Poissons Ratio (y) = 0.24570 0.21789
# Poissons Ratio (z) = -0.01080 0.24943
#
# Static dielectric constant tensor:
#      x y z
#    x 1.854590 0.000000 0.018690 
#    y 0.000000 1.830630 0.000000 
#    z 0.018690 0.000000 1.828230 
# 
# From -- ./inp_files/196581.got.cif
#   From: 2010.05.17/outbox.cif.g08.bks.cpg/sg15_99_cif.got.tgz:196581.got - 2010.06.03 18:47:42.
