data_PCOD9300095
_publ_section_title
;
Structure prediction by ZEFSAII (Michael W. Deem and Ramdas Pophale) SiO2 
 PCOD9300095
Probable space group: C 2/C
;
_chemical_formula_sum "Si O2"
_cell_formula_units_Z 64
_cell_length_a 16.380184
_cell_length_b 9.475309
_cell_length_c 28.730975
_cell_angle_alpha 90.000000
_cell_angle_beta 43.772343
_cell_angle_gamma 90.000000
_cell_volume 3084.890474
_symmetry_space_group_name_H-M "C 2/C"
_symmetry_group_IT_number 15
_symmetry_cell_setting 'monoclinic'
loop_
_space_group_symop_operation_xyz
x,y,z
-x,y,1/2-z
-x,-y,-z
x,-y,1/2+z
1/2+x,1/2+y,z
1/2-x,1/2+y,1/2-z
1/2-x,1/2-y,-z
1/2+x,1/2-y,1/2+z
loop_
_atom_site_type_symbol
_atom_site_label
_atom_site_fract_x
_atom_site_fract_y
_atom_site_fract_z
Si Si1 0.926862 0.165911 0.239881
Si Si2 0.381678 0.641693 0.498783
Si Si3 0.236372 0.595436 0.683849
Si Si4 0.484045 0.899722 0.621488
Si Si5 0.109694 0.679831 0.598741
Si Si6 0.001250 0.845582 0.455276
Si Si7 0.750118 0.557792 0.713754
Si Si8 0.892551 0.307388 0.760463
O O1 0.832409 0.266557 0.303975
O O2 0.000000 0.089287 0.250000
O O3 0.014337 0.263666 0.174594
O O4 0.855594 0.054425 0.239302
O O5 0.242863 0.673491 0.563481
O O6 0.402775 0.715398 0.440387
O O7 0.409023 0.473758 0.488479
O O8 0.468776 0.697312 0.503774
O O9 0.371464 0.593957 0.613701
O O10 0.228080 0.609899 0.743124
O O11 0.167422 0.453924 0.699349
O O12 0.527029 0.784113 0.567032
O O13 0.441436 0.828659 0.687609
O O14 0.575243 0.022744 0.596465
O O15 0.367318 0.977641 0.649447
O O16 0.705823 0.686301 0.700984
O O17 0.000000 0.273868 0.750000
#
# Coordination Sequence:
#
# PCOD9300095 Si02
#       8
#     8   8   8   8   8   8   8   8
#     4  12  22  36  65  95 128 163 199 260 322 377
#     4  10  26  44  69  88 120 176 220 256 299 369
#     4  11  20  37  66  92 126 161 201 259 315 383
#     4  11  24  39  66  90 129 164 203 265 311 376
#     4  11  24  44  62  95 128 164 216 261 310 368
#     4  11  22  45  67  93 121 167 222 256 306 374
#     4  11  21  38  56  99 127 163 195 248 332 380
#     4  11  23  37  56 100 133 161 197 246 333 383
#
# _framework density 20.746278
#
# number of rings (size 3 to 8) (size 9 to 14) (size 15 to 20)
#    0.000    1.000    5.000    3.000    3.500    1.000 
#    0.000    0.000    0.000    0.000    0.000    0.000 
#    0.000    0.000    0.000    0.000    0.000    0.000 
#
# Total GULP energy -178802.442099 kJ/mol
# GULP energy per Si atom -5587.576316 kJ/mol
# Density = 2.069906 g / cm^3
# Si number density = 20.746278 Si / 1000 Ang^3
#
#
#
# Elastic Constant Matrix: (Units=GPa)
#
#
# Indices 1 2 3 4 5 6 
#
# 1 93.4397 33.1301 14.0697 0.0000 1.5874 0.0002
# 2 33.1301 59.6667 -9.0691 0.0000 3.1592 0.0004
# 3 14.0697 -9.0691 23.9852 0.0000 -5.8954 -0.0001
# 4 0.0000 0.0000 0.0000 -6.7891 0.0000 -4.8928
# 5 1.5874 3.1592 -5.8954 0.0000 20.0853 0.0000
# 6 0.0002 0.0004 -0.0001 -4.8928 0.0000 -1.3974
#
#
#
# Elastic Compliance Matrix: (Units=1/GPa)
#
#
# Indices 1 2 3 4 5 6 
#
# 1 0.017285 -0.011750 -0.015588 0.000000 -0.004093 0.000000
# 2 -0.011750 0.025784 0.017107 0.000002 0.001894 -0.000003
# 3 -0.015588 0.017107 0.061374 0.000000 0.016556 0.000000
# 4 0.000000 0.000002 0.000000 0.096691 -0.000001 -0.338547
# 5 -0.004093 0.001894 0.016556 -0.000001 0.054673 0.000001
# 6 0.000000 -0.000003 0.000000 -0.338547 0.000001 0.469756
#
#
# Mechanical properties :
#
#
# Convention : Reuss Voigt Hill
#
# Bulk Modulus (GPa) = 11.90744 28.15035 20.02890
# Shear Modulus (GPa) = 6.45979 11.64381 9.05180
#
# Velocity S-wave (km/s) = 1.76648 2.37164 2.09107
# Velocity P-wave (km/s) = 3.14843 4.59324 3.93767
#
# Compressibility (1/GPa) = 0.08398110
#
# Stress axis : x y z
#
# Youngs Moduli (GPa) = 57.85358 38.78367 16.29351
#
# Poissons Ratio (x) = 0.45572 0.25399
# Poissons Ratio (y) = 0.67979 -0.27874
# Poissons Ratio (z) = 0.90184 -0.66349
#
# Static dielectric constant tensor:
#      x y z
#    x 1.758760 0.000000 0.034580 
#    y 0.000000 1.726190 0.000000 
#    z 0.034580 0.000000 1.749870 
# 
# From -- ./inp_files/313150.got.cif
#   From: 2010.05.17/outbox.cif.g08.bks.cpg/sg15_157_cif.got.tgz:313150.got - 2010.06.03 18:47:42.
