data_PCOD9300655
_publ_section_title
;
Structure prediction by ZEFSAII (Michael W. Deem and Ramdas Pophale) SiO2 
 PCOD9300655
Probable space group: C 2/C
;
_chemical_formula_sum "Si O2"
_cell_formula_units_Z 48
_cell_length_a 22.078343
_cell_length_b 20.302709
_cell_length_c 10.965792
_cell_angle_alpha 90.000000
_cell_angle_beta 33.795919
_cell_angle_gamma 90.000000
_cell_volume 2734.134629
_symmetry_space_group_name_H-M "C 2/C"
_symmetry_group_IT_number 15
_symmetry_cell_setting 'monoclinic'
loop_
_space_group_symop_operation_xyz
x,y,z
-x,y,1/2-z
-x,-y,-z
x,-y,1/2+z
1/2+x,1/2+y,z
1/2-x,1/2+y,1/2-z
1/2-x,1/2-y,-z
1/2+x,1/2-y,1/2+z
loop_
_atom_site_type_symbol
_atom_site_label
_atom_site_fract_x
_atom_site_fract_y
_atom_site_fract_z
Si Si1 0.654271 0.801667 0.335783
Si Si2 0.890714 0.759484 0.006735
Si Si3 0.856041 0.596070 0.424247
Si Si4 0.000000 0.522366 0.750000
Si Si5 0.513462 0.865444 0.030365
Si Si6 0.322308 0.318965 0.364902
Si Si7 0.500000 0.290460 0.250000
O O1 0.775273 0.770591 0.131513
O O2 0.656006 0.857962 0.437208
O O3 0.604086 0.831268 0.295698
O O4 0.564347 0.751809 0.540548
O O5 0.885032 0.805631 0.134808
O O6 0.908391 0.685864 0.030525
O O7 0.000000 0.774298 0.750000
O O8 0.896442 0.525283 0.400759
O O9 0.747237 0.614891 0.533648
O O10 0.944460 0.619848 0.176419
O O11 0.009831 0.569061 0.616166
O O12 0.250000 0.250000 0.500000
O O13 0.404242 0.325929 0.338697
#
# Coordination Sequence:
#
# PCOD9300655 Si02
#       7
#     8   8   8   4   8   8   4
#     4  11  19  34  61  82 116 153 181 243 292 338
#     4  11  22  36  52  88 127 148 183 239 303 346
#     4  11  20  37  54  82 114 149 196 232 277 342
#     4  12  25  34  56  84 124 157 184 240 292 336
#     4  12  20  37  55  86 119 148 192 234 288 349
#     4  11  19  33  59  83 115 152 189 239 291 344
#     4  12  15  32  58  92 106 145 192 234 296 336
#
# _framework density 17.555828000000002
#
# number of rings (size 3 to 8) (size 9 to 14) (size 15 to 20)
#    0.000    0.667   10.833    0.500    0.000    0.667 
#    0.000    0.000    0.000    0.000    2.167    7.000 
#    0.000    0.000    0.000    0.000    0.000    0.000 
#
# Total GULP energy -133698.711651 kJ/mol
# GULP energy per Si atom -5570.779652 kJ/mol
# Density = 1.751587 g / cm^3
# Si number density = 17.555828 Si / 1000 Ang^3
#
#
#
# Elastic Constant Matrix: (Units=GPa)
#
#
# Indices 1 2 3 4 5 6 
#
# 1 122.0884 58.7456 31.7924 0.0000 -39.0994 0.0000
# 2 58.7456 87.1733 32.1494 0.0000 -20.6388 0.0000
# 3 31.7924 32.1494 89.8307 0.0000 -7.0923 0.0000
# 4 0.0000 0.0000 0.0000 18.8739 0.0000 1.4107
# 5 -39.0994 -20.6388 -7.0923 0.0000 29.4243 0.0000
# 6 0.0000 0.0000 0.0000 1.4107 0.0000 35.7770
#
#
#
# Elastic Compliance Matrix: (Units=1/GPa)
#
#
# Indices 1 2 3 4 5 6 
#
# 1 0.018122 -0.006881 -0.002478 0.000000 0.018657 0.000000
# 2 -0.006881 0.018161 -0.003854 0.000000 0.002666 0.000000
# 3 -0.002478 -0.003854 0.013165 0.000000 -0.002822 0.000000
# 4 0.000000 0.000000 0.000000 0.053140 0.000000 -0.002095
# 5 0.018657 0.002666 -0.002822 0.000000 0.059966 0.000000
# 6 0.000000 0.000000 0.000000 -0.002095 0.000000 0.028034
#
#
# Mechanical properties :
#
#
# Convention : Reuss Voigt Hill
#
# Bulk Modulus (GPa) = 43.43587 60.49635 51.96611
# Shear Modulus (GPa) = 22.25302 28.57538 25.41420
#
# Velocity S-wave (km/s) = 3.56414 4.03884 3.80889
# Velocity P-wave (km/s) = 6.46009 7.50225 7.00059
#
# Compressibility (1/GPa) = 0.02302245
#
# Stress axis : x y z
#
# Youngs Moduli (GPa) = 55.18116 55.06268 75.95663
#
# Poissons Ratio (x) = 0.37891 0.18821
# Poissons Ratio (y) = 0.37973 0.29272
# Poissons Ratio (z) = 0.13673 0.21220
#
# Static dielectric constant tensor:
#      x y z
#    x 1.707240 0.000000 -0.019270 
#    y 0.000000 1.596320 0.000000 
#    z -0.019270 0.000000 1.648850 
# 
# From -- ./inp_files/88442.got.cif
#   From: 2010.05.17/outbox.cif.g08.bks.cpg/sg15_45_cif.got.tgz:88442.got - 2010.06.03 18:47:42.
