data_PCOD9300310
_publ_section_title
;
Structure prediction by ZEFSAII (Michael W. Deem and Ramdas Pophale) SiO2 
 PCOD9300310
Probable space group: C 2/C
;
_chemical_formula_sum "Si O2"
_cell_formula_units_Z 44
_cell_length_a 5.284908
_cell_length_b 15.750024
_cell_length_c 21.542837
_cell_angle_alpha 90.000000
_cell_angle_beta 89.999938
_cell_angle_gamma 90.000000
_cell_volume 1793.170340
_symmetry_space_group_name_H-M "C 2/C"
_symmetry_group_IT_number 15
_symmetry_cell_setting 'monoclinic'
loop_
_space_group_symop_operation_xyz
x,y,z
-x,y,1/2-z
-x,-y,-z
x,-y,1/2+z
1/2+x,1/2+y,z
1/2-x,1/2+y,1/2-z
1/2-x,1/2-y,-z
1/2+x,1/2-y,1/2+z
loop_
_atom_site_type_symbol
_atom_site_label
_atom_site_fract_x
_atom_site_fract_y
_atom_site_fract_z
Si Si1 0.929619 0.595974 0.977367
Si Si2 0.129094 0.663734 0.650715
Si Si3 0.500000 0.551222 0.250000
Si Si4 0.500000 0.250000 0.250000
Si Si5 0.070381 0.095974 0.477367
Si Si6 0.000000 0.551222 0.750000
Si Si7 0.629094 0.663734 0.349285
O O1 0.808722 0.608182 0.909350
O O2 0.712189 0.634789 0.021138
O O3 0.000000 0.500000 0.000000
O O4 0.212189 0.634789 0.978862
O O5 0.334683 0.692688 0.702238
O O6 0.934153 0.608445 0.690853
O O7 0.000002 0.750000 0.628911
O O8 0.750000 0.500000 0.267141
O O9 0.434153 0.608444 0.309147
O O10 0.334681 0.192688 0.297762
O O11 0.191279 0.108182 0.409350
O O12 0.000000 0.000000 0.500000
#
# Coordination Sequence:
#
# PCOD9300310 Si02
#       7
#     8   8   4   4   8   4   8
#     4  10  26  48  75 110 154 207 263 327 390 468
#     4  12  27  49  80 114 163 208 268 331 404 488
#     4  12  28  44  77 115 152 210 260 334 402 464
#     4  12  24  52  76 120 160 210 266 336 410 474
#     4  10  26  48  75 110 154 207 263 327 390 468
#     4  12  28  44  77 115 152 210 260 334 402 464
#     4  12  27  49  80 114 163 208 268 331 404 488
#
# _framework density 24.537545000000001
#
# number of rings (size 3 to 8) (size 9 to 14) (size 15 to 20)
#    0.000    0.727    3.636    1.091   15.273    1.455 
#    0.000    0.000    0.000    0.000    0.000    0.000 
#    0.000    0.000    0.000    0.000    0.000    0.000 
#
# Total GULP energy -122686.875439 kJ/mol
# GULP energy per Si atom -5576.676156 kJ/mol
# Density = 2.448170 g / cm^3
# Si number density = 24.537545 Si / 1000 Ang^3
#
#
#
# Elastic Constant Matrix: (Units=GPa)
#
#
# Indices 1 2 3 4 5 6 
#
# 1 148.4618 18.6045 35.1721 0.0000 3.5429 0.0000
# 2 18.6045 103.3039 55.9382 0.0000 -3.0360 0.0000
# 3 35.1721 55.9382 164.2321 0.0000 -4.8250 0.0000
# 4 0.0000 0.0000 0.0000 55.0226 0.0000 -3.0342
# 5 3.5429 -3.0360 -4.8250 0.0000 35.5417 0.0000
# 6 0.0000 0.0000 0.0000 -3.0342 0.0000 17.7081
#
#
#
# Elastic Compliance Matrix: (Units=1/GPa)
#
#
# Indices 1 2 3 4 5 6 
#
# 1 0.007154 -0.000578 -0.001363 0.000000 -0.000948 0.000000
# 2 -0.000578 0.011924 -0.003921 0.000000 0.000544 0.000000
# 3 -0.001363 -0.003921 0.007742 0.000000 0.000852 0.000000
# 4 0.000000 0.000000 0.000000 0.018348 0.000000 0.003144
# 5 -0.000948 0.000544 0.000852 0.000000 0.028393 0.000000
# 6 0.000000 0.000000 0.000000 0.003144 0.000000 0.057010
#
#
# Mechanical properties :
#
#
# Convention : Reuss Voigt Hill
#
# Bulk Modulus (GPa) = 66.25251 70.60306 68.42778
# Shear Modulus (GPa) = 33.93843 42.07335 38.00589
#
# Velocity S-wave (km/s) = 3.72307 4.14533 3.93986
# Velocity P-wave (km/s) = 6.74839 7.19358 6.97454
#
# Compressibility (1/GPa) = 0.01509377
#
# Stress axis : x y z
#
# Youngs Moduli (GPa) = 139.78773 83.86634 129.17331
#
# Poissons Ratio (x) = 0.04849 0.17606
# Poissons Ratio (y) = 0.08082 0.50655
# Poissons Ratio (z) = 0.19052 0.32888
#
# Static dielectric constant tensor:
#      x y z
#    x 2.182020 0.000000 0.018360 
#    y 0.000000 2.121670 0.000000 
#    z 0.018360 0.000000 1.956270 
# 
# From -- ./inp_files/226954.got.cif
#   From: 2010.05.17/outbox.cif.g08.bks.cpg/sg15_114_cif.got.tgz:226954.got - 2010.06.03 18:47:42.
