data_PCOD9300720
_publ_section_title
;
Structure prediction by ZEFSAII (Michael W. Deem and Ramdas Pophale) SiO2 
 PCOD9300720
Probable space group: C 2/C
;
_chemical_formula_sum "Si O2"
_cell_formula_units_Z 56
_cell_length_a 15.518048
_cell_length_b 9.182644
_cell_length_c 20.027773
_cell_angle_alpha 90.000000
_cell_angle_beta 122.998965
_cell_angle_gamma 90.000000
_cell_volume 2393.503108
_symmetry_space_group_name_H-M "C 2/C"
_symmetry_group_IT_number 15
_symmetry_cell_setting 'monoclinic'
loop_
_space_group_symop_operation_xyz
x,y,z
-x,y,1/2-z
-x,-y,-z
x,-y,1/2+z
1/2+x,1/2+y,z
1/2-x,1/2+y,1/2-z
1/2-x,1/2-y,-z
1/2+x,1/2-y,1/2+z
loop_
_atom_site_type_symbol
_atom_site_label
_atom_site_fract_x
_atom_site_fract_y
_atom_site_fract_z
Si Si1 0.407126 0.233690 0.837050
Si Si2 0.278033 0.744543 0.649599
Si Si3 0.581055 0.110738 0.998764
Si Si4 0.368043 0.158002 0.051826
Si Si5 0.937833 0.538630 0.283469
Si Si6 0.909821 0.020234 0.764513
Si Si7 0.526822 0.633480 0.561397
O O1 0.329505 0.280820 0.861991
O O2 0.519053 0.198298 0.914902
O O3 0.372212 0.078175 0.794814
O O4 0.406667 0.349927 0.778493
O O5 0.293683 0.780215 0.578273
O O6 0.310065 0.582992 0.685556
O O7 0.364663 0.840549 0.722720
O O8 0.659746 0.992072 0.999932
O O9 0.601221 0.242348 0.059439
O O10 0.500000 0.000000 0.000000
O O11 0.419120 0.284816 0.029894
O O12 0.472227 0.106198 0.134538
O O13 0.000000 0.462125 0.250000
O O14 0.930953 0.083572 0.848251
O O15 0.000000 0.056208 0.750000
O O16 0.500000 0.500000 0.500000
#
# Coordination Sequence:
#
# PCOD9300720 Si02
#       7
#     8   8   8   8   8   8   8
#     4  11  22  34  56  93 120 149 188 253 300 340
#     4  11  20  36  58  88 121 150 190 248 302 346
#     4   9  20  37  60  83 109 158 205 235 273 363
#     4   9  18  36  60  83 107 155 201 232 281 357
#     4   9  17  34  54  79 113 153 195 230 284 357
#     4  12  22  38  63  90 118 154 199 244 292 352
#     4  11  19  36  62  86 113 149 206 242 284 337
#
# _framework density 23.396668999999999
#
# number of rings (size 3 to 8) (size 9 to 14) (size 15 to 20)
#    0.000    1.714    4.286    1.714    0.000    0.000 
#    0.000    2.857    0.000    0.857    0.000    0.000 
#    0.000    0.000    0.000    0.000    0.000    0.000 
#
# Total GULP energy -156270.759832 kJ/mol
# GULP energy per Si atom -5581.098565 kJ/mol
# Density = 2.334342 g / cm^3
# Si number density = 23.396669 Si / 1000 Ang^3
#
#
#
# Elastic Constant Matrix: (Units=GPa)
#
#
# Indices 1 2 3 4 5 6 
#
# 1 100.8616 39.5650 23.3435 0.0000 -26.2605 0.0000
# 2 39.5650 122.2453 38.1822 0.0000 -24.2675 0.0000
# 3 23.3435 38.1822 121.3906 0.0000 -28.2357 0.0000
# 4 0.0000 0.0000 0.0000 27.6987 0.0000 -24.8633
# 5 -26.2605 -24.2675 -28.2357 0.0000 32.6693 0.0000
# 6 0.0000 0.0000 0.0000 -24.8633 0.0000 25.5963
#
#
#
# Elastic Compliance Matrix: (Units=1/GPa)
#
#
# Indices 1 2 3 4 5 6 
#
# 1 0.013190 -0.002600 0.000373 0.000000 0.008993 0.000000
# 2 -0.002600 0.010397 -0.001827 0.000000 0.004054 0.000000
# 3 0.000373 -0.001827 0.010632 0.000000 0.008132 0.000000
# 4 0.000000 0.000000 0.000000 0.281906 0.000000 0.273834
# 5 0.008993 0.004054 0.008132 0.000000 0.047879 0.000000
# 6 0.000000 0.000000 0.000000 0.273834 0.000000 0.305061
#
#
# Mechanical properties :
#
#
# Convention : Reuss Voigt Hill
#
# Bulk Modulus (GPa) = 38.29802 60.74209 49.52006
# Shear Modulus (GPa) = 7.28994 33.41996 20.35495
#
# Velocity S-wave (km/s) = 1.76708 3.78353 2.95277
# Velocity P-wave (km/s) = 4.53519 6.71602 5.73031
#
# Compressibility (1/GPa) = 0.02611101
#
# Stress axis : x y z
#
# Youngs Moduli (GPa) = 75.81683 96.17833 94.05192
#
# Poissons Ratio (x) = 0.25008 -0.03512
# Poissons Ratio (y) = 0.19714 0.17187
# Poissons Ratio (z) = -0.02831 0.17576
#
# Static dielectric constant tensor:
#      x y z
#    x 1.879500 0.000000 -0.014840 
#    y 0.000000 1.918610 0.000000 
#    z -0.014840 0.000000 1.978990 
# 
# From -- ./inp_files/247566.got.cif
#   From: 2010.05.17/outbox.cif.g08.bks.cpg/sg15_124_cif.got.tgz:247566.got - 2010.06.03 18:47:42.
