data_PCOD9300804
_publ_section_title
;
Structure prediction by ZEFSAII (Michael W. Deem and Ramdas Pophale) SiO2 
 PCOD9300804
Probable space group: C 2/C
;
_chemical_formula_sum "Si O2"
_cell_formula_units_Z 40
_cell_length_a 7.389381
_cell_length_b 25.924110
_cell_length_c 10.077474
_cell_angle_alpha 90.000000
_cell_angle_beta 87.790492
_cell_angle_gamma 90.000000
_cell_volume 1929.037177
_symmetry_space_group_name_H-M "C 2/C"
_symmetry_group_IT_number 15
_symmetry_cell_setting 'monoclinic'
loop_
_space_group_symop_operation_xyz
x,y,z
-x,y,1/2-z
-x,-y,-z
x,-y,1/2+z
1/2+x,1/2+y,z
1/2-x,1/2+y,1/2-z
1/2-x,1/2-y,-z
1/2+x,1/2-y,1/2+z
loop_
_atom_site_type_symbol
_atom_site_label
_atom_site_fract_x
_atom_site_fract_y
_atom_site_fract_z
Si Si1 0.284454 0.296045 0.731008
Si Si2 0.335867 0.124561 0.045396
Si Si3 0.972856 0.047828 0.404060
Si Si4 0.218856 0.679262 0.723100
Si Si5 0.252149 0.366480 0.495866
O O1 0.500000 0.299040 0.750000
O O2 0.189924 0.337577 0.829026
O O3 0.221631 0.238546 0.767216
O O4 0.254836 0.313706 0.581046
O O5 0.224239 0.073015 0.073740
O O6 0.545772 0.114115 0.011466
O O7 0.252029 0.154195 0.920592
O O8 0.000000 0.033576 0.250000
O O9 0.113312 0.093073 0.440615
O O10 0.000000 0.000000 0.500000
O O11 0.000000 0.679974 0.750000
O O12 0.297158 0.646407 0.842628
#
# Coordination Sequence:
#
# PCOD9300804 Si02
#       5
#     8   8   8   8   8
#     4  11  19  39  63  95 135 177 215 256 315 386
#     4  11  22  43  65  93 134 170 211 272 320 380
#     4  12  28  48  70  96 124 168 224 276 331 382
#     4   9  22  36  62  99 134 174 219 251 308 398
#     4  11  22  43  65  93 134 170 211 272 320 380
#
# _framework density 20.735733
#
# number of rings (size 3 to 8) (size 9 to 14) (size 15 to 20)
#    0.000    1.200    4.000    1.800    2.800    0.800 
#    7.200    0.000    0.000    0.000    0.000    0.000 
#    0.000    0.000    0.000    0.000    0.000    0.000 
#
# Total GULP energy -111919.920607 kJ/mol
# GULP energy per Si atom -5595.996030 kJ/mol
# Density = 2.068854 g / cm^3
# Si number density = 20.735733 Si / 1000 Ang^3
#
#
#
# Elastic Constant Matrix: (Units=GPa)
#
#
# Indices 1 2 3 4 5 6 
#
# 1 83.7310 9.0038 2.3244 0.0000 3.4676 0.0000
# 2 9.0038 72.4194 29.8572 0.0000 -0.7940 0.0000
# 3 2.3244 29.8572 115.9951 0.0000 17.3829 0.0000
# 4 0.0000 0.0000 0.0000 36.8168 0.0000 10.1381
# 5 3.4676 -0.7940 17.3829 0.0000 26.7943 0.0000
# 6 0.0000 0.0000 0.0000 10.1381 0.0000 -1.6860
#
#
#
# Elastic Compliance Matrix: (Units=1/GPa)
#
#
# Indices 1 2 3 4 5 6 
#
# 1 0.012197 -0.001743 0.000497 0.000000 -0.001952 0.000000
# 2 -0.001743 0.015976 -0.004632 0.000000 0.003704 0.000000
# 3 0.000497 -0.004632 0.010893 0.000000 -0.007268 0.000000
# 4 0.000000 0.000000 0.000000 0.010227 0.000000 0.061497
# 5 -0.001952 0.003704 -0.007268 0.000000 0.042399 0.000000
# 6 0.000000 0.000000 0.000000 0.061497 0.000000 -0.223329
#
#
# Mechanical properties :
#
#
# Convention : Reuss Voigt Hill
#
# Bulk Modulus (GPa) = 36.61770 39.39067 38.00419
# Shear Modulus (GPa) = -45.13558 27.78234 -8.67662
#
# Velocity S-wave (km/s) = -4.67058 3.66434 -2.04780
# Velocity P-wave (km/s) = 3.37464 6.07790 3.57441
#
# Compressibility (1/GPa) = 0.02730920
#
# Stress axis : x y z
#
# Youngs Moduli (GPa) = 81.98419 62.59568 91.80494
#
# Poissons Ratio (x) = 0.10909 -0.04560
# Poissons Ratio (y) = 0.14287 0.42527
# Poissons Ratio (z) = -0.04073 0.28996
#
# Static dielectric constant tensor:
#      x y z
#    x 1.780870 0.000000 0.003530 
#    y 0.000000 1.692990 0.000000 
#    z 0.003530 0.000000 1.717750 
# 
# From -- ./inp_files/23637.got.cif
#   From: 2010.05.17/outbox.cif.g08.bks.cpg/sg15_12_cif.got.tgz:23637.got - 2010.06.03 18:47:42.
