data_PCOD9300088
_publ_section_title
;
Structure prediction by ZEFSAII (Michael W. Deem and Ramdas Pophale) SiO2 
 PCOD9300088
Probable space group: C 2/C
;
_chemical_formula_sum "Si O2"
_cell_formula_units_Z 44
_cell_length_a 8.699126
_cell_length_b 19.709133
_cell_length_c 10.454589
_cell_angle_alpha 90.000000
_cell_angle_beta 103.737907
_cell_angle_gamma 90.000000
_cell_volume 1741.184226
_symmetry_space_group_name_H-M "C 2/C"
_symmetry_group_IT_number 15
_symmetry_cell_setting 'monoclinic'
loop_
_space_group_symop_operation_xyz
x,y,z
-x,y,1/2-z
-x,-y,-z
x,-y,1/2+z
1/2+x,1/2+y,z
1/2-x,1/2+y,1/2-z
1/2-x,1/2-y,-z
1/2+x,1/2-y,1/2+z
loop_
_atom_site_type_symbol
_atom_site_label
_atom_site_fract_x
_atom_site_fract_y
_atom_site_fract_z
Si Si1 0.315382 0.280692 0.204524
Si Si2 0.353286 0.987692 0.568725
Si Si3 0.095414 0.070075 0.396251
Si Si4 0.500000 0.900372 0.250000
Si Si5 0.795862 0.147165 0.430368
Si Si6 0.300693 0.824446 0.051172
O O1 0.500000 0.261953 0.250000
O O2 0.220074 0.210236 0.169955
O O3 0.272824 0.325273 0.319793
O O4 0.289690 0.321952 0.069916
O O5 0.336054 0.911132 0.613129
O O6 0.500000 0.000000 0.500000
O O7 0.187074 0.005320 0.467433
O O8 0.367819 0.042847 0.685950
O O9 0.237322 0.124979 0.430602
O O10 0.000000 0.054011 0.250000
O O11 0.964173 0.110877 0.449113
O O12 0.477053 0.849553 0.124325
O O13 0.250000 0.750000 0.000000
#
# Coordination Sequence:
#
# PCOD9300088 Si02
#       6
#     8   8   8   4   8   8
#     4  11  24  43  71 105 143 190 239 294 368 437
#     4  11  26  47  72 103 145 192 241 304 365 442
#     4  11  25  45  70 109 140 189 242 297 372 438
#     4  10  26  44  68 104 138 190 240 288 374 432
#     4  11  25  44  73 105 145 186 245 297 368 439
#     4  11  24  43  73 102 147 183 239 304 362 434
#
# _framework density 25.270159
#
# number of rings (size 3 to 8) (size 9 to 14) (size 15 to 20)
#    0.000    1.091    1.818    2.727    7.636    3.636 
#    0.000    0.000    0.000    0.000    0.000    0.000 
#    0.000    0.000    0.000    0.000    0.000    0.000 
#
# Total GULP energy -122784.521874 kJ/mol
# GULP energy per Si atom -5581.114631 kJ/mol
# Density = 2.521264 g / cm^3
# Si number density = 25.270159 Si / 1000 Ang^3
#
#
#
# Elastic Constant Matrix: (Units=GPa)
#
#
# Indices 1 2 3 4 5 6 
#
# 1 96.8408 14.2139 27.2314 0.0000 14.0725 0.0000
# 2 14.2139 145.3261 40.2613 0.0000 16.4412 0.0000
# 3 27.2314 40.2613 134.6754 0.0000 36.9805 0.0000
# 4 0.0000 0.0000 0.0000 35.1344 0.0000 12.1975
# 5 14.0725 16.4412 36.9805 0.0000 44.7777 0.0000
# 6 0.0000 0.0000 0.0000 12.1975 0.0000 24.6937
#
#
#
# Elastic Compliance Matrix: (Units=1/GPa)
#
#
# Indices 1 2 3 4 5 6 
#
# 1 0.011125 -0.000424 -0.001559 0.000000 -0.002053 0.000000
# 2 -0.000424 0.007566 -0.001875 0.000000 -0.001096 0.000000
# 3 -0.001559 -0.001875 0.010317 0.000000 -0.007342 0.000000
# 4 0.000000 0.000000 0.000000 0.034353 0.000000 -0.016969
# 5 -0.002053 -0.001096 -0.007342 0.000000 0.029444 0.000000
# 6 0.000000 0.000000 0.000000 -0.016969 0.000000 0.048878
#
#
# Mechanical properties :
#
#
# Convention : Reuss Voigt Hill
#
# Bulk Modulus (GPa) = 46.96547 60.02838 53.49693
# Shear Modulus (GPa) = 31.94951 40.59687 36.27319
#
# Velocity S-wave (km/s) = 3.55958 4.01248 3.79280
# Velocity P-wave (km/s) = 5.95985 6.72851 6.35581
#
# Compressibility (1/GPa) = 0.02129224
#
# Stress axis : x y z
#
# Youngs Moduli (GPa) = 89.88605 132.16934 96.92611
#
# Poissons Ratio (x) = 0.05603 0.15111
# Poissons Ratio (y) = 0.03811 0.18175
# Poissons Ratio (z) = 0.14013 0.24784
#
# Static dielectric constant tensor:
#      x y z
#    x 2.171510 0.000000 0.097340 
#    y 0.000000 2.035700 0.000000 
#    z 0.097340 0.000000 2.114310 
# 
# From -- ./inp_files/78375.got.cif
#   From: 2010.05.17/outbox.cif.g08.bks.cpg/sg15_40_cif.got.tgz:78375.got - 2010.06.03 18:47:42.
