data_PCOD9300994
_publ_section_title
;
Structure prediction by ZEFSAII (Michael W. Deem and Ramdas Pophale) SiO2 
 PCOD9300994
Probable space group: C 2/C
;
_chemical_formula_sum "Si O2"
_cell_formula_units_Z 52
_cell_length_a 11.301595
_cell_length_b 20.310461
_cell_length_c 14.948854
_cell_angle_alpha 90.000000
_cell_angle_beta 132.940968
_cell_angle_gamma 90.000000
_cell_volume 2511.954178
_symmetry_space_group_name_H-M "C 2/C"
_symmetry_group_IT_number 15
_symmetry_cell_setting 'monoclinic'
loop_
_space_group_symop_operation_xyz
x,y,z
-x,y,1/2-z
-x,-y,-z
x,-y,1/2+z
1/2+x,1/2+y,z
1/2-x,1/2+y,1/2-z
1/2-x,1/2-y,-z
1/2+x,1/2-y,1/2+z
loop_
_atom_site_type_symbol
_atom_site_label
_atom_site_fract_x
_atom_site_fract_y
_atom_site_fract_z
Si Si1 0.057388 0.759131 0.882874
Si Si2 0.997745 0.079264 0.919559
Si Si3 0.110951 0.105752 0.161864
Si Si4 0.000000 0.984585 0.750000
Si Si5 0.258312 0.324187 0.039578
Si Si6 0.928161 0.686004 0.311104
Si Si7 0.256869 0.318745 0.242877
O O1 0.000000 0.760233 0.750000
O O2 0.006514 0.830860 0.892901
O O3 0.932149 0.702975 0.854667
O O4 0.250000 0.750000 0.000000
O O5 0.821102 0.115436 0.824944
O O6 0.120413 0.138472 0.960830
O O7 0.033296 0.031352 0.853048
O O8 0.046784 0.062039 0.046440
O O9 0.118812 0.066590 0.259868
O O10 0.283924 0.135251 0.228753
O O11 0.307669 0.329635 0.166839
O O12 0.250000 0.250000 0.000000
O O13 0.074262 0.347258 0.938522
O O14 0.855283 0.751887 0.319743
O O15 0.000000 0.701440 0.250000
#
# Coordination Sequence:
#
# PCOD9300994 Si02
#       7
#     8   8   8   4   8   8   8
#     4  11  24  42  66 100 141 179 223 282 349 416
#     4  12  22  42  68  98 128 174 228 276 333 392
#     4  11  25  43  68  93 131 183 223 272 332 412
#     4  12  26  46  64  94 138 186 232 260 328 422
#     4  12  19  33  62 101 136 156 209 289 342 395
#     4  11  20  35  62  98 132 163 210 280 350 387
#     4  11  22  34  63 101 130 166 218 278 345 392
#
# _framework density 20.701013
#
# number of rings (size 3 to 8) (size 9 to 14) (size 15 to 20)
#    0.000    0.615    6.923    2.308    4.308    0.000 
#    0.000    0.769    3.385    0.923    0.000    0.000 
#    0.000    0.000    0.000    0.000    0.000    0.000 
#
# Total GULP energy -144830.478228 kJ/mol
# GULP energy per Si atom -5570.403009 kJ/mol
# Density = 2.065390 g / cm^3
# Si number density = 20.701013 Si / 1000 Ang^3
#
#
#
# Elastic Constant Matrix: (Units=GPa)
#
#
# Indices 1 2 3 4 5 6 
#
# 1 102.3860 28.0179 42.0062 0.0001 13.0127 0.0000
# 2 28.0179 36.4470 18.1129 0.0000 10.1845 0.0000
# 3 42.0062 18.1129 97.7573 0.0001 6.9145 0.0001
# 4 0.0001 0.0000 0.0001 7.6784 0.0001 -20.8663
# 5 13.0127 10.1845 6.9145 0.0001 54.0866 0.0000
# 6 0.0000 0.0000 0.0001 -20.8663 0.0000 21.4804
#
#
#
# Elastic Compliance Matrix: (Units=1/GPa)
#
#
# Indices 1 2 3 4 5 6 
#
# 1 0.013976 -0.008209 -0.004396 0.000000 -0.001255 0.000000
# 2 -0.008209 0.036455 -0.002908 0.000000 -0.004518 0.000000
# 3 -0.004396 -0.002908 0.012658 0.000000 -0.000013 0.000000
# 4 0.000000 0.000000 0.000000 -0.079420 0.000000 -0.077149
# 5 -0.001255 -0.004518 -0.000013 0.000000 0.019643 0.000000
# 6 0.000000 0.000000 0.000000 -0.077149 0.000000 -0.028389
#
#
# Mechanical properties :
#
#
# Convention : Reuss Voigt Hill
#
# Bulk Modulus (GPa) = 31.18713 45.87381 38.53047
# Shear Modulus (GPa) = 300.55098 26.54595 163.54846
#
# Velocity S-wave (km/s) = 12.06241 3.58488 8.89812
# Velocity P-wave (km/s) = 14.46031 6.27243 11.14549
#
# Compressibility (1/GPa) = 0.03206451
#
# Stress axis : x y z
#
# Youngs Moduli (GPa) = 71.54988 27.43120 79.00142
#
# Poissons Ratio (x) = 0.22517 0.34728
# Poissons Ratio (y) = 0.58733 0.22971
# Poissons Ratio (z) = 0.31452 0.07976
#
# Static dielectric constant tensor:
#      x y z
#    x 1.771030 0.000000 -0.005830 
#    y 0.000000 1.806590 0.000000 
#    z -0.005830 0.000000 1.866180 
# 
# From -- ./inp_files/147234.got.cif
#   From: 2010.05.17/outbox.cif.g08.bks.cpg/sg15_74_cif.got.tgz:147234.got - 2010.06.03 18:47:42.
