data_PCOD9300906
_publ_section_title
;
Structure prediction by ZEFSAII (Michael W. Deem and Ramdas Pophale) SiO2 
 PCOD9300906
Probable space group: C 2/C
;
_chemical_formula_sum "Si O2"
_cell_formula_units_Z 64
_cell_length_a 26.044633
_cell_length_b 31.480937
_cell_length_c 9.999953
_cell_angle_alpha 90.000000
_cell_angle_beta 152.482725
_cell_angle_gamma 90.000000
_cell_volume 3788.095298
_symmetry_space_group_name_H-M "C 2/C"
_symmetry_group_IT_number 15
_symmetry_cell_setting 'monoclinic'
loop_
_space_group_symop_operation_xyz
x,y,z
-x,y,1/2-z
-x,-y,-z
x,-y,1/2+z
1/2+x,1/2+y,z
1/2-x,1/2+y,1/2-z
1/2-x,1/2-y,-z
1/2+x,1/2-y,1/2+z
loop_
_atom_site_type_symbol
_atom_site_label
_atom_site_fract_x
_atom_site_fract_y
_atom_site_fract_z
Si Si1 0.067944 0.773961 0.785947
Si Si2 0.207188 0.320017 0.193675
Si Si3 0.920779 0.765622 0.184674
Si Si4 0.309572 0.811159 0.849204
Si Si5 0.362613 0.037782 0.291827
Si Si6 0.878213 0.368627 0.249891
Si Si7 0.632162 0.961465 0.387459
Si Si8 0.360775 0.132955 0.212539
O O1 0.000000 0.795259 0.750000
O O2 0.991004 0.762175 0.482789
O O3 0.173745 0.801819 0.986669
O O4 0.118808 0.731350 0.968192
O O5 0.156387 0.351799 0.185178
O O6 0.128146 0.279439 0.980507
O O7 0.214982 0.344622 0.072169
O O8 0.000000 0.782121 0.250000
O O9 0.815788 0.796000 0.965600
O O10 0.353572 0.840690 0.832469
O O11 0.322420 0.836985 0.015240
O O12 0.327887 0.034199 0.366949
O O13 0.497649 0.036860 0.593161
O O14 0.328820 0.084242 0.163043
O O15 0.327110 0.999432 0.113593
O O16 0.844511 0.416321 0.129271
O O17 0.011583 0.365843 0.542460
#
# Coordination Sequence:
#
# PCOD9300906 Si02
#       8
#     8   8   8   8   8   8   8   8
#     4  11  22  37  54  72 103 138 175 222 262 300
#     4  11  23  34  51  78 102 138 180 214 257 306
#     4  11  22  37  52  74 103 138 175 220 267 299
#     4  11  21  34  55  74 100 138 180 215 253 311
#     4   9  18  31  48  72 104 140 170 201 248 307
#     4  11  20  33  51  76 109 140 172 213 251 305
#     4   9  18  31  48  72 104 141 169 199 252 305
#     4  11  20  33  51  76 107 140 176 210 250 304
#
# _framework density 16.895033999999999
#
# number of rings (size 3 to 8) (size 9 to 14) (size 15 to 20)
#    0.000    1.500    1.250    6.000    1.750    4.000 
#    0.000    0.000    0.000    0.000    0.000    0.000 
#    0.000   20.000    0.000    0.000    0.000    0.000 
#
# Total GULP energy -178656.378320 kJ/mol
# GULP energy per Si atom -5583.011823 kJ/mol
# Density = 1.685658 g / cm^3
# Si number density = 16.895034 Si / 1000 Ang^3
#
#
#
# Elastic Constant Matrix: (Units=GPa)
#
#
# Indices 1 2 3 4 5 6 
#
# 1 45.3584 1.3797 12.2163 0.0000 -1.5548 0.0000
# 2 1.3797 70.0525 7.7068 0.0000 7.3233 0.0000
# 3 12.2163 7.7068 65.3672 0.0000 1.8556 0.0000
# 4 0.0000 0.0000 0.0000 33.7437 0.0000 -17.7880
# 5 -1.5548 7.3233 1.8556 0.0000 22.9267 0.0000
# 6 0.0000 0.0000 0.0000 -17.7880 0.0000 31.1982
#
#
#
# Elastic Compliance Matrix: (Units=1/GPa)
#
#
# Indices 1 2 3 4 5 6 
#
# 1 0.023303 -0.000185 -0.004390 0.000000 0.001995 0.000000
# 2 -0.000185 0.014941 -0.001595 0.000000 -0.004656 0.000000
# 3 -0.004390 -0.001595 0.016338 0.000000 -0.001111 0.000000
# 4 0.000000 0.000000 0.000000 0.042370 0.000000 0.024158
# 5 0.001995 -0.004656 -0.001111 0.000000 0.045330 0.000000
# 6 0.000000 0.000000 0.000000 0.024158 0.000000 0.045827
#
#
# Mechanical properties :
#
#
# Convention : Reuss Voigt Hill
#
# Bulk Modulus (GPa) = 23.67234 24.82040 24.24637
# Shear Modulus (GPa) = 23.30697 28.20541 25.75619
#
# Velocity S-wave (km/s) = 3.71821 4.09032 3.90870
# Velocity P-wave (km/s) = 5.69871 6.08527 5.89516
#
# Compressibility (1/GPa) = 0.04224339
#
# Stress axis : x y z
#
# Youngs Moduli (GPa) = 42.91302 66.93076 61.20639
#
# Poissons Ratio (x) = 0.01235 0.26869
# Poissons Ratio (y) = 0.00792 0.09762
# Poissons Ratio (z) = 0.18838 0.10675
#
# Static dielectric constant tensor:
#      x y z
#    x 1.609260 0.000000 -0.074080 
#    y 0.000000 1.565480 0.000000 
#    z -0.074080 0.000000 1.739550 
# 
# From -- ./inp_files/52838.got.cif
#   From: 2010.05.17/outbox.cif.g08.bks.cpg/sg15_27_cif.got.tgz:52838.got - 2010.06.03 18:47:42.
