data_PCOD9300178
_publ_section_title
;
Structure prediction by ZEFSAII (Michael W. Deem and Ramdas Pophale) SiO2 
 PCOD9300178
Probable space group: C 2/C
;
_chemical_formula_sum "Si O2"
_cell_formula_units_Z 52
_cell_length_a 10.483654
_cell_length_b 27.624073
_cell_length_c 9.121719
_cell_angle_alpha 90.000000
_cell_angle_beta 119.681465
_cell_angle_gamma 90.000000
_cell_volume 2295.053263
_symmetry_space_group_name_H-M "C 2/C"
_symmetry_group_IT_number 15
_symmetry_cell_setting 'monoclinic'
loop_
_space_group_symop_operation_xyz
x,y,z
-x,y,1/2-z
-x,-y,-z
x,-y,1/2+z
1/2+x,1/2+y,z
1/2-x,1/2+y,1/2-z
1/2-x,1/2-y,-z
1/2+x,1/2-y,1/2+z
loop_
_atom_site_type_symbol
_atom_site_label
_atom_site_fract_x
_atom_site_fract_y
_atom_site_fract_z
Si Si1 0.000000 0.935979 0.250000
Si Si2 0.919996 0.383781 0.453026
Si Si3 0.716068 0.964499 0.930838
Si Si4 0.199544 0.445296 0.583028
Si Si5 0.107024 0.782782 0.949737
Si Si6 0.095453 0.723773 0.447334
Si Si7 0.174466 0.109618 0.587625
O O1 0.129385 0.966512 0.395982
O O2 0.060255 0.903868 0.150147
O O3 0.857163 0.415204 0.552622
O O4 0.888477 0.327400 0.461079
O O5 0.830017 0.398347 0.257212
O O6 0.087095 0.400338 0.533049
O O7 0.732573 0.963171 0.766188
O O8 0.631563 0.010278 0.950921
O O9 0.330113 0.424711 0.556395
O O10 0.000000 0.786258 0.750000
O O11 0.250000 0.750000 0.000000
O O12 0.156631 0.835640 0.027575
O O13 0.006687 0.758808 0.016457
O O14 0.250000 0.750000 0.500000
O O15 0.000000 0.712426 0.250000
#
# Coordination Sequence:
#
# PCOD9300178 Si02
#       7
#     4   8   8   8   8   8   8
#     4  10  26  46  68 100 144 184 252 300 360 442
#     4  11  24  46  70 106 145 184 241 301 365 437
#     4  11  25  43  72 103 143 190 239 298 368 435
#     4  12  25  44  72 104 143 189 241 304 371 441
#     4  12  27  47  72 110 152 197 249 310 376 444
#     4  12  26  45  76 106 144 195 247 302 366 441
#     4  11  26  44  72 100 143 190 238 305 367 433
#
# _framework density 22.657427999999999
#
# number of rings (size 3 to 8) (size 9 to 14) (size 15 to 20)
#    0.000    0.615    0.000    7.846    7.538    3.692 
#    0.000    0.000    0.000    0.000    0.000    0.000 
#    0.000    0.000    0.000    0.000    0.000    0.000 
#
# Total GULP energy -145567.128252 kJ/mol
# GULP energy per Si atom -5598.735702 kJ/mol
# Density = 2.260586 g / cm^3
# Si number density = 22.657428 Si / 1000 Ang^3
#
#
#
# Elastic Constant Matrix: (Units=GPa)
#
#
# Indices 1 2 3 4 5 6 
#
# 1 118.5029 31.2631 42.5397 0.0000 -11.6805 0.0000
# 2 31.2631 123.7620 23.7627 0.0000 -11.7935 0.0000
# 3 42.5397 23.7627 131.4971 0.0000 -23.0883 0.0000
# 4 0.0000 0.0000 0.0000 -42.9107 0.0000 75.0121
# 5 -11.6805 -11.7935 -23.0883 0.0000 44.6163 0.0000
# 6 0.0000 0.0000 0.0000 75.0121 0.0000 -45.5811
#
#
#
# Elastic Compliance Matrix: (Units=1/GPa)
#
#
# Indices 1 2 3 4 5 6 
#
# 1 0.010009 -0.001932 -0.002770 0.000000 0.000676 0.000000
# 2 -0.001932 0.008845 -0.000717 0.000000 0.001461 0.000000
# 3 -0.002770 -0.000717 0.009316 0.000000 0.003906 0.000000
# 4 0.000000 0.000000 0.000000 0.012417 0.000000 0.020434
# 5 0.000676 0.001461 0.003906 0.000000 0.024998 0.000000
# 6 0.000000 0.000000 0.000000 0.020434 0.000000 0.011689
#
#
# Mechanical properties :
#
#
# Convention : Reuss Voigt Hill
#
# Bulk Modulus (GPa) = 57.69494 63.21035 60.45264
# Shear Modulus (GPa) = 53.25338 9.63801 31.44570
#
# Velocity S-wave (km/s) = 4.85332 2.06471 3.72946
# Velocity P-wave (km/s) = 7.54491 5.80025 6.72936
#
# Compressibility (1/GPa) = 0.01733254
#
# Stress axis : x y z
#
# Youngs Moduli (GPa) = 99.90582 113.05875 107.33879
#
# Poissons Ratio (x) = 0.21844 0.29735
# Poissons Ratio (y) = 0.19303 0.07693
# Poissons Ratio (z) = 0.27676 0.08103
#
# Static dielectric constant tensor:
#      x y z
#    x 1.952650 0.000000 -0.089850 
#    y 0.000000 1.821450 0.000000 
#    z -0.089850 0.000000 1.919940 
# 
# From -- ./inp_files/34438.got.cif
#   From: 2010.05.17/outbox.cif.g08.bks.cpg/sg15_18_cif.got.tgz:34438.got - 2010.06.03 18:47:42.
