data_PCOD9300858
_publ_section_title
;
Structure prediction by ZEFSAII (Michael W. Deem and Ramdas Pophale) SiO2 
 PCOD9300858
Probable space group: C 2/C
;
_chemical_formula_sum "Si O2"
_cell_formula_units_Z 64
_cell_length_a 15.066771
_cell_length_b 18.807428
_cell_length_c 29.354317
_cell_angle_alpha 90.000000
_cell_angle_beta 159.792690
_cell_angle_gamma 90.000000
_cell_volume 2873.203955
_symmetry_space_group_name_H-M "C 2/C"
_symmetry_group_IT_number 15
_symmetry_cell_setting 'monoclinic'
loop_
_space_group_symop_operation_xyz
x,y,z
-x,y,1/2-z
-x,-y,-z
x,-y,1/2+z
1/2+x,1/2+y,z
1/2-x,1/2+y,1/2-z
1/2-x,1/2-y,-z
1/2+x,1/2-y,1/2+z
loop_
_atom_site_type_symbol
_atom_site_label
_atom_site_fract_x
_atom_site_fract_y
_atom_site_fract_z
Si Si1 0.878723 0.066637 0.277611
Si Si2 0.006333 0.922099 0.440430
Si Si3 0.556630 0.080469 0.040769
Si Si4 0.472527 0.995165 0.821274
Si Si5 0.442529 0.401547 0.140857
Si Si6 0.291459 0.303866 0.405808
Si Si7 0.799314 0.359145 0.037284
Si Si8 0.418503 0.814715 0.405133
O O1 0.797500 0.091111 0.189044
O O2 0.626381 0.057189 0.187356
O O3 0.049558 0.119751 0.388892
O O4 0.987585 0.986207 0.323541
O O5 0.908082 0.860559 0.426533
O O6 0.276152 0.961868 0.581342
O O7 0.047209 0.890281 0.408909
O O8 0.776966 0.981031 0.327800
O O9 0.316741 0.107124 0.955403
O O10 0.575183 0.120057 0.002262
O O11 0.500000 0.000000 0.000000
O O12 0.547152 0.066761 0.884164
O O13 0.641551 0.348216 0.261590
O O14 0.247818 0.339348 0.433742
O O15 0.509927 0.245772 0.524063
O O16 0.000000 0.280492 0.250000
O O17 0.960890 0.301831 0.086500
#
# Coordination Sequence:
#
# PCOD9300858 Si02
#       8
#     8   8   8   8   8   8   8   8
#     4  11  21  38  68 111 140 168 222 292 377 417
#     4  11  23  45  74 106 143 179 234 297 365 435
#     4  12  23  39  72 105 140 182 230 298 364 426
#     4  11  19  41  72 108 139 173 222 296 367 416
#     4  11  21  42  69  99 144 176 220 296 366 413
#     4  12  28  49  68  96 137 201 245 281 344 436
#     4  12  23  44  70 100 138 179 233 305 355 419
#     4  12  26  43  65 100 139 185 238 289 342 427
#
# _framework density 22.274785999999999
#
# number of rings (size 3 to 8) (size 9 to 14) (size 15 to 20)
#    0.000    0.500    8.750    1.500    1.750    1.500 
#    2.250    3.125    0.000    0.000    0.000    0.000 
#    0.000    0.000    0.000    0.000    0.000    0.000 
#
# Total GULP energy -178651.974955 kJ/mol
# GULP energy per Si atom -5582.874217 kJ/mol
# Density = 2.222409 g / cm^3
# Si number density = 22.274786 Si / 1000 Ang^3
#
#
#
# Elastic Constant Matrix: (Units=GPa)
#
#
# Indices 1 2 3 4 5 6 
#
# 1 125.9676 30.7802 45.0257 0.0046 -9.5144 -0.0007
# 2 30.7802 50.7848 29.7485 0.0014 0.9090 0.0022
# 3 45.0257 29.7485 98.6297 0.0086 3.5900 0.0107
# 4 0.0046 0.0014 0.0086 6.7706 0.0054 -7.5978
# 5 -9.5144 0.9090 3.5900 0.0054 14.7735 -0.0064
# 6 -0.0007 0.0022 0.0107 -7.5978 -0.0064 32.4685
#
#
#
# Elastic Compliance Matrix: (Units=1/GPa)
#
#
# Indices 1 2 3 4 5 6 
#
# 1 0.011117 -0.004538 -0.004013 -0.000006 0.008414 0.000002
# 2 -0.004538 0.025770 -0.005586 0.000009 -0.003151 0.000001
# 3 -0.004013 -0.005586 0.013860 -0.000021 -0.005608 -0.000010
# 4 -0.000006 0.000009 -0.000021 0.200295 -0.000052 0.046870
# 5 0.008414 -0.003151 -0.005608 -0.000052 0.074665 0.000005
# 6 0.000002 0.000001 -0.000010 0.046870 0.000005 0.041767
#
#
# Mechanical properties :
#
#
# Convention : Reuss Voigt Hill
#
# Bulk Modulus (GPa) = 44.49783 54.05456 49.27620
# Shear Modulus (GPa) = 12.39960 22.12435 17.26197
#
# Velocity S-wave (km/s) = 2.36193 3.15500 2.78682
# Velocity P-wave (km/s) = 5.24008 6.13122 5.70308
#
# Compressibility (1/GPa) = 0.02247300
#
# Stress axis : x y z
#
# Youngs Moduli (GPa) = 89.95046 38.80449 72.15093
#
# Poissons Ratio (x) = 0.17610 0.28951
# Poissons Ratio (y) = 0.40821 0.40306
# Poissons Ratio (z) = 0.36094 0.21678
#
# Static dielectric constant tensor:
#      x y z
#    x 1.791710 0.000000 -0.001380 
#    y 0.000000 1.856350 -0.000010 
#    z -0.001380 -0.000010 1.896930 
# 
# From -- ./inp_files/314549.got.cif
#   From: 2010.05.17/outbox.cif.g08.bks.cpg/sg15_158_cif.got.tgz:314549.got - 2010.06.03 18:47:42.
