data_PCOD9300733
_publ_section_title
;
Structure prediction by ZEFSAII (Michael W. Deem and Ramdas Pophale) SiO2 
 PCOD9300733
Probable space group: C 2/C
;
_chemical_formula_sum "Si O2"
_cell_formula_units_Z 48
_cell_length_a 26.768068
_cell_length_b 12.496625
_cell_length_c 14.828462
_cell_angle_alpha 90.000000
_cell_angle_beta 31.090321
_cell_angle_gamma 90.000000
_cell_volume 2561.430518
_symmetry_space_group_name_H-M "C 2/C"
_symmetry_group_IT_number 15
_symmetry_cell_setting 'monoclinic'
loop_
_space_group_symop_operation_xyz
x,y,z
-x,y,1/2-z
-x,-y,-z
x,-y,1/2+z
1/2+x,1/2+y,z
1/2-x,1/2+y,1/2-z
1/2-x,1/2-y,-z
1/2+x,1/2-y,1/2+z
loop_
_atom_site_type_symbol
_atom_site_label
_atom_site_fract_x
_atom_site_fract_y
_atom_site_fract_z
Si Si1 0.747202 0.147265 0.440915
Si Si2 0.897231 0.760003 0.961214
Si Si3 0.742224 0.083031 0.019630
Si Si4 0.940500 0.901398 0.550255
Si Si5 0.881409 0.763963 0.201266
Si Si6 0.113146 0.992804 0.051413
O O1 0.750000 0.250000 0.500000
O O2 0.680788 0.179128 0.459176
O O3 0.859588 0.130098 0.245769
O O4 0.710733 0.034930 0.537743
O O5 0.000000 0.745190 0.750000
O O6 0.863870 0.881573 0.991334
O O7 0.900222 0.751416 0.065213
O O8 0.798479 0.147474 0.853259
O O9 0.820948 0.064017 0.976874
O O10 0.657748 0.157073 0.190498
O O11 0.882499 0.937858 0.552155
O O12 0.018515 0.808914 0.412759
O O13 0.000000 0.000000 0.500000
O O14 0.000000 0.985908 0.250000
#
# Coordination Sequence:
#
# PCOD9300733 Si02
#       6
#     8   8   8   8   8   8
#     4  12  23  40  66  95 126 171 222 267 325 394
#     4  11  23  40  65  95 129 172 221 271 324 388
#     4  11  23  41  64  96 134 172 215 274 336 386
#     4  12  21  39  67  98 127 170 225 268 317 390
#     4  11  23  40  65  96 133 168 213 280 328 383
#     4  11  19  36  65  96 123 166 223 266 312 385
#
# _framework density 18.739528
#
# number of rings (size 3 to 8) (size 9 to 14) (size 15 to 20)
#    0.000    0.667    6.667    2.000    0.000    0.000 
#    0.000    3.333    7.333    0.000    0.000    0.000 
#    0.000    0.000    0.000    0.000    0.000    0.000 
#
# Total GULP energy -134046.440065 kJ/mol
# GULP energy per Si atom -5585.268336 kJ/mol
# Density = 1.869688 g / cm^3
# Si number density = 18.739528 Si / 1000 Ang^3
#
#
#
# Elastic Constant Matrix: (Units=GPa)
#
#
# Indices 1 2 3 4 5 6 
#
# 1 93.9980 41.6325 26.6819 0.0000 4.2116 0.0000
# 2 41.6325 139.2128 63.2867 0.0000 0.0053 0.0000
# 3 26.6819 63.2867 114.9386 0.0000 8.9884 0.0000
# 4 0.0000 0.0000 0.0000 34.9541 0.0000 -1.5971
# 5 4.2116 0.0053 8.9884 0.0000 32.9144 0.0000
# 6 0.0000 0.0000 0.0000 -1.5971 0.0000 37.0993
#
#
#
# Elastic Compliance Matrix: (Units=1/GPa)
#
#
# Indices 1 2 3 4 5 6 
#
# 1 0.012424 -0.003270 -0.000980 0.000000 -0.001321 0.000000
# 2 -0.003270 0.010512 -0.005172 0.000000 0.001829 0.000000
# 3 -0.000980 -0.005172 0.012023 0.000000 -0.003157 0.000000
# 4 0.000000 0.000000 0.000000 0.028665 0.000000 0.001234
# 5 -0.001321 0.001829 -0.003157 0.000000 0.031413 0.000000
# 6 0.000000 0.000000 0.000000 0.001234 0.000000 0.027008
#
#
# Mechanical properties :
#
#
# Convention : Reuss Voigt Hill
#
# Bulk Modulus (GPa) = 62.05649 67.92798 64.99223
# Shear Modulus (GPa) = 34.18534 35.43012 34.80773
#
# Velocity S-wave (km/s) = 4.27574 4.35289 4.31449
# Velocity P-wave (km/s) = 7.58704 7.84798 7.71861
#
# Compressibility (1/GPa) = 0.01611435
#
# Stress axis : x y z
#
# Youngs Moduli (GPa) = 80.48774 95.12624 83.17616
#
# Poissons Ratio (x) = 0.31104 0.08155
# Poissons Ratio (y) = 0.26318 0.43021
# Poissons Ratio (z) = 0.07891 0.49201
#
# Static dielectric constant tensor:
#      x y z
#    x 1.675320 0.000000 0.053650 
#    y 0.000000 1.650930 0.000000 
#    z 0.053650 0.000000 1.686970 
# 
# From -- ./inp_files/152172.got.cif
#   From: 2010.05.17/outbox.cif.g08.bks.cpg/sg15_77_cif.got.tgz:152172.got - 2010.06.03 18:47:42.
