data_PCOD9300253
_publ_section_title
;
Structure prediction by ZEFSAII (Michael W. Deem and Ramdas Pophale) SiO2 
 PCOD9300253
Probable space group: C 2/C
;
_chemical_formula_sum "Si O2"
_cell_formula_units_Z 52
_cell_length_a 9.071005
_cell_length_b 12.194850
_cell_length_c 27.169009
_cell_angle_alpha 90.000000
_cell_angle_beta 128.461999
_cell_angle_gamma 90.000000
_cell_volume 2353.309242
_symmetry_space_group_name_H-M "C 2/C"
_symmetry_group_IT_number 15
_symmetry_cell_setting 'monoclinic'
loop_
_space_group_symop_operation_xyz
x,y,z
-x,y,1/2-z
-x,-y,-z
x,-y,1/2+z
1/2+x,1/2+y,z
1/2-x,1/2+y,1/2-z
1/2-x,1/2-y,-z
1/2+x,1/2-y,1/2+z
loop_
_atom_site_type_symbol
_atom_site_label
_atom_site_fract_x
_atom_site_fract_y
_atom_site_fract_z
Si Si1 0.775932 0.964263 0.895428
Si Si2 0.147392 0.233538 0.825450
Si Si3 0.253354 0.384495 0.653602
Si Si4 0.325255 0.129124 0.026185
Si Si5 0.000000 0.697091 0.750000
Si Si6 0.382903 0.073077 0.813345
Si Si7 0.896636 0.052930 0.604862
O O1 0.706826 0.854870 0.852623
O O2 0.801744 0.923109 0.956669
O O3 0.601118 0.045980 0.863021
O O4 0.939236 0.021226 0.898664
O O5 0.319863 0.162639 0.839868
O O6 0.075961 0.164239 0.857738
O O7 0.000000 0.235425 0.750000
O O8 0.367606 0.276295 0.690342
O O9 0.365711 0.456248 0.637349
O O10 0.041176 0.368503 0.589227
O O11 0.230022 0.462265 0.697186
O O12 0.250000 0.250000 0.000000
O O13 0.288274 0.066082 0.967651
O O14 0.865994 0.622033 0.755704
#
# Coordination Sequence:
#
# PCOD9300253 Si02
#       7
#     8   8   8   8   4   8   8
#     4  11  25  45  71 106 136 188 239 290 360 419
#     4  11  26  43  67 102 145 185 236 290 354 421
#     4  10  26  47  69 103 140 188 234 291 360 421
#     4  11  23  46  73 102 141 186 238 297 354 414
#     4  12  26  44  72 102 142 180 238 288 352 422
#     4  10  27  40  66 101 138 180 228 286 348 417
#     4  11  24  47  72  98 141 189 233 297 354 423
#
# _framework density 22.096544000000002
#
# number of rings (size 3 to 8) (size 9 to 14) (size 15 to 20)
#    0.000    1.231    1.538    1.846   14.000    0.000 
#    0.000    0.769    0.000    0.000    0.000    0.000 
#    0.000    0.000    0.000    0.000    0.000    0.000 
#
# Total GULP energy -145475.593482 kJ/mol
# GULP energy per Si atom -5595.215134 kJ/mol
# Density = 2.204625 g / cm^3
# Si number density = 22.096544 Si / 1000 Ang^3
#
#
#
# Elastic Constant Matrix: (Units=GPa)
#
#
# Indices 1 2 3 4 5 6 
#
# 1 64.0190 4.7969 2.6784 0.0000 8.6208 0.0000
# 2 4.7969 75.7525 37.5375 0.0000 6.2153 0.0000
# 3 2.6784 37.5375 96.4721 0.0000 -0.5944 0.0000
# 4 0.0000 0.0000 0.0000 43.1706 0.0000 -7.9406
# 5 8.6208 6.2153 -0.5944 0.0000 29.2672 0.0000
# 6 0.0000 0.0000 0.0000 -7.9406 0.0000 28.8674
#
#
#
# Elastic Compliance Matrix: (Units=1/GPa)
#
#
# Indices 1 2 3 4 5 6 
#
# 1 0.016303 -0.000506 -0.000285 0.000000 -0.004701 0.000000
# 2 -0.000506 0.016759 -0.006529 0.000000 -0.003543 0.000000
# 3 -0.000285 -0.006529 0.012925 0.000000 0.001733 0.000000
# 4 0.000000 0.000000 0.000000 0.024398 0.000000 0.006711
# 5 -0.004701 -0.003543 0.001733 0.000000 0.036340 0.000000
# 6 0.000000 0.000000 0.000000 0.006711 0.000000 0.036487
#
#
# Mechanical properties :
#
#
# Convention : Reuss Voigt Hill
#
# Bulk Modulus (GPa) = 31.89967 36.25214 34.07590
# Shear Modulus (GPa) = 29.70893 33.00976 31.35935
#
# Velocity S-wave (km/s) = 3.67073 3.86928 3.77131
# Velocity P-wave (km/s) = 5.69504 6.03354 5.86673
#
# Compressibility (1/GPa) = 0.03134829
#
# Stress axis : x y z
#
# Youngs Moduli (GPa) = 61.33789 59.67053 77.37187
#
# Poissons Ratio (x) = 0.03017 0.02204
# Poissons Ratio (y) = 0.03101 0.50513
# Poissons Ratio (z) = 0.01747 0.38957
#
# Static dielectric constant tensor:
#      x y z
#    x 1.786820 0.000000 -0.025310 
#    y 0.000000 1.796450 0.000000 
#    z -0.025310 0.000000 1.824720 
# 
# From -- ./inp_files/288127.got.cif
#   From: 2010.05.17/outbox.cif.g08.bks.cpg/sg15_145_cif.got.tgz:288127.got - 2010.06.03 18:47:42.
