data_PCOD9300966
_publ_section_title
;
Structure prediction by ZEFSAII (Michael W. Deem and Ramdas Pophale) SiO2 
 PCOD9300966
Probable space group: C 2/C
;
_chemical_formula_sum "Si O2"
_cell_formula_units_Z 48
_cell_length_a 16.792272
_cell_length_b 30.780966
_cell_length_c 8.994432
_cell_angle_alpha 90.000000
_cell_angle_beta 149.346840
_cell_angle_gamma 90.000000
_cell_volume 2370.277478
_symmetry_space_group_name_H-M "C 2/C"
_symmetry_group_IT_number 15
_symmetry_cell_setting 'monoclinic'
loop_
_space_group_symop_operation_xyz
x,y,z
-x,y,1/2-z
-x,-y,-z
x,-y,1/2+z
1/2+x,1/2+y,z
1/2-x,1/2+y,1/2-z
1/2-x,1/2-y,-z
1/2+x,1/2-y,1/2+z
loop_
_atom_site_type_symbol
_atom_site_label
_atom_site_fract_x
_atom_site_fract_y
_atom_site_fract_z
Si Si1 0.542417 0.212935 0.073229
Si Si2 0.342335 0.526280 0.746347
Si Si3 0.758249 0.211918 0.719495
Si Si4 0.463270 0.884327 0.942184
Si Si5 0.245908 0.114727 0.795104
Si Si6 0.138173 0.473835 0.639688
O O1 0.651182 0.212976 0.397254
O O2 0.612132 0.251135 0.085744
O O3 0.553358 0.164461 0.024256
O O4 0.365843 0.219325 0.847540
O O5 0.361395 0.572972 0.855863
O O6 0.202598 0.500682 0.605126
O O7 0.284197 0.530518 0.485263
O O8 0.500000 0.500000 0.000000
O O9 0.824083 0.162863 0.831306
O O10 0.353569 0.885862 0.617634
O O11 0.416818 0.924386 0.970137
O O12 0.636594 0.890951 0.154466
O O13 0.000000 0.500000 0.500000
#
# Coordination Sequence:
#
# PCOD9300966 Si02
#       6
#     8   8   8   8   8   8
#     4   8  13  22  36  58  87 117 152 193 240 292
#     4  11  22  35  50  76 108 134 165 215 261 295
#     4   8  13  22  37  57  85 120 153 190 239 296
#     4   8  14  26  45  65  87 124 169 202 234 292
#     4   8  14  27  44  62  91 129 161 194 249 302
#     4  11  20  35  56  74  98 138 178 207 243 304
#
# _framework density 20.250795
#
# number of rings (size 3 to 8) (size 9 to 14) (size 15 to 20)
#    0.000    3.000    1.667    3.000    0.000    0.000 
#    3.000    0.000    0.000    0.000    0.000    0.000 
#    0.000    8.000    0.000    0.000    0.000    0.000 
#
# Total GULP energy -133837.897345 kJ/mol
# GULP energy per Si atom -5576.579056 kJ/mol
# Density = 2.020470 g / cm^3
# Si number density = 20.250795 Si / 1000 Ang^3
#
#
#
# Elastic Constant Matrix: (Units=GPa)
#
#
# Indices 1 2 3 4 5 6 
#
# 1 44.8996 48.2797 19.8955 0.0000 9.5430 0.0000
# 2 48.2797 204.5003 45.2043 0.0000 35.5376 0.0000
# 3 19.8955 45.2043 50.7593 0.0000 9.8946 0.0000
# 4 0.0000 0.0000 0.0000 26.3566 0.0000 17.7401
# 5 9.5430 35.5376 9.8946 0.0000 26.6400 0.0000
# 6 0.0000 0.0000 0.0000 17.7401 0.0000 26.3000
#
#
#
# Elastic Compliance Matrix: (Units=1/GPa)
#
#
# Indices 1 2 3 4 5 6 
#
# 1 0.031856 -0.005752 -0.007153 0.000000 -0.001082 0.000000
# 2 -0.005752 0.008427 -0.003731 0.000000 -0.007796 0.000000
# 3 -0.007153 -0.003731 0.026259 0.000000 -0.002213 0.000000
# 4 0.000000 0.000000 0.000000 0.069491 0.000000 -0.046874
# 5 -0.001082 -0.007796 -0.002213 0.000000 0.049147 0.000000
# 6 0.000000 0.000000 0.000000 -0.046874 0.000000 0.069640
#
#
# Mechanical properties :
#
#
# Convention : Reuss Voigt Hill
#
# Bulk Modulus (GPa) = 30.05650 58.54647 44.30149
# Shear Modulus (GPa) = 16.71223 28.31130 22.51177
#
# Velocity S-wave (km/s) = 2.87586 3.74309 3.33776
# Velocity P-wave (km/s) = 5.08938 6.90322 6.06449
#
# Compressibility (1/GPa) = 0.03327067
#
# Stress axis : x y z
#
# Youngs Moduli (GPa) = 31.39121 118.66175 38.08260
#
# Poissons Ratio (x) = 0.68249 0.27241
# Poissons Ratio (y) = 0.18055 0.14209
# Poissons Ratio (z) = 0.22455 0.44273
#
# Static dielectric constant tensor:
#      x y z
#    x 1.744460 0.000000 -0.073490 
#    y 0.000000 1.738140 0.000000 
#    z -0.073490 0.000000 1.759750 
# 
# From -- ./inp_files/108516.got.cif
#   From: 2010.05.17/outbox.cif.g08.bks.cpg/sg15_55_cif.got.tgz:108516.got - 2010.06.03 18:47:42.
