data_PCOD9300893
_publ_section_title
;
Structure prediction by ZEFSAII (Michael W. Deem and Ramdas Pophale) SiO2 
 PCOD9300893
Probable space group: C 2/C
;
_chemical_formula_sum "Si O2"
_cell_formula_units_Z 64
_cell_length_a 23.102336
_cell_length_b 20.216590
_cell_length_c 8.713551
_cell_angle_alpha 90.000000
_cell_angle_beta 49.889447
_cell_angle_gamma 90.000000
_cell_volume 3112.493248
_symmetry_space_group_name_H-M "C 2/C"
_symmetry_group_IT_number 15
_symmetry_cell_setting 'monoclinic'
loop_
_space_group_symop_operation_xyz
x,y,z
-x,y,1/2-z
-x,-y,-z
x,-y,1/2+z
1/2+x,1/2+y,z
1/2-x,1/2+y,1/2-z
1/2-x,1/2-y,-z
1/2+x,1/2-y,1/2+z
loop_
_atom_site_type_symbol
_atom_site_label
_atom_site_fract_x
_atom_site_fract_y
_atom_site_fract_z
Si Si1 0.759157 0.926106 0.090615
Si Si2 0.078903 0.273885 0.531633
Si Si3 0.682610 0.228802 0.395947
Si Si4 0.077853 0.500646 0.646271
Si Si5 0.732218 0.169056 0.922297
Si Si6 0.898028 0.630042 0.784890
Si Si7 0.163146 0.174470 0.215134
Si Si8 0.685992 0.940488 0.699489
O O1 0.758692 0.887905 0.254140
O O2 0.681359 0.900179 0.142870
O O3 0.751516 0.004766 0.109338
O O4 0.824621 0.899371 0.866414
O O5 0.151438 0.302052 0.501809
O O6 0.073585 0.320248 0.391218
O O7 0.098355 0.200175 0.437552
O O8 0.000000 0.276010 0.750000
O O9 0.705640 0.272353 0.208352
O O10 0.619454 0.171982 0.530272
O O11 0.760054 0.198280 0.331948
O O12 0.659471 0.282625 0.565322
O O13 0.051931 0.564582 0.789373
O O14 0.136847 0.454914 0.631558
O O15 0.126672 0.536951 0.431548
O O16 0.000000 0.463254 0.750000
O O17 0.720472 0.131742 0.105089
#
# Coordination Sequence:
#
# PCOD9300893 Si02
#       8
#     8   8   8   8   8   8   8   8
#     4   8  14  28  43  58  81 110 145 179 212 243
#     4   9  16  24  42  68  90 109 137 173 211 258
#     4   7  11  24  43  59  78 104 140 173 217 254
#     4  11  23  33  42  57  86 123 153 174 201 245
#     4   9  16  26  42  63  85 111 137 175 214 248
#     4   8  16  29  43  59  80 115 145 176 212 246
#     4   7  11  22  41  61  81 107 135 173 216 248
#     4  11  20  32  43  62  83 116 153 181 205 242
#
# _framework density 20.562294000000001
#
# number of rings (size 3 to 8) (size 9 to 14) (size 15 to 20)
#    0.000    3.250    1.250    3.375    1.750    0.500 
#    0.000    0.625    0.000    0.000    0.000    0.000 
#    0.000   10.000    0.000    0.000    0.000    0.000 
#
# Total GULP energy -178194.724918 kJ/mol
# GULP energy per Si atom -5568.585154 kJ/mol
# Density = 2.051549 g / cm^3
# Si number density = 20.562294 Si / 1000 Ang^3
#
#
#
# Elastic Constant Matrix: (Units=GPa)
#
#
# Indices 1 2 3 4 5 6 
#
# 1 10.2574 10.1040 1.0539 0.0000 0.5842 0.0000
# 2 10.1040 65.2960 17.5416 0.0000 -8.5426 0.0000
# 3 1.0539 17.5416 80.0377 0.0000 -2.7057 0.0000
# 4 0.0000 0.0000 0.0000 26.6179 0.0000 5.8399
# 5 0.5842 -8.5426 -2.7057 0.0000 19.0092 0.0000
# 6 0.0000 0.0000 0.0000 5.8399 0.0000 12.5582
#
#
#
# Elastic Compliance Matrix: (Units=1/GPa)
#
#
# Indices 1 2 3 4 5 6 
#
# 1 0.118257 -0.020622 0.002539 0.000000 -0.012540 0.000000
# 2 -0.020622 0.020805 -0.003970 0.000000 0.009418 0.000000
# 3 0.002539 -0.003970 0.013332 0.000000 0.000036 0.000000
# 4 0.000000 0.000000 0.000000 0.041837 0.000000 -0.019455
# 5 -0.012540 0.009418 0.000036 0.000000 0.057229 0.000000
# 6 0.000000 0.000000 0.000000 -0.019455 0.000000 0.088676
#
#
# Mechanical properties :
#
#
# Convention : Reuss Voigt Hill
#
# Bulk Modulus (GPa) = 9.23467 23.66559 16.45013
# Shear Modulus (GPa) = 11.89517 20.09650 15.99584
#
# Velocity S-wave (km/s) = 2.40780 3.12965 2.79215
# Velocity P-wave (km/s) = 3.49726 4.95921 4.29096
#
# Compressibility (1/GPa) = 0.10828756
#
# Stress axis : x y z
#
# Youngs Moduli (GPa) = 8.45612 48.06631 75.00787
#
# Poissons Ratio (x) = 0.99122 -0.19041
# Poissons Ratio (y) = 0.17438 0.29776
# Poissons Ratio (z) = -0.02147 0.19081
#
# Static dielectric constant tensor:
#      x y z
#    x 1.764790 0.000000 0.079560 
#    y 0.000000 1.804580 0.000000 
#    z 0.079560 0.000000 1.840050 
# 
# From -- ./inp_files/57517.got.cif
#   From: 2010.05.17/outbox.cif.g08.bks.cpg/sg15_29_cif.got.tgz:57517.got - 2010.06.03 18:47:42.
