data_PCOD9300723
_publ_section_title
;
Structure prediction by ZEFSAII (Michael W. Deem and Ramdas Pophale) SiO2 
 PCOD9300723
Probable space group: C 2/C
;
_chemical_formula_sum "Si O2"
_cell_formula_units_Z 64
_cell_length_a 25.409111
_cell_length_b 8.600279
_cell_length_c 20.692976
_cell_angle_alpha 90.000000
_cell_angle_beta 35.910502
_cell_angle_gamma 90.000000
_cell_volume 2652.213004
_symmetry_space_group_name_H-M "C 2/C"
_symmetry_group_IT_number 15
_symmetry_cell_setting 'monoclinic'
loop_
_space_group_symop_operation_xyz
x,y,z
-x,y,1/2-z
-x,-y,-z
x,-y,1/2+z
1/2+x,1/2+y,z
1/2-x,1/2+y,1/2-z
1/2-x,1/2-y,-z
1/2+x,1/2-y,1/2+z
loop_
_atom_site_type_symbol
_atom_site_label
_atom_site_fract_x
_atom_site_fract_y
_atom_site_fract_z
Si Si1 0.254045 0.716064 0.667424
Si Si2 0.736718 0.872250 0.571044
Si Si3 0.333101 0.432470 0.654548
Si Si4 0.593791 0.871855 0.231458
Si Si5 0.153606 0.877601 0.226446
Si Si6 0.669951 0.379303 0.589621
Si Si7 0.006542 0.265308 0.544047
Si Si8 0.073973 0.595568 0.508528
O O1 0.290420 0.545834 0.645485
O O2 0.225118 0.787000 0.764723
O O3 0.166798 0.695209 0.710400
O O4 0.331953 0.829634 0.563778
O O5 0.750000 0.750000 0.500000
O O6 0.726214 0.757638 0.641688
O O7 0.643072 0.970350 0.658478
O O8 0.814204 0.001065 0.484690
O O9 0.337814 0.527120 0.716748
O O10 0.429886 0.376652 0.536588
O O11 0.590825 0.741846 0.179239
O O12 0.502672 0.885727 0.361463
O O13 0.060050 0.784745 0.332136
O O14 0.162244 0.000326 0.158455
O O15 0.750000 0.250000 0.500000
O O16 0.069774 0.412209 0.498188
O O17 0.952760 0.318795 0.532638
#
# Coordination Sequence:
#
# PCOD9300723 Si02
#       8
#     8   8   8   8   8   8   8   8
#     4  12  26  38  61  95 134 176 205 257 312 392
#     4   9  20  37  64  99 110 162 219 269 315 374
#     4  12  25  38  57  95 137 171 208 249 313 392
#     4  11  21  42  65  96 126 169 211 262 322 380
#     4  11  19  36  62  92 125 162 212 253 318 369
#     4   9  19  36  63  91 117 152 217 264 314 365
#     4  11  22  39  59  90 135 175 208 255 307 390
#     4  11  23  40  60  93 136 168 213 254 314 387
#
# _framework density 24.130792
#
# number of rings (size 3 to 8) (size 9 to 14) (size 15 to 20)
#    0.000    1.250    5.000    1.125    5.250    0.000 
#    0.000    0.000    0.000    6.750    6.500    0.000 
#    0.000    0.000    0.000    0.000    0.000    0.000 
#
# Total GULP energy -178718.980708 kJ/mol
# GULP energy per Si atom -5584.968147 kJ/mol
# Density = 2.407587 g / cm^3
# Si number density = 24.130792 Si / 1000 Ang^3
#
#
#
# Elastic Constant Matrix: (Units=GPa)
#
#
# Indices 1 2 3 4 5 6 
#
# 1 59.3798 33.3805 42.0646 0.0020 2.4388 -0.0002
# 2 33.3805 141.5283 57.3922 0.0174 11.0437 -0.0093
# 3 42.0646 57.3922 161.1906 0.0032 16.5774 -0.0030
# 4 0.0020 0.0174 0.0032 68.5823 -0.0035 18.5560
# 5 2.4388 11.0437 16.5774 -0.0035 38.6615 0.0018
# 6 -0.0002 -0.0093 -0.0030 18.5560 0.0018 23.8200
#
#
#
# Elastic Compliance Matrix: (Units=1/GPa)
#
#
# Indices 1 2 3 4 5 6 
#
# 1 0.022021 -0.003415 -0.004695 0.000001 0.001600 -0.000003
# 2 -0.003415 0.008837 -0.002111 -0.000004 -0.001404 0.000006
# 3 -0.004695 -0.002111 0.008461 0.000000 -0.002729 0.000000
# 4 0.000001 -0.000004 0.000000 0.018475 0.000003 -0.014392
# 5 0.001600 -0.001404 -0.002729 0.000003 0.027336 -0.000005
# 6 -0.000003 0.000006 0.000000 -0.014392 -0.000005 0.053193
#
#
# Mechanical properties :
#
#
# Convention : Reuss Voigt Hill
#
# Bulk Modulus (GPa) = 52.97386 69.75258 61.36322
# Shear Modulus (GPa) = 30.29268 41.49686 35.89477
#
# Velocity S-wave (km/s) = 3.54694 4.15138 3.86101
# Velocity P-wave (km/s) = 6.22695 7.20746 6.73507
#
# Compressibility (1/GPa) = 0.01887724
#
# Stress axis : x y z
#
# Youngs Moduli (GPa) = 45.41182 113.16581 118.18427
#
# Poissons Ratio (x) = 0.38641 0.55491
# Poissons Ratio (y) = 0.15506 0.24947
# Poissons Ratio (z) = 0.21322 0.23888
#
# Static dielectric constant tensor:
#      x y z
#    x 1.953690 0.000000 0.034430 
#    y 0.000000 1.969470 0.000000 
#    z 0.034430 0.000000 1.945770 
# 
# From -- ./inp_files/284424.got.cif
#   From: 2010.05.17/outbox.cif.g08.bks.cpg/sg15_143_cif.got.tgz:284424.got - 2010.06.03 18:47:42.
