data_PCOD9300570
_publ_section_title
;
Structure prediction by ZEFSAII (Michael W. Deem and Ramdas Pophale) SiO2 
 PCOD9300570
Probable space group: C 2/C
;
_chemical_formula_sum "Si O2"
_cell_formula_units_Z 48
_cell_length_a 8.738599
_cell_length_b 27.637123
_cell_length_c 10.541117
_cell_angle_alpha 90.000000
_cell_angle_beta 62.263070
_cell_angle_gamma 90.000000
_cell_volume 2253.256270
_symmetry_space_group_name_H-M "C 2/C"
_symmetry_group_IT_number 15
_symmetry_cell_setting 'monoclinic'
loop_
_space_group_symop_operation_xyz
x,y,z
-x,y,1/2-z
-x,-y,-z
x,-y,1/2+z
1/2+x,1/2+y,z
1/2-x,1/2+y,1/2-z
1/2-x,1/2-y,-z
1/2+x,1/2-y,1/2+z
loop_
_atom_site_type_symbol
_atom_site_label
_atom_site_fract_x
_atom_site_fract_y
_atom_site_fract_z
Si Si1 0.973491 0.359330 0.561749
Si Si2 0.955667 0.742373 0.413191
Si Si3 0.734144 0.610036 0.349559
Si Si4 0.639216 0.078171 0.788226
Si Si5 0.112487 0.009616 0.329011
Si Si6 0.929802 0.849583 0.131014
O O1 0.786863 0.365399 0.697224
O O2 0.997479 0.303272 0.517845
O O3 0.123702 0.370998 0.606521
O O4 0.019147 0.399559 0.442684
O O5 0.750000 0.750000 0.500000
O O6 0.000000 0.729359 0.250000
O O7 0.053976 0.792487 0.401982
O O8 0.738075 0.553127 0.321029
O O9 0.554073 0.623812 0.483353
O O10 0.500000 0.054780 0.750000
O O11 0.784695 0.038063 0.756475
O O12 0.744755 0.124847 0.696326
O O13 0.000000 0.025255 0.250000
O O14 0.000000 0.000000 0.500000
O O15 0.000000 0.855947 0.250000
#
# Coordination Sequence:
#
# PCOD9300570 Si02
#       6
#     8   8   8   8   8   8
#     4  11  22  40  62 104 141 169 225 286 341 400
#     4  11  18  34  66 103 130 176 227 281 333 401
#     4  11  22  38  67  98 136 170 221 289 335 404
#     4  12  27  44  65  95 140 182 226 284 347 410
#     4  12  27  47  73  99 132 183 237 282 355 419
#     4  11  20  40  69  99 136 180 231 284 341 407
#
# _framework density 21.302503999999999
#
# number of rings (size 3 to 8) (size 9 to 14) (size 15 to 20)
#    0.000    0.667    6.667    2.500    4.667    0.667 
#    0.000    0.833    0.000    2.000    0.000    0.000 
#    0.000    0.000    0.000    0.000    0.000    0.000 
#
# Total GULP energy -133945.050265 kJ/mol
# GULP energy per Si atom -5581.043761 kJ/mol
# Density = 2.125402 g / cm^3
# Si number density = 21.302504 Si / 1000 Ang^3
#
#
#
# Elastic Constant Matrix: (Units=GPa)
#
#
# Indices 1 2 3 4 5 6 
#
# 1 30.1001 -2.8748 1.4871 0.0000 -5.8859 0.0000
# 2 -2.8748 127.1104 -1.4639 0.0000 7.8200 0.0000
# 3 1.4871 -1.4639 109.3682 0.0000 -7.6528 0.0000
# 4 0.0000 0.0000 0.0000 26.9966 0.0000 -14.8232
# 5 -5.8859 7.8200 -7.6528 0.0000 12.0818 0.0000
# 6 0.0000 0.0000 0.0000 -14.8232 0.0000 238.1400
#
#
#
# Elastic Compliance Matrix: (Units=1/GPa)
#
#
# Indices 1 2 3 4 5 6 
#
# 1 0.036797 -0.000305 0.000799 0.000000 0.018630 0.000000
# 2 -0.000305 0.008204 -0.000280 0.000000 -0.005636 0.000000
# 3 0.000799 -0.000280 0.009594 0.000000 0.006648 0.000000
# 4 0.000000 0.000000 0.000000 0.038352 0.000000 0.002387
# 5 0.018630 -0.005636 0.006648 0.000000 0.099704 0.000000
# 6 0.000000 0.000000 0.000000 0.002387 0.000000 0.004348
#
#
# Mechanical properties :
#
#
# Convention : Reuss Voigt Hill
#
# Bulk Modulus (GPa) = 18.17431 28.98617 23.58024
# Shear Modulus (GPa) = 23.26537 73.40570 48.33554
#
# Velocity S-wave (km/s) = 3.30834 5.87652 4.76858
# Velocity P-wave (km/s) = 4.81078 7.72536 6.43524
#
# Compressibility (1/GPa) = 0.05502273
#
# Stress axis : x y z
#
# Youngs Moduli (GPa) = 27.17623 121.89480 104.23205
#
# Poissons Ratio (x) = 0.03714 -0.08330
# Poissons Ratio (y) = 0.00828 0.02923
# Poissons Ratio (z) = -0.02172 0.03418
#
# Static dielectric constant tensor:
#      x y z
#    x 1.623670 0.000000 -0.031240 
#    y 0.000000 1.804410 0.000000 
#    z -0.031240 0.000000 1.836490 
# 
# From -- ./inp_files/80517.got.cif
#   From: 2010.05.17/outbox.cif.g08.bks.cpg/sg15_41_cif.got.tgz:80517.got - 2010.06.03 18:47:42.
