data_PCOD9300560
_publ_section_title
;
Structure prediction by ZEFSAII (Michael W. Deem and Ramdas Pophale) SiO2 
 PCOD9300560
Probable space group: C 2/C
;
_chemical_formula_sum "Si O2"
_cell_formula_units_Z 52
_cell_length_a 20.995756
_cell_length_b 18.798102
_cell_length_c 10.299435
_cell_angle_alpha 90.000000
_cell_angle_beta 140.291426
_cell_angle_gamma 90.000000
_cell_volume 2597.049431
_symmetry_space_group_name_H-M "C 2/C"
_symmetry_group_IT_number 15
_symmetry_cell_setting 'monoclinic'
loop_
_space_group_symop_operation_xyz
x,y,z
-x,y,1/2-z
-x,-y,-z
x,-y,1/2+z
1/2+x,1/2+y,z
1/2-x,1/2+y,1/2-z
1/2-x,1/2-y,-z
1/2+x,1/2-y,1/2+z
loop_
_atom_site_type_symbol
_atom_site_label
_atom_site_fract_x
_atom_site_fract_y
_atom_site_fract_z
Si Si1 0.016156 0.202364 0.003069
Si Si2 0.334222 0.494423 0.433016
Si Si3 0.065071 0.677906 0.976860
Si Si4 0.256130 0.690191 0.122318
Si Si5 0.500000 0.041538 0.750000
Si Si6 0.500000 0.609559 0.750000
Si Si7 0.712922 0.024168 0.991529
Si Si8 0.000000 0.879100 0.750000
O O1 0.132480 0.198079 0.151441
O O2 0.007850 0.163798 0.128992
O O3 0.975782 0.281460 0.963086
O O4 0.961501 0.158321 0.806597
O O5 0.411845 0.559415 0.560136
O O6 0.284952 0.491882 0.214729
O O7 0.249232 0.501183 0.408468
O O8 0.401987 0.427444 0.578907
O O9 0.000000 0.702648 0.750000
O O10 0.044040 0.593945 0.932460
O O11 0.176312 0.699409 0.112237
O O12 0.228817 0.610784 0.026013
O O13 0.250000 0.750000 0.000000
O O14 0.401532 0.005869 0.653685
#
# Coordination Sequence:
#
# PCOD9300560 Si02
#       8
#     8   8   8   8   4   4   8   4
#     4  12  19  36  56  84 112 150 179 234 280 342
#     4  11  22  36  53  87 118 152 184 230 277 344
#     4   9  18  31  56  84 100 131 192 238 264 315
#     4  11  18  34  59  82 104 144 193 236 267 321
#     4   8  19  38  59  82 105 147 196 250 262 324
#     4  11  24  34  53  84 127 148 172 225 296 339
#     4  11  21  37  59  81 117 147 190 238 280 327
#     4  11  19  32  58  82 112 149 196 219 268 347
#
# _framework density 20.022722999999999
#
# number of rings (size 3 to 8) (size 9 to 14) (size 15 to 20)
#    0.462    0.923    5.385    0.923    0.000    3.077 
#    0.000    0.769    0.000    0.000    0.000    0.000 
#    0.000    0.000    0.000    0.000    0.000    0.000 
#
# Total GULP energy -144988.137772 kJ/mol
# GULP energy per Si atom -5576.466837 kJ/mol
# Density = 1.997715 g / cm^3
# Si number density = 20.022723 Si / 1000 Ang^3
#
#
#
# Elastic Constant Matrix: (Units=GPa)
#
#
# Indices 1 2 3 4 5 6 
#
# 1 74.8629 -5.2327 10.3228 0.0000 24.3265 0.0000
# 2 -5.2327 14.5857 -3.6392 0.0000 -7.7067 0.0000
# 3 10.3228 -3.6392 36.1596 0.0000 0.3955 0.0000
# 4 0.0000 0.0000 0.0000 2.8005 0.0000 -19.0801
# 5 24.3265 -7.7067 0.3955 0.0000 39.1674 0.0000
# 6 0.0000 0.0000 0.0000 -19.0801 0.0000 39.9581
#
#
#
# Elastic Compliance Matrix: (Units=1/GPa)
#
#
# Indices 1 2 3 4 5 6 
#
# 1 0.017568 -0.000755 -0.004971 0.000000 -0.011010 0.000000
# 2 -0.000755 0.078658 0.007958 0.000000 0.015865 0.000000
# 3 -0.004971 0.007958 0.029828 0.000000 0.004352 0.000000
# 4 0.000000 0.000000 0.000000 -0.158472 0.000000 -0.075671
# 5 -0.011010 0.015865 0.004352 0.000000 0.035447 0.000000
# 6 0.000000 0.000000 0.000000 -0.075671 0.000000 -0.011107
#
#
# Mechanical properties :
#
#
# Convention : Reuss Voigt Hill
#
# Bulk Modulus (GPa) = 7.66175 14.27891 10.97033
# Shear Modulus (GPa) = 161.48355 24.66234 93.07295
#
# Velocity S-wave (km/s) = 8.99029 3.51339 6.82529
# Velocity P-wave (km/s) = 10.56418 4.85854 8.22214
#
# Compressibility (1/GPa) = 0.13051849
#
# Stress axis : x y z
#
# Youngs Moduli (GPa) = 56.92186 12.71332 33.52599
#
# Poissons Ratio (x) = 0.00960 0.16665
# Poissons Ratio (y) = 0.04297 -0.26681
# Poissons Ratio (z) = 0.28295 -0.10118
#
# Static dielectric constant tensor:
#      x y z
#    x 1.704530 0.000000 0.006520 
#    y 0.000000 1.765410 0.000000 
#    z 0.006520 0.000000 1.610110 
# 
# From -- ./inp_files/50742.got.cif
#   From: 2010.05.17/outbox.cif.g08.bks.cpg/sg15_26_cif.got.tgz:50742.got - 2010.06.03 18:47:42.
