data_PCOD9300957
_publ_section_title
;
Structure prediction by ZEFSAII (Michael W. Deem and Ramdas Pophale) SiO2 
 PCOD9300957
Probable space group: C 2/C
;
_chemical_formula_sum "Si O2"
_cell_formula_units_Z 64
_cell_length_a 20.202914
_cell_length_b 12.264711
_cell_length_c 21.404283
_cell_angle_alpha 90.000000
_cell_angle_beta 143.577027
_cell_angle_gamma 90.000000
_cell_volume 3148.976875
_symmetry_space_group_name_H-M "C 2/C"
_symmetry_group_IT_number 15
_symmetry_cell_setting 'monoclinic'
loop_
_space_group_symop_operation_xyz
x,y,z
-x,y,1/2-z
-x,-y,-z
x,-y,1/2+z
1/2+x,1/2+y,z
1/2-x,1/2+y,1/2-z
1/2-x,1/2-y,-z
1/2+x,1/2-y,1/2+z
loop_
_atom_site_type_symbol
_atom_site_label
_atom_site_fract_x
_atom_site_fract_y
_atom_site_fract_z
Si Si1 0.496787 0.681289 0.976145
Si Si2 0.284420 0.209563 0.850216
Si Si3 0.154089 0.627552 0.176442
Si Si4 0.699243 0.521461 0.317377
Si Si5 0.253597 0.386886 0.424683
Si Si6 0.509206 0.531104 0.407897
Si Si7 0.604967 0.099863 0.687460
Si Si8 0.353624 0.148923 0.529937
O O1 0.410216 0.780596 0.911729
O O2 0.467449 0.581814 0.907816
O O3 0.609520 0.736403 0.036821
O O4 0.508854 0.623426 0.052532
O O5 0.201070 0.306372 0.770566
O O6 0.336267 0.165410 0.824014
O O7 0.227109 0.106654 0.838390
O O8 0.250841 0.575128 0.208086
O O9 0.086062 0.523455 0.148175
O O10 0.568214 0.546938 0.211492
O O11 0.770658 0.575428 0.425785
O O12 0.358721 0.469220 0.504756
O O13 0.189176 0.394880 0.310070
O O14 0.311925 0.270851 0.483655
O O15 0.165627 0.392343 0.414099
O O16 0.483374 0.142986 0.611943
#
# Coordination Sequence:
#
# PCOD9300957 Si02
#       8
#     8   8   8   8   8   8   8   8
#     4  11  21  35  58  91 126 156 195 238 311 356
#     4  11  20  34  59  93 120 155 189 241 300 361
#     4  11  21  36  60  92 122 155 190 240 305 366
#     4  11  22  37  59  94 125 154 195 241 306 356
#     4  11  25  41  63  87 116 161 207 245 299 349
#     4  11  22  36  60  92 126 157 193 248 297 365
#     4  11  23  41  62  88 124 158 199 250 298 354
#     4  11  25  42  62  87 118 161 203 250 294 355
#
# _framework density 20.324062000000001
#
# number of rings (size 3 to 8) (size 9 to 14) (size 15 to 20)
#    0.000    1.000    2.500    5.625    5.250    2.500 
#    0.000    0.000    0.000    8.250    0.000    0.000 
#    0.000    0.000    0.000    0.000    0.000    0.000 
#
# Total GULP energy -178757.977235 kJ/mol
# GULP energy per Si atom -5586.186789 kJ/mol
# Density = 2.027780 g / cm^3
# Si number density = 20.324062 Si / 1000 Ang^3
#
#
#
# Elastic Constant Matrix: (Units=GPa)
#
#
# Indices 1 2 3 4 5 6 
#
# 1 46.0373 2.0204 4.5821 0.0000 4.2649 0.0000
# 2 2.0204 82.2058 -2.0114 0.0000 4.6721 0.0000
# 3 4.5821 -2.0114 81.8048 0.0000 16.3942 0.0000
# 4 0.0000 0.0000 0.0000 30.9687 0.0000 5.0516
# 5 4.2649 4.6721 16.3942 0.0000 23.1831 0.0000
# 6 0.0000 0.0000 0.0000 5.0516 0.0000 12.3361
#
#
#
# Elastic Compliance Matrix: (Units=1/GPa)
#
#
# Indices 1 2 3 4 5 6 
#
# 1 0.022125 -0.000350 -0.000520 0.000000 -0.003632 0.000000
# 2 -0.000350 0.012372 0.000944 0.000000 -0.003097 0.000000
# 3 -0.000520 0.000944 0.014326 0.000000 -0.010225 0.000000
# 4 0.000000 0.000000 0.000000 0.034602 0.000000 -0.014169
# 5 -0.003632 -0.003097 -0.010225 0.000000 0.051658 0.000000
# 6 0.000000 0.000000 0.000000 -0.014169 0.000000 0.086865
#
#
# Mechanical properties :
#
#
# Convention : Reuss Voigt Hill
#
# Bulk Modulus (GPa) = 20.41986 24.35890 22.38938
# Shear Modulus (GPa) = 20.99752 26.99471 23.99611
#
# Velocity S-wave (km/s) = 3.21773 3.64842 3.43982
# Velocity P-wave (km/s) = 4.88610 5.45520 5.17848
#
# Compressibility (1/GPa) = 0.04897193
#
# Stress axis : x y z
#
# Youngs Moduli (GPa) = 45.19755 80.82566 69.80417
#
# Poissons Ratio (x) = 0.02829 0.03630
# Poissons Ratio (y) = 0.01582 -0.06593
# Poissons Ratio (z) = 0.02350 -0.07634
#
# Static dielectric constant tensor:
#      x y z
#    x 1.725410 0.000000 0.014470 
#    y 0.000000 1.728700 0.000000 
#    z 0.014470 0.000000 1.764170 
# 
# From -- ./inp_files/281970.got.cif
#   From: 2010.05.17/outbox.cif.g08.bks.cpg/sg15_141_cif.got.tgz:281970.got - 2010.06.03 18:47:42.
