data_PCOD9300328
_publ_section_title
;
Structure prediction by ZEFSAII (Michael W. Deem and Ramdas Pophale) SiO2 
 PCOD9300328
Probable space group: C 2/C
;
_chemical_formula_sum "Si O2"
_cell_formula_units_Z 32
_cell_length_a 15.231622
_cell_length_b 15.202863
_cell_length_c 11.437719
_cell_angle_alpha 90.000000
_cell_angle_beta 27.263343
_cell_angle_gamma 90.000000
_cell_volume 1213.258036
_symmetry_space_group_name_H-M "C 2/C"
_symmetry_group_IT_number 15
_symmetry_cell_setting 'monoclinic'
loop_
_space_group_symop_operation_xyz
x,y,z
-x,y,1/2-z
-x,-y,-z
x,-y,1/2+z
1/2+x,1/2+y,z
1/2-x,1/2+y,1/2-z
1/2-x,1/2-y,-z
1/2+x,1/2-y,1/2+z
loop_
_atom_site_type_symbol
_atom_site_label
_atom_site_fract_x
_atom_site_fract_y
_atom_site_fract_z
Si Si1 0.661206 0.839436 0.784407
Si Si2 0.218268 0.339870 0.107545
Si Si3 0.422228 0.351883 0.102139
Si Si4 0.785974 0.027416 0.948447
O O1 0.662679 0.737775 0.741789
O O2 0.856432 0.854777 0.624966
O O3 0.718309 0.928043 0.032495
O O4 0.477289 0.841184 0.085874
O O5 0.382094 0.348383 0.012612
O O6 0.250000 0.250000 0.000000
O O7 0.160149 0.590610 0.180803
O O8 0.310992 0.433215 0.290433
O O9 0.000000 0.031997 0.750000
#
# Coordination Sequence:
#
# PCOD9300328 Si02
#       4
#     8   8   8   8
#     4  11  24  50  80 113 150 204 258 307 385 454
#     4  12  29  49  77 114 155 200 257 315 381 455
#     4  11  25  49  81 109 153 201 255 318 378 447
#     4  10  26  48  80 113 151 200 260 315 379 456
#
# _framework density 26.375264999999999
#
# number of rings (size 3 to 8) (size 9 to 14) (size 15 to 20)
#    0.000    1.000    2.500    1.500    3.500    8.000 
#    0.000    7.500    0.000    0.000    0.000    0.000 
#    0.000    0.000    0.000    0.000    0.000    0.000 
#
# Total GULP energy -89911.055072 kJ/mol
# GULP energy per Si atom -5619.440942 kJ/mol
# Density = 2.631523 g / cm^3
# Si number density = 26.375265 Si / 1000 Ang^3
#
#
#
# Elastic Constant Matrix: (Units=GPa)
#
#
# Indices 1 2 3 4 5 6 
#
# 1 111.3339 24.3035 35.7727 -0.0024 4.7989 0.0011
# 2 24.3035 218.5625 67.4693 -0.0045 46.9766 0.0037
# 3 35.7727 67.4693 147.7895 -0.0055 6.6466 0.0046
# 4 -0.0024 -0.0045 -0.0055 55.6668 0.0029 21.7551
# 5 4.7989 46.9766 6.6466 0.0029 51.3957 -0.0024
# 6 0.0011 0.0037 0.0046 21.7551 -0.0024 35.3266
#
#
#
# Elastic Compliance Matrix: (Units=1/GPa)
#
#
# Indices 1 2 3 4 5 6 
#
# 1 0.009776 -0.000341 -0.002196 0.000000 -0.000317 0.000000
# 2 -0.000341 0.006680 -0.002710 0.000001 -0.005723 -0.000001
# 3 -0.002196 -0.002710 0.008464 0.000001 0.001587 -0.000001
# 4 0.000000 0.000001 0.000001 0.023658 -0.000003 -0.014569
# 5 -0.000317 -0.005723 0.001587 -0.000003 0.024512 0.000004
# 6 0.000000 -0.000001 -0.000001 -0.014569 0.000004 0.037279
#
#
# Mechanical properties :
#
#
# Convention : Reuss Voigt Hill
#
# Bulk Modulus (GPa) = 69.32125 81.41967 75.37046
# Shear Modulus (GPa) = 39.78649 51.82052 45.80351
#
# Velocity S-wave (km/s) = 3.88813 4.43735 4.17178
# Velocity P-wave (km/s) = 6.81883 7.56241 7.20023
#
# Compressibility (1/GPa) = 0.01442559
#
# Stress axis : x y z
#
# Youngs Moduli (GPa) = 102.29361 149.70490 118.15263
#
# Poissons Ratio (x) = 0.05103 0.25951
# Poissons Ratio (y) = 0.03487 0.32015
# Poissons Ratio (z) = 0.22467 0.40564
#
# Static dielectric constant tensor:
#      x y z
#    x 2.055990 0.000000 -0.016630 
#    y 0.000000 2.029510 0.000000 
#    z -0.016630 0.000000 2.073430 
# 
# From -- ./inp_files/95968.got.cif
#   From: 2010.05.17/outbox.cif.g08.bks.cpg/sg15_48_cif.got.tgz:95968.got - 2010.06.03 18:47:42.
