data_PCOD9300847
_publ_section_title
;
Structure prediction by ZEFSAII (Michael W. Deem and Ramdas Pophale) SiO2 
 PCOD9300847
Probable space group: C 2/C
;
_chemical_formula_sum "Si O2"
_cell_formula_units_Z 52
_cell_length_a 8.874746
_cell_length_b 20.227017
_cell_length_c 21.537426
_cell_angle_alpha 90.000000
_cell_angle_beta 138.875554
_cell_angle_gamma 90.000000
_cell_volume 2542.770915
_symmetry_space_group_name_H-M "C 2/C"
_symmetry_group_IT_number 15
_symmetry_cell_setting 'monoclinic'
loop_
_space_group_symop_operation_xyz
x,y,z
-x,y,1/2-z
-x,-y,-z
x,-y,1/2+z
1/2+x,1/2+y,z
1/2-x,1/2+y,1/2-z
1/2-x,1/2-y,-z
1/2+x,1/2-y,1/2+z
loop_
_atom_site_type_symbol
_atom_site_label
_atom_site_fract_x
_atom_site_fract_y
_atom_site_fract_z
Si Si1 0.129533 0.169242 0.857296
Si Si2 0.000000 0.520759 0.250000
Si Si3 0.500849 0.426113 0.580530
Si Si4 0.853661 0.685141 0.766153
Si Si5 0.820076 0.982976 0.136623
Si Si6 0.467964 0.054102 0.619517
Si Si7 0.486181 0.269114 0.913936
O O1 0.189571 0.093085 0.890934
O O2 0.327515 0.224656 0.911496
O O3 0.000000 0.170246 0.750000
O O4 0.913664 0.184320 0.834258
O O5 0.233257 0.555575 0.342627
O O6 0.934569 0.477463 0.288330
O O7 0.400200 0.462231 0.611805
O O8 0.305997 0.445981 0.470032
O O9 0.513048 0.347347 0.580244
O O10 0.000000 0.676809 0.750000
O O11 0.936379 0.628835 0.842038
O O12 0.900549 0.751771 0.818118
O O13 0.574517 0.986403 0.095057
O O14 0.000000 0.984102 0.250000
O O15 0.750000 0.250000 0.000000
#
# Coordination Sequence:
#
# PCOD9300847 Si02
#       7
#     8   4   8   8   8   8   8
#     4   9  18  37  67  88 119 175 220 256 330 402
#     4  12  26  42  64  94 138 168 212 284 338 406
#     4  12  26  40  68  99 134 172 224 280 346 401
#     4  11  21  38  67  93 126 175 231 265 324 404
#     4  11  19  41  66  96 126 169 223 277 329 396
#     4  12  22  43  69  97 127 175 225 277 336 405
#     4  11  22  42  64  94 131 172 219 277 336 402
#
# _framework density 20.450130999999999
#
# number of rings (size 3 to 8) (size 9 to 14) (size 15 to 20)
#    0.000    0.923    8.462    0.923    3.231    0.615 
#    0.000    0.769    0.000    0.000    0.000    0.000 
#    0.000    0.000    0.000    0.000    0.000    0.000 
#
# Total GULP energy -144761.548965 kJ/mol
# GULP energy per Si atom -5567.751883 kJ/mol
# Density = 2.040359 g / cm^3
# Si number density = 20.450131 Si / 1000 Ang^3
#
#
#
# Elastic Constant Matrix: (Units=GPa)
#
#
# Indices 1 2 3 4 5 6 
#
# 1 88.1996 14.5428 5.4460 -0.0003 27.3776 -0.0002
# 2 14.5428 89.3712 21.1803 -0.0002 13.8732 -0.0001
# 3 5.4460 21.1803 76.7218 -0.0002 32.8824 -0.0002
# 4 -0.0003 -0.0002 -0.0002 23.6551 -0.0002 10.5324
# 5 27.3776 13.8732 32.8824 -0.0002 41.3794 -0.0002
# 6 -0.0002 -0.0001 -0.0002 10.5324 -0.0002 17.2222
#
#
#
# Elastic Compliance Matrix: (Units=1/GPa)
#
#
# Indices 1 2 3 4 5 6 
#
# 1 0.015643 -0.001634 0.005371 0.000000 -0.014070 0.000000
# 2 -0.001634 0.012265 -0.002989 0.000000 -0.000656 0.000000
# 3 0.005371 -0.002989 0.022098 0.000000 -0.020112 0.000000
# 4 0.000000 0.000000 0.000000 0.058092 0.000000 -0.035527
# 5 -0.014070 -0.000656 -0.020112 0.000000 0.049677 0.000000
# 6 0.000000 0.000000 0.000000 -0.035527 0.000000 0.079791
#
#
# Mechanical properties :
#
#
# Convention : Reuss Voigt Hill
#
# Bulk Modulus (GPa) = 19.41681 37.40342 28.41011
# Shear Modulus (GPa) = 19.74419 30.65958 25.20189
#
# Velocity S-wave (km/s) = 3.11059 3.87620 3.51430
# Velocity P-wave (km/s) = 4.73459 6.19379 5.51268
#
# Compressibility (1/GPa) = 0.05150177
#
# Stress axis : x y z
#
# Youngs Moduli (GPa) = 63.92559 81.53029 45.25361
#
# Poissons Ratio (x) = 0.13325 -0.24306
# Poissons Ratio (y) = 0.10447 0.13527
# Poissons Ratio (z) = -0.34335 0.24370
#
# Static dielectric constant tensor:
#      x y z
#    x 1.862550 0.000000 0.050150 
#    y 0.000000 1.795620 0.000000 
#    z 0.050150 0.000000 1.741640 
# 
# From -- ./inp_files/266162.got.cif
#   From: 2010.05.17/outbox.cif.g08.bks.cpg/sg15_134_cif.got.tgz:266162.got - 2010.06.03 18:47:42.
