data_PCOD9300305
_publ_section_title
;
Structure prediction by ZEFSAII (Michael W. Deem and Ramdas Pophale) SiO2 
 PCOD9300305
Probable space group: C 2/C
;
_chemical_formula_sum "Si O2"
_cell_formula_units_Z 36
_cell_length_a 5.628795
_cell_length_b 23.124918
_cell_length_c 11.701740
_cell_angle_alpha 90.000000
_cell_angle_beta 86.220033
_cell_angle_gamma 90.000000
_cell_volume 1519.848417
_symmetry_space_group_name_H-M "C 2/C"
_symmetry_group_IT_number 15
_symmetry_cell_setting 'monoclinic'
loop_
_space_group_symop_operation_xyz
x,y,z
-x,y,1/2-z
-x,-y,-z
x,-y,1/2+z
1/2+x,1/2+y,z
1/2-x,1/2+y,1/2-z
1/2-x,1/2-y,-z
1/2+x,1/2-y,1/2+z
loop_
_atom_site_type_symbol
_atom_site_label
_atom_site_fract_x
_atom_site_fract_y
_atom_site_fract_z
Si Si1 0.000000 0.018093 0.750000
Si Si2 0.346907 0.203284 0.083798
Si Si3 0.500000 0.914127 0.250000
Si Si4 0.000000 0.780008 0.250000
Si Si5 0.045973 0.907687 0.617292
Si Si6 0.267660 0.148540 0.553319
O O1 0.754357 0.052030 0.730050
O O2 0.075981 0.975646 0.642452
O O3 0.310275 0.234887 0.205313
O O4 0.244703 0.138876 0.078017
O O5 0.250000 0.250000 0.000000
O O6 0.619643 0.193204 0.039446
O O7 0.541937 0.876656 0.362632
O O8 0.084137 0.819991 0.143974
O O9 0.850803 0.899080 0.524870
O O10 0.000000 0.888060 0.750000
#
# Coordination Sequence:
#
# PCOD9300305 Si02
#       6
#     4   8   4   4   8   8
#     4  10  29  50  81 114 151 210 261 332 396 450
#     4  12  25  42  73 108 152 203 246 308 389 463
#     4  12  28  51  79 114 153 203 270 332 400 438
#     4  12  25  45  76 114 156 201 255 304 400 464
#     4  10  26  48  74 110 152 199 260 308 386 465
#     4  12  27  47  76 110 156 199 259 325 378 479
#
# _framework density 23.686572999999999
#
# number of rings (size 3 to 8) (size 9 to 14) (size 15 to 20)
#    0.667    0.000    2.222    4.000    9.333    1.778 
#    0.000    0.000    0.000    0.000    0.000    0.000 
#    0.000    0.000    0.000    0.000    0.000    0.000 
#
# Total GULP energy -100294.191666 kJ/mol
# GULP energy per Si atom -5571.899537 kJ/mol
# Density = 2.363266 g / cm^3
# Si number density = 23.686573 Si / 1000 Ang^3
#
#
#
# Elastic Constant Matrix: (Units=GPa)
#
#
# Indices 1 2 3 4 5 6 
#
# 1 88.2752 48.1582 35.1502 0.0000 15.4034 0.0000
# 2 48.1582 97.8397 35.2394 0.0000 4.2249 0.0000
# 3 35.1502 35.2394 138.9011 0.0000 27.0127 0.0000
# 4 0.0000 0.0000 0.0000 35.6327 0.0000 16.3576
# 5 15.4034 4.2249 27.0127 0.0000 48.6800 0.0000
# 6 0.0000 0.0000 0.0000 16.3576 0.0000 47.0839
#
#
#
# Elastic Compliance Matrix: (Units=1/GPa)
#
#
# Indices 1 2 3 4 5 6 
#
# 1 0.016701 -0.007483 -0.001599 0.000000 -0.003748 0.000000
# 2 -0.007483 0.014621 -0.002275 0.000000 0.002361 0.000000
# 3 -0.001599 -0.002275 0.009018 0.000000 -0.004300 0.000000
# 4 0.000000 0.000000 0.000000 0.033389 0.000000 -0.011600
# 5 -0.003748 0.002361 -0.004300 0.000000 0.023910 0.000000
# 6 0.000000 0.000000 0.000000 -0.011600 0.000000 0.025269
#
#
# Mechanical properties :
#
#
# Convention : Reuss Voigt Hill
#
# Bulk Modulus (GPa) = 56.73387 62.45683 59.59535
# Shear Modulus (GPa) = 33.00402 40.04388 36.52395
#
# Velocity S-wave (km/s) = 3.73683 4.11612 3.93105
# Velocity P-wave (km/s) = 6.52859 7.00108 6.76896
#
# Compressibility (1/GPa) = 0.01762616
#
# Stress axis : x y z
#
# Youngs Moduli (GPa) = 59.87632 68.39302 110.89481
#
# Poissons Ratio (x) = 0.51177 0.17734
# Poissons Ratio (y) = 0.44804 0.25229
# Poissons Ratio (z) = 0.09575 0.15560
#
# Static dielectric constant tensor:
#      x y z
#    x 1.964370 0.000000 -0.087570 
#    y 0.000000 1.976100 0.000000 
#    z -0.087570 0.000000 1.839610 
# 
# From -- ./inp_files/72551.got.cif
#   From: 2010.05.17/outbox.cif.g08.bks.cpg/sg15_37_cif.got.tgz:72551.got - 2010.06.03 18:47:42.
