data_PCOD9300635
_publ_section_title
;
Structure prediction by ZEFSAII (Michael W. Deem and Ramdas Pophale) SiO2 
 PCOD9300635
Probable space group: C 2/C
;
_chemical_formula_sum "Si O2"
_cell_formula_units_Z 56
_cell_length_a 21.134874
_cell_length_b 11.554102
_cell_length_c 12.499596
_cell_angle_alpha 90.000000
_cell_angle_beta 116.714054
_cell_angle_gamma 90.000000
_cell_volume 2726.530008
_symmetry_space_group_name_H-M "C 2/C"
_symmetry_group_IT_number 15
_symmetry_cell_setting 'monoclinic'
loop_
_space_group_symop_operation_xyz
x,y,z
-x,y,1/2-z
-x,-y,-z
x,-y,1/2+z
1/2+x,1/2+y,z
1/2-x,1/2+y,1/2-z
1/2-x,1/2-y,-z
1/2+x,1/2-y,1/2+z
loop_
_atom_site_type_symbol
_atom_site_label
_atom_site_fract_x
_atom_site_fract_y
_atom_site_fract_z
Si Si1 0.006070 0.322891 0.545911
Si Si2 0.745904 0.209009 0.119570
Si Si3 0.453401 0.041421 0.624144
Si Si4 0.152373 0.334610 0.154752
Si Si5 0.825984 0.542635 0.165226
Si Si6 0.363156 0.709791 0.789707
Si Si7 0.260984 0.442980 0.088646
O O1 0.050429 0.382017 0.483831
O O2 0.053063 0.217028 0.622775
O O3 0.995656 0.424691 0.624841
O O4 0.926967 0.306245 0.441077
O O5 0.815664 0.242963 0.239104
O O6 0.683442 0.275064 0.137073
O O7 0.743429 0.070730 0.118276
O O8 0.750000 0.250000 0.000000
O O9 0.500000 0.102935 0.750000
O O10 0.378737 0.006778 0.614926
O O11 0.161334 0.454652 0.227748
O O12 0.202997 0.352066 0.090932
O O13 0.846960 0.670511 0.215446
O O14 0.750065 0.548577 0.047907
O O15 0.333399 0.605751 0.694657
#
# Coordination Sequence:
#
# PCOD9300635 Si02
#       7
#     8   8   8   8   8   8   8
#     4  11  21  35  53  93 122 153 196 244 313 359
#     4  11  23  41  60  85 118 161 204 249 299 357
#     4  11  19  30  58  88 124 151 187 255 312 349
#     4  11  22  35  62  90 120 153 200 255 298 361
#     4  12  19  36  60  90 118 155 199 248 306 356
#     4  11  24  37  58  89 123 155 196 250 302 371
#     4  11  23  40  58  87 122 159 202 246 301 356
#
# _framework density 20.538926
#
# number of rings (size 3 to 8) (size 9 to 14) (size 15 to 20)
#    0.000    0.857    7.143    2.143    0.000    0.000 
#    0.000    0.714    0.000    0.000    3.714    0.000 
#    0.000    0.000    0.000    0.000    0.000    0.000 
#
# Total GULP energy -156331.592195 kJ/mol
# GULP energy per Si atom -5583.271150 kJ/mol
# Density = 2.049218 g / cm^3
# Si number density = 20.538926 Si / 1000 Ang^3
#
#
#
# Elastic Constant Matrix: (Units=GPa)
#
#
# Indices 1 2 3 4 5 6 
#
# 1 59.3541 13.2590 34.3298 0.0000 20.7088 0.0000
# 2 13.2590 44.4030 22.8253 0.0000 17.2366 0.0000
# 3 34.3298 22.8253 114.0472 0.0000 39.7312 0.0000
# 4 0.0000 0.0000 0.0000 29.0714 0.0000 10.0120
# 5 20.7088 17.2366 39.7312 0.0000 25.9607 0.0000
# 6 0.0000 0.0000 0.0000 10.0120 0.0000 21.2696
#
#
#
# Elastic Compliance Matrix: (Units=1/GPa)
#
#
# Indices 1 2 3 4 5 6 
#
# 1 0.023419 0.000225 -0.001145 0.000000 -0.017079 0.000000
# 2 0.000225 0.030563 0.002029 0.000000 -0.023578 0.000000
# 3 -0.001145 0.002029 0.018975 0.000000 -0.029474 0.000000
# 4 0.000000 0.000000 0.000000 0.041053 0.000000 -0.019325
# 5 -0.017079 -0.023578 -0.029474 0.000000 0.112905 0.000000
# 6 0.000000 0.000000 0.000000 -0.019325 0.000000 0.056112
#
#
# Mechanical properties :
#
#
# Convention : Reuss Voigt Hill
#
# Bulk Modulus (GPa) = 13.30214 39.84803 26.57509
# Shear Modulus (GPa) = 16.34705 25.08637 20.71671
#
# Velocity S-wave (km/s) = 2.82424 3.49865 3.17938
# Velocity P-wave (km/s) = 4.13832 5.98031 5.14246
#
# Compressibility (1/GPa) = 0.07517586
#
# Stress axis : x y z
#
# Youngs Moduli (GPa) = 42.70124 32.71910 52.70210
#
# Poissons Ratio (x) = -0.00737 0.06032
# Poissons Ratio (y) = -0.00962 -0.10694
# Poissons Ratio (z) = 0.04888 -0.06639
#
# Static dielectric constant tensor:
#      x y z
#    x 1.780170 0.000000 0.013930 
#    y 0.000000 1.728180 0.000000 
#    z 0.013930 0.000000 1.833180 
# 
# From -- ./inp_files/111669.got.cif
#   From: 2010.05.17/outbox.cif.g08.bks.cpg/sg15_56_cif.got.tgz:111669.got - 2010.06.03 18:47:42.
