data_PCOD9300063
_publ_section_title
;
Structure prediction by ZEFSAII (Michael W. Deem and Ramdas Pophale) SiO2 
 PCOD9300063
Probable space group: C 2/C
;
_chemical_formula_sum "Si O2"
_cell_formula_units_Z 44
_cell_length_a 11.191246
_cell_length_b 9.018193
_cell_length_c 24.769865
_cell_angle_alpha 90.000000
_cell_angle_beta 55.154130
_cell_angle_gamma 90.000000
_cell_volume 2051.643176
_symmetry_space_group_name_H-M "C 2/C"
_symmetry_group_IT_number 15
_symmetry_cell_setting 'monoclinic'
loop_
_space_group_symop_operation_xyz
x,y,z
-x,y,1/2-z
-x,-y,-z
x,-y,1/2+z
1/2+x,1/2+y,z
1/2-x,1/2+y,1/2-z
1/2-x,1/2-y,-z
1/2+x,1/2-y,1/2+z
loop_
_atom_site_type_symbol
_atom_site_label
_atom_site_fract_x
_atom_site_fract_y
_atom_site_fract_z
Si Si1 0.237546 0.877984 0.431925
Si Si2 0.835942 0.765881 0.795868
Si Si3 0.204114 0.846838 0.868659
Si Si4 0.471365 0.131262 0.964477
Si Si5 0.500000 0.271211 0.250000
Si Si6 0.297686 0.484429 0.235377
O O1 0.297292 0.784370 0.365506
O O2 0.362403 0.910436 0.443797
O O3 0.111212 0.774326 0.488650
O O4 0.185391 0.033045 0.420402
O O5 0.819905 0.623067 0.761438
O O6 0.000000 0.820138 0.750000
O O7 0.743014 0.900473 0.794597
O O8 0.374446 0.821326 0.812071
O O9 0.123633 0.694744 0.902938
O O10 0.141184 0.916904 0.829657
O O11 0.500000 0.000000 0.000000
O O12 0.416294 0.374886 0.229342
#
# Coordination Sequence:
#
# PCOD9300063 Si02
#       6
#     8   8   8   8   4   8
#     4  10  26  43  69  98 133 177 230 275 339 399
#     4  11  23  39  66  95 135 173 215 274 333 400
#     4  11  26  45  67 100 141 173 226 278 341 406
#     4  11  26  46  71  97 131 183 233 282 336 397
#     4  12  26  38  68 106 134 178 218 274 344 404
#     4  11  24  39  65  99 138 169 220 272 342 401
#
# _framework density 21.446224000000001
#
# number of rings (size 3 to 8) (size 9 to 14) (size 15 to 20)
#    0.000    1.091    2.727    1.636    7.636    5.091 
#    0.000    0.000    0.000    0.000    0.000    0.000 
#    0.000    0.000    0.000    0.000    0.000    0.000 
#
# Total GULP energy -122969.479085 kJ/mol
# GULP energy per Si atom -5589.521777 kJ/mol
# Density = 2.139741 g / cm^3
# Si number density = 21.446224 Si / 1000 Ang^3
#
#
#
# Elastic Constant Matrix: (Units=GPa)
#
#
# Indices 1 2 3 4 5 6 
#
# 1 88.3066 42.2523 40.9026 0.0000 21.0008 0.0000
# 2 42.2523 104.5635 29.8373 0.0000 18.9040 0.0000
# 3 40.9026 29.8373 51.8367 0.0000 15.4191 0.0000
# 4 0.0000 0.0000 0.0000 52.5261 0.0000 12.8563
# 5 21.0008 18.9040 15.4191 0.0000 40.9227 0.0000
# 6 0.0000 0.0000 0.0000 12.8563 0.0000 37.9707
#
#
#
# Elastic Compliance Matrix: (Units=1/GPa)
#
#
# Indices 1 2 3 4 5 6 
#
# 1 0.019702 -0.003788 -0.012252 0.000000 -0.003745 0.000000
# 2 -0.003788 0.012546 -0.003476 0.000000 -0.002542 0.000000
# 3 -0.012252 -0.003476 0.032224 0.000000 -0.004248 0.000000
# 4 0.000000 0.000000 0.000000 0.020758 0.000000 -0.007028
# 5 -0.003745 -0.002542 -0.004248 0.000000 0.029133 0.000000
# 6 0.000000 0.000000 0.000000 -0.007028 0.000000 0.028716
#
#
# Mechanical properties :
#
#
# Convention : Reuss Voigt Hill
#
# Bulk Modulus (GPa) = 39.31036 52.29904 45.80470
# Shear Modulus (GPa) = 26.23419 35.06488 30.64953
#
# Velocity S-wave (km/s) = 3.50130 4.04792 3.78449
# Velocity P-wave (km/s) = 5.89194 6.80342 6.36402
#
# Compressibility (1/GPa) = 0.02543859
#
# Stress axis : x y z
#
# Youngs Moduli (GPa) = 50.75548 79.70829 31.03319
#
# Poissons Ratio (x) = 0.30195 0.38022
# Poissons Ratio (y) = 0.19227 0.10788
# Poissons Ratio (z) = 0.62186 0.27708
#
# Static dielectric constant tensor:
#      x y z
#    x 1.768810 0.000000 -0.004090 
#    y 0.000000 1.775850 0.000000 
#    z -0.004090 0.000000 1.793040 
# 
# From -- ./inp_files/236057.got.cif
#   From: 2010.05.17/outbox.cif.g08.bks.cpg/sg15_119_cif.got.tgz:236057.got - 2010.06.03 18:47:42.
