data_PCOD9300269
_publ_section_title
;
Structure prediction by ZEFSAII (Michael W. Deem and Ramdas Pophale) SiO2 
 PCOD9300269
Probable space group: C 2/C
;
_chemical_formula_sum "Si O2"
_cell_formula_units_Z 40
_cell_length_a 22.387957
_cell_length_b 5.398281
_cell_length_c 13.720771
_cell_angle_alpha 90.000000
_cell_angle_beta 70.783846
_cell_angle_gamma 90.000000
_cell_volume 1565.852752
_symmetry_space_group_name_H-M "C 2/C"
_symmetry_group_IT_number 15
_symmetry_cell_setting 'monoclinic'
loop_
_space_group_symop_operation_xyz
x,y,z
-x,y,1/2-z
-x,-y,-z
x,-y,1/2+z
1/2+x,1/2+y,z
1/2-x,1/2+y,1/2-z
1/2-x,1/2-y,-z
1/2+x,1/2-y,1/2+z
loop_
_atom_site_type_symbol
_atom_site_label
_atom_site_fract_x
_atom_site_fract_y
_atom_site_fract_z
Si Si1 0.072957 0.652738 0.575077
Si Si2 0.614613 0.517656 0.229934
Si Si3 0.000000 0.000000 0.000000
Si Si4 0.739280 0.239706 0.194523
Si Si5 0.500000 0.775753 0.750000
Si Si6 0.131721 0.252517 0.423232
O O1 0.105033 0.834970 0.635887
O O2 0.117950 0.522745 0.472449
O O3 0.045202 0.436323 0.659816
O O4 0.010623 0.744563 0.552709
O O5 0.669391 0.311590 0.195433
O O6 0.546279 0.391356 0.291392
O O7 0.629995 0.706714 0.307958
O O8 0.924663 0.070195 0.013984
O O9 0.760094 0.497355 0.237215
O O10 0.796013 0.185925 0.088071
#
# Coordination Sequence:
#
# PCOD9300269 Si02
#       6
#     8   8   4   8   4   8
#     4  12  27  45  74 112 149 206 256 335 393 476
#     4  11  26  47  74 111 156 207 266 322 399 474
#     4  12  26  44  68 110 144 192 262 320 388 466
#     4  10  26  47  78 116 159 217 267 328 395 477
#     4  12  26  48  74 112 154 200 264 330 400 474
#     4  11  25  46  76 110 153 203 263 324 393 467
#
# _framework density 25.545186000000001
#
# number of rings (size 3 to 8) (size 9 to 14) (size 15 to 20)
#    0.000    0.800    0.000    6.000   14.000    2.400 
#    0.000    4.000    0.000    0.000    0.000    0.000 
#    0.000    0.000    0.000    0.000    0.000    0.000 
#
# Total GULP energy -111501.106962 kJ/mol
# GULP energy per Si atom -5575.055348 kJ/mol
# Density = 2.548704 g / cm^3
# Si number density = 25.545186 Si / 1000 Ang^3
#
#
#
# Elastic Constant Matrix: (Units=GPa)
#
#
# Indices 1 2 3 4 5 6 
#
# 1 167.8684 43.1910 14.9691 0.0000 -23.9673 0.0000
# 2 43.1910 91.2028 15.9373 0.0000 10.7620 0.0000
# 3 14.9691 15.9373 55.4524 0.0000 15.9440 0.0000
# 4 0.0000 0.0000 0.0000 40.2167 0.0000 -0.3559
# 5 -23.9673 10.7620 15.9440 0.0000 45.5702 0.0000
# 6 0.0000 0.0000 0.0000 -0.3559 0.0000 63.7814
#
#
#
# Elastic Compliance Matrix: (Units=1/GPa)
#
#
# Indices 1 2 3 4 5 6 
#
# 1 0.008157 -0.004108 -0.002817 0.000000 0.006246 0.000000
# 2 -0.004108 0.013738 -0.001429 0.000000 -0.004905 0.000000
# 3 -0.002817 -0.001429 0.021719 0.000000 -0.008743 0.000000
# 4 0.000000 0.000000 0.000000 0.024867 0.000000 0.000139
# 5 0.006246 -0.004905 -0.008743 0.000000 0.029446 0.000000
# 6 0.000000 0.000000 0.000000 0.000139 0.000000 0.015679
#
#
# Mechanical properties :
#
#
# Convention : Reuss Voigt Hill
#
# Bulk Modulus (GPa) = 37.16719 51.41315 44.29017
# Shear Modulus (GPa) = 35.89823 45.94209 40.92016
#
# Velocity S-wave (km/s) = 3.75278 4.24543 4.00668
# Velocity P-wave (km/s) = 5.77572 6.64843 6.22738
#
# Compressibility (1/GPa) = 0.02690545
#
# Stress axis : x y z
#
# Youngs Moduli (GPa) = 122.59682 72.78901 46.04353
#
# Poissons Ratio (x) = 0.29898 0.12971
# Poissons Ratio (y) = 0.50357 0.06582
# Poissons Ratio (z) = 0.34538 0.10405
#
# Static dielectric constant tensor:
#      x y z
#    x 2.002690 0.000000 -0.029280 
#    y 0.000000 2.481060 0.000000 
#    z -0.029280 0.000000 1.004550 
# 
# From -- ./inp_files/170520.got.cif
#   From: 2010.05.17/outbox.cif.g08.bks.cpg/sg15_86_cif.got.tgz:170520.got - 2010.06.03 18:47:42.
