data_PCOD9300696
_publ_section_title
;
Structure prediction by ZEFSAII (Michael W. Deem and Ramdas Pophale) SiO2 
 PCOD9300696
Probable space group: C 2/C
;
_chemical_formula_sum "Si O2"
_cell_formula_units_Z 44
_cell_length_a 7.228804
_cell_length_b 26.925946
_cell_length_c 12.403285
_cell_angle_alpha 90.000000
_cell_angle_beta 135.219118
_cell_angle_gamma 90.000000
_cell_volume 1700.559733
_symmetry_space_group_name_H-M "C 2/C"
_symmetry_group_IT_number 15
_symmetry_cell_setting 'monoclinic'
loop_
_space_group_symop_operation_xyz
x,y,z
-x,y,1/2-z
-x,-y,-z
x,-y,1/2+z
1/2+x,1/2+y,z
1/2-x,1/2+y,1/2-z
1/2-x,1/2-y,-z
1/2+x,1/2-y,1/2+z
loop_
_atom_site_type_symbol
_atom_site_label
_atom_site_fract_x
_atom_site_fract_y
_atom_site_fract_z
Si Si1 0.500000 0.071080 0.250000
Si Si2 0.715057 0.017488 0.927746
Si Si3 0.432732 0.612581 0.057467
Si Si4 0.369431 0.284506 0.797604
Si Si5 0.136750 0.865814 0.211926
Si Si6 0.862856 0.697489 0.959998
O O1 0.243346 0.100338 0.176959
O O2 0.419630 0.036573 0.112953
O O3 0.500000 0.035092 0.750000
O O4 0.782756 0.062795 0.036218
O O5 0.000000 0.000000 0.000000
O O6 0.445314 0.667508 0.110875
O O7 0.338374 0.614396 0.894969
O O8 0.500000 0.255929 0.750000
O O9 0.359003 0.249492 0.896404
O O10 0.081498 0.301085 0.640782
O O11 0.000000 0.898803 0.250000
O O12 0.390191 0.843382 0.375093
O O13 0.919611 0.820867 0.112166
#
# Coordination Sequence:
#
# PCOD9300696 Si02
#       6
#     4   8   8   8   8   8
#     4   8  18  34  62  88 112 152 200 244 316 372
#     4   8  17  34  57  91 119 156 202 245 315 373
#     4  11  19  35  64  87 114 158 202 258 295 366
#     4  12  24  36  56  85 123 161 204 241 302 360
#     4   8  21  37  60  87 114 152 205 253 296 344
#     4   9  22  40  53  83 123 156 199 248 296 354
#
# _framework density 25.873833000000001
#
# number of rings (size 3 to 8) (size 9 to 14) (size 15 to 20)
#    1.636    0.727    0.000    2.727    0.000    9.455 
#    0.000    0.909    0.000   12.000    0.000    0.000 
#    0.000    0.000    0.000    0.000    0.000    0.000 
#
# Total GULP energy -122489.167142 kJ/mol
# GULP energy per Si atom -5567.689416 kJ/mol
# Density = 2.581494 g / cm^3
# Si number density = 25.873833 Si / 1000 Ang^3
#
#
#
# Elastic Constant Matrix: (Units=GPa)
#
#
# Indices 1 2 3 4 5 6 
#
# 1 58.4444 18.3613 24.9573 0.0000 6.5025 0.0000
# 2 18.3613 76.5416 21.3251 0.0000 1.6480 0.0000
# 3 24.9573 21.3251 126.6974 0.0000 28.1626 0.0000
# 4 0.0000 0.0000 0.0000 48.9299 0.0000 16.6331
# 5 6.5025 1.6480 28.1626 0.0000 44.8232 0.0000
# 6 0.0000 0.0000 0.0000 16.6331 0.0000 11.2557
#
#
#
# Elastic Compliance Matrix: (Units=1/GPa)
#
#
# Indices 1 2 3 4 5 6 
#
# 1 0.019717 -0.003861 -0.003057 0.000000 -0.000798 0.000000
# 2 -0.003861 0.014510 -0.001962 0.000000 0.001259 0.000000
# 3 -0.003057 -0.001962 0.010125 0.000000 -0.005846 0.000000
# 4 0.000000 0.000000 0.000000 0.041067 0.000000 -0.060686
# 5 -0.000798 0.001259 -0.005846 0.000000 0.026052 0.000000
# 6 0.000000 0.000000 0.000000 -0.060686 0.000000 0.178523
#
#
# Mechanical properties :
#
#
# Convention : Reuss Voigt Hill
#
# Bulk Modulus (GPa) = 37.60342 43.44120 40.52231
# Shear Modulus (GPa) = 15.79192 34.13775 24.96484
#
# Velocity S-wave (km/s) = 2.47319 3.63629 3.10960
# Velocity P-wave (km/s) = 4.76660 5.86994 5.34681
#
# Compressibility (1/GPa) = 0.02659333
#
# Stress axis : x y z
#
# Youngs Moduli (GPa) = 50.71658 68.91593 98.77008
#
# Poissons Ratio (x) = 0.26609 0.30192
# Poissons Ratio (y) = 0.19582 0.19375
# Poissons Ratio (z) = 0.15503 0.13519
#
# Static dielectric constant tensor:
#      x y z
#    x 2.086110 0.000000 -0.005650 
#    y 0.000000 2.162820 0.000000 
#    z -0.005650 0.000000 2.041480 
# 
# From -- ./inp_files/149075.got.cif
#   From: 2010.05.17/outbox.cif.g08.bks.cpg/sg15_75_cif.got.tgz:149075.got - 2010.06.03 18:47:42.
