data_PCOD9300334
_publ_section_title
;
Structure prediction by ZEFSAII (Michael W. Deem and Ramdas Pophale) SiO2 
 PCOD9300334
Probable space group: C 2/C
;
_chemical_formula_sum "Si O2"
_cell_formula_units_Z 32
_cell_length_a 5.020295
_cell_length_b 29.159699
_cell_length_c 8.260923
_cell_angle_alpha 90.000000
_cell_angle_beta 67.862842
_cell_angle_gamma 90.000000
_cell_volume 1120.173305
_symmetry_space_group_name_H-M "C 2/C"
_symmetry_group_IT_number 15
_symmetry_cell_setting 'monoclinic'
loop_
_space_group_symop_operation_xyz
x,y,z
-x,y,1/2-z
-x,-y,-z
x,-y,1/2+z
1/2+x,1/2+y,z
1/2-x,1/2+y,1/2-z
1/2-x,1/2-y,-z
1/2+x,1/2-y,1/2+z
loop_
_atom_site_type_symbol
_atom_site_label
_atom_site_fract_x
_atom_site_fract_y
_atom_site_fract_z
Si Si1 0.033071 0.380807 0.523398
Si Si2 0.000000 0.057047 0.750000
Si Si3 0.500000 0.234923 0.750000
Si Si4 0.274328 0.466382 0.927465
Si Si5 0.958380 0.816505 0.001888
O O1 0.219222 0.410329 0.350718
O O2 0.270665 0.349410 0.552557
O O3 0.837982 0.421998 0.640285
O O4 0.791102 0.345305 0.527164
O O5 0.916443 0.046565 0.565022
O O6 0.774160 0.201974 0.694727
O O7 0.524952 0.269707 0.893028
O O8 0.500000 0.491683 0.750000
O O9 0.000000 0.500000 0.000000
#
# Coordination Sequence:
#
# PCOD9300334 Si02
#       5
#     8   4   4   8   8
#     4  11  22  42  68 103 132 183 229 277 332 415
#     4   8  18  39  66  98 146 180 222 275 338 392
#     4  10  26  49  68 100 134 174 222 295 366 402
#     4   8  17  37  65  96 141 183 227 275 334 397
#     4  11  26  44  72  98 135 175 229 288 347 419
#
# _framework density 28.567008999999999
#
# number of rings (size 3 to 8) (size 9 to 14) (size 15 to 20)
#    0.750    1.500    0.000    1.500    1.750    7.000 
#    0.000   13.750    0.000    0.000    0.000    0.000 
#    0.000    0.000    0.000    0.000    0.000    0.000 
#
# Total GULP energy -89483.154484 kJ/mol
# GULP energy per Si atom -5592.697155 kJ/mol
# Density = 2.850199 g / cm^3
# Si number density = 28.567009 Si / 1000 Ang^3
#
#
#
# Elastic Constant Matrix: (Units=GPa)
#
#
# Indices 1 2 3 4 5 6 
#
# 1 287.1617 98.5426 84.9809 0.0000 -15.9661 0.0000
# 2 98.5426 163.6832 52.8229 0.0000 -1.5415 0.0000
# 3 84.9809 52.8229 113.5014 0.0000 -11.0867 0.0000
# 4 0.0000 0.0000 0.0000 60.0198 0.0000 -9.8254
# 5 -15.9661 -1.5415 -11.0867 0.0000 40.4717 0.0000
# 6 0.0000 0.0000 0.0000 -9.8254 0.0000 59.5736
#
#
#
# Elastic Compliance Matrix: (Units=1/GPa)
#
#
# Indices 1 2 3 4 5 6 
#
# 1 0.005093 -0.002191 -0.002677 0.000000 0.001192 0.000000
# 2 -0.002191 0.008149 -0.002267 0.000000 -0.001175 0.000000
# 3 -0.002677 -0.002267 0.012081 0.000000 0.002167 0.000000
# 4 0.000000 0.000000 0.000000 0.017124 0.000000 0.002824
# 5 0.001192 -0.001175 0.002167 0.000000 0.025728 0.000000
# 6 0.000000 0.000000 0.000000 0.002824 0.000000 0.017252
#
#
# Mechanical properties :
#
#
# Convention : Reuss Voigt Hill
#
# Bulk Modulus (GPa) = 90.46779 115.22658 102.84718
# Shear Modulus (GPa) = 48.36538 53.87966 51.12252
#
# Velocity S-wave (km/s) = 4.11913 4.34761 4.23491
# Velocity P-wave (km/s) = 7.37295 8.10095 7.74551
#
# Compressibility (1/GPa) = 0.01105366
#
# Stress axis : x y z
#
# Youngs Moduli (GPa) = 196.36165 122.71754 82.77195
#
# Poissons Ratio (x) = 0.26885 0.22157
# Poissons Ratio (y) = 0.43020 0.18763
# Poissons Ratio (z) = 0.52564 0.27818
#
# Static dielectric constant tensor:
#      x y z
#    x 2.163050 0.000000 -0.157170 
#    y 0.000000 2.209090 0.000000 
#    z -0.157170 0.000000 2.132550 
# 
# From -- ./inp_files/72870.got.cif
#   From: 2010.05.17/outbox.cif.g08.bks.cpg/sg15_37_cif.got.tgz:72870.got - 2010.06.03 18:47:42.
