data_PCOD9300447
_publ_section_title
;
Structure prediction by ZEFSAII (Michael W. Deem and Ramdas Pophale) SiO2 
 PCOD9300447
Probable space group: C 2/C
;
_chemical_formula_sum "Si O2"
_cell_formula_units_Z 44
_cell_length_a 8.849190
_cell_length_b 16.101023
_cell_length_c 22.821118
_cell_angle_alpha 90.000000
_cell_angle_beta 143.361170
_cell_angle_gamma 90.000000
_cell_volume 1940.439150
_symmetry_space_group_name_H-M "C 2/C"
_symmetry_group_IT_number 15
_symmetry_cell_setting 'monoclinic'
loop_
_space_group_symop_operation_xyz
x,y,z
-x,y,1/2-z
-x,-y,-z
x,-y,1/2+z
1/2+x,1/2+y,z
1/2-x,1/2+y,1/2-z
1/2-x,1/2-y,-z
1/2+x,1/2-y,1/2+z
loop_
_atom_site_type_symbol
_atom_site_label
_atom_site_fract_x
_atom_site_fract_y
_atom_site_fract_z
Si Si1 0.500000 0.980934 0.750000
Si Si2 0.690724 0.891594 0.221408
Si Si3 0.904611 0.141942 0.409159
Si Si4 0.000000 0.737375 0.750000
Si Si5 0.425618 0.079657 0.516347
Si Si6 0.000000 0.778544 0.250000
Si Si7 0.498197 0.762771 0.539260
O O1 0.316398 0.925891 0.652456
O O2 0.316695 0.035464 0.733767
O O3 0.527923 0.820864 0.202386
O O4 0.570801 0.922710 0.123631
O O5 0.947021 0.842307 0.286509
O O6 0.745385 0.218991 0.331112
O O7 0.012612 0.180753 0.502468
O O8 0.131347 0.101375 0.441816
O O9 0.263918 0.781442 0.844102
O O10 0.510396 0.159774 0.506456
O O11 0.500000 0.000000 0.500000
O O12 0.250000 0.750000 0.500000
#
# Coordination Sequence:
#
# PCOD9300447 Si02
#       7
#     4   8   8   4   8   4   8
#     4  10  28  44  78 110 148 196 250 314 384 458
#     4  11  24  47  70 108 146 192 243 318 380 444
#     4  11  24  49  73 105 148 202 251 307 377 452
#     4  11  24  45  77 107 142 196 262 309 372 456
#     4  12  28  48  73 107 156 198 248 315 380 454
#     4  11  22  43  81  99 144 196 252 311 372 450
#     4  12  26  48  77 109 147 203 260 310 380 460
#
# _framework density 22.675280000000001
#
# number of rings (size 3 to 8) (size 9 to 14) (size 15 to 20)
#    0.000    0.727    3.636    2.727    5.091    3.636 
#    0.000    0.000    0.000    0.000    0.000    0.000 
#    0.000    0.000    0.000    0.000    0.000    0.000 
#
# Total GULP energy -122795.888402 kJ/mol
# GULP energy per Si atom -5581.631291 kJ/mol
# Density = 2.262367 g / cm^3
# Si number density = 22.675280 Si / 1000 Ang^3
#
#
#
# Elastic Constant Matrix: (Units=GPa)
#
#
# Indices 1 2 3 4 5 6 
#
# 1 135.1458 48.0692 33.8247 0.0001 14.0513 0.0002
# 2 48.0692 88.2409 25.0260 0.0000 6.5394 0.0002
# 3 33.8247 25.0260 137.3556 -0.0001 11.5717 0.0005
# 4 0.0001 0.0000 -0.0001 49.9601 -0.0001 51.4761
# 5 14.0513 6.5394 11.5717 -0.0001 45.6324 0.0002
# 6 0.0002 0.0002 0.0005 51.4761 0.0002 107.4942
#
#
#
# Elastic Compliance Matrix: (Units=1/GPa)
#
#
# Indices 1 2 3 4 5 6 
#
# 1 0.009614 -0.004712 -0.001345 0.000000 -0.001944 0.000000
# 2 -0.004712 0.014322 -0.001429 0.000000 -0.000239 0.000000
# 3 -0.001345 -0.001429 0.007991 0.000000 -0.001407 0.000000
# 4 0.000000 0.000000 0.000000 0.039511 0.000000 -0.018921
# 5 -0.001944 -0.000239 -0.001407 0.000000 0.022904 0.000000
# 6 0.000000 0.000000 0.000000 -0.018921 0.000000 0.018363
#
#
# Mechanical properties :
#
#
# Convention : Reuss Voigt Hill
#
# Bulk Modulus (GPa) = 58.97982 63.84244 61.41113
# Shear Modulus (GPa) = 37.50119 57.53882 47.52001
#
# Velocity S-wave (km/s) = 4.07115 5.04284 4.58282
# Velocity P-wave (km/s) = 6.94018 7.88182 7.42594
#
# Compressibility (1/GPa) = 0.01695495
#
# Stress axis : x y z
#
# Youngs Moduli (GPa) = 104.01373 69.82103 125.14718
#
# Poissons Ratio (x) = 0.32897 0.16836
# Poissons Ratio (y) = 0.49008 0.17884
# Poissons Ratio (z) = 0.13993 0.09978
#
# Static dielectric constant tensor:
#      x y z
#    x 1.832660 0.000000 0.038760 
#    y 0.000000 1.846100 0.000000 
#    z 0.038760 0.000000 1.945020 
# 
# From -- ./inp_files/265649.got.cif
#   From: 2010.05.17/outbox.cif.g08.bks.cpg/sg15_133_cif.got.tgz:265649.got - 2010.06.03 18:47:42.
