data_PCOD9300038
_publ_section_title
;
Structure prediction by ZEFSAII (Michael W. Deem and Ramdas Pophale) SiO2 
 PCOD9300038
Probable space group: C 2/C
;
_chemical_formula_sum "Si O2"
_cell_formula_units_Z 44
_cell_length_a 14.262426
_cell_length_b 5.116907
_cell_length_c 21.726448
_cell_angle_alpha 90.000000
_cell_angle_beta 92.306592
_cell_angle_gamma 90.000000
_cell_volume 1584.300786
_symmetry_space_group_name_H-M "C 2/C"
_symmetry_group_IT_number 15
_symmetry_cell_setting 'monoclinic'
loop_
_space_group_symop_operation_xyz
x,y,z
-x,y,1/2-z
-x,-y,-z
x,-y,1/2+z
1/2+x,1/2+y,z
1/2-x,1/2+y,1/2-z
1/2-x,1/2-y,-z
1/2+x,1/2-y,1/2+z
loop_
_atom_site_type_symbol
_atom_site_label
_atom_site_fract_x
_atom_site_fract_y
_atom_site_fract_z
Si Si1 0.150059 0.165479 0.523955
Si Si2 0.346306 0.909342 0.733232
Si Si3 0.000000 0.859315 0.750000
Si Si4 0.570914 0.560789 0.854503
Si Si5 0.049891 0.287559 0.982900
Si Si6 0.247818 0.232827 0.646192
O O1 0.250000 0.250000 0.500000
O O2 0.070202 0.398231 0.502704
O O3 0.165058 0.214734 0.596326
O O4 0.144816 0.853342 0.511552
O O5 0.411284 0.157405 0.738326
O O6 0.282947 0.950803 0.670968
O O7 0.411459 0.665241 0.716219
O O8 0.287561 0.865288 0.792041
O O9 0.018346 0.910097 0.673182
O O10 0.553350 0.765441 0.907924
O O11 0.659563 0.384875 0.876023
O O12 0.000000 0.000000 0.000000
#
# Coordination Sequence:
#
# PCOD9300038 Si02
#       6
#     8   8   4   8   8   8
#     4  11  26  49  72 104 148 200 256 317 380 472
#     4  11  24  43  71 109 141 189 241 309 375 446
#     4  10  26  42  70 102 146 192 240 300 380 438
#     4  11  24  47  69 105 151 186 251 312 376 457
#     4  11  28  49  73 109 147 201 259 317 388 459
#     4  11  24  45  72 103 144 190 248 304 382 457
#
# _framework density 27.772507000000001
#
# number of rings (size 3 to 8) (size 9 to 14) (size 15 to 20)
#    0.000    1.091    3.636    0.545    7.636    3.636 
#    0.000    0.000    0.000    0.000    0.000    0.000 
#    0.000    0.000    0.000    0.000    0.000    0.000 
#
# Total GULP energy -122556.322261 kJ/mol
# GULP energy per Si atom -5570.741921 kJ/mol
# Density = 2.770930 g / cm^3
# Si number density = 27.772507 Si / 1000 Ang^3
#
#
#
# Elastic Constant Matrix: (Units=GPa)
#
#
# Indices 1 2 3 4 5 6 
#
# 1 107.6345 41.5416 38.1168 0.0000 -6.5518 0.0000
# 2 41.5416 154.2771 54.9953 0.0000 -0.1140 0.0000
# 3 38.1168 54.9953 137.9113 0.0000 22.8784 0.0000
# 4 0.0000 0.0000 0.0000 41.0079 0.0000 -31.9690
# 5 -6.5518 -0.1140 22.8784 0.0000 58.5971 0.0000
# 6 0.0000 0.0000 0.0000 -31.9690 0.0000 -64.3865
#
#
#
# Elastic Compliance Matrix: (Units=1/GPa)
#
#
# Indices 1 2 3 4 5 6 
#
# 1 0.011160 -0.002062 -0.002639 0.000000 0.002274 0.000000
# 2 -0.002062 0.008027 -0.002775 0.000000 0.000868 0.000000
# 3 -0.002639 -0.002775 0.009770 0.000000 -0.004115 0.000000
# 4 0.000000 0.000000 0.000000 0.017581 0.000000 -0.008729
# 5 0.002274 0.000868 -0.004115 0.000000 0.018928 0.000000
# 6 0.000000 0.000000 0.000000 -0.008729 0.000000 -0.011197
#
#
# Mechanical properties :
#
#
# Convention : Reuss Voigt Hill
#
# Bulk Modulus (GPa) = 71.41253 74.34782 72.88018
# Shear Modulus (GPa) = 67.66869 24.72164 46.19516
#
# Velocity S-wave (km/s) = 4.94148 2.98677 4.08283
# Velocity P-wave (km/s) = 7.63720 6.22277 6.96598
#
# Compressibility (1/GPa) = 0.01400314
#
# Stress axis : x y z
#
# Youngs Moduli (GPa) = 89.60744 124.57881 102.35706
#
# Poissons Ratio (x) = 0.25694 0.27014
# Poissons Ratio (y) = 0.18481 0.28404
# Poissons Ratio (z) = 0.23650 0.34571
#
# Static dielectric constant tensor:
#      x y z
#    x 2.918700 0.000000 0.025590 
#    y 0.000000 2.368630 0.000000 
#    z 0.025590 0.000000 2.246210 
# 
# From -- ./inp_files/246517.got.cif
#   From: 2010.05.17/outbox.cif.g08.bks.cpg/sg15_124_cif.got.tgz:246517.got - 2010.06.03 18:47:42.
