data_PCOD9300741
_publ_section_title
;
Structure prediction by ZEFSAII (Michael W. Deem and Ramdas Pophale) SiO2 
 PCOD9300741
Probable space group: C 2/C
;
_chemical_formula_sum "Si O2"
_cell_formula_units_Z 48
_cell_length_a 20.792008
_cell_length_b 17.797272
_cell_length_c 13.439401
_cell_angle_alpha 90.000000
_cell_angle_beta 154.773758
_cell_angle_gamma 90.000000
_cell_volume 2119.516370
_symmetry_space_group_name_H-M "C 2/C"
_symmetry_group_IT_number 15
_symmetry_cell_setting 'monoclinic'
loop_
_space_group_symop_operation_xyz
x,y,z
-x,y,1/2-z
-x,-y,-z
x,-y,1/2+z
1/2+x,1/2+y,z
1/2-x,1/2+y,1/2-z
1/2-x,1/2-y,-z
1/2+x,1/2-y,1/2+z
loop_
_atom_site_type_symbol
_atom_site_label
_atom_site_fract_x
_atom_site_fract_y
_atom_site_fract_z
Si Si1 0.155221 0.644221 0.895996
Si Si2 0.248338 0.326509 0.745232
Si Si3 0.259039 0.488204 0.836375
Si Si4 0.012771 0.253123 0.031109
Si Si5 0.501469 0.381685 0.647354
Si Si6 0.536248 0.982481 0.691267
O O1 0.122982 0.705870 0.766032
O O2 0.051580 0.572713 0.725926
O O3 0.158380 0.676318 0.012920
O O4 0.321878 0.606963 0.123677
O O5 0.297945 0.411968 0.832654
O O6 0.387294 0.269685 0.923158
O O7 0.134558 0.304293 0.674010
O O8 0.189716 0.463643 0.846579
O O9 0.113353 0.529455 0.583757
O O10 0.397011 0.546046 0.018530
O O11 0.953633 0.174529 0.994345
O O12 0.500000 0.338623 0.750000
O O13 0.500000 0.951006 0.750000
#
# Coordination Sequence:
#
# PCOD9300741 Si02
#       6
#     8   8   8   8   8   8
#     4  11  19  37  59  88 134 166 197 248 327 392
#     4  11  22  37  60  93 130 163 214 249 323 392
#     4  11  24  37  61  92 130 169 216 259 312 391
#     4  11  22  36  62  91 134 175 196 259 335 395
#     4  11  21  35  58  94 129 162 207 259 316 379
#     4  11  21  40  59  85 130 173 208 257 317 382
#
# _framework density 22.646674999999998
#
# number of rings (size 3 to 8) (size 9 to 14) (size 15 to 20)
#    0.000    1.000    5.000    4.500    0.000    2.667 
#    0.000    0.000    0.000    0.000    0.000   10.500 
#    0.000    0.000    0.000    0.000    0.000    0.000 
#
# Total GULP energy -133797.321381 kJ/mol
# GULP energy per Si atom -5574.888391 kJ/mol
# Density = 2.259513 g / cm^3
# Si number density = 22.646675 Si / 1000 Ang^3
#
#
#
# Elastic Constant Matrix: (Units=GPa)
#
#
# Indices 1 2 3 4 5 6 
#
# 1 104.4390 32.2164 28.8967 0.0000 19.2155 0.0000
# 2 32.2164 96.2426 32.4017 0.0000 20.9077 0.0000
# 3 28.8967 32.4017 46.6938 0.0000 28.3447 0.0000
# 4 0.0000 0.0000 0.0000 33.8909 0.0000 7.6254
# 5 19.2155 20.9077 28.3447 0.0000 34.2991 0.0000
# 6 0.0000 0.0000 0.0000 7.6254 0.0000 34.5106
#
#
#
# Elastic Compliance Matrix: (Units=1/GPa)
#
#
# Indices 1 2 3 4 5 6 
#
# 1 0.011845 -0.001936 -0.005368 0.000000 -0.001020 0.000000
# 2 -0.001936 0.013891 -0.007945 0.000000 -0.000817 0.000000
# 3 -0.005368 -0.007945 0.051140 0.000000 -0.034412 0.000000
# 4 0.000000 0.000000 0.000000 0.031050 0.000000 -0.006861
# 5 -0.001020 -0.000817 -0.034412 0.000000 0.058663 0.000000
# 6 0.000000 0.000000 0.000000 -0.006861 0.000000 0.030493
#
#
# Mechanical properties :
#
#
# Convention : Reuss Voigt Hill
#
# Bulk Modulus (GPa) = 21.56165 48.26722 34.91444
# Shear Modulus (GPa) = 20.57287 30.79751 25.68519
#
# Velocity S-wave (km/s) = 3.01728 3.69170 3.37140
# Velocity P-wave (km/s) = 4.65620 6.28737 5.53223
#
# Compressibility (1/GPa) = 0.04637863
#
# Stress axis : x y z
#
# Youngs Moduli (GPa) = 84.42338 71.98990 19.55407
#
# Poissons Ratio (x) = 0.13940 0.10496
# Poissons Ratio (y) = 0.16348 0.15535
# Poissons Ratio (z) = 0.45315 0.57194
#
# Static dielectric constant tensor:
#      x y z
#    x 2.004400 0.000000 0.041770 
#    y 0.000000 1.847060 0.000000 
#    z 0.041770 0.000000 1.902170 
# 
# From -- ./inp_files/173935.got.cif
#   From: 2010.05.17/outbox.cif.g08.bks.cpg/sg15_87_cif.got.tgz:173935.got - 2010.06.03 18:47:42.
