data_PCOD9300898
_publ_section_title
;
Structure prediction by ZEFSAII (Michael W. Deem and Ramdas Pophale) SiO2 
 PCOD9300898
Probable space group: C 2/C
;
_chemical_formula_sum "Si O2"
_cell_formula_units_Z 40
_cell_length_a 26.096144
_cell_length_b 7.616857
_cell_length_c 7.522224
_cell_angle_alpha 90.000000
_cell_angle_beta 84.225406
_cell_angle_gamma 90.000000
_cell_volume 1487.609461
_symmetry_space_group_name_H-M "C 2/C"
_symmetry_group_IT_number 15
_symmetry_cell_setting 'monoclinic'
loop_
_space_group_symop_operation_xyz
x,y,z
-x,y,1/2-z
-x,-y,-z
x,-y,1/2+z
1/2+x,1/2+y,z
1/2-x,1/2+y,1/2-z
1/2-x,1/2-y,-z
1/2+x,1/2-y,1/2+z
loop_
_atom_site_type_symbol
_atom_site_label
_atom_site_fract_x
_atom_site_fract_y
_atom_site_fract_z
Si Si1 0.805869 0.736814 0.714188
Si Si2 0.687489 0.833606 0.692020
Si Si3 0.552002 0.902710 0.332045
Si Si4 0.619065 0.298340 0.544009
Si Si5 0.516434 0.704850 0.921315
O O1 0.745610 0.776543 0.717972
O O2 0.808522 0.544194 0.800451
O O3 0.826657 0.724722 0.504114
O O4 0.837349 0.869994 0.832913
O O5 0.649432 0.764247 0.858751
O O6 0.500000 0.850356 0.250000
O O7 0.596792 0.852905 0.185570
O O8 0.540558 0.775816 0.499058
O O9 0.544416 0.105713 0.375774
O O10 0.564980 0.387738 0.501842
O O11 0.500000 0.604260 0.750000
#
# Coordination Sequence:
#
# PCOD9300898 Si02
#       5
#     8   8   8   8   8
#     4  11  24  39  57  83 112 152 190 240 284 339
#     4  11  24  39  58  82 113 151 192 238 288 332
#     4   8  16  27  40  68 103 141 177 214 263 324
#     4  11  20  32  54  76 109 152 193 221 280 339
#     4   9  17  27  45  73 110 146 182 223 271 334
#
# _framework density 26.888776
#
# number of rings (size 3 to 8) (size 9 to 14) (size 15 to 20)
#    0.000    2.000    2.000    3.000    2.800    0.000 
#    0.000    0.000    0.000    0.000    0.000    0.000 
#    0.000   20.800    0.000    2.000    0.000    0.000 
#
# Total GULP energy -111490.295288 kJ/mol
# GULP energy per Si atom -5574.514764 kJ/mol
# Density = 2.682758 g / cm^3
# Si number density = 26.888776 Si / 1000 Ang^3
#
#
#
# Elastic Constant Matrix: (Units=GPa)
#
#
# Indices 1 2 3 4 5 6 
#
# 1 163.0508 20.9450 72.2756 0.0000 1.3236 0.0000
# 2 20.9450 71.4964 27.4437 0.0000 -10.3169 0.0000
# 3 72.2756 27.4437 152.6212 0.0000 -14.6112 0.0000
# 4 0.0000 0.0000 0.0000 -11.1454 0.0000 -45.7688
# 5 1.3236 -10.3169 -14.6112 0.0000 68.1597 0.0000
# 6 0.0000 0.0000 0.0000 -45.7688 0.0000 -34.4381
#
#
#
# Elastic Compliance Matrix: (Units=1/GPa)
#
#
# Indices 1 2 3 4 5 6 
#
# 1 0.007899 -0.001070 -0.003653 0.000000 -0.001099 0.000000
# 2 -0.001070 0.015371 -0.002075 0.000000 0.001903 0.000000
# 3 -0.003653 -0.002075 0.008813 0.000000 0.001646 0.000000
# 4 0.000000 0.000000 0.000000 0.020128 0.000000 -0.026750
# 5 -0.001099 0.001903 0.001646 0.000000 0.015334 0.000000
# 6 0.000000 0.000000 0.000000 -0.026750 0.000000 0.006514
#
#
# Mechanical properties :
#
#
# Convention : Reuss Voigt Hill
#
# Bulk Modulus (GPa) = 54.09508 69.83299 61.96403
# Shear Modulus (GPa) = 53.29467 22.28218 37.78842
#
# Velocity S-wave (km/s) = 4.45684 2.88180 3.75288
# Velocity P-wave (km/s) = 6.82981 6.09102 6.47097
#
# Compressibility (1/GPa) = 0.01848597
#
# Stress axis : x y z
#
# Youngs Moduli (GPa) = 126.60052 65.05636 113.46920
#
# Poissons Ratio (x) = 0.06962 0.41454
# Poissons Ratio (y) = 0.13549 0.23545
# Poissons Ratio (z) = 0.46251 0.13500
#
# Static dielectric constant tensor:
#      x y z
#    x 2.654280 0.000000 -1.528870 
#    y 0.000000 2.143070 0.000000 
#    z -1.528870 0.000000 7.758450 
# 
# From -- ./inp_files/64749.got.cif
#   From: 2010.05.17/outbox.cif.g08.bks.cpg/sg15_33_cif.got.tgz:64749.got - 2010.06.03 18:47:42.
