data_PCOD9300691
_publ_section_title
;
Structure prediction by ZEFSAII (Michael W. Deem and Ramdas Pophale) SiO2 
 PCOD9300691
Probable space group: C 2/C
;
_chemical_formula_sum "Si O2"
_cell_formula_units_Z 52
_cell_length_a 17.783116
_cell_length_b 22.249953
_cell_length_c 9.163384
_cell_angle_alpha 90.000000
_cell_angle_beta 129.454637
_cell_angle_gamma 90.000000
_cell_volume 2799.510606
_symmetry_space_group_name_H-M "C 2/C"
_symmetry_group_IT_number 15
_symmetry_cell_setting 'monoclinic'
loop_
_space_group_symop_operation_xyz
x,y,z
-x,y,1/2-z
-x,-y,-z
x,-y,1/2+z
1/2+x,1/2+y,z
1/2-x,1/2+y,1/2-z
1/2-x,1/2-y,-z
1/2+x,1/2-y,1/2+z
loop_
_atom_site_type_symbol
_atom_site_label
_atom_site_fract_x
_atom_site_fract_y
_atom_site_fract_z
Si Si1 0.106650 0.687841 0.916919
Si Si2 0.628668 0.702814 0.663194
Si Si3 0.500000 0.758019 0.750000
Si Si4 0.891184 0.905813 0.553422
Si Si5 0.696842 0.362484 0.764756
Si Si6 0.071228 0.968104 0.468628
Si Si7 0.655322 0.226708 0.653159
O O1 0.151680 0.704503 0.814848
O O2 0.000000 0.662290 0.750000
O O3 0.093830 0.749103 0.996178
O O4 0.186249 0.647218 0.099593
O O5 0.575688 0.719916 0.746541
O O6 0.606590 0.635254 0.586417
O O7 0.744930 0.709901 0.804198
O O8 0.435771 0.794491 0.554702
O O9 0.826055 0.874008 0.593842
O O10 0.000000 0.906475 0.750000
O O11 0.863380 0.975011 0.499849
O O12 0.640432 0.415711 0.612587
O O13 0.651438 0.299041 0.660361
O O14 0.000000 0.948269 0.250000
O O15 0.000000 0.000000 0.500000
#
# Coordination Sequence:
#
# PCOD9300691 Si02
#       7
#     8   8   4   8   8   8   8
#     4  11  20  39  68  84 112 159 216 250 292 357
#     4  11  21  37  57  91 116 164 195 245 301 359
#     4  12  24  32  52  84 140 148 192 238 310 368
#     4  11  19  35  60  82 119 155 192 238 291 365
#     4  11  21  38  59  90 117 155 206 250 287 357
#     4  11  23  36  58  88 125 159 192 234 306 363
#     4  11  22  37  60  86 120 161 200 248 303 361
#
# _framework density 18.574674999999999
#
# number of rings (size 3 to 8) (size 9 to 14) (size 15 to 20)
#    0.000    0.923    7.692    2.769    1.077    0.000 
#    0.000    0.000    0.000    0.923    2.000    0.000 
#    0.000    0.000    0.000    0.000    0.000    0.000 
#
# Total GULP energy -145133.691167 kJ/mol
# GULP energy per Si atom -5582.065045 kJ/mol
# Density = 1.853240 g / cm^3
# Si number density = 18.574675 Si / 1000 Ang^3
#
#
#
# Elastic Constant Matrix: (Units=GPa)
#
#
# Indices 1 2 3 4 5 6 
#
# 1 87.9760 20.9537 28.3572 0.0000 -1.4085 0.0000
# 2 20.9537 87.6936 42.5681 0.0000 11.1400 0.0000
# 3 28.3572 42.5681 107.6509 0.0000 5.7852 0.0000
# 4 0.0000 0.0000 0.0000 28.4585 0.0000 3.3989
# 5 -1.4085 11.1400 5.7852 0.0000 31.2405 0.0000
# 6 0.0000 0.0000 0.0000 3.3989 0.0000 10.9672
#
#
#
# Elastic Compliance Matrix: (Units=1/GPa)
#
#
# Indices 1 2 3 4 5 6 
#
# 1 0.012724 -0.001970 -0.002668 0.000000 0.001770 0.000000
# 2 -0.001970 0.014940 -0.005149 0.000000 -0.004463 0.000000
# 3 -0.002668 -0.005149 0.012056 0.000000 -0.000517 0.000000
# 4 0.000000 0.000000 0.000000 0.036489 0.000000 -0.011309
# 5 0.001770 -0.004463 -0.000517 0.000000 0.033777 0.000000
# 6 0.000000 0.000000 0.000000 -0.011309 0.000000 0.094686
#
#
# Mechanical properties :
#
#
# Convention : Reuss Voigt Hill
#
# Bulk Modulus (GPa) = 49.63669 51.89763 50.76716
# Shear Modulus (GPa) = 21.64857 26.89603 24.27230
#
# Velocity S-wave (km/s) = 3.41763 3.80938 3.61881
# Velocity P-wave (km/s) = 6.50802 6.88107 6.69715
#
# Compressibility (1/GPa) = 0.02014639
#
# Stress axis : x y z
#
# Youngs Moduli (GPa) = 78.59006 66.93227 82.94699
#
# Poissons Ratio (x) = 0.13187 0.22129
# Poissons Ratio (y) = 0.15484 0.42710
# Poissons Ratio (z) = 0.20967 0.34464
#
# Static dielectric constant tensor:
#      x y z
#    x 1.700720 0.000000 -0.006160 
#    y 0.000000 1.666380 0.000000 
#    z -0.006160 0.000000 1.695390 
# 
# From -- ./inp_files/50732.got.cif
#   From: 2010.05.17/outbox.cif.g08.bks.cpg/sg15_26_cif.got.tgz:50732.got - 2010.06.03 18:47:42.
