data_PCOD9300730
_publ_section_title
;
Structure prediction by ZEFSAII (Michael W. Deem and Ramdas Pophale) SiO2 
 PCOD9300730
Probable space group: C 2/C
;
_chemical_formula_sum "Si O2"
_cell_formula_units_Z 64
_cell_length_a 13.011450
_cell_length_b 33.116001
_cell_length_c 9.434998
_cell_angle_alpha 90.000000
_cell_angle_beta 126.325641
_cell_angle_gamma 90.000000
_cell_volume 3275.359375
_symmetry_space_group_name_H-M "C 2/C"
_symmetry_group_IT_number 15
_symmetry_cell_setting 'monoclinic'
loop_
_space_group_symop_operation_xyz
x,y,z
-x,y,1/2-z
-x,-y,-z
x,-y,1/2+z
1/2+x,1/2+y,z
1/2-x,1/2+y,1/2-z
1/2-x,1/2-y,-z
1/2+x,1/2-y,1/2+z
loop_
_atom_site_type_symbol
_atom_site_label
_atom_site_fract_x
_atom_site_fract_y
_atom_site_fract_z
Si Si1 0.438128 0.666988 0.350285
Si Si2 0.694372 0.349993 0.201131
Si Si3 0.770817 0.909582 0.764711
Si Si4 0.847395 0.922878 0.142785
Si Si5 0.792064 0.723696 0.397438
Si Si6 0.649362 0.725018 0.820582
Si Si7 0.405621 0.510697 0.292709
Si Si8 0.127405 0.641720 0.929173
O O1 0.500000 0.675130 0.250000
O O2 0.550377 0.664302 0.552935
O O3 0.379732 0.622262 0.308303
O O4 0.328246 0.700363 0.273096
O O5 0.699503 0.394170 0.271228
O O6 0.724360 0.317111 0.346820
O O7 0.767631 0.352004 0.110802
O O8 0.806304 0.954764 0.749213
O O9 0.658655 0.889757 0.580390
O O10 0.774377 0.911524 0.938357
O O11 0.000000 0.915160 0.250000
O O12 0.841762 0.969865 0.181249
O O13 0.750000 0.750000 0.500000
O O14 0.854723 0.752062 0.333417
O O15 0.883108 0.686806 0.516319
O O16 0.500000 0.722024 0.750000
O O17 0.750000 0.750000 0.000000
O O18 0.500000 0.527235 0.250000
O O19 0.500000 0.500000 0.500000
O O20 0.000000 0.628545 0.750000
#
# Coordination Sequence:
#
# PCOD9300730 Si02
#       8
#     8   8   8   8   8   8   8   8
#     4  11  19  36  64  97 116 164 207 269 332 376
#     4  12  23  42  64  92 128 163 217 271 326 404
#     4  11  22  39  62  96 137 164 211 256 329 391
#     4  11  22  35  62 102 136 163 192 264 342 400
#     4  11  23  43  66  91 126 166 221 277 329 394
#     4  12  28  43  62  96 131 176 211 279 346 404
#     4  11  20  34  59 103 141 164 196 259 338 395
#     4  11  27  44  66  90 124 182 231 273 315 388
#
# _framework density 19.539840999999999
#
# number of rings (size 3 to 8) (size 9 to 14) (size 15 to 20)
#    0.000    0.750    7.500    1.500    7.000    1.500 
#    0.000    0.625    0.000    3.000    0.000    0.000 
#    0.000    0.000    0.000    0.000    0.000    0.000 
#
# Total GULP energy -178430.668205 kJ/mol
# GULP energy per Si atom -5575.958381 kJ/mol
# Density = 1.949537 g / cm^3
# Si number density = 19.539841 Si / 1000 Ang^3
#
#
#
# Elastic Constant Matrix: (Units=GPa)
#
#
# Indices 1 2 3 4 5 6 
#
# 1 48.3477 14.7000 16.1424 0.0000 -16.7424 0.0000
# 2 14.7000 97.3052 27.2563 0.0000 -3.7219 0.0000
# 3 16.1424 27.2563 116.7450 0.0000 5.2340 0.0000
# 4 0.0000 0.0000 0.0000 16.8704 0.0000 -20.4808
# 5 -16.7424 -3.7219 5.2340 0.0000 28.9924 0.0000
# 6 0.0000 0.0000 0.0000 -20.4808 0.0000 16.9737
#
#
#
# Elastic Compliance Matrix: (Units=1/GPa)
#
#
# Indices 1 2 3 4 5 6 
#
# 1 0.028728 -0.002528 -0.004145 0.000000 0.017013 0.000000
# 2 -0.002528 0.011322 -0.002312 0.000000 0.000411 0.000000
# 3 -0.004145 -0.002312 0.009879 0.000000 -0.004474 0.000000
# 4 0.000000 0.000000 0.000000 -0.127517 0.000000 -0.153864
# 5 0.017013 0.000411 -0.004474 0.000000 0.045177 0.000000
# 6 0.000000 0.000000 0.000000 -0.153864 0.000000 -0.126741
#
#
# Mechanical properties :
#
#
# Convention : Reuss Voigt Hill
#
# Bulk Modulus (GPa) = 31.29028 42.06614 36.67821
# Shear Modulus (GPa) = -38.30573 26.18726 -6.05923
#
# Velocity S-wave (km/s) = -4.43243 3.66484 -1.76287
# Velocity P-wave (km/s) = 3.18543 6.28357 3.82990
#
# Compressibility (1/GPa) = 0.03195881
#
# Stress axis : x y z
#
# Youngs Moduli (GPa) = 34.80980 88.32144 101.22314
#
# Poissons Ratio (x) = 0.22329 0.41954
# Poissons Ratio (y) = 0.08801 0.23405
# Poissons Ratio (z) = 0.14427 0.20422
#
# Static dielectric constant tensor:
#      x y z
#    x 1.673160 0.000000 -0.010020 
#    y 0.000000 1.698960 0.000000 
#    z -0.010020 0.000000 1.785400 
# 
# From -- ./inp_files/44901.got.cif
#   From: 2010.05.17/outbox.cif.g08.bks.cpg/sg15_23_cif.got.tgz:44901.got - 2010.06.03 18:47:42.
