data_PCOD9300952
_publ_section_title
;
Structure prediction by ZEFSAII (Michael W. Deem and Ramdas Pophale) SiO2 
 PCOD9300952
Probable space group: C 2/C
;
_chemical_formula_sum "Si O2"
_cell_formula_units_Z 56
_cell_length_a 18.734918
_cell_length_b 8.721239
_cell_length_c 14.325317
_cell_angle_alpha 90.000000
_cell_angle_beta 111.588115
_cell_angle_gamma 90.000000
_cell_volume 2176.448733
_symmetry_space_group_name_H-M "C 2/C"
_symmetry_group_IT_number 15
_symmetry_cell_setting 'monoclinic'
loop_
_space_group_symop_operation_xyz
x,y,z
-x,y,1/2-z
-x,-y,-z
x,-y,1/2+z
1/2+x,1/2+y,z
1/2-x,1/2+y,1/2-z
1/2-x,1/2-y,-z
1/2+x,1/2-y,1/2+z
loop_
_atom_site_type_symbol
_atom_site_label
_atom_site_fract_x
_atom_site_fract_y
_atom_site_fract_z
Si Si1 0.241700 0.282517 0.791069
Si Si2 0.391168 0.972384 0.695344
Si Si3 0.052351 0.387058 0.585365
Si Si4 0.889560 0.920346 0.362290
Si Si5 0.622574 0.326583 0.777352
Si Si6 0.167037 0.421614 0.029340
Si Si7 0.303127 0.405373 0.512734
O O1 0.193310 0.425635 0.806039
O O2 0.172840 0.161794 0.737353
O O3 0.290801 0.316741 0.722633
O O4 0.307879 0.215413 0.891059
O O5 0.401892 0.154441 0.710082
O O6 0.446695 0.914611 0.803666
O O7 0.388946 0.908984 0.588132
O O8 0.046902 0.204510 0.576473
O O9 0.133695 0.442533 0.578854
O O10 0.000000 0.500000 0.500000
O O11 0.839732 0.939412 0.431154
O O12 0.918471 0.069219 0.320385
O O13 0.627953 0.402541 0.880279
O O14 0.246315 0.465170 0.019920
O O15 0.250000 0.250000 0.500000
#
# Coordination Sequence:
#
# PCOD9300952 Si02
#       7
#     8   8   8   8   8   8   8
#     4  11  20  34  58  98 140 167 205 276 354 413
#     4  11  23  37  61  92 125 171 220 272 341 400
#     4  11  25  46  62  84 127 182 234 275 330 401
#     4  11  23  37  60  96 133 174 222 275 339 419
#     4  12  20  35  58  93 135 170 211 267 350 419
#     4  12  21  37  63  98 133 172 217 276 346 415
#     4  12  19  33  61  95 139 171 206 272 356 416
#
# _framework density 25.729987999999999
#
# number of rings (size 3 to 8) (size 9 to 14) (size 15 to 20)
#    0.000    0.571    7.143    3.000    0.000    0.571 
#    0.000    0.714    0.000    0.000    0.000    2.000 
#    0.000    0.000    0.000    0.000    0.000    0.000 
#
# Total GULP energy -156415.192112 kJ/mol
# GULP energy per Si atom -5586.256861 kJ/mol
# Density = 2.567143 g / cm^3
# Si number density = 25.729988 Si / 1000 Ang^3
#
#
#
# Elastic Constant Matrix: (Units=GPa)
#
#
# Indices 1 2 3 4 5 6 
#
# 1 35.7001 4.8270 37.1494 0.0000 -1.9080 0.0000
# 2 4.8270 89.7682 48.6426 0.0000 2.9287 0.0000
# 3 37.1494 48.6426 180.3685 0.0000 -31.3915 0.0000
# 4 0.0000 0.0000 0.0000 43.9080 0.0000 4.8078
# 5 -1.9080 2.9287 -31.3915 0.0000 30.4963 0.0000
# 6 0.0000 0.0000 0.0000 4.8078 0.0000 19.8382
#
#
#
# Elastic Compliance Matrix: (Units=1/GPa)
#
#
# Indices 1 2 3 4 5 6 
#
# 1 0.037764 0.003840 -0.010314 0.000000 -0.008623 0.000000
# 2 0.003840 0.014384 -0.005931 0.000000 -0.007246 0.000000
# 3 -0.010314 -0.005931 0.011275 0.000000 0.011530 0.000000
# 4 0.000000 0.000000 0.000000 0.023396 0.000000 -0.005670
# 5 -0.008623 -0.007246 0.011530 0.000000 0.044816 0.000000
# 6 0.000000 0.000000 0.000000 -0.005670 0.000000 0.051782
#
#
# Mechanical properties :
#
#
# Convention : Reuss Voigt Hill
#
# Bulk Modulus (GPa) = 25.89920 54.11943 40.00931
# Shear Modulus (GPa) = 22.61447 33.19636 27.90541
#
# Velocity S-wave (km/s) = 2.96787 3.59581 3.29682
# Velocity P-wave (km/s) = 4.67246 6.19024 5.48411
#
# Compressibility (1/GPa) = 0.03861124
#
# Stress axis : x y z
#
# Youngs Moduli (GPa) = 26.48012 69.52381 88.69367
#
# Poissons Ratio (x) = -0.26695 0.91482
# Poissons Ratio (y) = -0.10168 0.52604
# Poissons Ratio (z) = 0.27312 0.41234
#
# Static dielectric constant tensor:
#      x y z
#    x 2.095840 0.000000 0.106440 
#    y 0.000000 2.124100 0.000000 
#    z 0.106440 0.000000 2.230680 
# 
# From -- ./inp_files/172453.got.cif
#   From: 2010.05.17/outbox.cif.g08.bks.cpg/sg15_87_cif.got.tgz:172453.got - 2010.06.03 18:47:42.
