data_PCOD9300692
_publ_section_title
;
Structure prediction by ZEFSAII (Michael W. Deem and Ramdas Pophale) SiO2 
 PCOD9300692
Probable space group: C 2/C
;
_chemical_formula_sum "Si O2"
_cell_formula_units_Z 60
_cell_length_a 24.474964
_cell_length_b 11.956250
_cell_length_c 20.620204
_cell_angle_alpha 90.000000
_cell_angle_beta 147.405411
_cell_angle_gamma 90.000000
_cell_volume 3250.498014
_symmetry_space_group_name_H-M "C 2/C"
_symmetry_group_IT_number 15
_symmetry_cell_setting 'monoclinic'
loop_
_space_group_symop_operation_xyz
x,y,z
-x,y,1/2-z
-x,-y,-z
x,-y,1/2+z
1/2+x,1/2+y,z
1/2-x,1/2+y,1/2-z
1/2-x,1/2-y,-z
1/2+x,1/2-y,1/2+z
loop_
_atom_site_type_symbol
_atom_site_label
_atom_site_fract_x
_atom_site_fract_y
_atom_site_fract_z
Si Si1 0.174536 0.556234 0.561624
Si Si2 0.500000 0.235834 0.113607
Si Si3 0.500000 0.339022 0.982793
Si Si4 0.674536 0.056232 0.287451
Si Si5 0.229515 0.885398 0.479514
Si Si6 1.000000 0.583601 0.562804
Si Si7 0.673627 0.500000 0.673625
Si Si8 0.000000 0.146310 0.750000
O O1 0.221885 0.566953 0.537789
O O2 0.256678 0.553102 0.700872
O O3 0.099732 0.661440 0.496288
O O4 0.100242 0.450216 0.497572
O O5 0.599732 0.161440 0.203178
O O6 0.499999 0.278563 0.186083
O O7 0.500002 0.332925 0.061226
O O8 0.500000 0.212221 0.958092
O O9 0.399503 0.408386 0.866230
O O10 0.600494 0.408388 0.067218
O O11 0.721883 0.066950 0.405982
O O12 0.600241 0.950215 0.202912
O O13 0.756678 0.053100 0.312488
O O14 0.250000 0.750000 0.500000
O O15 0.109413 0.912198 0.359413
O O16 0.000000 0.500000 0.500000
#
# Coordination Sequence:
#
# PCOD9300692 Si02
#       8
#     8   8   8   8   8   8   8   4
#     4  11  22  38  60  95 126 167 210 253 335 378
#     4  11  19  35  60  86 130 158 205 259 310 401
#     4  11  23  38  58  90 125 166 219 262 321 372
#     4  11  22  38  60  95 126 167 210 253 335 378
#     4  12  24  38  64  97 130 169 200 270 326 375
#     4  11  21  40  63  89 123 170 217 266 303 387
#     4  11  24  37  60  90 130 171 206 275 320 380
#     4  12  22  34  56  98 128 172 194 262 334 384
#
# _framework density 18.45871
#
# number of rings (size 3 to 8) (size 9 to 14) (size 15 to 20)
#    0.000    0.800    6.667    1.600    0.000    5.867 
#    0.000    0.000    0.000    4.800    0.000    0.000 
#    0.000    0.000    0.000    0.000    0.000    0.000 
#
# Total GULP energy -167563.249163 kJ/mol
# GULP energy per Si atom -5585.441639 kJ/mol
# Density = 1.841670 g / cm^3
# Si number density = 18.458710 Si / 1000 Ang^3
#
#
#
# Elastic Constant Matrix: (Units=GPa)
#
#
# Indices 1 2 3 4 5 6 
#
# 1 109.3882 32.5989 82.4373 0.0000 -6.6379 0.0000
# 2 32.5989 81.1503 38.2642 0.0000 4.7256 0.0000
# 3 82.4373 38.2642 125.9067 0.0000 20.4241 0.0000
# 4 0.0000 0.0000 0.0000 19.9773 0.0000 -4.3875
# 5 -6.6379 4.7256 20.4241 0.0000 32.0308 0.0000
# 6 0.0000 0.0000 0.0000 -4.3875 0.0000 25.2442
#
#
#
# Elastic Compliance Matrix: (Units=1/GPa)
#
#
# Indices 1 2 3 4 5 6 
#
# 1 0.024475 -0.002295 -0.018075 0.000000 0.016936 0.000000
# 2 -0.002295 0.014615 -0.002802 0.000000 -0.000845 0.000000
# 3 -0.018075 -0.002802 0.023611 0.000000 -0.018388 0.000000
# 4 0.000000 0.000000 0.000000 0.052043 0.000000 0.009045
# 5 0.016936 -0.000845 -0.018388 0.000000 0.046579 0.000000
# 6 0.000000 0.000000 0.000000 0.009045 0.000000 0.041185
#
#
# Mechanical properties :
#
#
# Convention : Reuss Voigt Hill
#
# Bulk Modulus (GPa) = 61.13309 69.22731 65.18020
# Shear Modulus (GPa) = 19.66151 26.32680 22.99416
#
# Velocity S-wave (km/s) = 3.26722 3.78067 3.53329
# Velocity P-wave (km/s) = 6.88649 7.52617 7.21343
#
# Compressibility (1/GPa) = 0.01635775
#
# Stress axis : x y z
#
# Youngs Moduli (GPa) = 40.85822 68.42215 42.35338
#
# Poissons Ratio (x) = 0.15706 0.76552
# Poissons Ratio (y) = 0.09379 0.11866
# Poissons Ratio (z) = 0.73849 0.19169
#
# Static dielectric constant tensor:
#      x y z
#    x 1.641900 0.000000 0.022090 
#    y 0.000000 1.632530 0.000000 
#    z 0.022090 0.000000 1.668410 
# 
# From -- ./inp_files/255563.got.cif
#   From: 2010.05.17/outbox.cif.g08.bks.cpg/sg15_128_cif.got.tgz:255563.got - 2010.06.03 18:47:42.
