data_PCOD9300920
_publ_section_title
;
Structure prediction by ZEFSAII (Michael W. Deem and Ramdas Pophale) SiO2 
 PCOD9300920
Probable space group: C 2/C
;
_chemical_formula_sum "Si O2"
_cell_formula_units_Z 64
_cell_length_a 20.360871
_cell_length_b 11.445706
_cell_length_c 19.940266
_cell_angle_alpha 90.000000
_cell_angle_beta 42.194869
_cell_angle_gamma 90.000000
_cell_volume 3121.157253
_symmetry_space_group_name_H-M "C 2/C"
_symmetry_group_IT_number 15
_symmetry_cell_setting 'monoclinic'
loop_
_space_group_symop_operation_xyz
x,y,z
-x,y,1/2-z
-x,-y,-z
x,-y,1/2+z
1/2+x,1/2+y,z
1/2-x,1/2+y,1/2-z
1/2-x,1/2-y,-z
1/2+x,1/2-y,1/2+z
loop_
_atom_site_type_symbol
_atom_site_label
_atom_site_fract_x
_atom_site_fract_y
_atom_site_fract_z
Si Si1 0.611288 0.958740 0.999610
Si Si2 0.598778 0.072444 0.352069
Si Si3 0.609601 0.070637 0.641365
Si Si4 0.606080 0.212487 0.137824
Si Si5 0.743829 0.558984 0.856747
Si Si6 0.734412 0.645907 0.645724
Si Si7 0.105531 0.166439 0.857637
Si Si8 0.620044 0.670734 0.480096
O O1 0.508949 0.028923 0.085883
O O2 0.618221 0.878874 0.059823
O O3 0.706136 0.039508 0.929792
O O4 0.605171 0.918274 0.927630
O O5 0.613615 0.204769 0.319247
O O6 0.678277 0.991221 0.256671
O O7 0.500000 0.092296 0.750000
O O8 0.621465 0.927880 0.627786
O O9 0.691260 0.110113 0.632247
O O10 0.500000 0.232591 0.250000
O O11 0.681812 0.279088 0.128295
O O12 0.612161 0.271242 0.059977
O O13 0.670629 0.645390 0.873845
O O14 0.680545 0.448739 0.930734
O O15 0.658725 0.596327 0.757712
O O16 0.820660 0.732320 0.608321
O O17 0.991441 0.147280 0.957621
#
# Coordination Sequence:
#
# PCOD9300920 Si02
#       8
#     8   8   8   8   8   8   8   8
#     4  11  22  37  62  89 117 152 197 249 298 344
#     4  11  22  39  61  90 115 152 205 245 292 353
#     4  11  20  35  58  90 121 150 194 253 303 351
#     4  11  20  33  58  88 121 151 186 246 314 368
#     4  12  24  38  59  88 122 160 195 241 306 362
#     4  12  20  34  59  87 119 153 189 238 308 357
#     4  12  24  40  56  85 123 160 198 240 293 364
#     4  12  22  37  58  87 122 156 190 240 306 370
#
# _framework density 20.505213999999999
#
# number of rings (size 3 to 8) (size 9 to 14) (size 15 to 20)
#    0.000    0.500    8.750    1.500    0.000    0.000 
#    0.000    0.625    0.000    0.000    0.000    0.875 
#    0.000    0.000    0.000    0.000    0.000    0.000 
#
# Total GULP energy -178678.677244 kJ/mol
# GULP energy per Si atom -5583.708664 kJ/mol
# Density = 2.045854 g / cm^3
# Si number density = 20.505214 Si / 1000 Ang^3
#
#
#
# Elastic Constant Matrix: (Units=GPa)
#
#
# Indices 1 2 3 4 5 6 
#
# 1 139.9527 -5.2980 43.9323 0.0000 -4.2967 0.0000
# 2 -5.2980 5.2071 -1.0245 0.0000 -5.7307 0.0000
# 3 43.9323 -1.0245 90.2041 0.0000 -15.0583 0.0000
# 4 0.0000 0.0000 0.0000 15.3188 0.0000 -1.5454
# 5 -4.2967 -5.7307 -15.0583 0.0000 39.6294 0.0000
# 6 0.0000 0.0000 0.0000 -1.5454 0.0000 24.3589
#
#
#
# Elastic Compliance Matrix: (Units=1/GPa)
#
#
# Indices 1 2 3 4 5 6 
#
# 1 0.008777 0.008899 -0.004057 0.000000 0.000697 0.000000
# 2 0.008899 0.243930 0.004790 0.000000 0.038059 0.000000
# 3 -0.004057 0.004790 0.014050 0.000000 0.005591 0.000000
# 4 0.000000 0.000000 0.000000 0.065700 0.000000 0.004168
# 5 0.000697 0.038059 0.005591 0.000000 0.032938 0.000000
# 6 0.000000 0.000000 0.000000 0.004168 0.000000 0.041317
#
#
# Mechanical properties :
#
#
# Convention : Reuss Voigt Hill
#
# Bulk Modulus (GPa) = 3.49626 34.50928 19.00277
# Shear Modulus (GPa) = 10.35649 29.04502 19.70075
#
# Velocity S-wave (km/s) = 2.24981 3.76768 3.10299
# Velocity P-wave (km/s) = 2.90819 5.98275 4.70377
#
# Compressibility (1/GPa) = 0.28602017
#
# Stress axis : x y z
#
# Youngs Moduli (GPa) = 113.93177 4.09953 71.17508
#
# Poissons Ratio (x) = -0.03648 0.28878
# Poissons Ratio (y) = -1.01387 -0.34092
# Poissons Ratio (z) = 0.46226 -0.01964
#
# Static dielectric constant tensor:
#      x y z
#    x 1.766340 0.000000 0.017940 
#    y 0.000000 1.717460 0.000000 
#    z 0.017940 0.000000 1.796810 
# 
# From -- ./inp_files/252561.got.cif
#   From: 2010.05.17/outbox.cif.g08.bks.cpg/sg15_127_cif.got.tgz:252561.got - 2010.06.03 18:47:42.
