data_PCOD9300079
_publ_section_title
;
Structure prediction by ZEFSAII (Michael W. Deem and Ramdas Pophale) SiO2 
 PCOD9300079
Probable space group: C 2/C
;
_chemical_formula_sum "Si O2"
_cell_formula_units_Z 52
_cell_length_a 10.809481
_cell_length_b 12.079560
_cell_length_c 20.355777
_cell_angle_alpha 90.000000
_cell_angle_beta 116.793532
_cell_angle_gamma 90.000000
_cell_volume 2372.566458
_symmetry_space_group_name_H-M "C 2/C"
_symmetry_group_IT_number 15
_symmetry_cell_setting 'monoclinic'
loop_
_space_group_symop_operation_xyz
x,y,z
-x,y,1/2-z
-x,-y,-z
x,-y,1/2+z
1/2+x,1/2+y,z
1/2-x,1/2+y,1/2-z
1/2-x,1/2-y,-z
1/2+x,1/2-y,1/2+z
loop_
_atom_site_type_symbol
_atom_site_label
_atom_site_fract_x
_atom_site_fract_y
_atom_site_fract_z
Si Si1 0.341135 0.733677 0.420665
Si Si2 0.786639 0.086531 0.533532
Si Si3 0.000000 0.489384 0.250000
Si Si4 0.451480 0.561864 0.812259
Si Si5 0.652564 0.656360 0.503392
Si Si6 0.745109 0.637882 0.232796
Si Si7 0.770567 0.317392 0.171651
O O1 0.328289 0.858375 0.446319
O O2 0.281522 0.655508 0.464518
O O3 0.496949 0.690753 0.449609
O O4 0.260104 0.714829 0.333534
O O5 0.927267 0.099032 0.609789
O O6 0.794847 0.959329 0.513526
O O7 0.109054 0.568350 0.236475
O O8 0.099831 0.399292 0.310138
O O9 0.500000 0.563763 0.750000
O O10 0.384183 0.443712 0.811646
O O11 0.319040 0.638739 0.789257
O O12 0.750000 0.750000 0.500000
O O13 0.673540 0.663968 0.586257
O O14 0.709516 0.693743 0.295328
#
# Coordination Sequence:
#
# PCOD9300079 Si02
#       7
#     8   8   4   8   8   8   8
#     4  11  24  45  74 104 134 189 238 295 354 432
#     4  11  23  44  73  98 138 183 240 286 355 428
#     4  10  26  44  66 106 140 186 234 288 354 428
#     4  11  23  42  70 102 137 184 237 293 352 431
#     4  12  27  45  70 102 142 188 236 301 361 430
#     4  11  25  43  73 101 144 184 233 296 363 423
#     4  11  26  45  68 100 144 185 237 298 357 427
#
# _framework density 21.917192
#
# number of rings (size 3 to 8) (size 9 to 14) (size 15 to 20)
#    0.000    0.923    3.077    3.231    8.615    1.846 
#    0.000    0.000    0.000    0.000    0.000    0.000 
#    0.000    0.000    0.000    0.000    0.000    0.000 
#
# Total GULP energy -144896.759961 kJ/mol
# GULP energy per Si atom -5572.952306 kJ/mol
# Density = 2.186731 g / cm^3
# Si number density = 21.917192 Si / 1000 Ang^3
#
#
#
# Elastic Constant Matrix: (Units=GPa)
#
#
# Indices 1 2 3 4 5 6 
#
# 1 64.8995 33.6031 30.8295 0.0000 -6.0031 0.0000
# 2 33.6031 97.8415 27.2444 0.0000 3.1094 0.0000
# 3 30.8295 27.2444 88.2825 0.0000 7.3596 0.0000
# 4 0.0000 0.0000 0.0000 29.1305 0.0000 -2.7526
# 5 -6.0031 3.1094 7.3596 0.0000 26.3279 0.0000
# 6 0.0000 0.0000 0.0000 -2.7526 0.0000 16.9812
#
#
#
# Elastic Compliance Matrix: (Units=1/GPa)
#
#
# Indices 1 2 3 4 5 6 
#
# 1 0.022405 -0.006107 -0.006579 0.000000 0.007669 0.000000
# 2 -0.006107 0.012849 -0.001628 0.000000 -0.002455 0.000000
# 3 -0.006579 -0.001628 0.014576 0.000000 -0.005382 0.000000
# 4 0.000000 0.000000 0.000000 0.034862 0.000000 0.005651
# 5 0.007669 -0.002455 -0.005382 0.000000 0.041526 0.000000
# 6 0.000000 0.000000 0.000000 0.005651 0.000000 0.059805
#
#
# Mechanical properties :
#
#
# Convention : Reuss Voigt Hill
#
# Bulk Modulus (GPa) = 47.16393 48.26415 47.71404
# Shear Modulus (GPa) = 22.55125 25.11102 23.83113
#
# Velocity S-wave (km/s) = 3.21117 3.38852 3.30104
# Velocity P-wave (km/s) = 5.94262 6.11379 6.02881
#
# Compressibility (1/GPa) = 0.02120264
#
# Stress axis : x y z
#
# Youngs Moduli (GPa) = 44.63335 77.82539 68.60668
#
# Poissons Ratio (x) = 0.47525 0.45135
# Poissons Ratio (y) = 0.27256 0.11171
# Poissons Ratio (z) = 0.29364 0.12672
#
# Static dielectric constant tensor:
#      x y z
#    x 1.972500 0.000000 -0.159130 
#    y 0.000000 1.995320 0.000000 
#    z -0.159130 0.000000 1.923570 
# 
# From -- ./inp_files/237706.got.cif
#   From: 2010.05.17/outbox.cif.g08.bks.cpg/sg15_119_cif.got.tgz:237706.got - 2010.06.03 18:47:42.
