data_PCOD9300619
_publ_section_title
;
Structure prediction by ZEFSAII (Michael W. Deem and Ramdas Pophale) SiO2 
 PCOD9300619
Probable space group: C 2/C
;
_chemical_formula_sum "Si O2"
_cell_formula_units_Z 64
_cell_length_a 23.538226
_cell_length_b 10.538167
_cell_length_c 11.898605
_cell_angle_alpha 90.000000
_cell_angle_beta 62.644879
_cell_angle_gamma 90.000000
_cell_volume 2621.402330
_symmetry_space_group_name_H-M "C 2/C"
_symmetry_group_IT_number 15
_symmetry_cell_setting 'monoclinic'
loop_
_space_group_symop_operation_xyz
x,y,z
-x,y,1/2-z
-x,-y,-z
x,-y,1/2+z
1/2+x,1/2+y,z
1/2-x,1/2+y,1/2-z
1/2-x,1/2-y,-z
1/2+x,1/2-y,1/2+z
loop_
_atom_site_type_symbol
_atom_site_label
_atom_site_fract_x
_atom_site_fract_y
_atom_site_fract_z
Si Si1 0.311691 0.656007 0.568602
Si Si2 0.430337 0.511949 0.356073
Si Si3 0.440694 0.851935 0.223389
Si Si4 0.193340 0.579767 0.540228
Si Si5 0.882943 0.198775 0.727133
Si Si6 0.908454 0.800492 0.553919
Si Si7 0.992078 0.619458 0.123625
Si Si8 0.312894 0.804929 0.996435
O O1 0.375187 0.609323 0.443580
O O2 0.249995 0.577662 0.582067
O O3 0.296007 0.799600 0.548241
O O4 0.332051 0.657164 0.680223
O O5 0.500000 0.551154 0.250000
O O6 0.404497 0.422573 0.279124
O O7 0.436670 0.420253 0.461940
O O8 0.500000 0.823503 0.250000
O O9 0.376414 0.900536 0.341612
O O10 0.421290 0.725764 0.171623
O O11 0.468317 0.975890 0.131526
O O12 0.194814 0.451145 0.468264
O O13 0.941671 0.277748 0.619840
O O14 0.858940 0.293323 0.846038
O O15 0.836282 0.783569 0.577051
O O16 0.940002 0.671359 0.477551
O O17 0.000000 0.636946 0.250000
O O18 0.250000 0.750000 0.000000
#
# Coordination Sequence:
#
# PCOD9300619 Si02
#       8
#     8   8   8   8   8   8   8   8
#     4  11  29  46  69  98 142 197 238 301 368 429
#     4  11  23  48  73 104 144 188 251 304 357 439
#     4  11  25  38  68 107 143 180 236 295 371 448
#     4  11  25  50  62  99 149 179 237 305 358 441
#     4  11  22  44  73  98 137 187 236 295 372 432
#     4  11  22  40  71 104 137 181 234 302 360 430
#     4  11  18  41  64 100 136 173 224 296 367 429
#     4  11  23  42  75 106 134 183 244 293 366 449
#
# _framework density 24.414413
#
# number of rings (size 3 to 8) (size 9 to 14) (size 15 to 20)
#    0.000    1.000    5.000    2.625    5.250    2.000 
#    4.500    0.000    0.000    0.000    0.000    0.000 
#    0.000    0.000    0.000    0.000    0.000    0.000 
#
# Total GULP energy -178867.485615 kJ/mol
# GULP energy per Si atom -5589.608925 kJ/mol
# Density = 2.435884 g / cm^3
# Si number density = 24.414413 Si / 1000 Ang^3
#
#
#
# Elastic Constant Matrix: (Units=GPa)
#
#
# Indices 1 2 3 4 5 6 
#
# 1 137.7460 4.6258 29.2276 0.0000 1.1707 0.0000
# 2 4.6258 88.9435 4.0517 0.0000 -5.4083 0.0000
# 3 29.2276 4.0517 38.7691 0.0000 12.6690 0.0000
# 4 0.0000 0.0000 0.0000 0.5898 0.0000 0.7140
# 5 1.1707 -5.4083 12.6690 0.0000 27.1201 0.0000
# 6 0.0000 0.0000 0.0000 0.7140 0.0000 36.8941
#
#
#
# Elastic Compliance Matrix: (Units=1/GPa)
#
#
# Indices 1 2 3 4 5 6 
#
# 1 0.008877 0.000091 -0.007769 0.000000 0.003264 0.000000
# 2 0.000091 0.011555 -0.002393 0.000000 0.003418 0.000000
# 3 -0.007769 -0.002393 0.037702 0.000000 -0.017754 0.000000
# 4 0.000000 0.000000 0.000000 1.736057 0.000000 -0.033596
# 5 0.003264 0.003418 -0.017754 0.000000 0.045708 0.000000
# 6 0.000000 0.000000 0.000000 -0.033596 0.000000 0.027755
#
#
# Mechanical properties :
#
#
# Convention : Reuss Voigt Hill
#
# Bulk Modulus (GPa) = 26.32067 37.91875 32.11971
# Shear Modulus (GPa) = 2.63094 28.09105 15.36099
#
# Velocity S-wave (km/s) = 1.03921 3.39572 2.51106
# Velocity P-wave (km/s) = 3.49916 5.56233 4.64670
#
# Compressibility (1/GPa) = 0.03799295
#
# Stress axis : x y z
#
# Youngs Moduli (GPa) = 112.64649 86.54078 26.52357
#
# Poissons Ratio (x) = -0.00785 0.20605
# Poissons Ratio (y) = -0.01021 0.06347
# Poissons Ratio (z) = 0.87510 0.20710
#
# Static dielectric constant tensor:
#      x y z
#    x 2.129540 0.000000 -0.043800 
#    y 0.000000 1.937830 0.000000 
#    z -0.043800 0.000000 2.047570 
# 
# From -- ./inp_files/118002.got.cif
#   From: 2010.05.17/outbox.cif.g08.bks.cpg/sg15_60_cif.got.tgz:118002.got - 2010.06.03 18:47:42.
