data_PCOD9300767
_publ_section_title
;
Structure prediction by ZEFSAII (Michael W. Deem and Ramdas Pophale) SiO2 
 PCOD9300767
Probable space group: C 2/C
;
_chemical_formula_sum "Si O2"
_cell_formula_units_Z 40
_cell_length_a 16.905361
_cell_length_b 6.321638
_cell_length_c 20.759144
_cell_angle_alpha 90.000000
_cell_angle_beta 47.684873
_cell_angle_gamma 90.000000
_cell_volume 1640.492744
_symmetry_space_group_name_H-M "C 2/C"
_symmetry_group_IT_number 15
_symmetry_cell_setting 'monoclinic'
loop_
_space_group_symop_operation_xyz
x,y,z
-x,y,1/2-z
-x,-y,-z
x,-y,1/2+z
1/2+x,1/2+y,z
1/2-x,1/2+y,1/2-z
1/2-x,1/2-y,-z
1/2+x,1/2-y,1/2+z
loop_
_atom_site_type_symbol
_atom_site_label
_atom_site_fract_x
_atom_site_fract_y
_atom_site_fract_z
Si Si1 0.854164 0.099034 0.193794
Si Si2 0.488245 0.053690 0.689335
Si Si3 0.556791 0.287908 0.447357
Si Si4 0.858532 0.523472 0.502232
Si Si5 0.807022 0.208591 0.820735
O O1 0.931667 0.295382 0.167287
O O2 0.777794 0.176309 0.179233
O O3 0.887540 0.868878 0.147749
O O4 0.816438 0.024215 0.284117
O O5 0.500000 0.178317 0.750000
O O6 0.601830 0.001144 0.593075
O O7 0.412529 0.856223 0.754493
O O8 0.500000 0.500000 0.500000
O O9 0.459171 0.143589 0.478948
O O10 0.632427 0.195073 0.461560
O O11 0.751935 0.654131 0.579097
#
# Coordination Sequence:
#
# PCOD9300767 Si02
#       5
#     8   8   8   8   8
#     4  12  22  42  70 104 134 177 229 285 336 400
#     4  12  28  46  64  99 146 183 224 282 349 410
#     4  11  19  37  70 103 134 167 225 294 337 394
#     4  11  23  40  66 104 134 179 226 281 347 398
#     4  12  24  40  73 102 132 175 241 283 330 407
#
# _framework density 24.382919000000001
#
# number of rings (size 3 to 8) (size 9 to 14) (size 15 to 20)
#    0.000    0.400    8.000    2.400    0.000    1.600 
#    0.000    1.000    0.000    0.000    0.000    0.000 
#    0.000    0.000    0.000    0.000    0.000    0.000 
#
# Total GULP energy -111393.070671 kJ/mol
# GULP energy per Si atom -5569.653534 kJ/mol
# Density = 2.432742 g / cm^3
# Si number density = 24.382919 Si / 1000 Ang^3
#
#
#
# Elastic Constant Matrix: (Units=GPa)
#
#
# Indices 1 2 3 4 5 6 
#
# 1 49.7413 10.5931 17.9758 0.0001 8.2529 0.0001
# 2 10.5931 80.6279 31.6284 0.0007 -9.7842 0.0001
# 3 17.9758 31.6284 190.8634 0.0000 -1.8224 0.0001
# 4 0.0001 0.0007 0.0000 35.3536 -0.0001 -1.6354
# 5 8.2529 -9.7842 -1.8224 -0.0001 26.5786 0.0000
# 6 0.0001 0.0001 0.0001 -1.6354 0.0000 25.6063
#
#
#
# Elastic Compliance Matrix: (Units=1/GPa)
#
#
# Indices 1 2 3 4 5 6 
#
# 1 0.022826 -0.003367 -0.001672 0.000000 -0.008442 0.000000
# 2 -0.003367 0.014385 -0.002007 0.000000 0.006204 0.000000
# 3 -0.001672 -0.002007 0.005731 0.000000 0.000173 0.000000
# 4 0.000000 0.000000 0.000000 0.028369 0.000000 0.001812
# 5 -0.008442 0.006204 0.000173 0.000000 0.042541 0.000000
# 6 0.000000 0.000000 0.000000 0.001812 0.000000 0.039169
#
#
# Mechanical properties :
#
#
# Convention : Reuss Voigt Hill
#
# Bulk Modulus (GPa) = 34.66410 49.06968 41.86689
# Shear Modulus (GPa) = 28.29135 34.91005 31.60070
#
# Velocity S-wave (km/s) = 3.41000 3.78794 3.60393
# Velocity P-wave (km/s) = 5.45450 6.26894 5.87585
#
# Compressibility (1/GPa) = 0.02884829
#
# Stress axis : x y z
#
# Youngs Moduli (GPa) = 43.80932 69.51517 174.48437
#
# Poissons Ratio (x) = 0.23408 0.29181
# Poissons Ratio (y) = 0.14752 0.35027
# Poissons Ratio (z) = 0.07327 0.13955
#
# Static dielectric constant tensor:
#      x y z
#    x 1.923490 0.000000 -0.419550 
#    y 0.000000 2.040110 -0.000020 
#    z -0.419550 -0.000020 -0.196230 
# 
# From -- ./inp_files/212603.got.cif
#   From: 2010.05.17/outbox.cif.g08.bks.cpg/sg15_107_cif.got.tgz:212603.got - 2010.06.03 18:47:42.
