data_PCOD9300823
_publ_section_title
;
Structure prediction by ZEFSAII (Michael W. Deem and Ramdas Pophale) SiO2 
 PCOD9300823
Probable space group: C 2/C
;
_chemical_formula_sum "Si O2"
_cell_formula_units_Z 52
_cell_length_a 11.096143
_cell_length_b 16.862061
_cell_length_c 25.448975
_cell_angle_alpha 90.000000
_cell_angle_beta 34.697014
_cell_angle_gamma 90.000000
_cell_volume 2710.477898
_symmetry_space_group_name_H-M "C 2/C"
_symmetry_group_IT_number 15
_symmetry_cell_setting 'monoclinic'
loop_
_space_group_symop_operation_xyz
x,y,z
-x,y,1/2-z
-x,-y,-z
x,-y,1/2+z
1/2+x,1/2+y,z
1/2-x,1/2+y,1/2-z
1/2-x,1/2-y,-z
1/2+x,1/2-y,1/2+z
loop_
_atom_site_type_symbol
_atom_site_label
_atom_site_fract_x
_atom_site_fract_y
_atom_site_fract_z
Si Si1 0.583035 0.229656 0.015607
Si Si2 0.630009 0.091972 0.561983
Si Si3 0.681947 0.178806 0.641433
Si Si4 0.000000 0.917860 0.750000
Si Si5 0.516930 0.322583 0.635698
Si Si6 0.043384 0.545697 0.430614
Si Si7 0.246745 0.711054 0.839241
O O1 0.399717 0.294620 0.088454
O O2 0.495581 0.139675 0.052805
O O3 0.750000 0.250000 0.000000
O O4 0.677337 0.232896 0.923226
O O5 0.675034 0.102415 0.607408
O O6 0.413377 0.139923 0.622511
O O7 0.825002 0.127341 0.457897
O O8 0.597306 0.000217 0.560716
O O9 0.500000 0.179288 0.750000
O O10 0.645926 0.246814 0.610369
O O11 0.969157 0.867702 0.707323
O O12 0.789095 0.967164 0.831415
O O13 0.319025 0.285095 0.675156
O O14 0.000000 0.500000 0.500000
O O15 0.500000 0.694287 0.750000
#
# Coordination Sequence:
#
# PCOD9300823 Si02
#       7
#     8   8   8   4   8   8   8
#     4  12  25  41  64  97 127 162 218 271 309 378
#     4  11  22  41  65  89 133 170 209 267 330 374
#     4  11  20  40  65  90 122 173 220 256 314 391
#     4  12  22  36  70  92 126 168 222 254 324 388
#     4  11  19  40  64  92 126 176 213 261 317 388
#     4  12  23  42  63  98 128 162 213 268 320 374
#     4  11  23  36  62  96 132 161 209 268 322 368
#
# _framework density 19.184808
#
# number of rings (size 3 to 8) (size 9 to 14) (size 15 to 20)
#    0.000    0.615    8.462    0.923    7.538    0.000 
#    0.000    0.769    3.385    0.000    0.000    0.000 
#    0.000    0.000    0.000    0.000    0.000    0.000 
#
# Total GULP energy -145061.195227 kJ/mol
# GULP energy per Si atom -5579.276740 kJ/mol
# Density = 1.914114 g / cm^3
# Si number density = 19.184808 Si / 1000 Ang^3
#
#
#
# Elastic Constant Matrix: (Units=GPa)
#
#
# Indices 1 2 3 4 5 6 
#
# 1 123.0929 28.2512 43.3709 -0.0005 -5.3123 -0.0004
# 2 28.2512 46.4971 21.2687 -0.0010 6.0777 -0.0003
# 3 43.3709 21.2687 119.2845 0.0061 0.2839 -0.0030
# 4 -0.0005 -0.0010 0.0061 12.9658 -0.0012 3.7328
# 5 -5.3123 6.0777 0.2839 -0.0012 30.1422 -0.0003
# 6 -0.0004 -0.0003 -0.0030 3.7328 -0.0003 32.1502
#
#
#
# Elastic Compliance Matrix: (Units=1/GPa)
#
#
# Indices 1 2 3 4 5 6 
#
# 1 0.010514 -0.005473 -0.002854 0.000002 0.002983 0.000000
# 2 -0.005473 0.026945 -0.002799 0.000003 -0.006371 0.000000
# 3 -0.002854 -0.002799 0.009920 -0.000005 -0.000032 0.000001
# 4 0.000002 0.000003 -0.000005 0.079793 0.000003 -0.009264
# 5 0.002983 -0.006371 -0.000032 0.000003 0.034987 0.000000
# 6 0.000000 0.000000 0.000001 -0.009264 0.000000 0.032180
#
#
# Mechanical properties :
#
#
# Convention : Reuss Voigt Hill
#
# Bulk Modulus (GPa) = 39.79771 52.73957 46.26864
# Shear Modulus (GPa) = 22.22538 28.11723 25.17131
#
# Velocity S-wave (km/s) = 3.40735 3.83247 3.62614
# Velocity P-wave (km/s) = 6.02241 6.86540 6.45768
#
# Compressibility (1/GPa) = 0.02512708
#
# Stress axis : x y z
#
# Youngs Moduli (GPa) = 95.10705 37.11234 100.80335
#
# Poissons Ratio (x) = 0.20311 0.28772
# Poissons Ratio (y) = 0.52051 0.28218
# Poissons Ratio (z) = 0.27146 0.10389
#
# Static dielectric constant tensor:
#      x y z
#    x 1.703950 0.000000 0.011060 
#    y 0.000000 1.732550 0.000000 
#    z 0.011060 0.000000 1.681210 
# 
# From -- ./inp_files/182927.got.cif
#   From: 2010.05.17/outbox.cif.g08.bks.cpg/sg15_92_cif.got.tgz:182927.got - 2010.06.03 18:47:42.
