data_PCOD9300542
_publ_section_title
;
Structure prediction by ZEFSAII (Michael W. Deem and Ramdas Pophale) SiO2 
 PCOD9300542
Probable space group: C 2/C
;
_chemical_formula_sum "Si O2"
_cell_formula_units_Z 32
_cell_length_a 19.870691
_cell_length_b 8.791049
_cell_length_c 14.280060
_cell_angle_alpha 90.000000
_cell_angle_beta 153.074067
_cell_angle_gamma 90.000000
_cell_volume 1129.605658
_symmetry_space_group_name_H-M "C 2/C"
_symmetry_group_IT_number 15
_symmetry_cell_setting 'monoclinic'
loop_
_space_group_symop_operation_xyz
x,y,z
-x,y,1/2-z
-x,-y,-z
x,-y,1/2+z
1/2+x,1/2+y,z
1/2-x,1/2+y,1/2-z
1/2-x,1/2-y,-z
1/2+x,1/2-y,1/2+z
loop_
_atom_site_type_symbol
_atom_site_label
_atom_site_fract_x
_atom_site_fract_y
_atom_site_fract_z
Si Si1 0.900839 0.984779 0.482469
Si Si2 0.648494 0.303866 0.254852
Si Si3 0.340451 0.942795 0.952808
Si Si4 0.175392 0.541544 0.855462
O O1 0.807446 0.912763 0.450377
O O2 0.045197 0.081264 0.689049
O O3 0.930607 0.853106 0.442335
O O4 0.779938 0.089946 0.276377
O O5 0.810546 0.375565 0.434183
O O6 0.665322 0.142025 0.323508
O O7 0.307736 0.895631 0.018471
O O8 0.505269 0.915555 0.123063
#
# Coordination Sequence:
#
# PCOD9300542 Si02
#       4
#     8   8   8   8
#     4   9  20  35  48  80 114 145 172 223 271 321
#     4   9  19  34  49  81 113 140 179 219 271 319
#     4   9  20  32  50  85 107 136 178 221 273 313
#     4  11  18  32  58  78 107 140 180 226 265 316
#
# _framework density 28.328468999999998
#
# number of rings (size 3 to 8) (size 9 to 14) (size 15 to 20)
#    1.500    1.000    0.000    3.000    0.000    3.000 
#    0.000    0.000    0.000    1.500    6.500    0.000 
#    0.000    0.000    0.000    0.000    0.000    0.000 
#
# Total GULP energy -89188.290211 kJ/mol
# GULP energy per Si atom -5574.268138 kJ/mol
# Density = 2.826399 g / cm^3
# Si number density = 28.328469 Si / 1000 Ang^3
#
#
#
# Elastic Constant Matrix: (Units=GPa)
#
#
# Indices 1 2 3 4 5 6 
#
# 1 170.5691 44.3156 23.4158 0.0000 14.5802 0.0000
# 2 44.3156 99.6264 23.0429 0.0000 -28.2631 0.0000
# 3 23.4158 23.0429 74.4432 0.0000 2.6827 0.0000
# 4 0.0000 0.0000 0.0000 29.3821 0.0000 -13.4075
# 5 14.5802 -28.2631 2.6827 0.0000 40.5184 0.0000
# 6 0.0000 0.0000 0.0000 -13.4075 0.0000 10.2638
#
#
#
# Elastic Compliance Matrix: (Units=1/GPa)
#
#
# Indices 1 2 3 4 5 6 
#
# 1 0.007829 -0.005138 -0.000643 0.000000 -0.006359 0.000000
# 2 -0.005138 0.017347 -0.004266 0.000000 0.014231 0.000000
# 3 -0.000643 -0.004266 0.015091 0.000000 -0.003744 0.000000
# 4 0.000000 0.000000 0.000000 0.084260 0.000000 0.110067
# 5 -0.006359 0.014231 -0.003744 0.000000 0.037143 0.000000
# 6 0.000000 0.000000 0.000000 0.110067 0.000000 0.241210
#
#
# Mechanical properties :
#
#
# Convention : Reuss Voigt Hill
#
# Bulk Modulus (GPa) = 49.57214 58.46527 54.01870
# Shear Modulus (GPa) = 11.63606 32.95713 22.29659
#
# Velocity S-wave (km/s) = 2.02891 3.41455 2.80853
# Velocity P-wave (km/s) = 4.79851 6.01903 5.44309
#
# Compressibility (1/GPa) = 0.02017262
#
# Stress axis : x y z
#
# Youngs Moduli (GPa) = 127.72387 57.64704 66.26512
#
# Poissons Ratio (x) = 0.29617 0.04262
# Poissons Ratio (y) = 0.65621 0.28271
# Poissons Ratio (z) = 0.08216 0.24594
#
# Static dielectric constant tensor:
#      x y z
#    x 2.294390 0.000000 -0.082300 
#    y 0.000000 2.290990 0.000000 
#    z -0.082300 0.000000 2.172290 
# 
# From -- ./inp_files/46538.got.cif
#   From: 2010.05.17/outbox.cif.g08.bks.cpg/sg15_24_cif.got.tgz:46538.got - 2010.06.03 18:47:42.
