data_PCOD9300862
_publ_section_title
;
Structure prediction by ZEFSAII (Michael W. Deem and Ramdas Pophale) SiO2 
 PCOD9300862
Probable space group: C 2/C
;
_chemical_formula_sum "Si O2"
_cell_formula_units_Z 64
_cell_length_a 22.110204
_cell_length_b 16.046751
_cell_length_c 12.036407
_cell_angle_alpha 90.000000
_cell_angle_beta 51.256803
_cell_angle_gamma 90.000000
_cell_volume 3330.798714
_symmetry_space_group_name_H-M "C 2/C"
_symmetry_group_IT_number 15
_symmetry_cell_setting 'monoclinic'
loop_
_space_group_symop_operation_xyz
x,y,z
-x,y,1/2-z
-x,-y,-z
x,-y,1/2+z
1/2+x,1/2+y,z
1/2-x,1/2+y,1/2-z
1/2-x,1/2-y,-z
1/2+x,1/2-y,1/2+z
loop_
_atom_site_type_symbol
_atom_site_label
_atom_site_fract_x
_atom_site_fract_y
_atom_site_fract_z
Si Si1 0.206425 0.417557 0.157176
Si Si2 0.697034 0.617917 0.747519
Si Si3 0.591158 0.832458 0.149952
Si Si4 0.176731 0.171231 0.130327
Si Si5 0.800356 0.697901 0.175595
Si Si6 0.579076 0.534024 0.335621
Si Si7 0.449438 0.417385 0.404479
Si Si8 0.229734 0.096246 0.460582
O O1 0.233265 0.414110 0.253724
O O2 0.122182 0.394608 0.209895
O O3 0.229508 0.507122 0.085223
O O4 0.257993 0.347369 0.035763
O O5 0.673446 0.708175 0.823144
O O6 0.629714 0.546044 0.821095
O O7 0.726424 0.631428 0.588637
O O8 0.500000 0.837924 0.250000
O O9 0.618149 0.741023 0.158231
O O10 0.635399 0.843846 0.980025
O O11 0.221801 0.193764 0.191513
O O12 0.133138 0.084030 0.191728
O O13 0.775402 0.650777 0.317008
O O14 0.502158 0.500116 0.365208
O O15 0.558481 0.601629 0.455170
O O16 0.500000 0.372113 0.250000
O O17 0.360800 0.418414 0.467998
#
# Coordination Sequence:
#
# PCOD9300862 Si02
#       8
#     8   8   8   8   8   8   8   8
#     4  11  21  40  67  94 119 160 218 251 303 377
#     4  12  21  39  62  91 127 172 206 242 306 367
#     4  11  25  43  67  93 120 159 209 277 317 344
#     4  11  19  42  65  91 126 158 209 255 304 378
#     4  11  23  42  63  91 124 164 215 252 303 379
#     4  11  23  33  61  95 128 165 200 250 304 375
#     4  11  21  36  52  93 135 157 197 239 311 368
#     4  12  24  39  65  92 128 173 204 253 301 379
#
# _framework density 19.21461
#
# number of rings (size 3 to 8) (size 9 to 14) (size 15 to 20)
#    0.000    0.750    7.500    1.125    1.750    3.500 
#    0.000    0.625    0.000    0.000    0.000    0.000 
#    0.000    0.000    0.000    0.000    0.000    0.000 
#
# Total GULP energy -178258.808104 kJ/mol
# GULP energy per Si atom -5570.587753 kJ/mol
# Density = 1.917088 g / cm^3
# Si number density = 19.214610 Si / 1000 Ang^3
#
#
#
# Elastic Constant Matrix: (Units=GPa)
#
#
# Indices 1 2 3 4 5 6 
#
# 1 103.3324 15.9424 46.9897 0.0000 -8.3023 0.0000
# 2 15.9424 57.7918 6.1865 0.0000 -11.3595 0.0000
# 3 46.9897 6.1865 97.1938 0.0000 4.0830 0.0000
# 4 0.0000 0.0000 0.0000 25.8520 0.0000 5.3310
# 5 -8.3023 -11.3595 4.0830 0.0000 47.0851 0.0000
# 6 0.0000 0.0000 0.0000 5.3310 0.0000 14.8252
#
#
#
# Elastic Compliance Matrix: (Units=1/GPa)
#
#
# Indices 1 2 3 4 5 6 
#
# 1 0.013093 -0.002499 -0.006265 0.000000 0.002249 0.000000
# 2 -0.002499 0.018819 -0.000162 0.000000 0.004114 0.000000
# 3 -0.006265 -0.000162 0.013425 0.000000 -0.002308 0.000000
# 4 0.000000 0.000000 0.000000 0.041780 0.000000 -0.015023
# 5 0.002249 0.004114 -0.002308 0.000000 0.022827 0.000000
# 6 0.000000 0.000000 0.000000 -0.015023 0.000000 0.072855
#
#
# Mechanical properties :
#
#
# Convention : Reuss Voigt Hill
#
# Bulk Modulus (GPa) = 36.38594 44.06167 40.22381
# Shear Modulus (GPa) = 23.83071 30.16576 26.99823
#
# Velocity S-wave (km/s) = 3.52552 3.96654 3.75252
# Velocity P-wave (km/s) = 5.96239 6.63016 6.30513
#
# Compressibility (1/GPa) = 0.02748314
#
# Stress axis : x y z
#
# Youngs Moduli (GPa) = 76.37738 53.13823 74.48738
#
# Poissons Ratio (x) = 0.13279 0.46669
# Poissons Ratio (y) = 0.19087 0.01210
# Poissons Ratio (z) = 0.47853 0.00863
#
# Static dielectric constant tensor:
#      x y z
#    x 1.702460 0.000000 0.041910 
#    y 0.000000 1.683410 0.000000 
#    z 0.041910 0.000000 1.760760 
# 
# From -- ./inp_files/113672.got.cif
#   From: 2010.05.17/outbox.cif.g08.bks.cpg/sg15_57_cif.got.tgz:113672.got - 2010.06.03 18:47:42.
