data_PCOD9300422
_publ_section_title
;
Structure prediction by ZEFSAII (Michael W. Deem and Ramdas Pophale) SiO2 
 PCOD9300422
Probable space group: C 2/C
;
_chemical_formula_sum "Si O2"
_cell_formula_units_Z 64
_cell_length_a 25.652133
_cell_length_b 14.429526
_cell_length_c 11.767680
_cell_angle_alpha 90.000000
_cell_angle_beta 140.264784
_cell_angle_gamma 90.000000
_cell_volume 2784.394366
_symmetry_space_group_name_H-M "C 2/C"
_symmetry_group_IT_number 15
_symmetry_cell_setting 'monoclinic'
loop_
_space_group_symop_operation_xyz
x,y,z
-x,y,1/2-z
-x,-y,-z
x,-y,1/2+z
1/2+x,1/2+y,z
1/2-x,1/2+y,1/2-z
1/2-x,1/2-y,-z
1/2+x,1/2-y,1/2+z
loop_
_atom_site_type_symbol
_atom_site_label
_atom_site_fract_x
_atom_site_fract_y
_atom_site_fract_z
Si Si1 0.133189 0.854659 0.147181
Si Si2 0.584670 0.847612 0.201716
Si Si3 0.312224 0.851693 0.510898
Si Si4 0.080096 0.238554 0.958293
Si Si5 0.689680 0.946738 0.550895
Si Si6 0.383837 0.559015 0.349073
Si Si7 0.586922 0.655656 0.336447
Si Si8 0.904300 0.351971 0.900719
O O1 0.214891 0.846108 0.357192
O O2 0.083548 0.760101 0.077607
O O3 0.090601 0.951901 0.100578
O O4 0.153408 0.857431 0.046817
O O5 0.653533 0.913800 0.368619
O O6 0.588209 0.759782 0.292612
O O7 0.591099 0.804442 0.086859
O O8 0.495039 0.892638 0.059560
O O9 0.345688 0.762335 0.501239
O O10 0.356710 0.866976 0.704463
O O11 0.329967 0.944717 0.468810
O O12 0.000000 0.260184 0.750000
O O13 0.076397 0.133748 0.999361
O O14 0.787030 0.936780 0.713258
O O15 0.648236 0.888585 0.582104
O O16 0.397198 0.591752 0.243608
O O17 0.500000 0.636874 0.250000
#
# Coordination Sequence:
#
# PCOD9300422 Si02
#       8
#     8   8   8   8   8   8   8   8
#     4  11  24  44  70  98 134 178 232 274 342 412
#     4  11  23  43  69  94 135 179 232 276 333 410
#     4  11  27  42  69 103 136 183 223 289 346 401
#     4  11  24  45  65 100 141 176 226 286 347 394
#     4  11  25  44  69 103 134 179 235 281 337 410
#     4  10  27  43  68 106 136 179 227 285 340 406
#     4  11  22  43  68  98 131 181 226 276 337 406
#     4  12  23  46  69  97 140 185 227 279 344 405
#
# _framework density 22.985249
#
# number of rings (size 3 to 8) (size 9 to 14) (size 15 to 20)
#    0.000    1.000    3.750    1.500    3.500    7.500 
#    0.000    0.000    0.000    0.000    0.000    0.000 
#    0.000    0.000    0.000    0.000    0.000    0.000 
#
# Total GULP energy -179026.231305 kJ/mol
# GULP energy per Si atom -5594.569728 kJ/mol
# Density = 2.293293 g / cm^3
# Si number density = 22.985249 Si / 1000 Ang^3
#
#
#
# Elastic Constant Matrix: (Units=GPa)
#
#
# Indices 1 2 3 4 5 6 
#
# 1 63.7888 16.9302 6.7680 0.0000 -21.4915 0.0000
# 2 16.9302 87.8317 -3.2620 0.0000 -5.9664 0.0000
# 3 6.7680 -3.2620 88.2575 0.0000 -18.7440 0.0000
# 4 0.0000 0.0000 0.0000 8.3224 0.0000 -7.5964
# 5 -21.4915 -5.9664 -18.7440 0.0000 30.5298 0.0000
# 6 0.0000 0.0000 0.0000 -7.5964 0.0000 19.5376
#
#
#
# Elastic Compliance Matrix: (Units=1/GPa)
#
#
# Indices 1 2 3 4 5 6 
#
# 1 0.021549 -0.003043 0.001530 0.000000 0.015514 0.000000
# 2 -0.003043 0.012052 0.000833 0.000000 0.000724 0.000000
# 3 0.001530 0.000833 0.013233 0.000000 0.009364 0.000000
# 4 0.000000 0.000000 0.000000 0.186258 0.000000 0.072419
# 5 0.015514 0.000724 0.009364 0.000000 0.049567 0.000000
# 6 0.000000 0.000000 0.000000 0.072419 0.000000 0.079341
#
#
# Mechanical properties :
#
#
# Convention : Reuss Voigt Hill
#
# Bulk Modulus (GPa) = 21.99116 31.19447 26.59281
# Shear Modulus (GPa) = 13.20941 26.30743 19.75842
#
# Velocity S-wave (km/s) = 2.39987 3.38677 2.93510
# Velocity P-wave (km/s) = 4.15541 5.37537 4.80427
#
# Compressibility (1/GPa) = 0.04547283
#
# Stress axis : x y z
#
# Youngs Moduli (GPa) = 46.40582 82.97304 75.57065
#
# Poissons Ratio (x) = 0.25249 -0.11562
# Poissons Ratio (y) = 0.14121 -0.06292
# Poissons Ratio (z) = -0.07100 -0.06909
#
# Static dielectric constant tensor:
#      x y z
#    x 1.833430 0.000000 0.001370 
#    y 0.000000 1.887800 0.000000 
#    z 0.001370 0.000000 1.861910 
# 
# From -- ./inp_files/123537.got.cif
#   From: 2010.05.17/outbox.cif.g08.bks.cpg/sg15_62_cif.got.tgz:123537.got - 2010.06.03 18:47:42.
