data_PCOD9300322
_publ_section_title
;
Structure prediction by ZEFSAII (Michael W. Deem and Ramdas Pophale) SiO2 
 PCOD9300322
Probable space group: C 2/C
;
_chemical_formula_sum "Si O2"
_cell_formula_units_Z 48
_cell_length_a 9.500191
_cell_length_b 25.006927
_cell_length_c 10.059296
_cell_angle_alpha 90.000000
_cell_angle_beta 55.604908
_cell_angle_gamma 90.000000
_cell_volume 1971.965957
_symmetry_space_group_name_H-M "C 2/C"
_symmetry_group_IT_number 15
_symmetry_cell_setting 'monoclinic'
loop_
_space_group_symop_operation_xyz
x,y,z
-x,y,1/2-z
-x,-y,-z
x,-y,1/2+z
1/2+x,1/2+y,z
1/2-x,1/2+y,1/2-z
1/2-x,1/2-y,-z
1/2+x,1/2-y,1/2+z
loop_
_atom_site_type_symbol
_atom_site_label
_atom_site_fract_x
_atom_site_fract_y
_atom_site_fract_z
Si Si1 0.321496 0.564982 0.007141
Si Si2 0.770644 0.107655 0.305962
Si Si3 0.000000 0.798400 0.750000
Si Si4 0.000000 0.740370 0.250000
Si Si5 0.371761 0.785160 0.106261
Si Si6 0.500000 0.487764 0.750000
Si Si7 0.000000 0.490087 0.250000
Si Si8 0.401202 0.899444 0.096982
O O1 0.344122 0.604793 0.117442
O O2 0.159312 0.527019 0.125392
O O3 0.264378 0.595149 0.905433
O O4 0.477839 0.526865 0.886217
O O5 0.841392 0.159989 0.341503
O O6 0.569737 0.103528 0.416195
O O7 0.842592 0.052889 0.330465
O O8 0.034878 0.760959 0.858566
O O9 0.827817 0.771801 0.304298
O O10 0.948235 0.710799 0.415310
O O11 0.390787 0.841734 0.169793
O O12 0.069383 0.450236 0.326315
#
# Coordination Sequence:
#
# PCOD9300322 Si02
#       8
#     8   8   4   4   8   4   4   8
#     4  12  24  44  71 103 145 190 242 299 356 438
#     4  11  24  44  72 105 141 196 238 291 375 432
#     4  11  27  48  74 109 153 186 247 311 376 432
#     4  10  26  48  78 105 151 190 248 306 378 420
#     4  11  26  49  76 109 149 194 245 312 365 446
#     4  11  24  45  67 106 145 186 233 307 352 430
#     4  12  23  43  69 106 147 184 246 296 356 436
#     4  12  25  41  76 104 140 196 244 291 369 437
#
# _framework density 24.341193000000001
#
# number of rings (size 3 to 8) (size 9 to 14) (size 15 to 20)
#    0.000    0.667    3.333    3.500    7.000    4.667 
#    0.000    0.000    0.000    0.000    0.000    0.000 
#    0.000    0.000    0.000    0.000    0.000    0.000 
#
# Total GULP energy -134281.266593 kJ/mol
# GULP energy per Si atom -5595.052775 kJ/mol
# Density = 2.428579 g / cm^3
# Si number density = 24.341193 Si / 1000 Ang^3
#
#
#
# Elastic Constant Matrix: (Units=GPa)
#
#
# Indices 1 2 3 4 5 6 
#
# 1 90.7330 47.4585 25.8603 0.0000 16.8336 0.0000
# 2 47.4585 129.4456 27.3670 0.0000 -3.7813 0.0000
# 3 25.8603 27.3670 54.4102 0.0000 -4.3138 0.0000
# 4 0.0000 0.0000 0.0000 -4.8288 0.0000 -15.6594
# 5 16.8336 -3.7813 -4.3138 0.0000 33.9746 0.0000
# 6 0.0000 0.0000 0.0000 -15.6594 0.0000 12.5782
#
#
#
# Elastic Compliance Matrix: (Units=1/GPa)
#
#
# Indices 1 2 3 4 5 6 
#
# 1 0.017536 -0.005363 -0.006438 0.000000 -0.010103 0.000000
# 2 -0.005363 0.010291 -0.002349 0.000000 0.003504 0.000000
# 3 -0.006438 -0.002349 0.023085 0.000000 0.005860 0.000000
# 4 0.000000 0.000000 0.000000 -0.041111 0.000000 -0.051182
# 5 -0.010103 0.003504 0.005860 0.000000 0.035574 0.000000
# 6 0.000000 0.000000 0.000000 -0.051182 0.000000 0.015783
#
#
# Mechanical properties :
#
#
# Convention : Reuss Voigt Hill
#
# Bulk Modulus (GPa) = 44.22641 52.88449 48.55545
# Shear Modulus (GPa) = 51.54977 19.93833 35.74405
#
# Velocity S-wave (km/s) = 4.60695 2.86513 3.83621
# Velocity P-wave (km/s) = 6.81964 5.72003 6.29390
#
# Compressibility (1/GPa) = 0.02261092
#
# Stress axis : x y z
#
# Youngs Moduli (GPa) = 57.02582 97.17654 43.31843
#
# Poissons Ratio (x) = 0.52118 0.27888
# Poissons Ratio (y) = 0.30584 0.10176
# Poissons Ratio (z) = 0.36713 0.22827
#
# Static dielectric constant tensor:
#      x y z
#    x 1.933990 0.000000 0.014300 
#    y 0.000000 1.911250 0.000000 
#    z 0.014300 0.000000 1.963520 
# 
# From -- ./inp_files/90680.got.cif
#   From: 2010.05.17/outbox.cif.g08.bks.cpg/sg15_46_cif.got.tgz:90680.got - 2010.06.03 18:47:42.
