data_PCOD9300105
_publ_section_title
;
Structure prediction by ZEFSAII (Michael W. Deem and Ramdas Pophale) SiO2 
 PCOD9300105
Probable space group: C 2/C
;
_chemical_formula_sum "Si O2"
_cell_formula_units_Z 60
_cell_length_a 29.899015
_cell_length_b 10.594980
_cell_length_c 8.721309
_cell_angle_alpha 90.000000
_cell_angle_beta 67.922803
_cell_angle_gamma 90.000000
_cell_volume 2560.163402
_symmetry_space_group_name_H-M "C 2/C"
_symmetry_group_IT_number 15
_symmetry_cell_setting 'monoclinic'
loop_
_space_group_symop_operation_xyz
x,y,z
-x,y,1/2-z
-x,-y,-z
x,-y,1/2+z
1/2+x,1/2+y,z
1/2-x,1/2+y,1/2-z
1/2-x,1/2-y,-z
1/2+x,1/2-y,1/2+z
loop_
_atom_site_type_symbol
_atom_site_label
_atom_site_fract_x
_atom_site_fract_y
_atom_site_fract_z
Si Si1 0.657378 0.840299 0.242775
Si Si2 0.988602 0.144502 0.098751
Si Si3 0.352582 0.414989 0.922741
Si Si4 0.945030 0.604465 0.607118
Si Si5 0.247137 0.574065 0.421397
Si Si6 0.000000 0.589315 0.250000
Si Si7 0.265183 0.792826 0.148938
Si Si8 0.083673 0.930835 0.370260
O O1 0.639869 0.714187 0.180173
O O2 0.611168 0.925780 0.320833
O O3 0.678475 0.797599 0.379239
O O4 0.700222 0.903433 0.087971
O O5 0.961920 0.272514 0.176609
O O6 0.000000 0.082816 0.250000
O O7 0.950190 0.055913 0.061431
O O8 0.039002 0.167053 0.942696
O O9 0.295710 0.432251 0.962352
O O10 0.384864 0.530081 0.816566
O O11 0.374610 0.399018 0.061993
O O12 0.970807 0.492415 0.663127
O O13 0.960728 0.646542 0.415040
O O14 0.247085 0.691881 0.300865
O O15 0.247789 0.441299 0.332433
O O16 0.250000 0.750000 0.000000
#
# Coordination Sequence:
#
# PCOD9300105 Si02
#       8
#     8   8   8   8   8   4   8   8
#     4  11  25  46  71 101 143 195 237 301 370 442
#     4  11  21  42  65  98 140 176 225 293 358 439
#     4  11  24  41  66 101 142 184 231 290 362 443
#     4  11  23  47  71  97 139 181 237 295 366 424
#     4  11  27  47  75 105 153 196 251 309 376 438
#     4  10  26  44  70  98 128 180 236 298 348 434
#     4  11  25  46  72 109 147 192 250 309 365 445
#     4  11  23  38  66 100 134 181 225 281 366 433
#
# _framework density 23.436004000000001
#
# number of rings (size 3 to 8) (size 9 to 14) (size 15 to 20)
#    0.000    1.067    3.333    2.400    9.333    1.067 
#    0.000    0.000    0.000    0.000    0.000    0.000 
#    0.000    0.000    0.000    0.000    0.000    0.000 
#
# Total GULP energy -167166.606282 kJ/mol
# GULP energy per Si atom -5572.220209 kJ/mol
# Density = 2.338266 g / cm^3
# Si number density = 23.436004 Si / 1000 Ang^3
#
#
#
# Elastic Constant Matrix: (Units=GPa)
#
#
# Indices 1 2 3 4 5 6 
#
# 1 126.0754 20.5759 69.9381 0.0000 -16.2817 0.0000
# 2 20.5759 69.2918 5.4134 0.0000 3.7197 0.0000
# 3 69.9381 5.4134 83.6226 0.0000 -6.7494 0.0000
# 4 0.0000 0.0000 0.0000 -2.4441 0.0000 18.5472
# 5 -16.2817 3.7197 -6.7494 0.0000 47.1106 0.0000
# 6 0.0000 0.0000 0.0000 18.5472 0.0000 13.8731
#
#
#
# Elastic Compliance Matrix: (Units=1/GPa)
#
#
# Indices 1 2 3 4 5 6 
#
# 1 0.016410 -0.004068 -0.013129 0.000000 0.004112 0.000000
# 2 -0.004068 0.015592 0.002205 0.000000 -0.002321 0.000000
# 3 -0.013129 0.002205 0.022678 0.000000 -0.001463 0.000000
# 4 0.000000 0.000000 0.000000 -0.036711 0.000000 0.049079
# 5 0.004112 -0.002321 -0.001463 0.000000 0.022621 0.000000
# 6 0.000000 0.000000 0.000000 0.049079 0.000000 0.006468
#
#
# Mechanical properties :
#
#
# Convention : Reuss Voigt Hill
#
# Bulk Modulus (GPa) = 40.49090 52.31606 46.40348
# Shear Modulus (GPa) = 58.63448 23.91208 41.27328
#
# Velocity S-wave (km/s) = 5.00732 3.19770 4.20111
# Velocity P-wave (km/s) = 7.12361 6.00043 6.58600
#
# Compressibility (1/GPa) = 0.02469691
#
# Stress axis : x y z
#
# Youngs Moduli (GPa) = 60.93900 64.13565 44.09486
#
# Poissons Ratio (x) = 0.26089 0.57893
# Poissons Ratio (y) = 0.24789 -0.09725
# Poissons Ratio (z) = 0.80008 -0.14145
#
# Static dielectric constant tensor:
#      x y z
#    x 1.921350 0.000000 -0.044780 
#    y 0.000000 1.939870 0.000000 
#    z -0.044780 0.000000 2.051210 
# 
# From -- ./inp_files/69350.got.cif
#   From: 2010.05.17/outbox.cif.g08.bks.cpg/sg15_35_cif.got.tgz:69350.got - 2010.06.03 18:47:42.
