data_PCOD9300298
_publ_section_title
;
Structure prediction by ZEFSAII (Michael W. Deem and Ramdas Pophale) SiO2 
 PCOD9300298
Probable space group: C 2/C
;
_chemical_formula_sum "Si O2"
_cell_formula_units_Z 36
_cell_length_a 18.932362
_cell_length_b 12.505266
_cell_length_c 8.473690
_cell_angle_alpha 90.000000
_cell_angle_beta 126.643671
_cell_angle_gamma 90.000000
_cell_volume 1609.685714
_symmetry_space_group_name_H-M "C 2/C"
_symmetry_group_IT_number 15
_symmetry_cell_setting 'monoclinic'
loop_
_space_group_symop_operation_xyz
x,y,z
-x,y,1/2-z
-x,-y,-z
x,-y,1/2+z
1/2+x,1/2+y,z
1/2-x,1/2+y,1/2-z
1/2-x,1/2-y,-z
1/2+x,1/2-y,1/2+z
loop_
_atom_site_type_symbol
_atom_site_label
_atom_site_fract_x
_atom_site_fract_y
_atom_site_fract_z
Si Si1 0.566565 0.031190 0.726922
Si Si2 0.397535 0.205585 0.128126
Si Si3 0.219661 0.322120 0.309932
Si Si4 0.116625 0.116964 0.665910
Si Si5 0.500000 0.481276 0.750000
O O1 0.500000 0.095360 0.750000
O O2 0.648249 0.097966 0.784269
O O3 0.500000 0.000000 0.500000
O O4 0.601482 0.922201 0.852644
O O5 0.500000 0.235434 0.250000
O O6 0.370176 0.263772 0.250745
O O7 0.336101 0.239731 0.900813
O O8 0.250000 0.250000 0.500000
O O9 0.293705 0.392258 0.316799
O O10 0.079299 0.049257 0.768766
O O11 0.041232 0.092669 0.439513
#
# Coordination Sequence:
#
# PCOD9300298 Si02
#       5
#     8   8   8   8   4
#     4  11  24  47  77 106 150 199 249 308 384 457
#     4  11  24  49  74 105 151 199 250 316 390 458
#     4  12  29  44  76 117 147 197 252 325 377 464
#     4  11  26  47  73 103 151 188 262 305 388 448
#     4  10  26  48  74 102 138 212 236 324 378 468
#
# _framework density 22.364616000000002
#
# number of rings (size 3 to 8) (size 9 to 14) (size 15 to 20)
#    0.000    0.889    5.556    0.667    9.333    0.000 
#    0.000    0.000    0.000    0.000    0.000    0.000 
#    0.000    0.000    0.000    0.000    0.000    0.000 
#
# Total GULP energy -100315.673807 kJ/mol
# GULP energy per Si atom -5573.092989 kJ/mol
# Density = 2.231371 g / cm^3
# Si number density = 22.364616 Si / 1000 Ang^3
#
#
#
# Elastic Constant Matrix: (Units=GPa)
#
#
# Indices 1 2 3 4 5 6 
#
# 1 191.2397 49.5298 41.9196 0.0000 11.5661 0.0000
# 2 49.5298 62.6057 45.8746 0.0000 -0.8504 0.0000
# 3 41.9196 45.8746 153.5818 0.0000 -1.0955 0.0000
# 4 0.0000 0.0000 0.0000 14.9801 0.0000 0.9828
# 5 11.5661 -0.8504 -1.0955 0.0000 33.8489 0.0000
# 6 0.0000 0.0000 0.0000 0.9828 0.0000 15.1019
#
#
#
# Elastic Compliance Matrix: (Units=1/GPa)
#
#
# Indices 1 2 3 4 5 6 
#
# 1 0.006787 -0.005162 -0.000328 0.000000 -0.002459 0.000000
# 2 -0.005162 0.024379 -0.005857 0.000000 0.002187 0.000000
# 3 -0.000328 -0.005857 0.008352 0.000000 0.000235 0.000000
# 4 0.000000 0.000000 0.000000 0.067042 0.000000 -0.004363
# 5 -0.002459 0.002187 0.000235 0.000000 0.030446 0.000000
# 6 0.000000 0.000000 0.000000 -0.004363 0.000000 0.066501
#
#
# Mechanical properties :
#
#
# Convention : Reuss Voigt Hill
#
# Bulk Modulus (GPa) = 59.44490 75.78611 67.61550
# Shear Modulus (GPa) = 21.56956 30.79305 26.18131
#
# Velocity S-wave (km/s) = 3.10893 3.71464 3.42520
# Velocity P-wave (km/s) = 6.28688 7.23590 6.77802
#
# Compressibility (1/GPa) = 0.01682230
#
# Stress axis : x y z
#
# Youngs Moduli (GPa) = 147.34787 41.01944 119.73274
#
# Poissons Ratio (x) = 0.21175 0.03927
# Poissons Ratio (y) = 0.76065 0.70130
# Poissons Ratio (z) = 0.04833 0.24026
#
# Static dielectric constant tensor:
#      x y z
#    x 2.020590 0.000000 -0.046010 
#    y 0.000000 1.861290 0.000000 
#    z -0.046010 0.000000 1.838420 
# 
# From -- ./inp_files/47316.got.cif
#   From: 2010.05.17/outbox.cif.g08.bks.cpg/sg15_24_cif.got.tgz:47316.got - 2010.06.03 18:47:42.
