data_PCOD9300421
_publ_section_title
;
Structure prediction by ZEFSAII (Michael W. Deem and Ramdas Pophale) SiO2 
 PCOD9300421
Probable space group: C 2/C
;
_chemical_formula_sum "Si O2"
_cell_formula_units_Z 32
_cell_length_a 6.094964
_cell_length_b 7.711224
_cell_length_c 23.814341
_cell_angle_alpha 90.000000
_cell_angle_beta 111.844895
_cell_angle_gamma 90.000000
_cell_volume 1038.895933
_symmetry_space_group_name_H-M "C 2/C"
_symmetry_group_IT_number 15
_symmetry_cell_setting 'monoclinic'
loop_
_space_group_symop_operation_xyz
x,y,z
-x,y,1/2-z
-x,-y,-z
x,-y,1/2+z
1/2+x,1/2+y,z
1/2-x,1/2+y,1/2-z
1/2-x,1/2-y,-z
1/2+x,1/2-y,1/2+z
loop_
_atom_site_type_symbol
_atom_site_label
_atom_site_fract_x
_atom_site_fract_y
_atom_site_fract_z
Si Si1 0.500000 0.750871 0.750000
Si Si2 0.500000 0.192065 0.750000
Si Si3 0.054732 0.434834 0.442328
Si Si4 0.091694 0.874963 0.647426
Si Si5 0.530771 0.699000 0.938375
O O1 0.280180 0.646181 0.756715
O O2 0.363974 0.880156 0.694441
O O3 0.453512 0.303080 0.688638
O O4 0.516846 0.456553 0.392158
O O5 0.322126 0.368381 0.459890
O O6 0.993826 0.614728 0.406314
O O7 0.000000 0.500000 0.500000
O O8 0.079061 0.723696 0.599302
O O9 0.750000 0.750000 0.000000
#
# Coordination Sequence:
#
# PCOD9300421 Si02
#       5
#     4   4   8   8   8
#     4   8  20  54  99 139 191 271 334 421 509 594
#     4   8  20  54  99 139 191 271 334 421 509 594
#     4  12  31  56  91 141 195 268 333 420 524 622
#     4  10  26  56  98 134 204 251 356 410 522 619
#     4  12  31  56  91 141 195 268 333 420 524 622
#
# _framework density 30.801931
#
# number of rings (size 3 to 8) (size 9 to 14) (size 15 to 20)
#    1.500    0.000    0.000    1.500   10.500    2.000 
#    9.000    3.750   11.000    0.000    0.000    0.000 
#    0.000    0.000    0.000    0.000    0.000    0.000 
#
# Total GULP energy -89337.154147 kJ/mol
# GULP energy per Si atom -5583.572134 kJ/mol
# Density = 3.073182 g / cm^3
# Si number density = 30.801931 Si / 1000 Ang^3
#
#
#
# Elastic Constant Matrix: (Units=GPa)
#
#
# Indices 1 2 3 4 5 6 
#
# 1 275.4696 80.0459 70.3217 0.0000 14.9225 0.0000
# 2 80.0459 237.1312 29.4717 0.0000 11.5101 0.0000
# 3 70.3217 29.4717 173.0091 0.0000 4.7324 0.0000
# 4 0.0000 0.0000 0.0000 18.7738 0.0000 -29.6257
# 5 14.9225 11.5101 4.7324 0.0000 94.9164 0.0000
# 6 0.0000 0.0000 0.0000 -29.6257 0.0000 66.2678
#
#
#
# Elastic Compliance Matrix: (Units=1/GPa)
#
#
# Indices 1 2 3 4 5 6 
#
# 1 0.004427 -0.001277 -0.001569 0.000000 -0.000463 0.000000
# 2 -0.001277 0.004699 -0.000272 0.000000 -0.000356 0.000000
# 3 -0.001569 -0.000272 0.006465 0.000000 -0.000043 0.000000
# 4 0.000000 0.000000 0.000000 0.180855 0.000000 0.080853
# 5 -0.000463 -0.000356 -0.000043 0.000000 0.010654 0.000000
# 6 0.000000 0.000000 0.000000 0.080853 0.000000 0.051236
#
#
# Mechanical properties :
#
#
# Convention : Reuss Voigt Hill
#
# Bulk Modulus (GPa) = 106.88658 116.14317 111.51488
# Shear Modulus (GPa) = 18.67832 69.70964 44.19398
#
# Velocity S-wave (km/s) = 2.46519 4.76243 3.79196
# Velocity P-wave (km/s) = 6.54824 8.24799 7.44677
#
# Compressibility (1/GPa) = 0.00935571
#
# Stress axis : x y z
#
# Youngs Moduli (GPa) = 225.89477 212.80593 154.67140
#
# Poissons Ratio (x) = 0.27172 0.24271
# Poissons Ratio (y) = 0.28843 0.04204
# Poissons Ratio (z) = 0.35447 0.05784
#
# Static dielectric constant tensor:
#      x y z
#    x 3.318810 0.000000 -0.088360 
#    y 0.000000 3.194640 0.000000 
#    z -0.088360 0.000000 2.573120 
# 
# From -- ./inp_files/259796.got.cif
#   From: 2010.05.17/outbox.cif.g08.bks.cpg/sg15_130_cif.got.tgz:259796.got - 2010.06.03 18:47:42.
