data_PCOD9300160
_publ_section_title
;
Structure prediction by ZEFSAII (Michael W. Deem and Ramdas Pophale) SiO2 
 PCOD9300160
Probable space group: C 2/C
;
_chemical_formula_sum "Si O2"
_cell_formula_units_Z 56
_cell_length_a 11.043071
_cell_length_b 15.549792
_cell_length_c 14.615007
_cell_angle_alpha 90.000000
_cell_angle_beta 118.966169
_cell_angle_gamma 90.000000
_cell_volume 2195.708990
_symmetry_space_group_name_H-M "C 2/C"
_symmetry_group_IT_number 15
_symmetry_cell_setting 'monoclinic'
loop_
_space_group_symop_operation_xyz
x,y,z
-x,y,1/2-z
-x,-y,-z
x,-y,1/2+z
1/2+x,1/2+y,z
1/2-x,1/2+y,1/2-z
1/2-x,1/2-y,-z
1/2+x,1/2-y,1/2+z
loop_
_atom_site_type_symbol
_atom_site_label
_atom_site_fract_x
_atom_site_fract_y
_atom_site_fract_z
Si Si1 0.500000 0.350809 0.750000
Si Si2 0.259335 0.581575 0.261993
Si Si3 0.961796 0.524981 0.087297
Si Si4 0.802327 0.891842 0.328460
Si Si5 0.000000 0.389963 0.250000
Si Si6 0.875552 0.293579 0.537263
Si Si7 0.095081 0.222998 0.474780
Si Si8 0.136100 0.754984 0.291694
O O1 0.637532 0.406067 0.784483
O O2 0.475763 0.300260 0.647027
O O3 0.105248 0.556783 0.180771
O O4 0.310454 0.495191 0.331487
O O5 0.233347 0.675569 0.294554
O O6 0.934202 0.444407 0.141590
O O7 0.856540 0.603910 0.051367
O O8 0.000000 0.500000 0.000000
O O9 0.644837 0.852989 0.269208
O O10 0.881600 0.855128 0.445433
O O11 0.855637 0.848426 0.254268
O O12 0.730657 0.271244 0.424319
O O13 0.994138 0.283353 0.499417
O O14 0.984128 0.269748 0.669137
O O15 0.250000 0.250000 0.500000
#
# Coordination Sequence:
#
# PCOD9300160 Si02
#       8
#     4   8   8   8   4   8   8   8
#     4  12  28  49  74 109 168 198 258 329 400 463
#     4  11  26  49  74 113 155 212 258 325 402 469
#     4  11  24  46  71 110 154 204 261 328 391 477
#     4  11  26  46  82 115 152 208 267 322 399 475
#     4  10  26  45  78 113 152 204 272 321 390 483
#     4  12  26  43  76 113 147 202 266 321 398 460
#     4  12  28  50  76 114 157 210 258 328 401 480
#     4  12  23  49  76 103 158 197 257 330 387 458
#
# _framework density 25.504290999999998
#
# number of rings (size 3 to 8) (size 9 to 14) (size 15 to 20)
#    0.000    0.571    2.857    4.286   10.000    2.857 
#    0.000    0.000    0.000    0.000    0.000    0.000 
#    0.000    0.000    0.000    0.000    0.000    0.000 
#
# Total GULP energy -156179.145825 kJ/mol
# GULP energy per Si atom -5577.826637 kJ/mol
# Density = 2.544624 g / cm^3
# Si number density = 25.504291 Si / 1000 Ang^3
#
#
#
# Elastic Constant Matrix: (Units=GPa)
#
#
# Indices 1 2 3 4 5 6 
#
# 1 137.4080 15.2231 11.9761 0.0000 -6.9010 0.0000
# 2 15.2231 80.8259 31.3501 0.0000 3.2540 0.0000
# 3 11.9761 31.3501 143.6830 0.0000 -25.0843 0.0000
# 4 0.0000 0.0000 0.0000 22.9658 0.0000 -18.0832
# 5 -6.9010 3.2540 -25.0843 0.0000 47.4230 0.0000
# 6 0.0000 0.0000 0.0000 -18.0832 0.0000 15.3511
#
#
#
# Elastic Compliance Matrix: (Units=1/GPa)
#
#
# Indices 1 2 3 4 5 6 
#
# 1 0.007501 -0.001411 -0.000121 0.000000 0.001124 0.000000
# 2 -0.001411 0.014113 -0.003489 0.000000 -0.003019 0.000000
# 3 -0.000121 -0.003489 0.008560 0.000000 0.004750 0.000000
# 4 0.000000 0.000000 0.000000 0.600880 0.000000 0.707821
# 5 0.001124 -0.003019 0.004750 0.000000 0.023970 0.000000
# 6 0.000000 0.000000 0.000000 0.707821 0.000000 0.898935
#
#
# Mechanical properties :
#
#
# Convention : Reuss Voigt Hill
#
# Bulk Modulus (GPa) = 49.67137 53.22393 51.44765
# Shear Modulus (GPa) = 3.18327 37.37248 20.27788
#
# Velocity S-wave (km/s) = 1.11841 3.83213 2.82277
# Velocity P-wave (km/s) = 4.60280 6.36351 5.55338
#
# Compressibility (1/GPa) = 0.02013232
#
# Stress axis : x y z
#
# Youngs Moduli (GPa) = 133.31653 70.85788 116.81891
#
# Poissons Ratio (x) = 0.09999 0.01414
# Poissons Ratio (y) = 0.18812 0.40755
# Poissons Ratio (z) = 0.01614 0.24720
#
# Static dielectric constant tensor:
#      x y z
#    x 2.060400 0.000000 0.006520 
#    y 0.000000 2.056590 0.000000 
#    z 0.006520 0.000000 2.029250 
# 
# From -- ./inp_files/155261.got.cif
#   From: 2010.05.17/outbox.cif.g08.bks.cpg/sg15_78_cif.got.tgz:155261.got - 2010.06.03 18:47:42.
