data_PCOD9300758
_publ_section_title
;
Structure prediction by ZEFSAII (Michael W. Deem and Ramdas Pophale) SiO2 
 PCOD9300758
Probable space group: C 2/C
;
_chemical_formula_sum "Si O2"
_cell_formula_units_Z 48
_cell_length_a 6.718922
_cell_length_b 20.342685
_cell_length_c 25.560491
_cell_angle_alpha 90.000000
_cell_angle_beta 134.837187
_cell_angle_gamma 90.000000
_cell_volume 2477.380237
_symmetry_space_group_name_H-M "C 2/C"
_symmetry_group_IT_number 15
_symmetry_cell_setting 'monoclinic'
loop_
_space_group_symop_operation_xyz
x,y,z
-x,y,1/2-z
-x,-y,-z
x,-y,1/2+z
1/2+x,1/2+y,z
1/2-x,1/2+y,1/2-z
1/2-x,1/2-y,-z
1/2+x,1/2-y,1/2+z
loop_
_atom_site_type_symbol
_atom_site_label
_atom_site_fract_x
_atom_site_fract_y
_atom_site_fract_z
Si Si1 0.217641 0.662975 0.177969
Si Si2 0.849118 0.775085 0.961797
Si Si3 0.939318 0.546397 0.182020
Si Si4 0.766907 0.541657 0.839241
Si Si5 0.605767 0.145628 0.958341
Si Si6 0.824788 0.924561 0.597083
O O1 0.500000 0.698002 0.250000
O O2 0.270895 0.630483 0.131182
O O3 0.930256 0.702079 0.120078
O O4 0.160976 0.603051 0.207893
O O5 0.980304 0.712910 0.957008
O O6 0.750000 0.750000 0.000000
O O7 0.087796 0.832487 0.007438
O O8 0.635487 0.577194 0.131021
O O9 0.000000 0.517074 0.250000
O O10 0.978654 0.493145 0.144746
O O11 0.500000 0.542913 0.750000
O O12 0.706509 0.493559 0.877568
O O13 0.886347 0.611605 0.878681
O O14 0.637454 0.094262 0.012492
#
# Coordination Sequence:
#
# PCOD9300758 Si02
#       6
#     8   8   8   8   8   8
#     4  11  21  37  66  98 120 160 221 264 307 365
#     4  11  24  45  63  88 128 170 217 260 304 371
#     4  11  19  37  64  93 127 162 199 257 320 367
#     4  11  24  41  62  98 131 159 206 257 316 383
#     4  11  25  43  65  90 127 173 209 258 314 374
#     4  11  20  39  68  93 123 163 207 261 312 376
#
# _framework density 19.375306999999999
#
# number of rings (size 3 to 8) (size 9 to 14) (size 15 to 20)
#    0.000    1.000    6.667    1.500    0.000    2.000 
#    3.000    0.000    0.000    0.000    0.000    0.000 
#    0.000    0.000    0.000    0.000    0.000    0.000 
#
# Total GULP energy -133831.059056 kJ/mol
# GULP energy per Si atom -5576.294127 kJ/mol
# Density = 1.933121 g / cm^3
# Si number density = 19.375307 Si / 1000 Ang^3
#
#
#
# Elastic Constant Matrix: (Units=GPa)
#
#
# Indices 1 2 3 4 5 6 
#
# 1 110.7784 25.3508 32.4186 -0.0001 3.9450 -0.0001
# 2 25.3508 65.5365 42.6260 0.0000 4.9181 0.0000
# 3 32.4186 42.6260 93.2606 0.0000 13.9003 0.0000
# 4 -0.0001 0.0000 0.0000 30.5459 0.0000 1.7733
# 5 3.9450 4.9181 13.9003 0.0000 30.1953 0.0000
# 6 -0.0001 0.0000 0.0000 1.7733 0.0000 9.5031
#
#
#
# Elastic Compliance Matrix: (Units=1/GPa)
#
#
# Indices 1 2 3 4 5 6 
#
# 1 0.010300 -0.002349 -0.002537 0.000000 0.000205 0.000000
# 2 -0.002349 0.022284 -0.009527 0.000000 0.001063 0.000000
# 3 -0.002537 -0.009527 0.016833 0.000000 -0.005866 0.000000
# 4 0.000000 0.000000 0.000000 0.033096 0.000000 -0.006176
# 5 0.000205 0.001063 -0.005866 0.000000 0.035618 0.000000
# 6 0.000000 0.000000 0.000000 -0.006176 0.000000 0.106381
#
#
# Mechanical properties :
#
#
# Convention : Reuss Voigt Hill
#
# Bulk Modulus (GPa) = 48.56651 52.26292 50.41471
# Shear Modulus (GPa) = 19.21570 25.32753 22.27161
#
# Velocity S-wave (km/s) = 3.15264 3.61945 3.39408
# Velocity P-wave (km/s) = 6.19458 6.67082 6.43710
#
# Compressibility (1/GPa) = 0.02059032
#
# Stress axis : x y z
#
# Youngs Moduli (GPa) = 97.08890 44.87475 59.40582
#
# Poissons Ratio (x) = 0.10543 0.15072
# Poissons Ratio (y) = 0.22810 0.56596
# Poissons Ratio (z) = 0.24632 0.42753
#
# Static dielectric constant tensor:
#      x y z
#    x 1.685140 0.000000 0.018550 
#    y 0.000000 1.675480 0.000000 
#    z 0.018550 0.000000 1.729490 
# 
# From -- ./inp_files/261297.got.cif
#   From: 2010.05.17/outbox.cif.g08.bks.cpg/sg15_131_cif.got.tgz:261297.got - 2010.06.03 18:47:42.
