data_PCOD9300156
_publ_section_title
;
Structure prediction by ZEFSAII (Michael W. Deem and Ramdas Pophale) SiO2 
 PCOD9300156
Probable space group: C 2/C
;
_chemical_formula_sum "Si O2"
_cell_formula_units_Z 56
_cell_length_a 13.915275
_cell_length_b 11.947823
_cell_length_c 27.827399
_cell_angle_alpha 90.000000
_cell_angle_beta 32.461263
_cell_angle_gamma 90.000000
_cell_volume 2483.181565
_symmetry_space_group_name_H-M "C 2/C"
_symmetry_group_IT_number 15
_symmetry_cell_setting 'monoclinic'
loop_
_space_group_symop_operation_xyz
x,y,z
-x,y,1/2-z
-x,-y,-z
x,-y,1/2+z
1/2+x,1/2+y,z
1/2-x,1/2+y,1/2-z
1/2-x,1/2-y,-z
1/2+x,1/2-y,1/2+z
loop_
_atom_site_type_symbol
_atom_site_label
_atom_site_fract_x
_atom_site_fract_y
_atom_site_fract_z
Si Si1 0.918050 0.772263 0.962486
Si Si2 0.500000 0.542526 0.250000
Si Si3 0.564906 0.085921 0.327045
Si Si4 0.909912 0.462740 0.088423
Si Si5 0.936611 0.811524 0.411522
Si Si6 0.377547 0.400445 0.073265
Si Si7 0.000000 0.496615 0.750000
Si Si8 0.032142 0.047193 0.339919
O O1 0.042673 0.665084 0.918323
O O2 0.004974 0.875044 0.897266
O O3 0.750000 0.750000 0.000000
O O4 0.851727 0.813354 0.041646
O O5 0.693700 0.480420 0.174237
O O6 0.486920 0.602932 0.307448
O O7 0.564785 0.219366 0.333337
O O8 0.757166 0.027465 0.246024
O O9 0.499159 0.034608 0.405963
O O10 0.480494 0.064526 0.310267
O O11 0.000000 0.500000 0.000000
O O12 0.750000 0.750000 0.500000
O O13 0.014005 0.844587 0.430036
O O14 0.931563 0.928516 0.385116
O O15 0.185220 0.436946 0.173833
O O16 0.500000 0.500000 0.000000
#
# Coordination Sequence:
#
# PCOD9300156 Si02
#       8
#     8   4   8   8   8   8   4   8
#     4  12  26  44  78 104 154 195 247 314 380 453
#     4  10  26  45  75 102 152 190 255 315 374 454
#     4  11  26  46  73 105 150 197 249 312 383 457
#     4  11  25  49  75 112 148 200 255 313 387 457
#     4  12  27  45  77 107 154 199 255 319 386 456
#     4  12  25  49  73 114 148 200 254 312 377 457
#     4  12  24  47  75 106 160 192 261 311 380 466
#     4  11  26  49  69 112 145 196 259 309 385 460
#
# _framework density 22.551712999999999
#
# number of rings (size 3 to 8) (size 9 to 14) (size 15 to 20)
#    0.000    0.571    2.857    3.429   10.000    2.857 
#    0.000    2.143    0.000    0.000    0.000    0.000 
#    0.000    0.000    0.000    0.000    0.000    0.000 
#
# Total GULP energy -156315.146599 kJ/mol
# GULP energy per Si atom -5582.683807 kJ/mol
# Density = 2.250038 g / cm^3
# Si number density = 22.551713 Si / 1000 Ang^3
#
#
#
# Elastic Constant Matrix: (Units=GPa)
#
#
# Indices 1 2 3 4 5 6 
#
# 1 178.7147 32.9520 38.1902 0.0000 26.9425 -0.0001
# 2 32.9520 100.0524 38.1259 0.0002 5.7665 0.0004
# 3 38.1902 38.1259 108.8684 0.0007 -5.5484 0.0018
# 4 0.0000 0.0002 0.0007 76.8444 0.0000 91.6618
# 5 26.9425 5.7665 -5.5484 0.0000 53.2652 0.0001
# 6 -0.0001 0.0004 0.0018 91.6618 0.0001 187.4619
#
#
#
# Elastic Compliance Matrix: (Units=1/GPa)
#
#
# Indices 1 2 3 4 5 6 
#
# 1 0.006812 -0.001224 -0.002141 0.000000 -0.003536 0.000000
# 2 -0.001224 0.011905 -0.003794 0.000000 -0.001065 0.000000
# 3 -0.002141 -0.003794 0.011402 0.000000 0.002681 0.000000
# 4 0.000000 0.000000 0.000000 0.031225 0.000000 -0.015268
# 5 -0.003536 -0.001065 0.002681 0.000000 0.020957 0.000000
# 6 0.000000 0.000000 0.000000 -0.015268 0.000000 0.012800
#
#
# Mechanical properties :
#
#
# Convention : Reuss Voigt Hill
#
# Bulk Modulus (GPa) = 63.28901 67.35242 65.32072
# Shear Modulus (GPa) = 43.59726 82.07214 62.83470
#
# Velocity S-wave (km/s) = 4.40160 6.03919 5.28422
# Velocity P-wave (km/s) = 7.34554 8.86339 8.13993
#
# Compressibility (1/GPa) = 0.01580053
#
# Stress axis : x y z
#
# Youngs Moduli (GPa) = 146.80429 83.99849 87.70479
#
# Poissons Ratio (x) = 0.10279 0.18779
# Poissons Ratio (y) = 0.17965 0.33277
# Poissons Ratio (z) = 0.31433 0.31870
#
# Static dielectric constant tensor:
#      x y z
#    x 1.792320 0.000000 -0.069110 
#    y 0.000000 1.297270 -0.000010 
#    z -0.069110 -0.000010 1.480710 
# 
# From -- ./inp_files/313758.got.cif
#   From: 2010.05.17/outbox.cif.g08.bks.cpg/sg15_157_cif.got.tgz:313758.got - 2010.06.03 18:47:42.
