data_PCOD9300307
_publ_section_title
;
Structure prediction by ZEFSAII (Michael W. Deem and Ramdas Pophale) SiO2 
 PCOD9300307
Probable space group: C 2/C
;
_chemical_formula_sum "Si O2"
_cell_formula_units_Z 28
_cell_length_a 12.192131
_cell_length_b 16.317392
_cell_length_c 10.430727
_cell_angle_alpha 90.000000
_cell_angle_beta 31.700485
_cell_angle_gamma 90.000000
_cell_volume 1090.436021
_symmetry_space_group_name_H-M "C 2/C"
_symmetry_group_IT_number 15
_symmetry_cell_setting 'monoclinic'
loop_
_space_group_symop_operation_xyz
x,y,z
-x,y,1/2-z
-x,-y,-z
x,-y,1/2+z
1/2+x,1/2+y,z
1/2-x,1/2+y,1/2-z
1/2-x,1/2-y,-z
1/2+x,1/2-y,1/2+z
loop_
_atom_site_type_symbol
_atom_site_label
_atom_site_fract_x
_atom_site_fract_y
_atom_site_fract_z
Si Si1 0.500000 0.609014 0.250000
Si Si2 0.823877 0.682080 0.117815
Si Si3 0.321194 0.062271 0.722295
Si Si4 0.470013 0.661069 0.636057
O O1 0.661805 0.668319 0.163633
O O2 0.359166 0.555791 0.489324
O O3 0.695191 0.635632 0.358674
O O4 0.886635 0.766561 0.125520
O O5 0.036364 0.637787 0.872244
O O6 0.195174 0.089356 0.720343
O O7 0.500000 0.000000 0.500000
O O8 0.500000 0.690084 0.750000
#
# Coordination Sequence:
#
# PCOD9300307 Si02
#       4
#     4   8   8   8
#     4  10  26  48  74 114 152 198 264 314 388 458
#     4  11  23  45  74 110 153 194 256 317 383 449
#     4  11  26  50  74 110 159 206 257 315 392 455
#     4  11  24  45  77 114 152 203 261 313 380 458
#
# _framework density 25.677802
#
# number of rings (size 3 to 8) (size 9 to 14) (size 15 to 20)
#    0.000    1.143    2.857    1.714    0.000    9.143 
#   15.429    0.000    0.000    0.000    0.000    0.000 
#    0.000    0.000    0.000    0.000    0.000    0.000 
#
# Total GULP energy -78176.446218 kJ/mol
# GULP energy per Si atom -5584.031873 kJ/mol
# Density = 2.561936 g / cm^3
# Si number density = 25.677802 Si / 1000 Ang^3
#
#
#
# Elastic Constant Matrix: (Units=GPa)
#
#
# Indices 1 2 3 4 5 6 
#
# 1 156.1827 49.4615 79.3724 -0.0056 2.0355 0.0047
# 2 49.4615 95.0448 79.0581 -0.0019 -5.3874 0.0010
# 3 79.3724 79.0581 178.3068 -0.0046 -24.8156 0.0022
# 4 -0.0056 -0.0019 -0.0046 44.9246 0.0034 -21.2463
# 5 2.0355 -5.3874 -24.8156 0.0034 46.8055 -0.0020
# 6 0.0047 0.0010 0.0022 -21.2463 -0.0020 41.5443
#
#
#
# Elastic Compliance Matrix: (Units=1/GPa)
#
#
# Indices 1 2 3 4 5 6 
#
# 1 0.008754 -0.001857 -0.003407 0.000001 -0.002401 -0.000001
# 2 -0.001857 0.017268 -0.007063 0.000000 -0.001676 0.000000
# 3 -0.003407 -0.007063 0.010974 0.000000 0.005153 0.000000
# 4 0.000001 0.000000 0.000000 0.029361 -0.000001 0.015016
# 5 -0.002401 -0.001676 0.005153 -0.000001 0.024009 0.000000
# 6 -0.000001 0.000000 0.000000 0.015016 0.000000 0.031750
#
#
# Mechanical properties :
#
#
# Convention : Reuss Voigt Hill
#
# Bulk Modulus (GPa) = 81.03424 93.92427 87.47926
# Shear Modulus (GPa) = 33.13825 41.43103 37.28464
#
# Velocity S-wave (km/s) = 3.59631 4.02119 3.81467
# Velocity P-wave (km/s) = 6.99079 7.63003 7.31740
#
# Compressibility (1/GPa) = 0.01234046
#
# Stress axis : x y z
#
# Youngs Moduli (GPa) = 114.23468 57.91190 91.12652
#
# Poissons Ratio (x) = 0.10757 0.31050
# Poissons Ratio (y) = 0.21218 0.64359
# Poissons Ratio (z) = 0.38924 0.40901
#
# Static dielectric constant tensor:
#      x y z
#    x 1.988490 0.000000 0.007920 
#    y 0.000000 2.165680 0.000000 
#    z 0.007920 0.000000 2.020310 
# 
# From -- ./inp_files/29995.got.cif
#   From: 2010.05.17/outbox.cif.g08.bks.cpg/sg15_15_cif.got.tgz:29995.got - 2010.06.03 18:47:42.
