data_PCOD9300740
_publ_section_title
;
Structure prediction by ZEFSAII (Michael W. Deem and Ramdas Pophale) SiO2 
 PCOD9300740
Probable space group: C 2/C
;
_chemical_formula_sum "Si O2"
_cell_formula_units_Z 56
_cell_length_a 22.506732
_cell_length_b 20.309164
_cell_length_c 11.979052
_cell_angle_alpha 90.000000
_cell_angle_beta 30.699707
_cell_angle_gamma 90.000000
_cell_volume 2795.473966
_symmetry_space_group_name_H-M "C 2/C"
_symmetry_group_IT_number 15
_symmetry_cell_setting 'monoclinic'
loop_
_space_group_symop_operation_xyz
x,y,z
-x,y,1/2-z
-x,-y,-z
x,-y,1/2+z
1/2+x,1/2+y,z
1/2-x,1/2+y,1/2-z
1/2-x,1/2-y,-z
1/2+x,1/2-y,1/2+z
loop_
_atom_site_type_symbol
_atom_site_label
_atom_site_fract_x
_atom_site_fract_y
_atom_site_fract_z
Si Si1 0.355656 0.421143 0.100211
Si Si2 0.067758 0.261197 0.817622
Si Si3 0.597467 0.226554 0.526997
Si Si4 0.350563 0.313351 0.651778
Si Si5 0.264650 0.638587 0.974678
Si Si6 0.876189 0.942965 0.488684
Si Si7 0.386397 0.645160 0.340197
O O1 0.292302 0.387389 0.306086
O O2 0.334572 0.499333 0.137744
O O3 0.489875 0.392267 0.885823
O O4 0.317196 0.402646 0.035754
O O5 0.136341 0.328807 0.685504
O O6 0.148092 0.200770 0.645632
O O7 0.058076 0.254114 0.967451
O O8 0.936443 0.247691 0.989792
O O9 0.500000 0.184759 0.750000
O O10 0.723013 0.195556 0.309493
O O11 0.611688 0.289242 0.585502
O O12 0.406205 0.377657 0.508394
O O13 0.335832 0.330651 0.805649
O O14 0.296335 0.582472 0.015038
O O15 0.000000 0.970932 0.250000
#
# Coordination Sequence:
#
# PCOD9300740 Si02
#       7
#     8   8   8   8   8   8   8
#     4  11  21  38  61  87 131 166 210 263 311 367
#     4  11  21  38  61  86 135 165 200 264 309 385
#     4  12  21  39  61  93 128 159 206 259 319 378
#     4  12  24  37  61  98 127 165 205 257 325 378
#     4  11  22  39  56  88 134 169 203 258 322 367
#     4  12  23  35  59  95 129 163 209 264 314 373
#     4  11  19  37  55  90 123 157 205 257 312 360
#
# _framework density 20.032381000000001
#
# number of rings (size 3 to 8) (size 9 to 14) (size 15 to 20)
#    0.000    0.571   10.000    0.429    2.000    1.143 
#    0.000    0.000    0.000    0.000    3.714    3.000 
#    4.286    0.000    0.000    0.000    0.000    0.000 
#
# Total GULP energy -156030.463979 kJ/mol
# GULP energy per Si atom -5572.516571 kJ/mol
# Density = 1.998679 g / cm^3
# Si number density = 20.032381 Si / 1000 Ang^3
#
#
#
# Elastic Constant Matrix: (Units=GPa)
#
#
# Indices 1 2 3 4 5 6 
#
# 1 33.7300 11.7308 21.7686 -0.0001 8.0127 0.0000
# 2 11.7308 72.1951 27.1082 -0.0001 3.2150 0.0000
# 3 21.7686 27.1082 78.1509 -0.0001 4.6594 0.0001
# 4 -0.0001 -0.0001 -0.0001 23.4215 0.0001 11.7474
# 5 8.0127 3.2150 4.6594 0.0001 34.4636 -0.0001
# 6 0.0000 0.0000 0.0001 11.7474 -0.0001 21.6549
#
#
#
# Elastic Compliance Matrix: (Units=1/GPa)
#
#
# Indices 1 2 3 4 5 6 
#
# 1 0.038301 -0.002361 -0.009408 0.000000 -0.007413 0.000000
# 2 -0.002361 0.016090 -0.004906 0.000000 -0.000289 0.000000
# 3 -0.009408 -0.004906 0.017098 0.000000 0.000333 0.000000
# 4 0.000000 0.000000 0.000000 0.058655 0.000000 -0.031819
# 5 -0.007413 -0.000289 0.000333 0.000000 0.030721 0.000000
# 6 0.000000 0.000000 0.000000 -0.031819 0.000000 0.063440
#
#
# Mechanical properties :
#
#
# Convention : Reuss Voigt Hill
#
# Bulk Modulus (GPa) = 26.21967 33.92123 30.07045
# Shear Modulus (GPa) = 18.49327 24.13923 21.31625
#
# Velocity S-wave (km/s) = 3.04167 3.47509 3.26558
# Velocity P-wave (km/s) = 5.04507 5.75080 5.40945
#
# Compressibility (1/GPa) = 0.03813930
#
# Stress axis : x y z
#
# Youngs Moduli (GPa) = 26.10929 62.15003 58.48572
#
# Poissons Ratio (x) = 0.14673 0.55021
# Poissons Ratio (y) = 0.06164 0.28695
# Poissons Ratio (z) = 0.24563 0.30493
#
# Static dielectric constant tensor:
#      x y z
#    x 1.779900 0.000000 -0.022310 
#    y 0.000000 1.744920 0.000000 
#    z -0.022310 0.000000 1.775660 
# 
# From -- ./inp_files/119816.got.cif
#   From: 2010.05.17/outbox.cif.g08.bks.cpg/sg15_60_cif.got.tgz:119816.got - 2010.06.03 18:47:42.
