data_PCOD9300122
_publ_section_title
;
Structure prediction by ZEFSAII (Michael W. Deem and Ramdas Pophale) SiO2 
 PCOD9300122
Probable space group: C 2/C
;
_chemical_formula_sum "Si O2"
_cell_formula_units_Z 44
_cell_length_a 25.778100
_cell_length_b 11.176710
_cell_length_c 11.280886
_cell_angle_alpha 90.000000
_cell_angle_beta 39.010357
_cell_angle_gamma 90.000000
_cell_volume 2045.864320
_symmetry_space_group_name_H-M "C 2/C"
_symmetry_group_IT_number 15
_symmetry_cell_setting 'monoclinic'
loop_
_space_group_symop_operation_xyz
x,y,z
-x,y,1/2-z
-x,-y,-z
x,-y,1/2+z
1/2+x,1/2+y,z
1/2-x,1/2+y,1/2-z
1/2-x,1/2-y,-z
1/2+x,1/2-y,1/2+z
loop_
_atom_site_type_symbol
_atom_site_label
_atom_site_fract_x
_atom_site_fract_y
_atom_site_fract_z
Si Si1 0.500000 0.075995 0.750000
Si Si2 0.404535 0.478545 0.700526
Si Si3 0.871151 0.613614 0.548724
Si Si4 0.818342 0.205095 0.970949
Si Si5 0.127200 0.711170 0.688934
Si Si6 0.241093 0.926142 0.702733
O O1 0.551798 0.152635 0.751202
O O2 0.561191 0.989670 0.570434
O O3 0.500000 0.500000 0.500000
O O4 0.384723 0.353806 0.803205
O O5 0.348268 0.463941 0.683843
O O6 0.368283 0.592941 0.832446
O O7 0.880563 0.697405 0.415995
O O8 0.872743 0.681362 0.670850
O O9 0.787214 0.542866 0.669164
O O10 0.766673 0.164339 0.176212
O O11 0.750000 0.250000 0.000000
O O12 0.206675 0.643238 0.491554
#
# Coordination Sequence:
#
# PCOD9300122 Si02
#       6
#     4   8   8   8   8   8
#     4  10  26  44  74 106 144 188 246 310 362 442
#     4  12  28  45  73 109 152 194 238 306 373 435
#     4  11  24  45  76 104 142 193 252 303 359 441
#     4  12  27  45  75 111 148 192 248 304 369 441
#     4  11  25  50  73 107 143 195 245 301 369 439
#     4  11  25  47  76 105 143 197 247 303 364 438
#
# _framework density 21.506802
#
# number of rings (size 3 to 8) (size 9 to 14) (size 15 to 20)
#    0.000    0.727    3.636    2.182    7.636    5.091 
#    0.000    0.000    0.000    0.000    0.000    0.000 
#    0.000    0.000    0.000    0.000    0.000    0.000 
#
# Total GULP energy -122998.695395 kJ/mol
# GULP energy per Si atom -5590.849791 kJ/mol
# Density = 2.145785 g / cm^3
# Si number density = 21.506802 Si / 1000 Ang^3
#
#
#
# Elastic Constant Matrix: (Units=GPa)
#
#
# Indices 1 2 3 4 5 6 
#
# 1 151.9371 55.9969 68.6773 0.0000 -15.1571 0.0000
# 2 55.9969 120.4380 37.2049 0.0000 -23.1539 0.0000
# 3 68.6773 37.2049 76.1907 0.0000 -20.3684 0.0000
# 4 0.0000 0.0000 0.0000 37.3372 0.0000 8.4936
# 5 -15.1571 -23.1539 -20.3684 0.0000 31.4193 0.0000
# 6 0.0000 0.0000 0.0000 8.4936 0.0000 32.9572
#
#
#
# Elastic Compliance Matrix: (Units=1/GPa)
#
#
# Indices 1 2 3 4 5 6 
#
# 1 0.011967 -0.003017 -0.010118 0.000000 -0.003010 0.000000
# 2 -0.003017 0.011226 -0.001137 0.000000 0.006080 0.000000
# 3 -0.010118 -0.001137 0.025731 0.000000 0.010962 0.000000
# 4 0.000000 0.000000 0.000000 0.028451 0.000000 -0.007332
# 5 -0.003010 0.006080 0.010962 0.000000 0.041963 0.000000
# 6 0.000000 0.000000 0.000000 -0.007332 0.000000 0.032232
#
#
# Mechanical properties :
#
#
# Convention : Reuss Voigt Hill
#
# Bulk Modulus (GPa) = 49.06813 74.70268 61.88540
# Shear Modulus (GPa) = 26.75137 32.78852 29.76995
#
# Velocity S-wave (km/s) = 3.53066 3.90880 3.72453
# Velocity P-wave (km/s) = 6.28375 7.42843 6.87993
#
# Compressibility (1/GPa) = 0.02037983
#
# Stress axis : x y z
#
# Youngs Moduli (GPa) = 83.56431 89.08042 38.86368
#
# Poissons Ratio (x) = 0.26874 0.39323
# Poissons Ratio (y) = 0.25210 0.04418
# Poissons Ratio (z) = 0.84552 0.10127
#
# Static dielectric constant tensor:
#      x y z
#    x 1.843800 0.000000 -0.081160 
#    y 0.000000 1.872540 0.000000 
#    z -0.081160 0.000000 1.832590 
# 
# From -- ./inp_files/117889.got.cif
#   From: 2010.05.17/outbox.cif.g08.bks.cpg/sg15_59_cif.got.tgz:117889.got - 2010.06.03 18:47:42.
