data_PCOD9300644
_publ_section_title
;
Structure prediction by ZEFSAII (Michael W. Deem and Ramdas Pophale) SiO2 
 PCOD9300644
Probable space group: C 2/C
;
_chemical_formula_sum "Si O2"
_cell_formula_units_Z 44
_cell_length_a 14.936489
_cell_length_b 16.396816
_cell_length_c 8.376798
_cell_angle_alpha 90.000000
_cell_angle_beta 122.381088
_cell_angle_gamma 90.000000
_cell_volume 1732.559598
_symmetry_space_group_name_H-M "C 2/C"
_symmetry_group_IT_number 15
_symmetry_cell_setting 'monoclinic'
loop_
_space_group_symop_operation_xyz
x,y,z
-x,y,1/2-z
-x,-y,-z
x,-y,1/2+z
1/2+x,1/2+y,z
1/2-x,1/2+y,1/2-z
1/2-x,1/2-y,-z
1/2+x,1/2-y,1/2+z
loop_
_atom_site_type_symbol
_atom_site_label
_atom_site_fract_x
_atom_site_fract_y
_atom_site_fract_z
Si Si1 0.194146 0.762980 0.115995
Si Si2 0.000000 0.160675 0.250000
Si Si3 0.000000 0.750616 0.250000
Si Si4 0.883268 0.039888 0.365285
Si Si5 0.078055 0.618428 0.119261
Si Si6 0.313381 0.381138 0.130105
Si Si7 0.000000 0.485200 0.250000
O O1 0.075822 0.792975 0.947552
O O2 0.250000 0.750000 0.000000
O O3 0.178225 0.675399 0.184289
O O4 0.248776 0.823490 0.297158
O O5 0.086275 0.107840 0.235147
O O6 0.992676 0.684662 0.100217
O O7 0.095690 0.811551 0.309480
O O8 0.830471 0.076254 0.472394
O O9 0.818347 0.963779 0.238163
O O10 0.000000 0.000000 0.500000
O O11 0.086639 0.547828 0.260311
O O12 0.044612 0.571579 0.929897
#
# Coordination Sequence:
#
# PCOD9300644 Si02
#       7
#     8   4   4   8   8   8   4
#     4  11  24  41  58  86 123 163 205 255 308 369
#     4  12  22  36  66  90 124 164 202 250 312 376
#     4   9  15  28  47  79 106 150 180 229 299 344
#     4  12  17  32  60  97 123 160 201 245 315 381
#     4   9  18  32  56  78 108 140 191 247 290 348
#     4  11  19  32  55  87 129 157 197 249 299 376
#     4   9  17  34  57  85 100 140 198 243 297 348
#
# _framework density 25.395952000000001
#
# number of rings (size 3 to 8) (size 9 to 14) (size 15 to 20)
#    0.000    1.455    5.455    1.636    0.000    0.000 
#    0.000    4.545    0.000    0.000    0.000    0.000 
#    0.000    0.000    0.000    0.000    0.000    0.000 
#
# Total GULP energy -122510.933821 kJ/mol
# GULP energy per Si atom -5568.678810 kJ/mol
# Density = 2.533815 g / cm^3
# Si number density = 25.395952 Si / 1000 Ang^3
#
#
#
# Elastic Constant Matrix: (Units=GPa)
#
#
# Indices 1 2 3 4 5 6 
#
# 1 87.9001 60.4355 57.4009 0.0000 -29.6219 0.0000
# 2 60.4355 207.3004 105.6203 0.0000 -31.1957 0.0000
# 3 57.4009 105.6203 120.4696 0.0000 -50.0890 0.0000
# 4 0.0000 0.0000 0.0000 59.6338 0.0000 -32.9102
# 5 -29.6219 -31.1957 -50.0890 0.0000 48.8057 0.0000
# 6 0.0000 0.0000 0.0000 -32.9102 0.0000 8.2236
#
#
#
# Elastic Compliance Matrix: (Units=1/GPa)
#
#
# Indices 1 2 3 4 5 6 
#
# 1 0.017277 -0.002019 -0.004603 0.000000 0.004472 0.000000
# 2 -0.002019 0.009417 -0.009247 0.000000 -0.004696 0.000000
# 3 -0.004603 -0.009247 0.026134 0.000000 0.018117 0.000000
# 4 0.000000 0.000000 0.000000 -0.013875 0.000000 -0.055528
# 5 0.004472 -0.004696 0.018117 0.000000 0.038795 0.000000
# 6 0.000000 0.000000 0.000000 -0.055528 0.000000 -0.100617
#
#
# Mechanical properties :
#
#
# Convention : Reuss Voigt Hill
#
# Bulk Modulus (GPa) = 47.41400 95.84261 71.62830
# Shear Modulus (GPa) = 314.48290 36.14685 175.31487
#
# Velocity S-wave (km/s) = 11.14005 3.77680 8.31760
# Velocity P-wave (km/s) = 13.57122 7.53924 10.97767
#
# Compressibility (1/GPa) = 0.02109082
#
# Stress axis : x y z
#
# Youngs Moduli (GPa) = 57.87893 106.18881 38.26435
#
# Poissons Ratio (x) = 0.21437 0.17613
# Poissons Ratio (y) = 0.11685 0.35383
# Poissons Ratio (z) = 0.26642 0.98194
#
# Static dielectric constant tensor:
#      x y z
#    x 2.092410 0.000000 0.119580 
#    y 0.000000 1.945220 0.000000 
#    z 0.119580 0.000000 2.348190 
# 
# From -- ./inp_files/47043.got.cif
#   From: 2010.05.17/outbox.cif.g08.bks.cpg/sg15_24_cif.got.tgz:47043.got - 2010.06.03 18:47:42.
