data_PCOD9300781
_publ_section_title
;
Structure prediction by ZEFSAII (Michael W. Deem and Ramdas Pophale) SiO2 
 PCOD9300781
Probable space group: C 2/C
;
_chemical_formula_sum "Si O2"
_cell_formula_units_Z 36
_cell_length_a 18.607051
_cell_length_b 6.885039
_cell_length_c 17.940959
_cell_angle_alpha 90.000000
_cell_angle_beta 49.574124
_cell_angle_gamma 90.000000
_cell_volume 1749.662803
_symmetry_space_group_name_H-M "C 2/C"
_symmetry_group_IT_number 15
_symmetry_cell_setting 'monoclinic'
loop_
_space_group_symop_operation_xyz
x,y,z
-x,y,1/2-z
-x,-y,-z
x,-y,1/2+z
1/2+x,1/2+y,z
1/2-x,1/2+y,1/2-z
1/2-x,1/2-y,-z
1/2+x,1/2-y,1/2+z
loop_
_atom_site_type_symbol
_atom_site_label
_atom_site_fract_x
_atom_site_fract_y
_atom_site_fract_z
Si Si1 0.856145 0.419516 0.748558
Si Si2 0.000000 0.205511 0.750000
Si Si3 0.810440 0.594675 0.625033
Si Si4 0.257567 0.298603 0.080888
Si Si5 0.151515 0.841185 0.030937
O O1 0.860440 0.531372 0.667591
O O2 0.773205 0.252782 0.802067
O O3 0.828395 0.579116 0.828697
O O4 0.949195 0.322970 0.718181
O O5 0.085005 0.110930 0.645817
O O6 0.770638 0.393620 0.619201
O O7 0.873270 0.683980 0.516025
O O8 0.250000 0.250000 0.000000
O O9 0.338613 0.462347 0.023980
O O10 0.250000 0.750000 0.000000
#
# Coordination Sequence:
#
# PCOD9300781 Si02
#       5
#     8   4   8   8   8
#     4  11  23  38  69  95 132 169 217 266 324 386
#     4  12  22  44  64 100 130 168 218 276 318 388
#     4  11  21  41  66  96 129 177 214 263 328 393
#     4  11  19  38  66  92 125 178 215 255 326 387
#     4  11  22  40  65  93 135 170 213 270 326 386
#
# _framework density 20.575392999999998
#
# number of rings (size 3 to 8) (size 9 to 14) (size 15 to 20)
#    0.000    0.889    8.889    0.000    0.000    0.889 
#    0.000   11.111    0.000    0.000    0.000    0.000 
#    0.000    0.000    0.000    0.000    0.000    0.000 
#
# Total GULP energy -100216.066464 kJ/mol
# GULP energy per Si atom -5567.559248 kJ/mol
# Density = 2.052856 g / cm^3
# Si number density = 20.575393 Si / 1000 Ang^3
#
#
#
# Elastic Constant Matrix: (Units=GPa)
#
#
# Indices 1 2 3 4 5 6 
#
# 1 60.6022 -5.1774 9.7869 -0.0001 27.2355 0.0000
# 2 -5.1774 81.8433 2.4975 -0.0001 2.1097 -0.0004
# 3 9.7869 2.4975 95.5139 0.0000 10.1150 -0.0002
# 4 -0.0001 -0.0001 0.0000 22.9781 0.0000 19.2840
# 5 27.2355 2.1097 10.1150 0.0000 34.2785 0.0001
# 6 0.0000 -0.0004 -0.0002 19.2840 0.0001 19.3050
#
#
#
# Elastic Compliance Matrix: (Units=1/GPa)
#
#
# Indices 1 2 3 4 5 6 
#
# 1 0.026077 0.002200 -0.000538 0.000000 -0.020696 0.000001
# 2 0.002200 0.012429 -0.000293 -0.000001 -0.002426 0.000001
# 3 -0.000538 -0.000293 0.010824 -0.000001 -0.002748 0.000001
# 4 0.000000 -0.000001 -0.000001 0.269165 0.000001 -0.268871
# 5 -0.020696 -0.002426 -0.002748 0.000001 0.046576 -0.000001
# 6 0.000001 0.000001 0.000001 -0.268871 -0.000001 0.320378
#
#
# Mechanical properties :
#
#
# Convention : Reuss Voigt Hill
#
# Bulk Modulus (GPa) = 19.20647 28.01927 23.61287
# Shear Modulus (GPa) = 7.14217 30.70251 18.92234
#
# Velocity S-wave (km/s) = 1.86514 3.86709 3.03588
# Velocity P-wave (km/s) = 3.74076 5.79539 4.87749
#
# Compressibility (1/GPa) = 0.05206579
#
# Stress axis : x y z
#
# Youngs Moduli (GPa) = 38.34842 80.45637 92.39133
#
# Poissons Ratio (x) = -0.17696 0.04969
# Poissons Ratio (y) = -0.08435 0.02711
# Poissons Ratio (z) = 0.02062 0.02361
#
# Static dielectric constant tensor:
#      x y z
#    x 1.767040 0.000000 -0.010820 
#    y 0.000000 1.844820 0.000000 
#    z -0.010820 0.000000 1.795060 
# 
# From -- ./inp_files/213017.got.cif
#   From: 2010.05.17/outbox.cif.g08.bks.cpg/sg15_107_cif.got.tgz:213017.got - 2010.06.03 18:47:42.
