data_PCOD9300598
_publ_section_title
;
Structure prediction by ZEFSAII (Michael W. Deem and Ramdas Pophale) SiO2 
 PCOD9300598
Probable space group: C 2/C
;
_chemical_formula_sum "Si O2"
_cell_formula_units_Z 48
_cell_length_a 13.751254
_cell_length_b 19.208950
_cell_length_c 25.927092
_cell_angle_alpha 90.000000
_cell_angle_beta 157.793750
_cell_angle_gamma 90.000000
_cell_volume 2588.359791
_symmetry_space_group_name_H-M "C 2/C"
_symmetry_group_IT_number 15
_symmetry_cell_setting 'monoclinic'
loop_
_space_group_symop_operation_xyz
x,y,z
-x,y,1/2-z
-x,-y,-z
x,-y,1/2+z
1/2+x,1/2+y,z
1/2-x,1/2+y,1/2-z
1/2-x,1/2-y,-z
1/2+x,1/2-y,1/2+z
loop_
_atom_site_type_symbol
_atom_site_label
_atom_site_fract_x
_atom_site_fract_y
_atom_site_fract_z
Si Si1 0.889376 0.078330 0.252803
Si Si2 0.128085 0.621845 0.554198
Si Si3 0.494890 0.703526 0.374752
Si Si4 0.802302 0.213347 0.393676
Si Si5 0.615623 0.425957 0.227582
Si Si6 0.497519 0.706047 0.897804
O O1 0.030326 0.137274 0.355133
O O2 0.000000 0.062870 0.250000
O O3 0.883381 0.007678 0.282970
O O4 0.611993 0.108335 0.100254
O O5 0.169671 0.702671 0.588174
O O6 0.134697 0.585222 0.613206
O O7 0.367023 0.591200 0.640295
O O8 0.417783 0.688037 0.396287
O O9 0.750000 0.750000 0.500000
O O10 0.249435 0.745324 0.231917
O O11 0.500000 0.197002 0.250000
O O12 0.945281 0.188449 0.514982
O O13 0.579620 0.366149 0.167736
O O14 0.750000 0.750000 0.000000
#
# Coordination Sequence:
#
# PCOD9300598 Si02
#       6
#     8   8   8   8   8   8
#     4  12  25  37  59  91 131 164 194 250 324 377
#     4  11  18  37  59  89 122 150 203 254 311 354
#     4  12  26  39  60  94 134 165 205 251 315 381
#     4  12  21  40  67  92 121 160 223 264 296 368
#     4  11  22  36  62  96 120 153 202 266 309 360
#     4  12  21  40  67  93 120 164 215 259 303 369
#
# _framework density 18.544561999999999
#
# number of rings (size 3 to 8) (size 9 to 14) (size 15 to 20)
#    0.000    0.333   10.000    1.500    0.000    0.000 
#    0.000    0.833    0.000    0.000    0.000    0.000 
#    0.000    0.000    0.000    0.000    0.000    0.000 
#
# Total GULP energy -133854.784397 kJ/mol
# GULP energy per Si atom -5577.282683 kJ/mol
# Density = 1.850235 g / cm^3
# Si number density = 18.544562 Si / 1000 Ang^3
#
#
#
# Elastic Constant Matrix: (Units=GPa)
#
#
# Indices 1 2 3 4 5 6 
#
# 1 75.6729 21.9442 21.5966 -0.0046 -18.8691 -0.0099
# 2 21.9442 121.2460 33.3341 0.0076 -20.8558 0.0016
# 3 21.5966 33.3341 85.8042 0.0042 -12.8501 -0.0202
# 4 -0.0046 0.0076 0.0042 16.9752 -0.0107 -9.6319
# 5 -18.8691 -20.8558 -12.8501 -0.0107 36.2678 -0.0220
# 6 -0.0099 0.0016 -0.0202 -9.6319 -0.0220 46.6548
#
#
#
# Elastic Compliance Matrix: (Units=1/GPa)
#
#
# Indices 1 2 3 4 5 6 
#
# 1 0.015943 -0.001000 -0.002607 0.000015 0.006796 0.000008
# 2 -0.001000 0.009967 -0.002999 -0.000001 0.004149 0.000000
# 3 -0.002607 -0.002999 0.013743 0.000002 0.001789 0.000007
# 4 0.000015 -0.000001 0.000002 0.066726 0.000036 0.013776
# 5 0.006796 0.004149 0.001789 0.000036 0.034128 0.000026
# 6 0.000008 0.000000 0.000007 0.013776 0.000026 0.024278
#
#
# Mechanical properties :
#
#
# Convention : Reuss Voigt Hill
#
# Bulk Modulus (GPa) = 37.81782 48.49699 43.15740
# Shear Modulus (GPa) = 26.76504 33.70278 30.23391
#
# Velocity S-wave (km/s) = 3.80318 4.26772 4.04213
# Velocity P-wave (km/s) = 6.30260 7.10584 6.71624
#
# Compressibility (1/GPa) = 0.02644256
#
# Stress axis : x y z
#
# Youngs Moduli (GPa) = 62.72228 100.33316 72.76170
#
# Poissons Ratio (x) = 0.10032 0.18966
# Poissons Ratio (y) = 0.06271 0.21822
# Poissons Ratio (z) = 0.16349 0.30090
#
# Static dielectric constant tensor:
#      x y z
#    x 1.645730 -0.000010 -0.016510 
#    y -0.000010 1.664090 0.000000 
#    z -0.016510 0.000000 1.675720 
# 
# From -- ./inp_files/296957.got.cif
#   From: 2010.05.17/outbox.cif.g08.bks.cpg/sg15_149_cif.got.tgz:296957.got - 2010.06.03 18:47:42.
