data_PCOD9300280
_publ_section_title
;
Structure prediction by ZEFSAII (Michael W. Deem and Ramdas Pophale) SiO2 
 PCOD9300280
Probable space group: C 2/C
;
_chemical_formula_sum "Si O2"
_cell_formula_units_Z 36
_cell_length_a 21.918395
_cell_length_b 5.153658
_cell_length_c 20.187539
_cell_angle_alpha 90.000000
_cell_angle_beta 42.097152
_cell_angle_gamma 90.000000
_cell_volume 1528.745107
_symmetry_space_group_name_H-M "C 2/C"
_symmetry_group_IT_number 15
_symmetry_cell_setting 'monoclinic'
loop_
_space_group_symop_operation_xyz
x,y,z
-x,y,1/2-z
-x,-y,-z
x,-y,1/2+z
1/2+x,1/2+y,z
1/2-x,1/2+y,1/2-z
1/2-x,1/2-y,-z
1/2+x,1/2-y,1/2+z
loop_
_atom_site_type_symbol
_atom_site_label
_atom_site_fract_x
_atom_site_fract_y
_atom_site_fract_z
Si Si1 0.656067 0.007747 0.972562
Si Si2 0.703251 0.698545 0.306882
Si Si3 0.925060 0.888514 0.366169
Si Si4 0.992404 0.163716 0.073142
Si Si5 0.250000 0.250000 0.000000
O O1 0.694492 0.212987 0.890019
O O2 0.723378 0.784343 0.941890
O O3 0.632329 0.138441 0.062797
O O4 0.564698 0.894486 0.015317
O O5 0.722704 0.395030 0.282847
O O6 0.610391 0.759610 0.342900
O O7 0.000000 0.834309 0.250000
O O8 0.979475 0.991939 0.386475
O O9 0.847206 0.091191 0.409385
O O10 0.000000 0.000000 0.000000
#
# Coordination Sequence:
#
# PCOD9300280 Si02
#       5
#     8   8   8   8   4
#     4  11  25  47  74 101 154 197 254 320 377 463
#     4  12  28  44  76 115 148 197 254 320 385 452
#     4  11  26  45  76 107 149 204 250 313 387 466
#     4  11  24  48  73 104 148 197 254 317 384 446
#     4  10  26  48  68 106 150 196 250 316 378 450
#
# _framework density 23.548727
#
# number of rings (size 3 to 8) (size 9 to 14) (size 15 to 20)
#    0.000    0.889    2.222    2.667    9.333    3.556 
#    0.000    0.000    0.000    0.000    0.000    0.000 
#    0.000    0.000    0.000    0.000    0.000    0.000 
#
# Total GULP energy -100237.162753 kJ/mol
# GULP energy per Si atom -5568.731264 kJ/mol
# Density = 2.349513 g / cm^3
# Si number density = 23.548727 Si / 1000 Ang^3
#
#
#
# Elastic Constant Matrix: (Units=GPa)
#
#
# Indices 1 2 3 4 5 6 
#
# 1 92.1097 -27.1108 -1.5874 0.0147 -20.0584 0.0336
# 2 -27.1108 27.2838 -11.5854 0.0019 5.1108 -0.1417
# 3 -1.5874 -11.5854 67.4660 0.0825 18.6959 -0.0430
# 4 0.0147 0.0019 0.0825 38.9841 0.0117 16.3284
# 5 -20.0584 5.1108 18.6959 0.0117 37.7192 0.0095
# 6 0.0336 -0.1417 -0.0430 16.3284 0.0095 -20.0654
#
#
#
# Elastic Compliance Matrix: (Units=1/GPa)
#
#
# Indices 1 2 3 4 5 6 
#
# 1 0.017050 0.016461 0.001546 0.000018 0.006071 -0.000073
# 2 0.016461 0.059056 0.011963 0.000106 -0.005178 -0.000331
# 3 0.001546 0.011963 0.019863 0.000011 -0.010644 -0.000121
# 4 0.000018 0.000106 0.000011 0.019131 -0.000020 0.015567
# 5 0.006071 -0.005178 -0.010644 -0.000020 0.035717 0.000070
# 6 -0.000073 -0.000331 -0.000121 0.015567 0.000070 -0.037166
#
#
# Mechanical properties :
#
#
# Convention : Reuss Voigt Hill
#
# Bulk Modulus (GPa) = 6.41405 11.81027 9.11216
# Shear Modulus (GPa) = 47.31202 26.47044 36.89123
#
# Velocity S-wave (km/s) = 4.48717 3.35635 3.96231
# Velocity P-wave (km/s) = 5.43838 4.47731 4.98108
#
# Compressibility (1/GPa) = 0.15590769
#
# Stress axis : x y z
#
# Youngs Moduli (GPa) = 58.65039 16.93302 50.34608
#
# Poissons Ratio (x) = -0.27873 -0.07781
# Poissons Ratio (y) = -0.96543 -0.60229
# Poissons Ratio (z) = -0.09065 -0.20257
#
# Static dielectric constant tensor:
#      x y z
#    x 1.902110 -0.000020 -0.051190 
#    y -0.000020 2.024030 -0.000010 
#    z -0.051190 -0.000010 1.984720 
# 
# From -- ./inp_files/250972.got.cif
#   From: 2010.05.17/outbox.cif.g08.bks.cpg/sg15_126_cif.got.tgz:250972.got - 2010.06.03 18:47:42.
