data_PCOD9300787
_publ_section_title
;
Structure prediction by ZEFSAII (Michael W. Deem and Ramdas Pophale) SiO2 
 PCOD9300787
Probable space group: C 2/C
;
_chemical_formula_sum "Si O2"
_cell_formula_units_Z 60
_cell_length_a 25.381237
_cell_length_b 10.205014
_cell_length_c 23.118754
_cell_angle_alpha 90.000000
_cell_angle_beta 33.415868
_cell_angle_gamma 90.000000
_cell_volume 3297.731533
_symmetry_space_group_name_H-M "C 2/C"
_symmetry_group_IT_number 15
_symmetry_cell_setting 'monoclinic'
loop_
_space_group_symop_operation_xyz
x,y,z
-x,y,1/2-z
-x,-y,-z
x,-y,1/2+z
1/2+x,1/2+y,z
1/2-x,1/2+y,1/2-z
1/2-x,1/2-y,-z
1/2+x,1/2-y,1/2+z
loop_
_atom_site_type_symbol
_atom_site_label
_atom_site_fract_x
_atom_site_fract_y
_atom_site_fract_z
Si Si1 0.500000 0.716479 0.250000
Si Si2 0.293447 0.257319 0.158790
Si Si3 0.296450 0.605137 0.459165
Si Si4 0.685736 0.238449 0.878221
Si Si5 0.973565 0.403633 0.163618
Si Si6 0.305708 0.976226 0.559850
Si Si7 0.266130 0.995034 0.860537
Si Si8 0.004484 0.657831 0.983749
O O1 0.408861 0.629228 0.349384
O O2 0.475365 0.808448 0.217418
O O3 0.233204 0.245109 0.272040
O O4 0.274640 0.149911 0.126052
O O5 0.273505 0.397640 0.148639
O O6 0.401685 0.224712 0.078120
O O7 0.250000 0.750000 0.500000
O O8 0.252447 0.526002 0.446073
O O9 0.268307 0.539509 0.544981
O O10 0.721291 0.357202 0.884472
O O11 0.573594 0.224794 0.966518
O O12 0.712326 0.102718 0.884768
O O13 0.882242 0.499289 0.252527
O O14 0.958415 0.329660 0.116327
O O15 0.080427 0.463795 0.059119
O O16 0.000000 0.500000 0.000000
#
# Coordination Sequence:
#
# PCOD9300787 Si02
#       8
#     4   8   8   8   8   8   8   8
#     4  12  22  40  70  96 120 160 220 270 308 364
#     4  11  21  40  65  93 121 170 214 259 310 384
#     4  12  22  43  65  95 123 162 218 268 307 377
#     4  12  25  39  62  96 133 167 202 273 317 379
#     4  11  19  38  68  92 115 170 216 254 304 390
#     4  11  23  42  68  91 126 171 218 258 319 378
#     4  12  24  40  65  98 130 159 216 268 322 370
#     4  11  21  40  65  88 125 169 215 246 312 389
#
# _framework density 18.194326
#
# number of rings (size 3 to 8) (size 9 to 14) (size 15 to 20)
#    0.000    0.533    8.000    2.400    0.000    1.067 
#    2.400    0.000    0.000    0.000    0.000    0.000 
#    0.000    0.000    0.000    0.000    0.000    0.000 
#
# Total GULP energy -167560.621546 kJ/mol
# GULP energy per Si atom -5585.354052 kJ/mol
# Density = 1.815291 g / cm^3
# Si number density = 18.194326 Si / 1000 Ang^3
#
#
#
# Elastic Constant Matrix: (Units=GPa)
#
#
# Indices 1 2 3 4 5 6 
#
# 1 86.4656 5.2097 18.3788 0.0000 -1.1613 0.0000
# 2 5.2097 51.7941 11.8574 0.0000 -4.7591 0.0000
# 3 18.3788 11.8574 90.4284 0.0000 -3.4272 0.0000
# 4 0.0000 0.0000 0.0000 -0.3293 0.0000 -17.1705
# 5 -1.1613 -4.7591 -3.4272 0.0000 36.5225 0.0000
# 6 0.0000 0.0000 0.0000 -17.1705 0.0000 22.5779
#
#
#
# Elastic Compliance Matrix: (Units=1/GPa)
#
#
# Indices 1 2 3 4 5 6 
#
# 1 0.012111 -0.000668 -0.002371 0.000000 0.000076 0.000000
# 2 -0.000668 0.020146 -0.002416 0.000000 0.002377 0.000000
# 3 -0.002371 -0.002416 0.011885 0.000000 0.000725 0.000000
# 4 0.000000 0.000000 0.000000 -0.074697 0.000000 -0.056807
# 5 0.000076 0.002377 0.000725 0.000000 0.027761 0.000000
# 6 0.000000 0.000000 0.000000 -0.056807 0.000000 0.001089
#
#
# Mechanical properties :
#
#
# Convention : Reuss Voigt Hill
#
# Bulk Modulus (GPa) = 30.09232 33.28666 31.68949
# Shear Modulus (GPa) = 246.53927 24.63705 135.58816
#
# Velocity S-wave (km/s) = 11.65322 3.68381 8.64199
# Velocity P-wave (km/s) = 14.05840 6.03562 10.81821
#
# Compressibility (1/GPa) = 0.03323107
#
# Stress axis : x y z
#
# Youngs Moduli (GPa) = 82.57284 49.63787 84.14282
#
# Poissons Ratio (x) = 0.03318 0.19949
# Poissons Ratio (y) = 0.05519 0.20326
# Poissons Ratio (z) = 0.19577 0.11991
#
# Static dielectric constant tensor:
#      x y z
#    x 1.640400 0.000000 -0.032200 
#    y 0.000000 1.596240 0.000000 
#    z -0.032200 0.000000 1.665820 
# 
# From -- ./inp_files/283358.got.cif
#   From: 2010.05.17/outbox.cif.g08.bks.cpg/sg15_142_cif.got.tgz:283358.got - 2010.06.03 18:47:42.
