data_PCOD9300509
_publ_section_title
;
Structure prediction by ZEFSAII (Michael W. Deem and Ramdas Pophale) SiO2 
 PCOD9300509
Probable space group: C 2/C
;
_chemical_formula_sum "Si O2"
_cell_formula_units_Z 40
_cell_length_a 11.974058
_cell_length_b 10.138106
_cell_length_c 13.717188
_cell_angle_alpha 90.000000
_cell_angle_beta 91.346541
_cell_angle_gamma 90.000000
_cell_volume 1664.728173
_symmetry_space_group_name_H-M "C 2/C"
_symmetry_group_IT_number 15
_symmetry_cell_setting 'monoclinic'
loop_
_space_group_symop_operation_xyz
x,y,z
-x,y,1/2-z
-x,-y,-z
x,-y,1/2+z
1/2+x,1/2+y,z
1/2-x,1/2+y,1/2-z
1/2-x,1/2-y,-z
1/2+x,1/2-y,1/2+z
loop_
_atom_site_type_symbol
_atom_site_label
_atom_site_fract_x
_atom_site_fract_y
_atom_site_fract_z
Si Si1 0.829893 0.452768 0.524989
Si Si2 0.403578 0.003040 0.316695
Si Si3 0.662818 0.505863 0.856864
Si Si4 0.522356 0.255949 0.385272
Si Si5 0.133956 0.259786 0.438452
O O1 0.906236 0.452306 0.428468
O O2 0.710017 0.461754 0.468858
O O3 0.866206 0.331502 0.591808
O O4 0.858986 0.585482 0.583174
O O5 0.500000 0.947513 0.250000
O O6 0.433684 0.159329 0.329335
O O7 0.272952 0.979541 0.291546
O O8 0.564793 0.609011 0.840123
O O9 0.632136 0.351827 0.856350
O O10 0.463057 0.277937 0.487738
O O11 0.250000 0.250000 0.500000
#
# Coordination Sequence:
#
# PCOD9300509 Si02
#       5
#     8   8   8   8   8
#     4   8  18  31  53  76 102 126 172 211 259 303
#     4   9  19  33  49  68 111 137 169 205 259 315
#     4   9  19  30  53  77 100 129 172 209 261 302
#     4  11  17  32  54  79  98 132 172 218 261 298
#     4   9  15  29  47  77 100 126 158 210 254 302
#
# _framework density 24.027946
#
# number of rings (size 3 to 8) (size 9 to 14) (size 15 to 20)
#    1.200    1.600    2.000    3.600    0.000    0.000 
#    0.000    4.000    0.000    0.000    0.000    2.800 
#    0.000    0.000    0.000    0.000    0.000    0.000 
#
# Total GULP energy -111359.652104 kJ/mol
# GULP energy per Si atom -5567.982605 kJ/mol
# Density = 2.397326 g / cm^3
# Si number density = 24.027946 Si / 1000 Ang^3
#
#
#
# Elastic Constant Matrix: (Units=GPa)
#
#
# Indices 1 2 3 4 5 6 
#
# 1 65.1870 16.8138 17.9579 0.0000 -0.2815 0.0000
# 2 16.8138 97.0605 21.7116 0.0000 1.9879 0.0000
# 3 17.9579 21.7116 69.2914 0.0000 -13.5531 0.0000
# 4 0.0000 0.0000 0.0000 2.6577 0.0000 -7.3807
# 5 -0.2815 1.9879 -13.5531 0.0000 36.1506 0.0000
# 6 0.0000 0.0000 0.0000 -7.3807 0.0000 40.5682
#
#
#
# Elastic Compliance Matrix: (Units=1/GPa)
#
#
# Indices 1 2 3 4 5 6 
#
# 1 0.016960 -0.002015 -0.004011 0.000000 -0.001261 0.000000
# 2 -0.002015 0.011463 -0.003449 0.000000 -0.001939 0.000000
# 3 -0.004011 -0.003449 0.017895 0.000000 0.006867 0.000000
# 4 0.000000 0.000000 0.000000 0.760495 0.000000 0.138360
# 5 -0.001261 -0.001939 0.006867 0.000000 0.030333 0.000000
# 6 0.000000 0.000000 0.000000 0.138360 0.000000 0.049822
#
#
# Mechanical properties :
#
#
# Convention : Reuss Voigt Hill
#
# Bulk Modulus (GPa) = 36.53769 38.27838 37.40804
# Shear Modulus (GPa) = 5.46424 27.54570 16.50497
#
# Velocity S-wave (km/s) = 1.50965 3.38953 2.62373
# Velocity P-wave (km/s) = 4.27529 5.59320 4.97805
#
# Compressibility (1/GPa) = 0.02736900
#
# Stress axis : x y z
#
# Youngs Moduli (GPa) = 58.96369 87.23646 55.88116
#
# Poissons Ratio (x) = 0.17578 0.22412
# Poissons Ratio (y) = 0.11881 0.19273
# Poissons Ratio (z) = 0.23648 0.30087
#
# Static dielectric constant tensor:
#      x y z
#    x 2.012880 0.000000 -0.021740 
#    y 0.000000 1.957940 0.000000 
#    z -0.021740 0.000000 2.033740 
# 
# From -- ./inp_files/241753.got.cif
#   From: 2010.05.17/outbox.cif.g08.bks.cpg/sg15_121_cif.got.tgz:241753.got - 2010.06.03 18:47:42.
