data_PCOD9300143
_publ_section_title
;
Structure prediction by ZEFSAII (Michael W. Deem and Ramdas Pophale) SiO2 
 PCOD9300143
Probable space group: C 2/C
;
_chemical_formula_sum "Si O2"
_cell_formula_units_Z 52
_cell_length_a 11.291143
_cell_length_b 23.639271
_cell_length_c 8.961248
_cell_angle_alpha 90.000000
_cell_angle_beta 122.459230
_cell_angle_gamma 90.000000
_cell_volume 2018.210194
_symmetry_space_group_name_H-M "C 2/C"
_symmetry_group_IT_number 15
_symmetry_cell_setting 'monoclinic'
loop_
_space_group_symop_operation_xyz
x,y,z
-x,y,1/2-z
-x,-y,-z
x,-y,1/2+z
1/2+x,1/2+y,z
1/2-x,1/2+y,1/2-z
1/2-x,1/2-y,-z
1/2+x,1/2-y,1/2+z
loop_
_atom_site_type_symbol
_atom_site_label
_atom_site_fract_x
_atom_site_fract_y
_atom_site_fract_z
Si Si1 0.235234 0.832867 0.361452
Si Si2 0.355248 0.015090 0.574639
Si Si3 0.610650 0.586954 0.534103
Si Si4 0.372587 0.425170 0.054621
Si Si5 0.000000 0.171750 0.250000
Si Si6 0.464014 0.129652 0.545955
Si Si7 0.251041 0.273503 0.673931
O O1 0.140484 0.871090 0.188844
O O2 0.176864 0.859308 0.475324
O O3 0.393078 0.853516 0.440091
O O4 0.216149 0.770323 0.282845
O O5 0.500000 0.998390 0.750000
O O6 0.241395 0.046105 0.604620
O O7 0.405226 0.064981 0.494759
O O8 0.261611 0.960357 0.479616
O O9 0.452542 0.563747 0.451379
O O10 0.610121 0.629449 0.396463
O O11 0.500000 0.443918 0.250000
O O12 0.085760 0.210130 0.195298
O O13 0.500000 0.136177 0.750000
O O14 0.353214 0.174073 0.407269
O O15 0.250000 0.250000 0.500000
#
# Coordination Sequence:
#
# PCOD9300143 Si02
#       7
#     8   8   8   8   4   8   8
#     4  11  22  42  64  96 134 181 221 273 350 406
#     4  11  21  43  70 102 137 176 234 288 335 396
#     4  11  22  43  65  99 136 174 233 277 341 412
#     4  10  26  45  67  90 144 195 217 270 344 429
#     4  12  22  36  68 102 126 170 232 296 334 396
#     4  11  19  36  63 100 133 165 226 290 335 389
#     4  12  20  34  65  95 130 168 225 290 335 389
#
# _framework density 25.765404
#
# number of rings (size 3 to 8) (size 9 to 14) (size 15 to 20)
#    0.000    0.923    7.692    1.385    1.077    0.615 
#    2.769    0.769    3.385    0.000    0.000    0.000 
#    0.000    0.000    0.000    0.000    0.000    0.000 
#
# Total GULP energy -145051.213120 kJ/mol
# GULP energy per Si atom -5578.892812 kJ/mol
# Density = 2.570676 g / cm^3
# Si number density = 25.765404 Si / 1000 Ang^3
#
#
#
# Elastic Constant Matrix: (Units=GPa)
#
#
# Indices 1 2 3 4 5 6 
#
# 1 124.8227 50.3809 37.9594 0.0000 39.4912 0.0000
# 2 50.3809 138.8885 49.4788 0.0000 23.3287 0.0000
# 3 37.9594 49.4788 48.3054 0.0000 34.6971 0.0000
# 4 0.0000 0.0000 0.0000 30.2454 0.0000 9.4381
# 5 39.4912 23.3287 34.6971 0.0000 44.3089 0.0000
# 6 0.0000 0.0000 0.0000 9.4381 0.0000 36.6813
#
#
#
# Elastic Compliance Matrix: (Units=1/GPa)
#
#
# Indices 1 2 3 4 5 6 
#
# 1 0.012091 -0.002883 0.000233 0.000000 -0.009441 0.000000
# 2 -0.002883 0.013107 -0.018396 0.000000 0.010074 0.000000
# 3 0.000233 -0.018396 0.074404 0.000000 -0.048786 0.000000
# 4 0.000000 0.000000 0.000000 0.035949 0.000000 -0.009250
# 5 -0.009441 0.010074 -0.048786 0.000000 0.063882 0.000000
# 6 0.000000 0.000000 0.000000 -0.009250 0.000000 0.029642
#
#
# Mechanical properties :
#
#
# Convention : Reuss Voigt Hill
#
# Bulk Modulus (GPa) = 17.38847 65.29498 41.34172
# Shear Modulus (GPa) = 17.22129 33.86029 25.54079
#
# Velocity S-wave (km/s) = 2.58813 3.62909 3.15188
# Velocity P-wave (km/s) = 3.96164 6.55420 5.41535
#
# Compressibility (1/GPa) = 0.05750938
#
# Stress axis : x y z
#
# Youngs Moduli (GPa) = 82.70532 76.29252 13.44016
#
# Poissons Ratio (x) = 0.21997 -0.00313
# Poissons Ratio (y) = 0.23846 0.24725
# Poissons Ratio (z) = -0.01929 1.40351
#
# Static dielectric constant tensor:
#      x y z
#    x 2.528920 0.000000 -0.411630 
#    y 0.000000 2.125870 0.000000 
#    z -0.411630 0.000000 2.414190 
# 
# From -- ./inp_files/91328.got.cif
#   From: 2010.05.17/outbox.cif.g08.bks.cpg/sg15_46_cif.got.tgz:91328.got - 2010.06.03 18:47:42.
