data_PCOD9300249
_publ_section_title
;
Structure prediction by ZEFSAII (Michael W. Deem and Ramdas Pophale) SiO2 
 PCOD9300249
Probable space group: C 2/C
;
_chemical_formula_sum "Si O2"
_cell_formula_units_Z 56
_cell_length_a 9.459265
_cell_length_b 22.605762
_cell_length_c 15.134306
_cell_angle_alpha 90.000000
_cell_angle_beta 122.924498
_cell_angle_gamma 90.000000
_cell_volume 2716.449110
_symmetry_space_group_name_H-M "C 2/C"
_symmetry_group_IT_number 15
_symmetry_cell_setting 'monoclinic'
loop_
_space_group_symop_operation_xyz
x,y,z
-x,y,1/2-z
-x,-y,-z
x,-y,1/2+z
1/2+x,1/2+y,z
1/2-x,1/2+y,1/2-z
1/2-x,1/2-y,-z
1/2+x,1/2-y,1/2+z
loop_
_atom_site_type_symbol
_atom_site_label
_atom_site_fract_x
_atom_site_fract_y
_atom_site_fract_z
Si Si1 0.500000 0.957304 0.750000
Si Si2 0.727947 0.746236 0.786327
Si Si3 0.500000 0.701057 0.250000
Si Si4 0.352408 0.928655 0.269875
Si Si5 0.542965 0.348441 0.113362
Si Si6 0.697154 0.681657 0.480018
Si Si7 0.949336 0.352702 0.455106
Si Si8 0.179630 0.646015 0.408127
O O1 0.371276 0.914687 0.655652
O O2 0.611359 0.001961 0.728426
O O3 0.847590 0.762920 0.743638
O O4 0.580122 0.705898 0.693206
O O5 0.843519 0.702919 0.883802
O O6 0.689993 0.802503 0.837093
O O7 0.576848 0.666766 0.357913
O O8 0.500000 0.903866 0.250000
O O9 0.169180 0.902245 0.181847
O O10 0.371132 0.908787 0.378005
O O11 0.606732 0.329876 0.039551
O O12 0.346315 0.359186 0.026782
O O13 0.750000 0.750000 0.500000
O O14 0.866989 0.647198 0.523852
O O15 0.961187 0.344908 0.564135
#
# Coordination Sequence:
#
# PCOD9300249 Si02
#       8
#     4   8   4   8   8   8   8   8
#     4  10  26  47  66  94 136 177 236 288 336 390
#     4  11  23  38  61  98 140 178 222 271 333 414
#     4  12  22  33  60  90 134 173 232 274 298 406
#     4   9  21  46  72  93 116 174 238 290 317 384
#     4  11  22  42  70  94 134 178 230 273 340 409
#     4  12  20  34  59  92 123 177 227 263 315 398
#     4  11  23  41  68  93 135 176 223 275 350 407
#     4  12  27  41  63 103 143 179 209 285 359 419
#
# _framework density 20.615148000000001
#
# number of rings (size 3 to 8) (size 9 to 14) (size 15 to 20)
#    0.429    0.571    5.714    0.429    4.000    4.571 
#    0.000    0.000    0.000    1.714    0.000    0.000 
#    0.000    0.000    0.000    0.000    0.000    0.000 
#
# Total GULP energy -156127.127839 kJ/mol
# GULP energy per Si atom -5575.968851 kJ/mol
# Density = 2.056823 g / cm^3
# Si number density = 20.615148 Si / 1000 Ang^3
#
#
#
# Elastic Constant Matrix: (Units=GPa)
#
#
# Indices 1 2 3 4 5 6 
#
# 1 69.2674 21.8087 28.5918 0.0000 -19.1686 0.0000
# 2 21.8087 106.0631 53.5561 0.0000 -4.1556 0.0000
# 3 28.5918 53.5561 131.5249 0.0000 -3.3363 0.0000
# 4 0.0000 0.0000 0.0000 7.5936 0.0000 9.6318
# 5 -19.1686 -4.1556 -3.3363 0.0000 53.8336 0.0000
# 6 0.0000 0.0000 0.0000 9.6318 0.0000 1.5783
#
#
#
# Elastic Compliance Matrix: (Units=1/GPa)
#
#
# Indices 1 2 3 4 5 6 
#
# 1 0.017948 -0.001965 -0.002948 0.000000 0.006057 0.000000
# 2 -0.001965 0.012104 -0.004503 0.000000 -0.000044 0.000000
# 3 -0.002948 -0.004503 0.010058 0.000000 -0.000774 0.000000
# 4 0.000000 0.000000 0.000000 -0.019537 0.000000 0.119226
# 5 0.006057 -0.000044 -0.000774 0.000000 0.020681 0.000000
# 6 0.000000 0.000000 0.000000 0.119226 0.000000 -0.093998
#
#
# Mechanical properties :
#
#
# Convention : Reuss Voigt Hill
#
# Bulk Modulus (GPa) = 46.99385 57.19652 52.09518
# Shear Modulus (GPa) = -186.43127 26.12770 -80.15178
#
# Velocity S-wave (km/s) = -9.52000 3.56392 -6.24215
# Velocity P-wave (km/s) = 9.89926 6.68884 5.16017
#
# Compressibility (1/GPa) = 0.02127938
#
# Stress axis : x y z
#
# Youngs Moduli (GPa) = 55.71560 82.61555 99.42442
#
# Poissons Ratio (x) = 0.16231 0.29311
# Poissons Ratio (y) = 0.10946 0.44769
# Poissons Ratio (z) = 0.16426 0.37200
#
# Static dielectric constant tensor:
#      x y z
#    x -0.686070 0.000000 0.556710 
#    y 0.000000 1.705100 0.000000 
#    z 0.556710 0.000000 1.638320 
# 
# From -- ./inp_files/138729.got.cif
#   From: 2010.05.17/outbox.cif.g08.bks.cpg/sg15_70_cif.got.tgz:138729.got - 2010.06.03 18:47:42.
