data_PCOD9300833
_publ_section_title
;
Structure prediction by ZEFSAII (Michael W. Deem and Ramdas Pophale) SiO2 
 PCOD9300833
Probable space group: C 2/C
;
_chemical_formula_sum "Si O2"
_cell_formula_units_Z 60
_cell_length_a 16.716198
_cell_length_b 13.031397
_cell_length_c 14.132174
_cell_angle_alpha 90.000000
_cell_angle_beta 109.757681
_cell_angle_gamma 90.000000
_cell_volume 2897.259540
_symmetry_space_group_name_H-M "C 2/C"
_symmetry_group_IT_number 15
_symmetry_cell_setting 'monoclinic'
loop_
_space_group_symop_operation_xyz
x,y,z
-x,y,1/2-z
-x,-y,-z
x,-y,1/2+z
1/2+x,1/2+y,z
1/2-x,1/2+y,1/2-z
1/2-x,1/2-y,-z
1/2+x,1/2-y,1/2+z
loop_
_atom_site_type_symbol
_atom_site_label
_atom_site_fract_x
_atom_site_fract_y
_atom_site_fract_z
Si Si1 0.899873 0.437769 0.688479
Si Si2 0.653715 0.731729 0.745612
Si Si3 0.899709 0.665174 0.676244
Si Si4 0.524624 0.573685 0.093791
Si Si5 0.345239 0.750554 0.334176
Si Si6 0.048854 0.605389 0.494813
Si Si7 0.500000 0.411119 0.250000
Si Si8 0.905966 0.753555 0.479925
O O1 0.863244 0.351677 0.741066
O O2 0.866615 0.552066 0.688800
O O3 0.894800 0.408186 0.575832
O O4 0.000000 0.442937 0.750000
O O5 0.749312 0.722654 0.821712
O O6 0.582258 0.665022 0.772984
O O7 0.651226 0.709783 0.630802
O O8 0.854518 0.747445 0.724471
O O9 0.880741 0.679673 0.557013
O O10 0.000000 0.671306 0.750000
O O11 0.610281 0.642888 0.117787
O O12 0.519464 0.493714 0.176175
O O13 0.500000 0.500000 0.000000
O O14 0.449792 0.657551 0.059082
O O15 0.399863 0.844837 0.398424
O O16 0.000000 0.500000 0.500000
O O17 0.978564 0.692999 0.450463
#
# Coordination Sequence:
#
# PCOD9300833 Si02
#       8
#     8   8   8   8   8   8   4   8
#     4  11  21  36  66  99 130 172 215 271 345 409
#     4  12  26  44  67 103 144 176 234 291 341 406
#     4  11  20  39  70  98 128 175 229 280 349 408
#     4  11  23  45  70  93 133 190 240 267 342 423
#     4  11  27  43  67 104 138 175 236 297 331 408
#     4  11  19  40  69  98 126 171 220 277 351 406
#     4  12  24  48  74  98 138 202 228 272 358 426
#     4  11  21  41  68  95 134 182 228 278 342 418
#
# _framework density 20.709226000000001
#
# number of rings (size 3 to 8) (size 9 to 14) (size 15 to 20)
#    0.000    0.800    7.333    1.600    1.867    2.133 
#    0.000    0.000    0.000    0.000    0.000    0.000 
#    0.000    0.000    0.000    0.000    0.000    0.000 
#
# Total GULP energy -167008.128327 kJ/mol
# GULP energy per Si atom -5566.937611 kJ/mol
# Density = 2.066209 g / cm^3
# Si number density = 20.709226 Si / 1000 Ang^3
#
#
#
# Elastic Constant Matrix: (Units=GPa)
#
#
# Indices 1 2 3 4 5 6 
#
# 1 77.8174 32.1385 26.3619 0.0000 17.4542 0.0000
# 2 32.1385 106.0058 10.7416 0.0000 15.3299 0.0000
# 3 26.3619 10.7416 59.2502 0.0000 5.1684 0.0000
# 4 0.0000 0.0000 0.0000 35.6963 0.0000 -5.7990
# 5 17.4542 15.3299 5.1684 0.0000 22.5784 0.0000
# 6 0.0000 0.0000 0.0000 -5.7990 0.0000 3.2198
#
#
#
# Elastic Compliance Matrix: (Units=1/GPa)
#
#
# Indices 1 2 3 4 5 6 
#
# 1 0.019057 -0.003522 -0.006902 0.000000 -0.010761 0.000000
# 2 -0.003522 0.011211 -0.000040 0.000000 -0.004880 0.000000
# 3 -0.006902 -0.000040 0.019885 0.000000 0.000810 0.000000
# 4 0.000000 0.000000 0.000000 0.039601 0.000000 0.071324
# 5 -0.010761 -0.004880 0.000810 0.000000 0.055736 0.000000
# 6 0.000000 0.000000 0.000000 0.071324 0.000000 0.439042
#
#
# Mechanical properties :
#
#
# Convention : Reuss Voigt Hill
#
# Bulk Modulus (GPa) = 34.21652 42.39527 38.30589
# Shear Modulus (GPa) = 8.12743 23.88765 16.00754
#
# Velocity S-wave (km/s) = 1.98320 3.39997 2.78324
# Velocity P-wave (km/s) = 4.66929 5.99410 5.37269
#
# Compressibility (1/GPa) = 0.02922565
#
# Stress axis : x y z
#
# Youngs Moduli (GPa) = 52.47454 89.19804 50.28969
#
# Poissons Ratio (x) = 0.31417 0.34708
# Poissons Ratio (y) = 0.18482 0.00200
# Poissons Ratio (z) = 0.36216 0.00354
#
# Static dielectric constant tensor:
#      x y z
#    x 1.214110 0.000000 1.012050 
#    y 0.000000 1.752450 0.000000 
#    z 1.012050 0.000000 0.129420 
# 
# From -- ./inp_files/161377.got.cif
#   From: 2010.05.17/outbox.cif.g08.bks.cpg/sg15_81_cif.got.tgz:161377.got - 2010.06.03 18:47:42.
