data_PCOD9300835
_publ_section_title
;
Structure prediction by ZEFSAII (Michael W. Deem and Ramdas Pophale) SiO2 
 PCOD9300835
Probable space group: C 2/C
;
_chemical_formula_sum "Si O2"
_cell_formula_units_Z 52
_cell_length_a 24.054944
_cell_length_b 13.230239
_cell_length_c 15.213986
_cell_angle_alpha 90.000000
_cell_angle_beta 25.305147
_cell_angle_gamma 90.000000
_cell_volume 2069.613630
_symmetry_space_group_name_H-M "C 2/C"
_symmetry_group_IT_number 15
_symmetry_cell_setting 'monoclinic'
loop_
_space_group_symop_operation_xyz
x,y,z
-x,y,1/2-z
-x,-y,-z
x,-y,1/2+z
1/2+x,1/2+y,z
1/2-x,1/2+y,1/2-z
1/2-x,1/2-y,-z
1/2+x,1/2-y,1/2+z
loop_
_atom_site_type_symbol
_atom_site_label
_atom_site_fract_x
_atom_site_fract_y
_atom_site_fract_z
Si Si1 0.044536 0.499349 0.788226
Si Si2 0.877393 0.297654 0.368497
Si Si3 0.857640 0.870613 0.703344
Si Si4 0.500000 0.703490 0.750000
Si Si5 0.866650 0.670419 0.593707
Si Si6 0.203944 0.135160 0.583995
Si Si7 0.111125 0.081091 0.914035
O O1 0.059121 0.617908 0.785831
O O2 0.181870 0.442355 0.600156
O O3 0.000000 0.489426 0.750000
O O4 0.943958 0.433864 0.988240
O O5 0.750000 0.250000 0.500000
O O6 0.792859 0.363968 0.558414
O O7 0.000000 0.252037 0.250000
O O8 0.899971 0.761183 0.610116
O O9 0.958380 0.895368 0.638231
O O10 0.871163 0.960750 0.613933
O O11 0.589678 0.777536 0.561682
O O12 0.585367 0.630753 0.687381
O O13 0.715266 0.641832 0.821496
O O14 0.250000 0.250000 0.500000
O O15 0.154113 0.114532 0.753461
#
# Coordination Sequence:
#
# PCOD9300835 Si02
#       7
#     8   8   8   4   8   8   8
#     4  11  19  40  70  94 126 184 232 269 342 430
#     4  11  26  49  72  94 133 192 244 281 350 437
#     4  11  25  41  67  98 135 182 224 294 353 423
#     4  12  22  32  60 104 138 170 218 292 342 408
#     4  12  21  38  68 102 130 174 235 287 345 422
#     4  12  18  34  60  99 133 170 224 280 344 410
#     4  11  21  40  64  92 137 178 219 285 364 413
#
# _framework density 25.125461999999999
#
# number of rings (size 3 to 8) (size 9 to 14) (size 15 to 20)
#    0.000    0.615    8.462    0.923    2.154    0.000 
#    1.385    2.308    0.000    0.000    0.000    0.000 
#    0.000    0.000    0.000    0.000    0.000    0.000 
#
# Total GULP energy -145256.259022 kJ/mol
# GULP energy per Si atom -5586.779193 kJ/mol
# Density = 2.506827 g / cm^3
# Si number density = 25.125462 Si / 1000 Ang^3
#
#
#
# Elastic Constant Matrix: (Units=GPa)
#
#
# Indices 1 2 3 4 5 6 
#
# 1 54.4700 49.3813 25.4161 0.0000 -28.7782 0.0000
# 2 49.3813 129.9354 22.9182 0.0000 -24.1256 0.0000
# 3 25.4161 22.9182 136.1874 0.0000 -35.0854 0.0000
# 4 0.0000 0.0000 0.0000 51.9860 0.0000 -13.5850
# 5 -28.7782 -24.1256 -35.0854 0.0000 50.7106 0.0000
# 6 0.0000 0.0000 0.0000 -13.5850 0.0000 29.4095
#
#
#
# Elastic Compliance Matrix: (Units=1/GPa)
#
#
# Indices 1 2 3 4 5 6 
#
# 1 0.036674 -0.010987 -0.001193 0.000000 0.014760 0.000000
# 2 -0.010987 0.011758 -0.000114 0.000000 -0.000720 0.000000
# 3 -0.001193 -0.000114 0.009001 0.000000 0.005496 0.000000
# 4 0.000000 0.000000 0.000000 0.021877 0.000000 0.010105
# 5 0.014760 -0.000720 0.005496 0.000000 0.031556 0.000000
# 6 0.000000 0.000000 0.000000 0.010105 0.000000 0.038670
#
#
# Mechanical properties :
#
#
# Convention : Reuss Voigt Hill
#
# Bulk Modulus (GPa) = 30.44514 57.33601 43.89058
# Shear Modulus (GPa) = 27.01662 41.27971 34.14817
#
# Velocity S-wave (km/s) = 3.28269 4.05772 3.69060
# Velocity P-wave (km/s) = 5.14894 6.69499 5.97221
#
# Compressibility (1/GPa) = 0.03284596
#
# Stress axis : x y z
#
# Youngs Moduli (GPa) = 27.26733 85.04839 111.10441
#
# Poissons Ratio (x) = 0.93441 0.13252
# Poissons Ratio (y) = 0.29958 0.01263
# Poissons Ratio (z) = 0.03252 0.00967
#
# Static dielectric constant tensor:
#      x y z
#    x 2.139120 0.000000 0.032510 
#    y 0.000000 2.070970 0.000000 
#    z 0.032510 0.000000 2.065940 
# 
# From -- ./inp_files/259339.got.cif
#   From: 2010.05.17/outbox.cif.g08.bks.cpg/sg15_130_cif.got.tgz:259339.got - 2010.06.03 18:47:42.
