data_PCOD9300677
_publ_section_title
;
Structure prediction by ZEFSAII (Michael W. Deem and Ramdas Pophale) SiO2 
 PCOD9300677
Probable space group: C 2/C
;
_chemical_formula_sum "Si O2"
_cell_formula_units_Z 48
_cell_length_a 9.680396
_cell_length_b 17.150110
_cell_length_c 10.820747
_cell_angle_alpha 90.000000
_cell_angle_beta 77.239842
_cell_angle_gamma 90.000000
_cell_volume 1752.092036
_symmetry_space_group_name_H-M "C 2/C"
_symmetry_group_IT_number 15
_symmetry_cell_setting 'monoclinic'
loop_
_space_group_symop_operation_xyz
x,y,z
-x,y,1/2-z
-x,-y,-z
x,-y,1/2+z
1/2+x,1/2+y,z
1/2-x,1/2+y,1/2-z
1/2-x,1/2-y,-z
1/2+x,1/2-y,1/2+z
loop_
_atom_site_type_symbol
_atom_site_label
_atom_site_fract_x
_atom_site_fract_y
_atom_site_fract_z
Si Si1 0.930878 0.636017 0.108098
Si Si2 0.697692 0.152464 0.633389
Si Si3 0.689996 0.990558 0.758872
Si Si4 0.642180 0.463394 0.032885
Si Si5 0.861892 0.813672 0.729822
Si Si6 0.471986 0.698549 0.941074
O O1 0.952226 0.548328 0.150124
O O2 0.786624 0.647211 0.215187
O O3 0.885783 0.637799 0.975925
O O4 0.023041 0.713624 0.113450
O O5 0.645840 0.234412 0.693312
O O6 0.107318 0.122874 0.595825
O O7 0.671252 0.082278 0.731417
O O8 0.758434 0.963268 0.610741
O O9 0.794333 0.992457 0.860986
O O10 0.500000 0.640746 0.250000
O O11 0.500000 0.500000 0.000000
O O12 0.865381 0.830942 0.075940
O O13 0.890957 0.793036 0.584831
#
# Coordination Sequence:
#
# PCOD9300677 Si02
#       6
#     8   8   8   8   8   8
#     4  11  21  37  63  96 129 165 219 269 324 396
#     4  11  22  36  60  97 126 164 219 276 317 384
#     4  12  24  40  64  98 135 168 219 278 331 392
#     4  12  24  38  65 100 133 168 213 274 340 385
#     4  11  19  34  64  93 121 165 216 265 321 393
#     4  11  21  37  62  95 128 166 221 270 321 393
#
# _framework density 27.395820000000001
#
# number of rings (size 3 to 8) (size 9 to 14) (size 15 to 20)
#    0.000    0.667    8.333    1.500    0.000    0.000 
#    0.000    1.667    3.667    0.000    0.000    0.000 
#    0.000    0.000    0.000    0.000    0.000    0.000 
#
# Total GULP energy -134175.803558 kJ/mol
# GULP energy per Si atom -5590.658482 kJ/mol
# Density = 2.733347 g / cm^3
# Si number density = 27.395820 Si / 1000 Ang^3
#
#
#
# Elastic Constant Matrix: (Units=GPa)
#
#
# Indices 1 2 3 4 5 6 
#
# 1 80.5335 20.7405 48.7549 0.0000 0.2687 0.0000
# 2 20.7405 122.4791 35.4768 0.0000 8.0251 0.0000
# 3 48.7549 35.4768 160.5018 0.0000 8.1543 0.0000
# 4 0.0000 0.0000 0.0000 18.7009 0.0000 -16.1367
# 5 0.2687 8.0251 8.1543 0.0000 57.1171 0.0000
# 6 0.0000 0.0000 0.0000 -16.1367 0.0000 94.5413
#
#
#
# Elastic Compliance Matrix: (Units=1/GPa)
#
#
# Indices 1 2 3 4 5 6 
#
# 1 0.015450 -0.001384 -0.004426 0.000000 0.000754 0.000000
# 2 -0.001384 0.008899 -0.001494 0.000000 -0.001031 0.000000
# 3 -0.004426 -0.001494 0.007951 0.000000 -0.000904 0.000000
# 4 0.000000 0.000000 0.000000 0.062709 0.000000 0.010703
# 5 0.000754 -0.001031 -0.000904 0.000000 0.017778 0.000000
# 6 0.000000 0.000000 0.000000 0.010703 0.000000 0.012404
#
#
# Mechanical properties :
#
#
# Convention : Reuss Voigt Hill
#
# Bulk Modulus (GPa) = 56.51930 63.71764 60.11847
# Shear Modulus (GPa) = 34.31759 51.30800 42.81280
#
# Velocity S-wave (km/s) = 3.54313 4.33233 3.95745
# Velocity P-wave (km/s) = 6.11668 6.95227 6.54782
#
# Compressibility (1/GPa) = 0.01769307
#
# Stress axis : x y z
#
# Youngs Moduli (GPa) = 64.72328 112.36748 125.76878
#
# Poissons Ratio (x) = 0.15549 0.55662
# Poissons Ratio (y) = 0.08956 0.18795
# Poissons Ratio (z) = 0.28645 0.16792
#
# Static dielectric constant tensor:
#      x y z
#    x 2.056220 0.000000 0.032400 
#    y 0.000000 2.372640 0.000000 
#    z 0.032400 0.000000 2.032050 
# 
# From -- ./inp_files/106286.got.cif
#   From: 2010.05.17/outbox.cif.g08.bks.cpg/sg15_54_cif.got.tgz:106286.got - 2010.06.03 18:47:42.
