data_PCOD9300688
_publ_section_title
;
Structure prediction by ZEFSAII (Michael W. Deem and Ramdas Pophale) SiO2 
 PCOD9300688
Probable space group: C 2/C
;
_chemical_formula_sum "Si O2"
_cell_formula_units_Z 36
_cell_length_a 20.876756
_cell_length_b 8.677382
_cell_length_c 8.222696
_cell_angle_alpha 90.000000
_cell_angle_beta 72.596238
_cell_angle_gamma 90.000000
_cell_volume 1421.395041
_symmetry_space_group_name_H-M "C 2/C"
_symmetry_group_IT_number 15
_symmetry_cell_setting 'monoclinic'
loop_
_space_group_symop_operation_xyz
x,y,z
-x,y,1/2-z
-x,-y,-z
x,-y,1/2+z
1/2+x,1/2+y,z
1/2-x,1/2+y,1/2-z
1/2-x,1/2-y,-z
1/2+x,1/2-y,1/2+z
loop_
_atom_site_type_symbol
_atom_site_label
_atom_site_fract_x
_atom_site_fract_y
_atom_site_fract_z
Si Si1 0.096340 0.542283 0.004629
Si Si2 0.049291 0.193834 0.062045
Si Si3 0.000000 0.216830 0.750000
Si Si4 0.197488 0.832619 0.417712
Si Si5 0.811109 0.453315 0.802434
O O1 0.056511 0.381297 0.041381
O O2 0.171842 0.546461 0.021143
O O3 0.056591 0.675086 0.124342
O O4 0.122457 0.554462 0.800217
O O5 0.000000 0.162853 0.250000
O O6 0.028798 0.140108 0.894016
O O7 0.124120 0.132987 0.043530
O O8 0.250000 0.750000 0.500000
O O9 0.183994 0.713038 0.282087
O O10 0.237886 0.980707 0.330418
#
# Coordination Sequence:
#
# PCOD9300688 Si02
#       5
#     8   8   4   8   8
#     4  11  19  35  58  96 129 162 212 281 333 386
#     4  11  22  37  63  94 134 172 220 278 339 388
#     4  12  20  34  58 102 132 162 220 282 342 392
#     4  11  23  43  63  99 135 175 220 277 339 394
#     4  11  22  39  64  95 130 172 218 262 341 393
#
# _framework density 25.327233
#
# number of rings (size 3 to 8) (size 9 to 14) (size 15 to 20)
#    0.000    0.889   10.000    2.000    0.000    0.889 
#    0.000    0.000    0.000    1.333    2.889    0.000 
#    0.000    0.000    0.000    0.000    0.000    0.000 
#
# Total GULP energy -100485.424299 kJ/mol
# GULP energy per Si atom -5582.523572 kJ/mol
# Density = 2.526959 g / cm^3
# Si number density = 25.327233 Si / 1000 Ang^3
#
#
#
# Elastic Constant Matrix: (Units=GPa)
#
#
# Indices 1 2 3 4 5 6 
#
# 1 152.9168 20.6688 72.4478 0.0000 -18.2808 0.0000
# 2 20.6688 33.8647 2.5534 0.0000 -1.5720 0.0000
# 3 72.4478 2.5534 86.4477 0.0000 -16.0333 0.0000
# 4 0.0000 0.0000 0.0000 30.5524 0.0000 -6.6669
# 5 -18.2808 -1.5720 -16.0333 0.0000 61.9943 0.0000
# 6 0.0000 0.0000 0.0000 -6.6669 0.0000 24.6779
#
#
#
# Elastic Compliance Matrix: (Units=1/GPa)
#
#
# Indices 1 2 3 4 5 6 
#
# 1 0.012235 -0.006680 -0.009893 0.000000 0.000880 0.000000
# 2 -0.006680 0.033261 0.004629 0.000000 0.000071 0.000000
# 3 -0.009893 0.004629 0.020170 0.000000 0.002417 0.000000
# 4 0.000000 0.000000 0.000000 0.034781 0.000000 0.009396
# 5 0.000880 0.000071 0.002417 0.000000 0.017017 0.000000
# 6 0.000000 0.000000 0.000000 0.009396 0.000000 0.043061
#
#
# Mechanical properties :
#
#
# Convention : Reuss Voigt Hill
#
# Bulk Modulus (GPa) = 23.93642 51.61880 37.77761
# Shear Modulus (GPa) = 25.20963 35.28219 30.24591
#
# Velocity S-wave (km/s) = 3.15835 3.73641 3.45948
# Velocity P-wave (km/s) = 4.77196 6.24815 5.55927
#
# Compressibility (1/GPa) = 0.04177735
#
# Stress axis : x y z
#
# Youngs Moduli (GPa) = 81.73602 30.06542 49.57919
#
# Poissons Ratio (x) = 0.20085 0.49047
# Poissons Ratio (y) = 0.54603 -0.22951
# Poissons Ratio (z) = 0.80859 -0.13918
#
# Static dielectric constant tensor:
#      x y z
#    x 2.030570 0.000000 0.003080 
#    y 0.000000 2.071320 0.000000 
#    z 0.003080 0.000000 2.006840 
# 
# From -- ./inp_files/46004.got.cif
#   From: 2010.05.17/outbox.cif.g08.bks.cpg/sg15_24_cif.got.tgz:46004.got - 2010.06.03 18:47:42.
