data_PCOD9300408
_publ_section_title
;
Structure prediction by ZEFSAII (Michael W. Deem and Ramdas Pophale) SiO2 
 PCOD9300408
Probable space group: C 2/C
;
_chemical_formula_sum "Si O2"
_cell_formula_units_Z 28
_cell_length_a 27.714873
_cell_length_b 4.262846
_cell_length_c 7.730477
_cell_angle_alpha 90.000000
_cell_angle_beta 90.294573
_cell_angle_gamma 90.000000
_cell_volume 913.299225
_symmetry_space_group_name_H-M "C 2/C"
_symmetry_group_IT_number 15
_symmetry_cell_setting 'monoclinic'
loop_
_space_group_symop_operation_xyz
x,y,z
-x,y,1/2-z
-x,-y,-z
x,-y,1/2+z
1/2+x,1/2+y,z
1/2-x,1/2+y,1/2-z
1/2-x,1/2-y,-z
1/2+x,1/2-y,1/2+z
loop_
_atom_site_type_symbol
_atom_site_label
_atom_site_fract_x
_atom_site_fract_y
_atom_site_fract_z
Si Si1 0.500000 0.167943 0.250000
Si Si2 0.286423 0.216147 0.746176
Si Si3 0.430104 0.726333 0.023831
Si Si4 0.359876 0.282571 0.242946
O O1 0.530611 0.378484 0.118468
O O2 0.538098 0.955286 0.356738
O O3 0.249318 0.468642 0.658785
O O4 0.324043 0.461343 0.828977
O O5 0.323977 0.974075 0.659209
O O6 0.391142 0.881737 0.893235
O O7 0.397586 0.475553 0.125170
#
# Coordination Sequence:
#
# PCOD9300408 Si02
#       4
#     4   8   8   8
#     4  10  26  52  78 112 156 204 258 316 382 452
#     4   9  21  46  74 110 152 200 250 310 379 455
#     4  11  26  47  78 114 154 204 256 316 380 453
#     4  11  24  45  75 111 154 201 253 311 378 453
#
# _framework density 30.658080000000002
#
# number of rings (size 3 to 8) (size 9 to 14) (size 15 to 20)
#    0.000    1.714    0.000    1.714    0.000   14.857 
#    0.000   28.571    0.000    0.000    0.000    0.000 
#    0.000    0.000    0.000    0.000    0.000    0.000 
#
# Total GULP energy -78134.931261 kJ/mol
# GULP energy per Si atom -5581.066519 kJ/mol
# Density = 3.058830 g / cm^3
# Si number density = 30.658080 Si / 1000 Ang^3
#
#
#
# Elastic Constant Matrix: (Units=GPa)
#
#
# Indices 1 2 3 4 5 6 
#
# 1 268.9687 125.5171 119.1593 0.0000 1.2073 0.0000
# 2 125.5171 159.1626 44.2799 0.0000 5.4062 0.0000
# 3 119.1593 44.2799 91.9046 0.0000 -5.2152 0.0000
# 4 0.0000 0.0000 0.0000 8.8306 0.0000 16.5958
# 5 1.2073 5.4062 -5.2152 0.0000 64.4871 0.0000
# 6 0.0000 0.0000 0.0000 16.5958 0.0000 137.7306
#
#
#
# Elastic Compliance Matrix: (Units=1/GPa)
#
#
# Indices 1 2 3 4 5 6 
#
# 1 0.012413 -0.006088 -0.013206 0.000000 -0.000790 0.000000
# 2 -0.006088 0.010293 0.002905 0.000000 -0.000514 0.000000
# 3 -0.013206 0.002905 0.026726 0.000000 0.002165 0.000000
# 4 0.000000 0.000000 0.000000 0.146394 0.000000 -0.017640
# 5 -0.000790 -0.000514 0.002165 0.000000 0.015740 0.000000
# 6 0.000000 0.000000 0.000000 -0.017640 0.000000 0.009386
#
#
# Mechanical properties :
#
#
# Convention : Reuss Voigt Hill
#
# Bulk Modulus (GPa) = 60.04259 121.99428 91.01843
# Shear Modulus (GPa) = 19.28411 57.61496 38.44953
#
# Velocity S-wave (km/s) = 2.51072 4.33976 3.54523
# Velocity P-wave (km/s) = 5.29453 8.06162 6.81989
#
# Compressibility (1/GPa) = 0.01665485
#
# Stress axis : x y z
#
# Youngs Moduli (GPa) = 80.56050 97.14981 37.41713
#
# Poissons Ratio (x) = 0.59148 0.49412
# Poissons Ratio (y) = 0.49048 -0.10871
# Poissons Ratio (z) = 1.06385 -0.28225
#
# Static dielectric constant tensor:
#      x y z
#    x 2.366300 0.000000 -0.013810 
#    y 0.000000 2.306660 0.000000 
#    z -0.013810 0.000000 2.386860 
# 
# From -- ./inp_files/64299.got.cif
#   From: 2010.05.17/outbox.cif.g08.bks.cpg/sg15_33_cif.got.tgz:64299.got - 2010.06.03 18:47:42.
