data_PCOD9300008
_publ_section_title
;
Structure prediction by ZEFSAII (Michael W. Deem and Ramdas Pophale) SiO2 
 PCOD9300008
Probable space group: C 2/C
;
_chemical_formula_sum "Si O2"
_cell_formula_units_Z 52
_cell_length_a 11.798881
_cell_length_b 22.270699
_cell_length_c 8.689235
_cell_angle_alpha 90.000000
_cell_angle_beta 89.647523
_cell_angle_gamma 90.000000
_cell_volume 2283.221230
_symmetry_space_group_name_H-M "C 2/C"
_symmetry_group_IT_number 15
_symmetry_cell_setting 'monoclinic'
loop_
_space_group_symop_operation_xyz
x,y,z
-x,y,1/2-z
-x,-y,-z
x,-y,1/2+z
1/2+x,1/2+y,z
1/2-x,1/2+y,1/2-z
1/2-x,1/2-y,-z
1/2+x,1/2-y,1/2+z
loop_
_atom_site_type_symbol
_atom_site_label
_atom_site_fract_x
_atom_site_fract_y
_atom_site_fract_z
Si Si1 0.500000 0.477004 0.750000
Si Si2 0.743586 0.814091 0.420419
Si Si3 0.371230 0.569557 0.535137
Si Si4 0.501807 0.308001 0.420620
Si Si5 0.409341 0.896899 0.868464
Si Si6 0.852229 0.714868 0.917721
Si Si7 0.868391 0.581640 0.051232
O O1 0.427962 0.521212 0.643987
O O2 0.577966 0.438454 0.636132
O O3 0.750000 0.750000 0.500000
O O4 0.874886 0.834997 0.432184
O O5 0.665412 0.857595 0.520987
O O6 0.687129 0.801689 0.254615
O O7 0.408937 0.636977 0.580460
O O8 0.237447 0.556939 0.539797
O O9 0.500000 0.279006 0.250000
O O10 0.540571 0.259042 0.547675
O O11 0.499557 0.935669 0.964336
O O12 0.340043 0.928382 0.732969
O O13 0.631783 0.848425 0.999009
O O14 0.750000 0.750000 0.000000
O O15 0.000000 0.635717 0.250000
#
# Coordination Sequence:
#
# PCOD9300008 Si02
#       7
#     4   8   8   8   8   8   8
#     4  10  26  40  68  98 126 154 234 278 354 392
#     4  12  25  37  57  92 136 176 227 262 307 390
#     4  11  22  44  64  97 121 171 207 289 342 396
#     4  12  25  39  66  95 139 172 222 268 335 393
#     4   8  22  40  59  88 121 176 214 266 306 382
#     4  12  22  37  59  94 132 184 209 260 316 407
#     4   9  20  40  66  82 135 166 213 256 336 372
#
# _framework density 22.774840999999999
#
# number of rings (size 3 to 8) (size 9 to 14) (size 15 to 20)
#    0.923    0.308    3.846    1.846    4.308    2.462 
#    0.000    0.000    0.000    3.692    0.000    0.000 
#    0.000    0.000    0.000    0.000    0.000    0.000 
#
# Total GULP energy -144884.130620 kJ/mol
# GULP energy per Si atom -5572.466562 kJ/mol
# Density = 2.272300 g / cm^3
# Si number density = 22.774841 Si / 1000 Ang^3
#
#
#
# Elastic Constant Matrix: (Units=GPa)
#
#
# Indices 1 2 3 4 5 6 
#
# 1 132.6441 12.9546 53.5376 0.0000 24.0989 0.0000
# 2 12.9546 48.1318 1.0653 0.0000 8.4474 0.0000
# 3 53.5376 1.0653 71.3850 0.0000 24.1904 0.0000
# 4 0.0000 0.0000 0.0000 8.0788 0.0000 -4.1831
# 5 24.0989 8.4474 24.1904 0.0000 44.4014 0.0000
# 6 0.0000 0.0000 0.0000 -4.1831 0.0000 0.0452
#
#
#
# Elastic Compliance Matrix: (Units=1/GPa)
#
#
# Indices 1 2 3 4 5 6 
#
# 1 0.011238 -0.002627 -0.007962 0.000000 -0.001262 0.000000
# 2 -0.002627 0.022208 0.003173 0.000000 -0.004528 0.000000
# 3 -0.007962 0.003173 0.022900 0.000000 -0.008759 0.000000
# 4 0.000000 0.000000 0.000000 -0.002636 0.000000 -0.244144
# 5 -0.001262 -0.004528 -0.008759 0.000000 0.028840 0.000000
# 6 0.000000 0.000000 0.000000 -0.244144 0.000000 -0.471511
#
#
# Mechanical properties :
#
#
# Convention : Reuss Voigt Hill
#
# Bulk Modulus (GPa) = 24.08719 43.03065 33.55892
# Shear Modulus (GPa) = -13.87770 22.81197 4.46714
#
# Velocity S-wave (km/s) = -2.47117 3.16829 1.40203
# Velocity P-wave (km/s) = 1.56747 5.68498 4.16989
#
# Compressibility (1/GPa) = 0.04151585
#
# Stress axis : x y z
#
# Youngs Moduli (GPa) = 88.98121 45.02915 43.66721
#
# Poissons Ratio (x) = 0.11829 0.34766
# Poissons Ratio (y) = 0.23376 -0.13857
# Poissons Ratio (z) = 0.70844 -0.14289
#
# Static dielectric constant tensor:
#      x y z
#    x 2.007170 0.000000 0.056930 
#    y 0.000000 1.804410 0.000000 
#    z 0.056930 0.000000 1.911590 
# 
# From -- ./inp_files/33731.got.cif
#   From: 2010.05.17/outbox.cif.g08.bks.cpg/sg15_17_cif.got.tgz:33731.got - 2010.06.03 18:47:42.
