data_PCOD9300529
_publ_section_title
;
Structure prediction by ZEFSAII (Michael W. Deem and Ramdas Pophale) SiO2 
 PCOD9300529
Probable space group: C 2/C
;
_chemical_formula_sum "Si O2"
_cell_formula_units_Z 56
_cell_length_a 13.651632
_cell_length_b 23.804483
_cell_length_c 17.054099
_cell_angle_alpha 90.000000
_cell_angle_beta 143.176836
_cell_angle_gamma 90.000000
_cell_volume 3321.625315
_symmetry_space_group_name_H-M "C 2/C"
_symmetry_group_IT_number 15
_symmetry_cell_setting 'monoclinic'
loop_
_space_group_symop_operation_xyz
x,y,z
-x,y,1/2-z
-x,-y,-z
x,-y,1/2+z
1/2+x,1/2+y,z
1/2-x,1/2+y,1/2-z
1/2-x,1/2-y,-z
1/2+x,1/2-y,1/2+z
loop_
_atom_site_type_symbol
_atom_site_label
_atom_site_fract_x
_atom_site_fract_y
_atom_site_fract_z
Si Si1 0.339974 0.805267 0.589974
Si Si2 0.894982 0.106083 0.477540
Si Si3 0.267815 0.926662 0.250000
Si Si4 0.500000 0.524108 0.250000
Si Si5 0.283150 0.019856 0.033150
Si Si6 0.500000 0.071739 0.750000
Si Si7 0.713594 0.561575 0.250000
Si Si8 0.060098 0.393917 0.977539
O O1 0.500000 0.797783 0.750000
O O2 0.250000 0.750000 0.500000
O O3 0.200784 0.840622 0.548097
O O4 0.395410 0.840622 0.548097
O O5 0.782940 0.055130 0.437243
O O6 0.878695 0.096854 0.375277
O O7 0.083147 0.096950 0.621893
O O8 0.383701 0.907970 0.250000
O O9 0.339363 0.903050 0.378109
O O10 0.252412 0.995663 0.250000
O O11 0.370878 0.487487 0.120878
O O12 0.597979 0.558545 0.250000
O O13 0.408455 0.055130 0.062758
O O14 0.367188 0.964385 0.117189
O O15 0.871858 0.596854 0.375276
#
# Coordination Sequence:
#
# PCOD9300529 Si02
#       8
#     8   8   8   4   8   4   8   8
#     4  11  26  46  71  94 116 152 206 271 325 368
#     4  11  22  37  58  84 124 158 203 253 312 357
#     4  12  22  34  54  87 124 176 205 243 289 369
#     4  12  22  28  50  78 118 160 212 224 274 352
#     4  11  18  31  49  78 111 166 198 240 277 354
#     4  12  22  30  52  78 122 170 210 222 278 350
#     4  12  20  36  50  83 122 172 203 241 291 361
#     4  11  22  37  58  84 124 158 203 253 312 357
#
# _framework density 16.859216
#
# number of rings (size 3 to 8) (size 9 to 14) (size 15 to 20)
#    0.000    0.571    7.143    2.571    4.000    1.143 
#    0.000    0.000    0.000    0.000    0.000    6.000 
#    0.000    0.000    0.000    0.000    0.000    0.000 
#
# Total GULP energy -155906.854544 kJ/mol
# GULP energy per Si atom -5568.101948 kJ/mol
# Density = 1.682084 g / cm^3
# Si number density = 16.859216 Si / 1000 Ang^3
#
#
#
# Elastic Constant Matrix: (Units=GPa)
#
#
# Indices 1 2 3 4 5 6 
#
# 1 126.3810 33.6810 13.5798 0.0000 -2.1258 0.0000
# 2 33.6810 73.5398 42.2199 0.0000 0.2330 0.0000
# 3 13.5798 42.2199 104.5704 0.0000 1.5269 0.0000
# 4 0.0000 0.0000 0.0000 19.5582 0.0000 0.5104
# 5 -2.1258 0.2330 1.5269 0.0000 17.6694 -0.0001
# 6 0.0000 0.0000 0.0000 0.5104 -0.0001 0.9019
#
#
#
# Elastic Compliance Matrix: (Units=1/GPa)
#
#
# Indices 1 2 3 4 5 6 
#
# 1 0.009067 -0.004518 0.000631 0.000000 0.001096 0.000000
# 2 -0.004518 0.019955 -0.007468 0.000000 -0.000161 0.000000
# 3 0.000631 -0.007468 0.012509 0.000000 -0.000907 0.000000
# 4 0.000000 0.000000 0.000000 0.051896 0.000000 -0.029370
# 5 0.001096 -0.000161 -0.000907 0.000000 0.056807 0.000003
# 6 0.000000 0.000000 0.000000 -0.029370 0.000003 1.125345
#
#
# Mechanical properties :
#
#
# Convention : Reuss Voigt Hill
#
# Bulk Modulus (GPa) = 53.13146 53.71695 53.42421
# Shear Modulus (GPa) = 3.83269 21.95994 12.89632
#
# Velocity S-wave (km/s) = 1.50940 3.61300 2.76876
# Velocity P-wave (km/s) = 5.88395 7.02398 6.47909
#
# Compressibility (1/GPa) = 0.01882124
#
# Stress axis : x y z
#
# Youngs Moduli (GPa) = 110.28485 50.11182 79.94028
#
# Poissons Ratio (x) = 0.22643 -0.05043
# Poissons Ratio (y) = 0.49832 0.59698
# Poissons Ratio (z) = -0.06957 0.37422
#
# Static dielectric constant tensor:
#      x y z
#    x 1.616650 0.000000 -0.001140 
#    y 0.000000 1.564040 0.000000 
#    z -0.001140 0.000000 1.575100 
# 
# From -- ./inp_files/148605.got.cif
#   From: 2010.05.17/outbox.cif.g08.bks.cpg/sg15_75_cif.got.tgz:148605.got - 2010.06.03 18:47:42.
