data_PCOD9300911
_publ_section_title
;
Structure prediction by ZEFSAII (Michael W. Deem and Ramdas Pophale) SiO2 
 PCOD9300911
Probable space group: C 2/C
;
_chemical_formula_sum "Si O2"
_cell_formula_units_Z 40
_cell_length_a 9.806326
_cell_length_b 9.598918
_cell_length_c 19.629546
_cell_angle_alpha 90.000000
_cell_angle_beta 56.811419
_cell_angle_gamma 90.000000
_cell_volume 1546.317394
_symmetry_space_group_name_H-M "C 2/C"
_symmetry_group_IT_number 15
_symmetry_cell_setting 'monoclinic'
loop_
_space_group_symop_operation_xyz
x,y,z
-x,y,1/2-z
-x,-y,-z
x,-y,1/2+z
1/2+x,1/2+y,z
1/2-x,1/2+y,1/2-z
1/2-x,1/2-y,-z
1/2+x,1/2-y,1/2+z
loop_
_atom_site_type_symbol
_atom_site_label
_atom_site_fract_x
_atom_site_fract_y
_atom_site_fract_z
Si Si1 0.043226 0.280186 0.160065
Si Si2 0.654104 0.936438 0.588964
Si Si3 0.934303 0.145344 0.920906
Si Si4 0.315356 0.512217 0.331358
Si Si5 0.277285 0.556776 0.196520
O O1 0.100659 0.404154 0.096327
O O2 0.181773 0.161475 0.132162
O O3 0.000000 0.323896 0.250000
O O4 0.888190 0.193919 0.175847
O O5 0.838057 0.913834 0.511629
O O6 0.556304 0.811507 0.580338
O O7 0.655571 0.912711 0.669445
O O8 0.814424 0.103013 0.889908
O O9 0.104006 0.068203 0.861112
O O10 0.500000 0.499988 0.250000
O O11 0.214220 0.514746 0.289021
#
# Coordination Sequence:
#
# PCOD9300911 Si02
#       5
#     8   8   8   8   8
#     4   8  18  35  52  77 104 129 177 222 246 302
#     4  11  20  33  56  78 103 140 171 209 262 304
#     4   9  20  35  50  80 112 130 169 218 253 307
#     4   7  15  33  51  70 103 134 163 213 254 290
#     4   9  19  37  55  73 104 140 172 210 257 308
#
# _framework density 25.867909000000001
#
# number of rings (size 3 to 8) (size 9 to 14) (size 15 to 20)
#    0.000    4.000    0.000    0.600    0.000    8.800 
#    0.000    8.000    0.000    0.000    0.000    0.000 
#    0.000    0.000    0.000    0.000    0.000    0.000 
#
# Total GULP energy -111793.619100 kJ/mol
# GULP energy per Si atom -5589.680955 kJ/mol
# Density = 2.580903 g / cm^3
# Si number density = 25.867909 Si / 1000 Ang^3
#
#
#
# Elastic Constant Matrix: (Units=GPa)
#
#
# Indices 1 2 3 4 5 6 
#
# 1 42.1871 -15.8480 14.2214 0.0000 2.4891 0.0000
# 2 -15.8480 128.9175 23.3780 0.0000 -22.4836 0.0000
# 3 14.2214 23.3780 82.9235 0.0000 -5.1870 0.0000
# 4 0.0000 0.0000 0.0000 32.2004 0.0000 -6.0963
# 5 2.4891 -22.4836 -5.1870 0.0000 36.8977 0.0000
# 6 0.0000 0.0000 0.0000 -6.0963 0.0000 30.9176
#
#
#
# Elastic Compliance Matrix: (Units=1/GPa)
#
#
# Indices 1 2 3 4 5 6 
#
# 1 0.027379 0.004449 -0.005948 0.000000 0.000028 0.000000
# 2 0.004449 0.009794 -0.003198 0.000000 0.005218 0.000000
# 3 -0.005948 -0.003198 0.014007 0.000000 0.000422 0.000000
# 4 0.000000 0.000000 0.000000 0.032260 0.000000 0.006361
# 5 0.000028 0.005218 0.000422 0.000000 0.030339 0.000000
# 6 0.000000 0.000000 0.000000 0.006361 0.000000 0.033598
#
#
# Mechanical properties :
#
#
# Convention : Reuss Voigt Hill
#
# Bulk Modulus (GPa) = 23.93104 33.05900 28.49502
# Shear Modulus (GPa) = 29.29130 35.48823 32.38977
#
# Velocity S-wave (km/s) = 3.36868 3.70794 3.54237
# Velocity P-wave (km/s) = 4.93984 5.58027 5.26979
#
# Compressibility (1/GPa) = 0.04178673
#
# Stress axis : x y z
#
# Youngs Moduli (GPa) = 36.52462 102.10551 71.39133
#
# Poissons Ratio (x) = -0.45429 0.42464
# Poissons Ratio (y) = -0.16251 0.22829
# Poissons Ratio (z) = 0.21725 0.32651
#
# Static dielectric constant tensor:
#      x y z
#    x 2.139630 0.000000 0.032190 
#    y 0.000000 2.059950 0.000000 
#    z 0.032190 0.000000 1.979590 
# 
# From -- ./inp_files/241895.got.cif
#   From: 2010.05.17/outbox.cif.g08.bks.cpg/sg15_121_cif.got.tgz:241895.got - 2010.06.03 18:47:42.
