data_PCOD9300434
_publ_section_title
;
Structure prediction by ZEFSAII (Michael W. Deem and Ramdas Pophale) SiO2 
 PCOD9300434
Probable space group: C 2/C
;
_chemical_formula_sum "Si O2"
_cell_formula_units_Z 40
_cell_length_a 20.218339
_cell_length_b 12.879954
_cell_length_c 9.546672
_cell_angle_alpha 90.000000
_cell_angle_beta 143.125675
_cell_angle_gamma 90.000000
_cell_volume 1491.790302
_symmetry_space_group_name_H-M "C 2/C"
_symmetry_group_IT_number 15
_symmetry_cell_setting 'monoclinic'
loop_
_space_group_symop_operation_xyz
x,y,z
-x,y,1/2-z
-x,-y,-z
x,-y,1/2+z
1/2+x,1/2+y,z
1/2-x,1/2+y,1/2-z
1/2-x,1/2-y,-z
1/2+x,1/2-y,1/2+z
loop_
_atom_site_type_symbol
_atom_site_label
_atom_site_fract_x
_atom_site_fract_y
_atom_site_fract_z
Si Si1 0.125106 0.564021 0.946213
Si Si2 0.784585 0.902307 0.277647
Si Si3 0.399187 0.210953 0.853738
Si Si4 0.856012 0.708036 0.265143
Si Si5 0.560907 0.429390 0.486026
O O1 0.116073 0.658884 0.823149
O O2 0.000000 0.523697 0.750000
O O3 0.209397 0.472964 0.043968
O O4 0.160355 0.614076 0.154663
O O5 0.691017 0.846111 0.206375
O O6 0.870297 0.814326 0.377288
O O7 0.860876 0.991788 0.466312
O O8 0.527076 0.190283 0.110490
O O9 0.381772 0.334084 0.836698
O O10 0.750000 0.750000 0.000000
O O11 0.500000 0.378521 0.250000
O O12 0.500000 0.500000 0.500000
#
# Coordination Sequence:
#
# PCOD9300434 Si02
#       5
#     8   8   8   8   8
#     4  10  27  49  76 116 159 213 263 330 401 482
#     4  12  28  45  82 113 155 210 268 323 410 467
#     4  11  28  51  80 111 167 209 270 329 404 488
#     4  11  27  47  76 114 160 204 267 335 401 476
#     4  12  30  52  82 120 161 211 275 334 402 480
#
# _framework density 26.813419
#
# number of rings (size 3 to 8) (size 9 to 14) (size 15 to 20)
#    0.000    0.800    2.000    1.200   16.800    3.200 
#    0.000    0.000    0.000    0.000    0.000    0.000 
#    0.000    0.000    0.000    0.000    0.000    0.000 
#
# Total GULP energy -111812.804322 kJ/mol
# GULP energy per Si atom -5590.640216 kJ/mol
# Density = 2.675239 g / cm^3
# Si number density = 26.813419 Si / 1000 Ang^3
#
#
#
# Elastic Constant Matrix: (Units=GPa)
#
#
# Indices 1 2 3 4 5 6 
#
# 1 115.8891 67.4480 38.0655 0.0000 10.5428 0.0000
# 2 67.4480 135.8584 3.6967 0.0000 9.2705 0.0000
# 3 38.0655 3.6967 76.1433 0.0000 1.5109 0.0000
# 4 0.0000 0.0000 0.0000 38.0910 0.0000 12.8180
# 5 10.5428 9.2705 1.5109 0.0000 35.5098 0.0000
# 6 0.0000 0.0000 0.0000 12.8180 0.0000 50.1915
#
#
#
# Elastic Compliance Matrix: (Units=1/GPa)
#
#
# Indices 1 2 3 4 5 6 
#
# 1 0.015546 -0.007355 -0.007368 0.000000 -0.002382 0.000000
# 2 -0.007355 0.010982 0.003160 0.000000 -0.000818 0.000000
# 3 -0.007368 0.003160 0.016650 0.000000 0.000654 0.000000
# 4 0.000000 0.000000 0.000000 0.028721 0.000000 -0.007335
# 5 -0.002382 -0.000818 0.000654 0.000000 0.029054 0.000000
# 6 0.000000 0.000000 0.000000 -0.007335 0.000000 0.021797
#
#
# Mechanical properties :
#
#
# Convention : Reuss Voigt Hill
#
# Bulk Modulus (GPa) = 49.86812 60.70127 55.28469
# Shear Modulus (GPa) = 32.77404 39.33718 36.05561
#
# Velocity S-wave (km/s) = 3.49993 3.83439 3.67097
# Velocity P-wave (km/s) = 5.91365 6.50315 6.21539
#
# Compressibility (1/GPa) = 0.02005289
#
# Stress axis : x y z
#
# Youngs Moduli (GPa) = 64.32401 91.05886 60.06040
#
# Poissons Ratio (x) = 0.66974 0.44250
# Poissons Ratio (y) = 0.47311 -0.18979
# Poissons Ratio (z) = 0.47391 -0.28775
#
# Static dielectric constant tensor:
#      x y z
#    x 2.116250 0.000000 -0.067840 
#    y 0.000000 2.077370 0.000000 
#    z -0.067840 0.000000 2.148360 
# 
# From -- ./inp_files/118874.got.cif
#   From: 2010.05.17/outbox.cif.g08.bks.cpg/sg15_60_cif.got.tgz:118874.got - 2010.06.03 18:47:42.
