data_PCOD9300077
_publ_section_title
;
Structure prediction by ZEFSAII (Michael W. Deem and Ramdas Pophale) SiO2 
 PCOD9300077
Probable space group: C 2/C
;
_chemical_formula_sum "Si O2"
_cell_formula_units_Z 44
_cell_length_a 28.090439
_cell_length_b 8.612701
_cell_length_c 8.060617
_cell_angle_alpha 90.000000
_cell_angle_beta 65.433906
_cell_angle_gamma 90.000000
_cell_volume 1773.619402
_symmetry_space_group_name_H-M "C 2/C"
_symmetry_group_IT_number 15
_symmetry_cell_setting 'monoclinic'
loop_
_space_group_symop_operation_xyz
x,y,z
-x,y,1/2-z
-x,-y,-z
x,-y,1/2+z
1/2+x,1/2+y,z
1/2-x,1/2+y,1/2-z
1/2-x,1/2-y,-z
1/2+x,1/2-y,1/2+z
loop_
_atom_site_type_symbol
_atom_site_label
_atom_site_fract_x
_atom_site_fract_y
_atom_site_fract_z
Si Si1 0.477126 0.337572 0.967183
Si Si2 0.500000 0.882990 0.750000
Si Si3 0.385002 0.059788 0.452136
Si Si4 0.215765 0.057325 0.891684
Si Si5 0.184595 0.761855 0.752852
Si Si6 0.360603 0.761367 0.652727
O O1 0.500000 0.307877 0.750000
O O2 0.500000 0.500000 0.000000
O O3 0.491273 0.217171 0.094833
O O4 0.413815 0.336011 0.048006
O O5 0.553489 0.974120 0.642334
O O6 0.369787 0.184593 0.615435
O O7 0.367943 0.144750 0.310940
O O8 0.356444 0.898526 0.523826
O O9 0.274497 0.119781 0.826849
O O10 0.189474 0.153838 0.780381
O O11 0.206771 0.878606 0.862594
O O12 0.184617 0.128963 0.092506
#
# Coordination Sequence:
#
# PCOD9300077 Si02
#       6
#     8   4   8   8   8   8
#     4  11  25  42  68  97 137 183 232 294 348 421
#     4  10  26  44  66 102 138 184 242 284 362 416
#     4  11  25  45  68 100 139 183 231 294 344 421
#     4  11  25  44  70 106 135 187 229 288 354 420
#     4  11  25  44  72 100 145 179 234 289 350 420
#     4  11  26  42  70 100 136 182 234 286 355 415
#
# _framework density 24.808029000000001
#
# number of rings (size 3 to 8) (size 9 to 14) (size 15 to 20)
#    0.000    1.091    0.909    3.273    8.909    7.273 
#    0.000    0.000    0.000    0.000    0.000    0.000 
#    0.000    0.000    0.000    0.000    0.000    0.000 
#
# Total GULP energy -123205.110216 kJ/mol
# GULP energy per Si atom -5600.232283 kJ/mol
# Density = 2.475157 g / cm^3
# Si number density = 24.808029 Si / 1000 Ang^3
#
#
#
# Elastic Constant Matrix: (Units=GPa)
#
#
# Indices 1 2 3 4 5 6 
#
# 1 52.0591 -0.1917 -0.1891 0.0000 7.1947 0.0000
# 2 -0.1917 98.2736 22.1422 0.0000 -9.1211 0.0000
# 3 -0.1891 22.1422 105.7307 0.0000 23.1349 0.0000
# 4 0.0000 0.0000 0.0000 22.1203 0.0000 -0.4115
# 5 7.1947 -9.1211 23.1349 0.0000 30.8102 0.0000
# 6 0.0000 0.0000 0.0000 -0.4115 0.0000 40.2605
#
#
#
# Elastic Compliance Matrix: (Units=1/GPa)
#
#
# Indices 1 2 3 4 5 6 
#
# 1 0.020056 -0.000879 0.001558 0.000000 -0.006113 0.000000
# 2 -0.000879 0.011658 -0.003881 0.000000 0.006571 0.000000
# 3 0.001558 -0.003881 0.012689 0.000000 -0.011041 0.000000
# 4 0.000000 0.000000 0.000000 0.045216 0.000000 0.000462
# 5 -0.006113 0.006571 -0.011041 0.000000 0.044120 0.000000
# 6 0.000000 0.000000 0.000000 0.000462 0.000000 0.024843
#
#
# Mechanical properties :
#
#
# Convention : Reuss Voigt Hill
#
# Bulk Modulus (GPa) = 26.31641 33.28737 29.80189
# Shear Modulus (GPa) = 28.14463 34.25832 31.20148
#
# Velocity S-wave (km/s) = 3.37188 3.72013 3.55028
# Velocity P-wave (km/s) = 5.07844 5.64797 5.37076
#
# Compressibility (1/GPa) = 0.03799911
#
# Stress axis : x y z
#
# Youngs Moduli (GPa) = 49.85978 85.77669 78.80633
#
# Poissons Ratio (x) = 0.07542 -0.12275
# Poissons Ratio (y) = 0.04384 0.30583
# Poissons Ratio (z) = -0.07767 0.33288
#
# Static dielectric constant tensor:
#      x y z
#    x 1.950170 0.000000 0.083400 
#    y 0.000000 1.903120 0.000000 
#    z 0.083400 0.000000 2.059510 
# 
# From -- ./inp_files/68495.got.cif
#   From: 2010.05.17/outbox.cif.g08.bks.cpg/sg15_35_cif.got.tgz:68495.got - 2010.06.03 18:47:42.
