data_PCOD9300848
_publ_section_title
;
Structure prediction by ZEFSAII (Michael W. Deem and Ramdas Pophale) SiO2 
 PCOD9300848
Probable space group: C 2/C
;
_chemical_formula_sum "Si O2"
_cell_formula_units_Z 60
_cell_length_a 29.474288
_cell_length_b 18.495939
_cell_length_c 12.707845
_cell_angle_alpha 90.000000
_cell_angle_beta 26.930702
_cell_angle_gamma 90.000000
_cell_volume 3137.660407
_symmetry_space_group_name_H-M "C 2/C"
_symmetry_group_IT_number 15
_symmetry_cell_setting 'monoclinic'
loop_
_space_group_symop_operation_xyz
x,y,z
-x,y,1/2-z
-x,-y,-z
x,-y,1/2+z
1/2+x,1/2+y,z
1/2-x,1/2+y,1/2-z
1/2-x,1/2-y,-z
1/2+x,1/2-y,1/2+z
loop_
_atom_site_type_symbol
_atom_site_label
_atom_site_fract_x
_atom_site_fract_y
_atom_site_fract_z
Si Si1 0.990403 0.397906 0.047353
Si Si2 0.329122 0.564796 0.209516
Si Si3 0.378073 0.978120 0.881030
Si Si4 0.000000 0.991492 0.750000
Si Si5 0.898691 0.097517 0.283300
Si Si6 0.773104 0.768614 0.829179
Si Si7 0.050687 0.749695 0.756484
Si Si8 0.336444 0.116159 0.671864
O O1 0.958633 0.456830 0.200920
O O2 0.995379 0.319047 0.088377
O O3 0.901551 0.398653 0.142381
O O4 0.088867 0.424395 0.781856
O O5 0.228607 0.517373 0.413644
O O6 0.387656 0.555659 0.197774
O O7 0.310449 0.650241 0.243631
O O8 0.402622 0.539523 0.967397
O O9 0.374772 0.932470 0.995871
O O10 0.972863 0.941167 0.708901
O O11 0.941305 0.179086 0.187752
O O12 0.782771 0.102057 0.564358
O O13 0.840738 0.703117 0.646392
O O14 0.750000 0.750000 0.000000
O O15 0.666160 0.768567 0.993814
O O16 0.000000 0.765287 0.750000
#
# Coordination Sequence:
#
# PCOD9300848 Si02
#       8
#     8   8   8   4   8   8   8   8
#     4  11  22  40  61 100 129 171 200 262 326 383
#     4  12  22  44  64  93 124 167 215 264 313 385
#     4  11  23  37  63  96 134 158 209 261 322 374
#     4  12  26  40  64  96 120 166 218 266 318 360
#     4  11  21  41  68  85 126 169 211 262 313 371
#     4  11  19  41  67  87 122 173 213 257 316 380
#     4  11  21  38  67  93 122 168 215 255 309 391
#     4  11  20  40  68  90 127 171 212 258 312 390
#
# _framework density 19.122527999999999
#
# number of rings (size 3 to 8) (size 9 to 14) (size 15 to 20)
#    0.000    0.800    8.667    0.800    0.000    2.133 
#    7.200    0.000    0.000    4.000    0.000    0.000 
#    0.000    0.000    0.000    0.000    0.000    0.000 
#
# Total GULP energy -167385.045252 kJ/mol
# GULP energy per Si atom -5579.501508 kJ/mol
# Density = 1.907900 g / cm^3
# Si number density = 19.122528 Si / 1000 Ang^3
#
#
#
# Elastic Constant Matrix: (Units=GPa)
#
#
# Indices 1 2 3 4 5 6 
#
# 1 73.0165 24.0693 -4.0527 0.0000 -3.7351 0.0000
# 2 24.0693 132.5848 49.6359 0.0000 6.8581 0.0000
# 3 -4.0527 49.6359 64.1569 0.0000 2.6699 0.0000
# 4 0.0000 0.0000 0.0000 20.0537 0.0000 4.2714
# 5 -3.7351 6.8581 2.6699 0.0000 25.3363 0.0000
# 6 0.0000 0.0000 0.0000 4.2714 0.0000 31.5376
#
#
#
# Elastic Compliance Matrix: (Units=1/GPa)
#
#
# Indices 1 2 3 4 5 6 
#
# 1 0.015644 -0.004677 0.004477 0.000000 0.003100 0.000000
# 2 -0.004677 0.012119 -0.009548 0.000000 -0.002964 0.000000
# 3 0.004477 -0.009548 0.023224 0.000000 0.000797 0.000000
# 4 0.000000 0.000000 0.000000 0.051347 0.000000 -0.006954
# 5 0.003100 -0.002964 0.000797 0.000000 0.040644 0.000000
# 6 0.000000 0.000000 0.000000 -0.006954 0.000000 0.032650
#
#
# Mechanical properties :
#
#
# Convention : Reuss Voigt Hill
#
# Bulk Modulus (GPa) = 31.75419 45.45147 38.60283
# Shear Modulus (GPa) = 24.31655 28.72590 26.52123
#
# Velocity S-wave (km/s) = 3.56984 3.88003 3.72816
# Velocity P-wave (km/s) = 5.79943 6.62518 6.22601
#
# Compressibility (1/GPa) = 0.03149191
#
# Stress axis : x y z
#
# Youngs Moduli (GPa) = 63.92134 82.51349 43.05967
#
# Poissons Ratio (x) = 0.38588 -0.19279
# Poissons Ratio (y) = 0.29893 0.41115
# Poissons Ratio (z) = -0.28619 0.78786
#
# Static dielectric constant tensor:
#      x y z
#    x 1.690750 0.000000 -0.001630 
#    y 0.000000 1.698010 0.000000 
#    z -0.001630 0.000000 1.677150 
# 
# From -- ./inp_files/127217.got.cif
#   From: 2010.05.17/outbox.cif.g08.bks.cpg/sg15_64_cif.got.tgz:127217.got - 2010.06.03 18:47:42.
