data_PCOD9300524
_publ_section_title
;
Structure prediction by ZEFSAII (Michael W. Deem and Ramdas Pophale) SiO2 
 PCOD9300524
Probable space group: C 2/C
;
_chemical_formula_sum "Si O2"
_cell_formula_units_Z 48
_cell_length_a 9.598905
_cell_length_b 19.301404
_cell_length_c 22.205901
_cell_angle_alpha 90.000000
_cell_angle_beta 43.431793
_cell_angle_gamma 90.000000
_cell_volume 2828.432007
_symmetry_space_group_name_H-M "C 2/C"
_symmetry_group_IT_number 15
_symmetry_cell_setting 'monoclinic'
loop_
_space_group_symop_operation_xyz
x,y,z
-x,y,1/2-z
-x,-y,-z
x,-y,1/2+z
1/2+x,1/2+y,z
1/2-x,1/2+y,1/2-z
1/2-x,1/2-y,-z
1/2+x,1/2-y,1/2+z
loop_
_atom_site_type_symbol
_atom_site_label
_atom_site_fract_x
_atom_site_fract_y
_atom_site_fract_z
Si Si1 0.943337 0.894659 0.699221
Si Si2 0.518079 0.058239 0.913295
Si Si3 0.431454 0.578981 0.003149
Si Si4 0.692049 0.329814 0.511730
Si Si5 0.334692 0.468634 0.408934
Si Si6 0.516005 0.053960 0.314700
O O1 0.702385 0.894008 0.766405
O O2 0.000000 0.877417 0.750000
O O3 0.065504 0.851074 0.611297
O O4 0.012639 0.973697 0.663572
O O5 0.718483 0.066442 0.890247
O O6 0.557592 0.014467 0.841057
O O7 0.404202 0.129685 0.940769
O O8 0.347282 0.011334 0.000982
O O9 0.562885 0.636638 0.996712
O O10 0.198799 0.584873 0.097164
O O11 0.500000 0.500000 0.000000
O O12 0.433122 0.578451 0.929908
O O13 0.750000 0.250000 0.500000
O O14 0.500000 0.036129 0.250000
#
# Coordination Sequence:
#
# PCOD9300524 Si02
#       6
#     8   8   8   8   8   8
#     4  11  20  33  59  87 115 143 194 258 312 340
#     4   9  18  32  53  81 110 146 190 241 295 348
#     4  11  18  34  58  87 111 148 199 246 288 352
#     4  11  23  39  56  79 124 169 197 232 307 390
#     4   9  17  31  54  84 110 137 188 251 292 342
#     4  11  18  29  56  92 113 135 189 269 301 328
#
# _framework density 16.970533
#
# number of rings (size 3 to 8) (size 9 to 14) (size 15 to 20)
#    0.000    1.667    8.333    0.000    2.333    0.000 
#    0.000    1.667    0.000    2.000    0.000    0.000 
#    0.000    0.000    0.000    0.000    0.000    0.000 
#
# Total GULP energy -133701.945347 kJ/mol
# GULP energy per Si atom -5570.914389 kJ/mol
# Density = 1.693191 g / cm^3
# Si number density = 16.970533 Si / 1000 Ang^3
#
#
#
# Elastic Constant Matrix: (Units=GPa)
#
#
# Indices 1 2 3 4 5 6 
#
# 1 141.1932 56.8587 35.2245 0.0016 13.1289 -0.0011
# 2 56.8587 96.3881 22.1552 0.0009 2.3974 -0.0009
# 3 35.2245 22.1552 40.6087 0.0015 -2.2428 -0.0010
# 4 0.0016 0.0009 0.0015 8.3678 -0.0013 0.2365
# 5 13.1289 2.3974 -2.2428 -0.0013 37.8683 0.0010
# 6 -0.0011 -0.0009 -0.0010 0.2365 0.0010 15.8249
#
#
#
# Elastic Compliance Matrix: (Units=1/GPa)
#
#
# Indices 1 2 3 4 5 6 
#
# 1 0.011234 -0.004843 -0.007324 -0.000001 -0.004022 0.000000
# 2 -0.004843 0.014000 -0.003404 0.000000 0.000591 0.000000
# 3 -0.007324 -0.003404 0.033096 -0.000003 0.004715 0.000001
# 4 -0.000001 0.000000 -0.000003 0.119556 0.000004 -0.001787
# 5 -0.004022 0.000591 0.004715 0.000004 0.028044 -0.000002
# 6 0.000000 0.000000 0.000001 -0.001787 -0.000002 0.063218
#
#
# Mechanical properties :
#
#
# Convention : Reuss Voigt Hill
#
# Bulk Modulus (GPa) = 36.78314 56.29631 46.53972
# Shear Modulus (GPa) = 16.16276 23.34231 19.75254
#
# Velocity S-wave (km/s) = 3.08945 3.71274 3.41535
# Velocity P-wave (km/s) = 5.86924 7.18500 6.56019
#
# Compressibility (1/GPa) = 0.02718636
#
# Stress axis : x y z
#
# Youngs Moduli (GPa) = 89.01387 71.43104 30.21507
#
# Poissons Ratio (x) = 0.34597 0.22131
# Poissons Ratio (y) = 0.43113 0.10285
# Poissons Ratio (z) = 0.65197 0.24315
#
# Static dielectric constant tensor:
#      x y z
#    x 1.625240 0.000000 0.007020 
#    y 0.000000 1.556230 0.000000 
#    z 0.007020 0.000000 1.601540 
# 
# From -- ./inp_files/233194.got.cif
#   From: 2010.05.17/outbox.cif.g08.bks.cpg/sg15_117_cif.got.tgz:233194.got - 2010.06.03 18:47:42.
