data_PCOD9300046
_publ_section_title
;
Structure prediction by ZEFSAII (Michael W. Deem and Ramdas Pophale) SiO2 
 PCOD9300046
Probable space group: C 2/C
;
_chemical_formula_sum "Si O2"
_cell_formula_units_Z 44
_cell_length_a 23.213798
_cell_length_b 4.827203
_cell_length_c 17.897571
_cell_angle_alpha 90.000000
_cell_angle_beta 118.397585
_cell_angle_gamma 90.000000
_cell_volume 1764.229003
_symmetry_space_group_name_H-M "C 2/C"
_symmetry_group_IT_number 15
_symmetry_cell_setting 'monoclinic'
loop_
_space_group_symop_operation_xyz
x,y,z
-x,y,1/2-z
-x,-y,-z
x,-y,1/2+z
1/2+x,1/2+y,z
1/2-x,1/2+y,1/2-z
1/2-x,1/2-y,-z
1/2+x,1/2-y,1/2+z
loop_
_atom_site_type_symbol
_atom_site_label
_atom_site_fract_x
_atom_site_fract_y
_atom_site_fract_z
Si Si1 0.189738 0.105854 0.505384
Si Si2 0.500000 0.638655 0.750000
Si Si3 0.110115 0.626088 0.413676
Si Si4 0.711232 0.511375 0.197483
Si Si5 0.573036 0.710889 0.166481
Si Si6 0.508087 0.772192 0.566174
O O1 0.250000 0.250000 0.500000
O O2 0.130277 0.320768 0.451039
O O3 0.199963 0.052720 0.601310
O O4 0.172985 0.821316 0.452291
O O5 0.439425 0.829178 0.684834
O O6 0.465574 0.433136 0.788857
O O7 0.064373 0.763233 0.447789
O O8 0.769359 0.731117 0.247442
O O9 0.649467 0.652085 0.201947
O O10 0.553613 0.031760 0.149090
O O11 0.543987 0.516625 0.081899
O O12 0.500000 0.000000 0.500000
#
# Coordination Sequence:
#
# PCOD9300046 Si02
#       6
#     8   4   8   8   8   8
#     4  12  27  45  73 104 148 198 248 303 366 441
#     4  10  26  42  74 106 144 196 232 314 372 440
#     4  11  24  44  69 104 146 182 250 297 371 439
#     4  12  27  47  72 104 148 199 253 302 367 448
#     4  11  24  41  66 101 139 181 243 293 367 432
#     4  11  21  40  68  97 132 178 227 302 373 420
#
# _framework density 24.940071
#
# number of rings (size 3 to 8) (size 9 to 14) (size 15 to 20)
#    0.000    0.727    0.000    7.636    5.091    6.545 
#    0.000    0.000    0.000    0.000    0.000    0.000 
#    0.000    0.000    0.000    0.000    0.000    0.000 
#
# Total GULP energy -122835.425366 kJ/mol
# GULP energy per Si atom -5583.428426 kJ/mol
# Density = 2.488331 g / cm^3
# Si number density = 24.940071 Si / 1000 Ang^3
#
#
#
# Elastic Constant Matrix: (Units=GPa)
#
#
# Indices 1 2 3 4 5 6 
#
# 1 117.5681 10.9958 19.8552 0.0002 6.5141 0.0001
# 2 10.9958 170.7536 19.5745 -0.0004 12.3849 -0.0015
# 3 19.8552 19.5745 118.9647 -0.0004 -10.8504 0.0000
# 4 0.0002 -0.0004 -0.0004 11.4685 0.0000 1.5025
# 5 6.5141 12.3849 -10.8504 0.0000 34.6317 -0.0001
# 6 0.0001 -0.0015 0.0000 1.5025 -0.0001 42.6849
#
#
#
# Elastic Compliance Matrix: (Units=1/GPa)
#
#
# Indices 1 2 3 4 5 6 
#
# 1 0.008922 -0.000233 -0.001643 0.000000 -0.002110 0.000000
# 2 -0.000233 0.006196 -0.001213 0.000000 -0.002552 0.000000
# 3 -0.001643 -0.001213 0.009211 0.000000 0.003629 0.000000
# 4 0.000000 0.000000 0.000000 0.087599 0.000000 -0.003084
# 5 -0.002110 -0.002552 0.003629 0.000000 0.031322 0.000000
# 6 0.000000 0.000000 0.000000 -0.003084 0.000000 0.023536
#
#
# Mechanical properties :
#
#
# Convention : Reuss Voigt Hill
#
# Bulk Modulus (GPa) = 55.09915 56.45971 55.77943
# Shear Modulus (GPa) = 27.93081 41.54774 34.73927
#
# Velocity S-wave (km/s) = 3.35015 4.08598 3.73622
# Velocity P-wave (km/s) = 6.09141 6.70429 6.40518
#
# Compressibility (1/GPa) = 0.01814910
#
# Stress axis : x y z
#
# Youngs Moduli (GPa) = 112.08385 161.40531 108.56957
#
# Poissons Ratio (x) = 0.03763 0.17839
# Poissons Ratio (y) = 0.02613 0.13172
# Poissons Ratio (z) = 0.18417 0.19583
#
# Static dielectric constant tensor:
#      x y z
#    x 2.054610 0.000000 0.028190 
#    y 0.000000 1.904630 0.000000 
#    z 0.028190 0.000000 2.280570 
# 
# From -- ./inp_files/217846.got.cif
#   From: 2010.05.17/outbox.cif.g08.bks.cpg/sg15_109_cif.got.tgz:217846.got - 2010.06.03 18:47:42.
