data_PCOD9300629
_publ_section_title
;
Structure prediction by ZEFSAII (Michael W. Deem and Ramdas Pophale) SiO2 
 PCOD9300629
Probable space group: C 2/C
;
_chemical_formula_sum "Si O2"
_cell_formula_units_Z 44
_cell_length_a 24.137248
_cell_length_b 20.464274
_cell_length_c 15.955290
_cell_angle_alpha 90.000000
_cell_angle_beta 18.604311
_cell_angle_gamma 90.000000
_cell_volume 2514.323556
_symmetry_space_group_name_H-M "C 2/C"
_symmetry_group_IT_number 15
_symmetry_cell_setting 'monoclinic'
loop_
_space_group_symop_operation_xyz
x,y,z
-x,y,1/2-z
-x,-y,-z
x,-y,1/2+z
1/2+x,1/2+y,z
1/2-x,1/2+y,1/2-z
1/2-x,1/2-y,-z
1/2+x,1/2-y,1/2+z
loop_
_atom_site_type_symbol
_atom_site_label
_atom_site_fract_x
_atom_site_fract_y
_atom_site_fract_z
Si Si1 0.351303 0.629837 0.863081
Si Si2 0.000000 0.013061 0.750000
Si Si3 0.378752 0.740812 0.049408
Si Si4 0.565744 0.177652 0.410021
Si Si5 0.854016 0.444808 0.193908
Si Si6 0.662645 0.115349 0.965168
O O1 0.448706 0.564515 0.751478
O O2 0.474286 0.692324 0.694231
O O3 0.307405 0.619208 0.828843
O O4 0.187869 0.646890 0.159089
O O5 0.170008 0.970251 0.490250
O O6 0.196908 0.704131 0.292601
O O7 0.369543 0.809280 0.013785
O O8 0.448375 0.764075 0.040238
O O9 0.434756 0.119712 0.621337
O O10 0.822066 0.424975 0.142305
O O11 0.000000 0.500000 0.000000
O O12 0.500000 0.088340 0.250000
#
# Coordination Sequence:
#
# PCOD9300629 Si02
#       6
#     8   4   8   8   8   8
#     4  12  19  31  54  87 118 144 183 242 300 349
#     4  12  24  38  56  78 118 172 202 224 278 354
#     4  11  19  29  54  93 121 139 175 238 329 354
#     4  11  20  32  56  84 123 143 180 244 294 366
#     4  11  22  40  55  77 118 163 201 229 285 349
#     4  11  20  32  55  87 118 144 183 248 297 350
#
# _framework density 17.499735999999999
#
# number of rings (size 3 to 8) (size 9 to 14) (size 15 to 20)
#    0.000    0.727    9.091    1.636    0.000    0.727 
#    0.000    0.000    0.000    4.364    0.000    0.000 
#    0.000    0.000    0.000    0.000    0.000    0.000 
#
# Total GULP energy -122565.801798 kJ/mol
# GULP energy per Si atom -5571.172809 kJ/mol
# Density = 1.745991 g / cm^3
# Si number density = 17.499736 Si / 1000 Ang^3
#
#
#
# Elastic Constant Matrix: (Units=GPa)
#
#
# Indices 1 2 3 4 5 6 
#
# 1 93.5044 35.9774 26.1049 0.0038 -31.9816 -0.0032
# 2 35.9774 107.4823 58.3775 0.0017 -13.8233 -0.0034
# 3 26.1049 58.3775 85.9743 0.0056 -26.3543 -0.0067
# 4 0.0038 0.0017 0.0056 40.8378 -0.0034 -23.6097
# 5 -31.9816 -13.8233 -26.3543 -0.0034 26.4371 0.0049
# 6 -0.0032 -0.0034 -0.0067 -23.6097 0.0049 63.7257
#
#
#
# Elastic Compliance Matrix: (Units=1/GPa)
#
#
# Indices 1 2 3 4 5 6 
#
# 1 0.021759 -0.007662 0.007828 -0.000001 0.030121 -0.000001
# 2 -0.007662 0.017636 -0.013916 0.000001 -0.013919 0.000001
# 3 0.007828 -0.013916 0.027902 -0.000002 0.030009 0.000000
# 4 -0.000001 0.000001 -0.000002 0.031162 0.000000 0.011545
# 5 0.030121 -0.013919 0.030009 0.000000 0.096901 -0.000004
# 6 -0.000001 0.000001 0.000000 0.011545 -0.000004 0.019970
#
#
# Mechanical properties :
#
#
# Convention : Reuss Voigt Hill
#
# Bulk Modulus (GPa) = 25.12542 58.65341 41.88942
# Shear Modulus (GPa) = 19.52411 37.30019 28.41215
#
# Velocity S-wave (km/s) = 3.34380 4.62179 4.03373
# Velocity P-wave (km/s) = 5.41265 7.87850 6.75898
#
# Compressibility (1/GPa) = 0.03980032
#
# Stress axis : x y z
#
# Youngs Moduli (GPa) = 45.95742 56.70100 35.83965
#
# Poissons Ratio (x) = 0.43442 -0.28057
# Poissons Ratio (y) = 0.35211 0.49873
# Poissons Ratio (z) = -0.35978 0.78903
#
# Static dielectric constant tensor:
#      x y z
#    x 1.697840 0.000000 -0.057800 
#    y 0.000000 1.592150 0.000000 
#    z -0.057800 0.000000 1.680450 
# 
# From -- ./inp_files/145448.got.cif
#   From: 2010.05.17/outbox.cif.g08.bks.cpg/sg15_73_cif.got.tgz:145448.got - 2010.06.03 18:47:42.
