data_PCOD9300252
_publ_section_title
;
Structure prediction by ZEFSAII (Michael W. Deem and Ramdas Pophale) SiO2 
 PCOD9300252
Probable space group: C 2/C
;
_chemical_formula_sum "Si O2"
_cell_formula_units_Z 48
_cell_length_a 19.214681
_cell_length_b 8.267905
_cell_length_c 24.174418
_cell_angle_alpha 90.000000
_cell_angle_beta 32.804816
_cell_angle_gamma 90.000000
_cell_volume 2080.686937
_symmetry_space_group_name_H-M "C 2/C"
_symmetry_group_IT_number 15
_symmetry_cell_setting 'monoclinic'
loop_
_space_group_symop_operation_xyz
x,y,z
-x,y,1/2-z
-x,-y,-z
x,-y,1/2+z
1/2+x,1/2+y,z
1/2-x,1/2+y,1/2-z
1/2-x,1/2-y,-z
1/2+x,1/2-y,1/2+z
loop_
_atom_site_type_symbol
_atom_site_label
_atom_site_fract_x
_atom_site_fract_y
_atom_site_fract_z
Si Si1 0.985031 0.716733 0.083022
Si Si2 0.115514 0.884048 0.442496
Si Si3 0.391801 0.097400 0.710652
Si Si4 0.482620 0.432958 0.635274
Si Si5 0.777358 0.249600 0.916079
Si Si6 0.000000 0.996420 0.250000
Si Si7 0.000000 0.506872 0.750000
O O1 0.924009 0.720506 0.062636
O O2 0.942752 0.553102 0.141209
O O3 0.139317 0.736796 0.979387
O O4 0.941814 0.882940 0.145132
O O5 0.249082 0.935722 0.327660
O O6 0.106786 0.890605 0.514294
O O7 0.000000 0.000000 0.500000
O O8 0.393608 0.276446 0.682285
O O9 0.480540 0.100218 0.706115
O O10 0.505126 0.430952 0.685330
O O11 0.872478 0.398235 0.840925
O O12 0.867317 0.102960 0.837830
O O13 0.750000 0.250000 0.000000
#
# Coordination Sequence:
#
# PCOD9300252 Si02
#       7
#     8   8   8   8   8   4   4
#     4  11  24  47  74 100 147 193 239 302 353 439
#     4  10  26  47  69 102 148 192 238 305 353 427
#     4  12  26  44  75 106 140 195 242 293 370 434
#     4  11  25  46  66 108 142 182 238 296 359 426
#     4  11  20  42  73 110 136 189 241 294 371 420
#     4  11  23  42  76 107 149 190 233 305 370 437
#     4  11  21  40  70 107 141 178 235 303 362 427
#
# _framework density 23.069305
#
# number of rings (size 3 to 8) (size 9 to 14) (size 15 to 20)
#    0.000    1.000    3.333    3.500    4.667    2.000 
#    3.000    5.000    0.000    0.000    0.000    0.000 
#    0.000    0.000    0.000    0.000    0.000    0.000 
#
# Total GULP energy -133885.325371 kJ/mol
# GULP energy per Si atom -5578.555224 kJ/mol
# Density = 2.301680 g / cm^3
# Si number density = 23.069305 Si / 1000 Ang^3
#
#
#
# Elastic Constant Matrix: (Units=GPa)
#
#
# Indices 1 2 3 4 5 6 
#
# 1 94.1886 31.5331 38.8774 0.0003 15.3381 0.0003
# 2 31.5331 130.8052 60.8814 0.0008 5.1584 0.0006
# 3 38.8774 60.8814 161.6225 -0.0001 -7.1415 0.0001
# 4 0.0003 0.0008 -0.0001 186.2042 -0.0007 226.1746
# 5 15.3381 5.1584 -7.1415 -0.0007 43.4337 -0.0007
# 6 0.0003 0.0006 0.0001 226.1746 -0.0007 308.7306
#
#
#
# Elastic Compliance Matrix: (Units=1/GPa)
#
#
# Indices 1 2 3 4 5 6 
#
# 1 0.013105 -0.001697 -0.002729 0.000000 -0.004875 0.000000
# 2 -0.001697 0.009614 -0.003261 0.000000 -0.001079 0.000000
# 3 -0.002729 -0.003261 0.008191 0.000000 0.002698 0.000000
# 4 0.000000 0.000000 0.000000 0.048757 0.000000 -0.035719
# 5 -0.004875 -0.001079 0.002698 0.000000 0.025317 0.000000
# 6 0.000000 0.000000 0.000000 -0.035719 0.000000 0.029407
#
#
# Mechanical properties :
#
#
# Convention : Reuss Voigt Hill
#
# Bulk Modulus (GPa) = 64.36042 72.13337 68.24690
# Shear Modulus (GPa) = 32.26970 124.69534 78.48252
#
# Velocity S-wave (km/s) = 3.74413 7.36002 5.83902
# Velocity P-wave (km/s) = 6.83013 10.17656 8.66640
#
# Compressibility (1/GPa) = 0.01553750
#
# Stress axis : x y z
#
# Youngs Moduli (GPa) = 76.30520 104.01024 122.08195
#
# Poissons Ratio (x) = 0.17651 0.33311
# Poissons Ratio (y) = 0.12949 0.39812
# Poissons Ratio (z) = 0.20820 0.33919
#
# Static dielectric constant tensor:
#      x y z
#    x 1.946360 0.000000 0.023570 
#    y 0.000000 1.966960 0.000000 
#    z 0.023570 0.000000 1.844820 
# 
# From -- ./inp_files/300480.got.cif
#   From: 2010.05.17/outbox.cif.g08.bks.cpg/sg15_151_cif.got.tgz:300480.got - 2010.06.03 18:47:42.
