data_PCOD9300012
_publ_section_title
;
Structure prediction by ZEFSAII (Michael W. Deem and Ramdas Pophale) SiO2 
 PCOD9300012
Probable space group: C 2/C
;
_chemical_formula_sum "Si O2"
_cell_formula_units_Z 44
_cell_length_a 23.403237
_cell_length_b 4.874859
_cell_length_c 16.156482
_cell_angle_alpha 90.000000
_cell_angle_beta 72.372624
_cell_angle_gamma 90.000000
_cell_volume 1756.704415
_symmetry_space_group_name_H-M "C 2/C"
_symmetry_group_IT_number 15
_symmetry_cell_setting 'monoclinic'
loop_
_space_group_symop_operation_xyz
x,y,z
-x,y,1/2-z
-x,-y,-z
x,-y,1/2+z
1/2+x,1/2+y,z
1/2-x,1/2+y,1/2-z
1/2-x,1/2-y,-z
1/2+x,1/2-y,1/2+z
loop_
_atom_site_type_symbol
_atom_site_label
_atom_site_fract_x
_atom_site_fract_y
_atom_site_fract_z
Si Si1 0.478043 0.615524 0.096018
Si Si2 0.745536 0.738488 0.636662
Si Si3 0.346697 0.557721 0.215984
Si Si4 0.750000 0.250000 0.500000
Si Si5 0.527675 0.873883 0.649848
Si Si6 0.847715 0.631308 0.885766
O O1 0.410597 0.523541 0.145775
O O2 0.490429 0.936525 0.102656
O O3 0.519312 0.448762 0.142320
O O4 0.500000 0.500000 0.000000
O O5 0.689150 0.689408 0.723652
O O6 0.800299 0.824763 0.669785
O O7 0.760190 0.470525 0.578516
O O8 0.719590 0.980214 0.587298
O O9 0.358465 0.748526 0.290966
O O10 0.824922 0.159952 0.464396
O O11 0.500000 0.949629 0.750000
O O12 0.597057 0.949873 0.613897
#
# Coordination Sequence:
#
# PCOD9300012 Si02
#       6
#     8   8   8   4   8   8
#     4  12  29  49  74 112 150 199 250 320 383 451
#     4  11  23  45  71 108 141 196 237 314 369 453
#     4  11  24  44  72 104 147 192 253 299 383 451
#     4  10  26  40  72 108 142 184 244 302 380 432
#     4  12  26  49  77 104 146 202 254 307 374 458
#     4  11  24  45  70 104 143 191 248 303 373 449
#
# _framework density 25.046897999999999
#
# number of rings (size 3 to 8) (size 9 to 14) (size 15 to 20)
#    0.000    0.727    3.636    2.727    7.636    1.455 
#    0.000    0.000    0.000    0.000    0.000    0.000 
#    0.000    0.000    0.000    0.000    0.000    0.000 
#
# Total GULP energy -122822.049853 kJ/mol
# GULP energy per Si atom -5582.820448 kJ/mol
# Density = 2.498989 g / cm^3
# Si number density = 25.046898 Si / 1000 Ang^3
#
#
#
# Elastic Constant Matrix: (Units=GPa)
#
#
# Indices 1 2 3 4 5 6 
#
# 1 145.4971 19.5327 39.3488 0.0000 -40.5274 0.0000
# 2 19.5327 93.9236 26.2008 0.0000 -4.7200 0.0000
# 3 39.3488 26.2008 152.0309 0.0000 -43.0376 0.0000
# 4 0.0000 0.0000 0.0000 36.2376 0.0000 10.1278
# 5 -40.5274 -4.7200 -43.0376 0.0000 41.4792 0.0000
# 6 0.0000 0.0000 0.0000 10.1278 0.0000 41.7201
#
#
#
# Elastic Compliance Matrix: (Units=1/GPa)
#
#
# Indices 1 2 3 4 5 6 
#
# 1 0.009694 -0.001681 0.000577 0.000000 0.009880 0.000000
# 2 -0.001681 0.011507 -0.002325 0.000000 -0.002745 0.000000
# 3 0.000577 -0.002325 0.009789 0.000000 0.010456 0.000000
# 4 0.000000 0.000000 0.000000 0.029604 0.000000 -0.007187
# 5 0.009880 -0.002745 0.010456 0.000000 0.044298 0.000000
# 6 0.000000 0.000000 0.000000 -0.007187 0.000000 0.025714
#
#
# Mechanical properties :
#
#
# Convention : Reuss Voigt Hill
#
# Bulk Modulus (GPa) = 41.43660 62.40179 51.91920
# Shear Modulus (GPa) = 34.36232 44.31201 39.33716
#
# Velocity S-wave (km/s) = 3.70796 4.21070 3.96730
# Velocity P-wave (km/s) = 5.90859 6.97195 6.46218
#
# Compressibility (1/GPa) = 0.02413325
#
# Stress axis : x y z
#
# Youngs Moduli (GPa) = 103.15206 86.90246 102.15661
#
# Poissons Ratio (x) = 0.14605 -0.05898
# Poissons Ratio (y) = 0.17336 0.23754
# Poissons Ratio (z) = -0.05955 0.20207
#
# Static dielectric constant tensor:
#      x y z
#    x 1.961480 0.000000 0.060670 
#    y 0.000000 2.119770 0.000000 
#    z 0.060670 0.000000 2.006860 
# 
# From -- ./inp_files/170787.got.cif
#   From: 2010.05.17/outbox.cif.g08.bks.cpg/sg15_86_cif.got.tgz:170787.got - 2010.06.03 18:47:42.
