data_PCOD9300423
_publ_section_title
;
Structure prediction by ZEFSAII (Michael W. Deem and Ramdas Pophale) SiO2 
 PCOD9300423
Probable space group: C 2/C
;
_chemical_formula_sum "Si O2"
_cell_formula_units_Z 60
_cell_length_a 21.488542
_cell_length_b 5.630510
_cell_length_c 22.997951
_cell_angle_alpha 90.000000
_cell_angle_beta 107.279095
_cell_angle_gamma 90.000000
_cell_volume 2656.976601
_symmetry_space_group_name_H-M "C 2/C"
_symmetry_group_IT_number 15
_symmetry_cell_setting 'monoclinic'
loop_
_space_group_symop_operation_xyz
x,y,z
-x,y,1/2-z
-x,-y,-z
x,-y,1/2+z
1/2+x,1/2+y,z
1/2-x,1/2+y,1/2-z
1/2-x,1/2-y,-z
1/2+x,1/2-y,1/2+z
loop_
_atom_site_type_symbol
_atom_site_label
_atom_site_fract_x
_atom_site_fract_y
_atom_site_fract_z
Si Si1 0.454849 0.989620 0.875123
Si Si2 0.913148 0.396283 0.645187
Si Si3 0.000000 0.938461 0.250000
Si Si4 0.616582 0.685686 0.217932
Si Si5 0.689713 0.728035 0.346333
Si Si6 0.058938 0.012419 0.061014
Si Si7 0.787113 0.837284 0.067007
Si Si8 0.692652 0.553297 0.121714
O O1 0.528840 0.010096 0.874537
O O2 0.404665 0.044677 0.807902
O O3 0.445931 0.218575 0.914394
O O4 0.446907 0.726500 0.900206
O O5 0.869767 0.586082 0.666955
O O6 0.858691 0.275517 0.590097
O O7 0.950395 0.216568 0.697969
O O8 0.953873 0.082854 0.281798
O O9 0.664849 0.596087 0.282334
O O10 0.655113 0.606193 0.170806
O O11 0.698148 0.606853 0.411284
O O12 0.759238 0.838472 0.353348
O O13 0.133992 0.999355 0.060393
O O14 0.000000 0.000000 0.000000
O O15 0.740782 0.749386 0.107669
O O16 0.750000 0.750000 0.000000
#
# Coordination Sequence:
#
# PCOD9300423 Si02
#       8
#     8   8   4   8   8   8   8   8
#     4  11  25  43  72 109 147 196 248 326 389 473
#     4  11  24  42  71 108 143 202 250 322 392 458
#     4  12  22  46  78 114 164 196 256 326 408 486
#     4  11  24  44  76 111 154 194 249 324 401 484
#     4  11  25  43  71 106 147 202 257 317 400 462
#     4  11  26  46  72 108 147 201 261 318 393 462
#     4  11  27  48  70 102 149 205 266 315 383 477
#     4  10  27  43  69 108 141 203 250 320 384 467
#
# _framework density 22.582058
#
# number of rings (size 3 to 8) (size 9 to 14) (size 15 to 20)
#    0.000    1.067    1.333    3.600    9.333    3.200 
#    0.000    0.000    0.000    0.000    0.000    0.000 
#    0.000    0.000    0.000    0.000    0.000    0.000 
#
# Total GULP energy -167099.050886 kJ/mol
# GULP energy per Si atom -5569.968363 kJ/mol
# Density = 2.253066 g / cm^3
# Si number density = 22.582058 Si / 1000 Ang^3
#
#
#
# Elastic Constant Matrix: (Units=GPa)
#
#
# Indices 1 2 3 4 5 6 
#
# 1 101.6633 26.1827 28.3352 -0.0002 22.4268 -0.0003
# 2 26.1827 73.4238 49.2819 -0.0001 5.5218 -0.0003
# 3 28.3352 49.2819 97.8646 0.0003 24.8268 0.0003
# 4 -0.0002 -0.0001 0.0003 34.3770 0.0001 2.7566
# 5 22.4268 5.5218 24.8268 0.0001 38.1827 0.0003
# 6 -0.0003 -0.0003 0.0003 2.7566 0.0003 -22.0424
#
#
#
# Elastic Compliance Matrix: (Units=1/GPa)
#
#
# Indices 1 2 3 4 5 6 
#
# 1 0.012310 -0.003987 0.000158 0.000000 -0.006756 0.000000
# 2 -0.003987 0.022533 -0.011927 0.000000 0.006839 0.000000
# 3 0.000158 -0.011927 0.018879 0.000000 -0.010643 0.000000
# 4 0.000000 0.000000 0.000000 0.028800 0.000000 0.003602
# 5 -0.006756 0.006839 -0.010643 0.000000 0.036089 0.000000
# 6 0.000000 0.000000 0.000000 0.003602 0.000000 -0.044917
#
#
# Mechanical properties :
#
#
# Convention : Reuss Voigt Hill
#
# Bulk Modulus (GPa) = 45.02998 53.39458 49.21228
# Shear Modulus (GPa) = 44.40094 21.38025 32.89060
#
# Velocity S-wave (km/s) = 4.43900 3.08032 3.82054
# Velocity P-wave (km/s) = 6.80124 6.02886 6.42666
#
# Compressibility (1/GPa) = 0.02220743
#
# Stress axis : x y z
#
# Youngs Moduli (GPa) = 81.23645 44.38002 52.96982
#
# Poissons Ratio (x) = 0.17696 -0.00836
# Poissons Ratio (y) = 0.32392 0.63178
# Poissons Ratio (z) = -0.01282 0.52933
#
# Static dielectric constant tensor:
#      x y z
#    x 1.788360 0.000000 -0.043980 
#    y 0.000000 2.005740 0.000000 
#    z -0.043980 0.000000 2.046830 
# 
# From -- ./inp_files/300123.got.cif
#   From: 2010.05.17/outbox.cif.g08.bks.cpg/sg15_151_cif.got.tgz:300123.got - 2010.06.03 18:47:42.
