data_PCOD9300958
_publ_section_title
;
Structure prediction by ZEFSAII (Michael W. Deem and Ramdas Pophale) SiO2 
 PCOD9300958
Probable space group: C 2/C
;
_chemical_formula_sum "Si O2"
_cell_formula_units_Z 56
_cell_length_a 30.263400
_cell_length_b 7.349189
_cell_length_c 20.961305
_cell_angle_alpha 90.000000
_cell_angle_beta 27.282763
_cell_angle_gamma 90.000000
_cell_volume 2136.993476
_symmetry_space_group_name_H-M "C 2/C"
_symmetry_group_IT_number 15
_symmetry_cell_setting 'monoclinic'
loop_
_space_group_symop_operation_xyz
x,y,z
-x,y,1/2-z
-x,-y,-z
x,-y,1/2+z
1/2+x,1/2+y,z
1/2-x,1/2+y,1/2-z
1/2-x,1/2-y,-z
1/2+x,1/2-y,1/2+z
loop_
_atom_site_type_symbol
_atom_site_label
_atom_site_fract_x
_atom_site_fract_y
_atom_site_fract_z
Si Si1 0.602874 0.464399 0.142092
Si Si2 0.515086 0.976828 0.055563
Si Si3 0.209575 0.515033 0.353113
Si Si4 0.668307 0.444124 0.427459
Si Si5 0.912804 0.600762 0.813489
Si Si6 0.508330 0.422772 0.919205
Si Si7 0.709020 0.538042 0.625520
O O1 0.500000 0.390820 0.250000
O O2 0.586183 0.678146 0.182772
O O3 0.653093 0.367202 0.138105
O O4 0.676414 0.479056 0.988420
O O5 0.435593 0.974528 0.213272
O O6 0.544223 0.767347 0.014660
O O7 0.607737 0.073899 0.965162
O O8 0.500000 0.000000 0.000000
O O9 0.268457 0.516752 0.212069
O O10 0.193691 0.724219 0.399267
O O11 0.259207 0.396496 0.345065
O O12 0.559177 0.510066 0.547589
O O13 0.000000 0.545304 0.750000
O O14 0.807283 0.540264 0.970738
O O15 0.620954 0.407208 0.760967
O O16 0.500000 0.500000 0.000000
#
# Coordination Sequence:
#
# PCOD9300958 Si02
#       7
#     8   8   8   8   8   8   8
#     4  11  20  34  60  90 119 150 215 258 294 354
#     4  11  25  40  59  96 125 156 209 261 305 369
#     4  11  24  38  61  91 126 159 205 250 316 366
#     4  11  23  40  59  96 122 158 207 258 300 376
#     4  11  20  37  57  89 125 152 208 261 301 361
#     4  11  22  39  61  91 125 162 201 255 307 369
#     4  12  21  35  63  90 117 169 202 256 315 349
#
# _framework density 26.20504
#
# number of rings (size 3 to 8) (size 9 to 14) (size 15 to 20)
#    0.000    0.857    7.143    2.143    4.000    0.000 
#    0.000    0.000    0.000    3.429    0.000    0.000 
#    0.000    0.000    0.000    0.000    0.000    0.000 
#
# Total GULP energy -156083.224030 kJ/mol
# GULP energy per Si atom -5574.400858 kJ/mol
# Density = 2.614540 g / cm^3
# Si number density = 26.205040 Si / 1000 Ang^3
#
#
#
# Elastic Constant Matrix: (Units=GPa)
#
#
# Indices 1 2 3 4 5 6 
#
# 1 209.9818 22.8946 79.3908 0.0020 31.6440 -0.0007
# 2 22.8946 67.4565 12.7328 -0.0055 0.3997 0.0024
# 3 79.3908 12.7328 151.7437 -0.0040 7.7371 -0.0009
# 4 0.0020 -0.0055 -0.0040 16.5410 -0.0012 7.1059
# 5 31.6440 0.3997 7.7371 -0.0012 64.4084 0.0007
# 6 -0.0007 0.0024 -0.0009 7.1059 0.0007 10.2471
#
#
#
# Elastic Compliance Matrix: (Units=1/GPa)
#
#
# Indices 1 2 3 4 5 6 
#
# 1 0.006556 -0.001614 -0.003150 -0.000004 -0.002833 0.000003
# 2 -0.001614 0.015460 -0.000492 0.000010 0.000756 -0.000011
# 3 -0.003150 -0.000492 0.008251 0.000003 0.000560 -0.000001
# 4 -0.000004 0.000010 0.000003 0.086108 0.000004 -0.059712
# 5 -0.002833 0.000756 0.000560 0.000004 0.016846 -0.000004
# 6 0.000003 -0.000011 -0.000001 -0.059712 -0.000004 0.138996
#
#
# Mechanical properties :
#
#
# Convention : Reuss Voigt Hill
#
# Bulk Modulus (GPa) = 50.61651 73.24650 61.93150
# Shear Modulus (GPa) = 17.28230 39.18356 28.23293
#
# Velocity S-wave (km/s) = 2.57087 3.87106 3.28592
# Velocity P-wave (km/s) = 5.30754 6.92764 6.17099
#
# Compressibility (1/GPa) = 0.01975640
#
# Stress axis : x y z
#
# Youngs Moduli (GPa) = 152.52680 64.68150 121.19774
#
# Poissons Ratio (x) = 0.10438 0.38181
# Poissons Ratio (y) = 0.24614 0.05957
# Poissons Ratio (z) = 0.48051 0.03179
#
# Static dielectric constant tensor:
#      x y z
#    x -7.024620 0.000320 5.874360 
#    y 0.000320 2.042590 -0.000210 
#    z 5.874360 -0.000210 -1.811690 
# 
# From -- ./inp_files/258954.got.cif
#   From: 2010.05.17/outbox.cif.g08.bks.cpg/sg15_130_cif.got.tgz:258954.got - 2010.06.03 18:47:42.
