data_PCOD9300357
_publ_section_title
;
Structure prediction by ZEFSAII (Michael W. Deem and Ramdas Pophale) SiO2 
 PCOD9300357
Probable space group: C 2/C
;
_chemical_formula_sum "Si O2"
_cell_formula_units_Z 56
_cell_length_a 11.497924
_cell_length_b 24.927695
_cell_length_c 9.323758
_cell_angle_alpha 90.000000
_cell_angle_beta 77.917303
_cell_angle_gamma 90.000000
_cell_volume 2613.143337
_symmetry_space_group_name_H-M "C 2/C"
_symmetry_group_IT_number 15
_symmetry_cell_setting 'monoclinic'
loop_
_space_group_symop_operation_xyz
x,y,z
-x,y,1/2-z
-x,-y,-z
x,-y,1/2+z
1/2+x,1/2+y,z
1/2-x,1/2+y,1/2-z
1/2-x,1/2-y,-z
1/2+x,1/2-y,1/2+z
loop_
_atom_site_type_symbol
_atom_site_label
_atom_site_fract_x
_atom_site_fract_y
_atom_site_fract_z
Si Si1 0.365078 0.513102 0.985115
Si Si2 0.299349 0.909426 0.509792
Si Si3 0.683148 0.821269 0.404071
Si Si4 0.500000 0.425426 0.250000
Si Si5 0.942492 0.214101 0.114347
Si Si6 0.000000 0.614375 0.750000
Si Si7 0.627374 0.338030 0.377974
Si Si8 0.239152 0.117393 0.337959
O O1 0.283546 0.461457 0.989233
O O2 0.309235 0.560051 0.095128
O O3 0.500000 0.500000 0.000000
O O4 0.387647 0.539413 0.823033
O O5 0.417401 0.917109 0.384575
O O6 0.227949 0.859615 0.458288
O O7 0.311319 0.894246 0.673648
O O8 0.643683 0.759862 0.422012
O O9 0.587604 0.850552 0.326335
O O10 0.809146 0.824030 0.287762
O O11 0.691554 0.853264 0.550591
O O12 0.538362 0.386974 0.368176
O O13 0.870448 0.158776 0.160959
O O14 0.000000 0.230786 0.250000
O O15 0.048574 0.206278 0.974000
#
# Coordination Sequence:
#
# PCOD9300357 Si02
#       8
#     8   8   8   4   8   4   8   8
#     4  12  23  40  72 109 143 182 232 294 371 424
#     4  11  25  44  70 103 142 189 235 295 358 430
#     4  11  25  46  71  99 142 196 238 293 357 423
#     4  12  20  38  66 103 141 180 222 286 358 410
#     4  12  23  42  72 110 141 187 238 291 364 423
#     4  10  26  50  70  97 145 196 240 294 358 422
#     4  11  22  42  68  99 147 182 228 294 352 420
#     4  12  25  43  70 107 144 178 241 301 347 434
#
# _framework density 21.430129000000001
#
# number of rings (size 3 to 8) (size 9 to 14) (size 15 to 20)
#    0.000    0.571    6.429    1.286    0.000    2.286 
#    0.000    4.286    0.000    0.000    0.000    0.000 
#    0.000    0.000    0.000    0.000    0.000    0.000 
#
# Total GULP energy -156546.964463 kJ/mol
# GULP energy per Si atom -5590.963017 kJ/mol
# Density = 2.138135 g / cm^3
# Si number density = 21.430129 Si / 1000 Ang^3
#
#
#
# Elastic Constant Matrix: (Units=GPa)
#
#
# Indices 1 2 3 4 5 6 
#
# 1 83.1009 36.9496 57.7946 0.0000 -5.4928 0.0000
# 2 36.9496 107.2770 61.7716 0.0000 -12.3893 0.0000
# 3 57.7946 61.7716 177.2480 0.0000 -15.2265 0.0000
# 4 0.0000 0.0000 0.0000 18.9166 0.0000 1.8546
# 5 -5.4928 -12.3893 -15.2265 0.0000 45.8218 0.0000
# 6 0.0000 0.0000 0.0000 1.8546 0.0000 28.2685
#
#
#
# Elastic Compliance Matrix: (Units=1/GPa)
#
#
# Indices 1 2 3 4 5 6 
#
# 1 0.016408 -0.003243 -0.004248 0.000000 -0.000321 0.000000
# 2 -0.003243 0.012458 -0.003117 0.000000 0.001944 0.000000
# 3 -0.004248 -0.003117 0.008232 0.000000 0.001383 0.000000
# 4 0.000000 0.000000 0.000000 0.053206 0.000000 -0.003491
# 5 -0.000321 0.001944 0.001383 0.000000 0.022770 0.000000
# 6 0.000000 0.000000 0.000000 -0.003491 0.000000 0.035604
#
#
# Mechanical properties :
#
#
# Convention : Reuss Voigt Hill
#
# Bulk Modulus (GPa) = 62.96089 75.62861 69.29475
# Shear Modulus (GPa) = 28.54063 32.67538 30.60801
#
# Velocity S-wave (km/s) = 3.65334 3.90903 3.78335
# Velocity P-wave (km/s) = 6.87308 7.46602 7.17568
#
# Compressibility (1/GPa) = 0.01588288
#
# Stress axis : x y z
#
# Youngs Moduli (GPa) = 60.94462 80.26913 121.47583
#
# Poissons Ratio (x) = 0.26030 0.51599
# Poissons Ratio (y) = 0.19763 0.37868
# Poissons Ratio (z) = 0.25887 0.25023
#
# Static dielectric constant tensor:
#      x y z
#    x 1.771350 0.000000 0.012180 
#    y 0.000000 1.784160 0.000000 
#    z 0.012180 0.000000 1.822740 
# 
# From -- ./inp_files/34258.got.cif
#   From: 2010.05.17/outbox.cif.g08.bks.cpg/sg15_18_cif.got.tgz:34258.got - 2010.06.03 18:47:42.
