data_PCOD9300721
_publ_section_title
;
Structure prediction by ZEFSAII (Michael W. Deem and Ramdas Pophale) SiO2 
 PCOD9300721
Probable space group: C 2/C
;
_chemical_formula_sum "Si O2"
_cell_formula_units_Z 48
_cell_length_a 13.223985
_cell_length_b 21.742535
_cell_length_c 9.488032
_cell_angle_alpha 90.000000
_cell_angle_beta 67.024155
_cell_angle_gamma 90.000000
_cell_volume 2511.611261
_symmetry_space_group_name_H-M "C 2/C"
_symmetry_group_IT_number 15
_symmetry_cell_setting 'monoclinic'
loop_
_space_group_symop_operation_xyz
x,y,z
-x,y,1/2-z
-x,-y,-z
x,-y,1/2+z
1/2+x,1/2+y,z
1/2-x,1/2+y,1/2-z
1/2-x,1/2-y,-z
1/2+x,1/2-y,1/2+z
loop_
_atom_site_type_symbol
_atom_site_label
_atom_site_fract_x
_atom_site_fract_y
_atom_site_fract_z
Si Si1 0.726067 0.750229 0.178455
Si Si2 0.848253 0.859242 0.132972
Si Si3 0.810874 0.098768 0.959749
Si Si4 0.433541 0.702111 0.037743
Si Si5 0.081350 0.026294 0.073828
Si Si6 0.126697 0.308935 0.651375
O O1 0.608886 0.724083 0.289009
O O2 0.807113 0.713266 0.243862
O O3 0.750000 0.750000 0.000000
O O4 0.765036 0.677320 0.794630
O O5 0.863397 0.886472 0.279277
O O6 0.938219 0.806624 0.053688
O O7 0.862979 0.910980 0.008498
O O8 0.824205 0.025768 0.962666
O O9 0.887461 0.134201 0.029962
O O10 0.695447 0.134162 0.047492
O O11 0.383073 0.750172 0.950215
O O12 0.000000 0.034937 0.250000
O O13 0.000000 0.000000 0.000000
O O14 0.000000 0.325590 0.750000
#
# Coordination Sequence:
#
# PCOD9300721 Si02
#       6
#     8   8   8   8   8   8
#     4  11  24  35  54  94 126 155 192 261 326 358
#     4  12  22  38  61  88 129 157 199 255 310 372
#     4  11  20  38  60  87 122 159 210 245 296 375
#     4  11  19  36  62  86 117 163 203 243 309 382
#     4  12  24  36  57  90 122 162 200 246 304 365
#     4  11  20  39  67  88 113 165 214 249 302 381
#
# _framework density 19.111238
#
# number of rings (size 3 to 8) (size 9 to 14) (size 15 to 20)
#    0.000    0.667    8.333    1.500    2.333    0.000 
#    0.000    0.000    0.000    1.000    4.333    0.000 
#    0.000    0.000    0.000    0.000    0.000    0.000 
#
# Total GULP energy -133780.852955 kJ/mol
# GULP energy per Si atom -5574.202206 kJ/mol
# Density = 1.906774 g / cm^3
# Si number density = 19.111238 Si / 1000 Ang^3
#
#
#
# Elastic Constant Matrix: (Units=GPa)
#
#
# Indices 1 2 3 4 5 6 
#
# 1 63.4833 31.2200 33.4895 0.0000 -12.6446 0.0000
# 2 31.2200 113.4210 48.4245 0.0000 -16.2824 0.0000
# 3 33.4895 48.4245 148.7770 0.0000 -7.8493 0.0000
# 4 0.0000 0.0000 0.0000 37.6068 0.0000 -6.0896
# 5 -12.6446 -16.2824 -7.8493 0.0000 32.6686 0.0000
# 6 0.0000 0.0000 0.0000 -6.0896 0.0000 23.1992
#
#
#
# Elastic Compliance Matrix: (Units=1/GPa)
#
#
# Indices 1 2 3 4 5 6 
#
# 1 0.020163 -0.003446 -0.003136 0.000000 0.005334 0.000000
# 2 -0.003446 0.011480 -0.002764 0.000000 0.003724 0.000000
# 3 -0.003136 -0.002764 0.008296 0.000000 -0.000598 0.000000
# 4 0.000000 0.000000 0.000000 0.027771 0.000000 0.007290
# 5 0.005334 0.003724 -0.000598 0.000000 0.034387 0.000000
# 6 0.000000 0.000000 0.000000 0.007290 0.000000 0.045019
#
#
# Mechanical properties :
#
#
# Convention : Reuss Voigt Hill
#
# Bulk Modulus (GPa) = 47.06546 61.32768 54.19657
# Shear Modulus (GPa) = 28.92012 32.86473 30.89243
#
# Velocity S-wave (km/s) = 3.89427 4.15137 4.02488
# Velocity P-wave (km/s) = 6.70083 7.42550 7.07245
#
# Compressibility (1/GPa) = 0.02124700
#
# Stress axis : x y z
#
# Youngs Moduli (GPa) = 49.59517 87.10791 120.54625
#
# Poissons Ratio (x) = 0.30014 0.37801
# Poissons Ratio (y) = 0.17088 0.33325
# Poissons Ratio (z) = 0.15552 0.24081
#
# Static dielectric constant tensor:
#      x y z
#    x 1.748090 0.000000 0.010810 
#    y 0.000000 1.705400 0.000000 
#    z 0.010810 0.000000 1.733520 
# 
# From -- ./inp_files/40661.got.cif
#   From: 2010.05.17/outbox.cif.g08.bks.cpg/sg15_21_cif.got.tgz:40661.got - 2010.06.03 18:47:42.
