data_PCOD9300547
_publ_section_title
;
Structure prediction by ZEFSAII (Michael W. Deem and Ramdas Pophale) SiO2 
 PCOD9300547
Probable space group: C 2/C
;
_chemical_formula_sum "Si O2"
_cell_formula_units_Z 32
_cell_length_a 7.760645
_cell_length_b 22.777241
_cell_length_c 10.991613
_cell_angle_alpha 90.000000
_cell_angle_beta 41.678927
_cell_angle_gamma 90.000000
_cell_volume 1291.971929
_symmetry_space_group_name_H-M "C 2/C"
_symmetry_group_IT_number 15
_symmetry_cell_setting 'monoclinic'
loop_
_space_group_symop_operation_xyz
x,y,z
-x,y,1/2-z
-x,-y,-z
x,-y,1/2+z
1/2+x,1/2+y,z
1/2-x,1/2+y,1/2-z
1/2-x,1/2-y,-z
1/2+x,1/2-y,1/2+z
loop_
_atom_site_type_symbol
_atom_site_label
_atom_site_fract_x
_atom_site_fract_y
_atom_site_fract_z
Si Si1 0.759118 0.800677 0.197308
Si Si2 0.131760 0.602175 0.955215
Si Si3 0.828046 0.169246 0.218887
Si Si4 0.438063 0.475471 0.161902
O O1 0.500000 0.801477 0.250000
O O2 0.704663 0.838602 0.345445
O O3 0.810725 0.732966 0.202458
O O4 0.984282 0.827176 0.995122
O O5 0.351399 0.576513 0.927174
O O6 0.154077 0.552616 0.835903
O O7 0.875124 0.616565 0.164132
O O8 0.000000 0.165968 0.250000
O O9 0.500000 0.514410 0.250000
O O10 0.500000 0.500000 0.000000
#
# Coordination Sequence:
#
# PCOD9300547 Si02
#       4
#     8   8   8   8
#     4  11  18  32  62 105 163 207 236 274 361 460
#     4   9  20  37  67 110 141 200 247 297 374 443
#     4  11  18  32  62 106 164 208 234 283 357 464
#     4   8  20  44  76 100 136 186 262 323 385 435
#
# _framework density 24.768339999999998
#
# number of rings (size 3 to 8) (size 9 to 14) (size 15 to 20)
#    1.500    0.500    5.000    1.500    0.000    0.000 
#    0.000   11.250    0.000   12.000    0.000    0.000 
#    0.000    0.250    0.000    0.000    0.000    1.000 
#
# Total GULP energy -89325.469608 kJ/mol
# GULP energy per Si atom -5582.841851 kJ/mol
# Density = 2.471197 g / cm^3
# Si number density = 24.768340 Si / 1000 Ang^3
#
#
#
# Elastic Constant Matrix: (Units=GPa)
#
#
# Indices 1 2 3 4 5 6 
#
# 1 63.6658 42.1644 42.6626 0.0000 19.4233 0.0000
# 2 42.1644 70.2936 52.2686 0.0000 10.1261 0.0000
# 3 42.6626 52.2686 222.3926 0.0000 7.2277 0.0000
# 4 0.0000 0.0000 0.0000 75.0054 0.0000 18.4240
# 5 19.4233 10.1261 7.2277 0.0000 37.3028 0.0000
# 6 0.0000 0.0000 0.0000 18.4240 0.0000 48.3218
#
#
#
# Elastic Compliance Matrix: (Units=1/GPa)
#
#
# Indices 1 2 3 4 5 6 
#
# 1 0.030589 -0.015289 -0.001904 0.000000 -0.011408 0.000000
# 2 -0.015289 0.025469 -0.003107 0.000000 0.001649 0.000000
# 3 -0.001904 -0.003107 0.005567 0.000000 0.000756 0.000000
# 4 0.000000 0.000000 0.000000 0.014710 0.000000 -0.005609
# 5 -0.011408 0.001649 0.000756 0.000000 0.032154 0.000000
# 6 0.000000 0.000000 0.000000 -0.005609 0.000000 0.022833
#
#
# Mechanical properties :
#
#
# Convention : Reuss Voigt Hill
#
# Bulk Modulus (GPa) = 47.55927 70.06035 58.80981
# Shear Modulus (GPa) = 27.94380 46.74309 37.34344
#
# Velocity S-wave (km/s) = 3.36252 4.34892 3.88714
# Velocity P-wave (km/s) = 5.85822 7.31882 6.62887
#
# Compressibility (1/GPa) = 0.02102639
#
# Stress axis : x y z
#
# Youngs Moduli (GPa) = 32.69160 39.26278 179.61826
#
# Poissons Ratio (x) = 0.60029 0.34197
# Poissons Ratio (y) = 0.49983 0.55801
# Poissons Ratio (z) = 0.06224 0.12198
#
# Static dielectric constant tensor:
#      x y z
#    x 1.933520 0.000000 -0.013070 
#    y 0.000000 2.020700 0.000000 
#    z -0.013070 0.000000 2.000800 
# 
# From -- ./inp_files/78879.got.cif
#   From: 2010.05.17/outbox.cif.g08.bks.cpg/sg15_40_cif.got.tgz:78879.got - 2010.06.03 18:47:42.
