data_PCOD9300250
_publ_section_title
;
Structure prediction by ZEFSAII (Michael W. Deem and Ramdas Pophale) SiO2 
 PCOD9300250
Probable space group: C 2/C
;
_chemical_formula_sum "Si O2"
_cell_formula_units_Z 32
_cell_length_a 5.040888
_cell_length_b 20.663093
_cell_length_c 13.376439
_cell_angle_alpha 90.000000
_cell_angle_beta 96.553266
_cell_angle_gamma 90.000000
_cell_volume 1384.190874
_symmetry_space_group_name_H-M "C 2/C"
_symmetry_group_IT_number 15
_symmetry_cell_setting 'monoclinic'
loop_
_space_group_symop_operation_xyz
x,y,z
-x,y,1/2-z
-x,-y,-z
x,-y,1/2+z
1/2+x,1/2+y,z
1/2-x,1/2+y,1/2-z
1/2-x,1/2-y,-z
1/2+x,1/2-y,1/2+z
loop_
_atom_site_type_symbol
_atom_site_label
_atom_site_fract_x
_atom_site_fract_y
_atom_site_fract_z
Si Si1 0.975801 0.000136 0.132939
Si Si2 0.000000 0.672027 0.250000
Si Si3 0.500000 0.240794 0.750000
Si Si4 0.535669 0.923918 0.934753
Si Si5 0.853870 0.614977 0.642411
O O1 0.178092 0.046705 0.082064
O O2 0.000000 0.016751 0.250000
O O3 0.082550 0.926629 0.126848
O O4 0.320274 0.981360 0.911782
O O5 0.262782 0.715049 0.280472
O O6 0.038855 0.627934 0.153907
O O7 0.354365 0.191116 0.667031
O O8 0.496323 0.893746 0.042332
O O9 0.000000 0.587948 0.750000
#
# Coordination Sequence:
#
# PCOD9300250 Si02
#       5
#     8   4   4   8   8
#     4  12  23  44  73 108 139 178 228 297 359 425
#     4  12  24  47  70 103 136 190 248 282 338 410
#     4  10  28  45  70  99 144 190 240 282 342 414
#     4  12  25  44  76 104 140 182 235 293 354 414
#     4  10  26  47  68 108 143 187 227 291 356 425
#
# _framework density 23.118199000000001
#
# number of rings (size 3 to 8) (size 9 to 14) (size 15 to 20)
#    0.750    0.000    2.500    4.500    1.750    6.000 
#    0.000    0.000    0.000    0.000    0.000    0.000 
#    0.000    0.000    0.000    0.000    0.000    0.000 
#
# Total GULP energy -89523.232059 kJ/mol
# GULP energy per Si atom -5595.202004 kJ/mol
# Density = 2.306558 g / cm^3
# Si number density = 23.118199 Si / 1000 Ang^3
#
#
#
# Elastic Constant Matrix: (Units=GPa)
#
#
# Indices 1 2 3 4 5 6 
#
# 1 126.3283 33.6788 24.8029 0.0000 4.4167 0.0000
# 2 33.6788 124.7360 42.0968 0.0000 -7.7249 0.0000
# 3 24.8029 42.0968 198.3529 0.0000 -14.0232 0.0000
# 4 0.0000 0.0000 0.0000 19.6401 0.0000 -2.2970
# 5 4.4167 -7.7249 -14.0232 0.0000 35.6845 0.0000
# 6 0.0000 0.0000 0.0000 -2.2970 0.0000 6.0143
#
#
#
# Elastic Compliance Matrix: (Units=1/GPa)
#
#
# Indices 1 2 3 4 5 6 
#
# 1 0.008719 -0.002215 -0.000751 0.000000 -0.001854 0.000000
# 2 -0.002215 0.009247 -0.001568 0.000000 0.001660 0.000000
# 3 -0.000751 -0.001568 0.005607 0.000000 0.001957 0.000000
# 4 0.000000 0.000000 0.000000 0.053297 0.000000 0.020355
# 5 -0.001854 0.001660 0.001957 0.000000 0.029381 0.000000
# 6 0.000000 0.000000 0.000000 0.020355 0.000000 0.174045
#
#
# Mechanical properties :
#
#
# Convention : Reuss Voigt Hill
#
# Bulk Modulus (GPa) = 68.95066 72.28604 70.61835
# Shear Modulus (GPa) = 16.99527 35.52368 26.25948
#
# Velocity S-wave (km/s) = 2.71430 3.92422 3.37394
# Velocity P-wave (km/s) = 6.30185 7.20198 6.76690
#
# Compressibility (1/GPa) = 0.01450312
#
# Stress axis : x y z
#
# Youngs Moduli (GPa) = 114.69480 108.14190 178.36126
#
# Poissons Ratio (x) = 0.23958 0.13397
# Poissons Ratio (y) = 0.25409 0.27970
# Poissons Ratio (z) = 0.08615 0.16958
#
# Static dielectric constant tensor:
#      x y z
#    x 1.878200 0.000000 0.035770 
#    y 0.000000 1.854260 0.000000 
#    z 0.035770 0.000000 1.904830 
# 
# From -- ./inp_files/72206.got.cif
#   From: 2010.05.17/outbox.cif.g08.bks.cpg/sg15_37_cif.got.tgz:72206.got - 2010.06.03 18:47:42.
