data_PCOD9300700
_publ_section_title
;
Structure prediction by ZEFSAII (Michael W. Deem and Ramdas Pophale) SiO2 
 PCOD9300700
Probable space group: C 2/C
;
_chemical_formula_sum "Si O2"
_cell_formula_units_Z 64
_cell_length_a 18.623934
_cell_length_b 14.651493
_cell_length_c 18.150383
_cell_angle_alpha 90.000000
_cell_angle_beta 134.034482
_cell_angle_gamma 90.000000
_cell_volume 3560.579085
_symmetry_space_group_name_H-M "C 2/C"
_symmetry_group_IT_number 15
_symmetry_cell_setting 'monoclinic'
loop_
_space_group_symop_operation_xyz
x,y,z
-x,y,1/2-z
-x,-y,-z
x,-y,1/2+z
1/2+x,1/2+y,z
1/2-x,1/2+y,1/2-z
1/2-x,1/2-y,-z
1/2+x,1/2-y,1/2+z
loop_
_atom_site_type_symbol
_atom_site_label
_atom_site_fract_x
_atom_site_fract_y
_atom_site_fract_z
Si Si1 0.628524 0.925822 0.683224
Si Si2 0.771381 0.177489 0.843694
Si Si3 0.555179 0.104727 0.712176
Si Si4 0.587530 0.321030 0.510080
Si Si5 0.940473 0.689748 0.496257
Si Si6 0.294106 0.254744 0.194290
Si Si7 0.352474 0.491387 0.848638
Si Si8 0.546638 0.405794 0.207725
O O1 0.578859 0.896050 0.571342
O O2 0.640072 0.835097 0.741612
O O3 0.575025 0.006651 0.688480
O O4 0.741379 0.958967 0.748089
O O5 0.663542 0.152559 0.798185
O O6 0.758060 0.211692 0.749709
O O7 0.836445 0.084957 0.882811
O O8 0.836901 0.254560 0.929856
O O9 0.500000 0.095722 0.750000
O O10 0.489254 0.161606 0.607367
O O11 0.515336 0.254401 0.503875
O O12 0.696074 0.274580 0.579920
O O13 0.601485 0.412601 0.568479
O O14 0.534843 0.348429 0.396757
O O15 0.361654 0.336150 0.211728
O O16 0.414231 0.516871 0.820136
O O17 0.500000 0.440072 0.250000
#
# Coordination Sequence:
#
# PCOD9300700 Si02
#       8
#     8   8   8   8   8   8   8   8
#     4   9  19  38  59  82 109 150 196 228 270 345
#     4   9  18  36  59  84 113 146 199 232 264 340
#     4  11  23  37  56  86 121 148 182 242 291 324
#     4  11  19  35  66  81 109 156 198 223 276 346
#     4  11  20  36  64  86 104 153 203 226 273 345
#     4   9  18  36  60  87 108 150 195 230 271 340
#     4   9  19  36  60  82 110 154 191 226 273 343
#     4  11  22  36  56  90 122 142 183 243 291 327
#
# _framework density 17.974605
#
# number of rings (size 3 to 8) (size 9 to 14) (size 15 to 20)
#    0.000    2.000    5.000    0.750    0.000    1.500 
#    0.000    4.375    0.000    0.000    0.000    0.000 
#    0.000    0.000    0.000    0.000    0.000    0.000 
#
# Total GULP energy -178570.728839 kJ/mol
# GULP energy per Si atom -5580.335276 kJ/mol
# Density = 1.793369 g / cm^3
# Si number density = 17.974605 Si / 1000 Ang^3
#
#
#
# Elastic Constant Matrix: (Units=GPa)
#
#
# Indices 1 2 3 4 5 6 
#
# 1 105.6249 36.3800 49.6463 0.0000 4.8530 0.0000
# 2 36.3800 62.7379 29.3346 0.0000 2.7337 0.0000
# 3 49.6463 29.3346 87.1817 0.0000 3.5221 0.0000
# 4 0.0000 0.0000 0.0000 21.4739 0.0000 7.4899
# 5 4.8530 2.7337 3.5221 0.0000 13.8795 0.0000
# 6 0.0000 0.0000 0.0000 7.4899 0.0000 12.2015
#
#
#
# Elastic Compliance Matrix: (Units=1/GPa)
#
#
# Indices 1 2 3 4 5 6 
#
# 1 0.014357 -0.005273 -0.006305 0.000000 -0.002381 0.000000
# 2 -0.005273 0.020915 -0.003983 0.000000 -0.001265 0.000000
# 3 -0.006305 -0.003983 0.016449 0.000000 -0.001185 0.000000
# 4 0.000000 0.000000 0.000000 0.059255 0.000000 -0.036373
# 5 -0.002381 -0.001265 -0.001185 0.000000 0.073431 0.000000
# 6 0.000000 0.000000 0.000000 -0.036373 0.000000 0.104285
#
#
# Mechanical properties :
#
#
# Convention : Reuss Voigt Hill
#
# Bulk Modulus (GPa) = 48.55039 54.02959 51.28999
# Shear Modulus (GPa) = 15.30551 18.85656 17.08103
#
# Velocity S-wave (km/s) = 2.92123 3.24244 3.08602
# Velocity P-wave (km/s) = 6.20059 6.64395 6.42609
#
# Compressibility (1/GPa) = 0.02059716
#
# Stress axis : x y z
#
# Youngs Moduli (GPa) = 69.65442 47.81319 60.79437
#
# Poissons Ratio (x) = 0.25213 0.38331
# Poissons Ratio (y) = 0.36730 0.24217
# Poissons Ratio (z) = 0.43917 0.19046
#
# Static dielectric constant tensor:
#      x y z
#    x 1.585360 0.000000 0.033670 
#    y 0.000000 1.638630 0.000000 
#    z 0.033670 0.000000 1.616710 
# 
# From -- ./inp_files/205747.got.cif
#   From: 2010.05.17/outbox.cif.g08.bks.cpg/sg15_103_cif.got.tgz:205747.got - 2010.06.03 18:47:42.
