data_PCOD9300794
_publ_section_title
;
Structure prediction by ZEFSAII (Michael W. Deem and Ramdas Pophale) SiO2 
 PCOD9300794
Probable space group: C 2/C
;
_chemical_formula_sum "Si O2"
_cell_formula_units_Z 52
_cell_length_a 26.650913
_cell_length_b 18.262232
_cell_length_c 13.599868
_cell_angle_alpha 90.000000
_cell_angle_beta 158.696712
_cell_angle_gamma 90.000000
_cell_volume 2404.759517
_symmetry_space_group_name_H-M "C 2/C"
_symmetry_group_IT_number 15
_symmetry_cell_setting 'monoclinic'
loop_
_space_group_symop_operation_xyz
x,y,z
-x,y,1/2-z
-x,-y,-z
x,-y,1/2+z
1/2+x,1/2+y,z
1/2-x,1/2+y,1/2-z
1/2-x,1/2-y,-z
1/2+x,1/2-y,1/2+z
loop_
_atom_site_type_symbol
_atom_site_label
_atom_site_fract_x
_atom_site_fract_y
_atom_site_fract_z
Si Si1 0.364335 0.165472 0.868360
Si Si2 0.500000 0.724196 0.750000
Si Si3 0.611533 0.777141 0.696735
Si Si4 0.415115 0.732386 0.190510
Si Si5 0.659098 0.022904 0.777483
Si Si6 0.643853 0.903262 0.459019
Si Si7 0.211384 0.887535 0.582694
O O1 0.232581 0.195477 0.570138
O O2 0.340587 0.079036 0.815106
O O3 0.382934 0.219890 0.995490
O O4 0.511741 0.180141 0.087688
O O5 0.420518 0.665315 0.673719
O O6 0.513483 0.719886 0.463236
O O7 0.660014 0.833894 0.702892
O O8 0.750000 0.750000 0.000000
O O9 0.500000 0.706324 0.250000
O O10 0.382233 0.818182 0.114899
O O11 0.685349 0.058724 0.932270
O O12 0.500000 0.000000 0.500000
O O13 0.761566 0.956482 0.937919
O O14 0.500000 0.930035 0.250000
O O15 0.765755 0.909581 0.762258
#
# Coordination Sequence:
#
# PCOD9300794 Si02
#       7
#     8   4   8   8   8   8   8
#     4  12  24  39  72 102 132 181 243 289 351 425
#     4  12  26  44  74 102 142 196 242 296 356 424
#     4  12  22  38  70 103 132 171 236 303 343 412
#     4  11  21  41  65  97 133 179 233 288 345 423
#     4  12  24  41  68 104 141 181 234 298 356 434
#     4  11  19  38  72  93 126 186 227 277 355 421
#     4  12  24  46  66 100 147 183 229 298 367 418
#
# _framework density 21.623784000000001
#
# number of rings (size 3 to 8) (size 9 to 14) (size 15 to 20)
#    0.000    0.308   10.769    0.462    0.000    1.231 
#    1.385    0.769    0.000    0.000    0.000    0.000 
#    0.000    0.000    0.000    0.000    0.000    0.000 
#
# Total GULP energy -144910.265319 kJ/mol
# GULP energy per Si atom -5573.471743 kJ/mol
# Density = 2.157457 g / cm^3
# Si number density = 21.623784 Si / 1000 Ang^3
#
#
#
# Elastic Constant Matrix: (Units=GPa)
#
#
# Indices 1 2 3 4 5 6 
#
# 1 67.4339 32.4311 12.6596 0.0000 -3.2382 0.0000
# 2 32.4311 92.6896 29.7784 0.0000 2.0215 0.0000
# 3 12.6596 29.7784 95.6968 0.0000 -9.1323 0.0000
# 4 0.0000 0.0000 0.0000 9.1341 0.0000 -13.7181
# 5 -3.2382 2.0215 -9.1323 0.0000 35.3113 0.0000
# 6 0.0000 0.0000 0.0000 -13.7181 0.0000 3.4896
#
#
#
# Elastic Compliance Matrix: (Units=1/GPa)
#
#
# Indices 1 2 3 4 5 6 
#
# 1 0.017976 -0.006253 -0.000247 0.000000 0.001943 0.000000
# 2 -0.006253 0.014261 -0.003838 0.000000 -0.002382 0.000000
# 3 -0.000247 -0.003838 0.011991 0.000000 0.003298 0.000000
# 4 0.000000 0.000000 0.000000 -0.022325 0.000000 -0.087761
# 5 0.001943 -0.002382 0.003298 0.000000 0.029487 0.000000
# 6 0.000000 0.000000 0.000000 -0.087761 0.000000 -0.058436
#
#
# Mechanical properties :
#
#
# Convention : Reuss Voigt Hill
#
# Bulk Modulus (GPa) = 42.45629 45.06206 43.75917
# Shear Modulus (GPa) = 232.75259 21.65043 127.20151
#
# Velocity S-wave (km/s) = 10.38610 3.16766 7.67805
# Velocity P-wave (km/s) = 12.78689 5.85347 9.94404
#
# Compressibility (1/GPa) = 0.02355364
#
# Stress axis : x y z
#
# Youngs Moduli (GPa) = 55.62942 70.11919 83.39319
#
# Poissons Ratio (x) = 0.43843 0.02060
# Poissons Ratio (y) = 0.34783 0.32006
# Poissons Ratio (z) = 0.01374 0.26912
#
# Static dielectric constant tensor:
#      x y z
#    x 1.969090 0.000000 -0.106120 
#    y 0.000000 1.838030 0.000000 
#    z -0.106120 0.000000 1.848180 
# 
# From -- ./inp_files/182900.got.cif
#   From: 2010.05.17/outbox.cif.g08.bks.cpg/sg15_92_cif.got.tgz:182900.got - 2010.06.03 18:47:42.
