data_PCOD9300508
_publ_section_title
;
Structure prediction by ZEFSAII (Michael W. Deem and Ramdas Pophale) SiO2 
 PCOD9300508
Probable space group: C 2/C
;
_chemical_formula_sum "Si O2"
_cell_formula_units_Z 24
_cell_length_a 12.480749
_cell_length_b 8.191467
_cell_length_c 23.019007
_cell_angle_alpha 90.000000
_cell_angle_beta 156.447523
_cell_angle_gamma 90.000000
_cell_volume 940.377574
_symmetry_space_group_name_H-M "C 2/C"
_symmetry_group_IT_number 15
_symmetry_cell_setting 'monoclinic'
loop_
_space_group_symop_operation_xyz
x,y,z
-x,y,1/2-z
-x,-y,-z
x,-y,1/2+z
1/2+x,1/2+y,z
1/2-x,1/2+y,1/2-z
1/2-x,1/2-y,-z
1/2+x,1/2-y,1/2+z
loop_
_atom_site_type_symbol
_atom_site_label
_atom_site_fract_x
_atom_site_fract_y
_atom_site_fract_z
Si Si1 0.196069 0.131909 0.398985
Si Si2 0.594605 0.012707 0.886546
Si Si3 0.721612 0.676954 0.128968
O O1 0.271223 0.996780 0.484222
O O2 0.061364 0.293402 0.361514
O O3 0.478170 0.202746 0.515510
O O4 0.000000 0.091186 0.250000
O O5 0.786456 0.949809 0.929495
O O6 0.318172 0.919787 0.735118
O O7 0.000000 0.764649 0.250000
#
# Coordination Sequence:
#
# PCOD9300508 Si02
#       3
#     8   8   8
#     4  11  17  31  63  84 110 155 195 238 293 343
#     4   8  19  30  54  88 112 149 196 231 294 353
#     4   8  18  35  57  82 112 156 194 230 292 356
#
# _framework density 25.521663
#
# number of rings (size 3 to 8) (size 9 to 14) (size 15 to 20)
#    2.000    0.667    3.333    1.000    0.000    0.000 
#    0.000    0.000    7.333   22.000    0.000    0.000 
#    0.000    0.000    0.000    0.000    0.000    0.000 
#
# Total GULP energy -66964.030761 kJ/mol
# GULP energy per Si atom -5580.335897 kJ/mol
# Density = 2.546357 g / cm^3
# Si number density = 25.521663 Si / 1000 Ang^3
#
#
#
# Elastic Constant Matrix: (Units=GPa)
#
#
# Indices 1 2 3 4 5 6 
#
# 1 99.8382 33.0977 95.2662 0.0009 -19.3621 0.0000
# 2 33.0977 73.7403 64.2647 0.0053 -16.7073 0.0030
# 3 95.2662 64.2647 273.4300 0.0220 -43.6868 0.0067
# 4 0.0009 0.0053 0.0220 -28.6354 0.0023 -57.1931
# 5 -19.3621 -16.7073 -43.6868 0.0023 60.8014 -0.0002
# 6 0.0000 0.0030 0.0067 -57.1931 -0.0002 -30.8852
#
#
#
# Elastic Compliance Matrix: (Units=1/GPa)
#
#
# Indices 1 2 3 4 5 6 
#
# 1 0.015498 -0.002735 -0.004619 0.000000 0.000865 -0.000002
# 2 -0.002735 0.017764 -0.002916 0.000000 0.001915 0.000000
# 3 -0.004619 -0.002916 0.006314 -0.000001 0.002264 0.000003
# 4 0.000000 0.000000 -0.000001 0.012941 -0.000001 -0.023964
# 5 0.000865 0.001915 0.002264 -0.000001 0.018876 0.000002
# 6 -0.000002 0.000000 0.000003 -0.023964 0.000002 0.011998
#
#
# Mechanical properties :
#
#
# Convention : Reuss Voigt Hill
#
# Bulk Modulus (GPa) = 52.53242 92.47397 72.50320
# Shear Modulus (GPa) = 45.34123 17.21481 31.27802
#
# Velocity S-wave (km/s) = 4.21952 2.59997 3.50458
# Velocity P-wave (km/s) = 6.66088 6.73240 6.69674
#
# Compressibility (1/GPa) = 0.01903586
#
# Stress axis : x y z
#
# Youngs Moduli (GPa) = 64.52556 56.29342 158.38842
#
# Poissons Ratio (x) = 0.15396 0.73153
# Poissons Ratio (y) = 0.17647 0.46190
# Poissons Ratio (z) = 0.29802 0.16417
#
# Static dielectric constant tensor:
#      x y z
#    x 2.062620 0.000000 0.032050 
#    y 0.000000 2.048590 0.000000 
#    z 0.032050 0.000000 2.133880 
# 
# From -- ./inp_files/83140.got.cif
#   From: 2010.05.17/outbox.cif.g08.bks.cpg/sg15_42_cif.got.tgz:83140.got - 2010.06.03 18:47:42.
