data_PCOD9300586
_publ_section_title
;
Structure prediction by ZEFSAII (Michael W. Deem and Ramdas Pophale) SiO2 
 PCOD9300586
Probable space group: C 2/C
;
_chemical_formula_sum "Si O2"
_cell_formula_units_Z 48
_cell_length_a 11.858541
_cell_length_b 22.851673
_cell_length_c 12.720309
_cell_angle_alpha 90.000000
_cell_angle_beta 40.598357
_cell_angle_gamma 90.000000
_cell_volume 2243.172797
_symmetry_space_group_name_H-M "C 2/C"
_symmetry_group_IT_number 15
_symmetry_cell_setting 'monoclinic'
loop_
_space_group_symop_operation_xyz
x,y,z
-x,y,1/2-z
-x,-y,-z
x,-y,1/2+z
1/2+x,1/2+y,z
1/2-x,1/2+y,1/2-z
1/2-x,1/2-y,-z
1/2+x,1/2-y,1/2+z
loop_
_atom_site_type_symbol
_atom_site_label
_atom_site_fract_x
_atom_site_fract_y
_atom_site_fract_z
Si Si1 0.748367 0.334993 0.853255
Si Si2 0.249870 0.418652 0.441509
Si Si3 0.814681 0.542551 0.925588
Si Si4 0.649400 0.540045 0.842158
Si Si5 0.951188 0.238425 0.886886
Si Si6 0.138251 0.572093 0.376303
O O1 0.758177 0.372295 0.956017
O O2 0.914802 0.292430 0.710033
O O3 0.740759 0.381801 0.767556
O O4 0.575719 0.295855 0.987257
O O5 0.278566 0.482262 0.474425
O O6 0.368667 0.420244 0.250263
O O7 0.054042 0.417441 0.532222
O O8 0.720921 0.573335 0.894281
O O9 0.000000 0.523819 0.750000
O O10 0.844854 0.577620 0.010915
O O11 0.793544 0.492027 0.704181
O O12 0.500000 0.500000 0.000000
O O13 0.250000 0.250000 0.500000
O O14 0.000000 0.200750 0.750000
#
# Coordination Sequence:
#
# PCOD9300586 Si02
#       6
#     8   8   8   8   8   8
#     4  11  21  36  57  89 114 152 197 248 308 349
#     4  11  19  33  58  79 117 160 193 230 282 362
#     4  11  18  36  57  80 117 156 202 226 265 367
#     4  11  23  35  52  87 121 156 193 238 284 342
#     4   9  18  32  51  75 113 141 187 248 295 342
#     4  11  20  33  57  80 114 160 195 229 283 357
#
# _framework density 21.398261999999999
#
# number of rings (size 3 to 8) (size 9 to 14) (size 15 to 20)
#    0.000    1.333    5.000    4.500    0.000    4.000 
#    0.000    0.000    0.000    0.000    0.000    3.500 
#    0.000    0.000    0.000    0.000    0.000    0.000 
#
# Total GULP energy -133607.448188 kJ/mol
# GULP energy per Si atom -5566.977008 kJ/mol
# Density = 2.134956 g / cm^3
# Si number density = 21.398262 Si / 1000 Ang^3
#
#
#
# Elastic Constant Matrix: (Units=GPa)
#
#
# Indices 1 2 3 4 5 6 
#
# 1 74.4224 16.7175 47.3011 0.0000 36.2439 0.0001
# 2 16.7175 86.1965 44.0977 0.0000 18.7766 0.0000
# 3 47.3011 44.0977 151.5761 0.0000 27.1798 0.0000
# 4 0.0000 0.0000 0.0000 51.7564 0.0000 2.3864
# 5 36.2439 18.7766 27.1798 0.0000 44.9208 -0.0001
# 6 0.0001 0.0000 0.0000 2.3864 -0.0001 15.6881
#
#
#
# Elastic Compliance Matrix: (Units=1/GPa)
#
#
# Indices 1 2 3 4 5 6 
#
# 1 0.024926 0.001621 -0.005073 0.000000 -0.017720 0.000000
# 2 0.001621 0.014306 -0.003770 0.000000 -0.005007 0.000000
# 3 -0.005073 -0.003770 0.009266 0.000000 0.000062 0.000000
# 4 0.000000 0.000000 0.000000 0.019458 0.000000 -0.002960
# 5 -0.017720 -0.005007 0.000062 0.000000 0.038613 0.000000
# 6 0.000000 0.000000 0.000000 -0.002960 0.000000 0.064193
#
#
# Mechanical properties :
#
#
# Convention : Reuss Voigt Hill
#
# Bulk Modulus (GPa) = 29.36455 58.71415 44.03935
# Shear Modulus (GPa) = 25.43769 36.07831 30.75800
#
# Velocity S-wave (km/s) = 3.45160 4.11060 3.79543
# Velocity P-wave (km/s) = 5.44402 7.07302 6.31130
#
# Compressibility (1/GPa) = 0.03405467
#
# Stress axis : x y z
#
# Youngs Moduli (GPa) = 40.11815 69.89850 107.92112
#
# Poissons Ratio (x) = -0.11329 0.54745
# Poissons Ratio (y) = -0.06502 0.40688
# Poissons Ratio (z) = 0.20351 0.26353
#
# Static dielectric constant tensor:
#      x y z
#    x 1.896670 0.000000 -0.036010 
#    y 0.000000 1.874160 0.000000 
#    z -0.036010 0.000000 1.901680 
# 
# From -- ./inp_files/90651.got.cif
#   From: 2010.05.17/outbox.cif.g08.bks.cpg/sg15_46_cif.got.tgz:90651.got - 2010.06.03 18:47:42.
