data_PCOD9300526
_publ_section_title
;
Structure prediction by ZEFSAII (Michael W. Deem and Ramdas Pophale) SiO2 
 PCOD9300526
Probable space group: C 2/C
;
_chemical_formula_sum "Si O2"
_cell_formula_units_Z 64
_cell_length_a 25.991223
_cell_length_b 20.508108
_cell_length_c 13.434559
_cell_angle_alpha 90.000000
_cell_angle_beta 151.395120
_cell_angle_gamma 90.000000
_cell_volume 3428.464082
_symmetry_space_group_name_H-M "C 2/C"
_symmetry_group_IT_number 15
_symmetry_cell_setting 'monoclinic'
loop_
_space_group_symop_operation_xyz
x,y,z
-x,y,1/2-z
-x,-y,-z
x,-y,1/2+z
1/2+x,1/2+y,z
1/2-x,1/2+y,1/2-z
1/2-x,1/2-y,-z
1/2+x,1/2-y,1/2+z
loop_
_atom_site_type_symbol
_atom_site_label
_atom_site_fract_x
_atom_site_fract_y
_atom_site_fract_z
Si Si1 0.842672 0.199353 0.620720
Si Si2 0.084152 0.472173 0.303585
Si Si3 0.721256 0.861314 0.639608
Si Si4 0.412638 0.708212 0.395064
Si Si5 0.424387 0.755056 0.206186
Si Si6 0.620074 0.793425 0.986688
Si Si7 0.060938 0.629686 0.041746
Si Si8 0.184725 0.388887 0.939610
O O1 0.856306 0.225461 0.531669
O O2 0.793914 0.129671 0.567799
O O3 0.000000 0.311124 0.750000
O O4 0.959588 0.204360 0.869237
O O5 0.168714 0.418885 0.486160
O O6 0.149210 0.536707 0.387172
O O7 0.000000 0.487050 0.250000
O O8 0.010774 0.434940 0.097141
O O9 0.846514 0.851092 0.832133
O O10 0.668600 0.794153 0.508379
O O11 0.670399 0.873413 0.662117
O O12 0.388257 0.711123 0.236429
O O13 0.375866 0.774229 0.391416
O O14 0.500000 0.723717 0.250000
O O15 0.495725 0.811214 0.381500
O O16 0.687825 0.851106 0.050778
O O17 0.750000 0.750000 0.000000
O O18 0.093194 0.640264 0.210057
#
# Coordination Sequence:
#
# PCOD9300526 Si02
#       8
#     8   8   8   8   8   8   8   8
#     4   9  19  31  45  72 104 131 160 202 254 300
#     4   9  19  33  50  73 100 131 171 208 245 293
#     4   9  19  34  50  73 100 132 171 203 240 305
#     4  11  19  32  51  71 102 138 164 202 255 297
#     4   9  18  31  50  73  96 128 168 206 245 298
#     4   9  18  29  46  74 101 125 160 203 248 302
#     4   9  17  32  51  71 101 133 160 202 258 299
#     4  11  18  30  50  75 102 130 164 210 250 292
#
# _framework density 18.667251
#
# number of rings (size 3 to 8) (size 9 to 14) (size 15 to 20)
#    0.000    2.500    0.000    5.625    0.000    3.000 
#    0.000    1.875    0.000    0.000    0.000    2.625 
#    0.000    0.000    0.000    0.000    0.000    0.000 
#
# Total GULP energy -178134.866583 kJ/mol
# GULP energy per Si atom -5566.714581 kJ/mol
# Density = 1.862476 g / cm^3
# Si number density = 18.667251 Si / 1000 Ang^3
#
#
#
# Elastic Constant Matrix: (Units=GPa)
#
#
# Indices 1 2 3 4 5 6 
#
# 1 87.5039 28.7128 25.4225 0.0000 -1.4572 0.0000
# 2 28.7128 65.6362 21.6370 0.0000 14.2576 0.0000
# 3 25.4225 21.6370 59.5718 0.0000 10.8289 0.0000
# 4 0.0000 0.0000 0.0000 19.3162 0.0000 10.3018
# 5 -1.4572 14.2576 10.8289 0.0000 29.3088 0.0000
# 6 0.0000 0.0000 0.0000 10.3018 0.0000 26.2510
#
#
#
# Elastic Compliance Matrix: (Units=1/GPa)
#
#
# Indices 1 2 3 4 5 6 
#
# 1 0.015037 -0.006077 -0.005235 0.000000 0.005638 0.000000
# 2 -0.006077 0.021016 -0.003352 0.000000 -0.009287 0.000000
# 3 -0.005235 -0.003352 0.021428 0.000000 -0.006547 0.000000
# 4 0.000000 0.000000 0.000000 0.065473 0.000000 -0.025694
# 5 0.005638 -0.009287 -0.006547 0.000000 0.041337 0.000000
# 6 0.000000 0.000000 0.000000 -0.025694 0.000000 0.048177
#
#
# Mechanical properties :
#
#
# Convention : Reuss Voigt Hill
#
# Bulk Modulus (GPa) = 35.51864 40.47294 37.99579
# Shear Modulus (GPa) = 19.90613 24.10450 22.00532
#
# Velocity S-wave (km/s) = 3.26907 3.59733 3.43712
# Velocity P-wave (km/s) = 5.77214 6.24361 6.01250
#
# Compressibility (1/GPa) = 0.02815423
#
# Stress axis : x y z
#
# Youngs Moduli (GPa) = 66.50340 47.58246 46.66830
#
# Poissons Ratio (x) = 0.28916 0.24429
# Poissons Ratio (y) = 0.40414 0.15642
# Poissons Ratio (z) = 0.34812 0.15948
#
# Static dielectric constant tensor:
#      x y z
#    x 1.722240 0.000000 0.007460 
#    y 0.000000 1.661220 0.000000 
#    z 0.007460 0.000000 1.686090 
# 
# From -- ./inp_files/114288.got.cif
#   From: 2010.05.17/outbox.cif.g08.bks.cpg/sg15_58_cif.got.tgz:114288.got - 2010.06.03 18:47:42.
