data_PCOD9300176
_publ_section_title
;
Structure prediction by ZEFSAII (Michael W. Deem and Ramdas Pophale) SiO2 
 PCOD9300176
Probable space group: C 2/C
;
_chemical_formula_sum "Si O2"
_cell_formula_units_Z 44
_cell_length_a 6.838948
_cell_length_b 27.439290
_cell_length_c 16.410533
_cell_angle_alpha 90.000000
_cell_angle_beta 137.381184
_cell_angle_gamma 90.000000
_cell_volume 2085.206184
_symmetry_space_group_name_H-M "C 2/C"
_symmetry_group_IT_number 15
_symmetry_cell_setting 'monoclinic'
loop_
_space_group_symop_operation_xyz
x,y,z
-x,y,1/2-z
-x,-y,-z
x,-y,1/2+z
1/2+x,1/2+y,z
1/2-x,1/2+y,1/2-z
1/2-x,1/2-y,-z
1/2+x,1/2-y,1/2+z
loop_
_atom_site_type_symbol
_atom_site_label
_atom_site_fract_x
_atom_site_fract_y
_atom_site_fract_z
Si Si1 0.552718 0.850051 0.560480
Si Si2 0.500000 0.873443 0.250000
Si Si3 0.000000 0.924235 0.750000
Si Si4 0.816706 0.988459 0.831941
Si Si5 0.677138 0.799413 0.173337
Si Si6 0.564003 0.578018 0.975974
Si Si7 0.000000 0.775211 0.750000
O O1 0.462218 0.823549 0.449464
O O2 0.289638 0.879791 0.521103
O O3 0.804519 0.890700 0.631968
O O4 0.712699 0.808413 0.662526
O O5 0.686488 0.841450 0.244347
O O6 0.742758 0.900165 0.377154
O O7 0.190609 0.959313 0.753694
O O8 0.500000 0.009243 0.750000
O O9 0.875094 0.949184 0.920763
O O10 0.044391 0.032702 0.905832
O O11 0.505544 0.757317 0.169536
O O12 0.000000 0.782945 0.250000
#
# Coordination Sequence:
#
# PCOD9300176 Si02
#       7
#     8   4   4   8   8   8   4
#     4  11  23  45  68  98 129 178 225 266 339 401
#     4  11  22  41  64  96 132 174 220 275 326 399
#     4  11  24  43  68  98 134 178 222 273 330 397
#     4  11  23  42  65  99 139 176 223 274 329 389
#     4  11  23  43  68  97 132 171 220 276 340 395
#     4  11  23  42  69  96 137 180 221 274 330 394
#     4  10  26  46  66  98 134 170 224 286 332 394
#
# _framework density 21.101030000000002
#
# number of rings (size 3 to 8) (size 9 to 14) (size 15 to 20)
#    0.000    1.091    4.545    1.636    0.000    2.909 
#    9.818    0.000    0.000    0.000    0.000    0.000 
#    0.000    0.000    0.000    0.000    0.000    0.000 
#
# Total GULP energy -122683.966974 kJ/mol
# GULP energy per Si atom -5576.543953 kJ/mol
# Density = 2.105300 g / cm^3
# Si number density = 21.101030 Si / 1000 Ang^3
#
#
#
# Elastic Constant Matrix: (Units=GPa)
#
#
# Indices 1 2 3 4 5 6 
#
# 1 67.2494 46.6022 26.7983 0.0000 13.0633 0.0000
# 2 46.6022 108.4867 43.7322 0.0000 1.5587 0.0000
# 3 26.7983 43.7322 85.2843 0.0000 4.5018 0.0000
# 4 0.0000 0.0000 0.0000 37.9754 0.0000 7.0568
# 5 13.0633 1.5587 4.5018 0.0000 33.9504 0.0000
# 6 0.0000 0.0000 0.0000 7.0568 0.0000 46.0379
#
#
#
# Elastic Compliance Matrix: (Units=1/GPa)
#
#
# Indices 1 2 3 4 5 6 
#
# 1 0.023778 -0.009152 -0.002334 0.000000 -0.008420 0.000000
# 2 -0.009152 0.015145 -0.005075 0.000000 0.003499 0.000000
# 3 -0.002334 -0.005075 0.015107 0.000000 -0.000872 0.000000
# 4 0.000000 0.000000 0.000000 0.027105 0.000000 -0.004155
# 5 -0.008420 0.003499 -0.000872 0.000000 0.032649 0.000000
# 6 0.000000 0.000000 0.000000 -0.004155 0.000000 0.022358
#
#
# Mechanical properties :
#
#
# Convention : Reuss Voigt Hill
#
# Bulk Modulus (GPa) = 47.82948 55.03175 51.43061
# Shear Modulus (GPa) = 28.37146 33.18526 30.77836
#
# Velocity S-wave (km/s) = 3.67079 3.97001 3.82333
# Velocity P-wave (km/s) = 6.37828 6.86669 6.62698
#
# Compressibility (1/GPa) = 0.02090761
#
# Stress axis : x y z
#
# Youngs Moduli (GPa) = 42.05578 66.02981 66.19380
#
# Poissons Ratio (x) = 0.60433 0.15449
# Poissons Ratio (y) = 0.38491 0.33592
# Poissons Ratio (z) = 0.09816 0.33508
#
# Static dielectric constant tensor:
#      x y z
#    x 1.730800 0.000000 0.017720 
#    y 0.000000 1.784440 0.000000 
#    z 0.017720 0.000000 1.767190 
# 
# From -- ./inp_files/129757.got.cif
#   From: 2010.05.17/outbox.cif.g08.bks.cpg/sg15_65_cif.got.tgz:129757.got - 2010.06.03 18:47:42.
