data_PCOD9300461
_publ_section_title
;
Structure prediction by ZEFSAII (Michael W. Deem and Ramdas Pophale) SiO2 
 PCOD9300461
Probable space group: C 2/C
;
_chemical_formula_sum "Si O2"
_cell_formula_units_Z 56
_cell_length_a 32.665450
_cell_length_b 5.000375
_cell_length_c 14.648439
_cell_angle_alpha 90.000000
_cell_angle_beta 87.586581
_cell_angle_gamma 90.000000
_cell_volume 2390.546387
_symmetry_space_group_name_H-M "C 2/C"
_symmetry_group_IT_number 15
_symmetry_cell_setting 'monoclinic'
loop_
_space_group_symop_operation_xyz
x,y,z
-x,y,1/2-z
-x,-y,-z
x,-y,1/2+z
1/2+x,1/2+y,z
1/2-x,1/2+y,1/2-z
1/2-x,1/2-y,-z
1/2+x,1/2-y,1/2+z
loop_
_atom_site_type_symbol
_atom_site_label
_atom_site_fract_x
_atom_site_fract_y
_atom_site_fract_z
Si Si1 0.250000 0.750000 0.500000
Si Si2 0.412287 0.887192 0.229332
Si Si3 0.158738 0.138983 0.024052
Si Si4 0.864665 0.129046 0.674087
Si Si5 0.888250 0.656542 0.422484
Si Si6 0.479721 0.749958 0.952117
Si Si7 0.000000 0.571596 0.250000
Si Si8 0.773601 0.264081 0.707738
O O1 0.206395 0.866641 0.540619
O O2 0.228777 0.689174 0.400780
O O3 0.392587 0.107053 0.164064
O O4 0.400408 0.010061 0.328163
O O5 0.461228 0.893237 0.223828
O O6 0.391799 0.603360 0.215057
O O7 0.142060 0.440675 0.029999
O O8 0.134649 0.935014 0.090595
O O9 0.148476 0.029695 0.924578
O O10 0.821265 0.204405 0.725234
O O11 0.930730 0.726945 0.468638
O O12 0.488386 0.760669 0.842033
O O13 0.500000 0.500000 0.000000
O O14 0.500000 0.000000 0.000000
O O15 0.755099 0.512671 0.764560
#
# Coordination Sequence:
#
# PCOD9300461 Si02
#       8
#     4   8   8   8   8   8   4   8
#     4  10  28  48  72 108 148 186 242 302 356 424
#     4  11  25  45  71 102 144 183 237 293 357 421
#     4  11  25  45  71 104 143 184 237 295 358 421
#     4  11  25  43  70 106 135 188 237 288 359 427
#     4  11  25  43  70 107 136 186 239 284 363 426
#     4  11  26  46  75 105 143 190 237 295 362 426
#     4  10  28  48  72 112 146 188 240 298 360 428
#     4  11  26  46  75 107 143 190 239 293 366 427
#
# _framework density 23.425609000000001
#
# number of rings (size 3 to 8) (size 9 to 14) (size 15 to 20)
#    0.000    1.143    0.000    3.429   12.000    9.143 
#    0.000    0.000    0.000    0.000    0.000    0.000 
#    0.000    0.000    0.000    0.000    0.000    0.000 
#
# Total GULP energy -156240.091625 kJ/mol
# GULP energy per Si atom -5580.003272 kJ/mol
# Density = 2.337229 g / cm^3
# Si number density = 23.425609 Si / 1000 Ang^3
#
#
#
# Elastic Constant Matrix: (Units=GPa)
#
#
# Indices 1 2 3 4 5 6 
#
# 1 187.1763 47.2587 22.8516 0.0000 15.5662 0.0000
# 2 47.2587 128.9739 8.2212 0.0000 0.7662 0.0000
# 3 22.8516 8.2212 57.3924 0.0000 11.3785 0.0000
# 4 0.0000 0.0000 0.0000 -1.4921 0.0000 -7.5933
# 5 15.5662 0.7662 11.3785 0.0000 28.0527 0.0000
# 6 0.0000 0.0000 0.0000 -7.5933 0.0000 18.3822
#
#
#
# Elastic Compliance Matrix: (Units=1/GPa)
#
#
# Indices 1 2 3 4 5 6 
#
# 1 0.006331 -0.002198 -0.001654 0.000000 -0.002782 0.000000
# 2 -0.002198 0.008590 -0.000599 0.000000 0.001228 0.000000
# 3 -0.001654 -0.000599 0.019556 0.000000 -0.006998 0.000000
# 4 0.000000 0.000000 0.000000 -0.216041 0.000000 -0.089242
# 5 -0.002782 0.001228 -0.006998 0.000000 0.039996 0.000000
# 6 0.000000 0.000000 0.000000 -0.089242 0.000000 0.017536
#
#
# Mechanical properties :
#
#
# Convention : Reuss Voigt Hill
#
# Bulk Modulus (GPa) = 39.10156 58.91174 49.00665
# Shear Modulus (GPa) = -46.90137 28.66930 -9.11603
#
# Velocity S-wave (km/s) = -4.47938 3.50214 -1.97482
# Velocity P-wave (km/s) = 3.16625 6.44642 3.97060
#
# Compressibility (1/GPa) = 0.02557443
#
# Stress axis : x y z
#
# Youngs Moduli (GPa) = 157.95872 116.41881 51.13587
#
# Poissons Ratio (x) = 0.25586 0.08460
# Poissons Ratio (y) = 0.34715 0.03062
# Poissons Ratio (z) = 0.26132 0.06971
#
# Static dielectric constant tensor:
#      x y z
#    x 1.873500 0.000000 -0.039870 
#    y 0.000000 1.834410 0.000000 
#    z -0.039870 0.000000 1.998320 
# 
# From -- ./inp_files/180134.got.cif
#   From: 2010.05.17/outbox.cif.g08.bks.cpg/sg15_91_cif.got.tgz:180134.got - 2010.06.03 18:47:42.
