data_PCOD9300806
_publ_section_title
;
Structure prediction by ZEFSAII (Michael W. Deem and Ramdas Pophale) SiO2 
 PCOD9300806
Probable space group: C 2/C
;
_chemical_formula_sum "Si O2"
_cell_formula_units_Z 64
_cell_length_a 13.504471
_cell_length_b 16.459538
_cell_length_c 13.326758
_cell_angle_alpha 90.000000
_cell_angle_beta 75.088381
_cell_angle_gamma 90.000000
_cell_volume 2862.479974
_symmetry_space_group_name_H-M "C 2/C"
_symmetry_group_IT_number 15
_symmetry_cell_setting 'monoclinic'
loop_
_space_group_symop_operation_xyz
x,y,z
-x,y,1/2-z
-x,-y,-z
x,-y,1/2+z
1/2+x,1/2+y,z
1/2-x,1/2+y,1/2-z
1/2-x,1/2-y,-z
1/2+x,1/2-y,1/2+z
loop_
_atom_site_type_symbol
_atom_site_label
_atom_site_fract_x
_atom_site_fract_y
_atom_site_fract_z
Si Si1 0.396123 0.362652 0.491268
Si Si2 0.418108 0.221480 0.331546
Si Si3 0.169317 0.272713 0.330031
Si Si4 0.603877 0.362652 0.508731
Si Si5 0.669317 0.772713 0.830032
Si Si6 0.581892 0.221480 0.668454
Si Si7 0.824060 0.591555 0.508662
Si Si8 0.175939 0.591555 0.491339
O O1 0.416686 0.309393 0.386781
O O2 0.371237 0.296122 0.582859
O O3 0.500000 0.405275 0.500000
O O4 0.292984 0.411367 0.499770
O O5 0.298292 0.237733 0.302278
O O6 0.448072 0.210630 0.199773
O O7 0.385667 0.147592 0.413594
O O8 0.051928 0.289369 0.300227
O O9 0.178694 0.358401 0.386666
O O10 0.628762 0.296121 0.417141
O O11 0.583314 0.309394 0.613219
O O12 0.707017 0.411366 0.500229
O O13 0.798292 0.737733 0.802279
O O14 0.678694 0.858401 0.886666
O O15 0.614332 0.147592 0.586406
O O16 0.863965 0.500000 0.507639
#
# Coordination Sequence:
#
# PCOD9300806 Si02
#       8
#     8   8   8   8   8   8   8   8
#     4  11  21  36  65  93 115 153 208 251 284 351
#     4  11  21  38  66  90 114 157 208 250 289 343
#     4  11  19  39  65  85 114 162 211 244 285 346
#     4  11  21  36  65  93 115 153 208 251 284 351
#     4  11  19  39  65  85 114 162 211 244 285 346
#     4  11  21  38  66  90 114 157 208 250 289 343
#     4  11  25  39  56  93 131 155 191 245 306 364
#     4  11  25  39  56  93 131 155 191 245 306 364
#
# _framework density 22.358236000000002
#
# number of rings (size 3 to 8) (size 9 to 14) (size 15 to 20)
#    0.000    1.000    7.500    1.500    0.000    2.000 
#    0.000    1.250    0.000    2.250    0.000    0.000 
#    0.000    0.000    0.000    0.000    0.000    0.000 
#
# Total GULP energy -178417.071474 kJ/mol
# GULP energy per Si atom -5575.533484 kJ/mol
# Density = 2.230735 g / cm^3
# Si number density = 22.358236 Si / 1000 Ang^3
#
#
#
# Elastic Constant Matrix: (Units=GPa)
#
#
# Indices 1 2 3 4 5 6 
#
# 1 195.5213 21.7903 48.9183 0.0000 2.6179 0.0000
# 2 21.7903 142.0671 53.1696 0.0000 -3.2021 0.0000
# 3 48.9183 53.1696 122.7492 0.0000 10.7441 0.0000
# 4 0.0000 0.0000 0.0000 11.4541 0.0000 2.4298
# 5 2.6179 -3.2021 10.7441 0.0000 60.6100 0.0000
# 6 0.0000 0.0000 0.0000 2.4298 0.0000 12.6788
#
#
#
# Elastic Compliance Matrix: (Units=1/GPa)
#
#
# Indices 1 2 3 4 5 6 
#
# 1 0.005683 -0.000018 -0.002270 0.000000 0.000156 0.000000
# 2 -0.000018 0.008474 -0.003761 0.000000 0.001115 0.000000
# 3 -0.002270 -0.003761 0.010858 0.000000 -0.002025 0.000000
# 4 0.000000 0.000000 0.000000 0.091005 0.000000 -0.017441
# 5 0.000156 0.001115 -0.002025 0.000000 0.016910 0.000000
# 6 0.000000 0.000000 0.000000 -0.017441 0.000000 0.082214
#
#
# Mechanical properties :
#
#
# Convention : Reuss Voigt Hill
#
# Bulk Modulus (GPa) = 77.42722 78.67710 78.05216
# Shear Modulus (GPa) = 21.59374 39.37921 30.48648
#
# Velocity S-wave (km/s) = 3.11112 4.20132 3.69663
# Velocity P-wave (km/s) = 6.90006 7.66815 7.29422
#
# Compressibility (1/GPa) = 0.01291536
#
# Stress axis : x y z
#
# Youngs Moduli (GPa) = 175.97862 118.00128 92.09925
#
# Poissons Ratio (x) = 0.00217 0.20909
# Poissons Ratio (y) = 0.00324 0.34639
# Poissons Ratio (z) = 0.39952 0.44381
#
# Static dielectric constant tensor:
#      x y z
#    x 2.142310 0.000000 0.057050 
#    y 0.000000 1.680920 0.000000 
#    z 0.057050 0.000000 1.779600 
# 
# From -- ./inp_files/154841.got.cif
#   From: 2010.05.17/outbox.cif.g08.bks.cpg/sg15_78_cif.got.tgz:154841.got - 2010.06.03 18:47:42.
