data_PCOD9300294
_publ_section_title
;
Structure prediction by ZEFSAII (Michael W. Deem and Ramdas Pophale) SiO2 
 PCOD9300294
Probable space group: C 2/C
;
_chemical_formula_sum "Si O2"
_cell_formula_units_Z 52
_cell_length_a 13.933135
_cell_length_b 5.495667
_cell_length_c 30.835866
_cell_angle_alpha 90.000000
_cell_angle_beta 61.178290
_cell_angle_gamma 90.000000
_cell_volume 2068.669060
_symmetry_space_group_name_H-M "C 2/C"
_symmetry_group_IT_number 15
_symmetry_cell_setting 'monoclinic'
loop_
_space_group_symop_operation_xyz
x,y,z
-x,y,1/2-z
-x,-y,-z
x,-y,1/2+z
1/2+x,1/2+y,z
1/2-x,1/2+y,1/2-z
1/2-x,1/2-y,-z
1/2+x,1/2-y,1/2+z
loop_
_atom_site_type_symbol
_atom_site_label
_atom_site_fract_x
_atom_site_fract_y
_atom_site_fract_z
Si Si1 0.527961 0.935733 0.444988
Si Si2 0.317437 0.192211 0.731181
Si Si3 0.237448 0.226964 0.897046
Si Si4 0.805043 0.597490 0.449710
Si Si5 0.111521 0.076958 0.366222
Si Si6 0.500000 0.551717 0.250000
Si Si7 0.917817 0.093975 0.854281
O O1 0.641055 0.078294 0.412146
O O2 0.421469 0.010120 0.441427
O O3 0.500000 0.000000 0.500000
O O4 0.552480 0.663391 0.423231
O O5 0.233371 0.425180 0.750472
O O6 0.364036 0.204454 0.671931
O O7 0.412736 0.280023 0.743351
O O8 0.359224 0.331642 0.869303
O O9 0.227707 0.112320 0.947351
O O10 0.218745 0.054233 0.859975
O O11 0.750000 0.750000 0.500000
O O12 0.833490 0.744948 0.399740
O O13 0.030481 0.908630 0.356313
O O14 0.557350 0.379631 0.201585
#
# Coordination Sequence:
#
# PCOD9300294 Si02
#       7
#     8   8   8   8   8   4   8
#     4  12  27  46  73 105 147 190 250 307 376 455
#     4  11  27  48  77 111 153 199 261 315 389 461
#     4  12  25  45  75  99 147 188 240 307 377 446
#     4  12  27  45  73 110 144 193 248 307 378 454
#     4  11  25  45  73 105 144 194 243 312 370 458
#     4  10  26  48  72 108 150 200 250 320 382 464
#     4  11  24  48  71 103 144 189 246 302 376 453
#
# _framework density 25.136935999999999
#
# number of rings (size 3 to 8) (size 9 to 14) (size 15 to 20)
#    0.000    0.615    3.077    3.692    8.615    3.077 
#    0.000    0.000    0.000    0.000    0.000    0.000 
#    0.000    0.000    0.000    0.000    0.000    0.000 
#
# Total GULP energy -145470.559453 kJ/mol
# GULP energy per Si atom -5595.021517 kJ/mol
# Density = 2.507972 g / cm^3
# Si number density = 25.136936 Si / 1000 Ang^3
#
#
#
# Elastic Constant Matrix: (Units=GPa)
#
#
# Indices 1 2 3 4 5 6 
#
# 1 156.4105 27.5204 13.2659 0.0005 31.2064 0.0003
# 2 27.5204 39.6403 13.5835 0.0006 6.8996 0.0003
# 3 13.2659 13.5835 129.2185 -0.0007 16.0945 -0.0001
# 4 0.0005 0.0006 -0.0007 37.7982 0.0003 -1.1178
# 5 31.2064 6.8996 16.0945 0.0003 41.4256 0.0002
# 6 0.0003 0.0003 -0.0001 -1.1178 0.0002 36.2423
#
#
#
# Elastic Compliance Matrix: (Units=1/GPa)
#
#
# Indices 1 2 3 4 5 6 
#
# 1 0.008352 -0.004946 0.000361 0.000000 -0.005608 0.000000
# 2 -0.004946 0.029578 -0.002577 0.000000 -0.000199 0.000000
# 3 0.000361 -0.002577 0.008357 0.000000 -0.003090 0.000000
# 4 0.000000 0.000000 0.000000 0.026480 0.000000 0.000817
# 5 -0.005608 -0.000199 -0.003090 0.000000 0.029598 0.000000
# 6 0.000000 0.000000 0.000000 0.000817 0.000000 0.027617
#
#
# Mechanical properties :
#
#
# Convention : Reuss Voigt Hill
#
# Bulk Modulus (GPa) = 31.28475 48.22321 39.75398
# Shear Modulus (GPa) = 32.26608 41.15320 36.70964
#
# Velocity S-wave (km/s) = 3.58664 4.05057 3.82565
# Velocity P-wave (km/s) = 5.44286 6.41109 5.94671
#
# Compressibility (1/GPa) = 0.03196445
#
# Stress axis : x y z
#
# Youngs Moduli (GPa) = 119.73222 33.80856 119.65338
#
# Poissons Ratio (x) = 0.16722 -0.04319
# Poissons Ratio (y) = 0.59219 0.30831
# Poissons Ratio (z) = -0.04322 0.08711
#
# Static dielectric constant tensor:
#      x y z
#    x 1.907800 0.000000 -0.039290 
#    y 0.000000 2.172590 0.000000 
#    z -0.039290 0.000000 2.052530 
# 
# From -- ./inp_files/312298.got.cif
#   From: 2010.05.17/outbox.cif.g08.bks.cpg/sg15_157_cif.got.tgz:312298.got - 2010.06.03 18:47:42.
