data_PCOD9300947
_publ_section_title
;
Structure prediction by ZEFSAII (Michael W. Deem and Ramdas Pophale) SiO2 
 PCOD9300947
Probable space group: C 2/C
;
_chemical_formula_sum "Si O2"
_cell_formula_units_Z 44
_cell_length_a 12.497190
_cell_length_b 23.424982
_cell_length_c 9.389299
_cell_angle_alpha 90.000000
_cell_angle_beta 124.185461
_cell_angle_gamma 90.000000
_cell_volume 2273.775079
_symmetry_space_group_name_H-M "C 2/C"
_symmetry_group_IT_number 15
_symmetry_cell_setting 'monoclinic'
loop_
_space_group_symop_operation_xyz
x,y,z
-x,y,1/2-z
-x,-y,-z
x,-y,1/2+z
1/2+x,1/2+y,z
1/2-x,1/2+y,1/2-z
1/2-x,1/2-y,-z
1/2+x,1/2-y,1/2+z
loop_
_atom_site_type_symbol
_atom_site_label
_atom_site_fract_x
_atom_site_fract_y
_atom_site_fract_z
Si Si1 0.228158 0.875195 0.065171
Si Si2 0.000000 0.665335 0.750000
Si Si3 0.830230 0.141325 0.289871
Si Si4 0.360261 0.778070 0.687280
Si Si5 0.012413 0.060264 0.588661
Si Si6 0.563882 0.272667 0.983006
O O1 0.379961 0.873461 0.206884
O O2 0.188007 0.808186 0.028733
O O3 0.139092 0.907918 0.113359
O O4 0.198656 0.891650 0.879109
O O5 0.957754 0.709884 0.595057
O O6 0.713757 0.175298 0.273811
O O7 0.892434 0.098334 0.447654
O O8 0.940237 0.189713 0.349374
O O9 0.500000 0.804368 0.750000
O O10 0.250000 0.750000 0.500000
O O11 0.414739 0.729062 0.832222
O O12 0.000000 0.054998 0.750000
O O13 0.000000 0.000000 0.500000
#
# Coordination Sequence:
#
# PCOD9300947 Si02
#       6
#     8   4   8   8   8   8
#     4  11  23  37  64  93 128 168 216 255 315 379
#     4  12  20  34  58  96 134 176 204 250 304 378
#     4  11  22  39  61  94 126 170 219 260 311 375
#     4  12  25  35  54  88 140 182 217 258 311 374
#     4  11  25  46  73  92 117 153 212 275 325 378
#     4  11  20  34  57  87 131 176 217 249 300 367
#
# _framework density 19.351078999999999
#
# number of rings (size 3 to 8) (size 9 to 14) (size 15 to 20)
#    0.000    0.727    5.455    4.364    5.091    0.000 
#    0.000    0.000    2.000    2.182    0.000    0.000 
#    0.000    0.000    0.000    0.000    0.000    0.000 
#
# Total GULP energy -122564.692199 kJ/mol
# GULP energy per Si atom -5571.122373 kJ/mol
# Density = 1.930704 g / cm^3
# Si number density = 19.351079 Si / 1000 Ang^3
#
#
#
# Elastic Constant Matrix: (Units=GPa)
#
#
# Indices 1 2 3 4 5 6 
#
# 1 152.8377 40.5346 72.0696 0.0000 12.6416 0.0000
# 2 40.5346 69.0357 35.6946 0.0000 -4.7515 0.0000
# 3 72.0696 35.6946 119.8965 0.0000 -17.8192 0.0000
# 4 0.0000 0.0000 0.0000 19.1444 0.0000 -12.8125
# 5 12.6416 -4.7515 -17.8192 0.0000 38.3340 0.0000
# 6 0.0000 0.0000 0.0000 -12.8125 0.0000 16.8995
#
#
#
# Elastic Compliance Matrix: (Units=1/GPa)
#
#
# Indices 1 2 3 4 5 6 
#
# 1 0.011333 -0.003632 -0.006825 0.000000 -0.007360 0.000000
# 2 -0.003632 0.018287 -0.002950 0.000000 0.002093 0.000000
# 3 -0.006825 -0.002950 0.014611 0.000000 0.008677 0.000000
# 4 0.000000 0.000000 0.000000 0.106039 0.000000 0.080394
# 5 -0.007360 0.002093 0.008677 0.000000 0.032806 0.000000
# 6 0.000000 0.000000 0.000000 0.080394 0.000000 0.120125
#
#
# Mechanical properties :
#
#
# Convention : Reuss Voigt Hill
#
# Bulk Modulus (GPa) = 57.41457 70.92971 64.17214
# Shear Modulus (GPa) = 14.88889 27.77367 21.33128
#
# Velocity S-wave (km/s) = 2.77683 3.79258 3.32374
# Velocity P-wave (km/s) = 6.32577 7.47743 6.92558
#
# Compressibility (1/GPa) = 0.01741718
#
# Stress axis : x y z
#
# Youngs Moduli (GPa) = 88.23652 54.68304 68.44279
#
# Poissons Ratio (x) = 0.19861 0.46712
# Poissons Ratio (y) = 0.32048 0.20190
# Poissons Ratio (z) = 0.60221 0.16131
#
# Static dielectric constant tensor:
#      x y z
#    x 1.829670 0.000000 -0.072890 
#    y 0.000000 1.706810 0.000000 
#    z -0.072890 0.000000 1.764910 
# 
# From -- ./inp_files/32733.got.cif
#   From: 2010.05.17/outbox.cif.g08.bks.cpg/sg15_17_cif.got.tgz:32733.got - 2010.06.03 18:47:42.
