data_PCOD9300967
_publ_section_title
;
Structure prediction by ZEFSAII (Michael W. Deem and Ramdas Pophale) SiO2 
 PCOD9300967
Probable space group: C 2/C
;
_chemical_formula_sum "Si O2"
_cell_formula_units_Z 60
_cell_length_a 25.463015
_cell_length_b 22.439423
_cell_length_c 12.356548
_cell_angle_alpha 90.000000
_cell_angle_beta 27.530396
_cell_angle_gamma 90.000000
_cell_volume 3263.371941
_symmetry_space_group_name_H-M "C 2/C"
_symmetry_group_IT_number 15
_symmetry_cell_setting 'monoclinic'
loop_
_space_group_symop_operation_xyz
x,y,z
-x,y,1/2-z
-x,-y,-z
x,-y,1/2+z
1/2+x,1/2+y,z
1/2-x,1/2+y,1/2-z
1/2-x,1/2-y,-z
1/2+x,1/2-y,1/2+z
loop_
_atom_site_type_symbol
_atom_site_label
_atom_site_fract_x
_atom_site_fract_y
_atom_site_fract_z
Si Si1 0.119795 0.578409 0.792783
Si Si2 0.133879 0.556539 0.334606
Si Si3 0.806735 0.375958 0.562529
Si Si4 0.868741 0.663566 0.525219
Si Si5 0.068276 0.240208 0.892133
Si Si6 0.228641 0.347749 0.518081
Si Si7 0.500000 0.220758 0.750000
Si Si8 0.102003 0.208269 0.479780
O O1 0.145083 0.513487 0.795118
O O2 0.194540 0.594747 0.552609
O O3 0.137047 0.627697 0.853499
O O4 0.989768 0.575730 0.986292
O O5 0.149430 0.576642 0.429449
O O6 0.224230 0.595384 0.102430
O O7 0.898094 0.322313 0.397758
O O8 0.687182 0.346199 0.811807
O O9 0.803734 0.634198 0.544454
O O10 0.831722 0.732670 0.599956
O O11 0.000000 0.665728 0.250000
O O12 0.133450 0.300978 0.737223
O O13 0.154432 0.187811 0.701899
O O14 0.956181 0.229689 0.025553
O O15 0.040146 0.243538 0.070510
O O16 0.000000 0.195844 0.750000
#
# Coordination Sequence:
#
# PCOD9300967 Si02
#       8
#     8   8   8   8   8   8   4   8
#     4  11  24  37  60  90 121 155 198 253 302 356
#     4  11  22  38  60  86 120 159 202 241 303 362
#     4  12  23  39  61  90 128 155 197 254 300 361
#     4  11  20  35  56  89 121 152 193 240 299 361
#     4  11  22  36  59  88 122 161 200 236 302 355
#     4  11  20  38  60  84 121 163 198 242 286 369
#     4  12  22  36  58  96 126 158 186 256 308 352
#     4  11  22  38  62  90 121 162 202 238 298 368
#
# _framework density 18.385891000000001
#
# number of rings (size 3 to 8) (size 9 to 14) (size 15 to 20)
#    0.000    0.800    6.667    2.400    1.867    3.200 
#    0.000    0.000    0.000    3.200    0.000    0.000 
#    0.000    0.000    0.000    0.000    0.000    0.000 
#
# Total GULP energy -167666.504922 kJ/mol
# GULP energy per Si atom -5588.883497 kJ/mol
# Density = 1.834404 g / cm^3
# Si number density = 18.385891 Si / 1000 Ang^3
#
#
#
# Elastic Constant Matrix: (Units=GPa)
#
#
# Indices 1 2 3 4 5 6 
#
# 1 75.2842 17.5367 28.0073 0.0000 32.3765 0.0000
# 2 17.5367 86.1746 48.0543 0.0000 18.5805 0.0000
# 3 28.0073 48.0543 76.0157 0.0000 20.6386 0.0000
# 4 0.0000 0.0000 0.0000 12.7101 0.0000 3.2263
# 5 32.3765 18.5805 20.6386 0.0000 33.4469 -0.0001
# 6 0.0000 0.0000 0.0000 3.2263 -0.0001 21.0265
#
#
#
# Elastic Compliance Matrix: (Units=1/GPa)
#
#
# Indices 1 2 3 4 5 6 
#
# 1 0.023557 0.002193 -0.004257 0.000000 -0.021394 0.000000
# 2 0.002193 0.018487 -0.010967 0.000000 -0.005625 0.000000
# 3 -0.004257 -0.010967 0.022684 0.000000 -0.003784 0.000000
# 4 0.000000 0.000000 0.000000 0.081866 0.000000 -0.012561
# 5 -0.021394 -0.005625 -0.003784 0.000000 0.056067 0.000000
# 6 0.000000 0.000000 0.000000 -0.012561 0.000000 0.049486
#
#
# Mechanical properties :
#
#
# Convention : Reuss Voigt Hill
#
# Bulk Modulus (GPa) = 25.86333 47.18569 36.52451
# Shear Modulus (GPa) = 17.17632 23.02845 20.10239
#
# Velocity S-wave (km/s) = 3.05980 3.54292 3.31019
# Velocity P-wave (km/s) = 5.15565 6.51584 5.87524
#
# Compressibility (1/GPa) = 0.03866478
#
# Stress axis : x y z
#
# Youngs Moduli (GPa) = 42.45103 54.09271 44.08357
#
# Poissons Ratio (x) = -0.11862 0.18766
# Poissons Ratio (y) = -0.09309 0.48348
# Poissons Ratio (z) = 0.18071 0.59326
#
# Static dielectric constant tensor:
#      x y z
#    x 1.659810 0.000000 0.007020 
#    y 0.000000 1.623310 0.000000 
#    z 0.007020 0.000000 1.635730 
# 
# From -- ./inp_files/119918.got.cif
#   From: 2010.05.17/outbox.cif.g08.bks.cpg/sg15_60_cif.got.tgz:119918.got - 2010.06.03 18:47:42.
