data_PCOD9300044
_publ_section_title
;
Structure prediction by ZEFSAII (Michael W. Deem and Ramdas Pophale) SiO2 
 PCOD9300044
Probable space group: C 2/C
;
_chemical_formula_sum "Si O2"
_cell_formula_units_Z 52
_cell_length_a 15.902127
_cell_length_b 9.138609
_cell_length_c 17.510754
_cell_angle_alpha 90.000000
_cell_angle_beta 64.226298
_cell_angle_gamma 90.000000
_cell_volume 2291.568121
_symmetry_space_group_name_H-M "C 2/C"
_symmetry_group_IT_number 15
_symmetry_cell_setting 'monoclinic'
loop_
_space_group_symop_operation_xyz
x,y,z
-x,y,1/2-z
-x,-y,-z
x,-y,1/2+z
1/2+x,1/2+y,z
1/2-x,1/2+y,1/2-z
1/2-x,1/2-y,-z
1/2+x,1/2-y,1/2+z
loop_
_atom_site_type_symbol
_atom_site_label
_atom_site_fract_x
_atom_site_fract_y
_atom_site_fract_z
Si Si1 0.680947 0.252606 0.596610
Si Si2 0.629801 0.761136 0.410499
Si Si3 0.000000 0.683821 0.250000
Si Si4 0.690561 0.925017 0.856105
Si Si5 0.025985 0.184900 0.901856
Si Si6 0.017660 0.129836 0.334198
Si Si7 0.701953 0.046258 0.178246
O O1 0.750000 0.250000 0.500000
O O2 0.716149 0.380650 0.637396
O O3 0.578461 0.288055 0.607400
O O4 0.698380 0.102339 0.633361
O O5 0.549889 0.710665 0.501727
O O6 0.596409 0.738995 0.335377
O O7 0.724053 0.665090 0.382901
O O8 0.645905 0.934010 0.414044
O O9 0.988080 0.766756 0.334224
O O10 0.904642 0.597586 0.279841
O O11 0.617650 0.787118 0.881619
O O12 0.722520 0.972673 0.759391
O O13 0.039697 0.013245 0.877260
O O14 0.000000 0.103803 0.250000
#
# Coordination Sequence:
#
# PCOD9300044 Si02
#       7
#     8   8   4   8   8   8   8
#     4  12  27  44  70 106 143 180 237 297 346 416
#     4  12  26  44  76 103 139 191 233 291 351 426
#     4  10  26  42  74 102 138 182 234 302 336 420
#     4  11  25  45  70 103 142 188 231 288 354 423
#     4  11  24  46  70 102 143 182 237 284 357 414
#     4  12  25  43  70 103 140 186 235 286 354 415
#     4  11  25  46  71 100 145 186 238 281 361 416
#
# _framework density 22.691884999999999
#
# number of rings (size 3 to 8) (size 9 to 14) (size 15 to 20)
#    0.000    0.615    0.769    6.462    9.692    1.846 
#    0.000    0.000    0.000    0.000    0.000    0.000 
#    0.000    0.000    0.000    0.000    0.000    0.000 
#
# Total GULP energy -145301.029932 kJ/mol
# GULP energy per Si atom -5588.501151 kJ/mol
# Density = 2.264024 g / cm^3
# Si number density = 22.691885 Si / 1000 Ang^3
#
#
#
# Elastic Constant Matrix: (Units=GPa)
#
#
# Indices 1 2 3 4 5 6 
#
# 1 99.4734 43.3789 9.2035 0.0000 -8.5558 0.0000
# 2 43.3789 113.0128 21.0705 0.0000 -2.7277 0.0000
# 3 9.2035 21.0705 114.2059 0.0000 -9.5553 0.0000
# 4 0.0000 0.0000 0.0000 14.6344 0.0000 -22.4035
# 5 -8.5558 -2.7277 -9.5553 0.0000 34.6037 0.0000
# 6 0.0000 0.0000 0.0000 -22.4035 0.0000 -17.8514
#
#
#
# Elastic Compliance Matrix: (Units=1/GPa)
#
#
# Indices 1 2 3 4 5 6 
#
# 1 0.012318 -0.004681 0.000097 0.000000 0.002703 0.000000
# 2 -0.004681 0.010945 -0.001706 0.000000 -0.000766 0.000000
# 3 0.000097 -0.001706 0.009268 0.000000 0.002449 0.000000
# 4 0.000000 0.000000 0.000000 0.023391 0.000000 -0.029356
# 5 0.002703 -0.000766 0.002449 0.000000 0.030183 0.000000
# 6 0.000000 0.000000 0.000000 -0.029356 0.000000 -0.019176
#
#
# Mechanical properties :
#
#
# Convention : Reuss Voigt Hill
#
# Bulk Modulus (GPa) = 50.12331 52.66641 51.39486
# Shear Modulus (GPa) = 58.03227 23.14662 40.58944
#
# Velocity S-wave (km/s) = 5.06256 3.19727 4.23392
# Velocity P-wave (km/s) = 7.50395 6.07370 6.82639
#
# Compressibility (1/GPa) = 0.01995080
#
# Stress axis : x y z
#
# Youngs Moduli (GPa) = 81.18365 91.36687 107.89883
#
# Poissons Ratio (x) = 0.42768 -0.01048
# Poissons Ratio (y) = 0.38001 0.18409
# Poissons Ratio (z) = -0.00789 0.15588
#
# Static dielectric constant tensor:
#      x y z
#    x 1.832180 0.000000 -0.102660 
#    y 0.000000 1.956280 0.000000 
#    z -0.102660 0.000000 1.529150 
# 
# From -- ./inp_files/209449.got.cif
#   From: 2010.05.17/outbox.cif.g08.bks.cpg/sg15_105_cif.got.tgz:209449.got - 2010.06.03 18:47:42.
