data_PCOD9300212
_publ_section_title
;
Structure prediction by ZEFSAII (Michael W. Deem and Ramdas Pophale) SiO2 
 PCOD9300212
Probable space group: C 2/C
;
_chemical_formula_sum "Si O2"
_cell_formula_units_Z 40
_cell_length_a 13.683783
_cell_length_b 11.442248
_cell_length_c 11.955888
_cell_angle_alpha 90.000000
_cell_angle_beta 70.814258
_cell_angle_gamma 90.000000
_cell_volume 1767.999366
_symmetry_space_group_name_H-M "C 2/C"
_symmetry_group_IT_number 15
_symmetry_cell_setting 'monoclinic'
loop_
_space_group_symop_operation_xyz
x,y,z
-x,y,1/2-z
-x,-y,-z
x,-y,1/2+z
1/2+x,1/2+y,z
1/2-x,1/2+y,1/2-z
1/2-x,1/2-y,-z
1/2+x,1/2-y,1/2+z
loop_
_atom_site_type_symbol
_atom_site_label
_atom_site_fract_x
_atom_site_fract_y
_atom_site_fract_z
Si Si1 0.195307 0.638352 0.066953
Si Si2 0.133440 0.239527 0.997448
Si Si3 0.500000 0.634669 0.250000
Si Si4 0.500000 0.074515 0.250000
Si Si5 0.868345 0.492967 0.612844
Si Si6 0.162231 0.984518 0.334920
O O1 0.101504 0.652638 0.189271
O O2 0.286064 0.559656 0.084519
O O3 0.250000 0.750000 0.000000
O O4 0.135082 0.577696 0.989489
O O5 0.063029 0.208999 0.132523
O O6 0.250000 0.250000 0.000000
O O7 0.118004 0.362306 0.940363
O O8 0.126601 0.134995 0.908132
O O9 0.575271 0.552931 0.297338
O O10 0.541532 0.990556 0.331733
O O11 0.759917 0.522390 0.714571
#
# Coordination Sequence:
#
# PCOD9300212 Si02
#       6
#     8   8   4   4   8   8
#     4  11  25  46  70 103 146 189 239 300 363 437
#     4  12  25  49  73 107 151 194 250 306 371 444
#     4  12  26  46  78 112 148 204 248 308 374 442
#     4  10  26  46  72 108 140 194 240 298 364 438
#     4  11  25  48  74 108 148 193 243 306 370 442
#     4  11  25  46  72 106 146 193 245 302 366 435
#
# _framework density 22.624444
#
# number of rings (size 3 to 8) (size 9 to 14) (size 15 to 20)
#    0.000    0.800    4.000    1.200    8.400    1.600 
#    0.000    0.000    0.000    0.000    0.000    0.000 
#    0.000    0.000    0.000    0.000    0.000    0.000 
#
# Total GULP energy -111763.558678 kJ/mol
# GULP energy per Si atom -5588.177934 kJ/mol
# Density = 2.257295 g / cm^3
# Si number density = 22.624444 Si / 1000 Ang^3
#
#
#
# Elastic Constant Matrix: (Units=GPa)
#
#
# Indices 1 2 3 4 5 6 
#
# 1 142.2170 26.1034 50.5576 0.0000 20.1193 0.0000
# 2 26.1034 99.5069 63.4224 0.0000 -13.1551 0.0000
# 3 50.5576 63.4224 151.0463 0.0000 -10.7574 0.0000
# 4 0.0000 0.0000 0.0000 49.0448 0.0000 19.1816
# 5 20.1193 -13.1551 -10.7574 0.0000 51.0598 0.0000
# 6 0.0000 0.0000 0.0000 19.1816 0.0000 31.6339
#
#
#
# Elastic Compliance Matrix: (Units=1/GPa)
#
#
# Indices 1 2 3 4 5 6 
#
# 1 0.008851 -0.001109 -0.002807 0.000000 -0.004365 0.000000
# 2 -0.001109 0.014146 -0.005358 0.000000 0.002953 0.000000
# 3 -0.002807 -0.005358 0.009940 0.000000 0.001820 0.000000
# 4 0.000000 0.000000 0.000000 0.026728 0.000000 -0.016207
# 5 -0.004365 0.002953 0.001820 0.000000 0.022449 0.000000
# 6 0.000000 0.000000 0.000000 -0.016207 0.000000 0.041439
#
#
# Mechanical properties :
#
#
# Convention : Reuss Voigt Hill
#
# Bulk Modulus (GPa) = 69.51053 74.77081 72.14067
# Shear Modulus (GPa) = 34.03729 43.19349 38.61539
#
# Velocity S-wave (km/s) = 3.88293 4.37412 4.13583
# Velocity P-wave (km/s) = 7.13395 7.65709 7.40014
#
# Compressibility (1/GPa) = 0.01438631
#
# Stress axis : x y z
#
# Youngs Moduli (GPa) = 112.98581 70.69116 100.60760
#
# Poissons Ratio (x) = 0.07843 0.28245
# Poissons Ratio (y) = 0.12535 0.53907
# Poissons Ratio (z) = 0.31721 0.37877
#
# Static dielectric constant tensor:
#      x y z
#    x 1.596160 0.000000 0.211440 
#    y 0.000000 1.926050 0.000000 
#    z 0.211440 0.000000 1.738680 
# 
# From -- ./inp_files/94924.got.cif
#   From: 2010.05.17/outbox.cif.g08.bks.cpg/sg15_48_cif.got.tgz:94924.got - 2010.06.03 18:47:42.
