data_PCOD9300358
_publ_section_title
;
Structure prediction by ZEFSAII (Michael W. Deem and Ramdas Pophale) SiO2 
 PCOD9300358
Probable space group: C 2/C
;
_chemical_formula_sum "Si O2"
_cell_formula_units_Z 48
_cell_length_a 17.040420
_cell_length_b 10.246976
_cell_length_c 23.625332
_cell_angle_alpha 90.000000
_cell_angle_beta 153.697667
_cell_angle_gamma 90.000000
_cell_volume 1827.945424
_symmetry_space_group_name_H-M "C 2/C"
_symmetry_group_IT_number 15
_symmetry_cell_setting 'monoclinic'
loop_
_space_group_symop_operation_xyz
x,y,z
-x,y,1/2-z
-x,-y,-z
x,-y,1/2+z
1/2+x,1/2+y,z
1/2-x,1/2+y,1/2-z
1/2-x,1/2-y,-z
1/2+x,1/2-y,1/2+z
loop_
_atom_site_type_symbol
_atom_site_label
_atom_site_fract_x
_atom_site_fract_y
_atom_site_fract_z
Si Si1 0.975533 0.619189 0.940389
Si Si2 0.842341 0.484053 0.537592
Si Si3 0.244532 0.155800 0.648375
Si Si4 0.511039 0.376062 0.825380
Si Si5 0.250000 0.750000 0.500000
Si Si6 0.099968 0.118526 0.675220
Si Si7 0.500000 0.958760 0.750000
O O1 0.005645 0.535810 0.902611
O O2 0.781442 0.680913 0.816041
O O3 0.119654 0.734276 0.038557
O O4 0.000000 0.500000 0.000000
O O5 0.716160 0.601682 0.473123
O O6 0.718761 0.373103 0.432618
O O7 0.907374 0.395558 0.634452
O O8 0.415004 0.241966 0.776349
O O9 0.133864 0.103822 0.630057
O O10 0.339407 0.044899 0.671965
O O11 0.500000 0.390629 0.750000
O O12 0.412698 0.482267 0.799972
O O13 0.424748 0.697323 0.574835
#
# Coordination Sequence:
#
# PCOD9300358 Si02
#       7
#     8   8   8   8   4   8   4
#     4  12  22  43  76 106 141 191 257 309 363 461
#     4  11  24  47  70 104 147 194 248 302 374 461
#     4  12  24  41  72 113 142 197 242 313 382 436
#     4  11  22  45  73 103 142 196 252 301 373 456
#     4  10  26  50  70  98 152 200 240 304 392 446
#     4  11  25  44  72 104 147 185 256 310 365 457
#     4  12  26  44  68 110 158 186 242 316 380 448
#
# _framework density 26.258991000000002
#
# number of rings (size 3 to 8) (size 9 to 14) (size 15 to 20)
#    0.000    0.667    5.833    1.000    2.333    2.667 
#   15.000    3.333    0.000    0.000    0.000    0.000 
#    0.000    0.000    0.000    0.000    0.000    0.000 
#
# Total GULP energy -133791.276567 kJ/mol
# GULP energy per Si atom -5574.636524 kJ/mol
# Density = 2.619922 g / cm^3
# Si number density = 26.258991 Si / 1000 Ang^3
#
#
#
# Elastic Constant Matrix: (Units=GPa)
#
#
# Indices 1 2 3 4 5 6 
#
# 1 197.0189 56.6149 44.0553 0.0003 3.0830 0.0001
# 2 56.6149 88.9983 0.8671 0.0018 -6.6309 0.0001
# 3 44.0553 0.8671 104.5130 0.0047 22.1987 0.0004
# 4 0.0003 0.0018 0.0047 27.9257 0.0007 -2.4512
# 5 3.0830 -6.6309 22.1987 0.0007 52.6282 -0.0001
# 6 0.0001 0.0001 0.0004 -2.4512 -0.0001 39.5476
#
#
#
# Elastic Compliance Matrix: (Units=1/GPa)
#
#
# Indices 1 2 3 4 5 6 
#
# 1 0.007002 -0.004404 -0.002977 0.000001 0.000291 0.000000
# 2 -0.004404 0.014130 0.001435 -0.000001 0.001433 0.000000
# 3 -0.002977 0.001435 0.011792 -0.000002 -0.004619 0.000000
# 4 0.000001 -0.000001 -0.000002 0.036005 0.000000 0.002232
# 5 0.000291 0.001433 -0.004619 0.000000 0.021113 0.000000
# 6 0.000000 0.000000 0.000000 0.002232 0.000000 0.025424
#
#
# Mechanical properties :
#
#
# Convention : Reuss Voigt Hill
#
# Bulk Modulus (GPa) = 47.54454 65.95611 56.75033
# Shear Modulus (GPa) = 37.21074 43.28648 40.24861
#
# Velocity S-wave (km/s) = 3.76848 4.06451 3.91929
# Velocity P-wave (km/s) = 6.08938 6.87016 6.49152
#
# Compressibility (1/GPa) = 0.02103291
#
# Stress axis : x y z
#
# Youngs Moduli (GPa) = 142.81259 70.76984 84.80231
#
# Poissons Ratio (x) = 0.31165 0.25244
# Poissons Ratio (y) = 0.62890 -0.12166
# Poissons Ratio (z) = 0.42513 -0.10153
#
# Static dielectric constant tensor:
#      x y z
#    x 2.049790 0.000000 0.001650 
#    y 0.000000 3.486370 0.000000 
#    z 0.001650 0.000000 1.449930 
# 
# From -- ./inp_files/277319.got.cif
#   From: 2010.05.17/outbox.cif.g08.bks.cpg/sg15_139_cif.got.tgz:277319.got - 2010.06.03 18:47:42.
