data_PCOD9300518
_publ_section_title
;
Structure prediction by ZEFSAII (Michael W. Deem and Ramdas Pophale) SiO2 
 PCOD9300518
Probable space group: C 2/C
;
_chemical_formula_sum "Si O2"
_cell_formula_units_Z 52
_cell_length_a 24.422717
_cell_length_b 14.036915
_cell_length_c 9.746280
_cell_angle_alpha 90.000000
_cell_angle_beta 132.306759
_cell_angle_gamma 90.000000
_cell_volume 2471.001841
_symmetry_space_group_name_H-M "C 2/C"
_symmetry_group_IT_number 15
_symmetry_cell_setting 'monoclinic'
loop_
_space_group_symop_operation_xyz
x,y,z
-x,y,1/2-z
-x,-y,-z
x,-y,1/2+z
1/2+x,1/2+y,z
1/2-x,1/2+y,1/2-z
1/2-x,1/2-y,-z
1/2+x,1/2-y,1/2+z
loop_
_atom_site_type_symbol
_atom_site_label
_atom_site_fract_x
_atom_site_fract_y
_atom_site_fract_z
Si Si1 0.000000 0.183914 0.750000
Si Si2 0.916529 0.099910 0.841816
Si Si3 0.583648 0.128691 0.400460
Si Si4 0.752222 0.846779 0.679714
Si Si5 0.211295 0.625498 0.810202
Si Si6 0.851403 0.001724 0.972499
Si Si7 0.173653 0.705363 0.312274
O O1 0.012881 0.124646 0.633552
O O2 0.066310 0.257960 0.889376
O O3 0.872484 0.032352 0.660320
O O4 0.877872 0.202587 0.795920
O O5 0.914634 0.051614 0.987340
O O6 0.500000 0.087000 0.250000
O O7 0.635172 0.094447 0.610479
O O8 0.633735 0.132170 0.348326
O O9 0.776974 0.737964 0.697561
O O10 0.715974 0.887113 0.480761
O O11 0.821406 0.909719 0.842357
O O12 0.694604 0.845282 0.707018
O O13 0.281464 0.572187 0.863352
O O14 0.250000 0.750000 0.500000
#
# Coordination Sequence:
#
# PCOD9300518 Si02
#       7
#     4   8   8   8   8   8   8
#     4   8  20  38  60  82 122 172 206 236 298 386
#     4  11  21  36  56  89 124 162 205 245 305 374
#     4   9  19  36  62  87 117 162 202 247 298 375
#     4  11  22  35  60  92 121 153 201 270 307 348
#     4  11  22  37  57  93 124 154 202 263 310 350
#     4  12  22  36  60  93 124 156 205 264 308 358
#     4  11  17  35  62  85 112 163 211 246 297 360
#
# _framework density 21.044096
#
# number of rings (size 3 to 8) (size 9 to 14) (size 15 to 20)
#    0.462    0.923    6.154    0.923    0.000    0.615 
#    0.000    0.769    0.000    3.692    0.000    0.000 
#    0.000    0.000    0.000    0.000    0.000    0.000 
#
# Total GULP energy -145062.582309 kJ/mol
# GULP energy per Si atom -5579.330089 kJ/mol
# Density = 2.099620 g / cm^3
# Si number density = 21.044096 Si / 1000 Ang^3
#
#
#
# Elastic Constant Matrix: (Units=GPa)
#
#
# Indices 1 2 3 4 5 6 
#
# 1 98.5258 -8.9031 18.4250 0.0000 -21.6535 0.0000
# 2 -8.9031 39.8898 -15.5766 0.0000 -6.3040 0.0000
# 3 18.4250 -15.5766 56.2711 0.0000 -12.3975 0.0000
# 4 0.0000 0.0000 0.0000 21.2291 0.0000 1.4130
# 5 -21.6535 -6.3040 -12.3975 0.0000 24.0609 0.0000
# 6 0.0000 0.0000 0.0000 1.4130 0.0000 32.8968
#
#
#
# Elastic Compliance Matrix: (Units=1/GPa)
#
#
# Indices 1 2 3 4 5 6 
#
# 1 0.013609 0.005173 -0.000031 0.000000 0.013587 0.000000
# 2 0.005173 0.034085 0.012109 0.000000 0.019825 0.000000
# 3 -0.000031 0.012109 0.024621 0.000000 0.015831 0.000000
# 4 0.000000 0.000000 0.000000 0.047240 0.000000 -0.002029
# 5 0.013587 0.019825 0.015831 0.000000 0.067140 0.000000
# 6 0.000000 0.000000 0.000000 -0.002029 0.000000 0.030485
#
#
# Mechanical properties :
#
#
# Convention : Reuss Voigt Hill
#
# Bulk Modulus (GPa) = 9.36179 20.28637 14.82408
# Shear Modulus (GPa) = 22.90594 29.02010 25.96302
#
# Velocity S-wave (km/s) = 3.30278 3.71754 3.51628
# Velocity P-wave (km/s) = 4.35922 5.29978 4.85234
#
# Compressibility (1/GPa) = 0.10681723
#
# Stress axis : x y z
#
# Youngs Moduli (GPa) = 73.48202 29.33827 40.61553
#
# Poissons Ratio (x) = -0.15175 0.00125
# Poissons Ratio (y) = -0.38009 -0.49183
# Poissons Ratio (z) = 0.00226 -0.35527
#
# Static dielectric constant tensor:
#      x y z
#    x 1.797330 0.000000 0.010770 
#    y 0.000000 1.758170 0.000000 
#    z 0.010770 0.000000 1.762330 
# 
# From -- ./inp_files/61676.got.cif
#   From: 2010.05.17/outbox.cif.g08.bks.cpg/sg15_31_cif.got.tgz:61676.got - 2010.06.03 18:47:42.
