data_PCOD9300863
_publ_section_title
;
Structure prediction by ZEFSAII (Michael W. Deem and Ramdas Pophale) SiO2 
 PCOD9300863
Probable space group: C 2/C
;
_chemical_formula_sum "Si O2"
_cell_formula_units_Z 56
_cell_length_a 12.691689
_cell_length_b 17.629360
_cell_length_c 14.193592
_cell_angle_alpha 90.000000
_cell_angle_beta 115.581607
_cell_angle_gamma 90.000000
_cell_volume 2864.448046
_symmetry_space_group_name_H-M "C 2/C"
_symmetry_group_IT_number 15
_symmetry_cell_setting 'monoclinic'
loop_
_space_group_symop_operation_xyz
x,y,z
-x,y,1/2-z
-x,-y,-z
x,-y,1/2+z
1/2+x,1/2+y,z
1/2-x,1/2+y,1/2-z
1/2-x,1/2-y,-z
1/2+x,1/2-y,1/2+z
loop_
_atom_site_type_symbol
_atom_site_label
_atom_site_fract_x
_atom_site_fract_y
_atom_site_fract_z
Si Si1 0.835617 0.564542 0.177745
Si Si2 0.398506 0.465229 0.022130
Si Si3 0.942712 0.576424 0.014136
Si Si4 0.054429 0.164855 0.671338
Si Si5 0.237331 0.449101 0.214208
Si Si6 0.853290 0.323082 0.860320
Si Si7 0.634226 0.412717 0.829515
O O1 0.848102 0.484609 0.239451
O O2 0.849460 0.633665 0.256837
O O3 0.707205 0.561541 0.082928
O O4 0.913146 0.572656 0.113685
O O5 0.453762 0.391729 0.094071
O O6 0.362456 0.536314 0.074534
O O7 0.500000 0.500000 0.000000
O O8 0.830008 0.582351 0.903560
O O9 0.000000 0.500000 0.000000
O O10 0.043615 0.637789 0.040555
O O11 0.169380 0.112881 0.721382
O O12 0.101659 0.237994 0.634759
O O13 0.000000 0.190643 0.750000
O O14 0.313824 0.523733 0.220383
O O15 0.727093 0.343693 0.858045
O O16 0.500000 0.394228 0.750000
#
# Coordination Sequence:
#
# PCOD9300863 Si02
#       7
#     8   8   8   8   8   8   8
#     4  11  21  37  61  97 122 169 223 264 317 404
#     4  12  20  36  69  96 120 172 236 273 316 397
#     4  12  21  39  63  91 130 176 211 260 336 401
#     4  12  22  41  64  99 136 165 218 288 336 383
#     4  11  21  37  67  93 124 171 223 270 319 389
#     4  11  26  39  62  98 136 169 210 277 346 389
#     4  11  19  42  66  92 124 177 224 272 319 395
#
# _framework density 19.550014000000001
#
# number of rings (size 3 to 8) (size 9 to 14) (size 15 to 20)
#    0.000    0.571    8.571    2.143    0.000    1.143 
#    0.000    3.571    3.143    0.000    0.000    0.000 
#    0.000    0.000    0.000    0.000    0.000    0.000 
#
# Total GULP energy -156063.156389 kJ/mol
# GULP energy per Si atom -5573.684157 kJ/mol
# Density = 1.950552 g / cm^3
# Si number density = 19.550014 Si / 1000 Ang^3
#
#
#
# Elastic Constant Matrix: (Units=GPa)
#
#
# Indices 1 2 3 4 5 6 
#
# 1 92.8866 17.5209 26.0655 0.0000 13.8367 0.0000
# 2 17.5209 66.6273 -1.1930 0.0000 -2.7845 0.0000
# 3 26.0655 -1.1930 72.1555 0.0000 1.8468 0.0000
# 4 0.0000 0.0000 0.0000 10.3917 0.0000 -4.9670
# 5 13.8367 -2.7845 1.8468 0.0000 27.7756 0.0000
# 6 0.0000 0.0000 0.0000 -4.9670 0.0000 25.5543
#
#
#
# Elastic Compliance Matrix: (Units=1/GPa)
#
#
# Indices 1 2 3 4 5 6 
#
# 1 0.013962 -0.004054 -0.004931 0.000000 -0.007034 0.000000
# 2 -0.004054 0.016252 0.001643 0.000000 0.003540 0.000000
# 3 -0.004931 0.001643 0.015627 0.000000 0.001582 0.000000
# 4 0.000000 0.000000 0.000000 0.106087 0.000000 0.020620
# 5 -0.007034 0.003540 0.001582 0.000000 0.039757 0.000000
# 6 0.000000 0.000000 0.000000 0.020620 0.000000 0.043140
#
#
# Mechanical properties :
#
#
# Convention : Reuss Voigt Hill
#
# Bulk Modulus (GPa) = 32.09540 35.16180 33.62860
# Shear Modulus (GPa) = 19.23860 25.36270 22.30065
#
# Velocity S-wave (km/s) = 3.14039 3.60575 3.38109
# Velocity P-wave (km/s) = 5.44079 5.94641 5.69921
#
# Compressibility (1/GPa) = 0.03115711
#
# Stress axis : x y z
#
# Youngs Moduli (GPa) = 71.62372 61.53003 63.99280
#
# Poissons Ratio (x) = 0.24943 0.31552
# Poissons Ratio (y) = 0.29035 -0.10511
# Poissons Ratio (z) = 0.35315 -0.10106
#
# Static dielectric constant tensor:
#      x y z
#    x 1.725760 0.000000 -0.059120 
#    y 0.000000 1.688570 0.000000 
#    z -0.059120 0.000000 1.720220 
# 
# From -- ./inp_files/145736.got.cif
#   From: 2010.05.17/outbox.cif.g08.bks.cpg/sg15_73_cif.got.tgz:145736.got - 2010.06.03 18:47:42.
