data_PCOD9300288
_publ_section_title
;
Structure prediction by ZEFSAII (Michael W. Deem and Ramdas Pophale) SiO2 
 PCOD9300288
Probable space group: C 2/C
;
_chemical_formula_sum "Si O2"
_cell_formula_units_Z 52
_cell_length_a 19.478441
_cell_length_b 5.586275
_cell_length_c 24.784484
_cell_angle_alpha 90.000000
_cell_angle_beta 56.591780
_cell_angle_gamma 90.000000
_cell_volume 2251.244356
_symmetry_space_group_name_H-M "C 2/C"
_symmetry_group_IT_number 15
_symmetry_cell_setting 'monoclinic'
loop_
_space_group_symop_operation_xyz
x,y,z
-x,y,1/2-z
-x,-y,-z
x,-y,1/2+z
1/2+x,1/2+y,z
1/2-x,1/2+y,1/2-z
1/2-x,1/2-y,-z
1/2+x,1/2-y,1/2+z
loop_
_atom_site_type_symbol
_atom_site_label
_atom_site_fract_x
_atom_site_fract_y
_atom_site_fract_z
Si Si1 0.700396 0.380668 0.383553
Si Si2 0.586289 0.045341 0.492918
Si Si3 0.343367 0.453596 0.811146
Si Si4 0.500000 0.108615 0.750000
Si Si5 0.510075 0.996179 0.362990
Si Si6 0.603490 0.481530 0.326871
Si Si7 0.251179 0.260128 0.435220
O O1 0.623924 0.284153 0.451115
O O2 0.757403 0.174478 0.335221
O O3 0.669993 0.523418 0.344955
O O4 0.757302 0.508570 0.402779
O O5 0.566500 0.050717 0.564798
O O6 0.500000 0.000000 0.500000
O O7 0.661358 0.858204 0.454786
O O8 0.419550 0.275626 0.785165
O O9 0.363418 0.588493 0.746781
O O10 0.322830 0.586089 0.876043
O O11 0.506194 0.958514 0.692777
O O12 0.557537 0.738920 0.343626
O O13 0.553457 0.240532 0.365184
O O14 0.250000 0.250000 0.500000
#
# Coordination Sequence:
#
# PCOD9300288 Si02
#       7
#     8   8   8   4   8   8   8
#     4  11  26  45  72 105 148 189 249 307 379 437
#     4  11  24  46  72 105 144 190 248 308 367 445
#     4  10  27  46  69 104 145 195 246 303 373 443
#     4  10  26  48  70 102 146 192 248 300 366 452
#     4  11  26  44  76 109 145 194 247 304 368 439
#     4  11  26  46  74 108 147 193 245 307 371 437
#     4  11  28  44  73 106 149 200 244 309 376 451
#
# _framework density 23.098334999999999
#
# number of rings (size 3 to 8) (size 9 to 14) (size 15 to 20)
#    0.000    1.231    1.538    0.923   15.077    6.154 
#    0.000    0.000    0.000    0.000    0.000    0.000 
#    0.000    0.000    0.000    0.000    0.000    0.000 
#
# Total GULP energy -145095.927986 kJ/mol
# GULP energy per Si atom -5580.612615 kJ/mol
# Density = 2.304576 g / cm^3
# Si number density = 23.098335 Si / 1000 Ang^3
#
#
#
# Elastic Constant Matrix: (Units=GPa)
#
#
# Indices 1 2 3 4 5 6 
#
# 1 63.3334 8.7644 25.5184 -0.0233 8.2365 -0.0188
# 2 8.7644 62.6031 18.7680 -0.0144 -2.1966 0.0067
# 3 25.5184 18.7680 144.0013 -0.0363 10.0098 0.0074
# 4 -0.0233 -0.0144 -0.0363 30.2332 0.0147 -2.1857
# 5 8.2365 -2.1966 10.0098 0.0147 45.8845 0.0027
# 6 -0.0188 0.0067 0.0074 -2.1857 0.0027 25.1437
#
#
#
# Elastic Compliance Matrix: (Units=1/GPa)
#
#
# Indices 1 2 3 4 5 6 
#
# 1 0.017453 -0.001731 -0.002684 0.000012 -0.002630 0.000016
# 2 -0.001731 0.016870 -0.002000 0.000003 0.001555 -0.000005
# 3 -0.002684 -0.002000 0.007772 0.000007 -0.001309 -0.000003
# 4 0.000012 0.000003 0.000007 0.033285 -0.000014 0.002894
# 5 -0.002630 0.001555 -0.001309 -0.000014 0.022626 -0.000006
# 6 0.000016 -0.000005 -0.000003 0.002894 -0.000006 0.040023
#
#
# Mechanical properties :
#
#
# Convention : Reuss Voigt Hill
#
# Bulk Modulus (GPa) = 34.17178 41.78217 37.97697
# Shear Modulus (GPa) = 31.13051 34.71141 32.92096
#
# Velocity S-wave (km/s) = 3.67514 3.88076 3.77935
# Velocity P-wave (km/s) = 5.73018 6.18130 5.96001
#
# Compressibility (1/GPa) = 0.02926392
#
# Stress axis : x y z
#
# Youngs Moduli (GPa) = 57.29794 59.27635 128.67096
#
# Poissons Ratio (x) = 0.10260 0.34540
# Poissons Ratio (y) = 0.09918 0.25735
# Poissons Ratio (z) = 0.15381 0.11856
#
# Static dielectric constant tensor:
#      x y z
#    x 1.902410 0.000060 0.012330 
#    y 0.000060 1.988410 0.000020 
#    z 0.012330 0.000020 1.836380 
# 
# From -- ./inp_files/300083.got.cif
#   From: 2010.05.17/outbox.cif.g08.bks.cpg/sg15_151_cif.got.tgz:300083.got - 2010.06.03 18:47:42.
