data_PCOD9300664
_publ_section_title
;
Structure prediction by ZEFSAII (Michael W. Deem and Ramdas Pophale) SiO2 
 PCOD9300664
Probable space group: C 2/C
;
_chemical_formula_sum "Si O2"
_cell_formula_units_Z 48
_cell_length_a 22.484525
_cell_length_b 5.465935
_cell_length_c 17.979590
_cell_angle_alpha 90.000000
_cell_angle_beta 82.873312
_cell_angle_gamma 90.000000
_cell_volume 2192.601408
_symmetry_space_group_name_H-M "C 2/C"
_symmetry_group_IT_number 15
_symmetry_cell_setting 'monoclinic'
loop_
_space_group_symop_operation_xyz
x,y,z
-x,y,1/2-z
-x,-y,-z
x,-y,1/2+z
1/2+x,1/2+y,z
1/2-x,1/2+y,1/2-z
1/2-x,1/2-y,-z
1/2+x,1/2-y,1/2+z
loop_
_atom_site_type_symbol
_atom_site_label
_atom_site_fract_x
_atom_site_fract_y
_atom_site_fract_z
Si Si1 0.601995 0.451493 0.618259
Si Si2 0.843584 0.633871 0.187094
Si Si3 0.436233 0.036950 0.299103
Si Si4 0.273269 0.044164 0.439935
Si Si5 0.787133 0.914440 0.313625
Si Si6 0.650037 0.737416 0.972752
O O1 0.578116 0.710618 0.653562
O O2 0.670228 0.424801 0.640486
O O3 0.609833 0.444034 0.527846
O O4 0.566683 0.213811 0.653010
O O5 0.887959 0.515750 0.239579
O O6 0.821054 0.883105 0.230593
O O7 0.781019 0.492772 0.184894
O O8 0.873874 0.676123 0.102634
O O9 0.500000 0.064137 0.250000
O O10 0.250000 0.250000 0.500000
O O11 0.286154 0.158290 0.358134
O O12 0.332650 0.947715 0.471212
O O13 0.216326 0.866621 0.443612
#
# Coordination Sequence:
#
# PCOD9300664 Si02
#       6
#     8   8   8   8   8   8
#     4  11  23  42  69  90 126 166 208 259 320 391
#     4  11  22  35  61  95 128 162 211 266 302 377
#     4  11  26  48  67  89 121 171 216 264 320 375
#     4  11  19  34  56  86 142 175 192 240 308 401
#     4  11  20  37  59  98 130 169 201 250 323 373
#     4  11  21  35  56  96 126 171 211 252 313 374
#
# _framework density 21.891801999999998
#
# number of rings (size 3 to 8) (size 9 to 14) (size 15 to 20)
#    0.000    1.000    3.333    5.500    0.000    1.333 
#    0.000    1.667    0.000    0.000    0.000    0.000 
#    0.000    0.000    0.000    0.000    0.000    0.000 
#
# Total GULP energy -134063.368763 kJ/mol
# GULP energy per Si atom -5585.973698 kJ/mol
# Density = 2.184198 g / cm^3
# Si number density = 21.891802 Si / 1000 Ang^3
#
#
#
# Elastic Constant Matrix: (Units=GPa)
#
#
# Indices 1 2 3 4 5 6 
#
# 1 62.9630 8.5213 10.4628 0.0000 -27.4956 0.0000
# 2 8.5213 81.7600 27.1497 0.0000 -12.3582 0.0000
# 3 10.4628 27.1497 124.7847 0.0000 -14.2894 0.0000
# 4 0.0000 0.0000 0.0000 36.0169 0.0000 -8.1307
# 5 -27.4956 -12.3582 -14.2894 0.0000 25.9473 0.0000
# 6 0.0000 0.0000 0.0000 -8.1307 0.0000 24.6093
#
#
#
# Elastic Compliance Matrix: (Units=1/GPa)
#
#
# Indices 1 2 3 4 5 6 
#
# 1 0.029901 0.001554 0.000926 0.000000 0.032935 0.000000
# 2 0.001554 0.013906 -0.002357 0.000000 0.006972 0.000000
# 3 0.000926 -0.002357 0.009000 0.000000 0.004815 0.000000
# 4 0.000000 0.000000 0.000000 0.030003 0.000000 0.009913
# 5 0.032935 0.006972 0.004815 0.000000 0.079413 0.000000
# 6 0.000000 0.000000 0.000000 0.009913 0.000000 0.043910
#
#
# Mechanical properties :
#
#
# Convention : Reuss Voigt Hill
#
# Bulk Modulus (GPa) = 18.84910 40.19726 29.52318
# Shear Modulus (GPa) = 22.36436 32.20628 27.28532
#
# Velocity S-wave (km/s) = 3.19969 3.83973 3.53423
# Velocity P-wave (km/s) = 4.72012 6.16925 5.49269
#
# Compressibility (1/GPa) = 0.05305292
#
# Stress axis : x y z
#
# Youngs Moduli (GPa) = 33.44401 71.91385 111.10528
#
# Poissons Ratio (x) = -0.11177 -0.10291
# Poissons Ratio (y) = -0.05198 0.26192
# Poissons Ratio (z) = -0.03098 0.16953
#
# Static dielectric constant tensor:
#      x y z
#    x 1.782440 0.000000 -0.003240 
#    y 0.000000 1.897700 0.000000 
#    z -0.003240 0.000000 1.848340 
# 
# From -- ./inp_files/217528.got.cif
#   From: 2010.05.17/outbox.cif.g08.bks.cpg/sg15_109_cif.got.tgz:217528.got - 2010.06.03 18:47:42.
