data_PCOD9300987
_publ_section_title
;
Structure prediction by ZEFSAII (Michael W. Deem and Ramdas Pophale) SiO2 
 PCOD9300987
Probable space group: C 2/C
;
_chemical_formula_sum "Si O2"
_cell_formula_units_Z 36
_cell_length_a 14.039330
_cell_length_b 6.717207
_cell_length_c 17.373848
_cell_angle_alpha 90.000000
_cell_angle_beta 113.117601
_cell_angle_gamma 90.000000
_cell_volume 1506.876838
_symmetry_space_group_name_H-M "C 2/C"
_symmetry_group_IT_number 15
_symmetry_cell_setting 'monoclinic'
loop_
_space_group_symop_operation_xyz
x,y,z
-x,y,1/2-z
-x,-y,-z
x,-y,1/2+z
1/2+x,1/2+y,z
1/2-x,1/2+y,1/2-z
1/2-x,1/2-y,-z
1/2+x,1/2-y,1/2+z
loop_
_atom_site_type_symbol
_atom_site_label
_atom_site_fract_x
_atom_site_fract_y
_atom_site_fract_z
Si Si1 0.000000 0.961009 0.250000
Si Si2 0.829490 0.421770 0.162680
Si Si3 0.172788 0.975353 0.400431
Si Si4 0.645582 0.307516 0.547368
Si Si5 0.462694 0.834232 0.344582
O O1 0.894632 0.863945 0.187461
O O2 0.975788 0.115395 0.310721
O O3 0.727375 0.550699 0.118240
O O4 0.868363 0.421981 0.263673
O O5 0.934374 0.457700 0.144568
O O6 0.807894 0.196234 0.125196
O O7 0.283249 0.880025 0.452187
O O8 0.114471 0.932625 0.462591
O O9 0.560188 0.211011 0.574921
#
# Coordination Sequence:
#
# PCOD9300987 Si02
#       5
#     4   8   8   8   8
#     4   8  18  38  52  74 118 138 180 242 272 334
#     4   9  20  38  54  81 120 150 187 243 284 343
#     4   9  21  37  54  88 114 139 201 234 274 366
#     4  11  20  35  62  82 114 154 187 240 291 340
#     4   8  19  35  55  85 111 148 200 227 280 356
#
# _framework density 23.890471999999999
#
# number of rings (size 3 to 8) (size 9 to 14) (size 15 to 20)
#    0.000    3.556    0.000    0.667    6.222    5.333 
#    0.000    8.889    0.000    0.000    0.000    0.000 
#    0.000    0.000    0.000    0.000    0.000    0.000 
#
# Total GULP energy -100251.908824 kJ/mol
# GULP energy per Si atom -5569.550490 kJ/mol
# Density = 2.383610 g / cm^3
# Si number density = 23.890472 Si / 1000 Ang^3
#
#
#
# Elastic Constant Matrix: (Units=GPa)
#
#
# Indices 1 2 3 4 5 6 
#
# 1 39.2966 -3.7890 6.0972 0.0000 -13.3381 0.0000
# 2 -3.7890 54.2023 -8.0587 0.0000 7.3188 0.0000
# 3 6.0972 -8.0587 56.2093 0.0000 14.6186 0.0000
# 4 0.0000 0.0000 0.0000 20.8569 0.0000 10.9197
# 5 -13.3381 7.3188 14.6186 0.0000 47.2373 0.0000
# 6 0.0000 0.0000 0.0000 10.9197 0.0000 20.9324
#
#
#
# Elastic Compliance Matrix: (Units=1/GPa)
#
#
# Indices 1 2 3 4 5 6 
#
# 1 0.029846 -0.000187 -0.005942 0.000000 0.010295 0.000000
# 2 -0.000187 0.019607 0.003953 0.000000 -0.004314 0.000000
# 3 -0.005942 0.003953 0.021313 0.000000 -0.008886 0.000000
# 4 0.000000 0.000000 0.000000 0.065961 0.000000 -0.034409
# 5 0.010295 -0.004314 -0.008886 0.000000 0.027495 0.000000
# 6 0.000000 0.000000 0.000000 -0.034409 0.000000 0.065723
#
#
# Mechanical properties :
#
#
# Convention : Reuss Voigt Hill
#
# Bulk Modulus (GPa) = 15.05710 15.35637 15.20673
# Shear Modulus (GPa) = 19.49824 28.16923 23.83374
#
# Velocity S-wave (km/s) = 2.85994 3.43753 3.16195
# Velocity P-wave (km/s) = 4.14993 4.71139 4.43954
#
# Compressibility (1/GPa) = 0.06641384
#
# Stress axis : x y z
#
# Youngs Moduli (GPa) = 33.50559 51.00323 46.91968
#
# Poissons Ratio (x) = 0.00955 0.27879
# Poissons Ratio (y) = 0.00627 -0.18549
# Poissons Ratio (z) = 0.19909 -0.20163
#
# Static dielectric constant tensor:
#      x y z
#    x 2.029450 0.000000 0.016680 
#    y 0.000000 1.964520 0.000000 
#    z 0.016680 0.000000 1.945750 
# 
# From -- ./inp_files/150161.got.cif
#   From: 2010.05.17/outbox.cif.g08.bks.cpg/sg15_76_cif.got.tgz:150161.got - 2010.06.03 18:47:42.
