data_PCOD9300384
_publ_section_title
;
Structure prediction by ZEFSAII (Michael W. Deem and Ramdas Pophale) SiO2 
 PCOD9300384
Probable space group: C 2/C
;
_chemical_formula_sum "Si O2"
_cell_formula_units_Z 20
_cell_length_a 5.219435
_cell_length_b 26.299962
_cell_length_c 5.642018
_cell_angle_alpha 90.000000
_cell_angle_beta 91.009036
_cell_angle_gamma 90.000000
_cell_volume 774.365027
_symmetry_space_group_name_H-M "C 2/C"
_symmetry_group_IT_number 15
_symmetry_cell_setting 'monoclinic'
loop_
_space_group_symop_operation_xyz
x,y,z
-x,y,1/2-z
-x,-y,-z
x,-y,1/2+z
1/2+x,1/2+y,z
1/2-x,1/2+y,1/2-z
1/2-x,1/2-y,-z
1/2+x,1/2-y,1/2+z
loop_
_atom_site_type_symbol
_atom_site_label
_atom_site_fract_x
_atom_site_fract_y
_atom_site_fract_z
Si Si1 0.604852 0.058046 0.002977
Si Si2 0.000000 0.113351 0.750000
Si Si3 0.253197 0.307912 0.910443
O O1 0.500000 0.076552 0.750000
O O2 0.897469 0.075242 0.957619
O O3 0.500000 0.078147 0.250000
O O4 0.500000 0.000000 0.000000
O O5 0.802676 0.153154 0.625481
O O6 0.500000 0.314470 0.750000
O O7 0.000000 0.315319 0.750000
O O8 0.250000 0.250000 0.000000
#
# Coordination Sequence:
#
# PCOD9300384 Si02
#       3
#     8   4   8
#     4  10  26  50  80 119 171 224 299 363 441 514
#     4  12  30  46  86 122 174 232 296 356 452 528
#     4  12  29  52  83 123 177 228 294 365 442 528
#
# _framework density 25.827615000000002
#
# number of rings (size 3 to 8) (size 9 to 14) (size 15 to 20)
#    0.000    0.800    2.000    1.200   11.200    6.400 
#    0.000    0.000    0.000    2.400    0.000    0.000 
#    0.000    0.000    0.000    0.000    0.000    0.000 
#
# Total GULP energy -55832.379887 kJ/mol
# GULP energy per Si atom -5583.237989 kJ/mol
# Density = 2.576883 g / cm^3
# Si number density = 25.827615 Si / 1000 Ang^3
#
#
#
# Elastic Constant Matrix: (Units=GPa)
#
#
# Indices 1 2 3 4 5 6 
#
# 1 165.4361 78.7131 78.9130 0.0000 11.4025 0.0000
# 2 78.7131 255.0255 73.9035 0.0000 -11.1578 0.0000
# 3 78.9130 73.9035 217.4209 0.0000 -11.5984 0.0000
# 4 0.0000 0.0000 0.0000 49.1066 0.0000 -25.8681
# 5 11.4025 -11.1578 -11.5984 0.0000 70.7376 0.0000
# 6 0.0000 0.0000 0.0000 -25.8681 0.0000 39.9904
#
#
#
# Elastic Compliance Matrix: (Units=1/GPa)
#
#
# Indices 1 2 3 4 5 6 
#
# 1 0.008276 -0.001932 -0.002456 0.000000 -0.002042 0.000000
# 2 -0.001932 0.004815 -0.000886 0.000000 0.000926 0.000000
# 3 -0.002456 -0.000886 0.005857 0.000000 0.001216 0.000000
# 4 0.000000 0.000000 0.000000 0.030889 0.000000 0.019981
# 5 -0.002042 0.000926 0.001216 0.000000 0.014811 0.000000
# 6 0.000000 0.000000 0.000000 0.019981 0.000000 0.037931
#
#
# Mechanical properties :
#
#
# Convention : Reuss Voigt Hill
#
# Bulk Modulus (GPa) = 119.05218 122.32684 120.68951
# Shear Modulus (GPa) = 43.13061 59.05712 51.09387
#
# Velocity S-wave (km/s) = 4.09093 4.78702 4.45259
# Velocity P-wave (km/s) = 8.27703 8.83287 8.55946
#
# Compressibility (1/GPa) = 0.00839968
#
# Stress axis : x y z
#
# Youngs Moduli (GPa) = 120.83023 207.69620 170.74089
#
# Poissons Ratio (x) = 0.40127 0.41934
# Poissons Ratio (y) = 0.23344 0.15127
# Poissons Ratio (z) = 0.29676 0.18401
#
# Static dielectric constant tensor:
#      x y z
#    x 1.859690 0.000000 -0.179830 
#    y 0.000000 2.223640 0.000000 
#    z -0.179830 0.000000 2.046380 
# 
# From -- ./inp_files/554.got.cif
#   From: 2010.05.17/outbox.cif.g08.bks.cpg/sg15_1_cif.got.tgz:554.got - 2010.06.03 18:47:42.
