data_PCOD9300713
_publ_section_title
;
Structure prediction by ZEFSAII (Michael W. Deem and Ramdas Pophale) SiO2 
 PCOD9300713
Probable space group: C 2/C
;
_chemical_formula_sum "Si O2"
_cell_formula_units_Z 48
_cell_length_a 10.254859
_cell_length_b 26.251489
_cell_length_c 11.131022
_cell_angle_alpha 90.000000
_cell_angle_beta 119.800961
_cell_angle_gamma 90.000000
_cell_volume 2600.260513
_symmetry_space_group_name_H-M "C 2/C"
_symmetry_group_IT_number 15
_symmetry_cell_setting 'monoclinic'
loop_
_space_group_symop_operation_xyz
x,y,z
-x,y,1/2-z
-x,-y,-z
x,-y,1/2+z
1/2+x,1/2+y,z
1/2-x,1/2+y,1/2-z
1/2-x,1/2-y,-z
1/2+x,1/2-y,1/2+z
loop_
_atom_site_type_symbol
_atom_site_label
_atom_site_fract_x
_atom_site_fract_y
_atom_site_fract_z
Si Si1 0.819623 0.703901 0.182522
Si Si2 0.157796 0.910346 0.263442
Si Si3 0.408589 0.961765 0.543768
Si Si4 0.165173 0.562674 0.880320
Si Si5 0.896429 0.371673 0.917729
Si Si6 0.304757 0.187076 0.901270
O O1 0.804080 0.663804 0.283946
O O2 0.726684 0.755815 0.156210
O O3 0.000000 0.714772 0.250000
O O4 0.772892 0.683741 0.029878
O O5 0.279838 0.936777 0.405113
O O6 0.200155 0.926572 0.148929
O O7 0.190757 0.850378 0.283832
O O8 0.000000 0.922579 0.250000
O O9 0.518218 0.914882 0.622355
O O10 0.500000 0.000000 0.500000
O O11 0.342872 0.001355 0.608390
O O12 0.000000 0.576738 0.750000
O O13 0.178956 0.595847 0.009033
O O14 0.026434 0.335168 0.034116
#
# Coordination Sequence:
#
# PCOD9300713 Si02
#       6
#     8   8   8   8   8   8
#     4   9  17  30  52  82 113 144 193 237 274 336
#     4  11  22  36  56  84 115 149 184 238 299 339
#     4   9  18  34  55  85 106 150 190 230 281 338
#     4  11  19  36  60  80 114 148 195 241 278 349
#     4   9  18  33  55  86 106 148 197 238 275 333
#     4   9  17  32  52  80 114 150 183 230 285 337
#
# _framework density 18.459688
#
# number of rings (size 3 to 8) (size 9 to 14) (size 15 to 20)
#    0.000    2.333    5.000    0.500    0.000    4.000 
#    0.000    0.833    0.000    0.000    0.000    0.000 
#    0.000    0.000    0.000    0.000    0.000    0.000 
#
# Total GULP energy -133630.624445 kJ/mol
# GULP energy per Si atom -5567.942685 kJ/mol
# Density = 1.841767 g / cm^3
# Si number density = 18.459688 Si / 1000 Ang^3
#
#
#
# Elastic Constant Matrix: (Units=GPa)
#
#
# Indices 1 2 3 4 5 6 
#
# 1 81.5563 30.9148 22.4823 0.0000 -25.0812 0.0000
# 2 30.9148 124.1915 41.3963 0.0000 -18.4849 0.0000
# 3 22.4823 41.3963 61.8484 0.0000 -22.4673 0.0000
# 4 0.0000 0.0000 0.0000 33.4974 0.0000 -4.5318
# 5 -25.0812 -18.4849 -22.4673 0.0000 19.3988 0.0000
# 6 0.0000 0.0000 0.0000 -4.5318 0.0000 17.0581
#
#
#
# Elastic Compliance Matrix: (Units=1/GPa)
#
#
# Indices 1 2 3 4 5 6 
#
# 1 0.021400 -0.002395 0.005258 0.000000 0.031476 0.000000
# 2 -0.002395 0.010747 -0.006435 0.000000 -0.000308 0.000000
# 3 0.005258 -0.006435 0.032465 0.000000 0.038267 0.000000
# 4 0.000000 0.000000 0.000000 0.030966 0.000000 0.008227
# 5 0.031476 -0.000308 0.038267 0.000000 0.136273 0.000000
# 6 0.000000 0.000000 0.000000 0.008227 0.000000 0.060809
#
#
# Mechanical properties :
#
#
# Convention : Reuss Voigt Hill
#
# Bulk Modulus (GPa) = 17.40049 50.79811 34.09930
# Shear Modulus (GPa) = 15.67599 25.51104 20.59351
#
# Velocity S-wave (km/s) = 2.91727 3.72154 3.34367
# Velocity P-wave (km/s) = 4.56004 6.78562 5.78094
#
# Compressibility (1/GPa) = 0.05746963
#
# Stress axis : x y z
#
# Youngs Moduli (GPa) = 46.72967 93.04740 30.80228
#
# Poissons Ratio (x) = 0.22282 -0.16196
# Poissons Ratio (y) = 0.11190 0.19820
# Poissons Ratio (z) = -0.24571 0.59872
#
# Static dielectric constant tensor:
#      x y z
#    x 1.653410 0.000000 -0.013250 
#    y 0.000000 1.719110 0.000000 
#    z -0.013250 0.000000 1.678440 
# 
# From -- ./inp_files/90476.got.cif
#   From: 2010.05.17/outbox.cif.g08.bks.cpg/sg15_46_cif.got.tgz:90476.got - 2010.06.03 18:47:42.
