data_PCOD9300991
_publ_section_title
;
Structure prediction by ZEFSAII (Michael W. Deem and Ramdas Pophale) SiO2 
 PCOD9300991
Probable space group: C 2/C
;
_chemical_formula_sum "Si O2"
_cell_formula_units_Z 48
_cell_length_a 11.675725
_cell_length_b 23.939540
_cell_length_c 8.611567
_cell_angle_alpha 90.000000
_cell_angle_beta 86.810894
_cell_angle_gamma 90.000000
_cell_volume 2403.304260
_symmetry_space_group_name_H-M "C 2/C"
_symmetry_group_IT_number 15
_symmetry_cell_setting 'monoclinic'
loop_
_space_group_symop_operation_xyz
x,y,z
-x,y,1/2-z
-x,-y,-z
x,-y,1/2+z
1/2+x,1/2+y,z
1/2-x,1/2+y,1/2-z
1/2-x,1/2-y,-z
1/2+x,1/2-y,1/2+z
loop_
_atom_site_type_symbol
_atom_site_label
_atom_site_fract_x
_atom_site_fract_y
_atom_site_fract_z
Si Si1 0.087220 0.985152 0.631878
Si Si2 0.615218 0.203553 0.349937
Si Si3 0.175047 0.229899 0.359958
Si Si4 0.031932 0.180690 0.929614
Si Si5 0.118787 0.344795 0.181969
Si Si6 0.174989 0.924517 0.372226
O O1 0.194152 0.960625 0.527268
O O2 0.000000 0.950657 0.750000
O O3 0.129002 0.036739 0.735655
O O4 0.000000 0.000000 0.500000
O O5 0.500000 0.199554 0.250000
O O6 0.733823 0.195528 0.249373
O O7 0.617572 0.266584 0.420893
O O8 0.607849 0.164970 0.499227
O O9 0.250000 0.250000 0.500000
O O10 0.136270 0.285452 0.269812
O O11 0.068393 0.196776 0.442947
O O12 0.085394 0.120606 0.948289
O O13 0.000000 0.178811 0.750000
O O14 0.223075 0.386676 0.199661
O O15 0.000000 0.369177 0.250000
#
# Coordination Sequence:
#
# PCOD9300991 Si02
#       6
#     8   8   8   8   8   8
#     4   9  20  41  66  90 121 150 211 273 319 375
#     4  11  22  39  56  89 138 173 215 256 308 398
#     4  12  21  35  59  91 134 174 214 252 302 397
#     4  11  20  35  62  93 129 174 205 249 326 378
#     4  12  24  40  62  92 133 174 208 262 319 386
#     4  11  23  41  66  92 124 166 212 271 332 369
#
# _framework density 19.972504000000001
#
# number of rings (size 3 to 8) (size 9 to 14) (size 15 to 20)
#    0.000    1.000    6.667    2.000    0.000    1.333 
#    0.000    5.833    0.000    0.000    0.000    0.000 
#    0.000    0.000    0.000    0.000    0.000    0.000 
#
# Total GULP energy -133751.473775 kJ/mol
# GULP energy per Si atom -5572.978074 kJ/mol
# Density = 1.992705 g / cm^3
# Si number density = 19.972504 Si / 1000 Ang^3
#
#
#
# Elastic Constant Matrix: (Units=GPa)
#
#
# Indices 1 2 3 4 5 6 
#
# 1 98.0953 46.4985 60.0088 0.0000 -31.9304 0.0000
# 2 46.4985 73.2203 44.4303 0.0000 -8.5625 0.0000
# 3 60.0088 44.4303 142.7191 0.0000 -23.7629 0.0000
# 4 0.0000 0.0000 0.0000 23.3678 0.0000 19.4576
# 5 -31.9304 -8.5625 -23.7629 0.0000 48.4367 0.0000
# 6 0.0000 0.0000 0.0000 19.4576 0.0000 -39.6532
#
#
#
# Elastic Compliance Matrix: (Units=1/GPa)
#
#
# Indices 1 2 3 4 5 6 
#
# 1 0.020186 -0.009264 -0.003986 0.000000 0.009714 0.000000
# 2 -0.009264 0.021099 -0.003342 0.000000 -0.004017 0.000000
# 3 -0.003986 -0.003342 0.010004 0.000000 0.001690 0.000000
# 4 0.000000 0.000000 0.000000 0.030381 0.000000 0.014908
# 5 0.009714 -0.004017 0.001690 0.000000 0.027168 0.000000
# 6 0.000000 0.000000 0.000000 0.014908 0.000000 -0.017904
#
#
# Mechanical properties :
#
#
# Convention : Reuss Voigt Hill
#
# Bulk Modulus (GPa) = 55.23419 68.43442 61.83430
# Shear Modulus (GPa) = 38.41622 17.30340 27.85981
#
# Velocity S-wave (km/s) = 4.39048 2.94659 3.73890
# Velocity P-wave (km/s) = 7.30869 6.77608 7.04742
#
# Compressibility (1/GPa) = 0.01810473
#
# Stress axis : x y z
#
# Youngs Moduli (GPa) = 49.53971 47.39609 99.95533
#
# Poissons Ratio (x) = 0.43909 0.39843
# Poissons Ratio (y) = 0.45895 0.33403
# Poissons Ratio (z) = 0.19747 0.15839
#
# Static dielectric constant tensor:
#      x y z
#    x 1.790160 0.000000 -0.022710 
#    y 0.000000 1.772310 0.000000 
#    z -0.022710 0.000000 1.650720 
# 
# From -- ./inp_files/31929.got.cif
#   From: 2010.05.17/outbox.cif.g08.bks.cpg/sg15_16_cif.got.tgz:31929.got - 2010.06.03 18:47:42.
