data_PCOD9300496
_publ_section_title
;
Structure prediction by ZEFSAII (Michael W. Deem and Ramdas Pophale) SiO2 
 PCOD9300496
Probable space group: C 2/C
;
_chemical_formula_sum "Si O2"
_cell_formula_units_Z 44
_cell_length_a 35.299263
_cell_length_b 8.638811
_cell_length_c 12.461820
_cell_angle_alpha 90.000000
_cell_angle_beta 28.271772
_cell_angle_gamma 90.000000
_cell_volume 1799.959067
_symmetry_space_group_name_H-M "C 2/C"
_symmetry_group_IT_number 15
_symmetry_cell_setting 'monoclinic'
loop_
_space_group_symop_operation_xyz
x,y,z
-x,y,1/2-z
-x,-y,-z
x,-y,1/2+z
1/2+x,1/2+y,z
1/2-x,1/2+y,1/2-z
1/2-x,1/2-y,-z
1/2+x,1/2-y,1/2+z
loop_
_atom_site_type_symbol
_atom_site_label
_atom_site_fract_x
_atom_site_fract_y
_atom_site_fract_z
Si Si1 0.000000 0.364243 0.750000
Si Si2 0.317722 0.745708 0.460939
Si Si3 0.588843 0.677670 0.062406
Si Si4 0.173720 0.563026 0.768129
Si Si5 0.326712 0.594968 0.864068
Si Si6 0.544497 0.384912 0.304620
O O1 0.084337 0.453031 0.533056
O O2 0.000759 0.253893 0.853464
O O3 0.367415 0.759177 0.445950
O O4 0.223685 0.698383 0.706449
O O5 0.326360 0.884606 0.356385
O O6 0.346884 0.589207 0.327161
O O7 0.500000 0.734349 0.250000
O O8 0.574678 0.502803 0.139775
O O9 0.643681 0.653299 0.822748
O O10 0.233174 0.416971 0.623073
O O11 0.379856 0.680620 0.819276
O O12 0.500000 0.500000 0.500000
#
# Coordination Sequence:
#
# PCOD9300496 Si02
#       6
#     4   8   8   8   8   8
#     4  12  20  30  56  80 104 138 178 204 264 300
#     4   8  18  30  44  72 105 138 164 212 264 303
#     4  11  17  25  49  76 104 136 166 209 261 308
#     4   9  19  33  47  73 110 138 170 215 254 310
#     4   9  18  30  44  72 109 133 171 205 261 299
#     4  11  18  26  44  83 103 130 168 217 249 312
#
# _framework density 24.444998999999999
#
# number of rings (size 3 to 8) (size 9 to 14) (size 15 to 20)
#    1.091    1.091    2.727    3.273    0.000    0.000 
#    0.000    0.000    0.000    2.182    0.000    0.000 
#    0.000    0.000    0.000    0.000    0.000    0.000 
#
# Total GULP energy -122756.184688 kJ/mol
# GULP energy per Si atom -5579.826577 kJ/mol
# Density = 2.438936 g / cm^3
# Si number density = 24.444999 Si / 1000 Ang^3
#
#
#
# Elastic Constant Matrix: (Units=GPa)
#
#
# Indices 1 2 3 4 5 6 
#
# 1 187.9144 38.2776 68.4895 0.0000 -28.2981 0.0000
# 2 38.2776 36.5572 41.7407 0.0000 -4.6012 0.0000
# 3 68.4895 41.7407 196.8910 0.0000 -26.8439 0.0000
# 4 0.0000 0.0000 0.0000 61.4890 0.0000 8.2708
# 5 -28.2981 -4.6012 -26.8439 0.0000 32.6211 0.0000
# 6 0.0000 0.0000 0.0000 8.2708 0.0000 22.7511
#
#
#
# Elastic Compliance Matrix: (Units=1/GPa)
#
#
# Indices 1 2 3 4 5 6 
#
# 1 0.007690 -0.006802 -0.000512 0.000000 0.005291 0.000000
# 2 -0.006802 0.042160 -0.007395 0.000000 -0.006040 0.000000
# 3 -0.000512 -0.007395 0.007459 0.000000 0.004651 0.000000
# 4 0.000000 0.000000 0.000000 0.017099 0.000000 -0.006216
# 5 0.005291 -0.006040 0.004651 0.000000 0.038220 0.000000
# 6 0.000000 0.000000 0.000000 -0.006216 0.000000 0.046214
#
#
# Mechanical properties :
#
#
# Convention : Reuss Voigt Hill
#
# Bulk Modulus (GPa) = 35.85339 79.81982 57.83660
# Shear Modulus (GPa) = 25.30908 41.56256 33.43582
#
# Velocity S-wave (km/s) = 3.22117 4.12788 3.70239
# Velocity P-wave (km/s) = 5.34167 7.44600 6.47983
#
# Compressibility (1/GPa) = 0.02789137
#
# Stress axis : x y z
#
# Youngs Moduli (GPa) = 130.03250 23.71899 134.06885
#
# Poissons Ratio (x) = 0.16134 0.06861
# Poissons Ratio (y) = 0.88449 0.99147
# Poissons Ratio (z) = 0.06655 0.17541
#
# Static dielectric constant tensor:
#      x y z
#    x 1.986880 0.000000 -0.055280 
#    y 0.000000 2.286860 0.000000 
#    z -0.055280 0.000000 2.068860 
# 
# From -- ./inp_files/126690.got.cif
#   From: 2010.05.17/outbox.cif.g08.bks.cpg/sg15_64_cif.got.tgz:126690.got - 2010.06.03 18:47:42.
