data_PCOD9300749
_publ_section_title
;
Structure prediction by ZEFSAII (Michael W. Deem and Ramdas Pophale) SiO2 
 PCOD9300749
Probable space group: C 2/C
;
_chemical_formula_sum "Si O2"
_cell_formula_units_Z 40
_cell_length_a 19.273521
_cell_length_b 12.257275
_cell_length_c 8.320218
_cell_angle_alpha 90.000000
_cell_angle_beta 88.743916
_cell_angle_gamma 90.000000
_cell_volume 1965.103031
_symmetry_space_group_name_H-M "C 2/C"
_symmetry_group_IT_number 15
_symmetry_cell_setting 'monoclinic'
loop_
_space_group_symop_operation_xyz
x,y,z
-x,y,1/2-z
-x,-y,-z
x,-y,1/2+z
1/2+x,1/2+y,z
1/2-x,1/2+y,1/2-z
1/2-x,1/2-y,-z
1/2+x,1/2-y,1/2+z
loop_
_atom_site_type_symbol
_atom_site_label
_atom_site_fract_x
_atom_site_fract_y
_atom_site_fract_z
Si Si1 0.920037 0.111936 0.241924
Si Si2 0.822410 0.335620 0.807972
Si Si3 0.699477 0.953351 0.367794
Si Si4 0.698043 0.756150 0.152800
Si Si5 0.362147 0.398105 0.386094
O O1 0.872076 0.188549 0.356565
O O2 0.000000 0.142544 0.250000
O O3 0.908606 0.987608 0.296479
O O4 0.891678 0.120104 0.062238
O O5 0.829730 0.427278 0.670757
O O6 0.741887 0.299721 0.795518
O O7 0.860433 0.219687 0.799240
O O8 0.833368 0.393911 0.977542
O O9 0.686621 0.878776 0.211779
O O10 0.783401 0.948766 0.389384
O O11 0.750000 0.750000 0.000000
#
# Coordination Sequence:
#
# PCOD9300749 Si02
#       5
#     8   8   8   8   8
#     4  12  25  43  65  93 139 178 213 264 328 399
#     4  11  21  37  64  91 132 166 216 285 327 378
#     4  11  19  37  62  90 131 163 214 287 330 370
#     4  11  22  37  63  97 129 169 219 271 329 384
#     4  11  22  41  59  95 134 169 220 264 325 393
#
# _framework density 20.355167000000002
#
# number of rings (size 3 to 8) (size 9 to 14) (size 15 to 20)
#    0.000    0.800    6.000    3.000    5.600    0.000 
#    0.000    0.000    0.000    2.400    0.000    0.000 
#    0.000    0.000    0.000    0.000    0.000    0.000 
#
# Total GULP energy -111713.539414 kJ/mol
# GULP energy per Si atom -5585.676971 kJ/mol
# Density = 2.030884 g / cm^3
# Si number density = 20.355167 Si / 1000 Ang^3
#
#
#
# Elastic Constant Matrix: (Units=GPa)
#
#
# Indices 1 2 3 4 5 6 
#
# 1 97.7557 55.9346 40.4761 0.0000 -8.0505 0.0000
# 2 55.9346 85.2365 36.2981 0.0000 0.1984 0.0000
# 3 40.4761 36.2981 87.3031 0.0000 10.5699 0.0000
# 4 0.0000 0.0000 0.0000 39.6705 0.0000 -5.9088
# 5 -8.0505 0.1984 10.5699 0.0000 17.1301 0.0000
# 6 0.0000 0.0000 0.0000 -5.9088 0.0000 18.9582
#
#
#
# Elastic Compliance Matrix: (Units=1/GPa)
#
#
# Indices 1 2 3 4 5 6 
#
# 1 0.020012 -0.010342 -0.006626 0.000000 0.013613 0.000000
# 2 -0.010342 0.019831 -0.003063 0.000000 -0.003200 0.000000
# 3 -0.006626 -0.003063 0.017478 0.000000 -0.013863 0.000000
# 4 0.000000 0.000000 0.000000 0.026435 0.000000 0.008239
# 5 0.013613 -0.003200 -0.013863 0.000000 0.073366 0.000000
# 6 0.000000 0.000000 0.000000 0.008239 0.000000 0.055316
#
#
# Mechanical properties :
#
#
# Convention : Reuss Voigt Hill
#
# Bulk Modulus (GPa) = 57.94201 59.52364 58.73283
# Shear Modulus (GPa) = 19.36092 24.32419 21.84255
#
# Velocity S-wave (km/s) = 3.08743 3.46061 3.27933
# Velocity P-wave (km/s) = 6.42160 6.72858 6.57688
#
# Compressibility (1/GPa) = 0.01725863
#
# Stress axis : x y z
#
# Youngs Moduli (GPa) = 49.96987 50.42705 57.21418
#
# Poissons Ratio (x) = 0.52153 0.37912
# Poissons Ratio (y) = 0.51681 0.17522
# Poissons Ratio (z) = 0.33111 0.15443
#
# Static dielectric constant tensor:
#      x y z
#    x 1.691050 0.000000 0.013770 
#    y 0.000000 1.803980 0.000000 
#    z 0.013770 0.000000 1.796330 
# 
# From -- ./inp_files/46051.got.cif
#   From: 2010.05.17/outbox.cif.g08.bks.cpg/sg15_24_cif.got.tgz:46051.got - 2010.06.03 18:47:42.
