data_PCOD9300364
_publ_section_title
;
Structure prediction by ZEFSAII (Michael W. Deem and Ramdas Pophale) SiO2 
 PCOD9300364
Probable space group: C 2/C
;
_chemical_formula_sum "Si O2"
_cell_formula_units_Z 32
_cell_length_a 8.789925
_cell_length_b 13.017866
_cell_length_c 12.145696
_cell_angle_alpha 90.000000
_cell_angle_beta 55.302122
_cell_angle_gamma 90.000000
_cell_volume 1142.632107
_symmetry_space_group_name_H-M "C 2/C"
_symmetry_group_IT_number 15
_symmetry_cell_setting 'monoclinic'
loop_
_space_group_symop_operation_xyz
x,y,z
-x,y,1/2-z
-x,-y,-z
x,-y,1/2+z
1/2+x,1/2+y,z
1/2-x,1/2+y,1/2-z
1/2-x,1/2-y,-z
1/2+x,1/2-y,1/2+z
loop_
_atom_site_type_symbol
_atom_site_label
_atom_site_fract_x
_atom_site_fract_y
_atom_site_fract_z
Si Si1 0.698376 0.101310 0.175727
Si Si2 0.921391 0.158853 0.513709
Si Si3 0.284457 0.033073 0.090734
Si Si4 0.234363 0.688679 0.826190
O O1 0.500000 0.044670 0.250000
O O2 0.253523 0.094900 0.215790
O O3 0.665422 0.218069 0.152397
O O4 0.897019 0.087472 0.039346
O O5 0.799169 0.100315 0.472574
O O6 0.023270 0.264779 0.427347
O O7 0.200658 0.822674 0.327288
O O8 0.211626 0.918012 0.141215
O O9 0.500000 0.000000 0.000000
#
# Coordination Sequence:
#
# PCOD9300364 Si02
#       4
#     8   8   8   8
#     4  10  26  50  73 119 165 215 286 342 419 511
#     4  10  26  54  84 121 168 226 284 348 433 508
#     4  12  27  48  83 123 162 224 287 342 432 509
#     4  10  26  53  87 114 174 219 278 360 421 496
#
# _framework density 28.005514000000002
#
# number of rings (size 3 to 8) (size 9 to 14) (size 15 to 20)
#    1.500    0.000    0.000    2.250    3.500   10.000 
#    4.500    0.000    0.000    0.000    0.000    0.000 
#    0.000    0.000    0.000    0.000    0.000    0.000 
#
# Total GULP energy -89174.866698 kJ/mol
# GULP energy per Si atom -5573.429169 kJ/mol
# Density = 2.794177 g / cm^3
# Si number density = 28.005514 Si / 1000 Ang^3
#
#
#
# Elastic Constant Matrix: (Units=GPa)
#
#
# Indices 1 2 3 4 5 6 
#
# 1 148.1312 63.1587 96.5162 0.0000 -4.5777 0.0000
# 2 63.1587 90.3621 57.4997 0.0000 -13.6620 0.0000
# 3 96.5162 57.4997 207.1216 0.0000 14.3164 0.0000
# 4 0.0000 0.0000 0.0000 40.9989 0.0000 6.8507
# 5 -4.5777 -13.6620 14.3164 0.0000 66.4524 0.0000
# 6 0.0000 0.0000 0.0000 6.8507 0.0000 30.5280
#
#
#
# Elastic Compliance Matrix: (Units=1/GPa)
#
#
# Indices 1 2 3 4 5 6 
#
# 1 0.011728 -0.005613 -0.003941 0.000000 0.000503 0.000000
# 2 -0.005613 0.017044 -0.002367 0.000000 0.003627 0.000000
# 3 -0.003941 -0.002367 0.007486 0.000000 -0.002371 0.000000
# 4 0.000000 0.000000 0.000000 0.025341 0.000000 -0.005687
# 5 0.000503 0.003627 -0.002371 0.000000 0.016340 0.000000
# 6 0.000000 0.000000 0.000000 -0.005687 0.000000 0.034033
#
#
# Mechanical properties :
#
#
# Convention : Reuss Voigt Hill
#
# Bulk Modulus (GPa) = 80.54745 97.77379 89.16062
# Shear Modulus (GPa) = 35.72649 42.82521 39.27585
#
# Velocity S-wave (km/s) = 3.57556 3.91470 3.74897
# Velocity P-wave (km/s) = 6.77273 7.44455 7.11657
#
# Compressibility (1/GPa) = 0.01241504
#
# Stress axis : x y z
#
# Youngs Moduli (GPa) = 85.26902 58.67070 133.58768
#
# Poissons Ratio (x) = 0.32931 0.52653
# Poissons Ratio (y) = 0.47861 0.31619
# Poissons Ratio (z) = 0.33609 0.13887
#
# Static dielectric constant tensor:
#      x y z
#    x 2.178380 0.000000 0.281270 
#    y 0.000000 2.298760 0.000000 
#    z 0.281270 0.000000 -0.429060 
# 
# From -- ./inp_files/187533.got.cif
#   From: 2010.05.17/outbox.cif.g08.bks.cpg/sg15_94_cif.got.tgz:187533.got - 2010.06.03 18:47:42.
