data_PCOD9300454
_publ_section_title
;
Structure prediction by ZEFSAII (Michael W. Deem and Ramdas Pophale) SiO2 
 PCOD9300454
Probable space group: C 2/C
;
_chemical_formula_sum "Si O2"
_cell_formula_units_Z 36
_cell_length_a 4.997518
_cell_length_b 13.511002
_cell_length_c 22.056722
_cell_angle_alpha 90.000000
_cell_angle_beta 99.063333
_cell_angle_gamma 90.000000
_cell_volume 1470.708209
_symmetry_space_group_name_H-M "C 2/C"
_symmetry_group_IT_number 15
_symmetry_cell_setting 'monoclinic'
loop_
_space_group_symop_operation_xyz
x,y,z
-x,y,1/2-z
-x,-y,-z
x,-y,1/2+z
1/2+x,1/2+y,z
1/2-x,1/2+y,1/2-z
1/2-x,1/2-y,-z
1/2+x,1/2-y,1/2+z
loop_
_atom_site_type_symbol
_atom_site_label
_atom_site_fract_x
_atom_site_fract_y
_atom_site_fract_z
Si Si1 0.728774 0.885756 0.146552
Si Si2 0.675081 0.582750 0.402934
Si Si3 0.351731 0.165143 0.158970
Si Si4 0.001533 0.320807 0.013837
Si Si5 0.000000 0.510669 0.250000
O O1 0.857384 0.781881 0.170987
O O2 0.534010 0.857310 0.083700
O O3 0.604648 0.939818 0.200395
O O4 0.900431 0.971052 0.118896
O O5 0.392131 0.640165 0.395995
O O6 0.858936 0.633483 0.357415
O O7 0.885096 0.591648 0.466199
O O8 0.295372 0.090438 0.212532
O O9 0.250000 0.250000 0.000000
O O10 0.750000 0.250000 0.000000
#
# Coordination Sequence:
#
# PCOD9300454 Si02
#       5
#     8   8   8   8   4
#     4  11  25  46  77 102 149 194 235 303 366 425
#     4  11  24  45  72 110 140 184 238 290 373 430
#     4  11  25  47  70 101 147 182 243 302 345 439
#     4  12  23  45  75 110 147 185 236 306 370 432
#     4  10  28  46  70 108 138 198 254 288 364 436
#
# _framework density 24.478005
#
# number of rings (size 3 to 8) (size 9 to 14) (size 15 to 20)
#    0.000    0.889    4.444    0.667    0.000   16.000 
#    0.000    7.778    0.000    0.000    0.000    0.000 
#    0.000    0.000    0.000    0.000    0.000    0.000 
#
# Total GULP energy -100407.824457 kJ/mol
# GULP energy per Si atom -5578.212470 kJ/mol
# Density = 2.442229 g / cm^3
# Si number density = 24.478005 Si / 1000 Ang^3
#
#
#
# Elastic Constant Matrix: (Units=GPa)
#
#
# Indices 1 2 3 4 5 6 
#
# 1 103.6234 24.4054 2.6811 0.0000 12.1379 0.0000
# 2 24.4054 202.9403 39.6740 0.0000 1.3357 0.0000
# 3 2.6811 39.6740 140.7576 0.0000 4.7460 0.0000
# 4 0.0000 0.0000 0.0000 50.9668 0.0000 -12.1461
# 5 12.1379 1.3357 4.7460 0.0000 28.2985 0.0000
# 6 0.0000 0.0000 0.0000 -12.1461 0.0000 -22.2985
#
#
#
# Elastic Compliance Matrix: (Units=1/GPa)
#
#
# Indices 1 2 3 4 5 6 
#
# 1 0.010472 -0.001292 0.000316 0.000000 -0.004483 0.000000
# 2 -0.001292 0.005374 -0.001509 0.000000 0.000553 0.000000
# 3 0.000316 -0.001509 0.007569 0.000000 -0.001334 0.000000
# 4 0.000000 0.000000 0.000000 0.017366 0.000000 -0.009460
# 5 -0.004483 0.000553 -0.001334 0.000000 0.037458 0.000000
# 6 0.000000 0.000000 0.000000 -0.009460 0.000000 -0.039693
#
#
# Mechanical properties :
#
#
# Convention : Reuss Voigt Hill
#
# Bulk Modulus (GPa) = 54.21482 64.53806 59.37644
# Shear Modulus (GPa) = 100.67869 36.76408 68.72138
#
# Velocity S-wave (km/s) = 6.42025 3.87967 5.30431
# Velocity P-wave (km/s) = 8.78384 6.81851 7.86282
#
# Compressibility (1/GPa) = 0.01844514
#
# Stress axis : x y z
#
# Youngs Moduli (GPa) = 95.49723 186.07416 132.12410
#
# Poissons Ratio (x) = 0.24032 -0.04172
# Poissons Ratio (y) = 0.12334 0.19935
# Poissons Ratio (z) = -0.03015 0.28075
#
# Static dielectric constant tensor:
#      x y z
#    x 1.933900 0.000000 0.047240 
#    y 0.000000 2.005750 0.000000 
#    z 0.047240 0.000000 2.118970 
# 
# From -- ./inp_files/259883.got.cif
#   From: 2010.05.17/outbox.cif.g08.bks.cpg/sg15_130_cif.got.tgz:259883.got - 2010.06.03 18:47:42.
