data_PCOD9300719
_publ_section_title
;
Structure prediction by ZEFSAII (Michael W. Deem and Ramdas Pophale) SiO2 
 PCOD9300719
Probable space group: C 2/C
;
_chemical_formula_sum "Si O2"
_cell_formula_units_Z 56
_cell_length_a 25.524576
_cell_length_b 9.019432
_cell_length_c 14.376686
_cell_angle_alpha 90.000000
_cell_angle_beta 58.653164
_cell_angle_gamma 90.000000
_cell_volume 2826.647197
_symmetry_space_group_name_H-M "C 2/C"
_symmetry_group_IT_number 15
_symmetry_cell_setting 'monoclinic'
loop_
_space_group_symop_operation_xyz
x,y,z
-x,y,1/2-z
-x,-y,-z
x,-y,1/2+z
1/2+x,1/2+y,z
1/2-x,1/2+y,1/2-z
1/2-x,1/2-y,-z
1/2+x,1/2-y,1/2+z
loop_
_atom_site_type_symbol
_atom_site_label
_atom_site_fract_x
_atom_site_fract_y
_atom_site_fract_z
Si Si1 0.430766 0.505584 0.608627
Si Si2 0.371666 0.901112 0.980244
Si Si3 0.913924 0.125690 0.440203
Si Si4 0.992555 0.590008 0.867434
Si Si5 0.566478 0.662892 0.698412
Si Si6 0.118664 0.674294 0.823049
Si Si7 0.184534 0.325637 0.071752
O O1 0.500000 0.500000 0.500000
O O2 0.390596 0.567622 0.560480
O O3 0.425908 0.611941 0.702393
O O4 0.406569 0.342913 0.656511
O O5 0.383679 0.768782 0.895776
O O6 0.438688 0.974742 0.937051
O O7 0.327671 0.023812 0.975075
O O8 0.353655 0.851190 0.100356
O O9 0.965508 0.247717 0.414112
O O10 0.864294 0.209845 0.424927
O O11 0.937214 0.986102 0.360092
O O12 0.000000 0.589772 0.750000
O O13 0.058375 0.573749 0.855179
O O14 0.500000 0.738517 0.750000
O O15 0.166122 0.648960 0.695845
O O16 0.250000 0.250000 0.000000
#
# Coordination Sequence:
#
# PCOD9300719 Si02
#       7
#     8   8   8   8   8   8   8
#     4  12  21  34  65 103 137 175 209 258 335 429
#     4  11  25  38  65 104 132 166 222 279 339 392
#     4  11  21  39  64  92 129 179 222 251 340 400
#     4  11  19  36  61  95 138 177 198 262 341 417
#     4  12  21  35  60 102 144 168 208 264 332 409
#     4  12  21  41  66  94 135 172 217 270 340 401
#     4  11  27  51  68  84 129 185 235 282 324 377
#
# _framework density 19.811456
#
# number of rings (size 3 to 8) (size 9 to 14) (size 15 to 20)
#    0.000    0.571    8.571    1.286    0.000    2.286 
#    2.571    0.714    0.000    0.000    0.000    0.000 
#    0.000    0.000    0.000    0.000    0.000    0.000 
#
# Total GULP energy -156366.476816 kJ/mol
# GULP energy per Si atom -5584.517029 kJ/mol
# Density = 1.976636 g / cm^3
# Si number density = 19.811456 Si / 1000 Ang^3
#
#
#
# Elastic Constant Matrix: (Units=GPa)
#
#
# Indices 1 2 3 4 5 6 
#
# 1 47.2331 20.6749 60.3473 0.0000 8.2724 0.0000
# 2 20.6749 70.2720 30.1204 0.0000 5.8941 0.0000
# 3 60.3473 30.1204 125.8013 0.0000 31.7206 0.0000
# 4 0.0000 0.0000 0.0000 24.7304 0.0000 15.4559
# 5 8.2724 5.8941 31.7206 0.0000 36.9446 0.0000
# 6 0.0000 0.0000 0.0000 15.4559 0.0000 -2.8056
#
#
#
# Elastic Compliance Matrix: (Units=1/GPa)
#
#
# Indices 1 2 3 4 5 6 
#
# 1 0.062186 -0.005746 -0.032131 0.000000 0.014580 0.000000
# 2 -0.005746 0.016414 -0.001069 0.000000 -0.000414 0.000000
# 3 -0.032131 -0.001069 0.027774 0.000000 -0.016482 0.000000
# 4 0.000000 0.000000 0.000000 0.009101 0.000000 0.050138
# 5 0.014580 -0.000414 -0.016482 0.000000 0.038020 0.000000
# 6 0.000000 0.000000 0.000000 0.050138 0.000000 -0.080224
#
#
# Mechanical properties :
#
#
# Convention : Reuss Voigt Hill
#
# Bulk Modulus (GPa) = 35.11146 51.73239 43.42192
# Shear Modulus (GPa) = 31.12192 20.58481 25.85336
#
# Velocity S-wave (km/s) = 3.96776 3.22690 3.61636
# Velocity P-wave (km/s) = 6.22512 6.32874 6.27714
#
# Compressibility (1/GPa) = 0.02848073
#
# Stress axis : x y z
#
# Youngs Moduli (GPa) = 16.08083 60.92353 36.00443
#
# Poissons Ratio (x) = 0.35010 1.15687
# Poissons Ratio (y) = 0.09241 0.03849
# Poissons Ratio (z) = 0.51670 0.06512
#
# Static dielectric constant tensor:
#      x y z
#    x 1.723720 0.000000 -0.006920 
#    y 0.000000 1.747040 0.000000 
#    z -0.006920 0.000000 1.738880 
# 
# From -- ./inp_files/176529.got.cif
#   From: 2010.05.17/outbox.cif.g08.bks.cpg/sg15_89_cif.got.tgz:176529.got - 2010.06.03 18:47:42.
