data_PCOD9300581
_publ_section_title
;
Structure prediction by ZEFSAII (Michael W. Deem and Ramdas Pophale) SiO2 
 PCOD9300581
Probable space group: C 2/C
;
_chemical_formula_sum "Si O2"
_cell_formula_units_Z 48
_cell_length_a 14.841721
_cell_length_b 27.120342
_cell_length_c 8.030716
_cell_angle_alpha 90.000000
_cell_angle_beta 40.895272
_cell_angle_gamma 90.000000
_cell_volume 2116.224467
_symmetry_space_group_name_H-M "C 2/C"
_symmetry_group_IT_number 15
_symmetry_cell_setting 'monoclinic'
loop_
_space_group_symop_operation_xyz
x,y,z
-x,y,1/2-z
-x,-y,-z
x,-y,1/2+z
1/2+x,1/2+y,z
1/2-x,1/2+y,1/2-z
1/2-x,1/2-y,-z
1/2+x,1/2-y,1/2+z
loop_
_atom_site_type_symbol
_atom_site_label
_atom_site_fract_x
_atom_site_fract_y
_atom_site_fract_z
Si Si1 0.509753 0.859300 0.437194
Si Si2 0.160110 0.012293 0.802647
Si Si3 0.949658 0.146227 0.050204
Si Si4 0.745035 0.578196 0.371779
Si Si5 0.692644 0.608088 0.916203
Si Si6 0.091315 0.248421 0.284519
O O1 0.500000 0.865388 0.250000
O O2 0.377176 0.886771 0.694413
O O3 0.646285 0.883778 0.318832
O O4 0.534039 0.800773 0.427971
O O5 0.217989 0.045734 0.572884
O O6 0.162524 0.050142 0.954699
O O7 0.246932 0.963807 0.724669
O O8 0.000000 0.000000 0.000000
O O9 0.880316 0.113529 0.005912
O O10 0.860240 0.132300 0.339847
O O11 0.928523 0.204277 0.057571
O O12 0.103361 0.132644 0.893106
O O13 0.000000 0.235542 0.250000
O O14 0.250000 0.250000 0.000000
#
# Coordination Sequence:
#
# PCOD9300581 Si02
#       6
#     8   8   8   8   8   8
#     4  11  23  41  66 105 147 181 227 291 354 421
#     4  12  27  46  74  98 132 186 246 294 352 422
#     4  11  20  38  70 106 132 180 235 293 338 412
#     4  12  26  45  70 102 143 183 238 296 356 416
#     4  11  22  40  66  96 139 176 233 287 342 411
#     4  11  18  35  66 106 137 182 231 283 342 419
#
# _framework density 22.681902999999998
#
# number of rings (size 3 to 8) (size 9 to 14) (size 15 to 20)
#    0.000    0.667    6.667    2.500    2.333    1.333 
#    0.000    0.000    0.000    6.000    0.000    0.000 
#    0.000    0.000    0.000    0.000    0.000    0.000 
#
# Total GULP energy -134300.291542 kJ/mol
# GULP energy per Si atom -5595.845481 kJ/mol
# Density = 2.263028 g / cm^3
# Si number density = 22.681903 Si / 1000 Ang^3
#
#
#
# Elastic Constant Matrix: (Units=GPa)
#
#
# Indices 1 2 3 4 5 6 
#
# 1 101.8761 45.1258 68.6985 0.0000 -31.3430 0.0000
# 2 45.1258 197.5647 69.7621 0.0000 -23.9197 0.0000
# 3 68.6985 69.7621 116.9588 0.0000 -27.1958 0.0000
# 4 0.0000 0.0000 0.0000 34.8929 0.0000 -19.4643
# 5 -31.3430 -23.9197 -27.1958 0.0000 49.3388 0.0000
# 6 0.0000 0.0000 0.0000 -19.4643 0.0000 9.6080
#
#
#
# Elastic Compliance Matrix: (Units=1/GPa)
#
#
# Indices 1 2 3 4 5 6 
#
# 1 0.017851 -0.000162 -0.008912 0.000000 0.006349 0.000000
# 2 -0.000162 0.006471 -0.003509 0.000000 0.001100 0.000000
# 3 -0.008912 -0.003509 0.016248 0.000000 0.001593 0.000000
# 4 0.000000 0.000000 0.000000 -0.220339 0.000000 -0.446371
# 5 0.006349 0.001100 0.001593 0.000000 0.025713 0.000000
# 6 0.000000 0.000000 0.000000 -0.446371 0.000000 -0.800194
#
#
# Mechanical properties :
#
#
# Convention : Reuss Voigt Hill
#
# Bulk Modulus (GPa) = 64.91733 87.06358 75.99045
# Shear Modulus (GPa) = -5.41155 34.28885 14.43865
#
# Velocity S-wave (km/s) = -1.54629 3.89231 2.52577
# Velocity P-wave (km/s) = 5.04924 7.65951 6.48702
#
# Compressibility (1/GPa) = 0.01540421
#
# Stress axis : x y z
#
# Youngs Moduli (GPa) = 56.02068 154.54126 61.54496
#
# Poissons Ratio (x) = 0.02497 0.54851
# Poissons Ratio (y) = 0.00905 0.21595
# Poissons Ratio (z) = 0.49927 0.54226
#
# Static dielectric constant tensor:
#      x y z
#    x 1.862740 0.000000 0.091360 
#    y 0.000000 1.868360 0.000000 
#    z 0.091360 0.000000 1.809050 
# 
# From -- ./inp_files/43809.got.cif
#   From: 2010.05.17/outbox.cif.g08.bks.cpg/sg15_22_cif.got.tgz:43809.got - 2010.06.03 18:47:42.
