data_PCOD9300885
_publ_section_title
;
Structure prediction by ZEFSAII (Michael W. Deem and Ramdas Pophale) SiO2 
 PCOD9300885
Probable space group: C 2/C
;
_chemical_formula_sum "Si O2"
_cell_formula_units_Z 32
_cell_length_a 11.417707
_cell_length_b 19.958799
_cell_length_c 5.255906
_cell_angle_alpha 90.000000
_cell_angle_beta 74.307991
_cell_angle_gamma 90.000000
_cell_volume 1153.095182
_symmetry_space_group_name_H-M "C 2/C"
_symmetry_group_IT_number 15
_symmetry_cell_setting 'monoclinic'
loop_
_space_group_symop_operation_xyz
x,y,z
-x,y,1/2-z
-x,-y,-z
x,-y,1/2+z
1/2+x,1/2+y,z
1/2-x,1/2+y,1/2-z
1/2-x,1/2-y,-z
1/2+x,1/2-y,1/2+z
loop_
_atom_site_type_symbol
_atom_site_label
_atom_site_fract_x
_atom_site_fract_y
_atom_site_fract_z
Si Si1 0.819115 0.817162 0.801673
Si Si2 0.658869 0.184730 0.896246
Si Si3 0.861536 0.460937 0.004559
Si Si4 0.586553 0.437741 0.014643
O O1 0.711498 0.814518 0.651123
O O2 0.900266 0.755540 0.645333
O O3 0.875896 0.889945 0.735404
O O4 0.763264 0.814664 0.115260
O O5 0.595151 0.112463 0.930171
O O6 0.891358 0.515801 0.200989
O O7 0.712838 0.456227 0.079577
O O8 0.500000 0.394833 0.250000
O O9 0.500000 0.500000 0.000000
#
# Coordination Sequence:
#
# PCOD9300885 Si02
#       4
#     8   8   8   8
#     4   9  19  34  49  64  90 134 175 211 240 295
#     4   9  18  34  50  64  88 129 180 214 245 283
#     4  11  20  31  46  71  98 130 166 209 248 292
#     4  11  21  31  47  73 108 140 168 202 253 317
#
# _framework density 27.751391999999999
#
# number of rings (size 3 to 8) (size 9 to 14) (size 15 to 20)
#    0.000    2.000    2.500    3.000    0.000    0.000 
#    0.000    0.000    0.000    0.000    0.000    0.000 
#    0.000    2.000    0.000    0.000    0.000   21.000 
#
# Total GULP energy -89460.309411 kJ/mol
# GULP energy per Si atom -5591.269338 kJ/mol
# Density = 2.768823 g / cm^3
# Si number density = 27.751392 Si / 1000 Ang^3
#
#
#
# Elastic Constant Matrix: (Units=GPa)
#
#
# Indices 1 2 3 4 5 6 
#
# 1 84.2681 11.3048 20.1857 0.0000 32.7522 0.0000
# 2 11.3048 235.0357 43.6377 0.0000 8.8090 0.0000
# 3 20.1857 43.6377 178.1872 0.0000 -2.1760 0.0000
# 4 0.0000 0.0000 0.0000 59.9029 0.0000 -10.4774
# 5 32.7522 8.8090 -2.1760 0.0000 42.2473 0.0000
# 6 0.0000 0.0000 0.0000 -10.4774 0.0000 3.0822
#
#
#
# Elastic Compliance Matrix: (Units=1/GPa)
#
#
# Indices 1 2 3 4 5 6 
#
# 1 0.017798 0.000075 -0.002205 0.000000 -0.013927 0.000000
# 2 0.000075 0.004499 -0.001123 0.000000 -0.001054 0.000000
# 3 -0.002205 -0.001123 0.006165 0.000000 0.002261 0.000000
# 4 0.000000 0.000000 0.000000 0.041175 0.000000 0.139966
# 5 -0.013927 -0.001054 0.002261 0.000000 0.034803 0.000000
# 6 0.000000 0.000000 0.000000 0.139966 0.000000 0.800237
#
#
# Mechanical properties :
#
#
# Convention : Reuss Voigt Hill
#
# Bulk Modulus (GPa) = 45.54526 71.97193 58.75859
# Shear Modulus (GPa) = 5.44365 49.20401 27.32383
#
# Velocity S-wave (km/s) = 1.40208 4.21530 3.14123
# Velocity P-wave (km/s) = 4.36676 7.04858 5.86307
#
# Compressibility (1/GPa) = 0.02195618
#
# Stress axis : x y z
#
# Youngs Moduli (GPa) = 56.18637 222.26615 162.21858
#
# Poissons Ratio (x) = -0.01673 0.35765
# Poissons Ratio (y) = -0.00423 0.18221
# Poissons Ratio (z) = 0.12388 0.24966
#
# Static dielectric constant tensor:
#      x y z
#    x 2.375770 0.000000 -0.034210 
#    y 0.000000 2.268300 0.000000 
#    z -0.034210 0.000000 2.260290 
# 
# From -- ./inp_files/3666.got.cif
#   From: 2010.05.17/outbox.cif.g08.bks.cpg/sg15_2_cif.got.tgz:3666.got - 2010.06.03 18:47:42.
