data_PCOD9300231
_publ_section_title
;
Structure prediction by ZEFSAII (Michael W. Deem and Ramdas Pophale) SiO2 
 PCOD9300231
Probable space group: C 2/C
;
_chemical_formula_sum "Si O2"
_cell_formula_units_Z 44
_cell_length_a 13.939805
_cell_length_b 13.918952
_cell_length_c 10.427217
_cell_angle_alpha 90.000000
_cell_angle_beta 78.604752
_cell_angle_gamma 90.000000
_cell_volume 1983.285062
_symmetry_space_group_name_H-M "C 2/C"
_symmetry_group_IT_number 15
_symmetry_cell_setting 'monoclinic'
loop_
_space_group_symop_operation_xyz
x,y,z
-x,y,1/2-z
-x,-y,-z
x,-y,1/2+z
1/2+x,1/2+y,z
1/2-x,1/2+y,1/2-z
1/2-x,1/2-y,-z
1/2+x,1/2-y,1/2+z
loop_
_atom_site_type_symbol
_atom_site_label
_atom_site_fract_x
_atom_site_fract_y
_atom_site_fract_z
Si Si1 0.865559 0.844572 0.224269
Si Si2 0.569084 0.000465 0.104936
Si Si3 0.818461 0.693920 0.880221
Si Si4 0.000000 0.010478 0.250000
Si Si5 0.141938 0.708797 0.048353
Si Si6 0.984500 0.815797 0.929901
O O1 0.751025 0.833438 0.220380
O O2 0.892487 0.758790 0.311342
O O3 0.922692 0.835921 0.075510
O O4 0.905146 0.941423 0.280650
O O5 0.500000 0.001695 0.250000
O O6 0.634292 0.095845 0.073462
O O7 0.636055 0.906011 0.084852
O O8 0.500000 0.000000 0.000000
O O9 0.911110 0.764955 0.847926
O O10 0.750000 0.750000 0.000000
O O11 0.986218 0.081571 0.134117
O O12 0.250000 0.750000 0.000000
O O13 0.071191 0.746232 0.953770
#
# Coordination Sequence:
#
# PCOD9300231 Si02
#       6
#     8   8   8   4   8   8
#     4  11  25  47  71 107 146 196 243 308 371 451
#     4  12  28  50  79 109 151 207 253 314 385 454
#     4  10  26  46  76 105 152 188 251 304 377 441
#     4  12  26  40  78 100 152 186 248 300 382 436
#     4  12  28  46  77 106 151 194 258 303 375 452
#     4  11  24  47  70 107 149 194 240 314 372 442
#
# _framework density 22.185414000000002
#
# number of rings (size 3 to 8) (size 9 to 14) (size 15 to 20)
#    0.000    0.727    3.636    1.636   11.455    1.455 
#    0.000    0.000    0.000    0.000    0.000    0.000 
#    0.000    0.000    0.000    0.000    0.000    0.000 
#
# Total GULP energy -123016.617353 kJ/mol
# GULP energy per Si atom -5591.664425 kJ/mol
# Density = 2.213492 g / cm^3
# Si number density = 22.185414 Si / 1000 Ang^3
#
#
#
# Elastic Constant Matrix: (Units=GPa)
#
#
# Indices 1 2 3 4 5 6 
#
# 1 143.2631 51.2874 18.4205 0.0000 13.2242 0.0000
# 2 51.2874 180.9432 20.8651 0.0000 -1.9170 0.0000
# 3 18.4205 20.8651 89.4419 0.0000 2.8264 0.0000
# 4 0.0000 0.0000 0.0000 29.1373 0.0000 -4.1079
# 5 13.2242 -1.9170 2.8264 0.0000 46.1553 0.0000
# 6 0.0000 0.0000 0.0000 -4.1079 0.0000 46.1348
#
#
#
# Elastic Compliance Matrix: (Units=1/GPa)
#
#
# Indices 1 2 3 4 5 6 
#
# 1 0.008126 -0.002203 -0.001085 0.000000 -0.002353 0.000000
# 2 -0.002203 0.006281 -0.001042 0.000000 0.000956 0.000000
# 3 -0.001085 -0.001042 0.011661 0.000000 -0.000446 0.000000
# 4 0.000000 0.000000 0.000000 0.034757 0.000000 0.003095
# 5 -0.002353 0.000956 -0.000446 0.000000 0.022407 0.000000
# 6 0.000000 0.000000 0.000000 0.003095 0.000000 0.021951
#
#
# Mechanical properties :
#
#
# Convention : Reuss Voigt Hill
#
# Bulk Modulus (GPa) = 57.44479 66.08825 61.76652
# Shear Modulus (GPa) = 41.79013 45.82381 43.80697
#
# Velocity S-wave (km/s) = 4.34484 4.54970 4.44845
# Velocity P-wave (km/s) = 7.14979 7.57980 7.36793
#
# Compressibility (1/GPa) = 0.01740802
#
# Stress axis : x y z
#
# Youngs Moduli (GPa) = 123.06865 159.20349 85.75536
#
# Poissons Ratio (x) = 0.35072 0.09306
# Poissons Ratio (y) = 0.27111 0.08934
# Poissons Ratio (z) = 0.13355 0.16586
#
# Static dielectric constant tensor:
#      x y z
#    x 1.879510 0.000000 -0.021870 
#    y 0.000000 1.778360 0.000000 
#    z -0.021870 0.000000 1.850400 
# 
# From -- ./inp_files/95020.got.cif
#   From: 2010.05.17/outbox.cif.g08.bks.cpg/sg15_48_cif.got.tgz:95020.got - 2010.06.03 18:47:42.
