data_PCOD9300523
_publ_section_title
;
Structure prediction by ZEFSAII (Michael W. Deem and Ramdas Pophale) SiO2 
 PCOD9300523
Probable space group: C 2/C
;
_chemical_formula_sum "Si O2"
_cell_formula_units_Z 44
_cell_length_a 12.894756
_cell_length_b 18.228548
_cell_length_c 8.987983
_cell_angle_alpha 90.000000
_cell_angle_beta 83.091955
_cell_angle_gamma 90.000000
_cell_volume 2097.312624
_symmetry_space_group_name_H-M "C 2/C"
_symmetry_group_IT_number 15
_symmetry_cell_setting 'monoclinic'
loop_
_space_group_symop_operation_xyz
x,y,z
-x,y,1/2-z
-x,-y,-z
x,-y,1/2+z
1/2+x,1/2+y,z
1/2-x,1/2+y,1/2-z
1/2-x,1/2-y,-z
1/2+x,1/2-y,1/2+z
loop_
_atom_site_type_symbol
_atom_site_label
_atom_site_fract_x
_atom_site_fract_y
_atom_site_fract_z
Si Si1 0.062134 0.427505 0.946420
Si Si2 0.830560 0.817345 0.954436
Si Si3 0.231145 0.397346 0.689139
Si Si4 0.000000 0.249913 0.250000
Si Si5 0.255399 0.062370 0.843863
Si Si6 0.636642 0.150284 0.920884
O O1 0.118032 0.420177 0.778653
O O2 0.153749 0.425680 0.051034
O O3 0.000000 0.500000 0.000000
O O4 0.977427 0.365841 0.991837
O O5 0.792002 0.857459 0.809982
O O6 0.947672 0.792838 0.895731
O O7 0.750000 0.750000 0.000000
O O8 0.826196 0.875687 0.090421
O O9 0.278947 0.477540 0.644134
O O10 0.211226 0.344294 0.552007
O O11 0.100949 0.293108 0.299600
O O12 0.308511 0.083439 0.678233
#
# Coordination Sequence:
#
# PCOD9300523 Si02
#       6
#     8   8   8   4   8   8
#     4  11  18  29  52  94 130 154 188 245 322 387
#     4  11  24  46  63  90 130 170 205 255 323 382
#     4  11  23  35  62  95 127 159 208 261 310 377
#     4  12  24  42  64  84 124 178 210 254 318 372
#     4  11  20  37  60  90 131 162 198 256 319 374
#     4  12  20  33  60  91 125 160 201 254 317 376
#
# _framework density 20.979227999999999
#
# number of rings (size 3 to 8) (size 9 to 14) (size 15 to 20)
#    0.000    0.727    7.273    2.727    0.000    0.727 
#    0.000    0.909    0.000    0.000    0.000    0.000 
#    0.000    0.000    0.000    0.000    0.000    0.000 
#
# Total GULP energy -122603.490795 kJ/mol
# GULP energy per Si atom -5572.885945 kJ/mol
# Density = 2.093148 g / cm^3
# Si number density = 20.979228 Si / 1000 Ang^3
#
#
#
# Elastic Constant Matrix: (Units=GPa)
#
#
# Indices 1 2 3 4 5 6 
#
# 1 23.6009 15.3037 4.7042 0.0000 -5.9942 0.0000
# 2 15.3037 84.4311 20.3738 0.0000 -8.3351 0.0000
# 3 4.7042 20.3738 85.3497 0.0000 5.5174 0.0000
# 4 0.0000 0.0000 0.0000 39.4766 0.0000 -8.8385
# 5 -5.9942 -8.3351 5.5174 0.0000 36.6861 0.0000
# 6 0.0000 0.0000 0.0000 -8.8385 0.0000 22.3273
#
#
#
# Elastic Compliance Matrix: (Units=1/GPa)
#
#
# Indices 1 2 3 4 5 6 
#
# 1 0.049461 -0.008034 -0.001225 0.000000 0.006440 0.000000
# 2 -0.008034 0.014291 -0.003124 0.000000 0.002404 0.000000
# 3 -0.001225 -0.003124 0.012712 0.000000 -0.002822 0.000000
# 4 0.000000 0.000000 0.000000 0.027795 0.000000 0.011003
# 5 0.006440 0.002404 -0.002822 0.000000 0.029281 0.000000
# 6 0.000000 0.000000 0.000000 0.011003 0.000000 0.049144
#
#
# Mechanical properties :
#
#
# Convention : Reuss Voigt Hill
#
# Bulk Modulus (GPa) = 19.34276 30.46057 24.90167
# Shear Modulus (GPa) = 22.25366 29.89799 26.07582
#
# Velocity S-wave (km/s) = 3.26044 3.77918 3.52935
# Velocity P-wave (km/s) = 4.83880 5.79602 5.33890
#
# Compressibility (1/GPa) = 0.05169893
#
# Stress axis : x y z
#
# Youngs Moduli (GPa) = 20.21814 69.97231 78.66481
#
# Poissons Ratio (x) = 0.56214 0.09634
# Poissons Ratio (y) = 0.16243 0.24576
# Poissons Ratio (z) = 0.02476 0.21860
#
# Static dielectric constant tensor:
#      x y z
#    x 1.807110 0.000000 -0.050880 
#    y 0.000000 1.884110 0.000000 
#    z -0.050880 0.000000 1.829900 
# 
# From -- ./inp_files/39156.got.cif
#   From: 2010.05.17/outbox.cif.g08.bks.cpg/sg15_20_cif.got.tgz:39156.got - 2010.06.03 18:47:42.
