data_PCOD9300188
_publ_section_title
;
Structure prediction by ZEFSAII (Michael W. Deem and Ramdas Pophale) SiO2 
 PCOD9300188
Probable space group: C 2/C
;
_chemical_formula_sum "Si O2"
_cell_formula_units_Z 60
_cell_length_a 30.127435
_cell_length_b 10.997287
_cell_length_c 9.069649
_cell_angle_alpha 90.000000
_cell_angle_beta 64.454890
_cell_angle_gamma 90.000000
_cell_volume 2711.210197
_symmetry_space_group_name_H-M "C 2/C"
_symmetry_group_IT_number 15
_symmetry_cell_setting 'monoclinic'
loop_
_space_group_symop_operation_xyz
x,y,z
-x,y,1/2-z
-x,-y,-z
x,-y,1/2+z
1/2+x,1/2+y,z
1/2-x,1/2+y,1/2-z
1/2-x,1/2-y,-z
1/2+x,1/2-y,1/2+z
loop_
_atom_site_type_symbol
_atom_site_label
_atom_site_fract_x
_atom_site_fract_y
_atom_site_fract_z
Si Si1 0.663870 0.865738 0.234808
Si Si2 0.990030 0.164484 0.922774
Si Si3 0.357040 0.386464 0.875042
Si Si4 0.939706 0.614491 0.600868
Si Si5 0.250698 0.561210 0.396935
Si Si6 0.000000 0.497914 0.250000
Si Si7 0.240804 0.714230 0.842273
Si Si8 0.080165 0.947739 0.436985
O O1 0.642838 0.754371 0.169373
O O2 0.614841 0.936037 0.346790
O O3 0.686478 0.807133 0.351227
O O4 0.704843 0.932330 0.076940
O O5 0.000000 0.218892 0.750000
O O6 0.043254 0.151633 0.921740
O O7 0.951489 0.243199 0.068321
O O8 0.960965 0.038691 0.936277
O O9 0.299856 0.417210 0.922802
O O10 0.389347 0.477586 0.728518
O O11 0.380035 0.402300 0.003179
O O12 0.957237 0.578723 0.736195
O O13 0.974760 0.563685 0.423086
O O14 0.258093 0.428116 0.313075
O O15 0.242645 0.672834 0.289678
O O16 0.250000 0.750000 0.000000
#
# Coordination Sequence:
#
# PCOD9300188 Si02
#       8
#     8   8   8   8   8   4   8   8
#     4  11  26  45  69 104 143 188 241 300 364 445
#     4  11  22  42  65 101 142 172 228 294 355 446
#     4  11  24  41  67 101 143 183 231 290 359 443
#     4  11  24  46  70  97 136 183 234 299 359 424
#     4  11  27  48  73 107 154 192 251 309 371 442
#     4  10  26  46  68  94 130 178 238 294 354 424
#     4  11  25  47  74 105 145 196 246 307 367 436
#     4  11  24  39  67 104 138 182 225 280 371 432
#
# _framework density 22.13034
#
# number of rings (size 3 to 8) (size 9 to 14) (size 15 to 20)
#    0.000    1.067    3.333    2.400   11.200    0.000 
#    0.000    0.000    0.000    0.000    0.000    0.000 
#    0.000    0.000    0.000    0.000    0.000    0.000 
#
# Total GULP energy -167135.989444 kJ/mol
# GULP energy per Si atom -5571.199648 kJ/mol
# Density = 2.207997 g / cm^3
# Si number density = 22.130340 Si / 1000 Ang^3
#
#
#
# Elastic Constant Matrix: (Units=GPa)
#
#
# Indices 1 2 3 4 5 6 
#
# 1 134.9545 31.7005 65.9680 0.0000 7.1294 0.0000
# 2 31.7005 78.3752 30.6359 0.0000 12.8288 0.0000
# 3 65.9680 30.6359 86.7333 0.0000 9.5848 0.0000
# 4 0.0000 0.0000 0.0000 23.8528 0.0000 -4.1660
# 5 7.1294 12.8288 9.5848 0.0000 51.9145 0.0000
# 6 0.0000 0.0000 0.0000 -4.1660 0.0000 28.1078
#
#
#
# Elastic Compliance Matrix: (Units=1/GPa)
#
#
# Indices 1 2 3 4 5 6 
#
# 1 0.011947 -0.001530 -0.008582 0.000000 0.000322 0.000000
# 2 -0.001530 0.015394 -0.003957 0.000000 -0.002863 0.000000
# 3 -0.008582 -0.003957 0.019617 0.000000 -0.001465 0.000000
# 4 0.000000 0.000000 0.000000 0.043038 0.000000 0.006379
# 5 0.000322 -0.002863 -0.001465 0.000000 0.020196 0.000000
# 6 0.000000 0.000000 0.000000 0.006379 0.000000 0.036523
#
#
# Mechanical properties :
#
#
# Convention : Reuss Voigt Hill
#
# Bulk Modulus (GPa) = 53.13828 61.85242 57.49535
# Shear Modulus (GPa) = 27.60508 32.22559 29.91533
#
# Velocity S-wave (km/s) = 3.53567 3.82012 3.68064
# Velocity P-wave (km/s) = 6.38213 6.88967 6.64075
#
# Compressibility (1/GPa) = 0.01881883
#
# Stress axis : x y z
#
# Youngs Moduli (GPa) = 83.69997 64.96240 50.97743
#
# Poissons Ratio (x) = 0.09942 0.43749
# Poissons Ratio (y) = 0.12810 0.20171
# Poissons Ratio (z) = 0.71831 0.25705
#
# Static dielectric constant tensor:
#      x y z
#    x 1.736780 0.000000 0.001270 
#    y 0.000000 2.104640 0.000000 
#    z 0.001270 0.000000 1.820270 
# 
# From -- ./inp_files/69351.got.cif
#   From: 2010.05.17/outbox.cif.g08.bks.cpg/sg15_35_cif.got.tgz:69351.got - 2010.06.03 18:47:42.
