data_PCOD9300050
_publ_section_title
;
Structure prediction by ZEFSAII (Michael W. Deem and Ramdas Pophale) SiO2 
 PCOD9300050
Probable space group: C 2/C
;
_chemical_formula_sum "Si O2"
_cell_formula_units_Z 40
_cell_length_a 13.524215
_cell_length_b 13.833080
_cell_length_c 9.876254
_cell_angle_alpha 90.000000
_cell_angle_beta 52.558607
_cell_angle_gamma 90.000000
_cell_volume 1467.000871
_symmetry_space_group_name_H-M "C 2/C"
_symmetry_group_IT_number 15
_symmetry_cell_setting 'monoclinic'
loop_
_space_group_symop_operation_xyz
x,y,z
-x,y,1/2-z
-x,-y,-z
x,-y,1/2+z
1/2+x,1/2+y,z
1/2-x,1/2+y,1/2-z
1/2-x,1/2-y,-z
1/2+x,1/2-y,1/2+z
loop_
_atom_site_type_symbol
_atom_site_label
_atom_site_fract_x
_atom_site_fract_y
_atom_site_fract_z
Si Si1 0.830295 0.925546 0.149033
Si Si2 0.078764 0.599889 0.028340
Si Si3 0.000000 0.583350 0.750000
Si Si4 0.729598 0.631053 0.403748
Si Si5 0.868508 0.711777 0.044608
Si Si6 0.000000 0.111681 0.750000
O O1 0.699451 0.911124 0.333411
O O2 0.868473 0.827159 0.041784
O O3 0.807691 0.018853 0.078348
O O4 0.930763 0.943095 0.185002
O O5 0.144789 0.632771 0.113442
O O6 0.016340 0.496277 0.117565
O O7 0.987784 0.673580 0.029390
O O8 0.112054 0.657033 0.614936
O O9 0.755100 0.675727 0.234967
O O10 0.613305 0.670338 0.586310
#
# Coordination Sequence:
#
# PCOD9300050 Si02
#       6
#     8   8   4   8   8   4
#     4  11  26  45  71 116 152 197 259 315 380 458
#     4  11  23  46  76 105 147 202 257 310 376 453
#     4  12  22  46  74 110 148 206 246 318 384 446
#     4  11  23  47  71 106 152 201 246 319 387 453
#     4  12  26  43  79 115 149 194 268 319 374 452
#     4  10  26  42  74  98 158 202 244 310 396 458
#
# _framework density 27.266514000000001
#
# number of rings (size 3 to 8) (size 9 to 14) (size 15 to 20)
#    0.000    0.800    4.000    2.400    5.600    2.400 
#    0.000    4.000    0.000    0.000    0.000    0.000 
#    0.000    0.000    0.000    0.000    0.000    0.000 
#
# Total GULP energy -111939.185770 kJ/mol
# GULP energy per Si atom -5596.959289 kJ/mol
# Density = 2.720445 g / cm^3
# Si number density = 27.266514 Si / 1000 Ang^3
#
#
#
# Elastic Constant Matrix: (Units=GPa)
#
#
# Indices 1 2 3 4 5 6 
#
# 1 152.2119 50.6956 17.5919 0.0000 -6.6692 0.0000
# 2 50.6956 230.6387 30.1390 0.0000 18.2648 0.0000
# 3 17.5919 30.1390 151.2204 0.0000 2.4498 0.0000
# 4 0.0000 0.0000 0.0000 24.5412 0.0000 -3.2051
# 5 -6.6692 18.2648 2.4498 0.0000 47.4242 0.0000
# 6 0.0000 0.0000 0.0000 -3.2051 0.0000 25.4443
#
#
#
# Elastic Compliance Matrix: (Units=1/GPa)
#
#
# Indices 1 2 3 4 5 6 
#
# 1 0.007259 -0.001658 -0.000541 0.000000 0.001687 0.000000
# 2 -0.001658 0.004967 -0.000763 0.000000 -0.002107 0.000000
# 3 -0.000541 -0.000763 0.006830 0.000000 -0.000135 0.000000
# 4 0.000000 0.000000 0.000000 0.041429 0.000000 0.005219
# 5 0.001687 -0.002107 -0.000135 0.000000 0.022142 0.000000
# 6 0.000000 0.000000 0.000000 0.005219 0.000000 0.039959
#
#
# Mechanical properties :
#
#
# Convention : Reuss Voigt Hill
#
# Bulk Modulus (GPa) = 76.15822 81.21377 78.68599
# Shear Modulus (GPa) = 37.62581 48.52491 43.07536
#
# Velocity S-wave (km/s) = 3.71877 4.22317 3.97897
# Velocity P-wave (km/s) = 6.81400 7.32325 7.07321
#
# Compressibility (1/GPa) = 0.01313056
#
# Stress axis : x y z
#
# Youngs Moduli (GPa) = 137.76726 201.33560 146.41159
#
# Poissons Ratio (x) = 0.33389 0.07924
# Poissons Ratio (y) = 0.22847 0.11169
# Poissons Ratio (z) = 0.07456 0.15359
#
# Static dielectric constant tensor:
#      x y z
#    x 2.208760 0.000000 0.064950 
#    y 0.000000 2.134620 0.000000 
#    z 0.064950 0.000000 2.226670 
# 
# From -- ./inp_files/96037.got.cif
#   From: 2010.05.17/outbox.cif.g08.bks.cpg/sg15_49_cif.got.tgz:96037.got - 2010.06.03 18:47:42.
