data_PCOD9300717
_publ_section_title
;
Structure prediction by ZEFSAII (Michael W. Deem and Ramdas Pophale) SiO2 
 PCOD9300717
Probable space group: C 2/C
;
_chemical_formula_sum "Si O2"
_cell_formula_units_Z 56
_cell_length_a 12.687284
_cell_length_b 23.368668
_cell_length_c 12.013891
_cell_angle_alpha 90.000000
_cell_angle_beta 128.361150
_cell_angle_gamma 90.000000
_cell_volume 2792.966755
_symmetry_space_group_name_H-M "C 2/C"
_symmetry_group_IT_number 15
_symmetry_cell_setting 'monoclinic'
loop_
_space_group_symop_operation_xyz
x,y,z
-x,y,1/2-z
-x,-y,-z
x,-y,1/2+z
1/2+x,1/2+y,z
1/2-x,1/2+y,1/2-z
1/2-x,1/2-y,-z
1/2+x,1/2-y,1/2+z
loop_
_atom_site_type_symbol
_atom_site_label
_atom_site_fract_x
_atom_site_fract_y
_atom_site_fract_z
Si Si1 0.344614 0.458546 0.792552
Si Si2 0.273786 0.590121 0.678669
Si Si3 0.274484 0.065588 0.503507
Si Si4 0.156276 0.439465 0.869068
Si Si5 0.588903 0.738899 0.420116
Si Si6 0.422912 0.379725 0.464398
Si Si7 0.991146 0.360243 0.380263
O O1 0.308867 0.525714 0.747299
O O2 0.341882 0.437906 0.664050
O O3 0.230461 0.435040 0.800234
O O4 0.476427 0.431568 0.936862
O O5 0.239561 0.589676 0.525177
O O6 0.141556 0.617268 0.648150
O O7 0.398070 0.623572 0.815943
O O8 0.214832 0.101491 0.564730
O O9 0.392803 0.095584 0.514567
O O10 0.330302 0.006059 0.585686
O O11 0.000000 0.423891 0.750000
O O12 0.500000 0.732355 0.250000
O O13 0.750000 0.750000 0.500000
O O14 0.555648 0.682784 0.470326
O O15 0.533082 0.796435 0.440448
O O16 0.000000 0.361054 0.250000
#
# Coordination Sequence:
#
# PCOD9300717 Si02
#       7
#     8   8   8   8   8   8   8
#     4  11  23  37  58  89 126 168 203 252 312 374
#     4  11  23  39  61  88 125 168 206 258 315 374
#     4  11  20  34  60  89 126 158 196 254 313 375
#     4  11  23  39  58  86 121 162 215 252 304 378
#     4  11  22  38  63  96 134 168 207 262 327 387
#     4  12  22  39  57  94 129 161 203 255 326 380
#     4  11  19  36  61  90 125 159 202 258 313 373
#
# _framework density 20.050363999999998
#
# number of rings (size 3 to 8) (size 9 to 14) (size 15 to 20)
#    0.000    0.857    4.286    4.714    0.000    2.857 
#    0.000    0.000    0.000    0.857    3.714    0.000 
#    0.000    0.000    0.000    0.000    0.000    0.000 
#
# Total GULP energy -155906.287740 kJ/mol
# GULP energy per Si atom -5568.081705 kJ/mol
# Density = 2.000473 g / cm^3
# Si number density = 20.050364 Si / 1000 Ang^3
#
#
#
# Elastic Constant Matrix: (Units=GPa)
#
#
# Indices 1 2 3 4 5 6 
#
# 1 41.9284 17.5477 27.1570 0.0000 1.1522 0.0000
# 2 17.5477 60.2818 6.9103 0.0000 -0.4026 0.0000
# 3 27.1570 6.9103 116.8898 0.0000 -3.5992 0.0000
# 4 0.0000 0.0000 0.0000 33.7651 0.0000 5.3725
# 5 1.1522 -0.4026 -3.5992 0.0000 35.8427 0.0000
# 6 0.0000 0.0000 0.0000 5.3725 0.0000 26.4878
#
#
#
# Elastic Compliance Matrix: (Units=1/GPa)
#
#
# Indices 1 2 3 4 5 6 
#
# 1 0.031992 -0.008524 -0.006985 0.000000 -0.001826 0.000000
# 2 -0.008524 0.018973 0.000876 0.000000 0.000575 0.000000
# 3 -0.006985 0.000876 0.010165 0.000000 0.001255 0.000000
# 4 0.000000 0.000000 0.000000 0.030604 0.000000 -0.006207
# 5 -0.001826 0.000575 0.001255 0.000000 0.028091 0.000000
# 6 0.000000 0.000000 0.000000 -0.006207 0.000000 0.039012
#
#
# Mechanical properties :
#
#
# Convention : Reuss Voigt Hill
#
# Bulk Modulus (GPa) = 31.38258 35.81444 33.59851
# Shear Modulus (GPa) = 25.16048 30.38480 27.77264
#
# Velocity S-wave (km/s) = 3.54625 3.89707 3.72579
# Velocity P-wave (km/s) = 5.69681 6.17661 5.94156
#
# Compressibility (1/GPa) = 0.03186481
#
# Stress axis : x y z
#
# Youngs Moduli (GPa) = 31.25778 52.70520 98.37956
#
# Poissons Ratio (x) = 0.44927 0.68718
# Poissons Ratio (y) = 0.26645 -0.08622
# Poissons Ratio (z) = 0.21833 -0.04619
#
# Static dielectric constant tensor:
#      x y z
#    x 1.703060 0.000000 0.014740 
#    y 0.000000 1.746120 0.000000 
#    z 0.014740 0.000000 1.673490 
# 
# From -- ./inp_files/92093.got.cif
#   From: 2010.05.17/outbox.cif.g08.bks.cpg/sg15_47_cif.got.tgz:92093.got - 2010.06.03 18:47:42.
