data_PCOD9300580
_publ_section_title
;
Structure prediction by ZEFSAII (Michael W. Deem and Ramdas Pophale) SiO2 
 PCOD9300580
Probable space group: C 2/C
;
_chemical_formula_sum "Si O2"
_cell_formula_units_Z 56
_cell_length_a 11.654124
_cell_length_b 21.195923
_cell_length_c 11.781966
_cell_angle_alpha 90.000000
_cell_angle_beta 73.420806
_cell_angle_gamma 90.000000
_cell_volume 2789.384831
_symmetry_space_group_name_H-M "C 2/C"
_symmetry_group_IT_number 15
_symmetry_cell_setting 'monoclinic'
loop_
_space_group_symop_operation_xyz
x,y,z
-x,y,1/2-z
-x,-y,-z
x,-y,1/2+z
1/2+x,1/2+y,z
1/2-x,1/2+y,1/2-z
1/2-x,1/2-y,-z
1/2+x,1/2-y,1/2+z
loop_
_atom_site_type_symbol
_atom_site_label
_atom_site_fract_x
_atom_site_fract_y
_atom_site_fract_z
Si Si1 0.122517 0.920453 0.891490
Si Si2 0.394305 0.246934 0.867686
Si Si3 0.047287 0.296118 0.895774
Si Si4 0.723122 0.176083 0.000365
Si Si5 0.195026 0.176569 0.779553
Si Si6 0.148290 0.937167 0.450716
Si Si7 0.733264 0.375995 0.631682
O O1 0.152744 0.904275 0.753642
O O2 0.164266 0.991108 0.908821
O O3 0.190266 0.867774 0.948506
O O4 0.981238 0.923840 0.956075
O O5 0.500000 0.257432 0.750000
O O6 0.301216 0.201530 0.830808
O O7 0.327995 0.313103 0.901316
O O8 0.441770 0.222800 0.974113
O O9 0.095001 0.233018 0.816365
O O10 0.143990 0.350980 0.849390
O O11 0.914903 0.324348 0.919053
O O12 0.752101 0.163278 0.859868
O O13 0.750000 0.250000 0.000000
O O14 0.151895 0.111293 0.845494
O O15 0.244187 0.921466 0.521527
#
# Coordination Sequence:
#
# PCOD9300580 Si02
#       7
#     8   8   8   8   8   8   8
#     4  11  27  41  64  94 128 171 204 264 323 383
#     4  11  18  35  65  97 123 158 211 263 312 359
#     4  11  22  39  66  97 126 164 211 264 321 375
#     4  12  26  42  62  96 139 164 204 263 338 389
#     4  11  22  38  66  94 126 164 206 268 317 378
#     4  11  23  44  65  92 124 162 224 261 310 373
#     4  11  22  41  69  91 122 166 215 261 306 375
#
# _framework density 20.076111999999998
#
# number of rings (size 3 to 8) (size 9 to 14) (size 15 to 20)
#    0.000    0.857    4.286    4.714    2.000    4.000 
#    0.000    0.714    6.286    0.000    0.000    0.000 
#    0.000    0.000    0.000    0.000    0.000    0.000 
#
# Total GULP energy -156471.872783 kJ/mol
# GULP energy per Si atom -5588.281171 kJ/mol
# Density = 2.003042 g / cm^3
# Si number density = 20.076112 Si / 1000 Ang^3
#
#
#
# Elastic Constant Matrix: (Units=GPa)
#
#
# Indices 1 2 3 4 5 6 
#
# 1 55.2625 20.0895 17.1141 0.0000 1.2732 0.0000
# 2 20.0895 98.8935 12.0005 0.0000 8.1598 0.0000
# 3 17.1141 12.0005 53.9229 0.0000 -1.2117 0.0000
# 4 0.0000 0.0000 0.0000 17.7820 0.0000 -3.7307
# 5 1.2732 8.1598 -1.2117 0.0000 33.4287 0.0000
# 6 0.0000 0.0000 0.0000 -3.7307 0.0000 25.2252
#
#
#
# Elastic Compliance Matrix: (Units=1/GPa)
#
#
# Indices 1 2 3 4 5 6 
#
# 1 0.021243 -0.003581 -0.005949 0.000000 -0.000151 0.000000
# 2 -0.003581 0.011231 -0.001423 0.000000 -0.002657 0.000000
# 3 -0.005949 -0.001423 0.020779 0.000000 0.001327 0.000000
# 4 0.000000 0.000000 0.000000 0.058037 0.000000 0.008584
# 5 -0.000151 -0.002657 0.001327 0.000000 0.030617 0.000000
# 6 0.000000 0.000000 0.000000 0.008584 0.000000 0.040912
#
#
# Mechanical properties :
#
#
# Convention : Reuss Voigt Hill
#
# Bulk Modulus (GPa) = 31.89892 34.05414 32.97653
# Shear Modulus (GPa) = 23.23698 25.87883 24.55791
#
# Velocity S-wave (km/s) = 3.40581 3.59421 3.50128
# Velocity P-wave (km/s) = 5.60264 5.85011 5.72771
#
# Compressibility (1/GPa) = 0.03134902
#
# Stress axis : x y z
#
# Youngs Moduli (GPa) = 47.07450 89.03774 48.12466
#
# Poissons Ratio (x) = 0.31885 0.28627
# Poissons Ratio (y) = 0.16858 0.06846
# Poissons Ratio (z) = 0.28002 0.12667
#
# Static dielectric constant tensor:
#      x y z
#    x 1.400540 0.000000 -0.887960 
#    y 0.000000 1.706010 0.000000 
#    z -0.887960 0.000000 -0.411840 
# 
# From -- ./inp_files/89563.got.cif
#   From: 2010.05.17/outbox.cif.g08.bks.cpg/sg15_45_cif.got.tgz:89563.got - 2010.06.03 18:47:42.
