data_PCOD9300959
_publ_section_title
;
Structure prediction by ZEFSAII (Michael W. Deem and Ramdas Pophale) SiO2 
 PCOD9300959
Probable space group: C 2/C
;
_chemical_formula_sum "Si O2"
_cell_formula_units_Z 40
_cell_length_a 8.184232
_cell_length_b 18.056834
_cell_length_c 18.084027
_cell_angle_alpha 90.000000
_cell_angle_beta 38.944326
_cell_angle_gamma 90.000000
_cell_volume 1679.828098
_symmetry_space_group_name_H-M "C 2/C"
_symmetry_group_IT_number 15
_symmetry_cell_setting 'monoclinic'
loop_
_space_group_symop_operation_xyz
x,y,z
-x,y,1/2-z
-x,-y,-z
x,-y,1/2+z
1/2+x,1/2+y,z
1/2-x,1/2+y,1/2-z
1/2-x,1/2-y,-z
1/2+x,1/2-y,1/2+z
loop_
_atom_site_type_symbol
_atom_site_label
_atom_site_fract_x
_atom_site_fract_y
_atom_site_fract_z
Si Si1 0.772632 0.155493 0.519604
Si Si2 0.213570 0.692949 0.239516
Si Si3 0.560911 0.350719 0.310764
Si Si4 0.511316 0.800907 0.969585
Si Si5 0.264988 0.467633 0.132203
O O1 0.584390 0.151854 0.515289
O O2 0.857825 0.224108 0.545002
O O3 0.664244 0.094741 0.611915
O O4 0.046830 0.148687 0.378883
O O5 0.131642 0.670300 0.350622
O O6 0.000000 0.690722 0.250000
O O7 0.265765 0.781804 0.233481
O O8 0.500000 0.376360 0.250000
O O9 0.613268 0.420269 0.343899
O O10 0.299808 0.306631 0.429402
O O11 0.000000 0.510405 0.250000
O O12 0.500000 0.500000 0.000000
#
# Coordination Sequence:
#
# PCOD9300959 Si02
#       5
#     8   8   8   8   8
#     4  11  23  39  68 103 143 176 232 286 373 425
#     4  11  20  34  61 105 143 176 218 286 363 427
#     4  11  21  41  69 103 139 180 236 289 372 421
#     4  11  21  36  64 110 142 177 217 304 365 438
#     4  12  29  51  72  98 143 202 251 295 345 428
#
# _framework density 23.811959000000002
#
# number of rings (size 3 to 8) (size 9 to 14) (size 15 to 20)
#    0.000    0.800    6.000    3.600    2.800    2.400 
#    0.000    6.000    0.000    0.000    0.000    0.000 
#    0.000    0.000    0.000    0.000    0.000    0.000 
#
# Total GULP energy -111445.650001 kJ/mol
# GULP energy per Si atom -5572.282500 kJ/mol
# Density = 2.375776 g / cm^3
# Si number density = 23.811959 Si / 1000 Ang^3
#
#
#
# Elastic Constant Matrix: (Units=GPa)
#
#
# Indices 1 2 3 4 5 6 
#
# 1 92.7383 16.6712 61.0523 0.0038 17.1949 -0.0023
# 2 16.6712 25.1064 11.4891 0.0016 3.2082 -0.0013
# 3 61.0523 11.4891 171.4613 0.0001 16.8291 -0.0025
# 4 0.0038 0.0016 0.0001 37.6788 -0.0016 0.5913
# 5 17.1949 3.2082 16.8291 -0.0016 60.9701 0.0020
# 6 -0.0023 -0.0013 -0.0025 0.5913 0.0020 -2.4898
#
#
#
# Elastic Compliance Matrix: (Units=1/GPa)
#
#
# Indices 1 2 3 4 5 6 
#
# 1 0.015933 -0.008003 -0.004869 -0.000001 -0.002728 -0.000008
# 2 -0.008003 0.045234 -0.000174 -0.000001 -0.000075 -0.000016
# 3 -0.004869 -0.000174 0.007649 0.000001 -0.000729 -0.000004
# 4 -0.000001 -0.000001 0.000001 0.026442 0.000001 0.006279
# 5 -0.002728 -0.000075 -0.000729 0.000001 0.017376 0.000017
# 6 -0.000008 -0.000016 -0.000004 0.006279 0.000017 -0.400142
#
#
# Mechanical properties :
#
#
# Convention : Reuss Voigt Hill
#
# Bulk Modulus (GPa) = 23.40620 51.97014 37.68817
# Shear Modulus (GPa) = -20.22865 32.57137 6.17136
#
# Velocity S-wave (km/s) = -2.91781 3.70247 1.61162
# Velocity P-wave (km/s) = 1.22496 6.33643 4.39601
#
# Compressibility (1/GPa) = 0.04272372
#
# Stress axis : x y z
#
# Youngs Moduli (GPa) = 62.76211 22.10726 130.73211
#
# Poissons Ratio (x) = 0.17693 0.63657
# Poissons Ratio (y) = 0.50229 0.02274
# Poissons Ratio (z) = 0.30561 0.00385
#
# Static dielectric constant tensor:
#      x y z
#    x 1.970030 0.000000 -0.132830 
#    y 0.000000 2.026910 0.000000 
#    z -0.132830 0.000000 2.077860 
# 
# From -- ./inp_files/191875.got.cif
#   From: 2010.05.17/outbox.cif.g08.bks.cpg/sg15_96_cif.got.tgz:191875.got - 2010.06.03 18:47:42.
