data_PCOD9300961
_publ_section_title
;
Structure prediction by ZEFSAII (Michael W. Deem and Ramdas Pophale) SiO2 
 PCOD9300961
Probable space group: C 2/C
;
_chemical_formula_sum "Si O2"
_cell_formula_units_Z 56
_cell_length_a 11.950343
_cell_length_b 19.720548
_cell_length_c 13.258454
_cell_angle_alpha 90.000000
_cell_angle_beta 74.378281
_cell_angle_gamma 90.000000
_cell_volume 3009.163830
_symmetry_space_group_name_H-M "C 2/C"
_symmetry_group_IT_number 15
_symmetry_cell_setting 'monoclinic'
loop_
_space_group_symop_operation_xyz
x,y,z
-x,y,1/2-z
-x,-y,-z
x,-y,1/2+z
1/2+x,1/2+y,z
1/2-x,1/2+y,1/2-z
1/2-x,1/2-y,-z
1/2+x,1/2-y,1/2+z
loop_
_atom_site_type_symbol
_atom_site_label
_atom_site_fract_x
_atom_site_fract_y
_atom_site_fract_z
Si Si1 0.375334 0.949400 0.337511
Si Si2 0.769441 0.315254 0.293366
Si Si3 0.081768 0.803657 0.642244
Si Si4 0.539373 0.741006 0.942031
Si Si5 0.311627 0.760424 0.879265
Si Si6 0.324377 0.880201 0.561419
Si Si7 0.361220 0.905386 0.777410
O O1 0.500000 0.950561 0.250000
O O2 0.304656 0.892724 0.293545
O O3 0.366434 0.922954 0.455021
O O4 0.329863 0.026198 0.343799
O O5 0.863500 0.266538 0.326330
O O6 0.648558 0.302081 0.378516
O O7 0.747439 0.288722 0.186878
O O8 0.007840 0.787614 0.559911
O O9 0.193703 0.849384 0.586330
O O10 0.000000 0.832599 0.750000
O O11 0.443881 0.743346 0.878315
O O12 0.588948 0.816352 0.948195
O O13 0.306979 0.836160 0.833909
O O14 0.250000 0.750000 0.000000
O O15 0.330323 0.916595 0.667837
O O16 0.500000 0.895911 0.750000
#
# Coordination Sequence:
#
# PCOD9300961 Si02
#       7
#     8   8   8   8   8   8   8
#     4  11  25  38  64  95 126 165 210 257 317 382
#     4  11  20  38  58  92 121 160 208 260 307 371
#     4  11  20  34  64  92 119 157 213 254 305 366
#     4  11  20  36  62  89 121 160 202 259 315 359
#     4  12  24  36  62  95 127 161 212 263 312 372
#     4  11  21  40  61  86 127 163 203 260 308 371
#     4  11  23  42  61  89 132 168 199 256 331 375
#
# _framework density 18.609821
#
# number of rings (size 3 to 8) (size 9 to 14) (size 15 to 20)
#    0.000    0.857    7.143    2.571    2.000    3.429 
#    0.000    0.000    0.000    5.143    0.000    0.000 
#    0.000    0.000    0.000    0.000    0.000    0.000 
#
# Total GULP energy -156278.304607 kJ/mol
# GULP energy per Si atom -5581.368022 kJ/mol
# Density = 1.856746 g / cm^3
# Si number density = 18.609821 Si / 1000 Ang^3
#
#
#
# Elastic Constant Matrix: (Units=GPa)
#
#
# Indices 1 2 3 4 5 6 
#
# 1 43.2936 8.4998 16.2412 0.0000 10.4901 0.0000
# 2 8.4998 58.0057 21.7134 0.0000 7.3955 0.0000
# 3 16.2412 21.7134 126.6037 0.0000 8.2808 0.0000
# 4 0.0000 0.0000 0.0000 25.0115 0.0000 -1.5941
# 5 10.4901 7.3955 8.2808 0.0000 32.9927 0.0000
# 6 0.0000 0.0000 0.0000 -1.5941 0.0000 12.4621
#
#
#
# Elastic Compliance Matrix: (Units=1/GPa)
#
#
# Indices 1 2 3 4 5 6 
#
# 1 0.026196 -0.001960 -0.002550 0.000000 -0.007250 0.000000
# 2 -0.001960 0.018950 -0.002808 0.000000 -0.002920 0.000000
# 3 -0.002550 -0.002808 0.008757 0.000000 -0.000758 0.000000
# 4 0.000000 0.000000 0.000000 0.040310 0.000000 0.005156
# 5 -0.007250 -0.002920 -0.000758 0.000000 0.033460 0.000000
# 6 0.000000 0.000000 0.000000 0.005156 0.000000 0.080903
#
#
# Mechanical properties :
#
#
# Convention : Reuss Voigt Hill
#
# Bulk Modulus (GPa) = 25.46601 35.64575 30.55588
# Shear Modulus (GPa) = 21.15951 26.18983 23.67467
#
# Velocity S-wave (km/s) = 3.37561 3.75549 3.57060
# Velocity P-wave (km/s) = 5.37651 6.16447 5.78393
#
# Compressibility (1/GPa) = 0.03926803
#
# Stress axis : x y z
#
# Youngs Moduli (GPa) = 38.17349 52.77006 114.19549
#
# Poissons Ratio (x) = 0.10341 0.29123
# Poissons Ratio (y) = 0.07481 0.32063
# Poissons Ratio (z) = 0.09735 0.14816
#
# Static dielectric constant tensor:
#      x y z
#    x 1.766790 0.000000 0.086890 
#    y 0.000000 1.637700 0.000000 
#    z 0.086890 0.000000 1.818970 
# 
# From -- ./inp_files/88880.got.cif
#   From: 2010.05.17/outbox.cif.g08.bks.cpg/sg15_45_cif.got.tgz:88880.got - 2010.06.03 18:47:42.
