data_PCOD9300718
_publ_section_title
;
Structure prediction by ZEFSAII (Michael W. Deem and Ramdas Pophale) SiO2 
 PCOD9300718
Probable space group: C 2/C
;
_chemical_formula_sum "Si O2"
_cell_formula_units_Z 48
_cell_length_a 11.364149
_cell_length_b 29.251916
_cell_length_c 14.098294
_cell_angle_alpha 90.000000
_cell_angle_beta 147.388020
_cell_angle_gamma 90.000000
_cell_volume 2525.828131
_symmetry_space_group_name_H-M "C 2/C"
_symmetry_group_IT_number 15
_symmetry_cell_setting 'monoclinic'
loop_
_space_group_symop_operation_xyz
x,y,z
-x,y,1/2-z
-x,-y,-z
x,-y,1/2+z
1/2+x,1/2+y,z
1/2-x,1/2+y,1/2-z
1/2-x,1/2-y,-z
1/2+x,1/2-y,1/2+z
loop_
_atom_site_type_symbol
_atom_site_label
_atom_site_fract_x
_atom_site_fract_y
_atom_site_fract_z
Si Si1 0.119411 0.294768 0.731963
Si Si2 0.040914 0.145230 0.530249
Si Si3 0.137321 0.700267 0.631782
Si Si4 0.347859 0.542298 0.918550
Si Si5 0.399576 0.074318 0.586146
Si Si6 0.776561 0.168383 0.049588
O O1 0.241695 0.248617 0.783043
O O2 0.000000 0.286010 0.750000
O O3 0.953628 0.307448 0.535610
O O4 0.302789 0.333028 0.871601
O O5 0.191026 0.162095 0.718465
O O6 0.035296 0.090645 0.519335
O O7 0.160725 0.164605 0.517583
O O8 0.928202 0.698597 0.559366
O O9 0.274958 0.541943 0.980472
O O10 0.115950 0.546673 0.702829
O O11 0.500000 0.500000 0.000000
O O12 0.500000 0.098558 0.750000
O O13 0.290225 0.116560 0.458763
O O14 0.000000 0.183293 0.250000
#
# Coordination Sequence:
#
# PCOD9300718 Si02
#       6
#     8   8   8   8   8   8
#     4  12  27  43  59  88 121 175 218 250 311 381
#     4  11  22  40  62  94 126 161 206 262 317 371
#     4  12  23  41  65  84 124 166 206 262 314 368
#     4   8  15  32  59  86 120 160 195 244 309 364
#     4   7  15  29  52  83 117 150 188 239 303 361
#     4  11  19  36  61  92 125 154 205 256 320 374
#
# _framework density 19.003668000000001
#
# number of rings (size 3 to 8) (size 9 to 14) (size 15 to 20)
#    1.000    0.667    5.000    1.000    0.000    0.667 
#    6.000    0.000    0.000    9.000    0.000    0.000 
#    0.000    0.000    0.000    0.000    0.000    0.000 
#
# Total GULP energy -133641.610327 kJ/mol
# GULP energy per Si atom -5568.400430 kJ/mol
# Density = 1.896041 g / cm^3
# Si number density = 19.003668 Si / 1000 Ang^3
#
#
#
# Elastic Constant Matrix: (Units=GPa)
#
#
# Indices 1 2 3 4 5 6 
#
# 1 71.5138 55.5696 21.6005 0.0000 7.4381 0.0000
# 2 55.5696 105.7089 38.9569 0.0000 19.4520 0.0000
# 3 21.6005 38.9569 93.4634 0.0000 -8.4864 0.0000
# 4 0.0000 0.0000 0.0000 27.8372 0.0000 18.6811
# 5 7.4381 19.4520 -8.4864 0.0000 22.3185 0.0000
# 6 0.0000 0.0000 0.0000 18.6811 0.0000 25.4755
#
#
#
# Elastic Compliance Matrix: (Units=1/GPa)
#
#
# Indices 1 2 3 4 5 6 
#
# 1 0.023886 -0.013439 0.000437 0.000000 0.003918 0.000000
# 2 -0.013439 0.022959 -0.008155 0.000000 -0.018632 0.000000
# 3 0.000437 -0.008155 0.015153 0.000000 0.012724 0.000000
# 4 0.000000 0.000000 0.000000 0.070729 0.000000 -0.051865
# 5 0.003918 -0.018632 0.012724 0.000000 0.064578 0.000000
# 6 0.000000 0.000000 0.000000 -0.051865 0.000000 0.077286
#
#
# Mechanical properties :
#
#
# Convention : Reuss Voigt Hill
#
# Bulk Modulus (GPa) = 50.80430 55.88223 53.34327
# Shear Modulus (GPa) = 15.45759 25.43018 20.44388
#
# Velocity S-wave (km/s) = 2.85511 3.66207 3.28348
# Velocity P-wave (km/s) = 6.13684 6.88120 6.51965
#
# Compressibility (1/GPa) = 0.01968337
#
# Stress axis : x y z
#
# Youngs Moduli (GPa) = 41.86496 43.55680 65.99323
#
# Poissons Ratio (x) = 0.58534 -0.02882
# Poissons Ratio (y) = 0.56261 0.53820
# Poissons Ratio (z) = -0.01828 0.35522
#
# Static dielectric constant tensor:
#      x y z
#    x 1.699480 0.000000 0.007090 
#    y 0.000000 1.657070 0.000000 
#    z 0.007090 0.000000 1.725600 
# 
# From -- ./inp_files/148844.got.cif
#   From: 2010.05.17/outbox.cif.g08.bks.cpg/sg15_75_cif.got.tgz:148844.got - 2010.06.03 18:47:42.
