data_PCOD9300956
_publ_section_title
;
Structure prediction by ZEFSAII (Michael W. Deem and Ramdas Pophale) SiO2 
 PCOD9300956
Probable space group: C 2/C
;
_chemical_formula_sum "Si O2"
_cell_formula_units_Z 52
_cell_length_a 15.949711
_cell_length_b 21.413777
_cell_length_c 8.581669
_cell_angle_alpha 90.000000
_cell_angle_beta 118.771869
_cell_angle_gamma 90.000000
_cell_volume 2569.159880
_symmetry_space_group_name_H-M "C 2/C"
_symmetry_group_IT_number 15
_symmetry_cell_setting 'monoclinic'
loop_
_space_group_symop_operation_xyz
x,y,z
-x,y,1/2-z
-x,-y,-z
x,-y,1/2+z
1/2+x,1/2+y,z
1/2-x,1/2+y,1/2-z
1/2-x,1/2-y,-z
1/2+x,1/2-y,1/2+z
loop_
_atom_site_type_symbol
_atom_site_label
_atom_site_fract_x
_atom_site_fract_y
_atom_site_fract_z
Si Si1 0.589801 0.814158 0.213486
Si Si2 0.782072 0.645793 0.414831
Si Si3 0.500000 0.687126 0.750000
Si Si4 0.424479 0.968761 0.050590
Si Si5 0.329851 0.780369 0.675946
Si Si6 0.899272 0.600575 0.075136
Si Si7 0.567650 0.332224 0.653677
O O1 0.500000 0.817833 0.250000
O O2 0.688085 0.834002 0.385118
O O3 0.589364 0.742316 0.160417
O O4 0.578986 0.863109 0.064770
O O5 0.852863 0.586976 0.444167
O O6 0.811206 0.705971 0.338541
O O7 0.670121 0.635384 0.281861
O O8 0.418176 0.734818 0.732760
O O9 0.470236 0.652464 0.558467
O O10 0.500000 0.948719 0.250000
O O11 0.361083 0.030162 0.034551
O O12 0.500000 0.000000 0.000000
O O13 0.250000 0.750000 0.500000
O O14 0.339071 0.850162 0.617350
O O15 0.000000 0.594457 0.250000
O O16 0.500000 0.340671 0.750000
#
# Coordination Sequence:
#
# PCOD9300956 Si02
#       7
#     8   8   4   8   8   8   8
#     4  11  20  34  59  90 130 169 204 263 329 388
#     4  12  23  39  58  92 131 171 222 260 327 405
#     4  12  22  42  62  96 138 170 220 270 338 390
#     4  11  23  37  60  93 132 171 205 260 331 392
#     4  12  22  37  63  93 126 170 213 266 332 395
#     4  11  20  36  57  90 129 169 206 253 321 391
#     4  11  24  41  64  92 130 176 220 279 323 390
#
# _framework density 20.240081
#
# number of rings (size 3 to 8) (size 9 to 14) (size 15 to 20)
#    0.000    0.615    3.846    7.385    0.000    1.231 
#    0.000    0.000    0.000    0.000    2.000    6.462 
#    0.000    0.000    0.000    0.000    0.000    0.000 
#
# Total GULP energy -144968.952354 kJ/mol
# GULP energy per Si atom -5575.728937 kJ/mol
# Density = 2.019401 g / cm^3
# Si number density = 20.240081 Si / 1000 Ang^3
#
#
#
# Elastic Constant Matrix: (Units=GPa)
#
#
# Indices 1 2 3 4 5 6 
#
# 1 78.2690 14.1883 52.5367 0.0000 12.4603 0.0000
# 2 14.1883 77.9658 33.8619 0.0000 11.9805 0.0000
# 3 52.5367 33.8619 157.1681 0.0000 1.3369 0.0000
# 4 0.0000 0.0000 0.0000 24.8500 0.0000 -9.4036
# 5 12.4603 11.9805 1.3369 0.0000 37.5303 0.0000
# 6 0.0000 0.0000 0.0000 -9.4036 0.0000 -7.5865
#
#
#
# Elastic Compliance Matrix: (Units=1/GPa)
#
#
# Indices 1 2 3 4 5 6 
#
# 1 0.017590 0.000230 -0.005881 0.000000 -0.005704 0.000000
# 2 0.000230 0.014922 -0.003252 0.000000 -0.004724 0.000000
# 3 -0.005881 -0.003252 0.009006 0.000000 0.002670 0.000000
# 4 0.000000 0.000000 0.000000 0.027393 0.000000 -0.033954
# 5 -0.005704 -0.004724 0.002670 0.000000 0.029952 0.000000
# 6 0.000000 0.000000 0.000000 -0.033954 0.000000 -0.089727
#
#
# Mechanical properties :
#
#
# Convention : Reuss Voigt Hill
#
# Bulk Modulus (GPa) = 42.17059 57.17519 49.67289
# Shear Modulus (GPa) = 143.48514 25.14651 84.31583
#
# Velocity S-wave (km/s) = 8.42885 3.52861 6.46129
# Velocity P-wave (km/s) = 10.75210 6.70159 8.95877
#
# Compressibility (1/GPa) = 0.02371321
#
# Stress axis : x y z
#
# Youngs Moduli (GPa) = 56.84948 67.01297 111.03392
#
# Poissons Ratio (x) = -0.01538 0.65297
# Poissons Ratio (y) = -0.01305 0.36104
# Poissons Ratio (z) = 0.33432 0.21790
#
# Static dielectric constant tensor:
#      x y z
#    x 1.823960 0.000000 -0.085780 
#    y 0.000000 1.785240 0.000000 
#    z -0.085780 0.000000 1.811400 
# 
# From -- ./inp_files/42326.got.cif
#   From: 2010.05.17/outbox.cif.g08.bks.cpg/sg15_22_cif.got.tgz:42326.got - 2010.06.03 18:47:42.
