data_PCOD9300149
_publ_section_title
;
Structure prediction by ZEFSAII (Michael W. Deem and Ramdas Pophale) SiO2 
 PCOD9300149
Probable space group: C 2/C
;
_chemical_formula_sum "Si O2"
_cell_formula_units_Z 40
_cell_length_a 7.312020
_cell_length_b 22.386334
_cell_length_c 15.415143
_cell_angle_alpha 90.000000
_cell_angle_beta 41.927346
_cell_angle_gamma 90.000000
_cell_volume 1686.034276
_symmetry_space_group_name_H-M "C 2/C"
_symmetry_group_IT_number 15
_symmetry_cell_setting 'monoclinic'
loop_
_space_group_symop_operation_xyz
x,y,z
-x,y,1/2-z
-x,-y,-z
x,-y,1/2+z
1/2+x,1/2+y,z
1/2-x,1/2+y,1/2-z
1/2-x,1/2-y,-z
1/2+x,1/2-y,1/2+z
loop_
_atom_site_type_symbol
_atom_site_label
_atom_site_fract_x
_atom_site_fract_y
_atom_site_fract_z
Si Si1 0.772046 0.196321 0.255297
Si Si2 0.500000 0.699003 0.750000
Si Si3 0.376162 0.391024 0.969119
Si Si4 0.000000 0.414859 0.250000
Si Si5 0.897980 0.614928 0.499623
Si Si6 0.474595 0.489389 0.156735
O O1 0.658036 0.258236 0.260905
O O2 0.531602 0.152529 0.374348
O O3 0.000000 0.203904 0.250000
O O4 0.926146 0.162707 0.123333
O O5 0.700888 0.657666 0.624304
O O6 0.529326 0.454048 0.905677
O O7 0.213680 0.380397 0.114727
O O8 0.153326 0.398330 0.971572
O O9 0.190206 0.454541 0.244950
O O10 0.723302 0.555322 0.543782
O O11 0.500000 0.505406 0.250000
#
# Coordination Sequence:
#
# PCOD9300149 Si02
#       6
#     8   4   8   4   8   8
#     4  10  26  45  71 104 139 187 236 287 348 413
#     4  12  24  47  72 104 140 183 240 292 340 414
#     4  11  25  46  71 104 145 185 229 292 352 417
#     4  12  26  41  66 110 138 187 234 274 352 426
#     4  11  23  48  71 104 136 190 237 277 366 403
#     4  12  24  45  72  99 147 181 231 294 344 427
#
# _framework density 23.724309999999999
#
# number of rings (size 3 to 8) (size 9 to 14) (size 15 to 20)
#    0.000    0.800    3.000    3.600    5.600    4.000 
#   10.800    0.000    0.000    0.000    0.000    0.000 
#    0.000    0.000    0.000    0.000    0.000    0.000 
#
# Total GULP energy -112106.922765 kJ/mol
# GULP energy per Si atom -5605.346138 kJ/mol
# Density = 2.367031 g / cm^3
# Si number density = 23.724310 Si / 1000 Ang^3
#
#
#
# Elastic Constant Matrix: (Units=GPa)
#
#
# Indices 1 2 3 4 5 6 
#
# 1 64.0006 -10.9952 -0.4305 -0.0001 8.2762 0.0000
# 2 -10.9952 59.0355 17.6699 0.0000 4.0533 0.0000
# 3 -0.4305 17.6699 154.5933 -0.0007 12.4759 0.0001
# 4 -0.0001 0.0000 -0.0007 9.1471 0.0003 -16.9008
# 5 8.2762 4.0533 12.4759 0.0003 32.0505 0.0000
# 6 0.0000 0.0000 0.0001 -16.9008 0.0000 11.5505
#
#
#
# Elastic Compliance Matrix: (Units=1/GPa)
#
#
# Indices 1 2 3 4 5 6 
#
# 1 0.016839 0.003454 0.000040 0.000000 -0.004801 0.000000
# 2 0.003454 0.018316 -0.001884 0.000000 -0.002475 0.000000
# 3 0.000040 -0.001884 0.006882 0.000000 -0.002451 0.000000
# 4 0.000000 0.000000 0.000000 -0.064175 0.000001 -0.093902
# 5 -0.004801 -0.002475 -0.002451 0.000001 0.033707 0.000001
# 6 0.000000 0.000000 0.000000 -0.093902 0.000001 -0.050822
#
#
# Mechanical properties :
#
#
# Convention : Reuss Voigt Hill
#
# Bulk Modulus (GPa) = 22.09652 32.23533 27.16592
# Shear Modulus (GPa) = -182.57716 28.64196 -76.96760
#
# Velocity S-wave (km/s) = -8.78208 3.47837 -5.70201
# Velocity P-wave (km/s) = 9.66949 5.45427 5.64580
#
# Compressibility (1/GPa) = 0.04525599
#
# Stress axis : x y z
#
# Youngs Moduli (GPa) = 59.38494 54.59667 145.31016
#
# Poissons Ratio (x) = -0.18858 -0.00574
# Poissons Ratio (y) = -0.20512 0.27379
# Poissons Ratio (z) = -0.00235 0.10287
#
# Static dielectric constant tensor:
#      x y z
#    x 1.920310 0.000000 0.023600 
#    y 0.000000 1.853840 0.000000 
#    z 0.023600 0.000000 1.861720 
# 
# From -- ./inp_files/77972.got.cif
#   From: 2010.05.17/outbox.cif.g08.bks.cpg/sg15_39_cif.got.tgz:77972.got - 2010.06.03 18:47:42.
