data_PCOD9300196
_publ_section_title
;
Structure prediction by ZEFSAII (Michael W. Deem and Ramdas Pophale) SiO2 
 PCOD9300196
Probable space group: C 2/C
;
_chemical_formula_sum "Si O2"
_cell_formula_units_Z 28
_cell_length_a 14.479909
_cell_length_b 4.904121
_cell_length_c 20.642382
_cell_angle_alpha 90.000000
_cell_angle_beta 53.433705
_cell_angle_gamma 90.000000
_cell_volume 1177.316571
_symmetry_space_group_name_H-M "C 2/C"
_symmetry_group_IT_number 15
_symmetry_cell_setting 'monoclinic'
loop_
_space_group_symop_operation_xyz
x,y,z
-x,y,1/2-z
-x,-y,-z
x,-y,1/2+z
1/2+x,1/2+y,z
1/2-x,1/2+y,1/2-z
1/2-x,1/2-y,-z
1/2+x,1/2-y,1/2+z
loop_
_atom_site_type_symbol
_atom_site_label
_atom_site_fract_x
_atom_site_fract_y
_atom_site_fract_z
Si Si1 0.822647 0.557044 0.729274
Si Si2 0.500000 0.759368 0.750000
Si Si3 0.629565 0.619620 0.573928
Si Si4 0.013691 0.624617 0.564140
O O1 0.729928 0.790121 0.784018
O O2 0.904126 0.448766 0.753385
O O3 0.895385 0.721718 0.644435
O O4 0.582982 0.576946 0.667296
O O5 0.750000 0.750000 0.500000
O O6 0.606084 0.357269 0.539358
O O7 0.544675 0.861862 0.592008
O O8 0.000000 0.500000 0.500000
#
# Coordination Sequence:
#
# PCOD9300196 Si02
#       4
#     8   4   8   8
#     4  11  25  43  71 101 138 196 235 302 381 420
#     4  10  26  46  70 104 150 176 266 294 354 468
#     4  11  25  44  71 104 139 197 230 306 379 418
#     4  11  25  44  68 105 144 175 250 299 362 456
#
# _framework density 23.782896999999998
#
# number of rings (size 3 to 8) (size 9 to 14) (size 15 to 20)
#    0.000    1.143    0.000    5.143    8.000   10.286 
#    0.000    0.000    0.000    0.000    0.000    0.000 
#    0.000    0.000    0.000    0.000    0.000    0.000 
#
# Total GULP energy -77968.805514 kJ/mol
# GULP energy per Si atom -5569.200394 kJ/mol
# Density = 2.372877 g / cm^3
# Si number density = 23.782897 Si / 1000 Ang^3
#
#
#
# Elastic Constant Matrix: (Units=GPa)
#
#
# Indices 1 2 3 4 5 6 
#
# 1 107.3666 34.5324 33.4746 -0.0056 6.3462 0.0138
# 2 34.5324 213.4609 19.9251 0.0438 -80.7239 0.0576
# 3 33.4746 19.9251 133.0881 0.0043 -18.6840 0.0037
# 4 -0.0056 0.0438 0.0043 38.1587 -0.0452 -6.1037
# 5 6.3462 -80.7239 -18.6840 -0.0452 106.1831 -0.0231
# 6 0.0138 0.0576 0.0037 -6.1037 -0.0231 59.4296
#
#
#
# Elastic Compliance Matrix: (Units=1/GPa)
#
#
# Indices 1 2 3 4 5 6 
#
# 1 0.011320 -0.002820 -0.002892 0.000001 -0.003330 -0.000001
# 2 -0.002820 0.007289 0.000430 -0.000003 0.005785 -0.000004
# 3 -0.002892 0.000430 0.008456 0.000001 0.001988 0.000001
# 4 0.000001 -0.000003 0.000001 0.026644 0.000010 0.002736
# 5 -0.003330 0.005785 0.001988 0.000010 0.014365 0.000002
# 6 -0.000001 -0.000004 0.000001 0.002736 0.000002 0.017108
#
#
# Mechanical properties :
#
#
# Convention : Reuss Voigt Hill
#
# Bulk Modulus (GPa) = 60.60786 69.97552 65.29169
# Shear Modulus (GPa) = 49.38511 65.15318 57.26915
#
# Velocity S-wave (km/s) = 4.56180 5.23970 4.91246
# Velocity P-wave (km/s) = 7.29972 8.12972 7.72587
#
# Compressibility (1/GPa) = 0.01649951
#
# Stress axis : x y z
#
# Youngs Moduli (GPa) = 88.34251 137.20017 118.25983
#
# Poissons Ratio (x) = 0.38696 0.34204
# Poissons Ratio (y) = 0.24916 -0.05090
# Poissons Ratio (z) = 0.25551 -0.05905
#
# Static dielectric constant tensor:
#      x y z
#    x 1.990260 0.000000 -0.076930 
#    y 0.000000 1.954690 -0.000010 
#    z -0.076930 -0.000010 2.207250 
# 
# From -- ./inp_files/201600.got.cif
#   From: 2010.05.17/outbox.cif.g08.bks.cpg/sg15_101_cif.got.tgz:201600.got - 2010.06.03 18:47:42.
