data_PCOD9300765
_publ_section_title
;
Structure prediction by ZEFSAII (Michael W. Deem and Ramdas Pophale) SiO2 
 PCOD9300765
Probable space group: C 2/C
;
_chemical_formula_sum "Si O2"
_cell_formula_units_Z 44
_cell_length_a 16.377878
_cell_length_b 13.802629
_cell_length_c 27.683363
_cell_angle_alpha 90.000000
_cell_angle_beta 159.470794
_cell_angle_gamma 90.000000
_cell_volume 2194.599274
_symmetry_space_group_name_H-M "C 2/C"
_symmetry_group_IT_number 15
_symmetry_cell_setting 'monoclinic'
loop_
_space_group_symop_operation_xyz
x,y,z
-x,y,1/2-z
-x,-y,-z
x,-y,1/2+z
1/2+x,1/2+y,z
1/2-x,1/2+y,1/2-z
1/2-x,1/2-y,-z
1/2+x,1/2-y,1/2+z
loop_
_atom_site_type_symbol
_atom_site_label
_atom_site_fract_x
_atom_site_fract_y
_atom_site_fract_z
Si Si1 0.893042 0.008466 0.038004
Si Si2 0.173928 0.351180 0.985131
Si Si3 0.000000 0.445185 0.250000
Si Si4 0.262537 0.742347 0.388822
Si Si5 0.153765 0.200261 0.176397
Si Si6 0.223423 0.138940 0.683299
O O1 0.949005 0.122799 0.072167
O O2 0.702843 0.997554 0.890018
O O3 0.138271 0.960904 0.159229
O O4 0.795613 0.944082 0.028197
O O5 0.898058 0.352399 0.824407
O O6 0.250000 0.250000 0.000000
O O7 0.237686 0.337982 0.076965
O O8 0.124083 0.381378 0.278490
O O9 0.321028 0.739434 0.364465
O O10 0.477982 0.685876 0.531908
O O11 0.000000 0.703074 0.250000
O O12 0.146061 0.291979 0.207321
#
# Coordination Sequence:
#
# PCOD9300765 Si02
#       6
#     8   8   4   8   8   8
#     4  12  23  40  65 101 131 170 220 282 329 400
#     4  11  21  37  65  99 132 169 225 274 334 391
#     4  12  26  38  68 100 134 164 226 284 346 378
#     4  11  19  37  67  95 127 176 216 270 330 388
#     4  11  23  41  67  94 136 175 221 273 334 399
#     4  11  24  41  62  98 133 173 219 273 340 394
#
# _framework density 20.049219000000001
#
# number of rings (size 3 to 8) (size 9 to 14) (size 15 to 20)
#    0.000    0.727    7.273    1.636    3.818    0.727 
#    0.000    0.000    6.000    9.818    0.000    0.000 
#    0.000    0.000    0.000    0.000    0.000    0.000 
#
# Total GULP energy -122729.127667 kJ/mol
# GULP energy per Si atom -5578.596712 kJ/mol
# Density = 2.000359 g / cm^3
# Si number density = 20.049219 Si / 1000 Ang^3
#
#
#
# Elastic Constant Matrix: (Units=GPa)
#
#
# Indices 1 2 3 4 5 6 
#
# 1 137.1671 70.9143 25.3099 0.0253 -14.1779 0.0262
# 2 70.9143 100.0043 49.8099 0.0090 -16.1416 -0.0018
# 3 25.3099 49.8099 70.3258 0.0086 -15.8694 -0.0143
# 4 0.0253 0.0090 0.0086 -2.5561 0.0078 -34.5553
# 5 -14.1779 -16.1416 -15.8694 0.0078 33.2338 0.0137
# 6 0.0262 -0.0018 -0.0143 -34.5553 0.0137 -32.3930
#
#
#
# Elastic Compliance Matrix: (Units=1/GPa)
#
#
# Indices 1 2 3 4 5 6 
#
# 1 0.011905 -0.009609 0.002930 0.000002 0.001811 0.000007
# 2 -0.009609 0.023401 -0.012863 0.000001 0.001125 -0.000004
# 3 0.002930 -0.012863 0.023702 -0.000011 0.006320 0.000007
# 4 0.000002 0.000001 -0.000011 0.029150 0.000002 -0.031095
# 5 0.001811 0.001125 0.006320 0.000002 0.034427 0.000011
# 6 0.000007 -0.000004 0.000007 -0.031095 0.000011 0.002300
#
#
# Mechanical properties :
#
#
# Convention : Reuss Voigt Hill
#
# Bulk Modulus (GPa) = 50.18963 66.61837 58.40400
# Shear Modulus (GPa) = 29.30691 10.42113 19.86402
#
# Velocity S-wave (km/s) = 3.82743 2.28234 3.15105
# Velocity P-wave (km/s) = 6.67981 6.34389 6.51402
#
# Compressibility (1/GPa) = 0.01992443
#
# Stress axis : x y z
#
# Youngs Moduli (GPa) = 84.00174 42.73273 42.19134
#
# Poissons Ratio (x) = 0.41060 -0.12361
# Poissons Ratio (y) = 0.80714 0.54269
# Poissons Ratio (z) = -0.24610 0.54965
#
# Static dielectric constant tensor:
#      x y z
#    x 1.725030 0.000000 0.007090 
#    y 0.000000 1.749570 -0.000010 
#    z 0.007090 -0.000010 1.730390 
# 
# From -- ./inp_files/105512.got.cif
#   From: 2010.05.17/outbox.cif.g08.bks.cpg/sg15_53_cif.got.tgz:105512.got - 2010.06.03 18:47:42.
