data_PCOD9300710
_publ_section_title
;
Structure prediction by ZEFSAII (Michael W. Deem and Ramdas Pophale) SiO2 
 PCOD9300710
Probable space group: C 2/C
;
_chemical_formula_sum "Si O2"
_cell_formula_units_Z 48
_cell_length_a 24.422941
_cell_length_b 12.304288
_cell_length_c 9.155745
_cell_angle_alpha 90.000000
_cell_angle_beta 138.426857
_cell_angle_gamma 90.000000
_cell_volume 1825.738419
_symmetry_space_group_name_H-M "C 2/C"
_symmetry_group_IT_number 15
_symmetry_cell_setting 'monoclinic'
loop_
_space_group_symop_operation_xyz
x,y,z
-x,y,1/2-z
-x,-y,-z
x,-y,1/2+z
1/2+x,1/2+y,z
1/2-x,1/2+y,1/2-z
1/2-x,1/2-y,-z
1/2+x,1/2-y,1/2+z
loop_
_atom_site_type_symbol
_atom_site_label
_atom_site_fract_x
_atom_site_fract_y
_atom_site_fract_z
Si Si1 0.223676 0.280325 0.239648
Si Si2 0.164253 0.511483 0.217906
Si Si3 0.685011 0.397967 0.303071
Si Si4 0.928623 0.413485 0.220433
Si Si5 0.385968 0.306219 0.761556
Si Si6 0.085946 0.022198 0.847280
O O1 0.175271 0.393543 0.168713
O O2 0.268031 0.295350 0.173157
O O3 0.302348 0.284579 0.503083
O O4 0.153758 0.195946 0.154918
O O5 0.245966 0.535254 0.471627
O O6 0.093911 0.500617 0.200897
O O7 0.147418 0.589735 0.048242
O O8 0.617754 0.386454 0.296543
O O9 0.646094 0.467494 0.091159
O O10 0.940431 0.298051 0.324090
O O11 0.000000 0.442349 0.250000
O O12 0.425087 0.416666 0.782550
O O13 0.000000 0.051618 0.750000
#
# Coordination Sequence:
#
# PCOD9300710 Si02
#       6
#     8   8   8   8   8   8
#     4   9  18  33  58  85 105 148 198 240 279 344
#     4  11  19  36  59  82 113 151 201 245 288 354
#     4  11  19  37  60  89 113 154 206 245 294 351
#     4  11  22  35  57  85 114 151 195 248 302 352
#     4   9  19  36  58  82 116 153 200 231 298 369
#     4  11  22  37  61  89 121 157 198 248 302 356
#
# _framework density 26.290731999999998
#
# number of rings (size 3 to 8) (size 9 to 14) (size 15 to 20)
#    0.000    1.667    5.000    1.500    0.000    0.000 
#    0.000    3.333    0.000    0.000    4.333    0.000 
#    0.000    0.000    0.000    0.000    0.000    0.000 
#
# Total GULP energy -134061.856758 kJ/mol
# GULP energy per Si atom -5585.910698 kJ/mol
# Density = 2.623089 g / cm^3
# Si number density = 26.290732 Si / 1000 Ang^3
#
#
#
# Elastic Constant Matrix: (Units=GPa)
#
#
# Indices 1 2 3 4 5 6 
#
# 1 239.8542 36.0037 27.3972 0.0000 -18.1873 0.0000
# 2 36.0037 58.7535 -1.5060 0.0000 -15.4430 0.0000
# 3 27.3972 -1.5060 85.3124 0.0000 -27.9348 0.0000
# 4 0.0000 0.0000 0.0000 19.2160 0.0000 0.2062
# 5 -18.1873 -15.4430 -27.9348 0.0000 50.0934 0.0000
# 6 0.0000 0.0000 0.0000 0.2062 0.0000 32.0576
#
#
#
# Elastic Compliance Matrix: (Units=1/GPa)
#
#
# Indices 1 2 3 4 5 6 
#
# 1 0.004799 -0.003006 -0.001624 0.000000 -0.000090 0.000000
# 2 -0.003006 0.020922 0.003779 0.000000 0.007466 0.000000
# 3 -0.001624 0.003779 0.015290 0.000000 0.009102 0.000000
# 4 0.000000 0.000000 0.000000 0.052044 0.000000 -0.000335
# 5 -0.000090 0.007466 0.009102 0.000000 0.027308 0.000000
# 6 0.000000 0.000000 0.000000 -0.000335 0.000000 0.031196
#
#
# Mechanical properties :
#
#
# Convention : Reuss Voigt Hill
#
# Bulk Modulus (GPa) = 25.43865 56.41222 40.92543
# Shear Modulus (GPa) = 30.05490 41.74174 35.89832
#
# Velocity S-wave (km/s) = 3.38475 3.98892 3.69919
# Velocity P-wave (km/s) = 4.99723 6.53597 5.81770
#
# Compressibility (1/GPa) = 0.03931027
#
# Stress axis : x y z
#
# Youngs Moduli (GPa) = 208.37321 47.79747 65.40130
#
# Poissons Ratio (x) = 0.14368 0.10619
# Poissons Ratio (y) = 0.62638 -0.24718
# Poissons Ratio (z) = 0.33832 -0.18064
#
# Static dielectric constant tensor:
#      x y z
#    x 2.139500 0.000000 0.042810 
#    y 0.000000 2.088180 0.000000 
#    z 0.042810 0.000000 2.188230 
# 
# From -- ./inp_files/56783.got.cif
#   From: 2010.05.17/outbox.cif.g08.bks.cpg/sg15_29_cif.got.tgz:56783.got - 2010.06.03 18:47:42.
