data_PCOD9300458
_publ_section_title
;
Structure prediction by ZEFSAII (Michael W. Deem and Ramdas Pophale) SiO2 
 PCOD9300458
Probable space group: C 2/C
;
_chemical_formula_sum "Si O2"
_cell_formula_units_Z 56
_cell_length_a 14.544918
_cell_length_b 12.411748
_cell_length_c 15.675587
_cell_angle_alpha 90.000000
_cell_angle_beta 113.265468
_cell_angle_gamma 90.000000
_cell_volume 2599.767317
_symmetry_space_group_name_H-M "C 2/C"
_symmetry_group_IT_number 15
_symmetry_cell_setting 'monoclinic'
loop_
_space_group_symop_operation_xyz
x,y,z
-x,y,1/2-z
-x,-y,-z
x,-y,1/2+z
1/2+x,1/2+y,z
1/2-x,1/2+y,1/2-z
1/2-x,1/2-y,-z
1/2+x,1/2-y,1/2+z
loop_
_atom_site_type_symbol
_atom_site_label
_atom_site_fract_x
_atom_site_fract_y
_atom_site_fract_z
Si Si1 0.500000 0.470153 0.750000
Si Si2 0.500000 0.007913 0.750000
Si Si3 0.481385 0.906341 0.923524
Si Si4 0.160868 0.126974 0.181425
Si Si5 0.772988 0.449200 0.120543
Si Si6 0.325315 0.794332 0.457634
Si Si7 0.779633 0.707321 0.373288
Si Si8 0.802892 0.986118 0.089712
O O1 0.434925 0.401926 0.795159
O O2 0.583463 0.533876 0.837047
O O3 0.606176 0.058133 0.822352
O O4 0.462482 0.948049 0.821453
O O5 0.392438 0.831229 0.921979
O O6 0.581262 0.838704 0.957354
O O7 0.500000 0.000000 0.000000
O O8 0.137454 0.202265 0.092542
O O9 0.239908 0.199189 0.262513
O O10 0.217568 0.017133 0.174607
O O11 0.736895 0.326629 0.100444
O O12 0.733800 0.511514 0.021773
O O13 0.250000 0.750000 0.500000
O O14 0.269531 0.897106 0.393912
O O15 0.717868 0.609655 0.392467
#
# Coordination Sequence:
#
# PCOD9300458 Si02
#       8
#     4   4   8   8   8   8   8   8
#     4  10  28  47  73 100 156 200 251 301 392 460
#     4  12  24  47  75 114 146 196 261 309 378 460
#     4  12  25  47  76 106 148 201 253 308 377 453
#     4  11  26  48  70 109 149 200 250 312 380 454
#     4  12  25  46  76 107 155 190 254 314 379 458
#     4  12  25  47  76 107 149 190 248 320 376 445
#     4  11  26  44  73 105 151 195 245 310 374 457
#     4  11  24  50  69 109 144 194 252 316 377 450
#
# _framework density 21.540389000000001
#
# number of rings (size 3 to 8) (size 9 to 14) (size 15 to 20)
#    0.000    0.571    5.714    0.429    8.000    4.000 
#    0.000    0.714    0.000    0.000    0.000    0.000 
#    0.000    0.000    0.000    0.000    0.000    0.000 
#
# Total GULP energy -156175.230267 kJ/mol
# GULP energy per Si atom -5577.686795 kJ/mol
# Density = 2.149136 g / cm^3
# Si number density = 21.540389 Si / 1000 Ang^3
#
#
#
# Elastic Constant Matrix: (Units=GPa)
#
#
# Indices 1 2 3 4 5 6 
#
# 1 111.0995 27.4976 33.1704 0.0000 24.3913 0.0000
# 2 27.4976 97.7291 12.9554 0.0000 3.7642 0.0000
# 3 33.1704 12.9554 99.3250 0.0000 18.1491 0.0000
# 4 0.0000 0.0000 0.0000 29.8471 0.0000 6.4694
# 5 24.3913 3.7642 18.1491 0.0000 47.6218 0.0000
# 6 0.0000 0.0000 0.0000 6.4694 0.0000 51.2365
#
#
#
# Elastic Compliance Matrix: (Units=1/GPa)
#
#
# Indices 1 2 3 4 5 6 
#
# 1 0.011478 -0.002701 -0.002629 0.000000 -0.004664 0.000000
# 2 -0.002701 0.011053 -0.000680 0.000000 0.000769 0.000000
# 3 -0.002629 -0.000680 0.011585 0.000000 -0.003015 0.000000
# 4 0.000000 0.000000 0.000000 0.034447 0.000000 -0.004349
# 5 -0.004664 0.000769 -0.003015 0.000000 0.024476 0.000000
# 6 0.000000 0.000000 0.000000 -0.004349 0.000000 0.020067
#
#
# Mechanical properties :
#
#
# Convention : Reuss Voigt Hill
#
# Bulk Modulus (GPa) = 45.25658 50.60004 47.92831
# Shear Modulus (GPa) = 37.73816 41.37644 39.55730
#
# Velocity S-wave (km/s) = 4.19020 4.38754 4.29000
# Velocity P-wave (km/s) = 6.66829 7.01492 6.84380
#
# Compressibility (1/GPa) = 0.02209623
#
# Stress axis : x y z
#
# Youngs Moduli (GPa) = 87.12090 90.47317 86.31483
#
# Poissons Ratio (x) = 0.24441 0.22690
# Poissons Ratio (y) = 0.23536 0.05870
# Poissons Ratio (z) = 0.22902 0.06153
#
# Static dielectric constant tensor:
#      x y z
#    x 1.749980 0.000000 -0.030790 
#    y 0.000000 1.791950 0.000000 
#    z -0.030790 0.000000 1.844350 
# 
# From -- ./inp_files/204574.got.cif
#   From: 2010.05.17/outbox.cif.g08.bks.cpg/sg15_103_cif.got.tgz:204574.got - 2010.06.03 18:47:42.
