data_PCOD9300033
_publ_section_title
;
Structure prediction by ZEFSAII (Michael W. Deem and Ramdas Pophale) SiO2 
 PCOD9300033
Probable space group: C 2/C
;
_chemical_formula_sum "Si O2"
_cell_formula_units_Z 52
_cell_length_a 14.398415
_cell_length_b 11.877851
_cell_length_c 14.460963
_cell_angle_alpha 90.000000
_cell_angle_beta 69.958001
_cell_angle_gamma 90.000000
_cell_volume 2323.376489
_symmetry_space_group_name_H-M "C 2/C"
_symmetry_group_IT_number 15
_symmetry_cell_setting 'monoclinic'
loop_
_space_group_symop_operation_xyz
x,y,z
-x,y,1/2-z
-x,-y,-z
x,-y,1/2+z
1/2+x,1/2+y,z
1/2-x,1/2+y,1/2-z
1/2-x,1/2-y,-z
1/2+x,1/2-y,1/2+z
loop_
_atom_site_type_symbol
_atom_site_label
_atom_site_fract_x
_atom_site_fract_y
_atom_site_fract_z
Si Si1 0.850510 0.697853 0.251790
Si Si2 0.437334 0.910380 0.078716
Si Si3 0.826270 0.786504 0.553237
Si Si4 0.590698 0.568714 0.837475
Si Si5 0.000000 0.492157 0.750000
Si Si6 0.248252 0.049877 0.153951
Si Si7 0.889279 0.033148 0.464868
O O1 0.744546 0.716439 0.334146
O O2 0.909082 0.814093 0.219264
O O3 0.908850 0.597807 0.285727
O O4 0.820953 0.647325 0.163057
O O5 0.425018 0.786723 0.039377
O O6 0.477053 0.929320 0.169417
O O7 0.323479 0.948774 0.109702
O O8 0.500000 0.000000 0.000000
O O9 0.750000 0.750000 0.500000
O O10 0.857449 0.910239 0.512081
O O11 0.675342 0.494289 0.759510
O O12 0.492080 0.492944 0.877173
O O13 0.608020 0.599018 0.939522
O O14 0.186538 0.078382 0.084513
#
# Coordination Sequence:
#
# PCOD9300033 Si02
#       7
#     8   8   8   8   4   8   8
#     4  11  24  42  67  96 133 177 227 278 343 404
#     4  11  24  40  63 101 135 178 221 280 341 411
#     4  12  22  40  69  98 128 178 227 277 342 413
#     4  11  24  44  66  98 132 175 233 281 340 404
#     4  10  26  42  66  98 136 178 222 288 338 404
#     4  11  23  42  66  94 133 176 223 281 344 397
#     4  11  25  42  69  96 133 177 229 285 331 417
#
# _framework density 22.381219000000002
#
# number of rings (size 3 to 8) (size 9 to 14) (size 15 to 20)
#    0.000    0.923    4.615    1.385    8.615    0.615 
#    0.000    3.077    0.000    0.000    0.000    0.000 
#    0.000    0.000    0.000    0.000    0.000    0.000 
#
# Total GULP energy -145127.661994 kJ/mol
# GULP energy per Si atom -5581.833154 kJ/mol
# Density = 2.233028 g / cm^3
# Si number density = 22.381219 Si / 1000 Ang^3
#
#
#
# Elastic Constant Matrix: (Units=GPa)
#
#
# Indices 1 2 3 4 5 6 
#
# 1 98.5444 9.2651 16.6049 0.0000 10.8872 0.0000
# 2 9.2651 71.6824 -2.0016 0.0000 -3.3564 0.0000
# 3 16.6049 -2.0016 54.6248 0.0000 -7.9538 0.0000
# 4 0.0000 0.0000 0.0000 25.1743 0.0000 -0.7627
# 5 10.8872 -3.3564 -7.9538 0.0000 45.8607 0.0000
# 6 0.0000 0.0000 0.0000 -0.7627 0.0000 27.1177
#
#
#
# Elastic Compliance Matrix: (Units=1/GPa)
#
#
# Indices 1 2 3 4 5 6 
#
# 1 0.011383 -0.001749 -0.004038 0.000000 -0.003531 0.000000
# 2 -0.001749 0.014292 0.001301 0.000000 0.001687 0.000000
# 3 -0.004038 0.001301 0.020247 0.000000 0.004565 0.000000
# 4 0.000000 0.000000 0.000000 0.039757 0.000000 0.001118
# 5 -0.003531 0.001687 0.004565 0.000000 0.023559 0.000000
# 6 0.000000 0.000000 0.000000 0.001118 0.000000 0.036908
#
#
# Mechanical properties :
#
#
# Convention : Reuss Voigt Hill
#
# Bulk Modulus (GPa) = 27.06495 30.28760 28.67628
# Shear Modulus (GPa) = 29.86258 33.02942 31.44600
#
# Velocity S-wave (km/s) = 3.65673 3.84574 3.75242
# Velocity P-wave (km/s) = 5.47246 5.76902 5.62270
#
# Compressibility (1/GPa) = 0.03694815
#
# Stress axis : x y z
#
# Youngs Moduli (GPa) = 87.85248 69.96994 49.39079
#
# Poissons Ratio (x) = 0.12240 0.19946
# Poissons Ratio (y) = 0.15368 -0.06426
# Poissons Ratio (z) = 0.35478 -0.09104
#
# Static dielectric constant tensor:
#      x y z
#    x 1.846670 0.000000 0.027180 
#    y 0.000000 2.313980 0.000000 
#    z 0.027180 0.000000 1.838330 
# 
# From -- ./inp_files/152559.got.cif
#   From: 2010.05.17/outbox.cif.g08.bks.cpg/sg15_77_cif.got.tgz:152559.got - 2010.06.03 18:47:42.
