data_PCOD9300167
_publ_section_title
;
Structure prediction by ZEFSAII (Michael W. Deem and Ramdas Pophale) SiO2 
 PCOD9300167
Probable space group: C 2/C
;
_chemical_formula_sum "Si O2"
_cell_formula_units_Z 28
_cell_length_a 23.163201
_cell_length_b 6.653576
_cell_length_c 9.461053
_cell_angle_alpha 90.000000
_cell_angle_beta 126.230569
_cell_angle_gamma 90.000000
_cell_volume 1176.185087
_symmetry_space_group_name_H-M "C 2/C"
_symmetry_group_IT_number 15
_symmetry_cell_setting 'monoclinic'
loop_
_space_group_symop_operation_xyz
x,y,z
-x,y,1/2-z
-x,-y,-z
x,-y,1/2+z
1/2+x,1/2+y,z
1/2-x,1/2+y,1/2-z
1/2-x,1/2-y,-z
1/2+x,1/2-y,1/2+z
loop_
_atom_site_type_symbol
_atom_site_label
_atom_site_fract_x
_atom_site_fract_y
_atom_site_fract_z
Si Si1 0.500000 0.499151 0.250000
Si Si2 0.157994 0.744467 0.720048
Si Si3 0.507563 0.760666 0.508296
Si Si4 0.778474 0.443973 0.459048
O O1 0.539623 0.656973 0.413602
O O2 0.462784 0.341188 0.305298
O O3 0.076025 0.800682 0.616643
O O4 0.171291 0.626842 0.594507
O O5 0.210687 0.934268 0.799950
O O6 0.180837 0.594799 0.878126
O O7 0.500000 0.000000 0.500000
O O8 0.750000 0.250000 0.500000
#
# Coordination Sequence:
#
# PCOD9300167 Si02
#       4
#     4   8   8   8
#     4  10  26  46  64 102 132 176 238 274 356 400
#     4  11  26  42  71  96 137 174 229 273 344 410
#     4  11  26  45  70  99 137 183 229 289 343 410
#     4  11  24  44  64 103 131 176 219 277 337 404
#
# _framework density 23.805776999999999
#
# number of rings (size 3 to 8) (size 9 to 14) (size 15 to 20)
#    0.000    1.143    2.857    0.857   12.000    2.286 
#    0.000    0.000    0.000    0.000    0.000    0.000 
#    0.000    0.000    0.000    0.000    0.000    0.000 
#
# Total GULP energy -78242.141706 kJ/mol
# GULP energy per Si atom -5588.724408 kJ/mol
# Density = 2.375159 g / cm^3
# Si number density = 23.805777 Si / 1000 Ang^3
#
#
#
# Elastic Constant Matrix: (Units=GPa)
#
#
# Indices 1 2 3 4 5 6 
#
# 1 56.7861 2.5375 26.9909 0.0000 4.8234 0.0000
# 2 2.5375 180.4481 39.7042 0.0000 -25.7602 0.0000
# 3 26.9909 39.7042 91.0864 0.0000 -32.7300 0.0000
# 4 0.0000 0.0000 0.0000 25.0817 0.0000 -11.4404
# 5 4.8234 -25.7602 -32.7300 0.0000 44.8565 0.0000
# 6 0.0000 0.0000 0.0000 -11.4404 0.0000 26.4349
#
#
#
# Elastic Compliance Matrix: (Units=1/GPa)
#
#
# Indices 1 2 3 4 5 6 
#
# 1 0.023637 0.000622 -0.010925 0.000000 -0.010156 0.000000
# 2 0.000622 0.006300 -0.002242 0.000000 0.001915 0.000000
# 3 -0.010925 -0.002242 0.020537 0.000000 0.014872 0.000000
# 4 0.000000 0.000000 0.000000 0.049676 0.000000 0.021498
# 5 -0.010156 0.001915 0.014872 0.000000 0.035337 0.000000
# 6 0.000000 0.000000 0.000000 0.021498 0.000000 0.047133
#
#
# Mechanical properties :
#
#
# Convention : Reuss Voigt Hill
#
# Bulk Modulus (GPa) = 39.39489 51.86511 45.63000
# Shear Modulus (GPa) = 23.12984 36.54714 29.83849
#
# Velocity S-wave (km/s) = 3.12044 3.92244 3.54420
# Velocity P-wave (km/s) = 5.43758 6.50754 5.99647
#
# Compressibility (1/GPa) = 0.02538401
#
# Stress axis : x y z
#
# Youngs Moduli (GPa) = 42.30595 158.73702 48.69240
#
# Poissons Ratio (x) = -0.09866 0.53194
# Poissons Ratio (y) = -0.02629 0.10917
# Poissons Ratio (z) = 0.46217 0.35590
#
# Static dielectric constant tensor:
#      x y z
#    x 1.906860 0.000000 -0.048930 
#    y 0.000000 1.927580 0.000000 
#    z -0.048930 0.000000 1.993640 
# 
# From -- ./inp_files/68066.got.cif
#   From: 2010.05.17/outbox.cif.g08.bks.cpg/sg15_35_cif.got.tgz:68066.got - 2010.06.03 18:47:42.
