data_PCOD9300435
_publ_section_title
;
Structure prediction by ZEFSAII (Michael W. Deem and Ramdas Pophale) SiO2 
 PCOD9300435
Probable space group: C 2/C
;
_chemical_formula_sum "Si O2"
_cell_formula_units_Z 40
_cell_length_a 13.821042
_cell_length_b 18.258231
_cell_length_c 11.538681
_cell_angle_alpha 90.000000
_cell_angle_beta 39.170651
_cell_angle_gamma 90.000000
_cell_volume 1839.161883
_symmetry_space_group_name_H-M "C 2/C"
_symmetry_group_IT_number 15
_symmetry_cell_setting 'monoclinic'
loop_
_space_group_symop_operation_xyz
x,y,z
-x,y,1/2-z
-x,-y,-z
x,-y,1/2+z
1/2+x,1/2+y,z
1/2-x,1/2+y,1/2-z
1/2-x,1/2-y,-z
1/2+x,1/2-y,1/2+z
loop_
_atom_site_type_symbol
_atom_site_label
_atom_site_fract_x
_atom_site_fract_y
_atom_site_fract_z
Si Si1 0.153958 0.990535 0.281039
Si Si2 0.000000 0.907146 0.750000
Si Si3 0.240194 0.824233 0.155826
Si Si4 0.756235 0.816291 0.084197
Si Si5 0.500000 0.219606 0.250000
Si Si6 0.000000 0.566831 0.750000
Si Si7 0.500000 0.000000 0.000000
O O1 0.174713 0.905826 0.226186
O O2 0.311717 0.009492 0.199979
O O3 0.000000 0.000000 0.500000
O O4 0.121453 0.041702 0.201100
O O5 0.079521 0.854800 0.582356
O O6 0.272189 0.796065 0.256227
O O7 0.118744 0.770947 0.208573
O O8 0.397309 0.825347 0.936363
O O9 0.634179 0.877137 0.161540
O O10 0.750000 0.750000 0.000000
O O11 0.031753 0.519436 0.606854
#
# Coordination Sequence:
#
# PCOD9300435 Si02
#       7
#     8   4   8   8   4   4   4
#     4  12  25  48  76 111 153 202 260 328 400 472
#     4  12  24  48  72 109 155 200 258 330 398 474
#     4  11  25  51  74 112 151 208 260 328 396 480
#     4  12  27  44  76 111 151 200 259 322 404 476
#     4  10  27  51  74 106 156 206 266 314 406 481
#     4  12  25  51  70 115 149 204 252 322 392 465
#     4  12  26  48  78 112 160 198 264 322 398 474
#
# _framework density 21.749037000000001
#
# number of rings (size 3 to 8) (size 9 to 14) (size 15 to 20)
#    0.000    0.400    6.000    1.200    5.600    0.800 
#    7.200    0.000    0.000    0.000    0.000    0.000 
#    0.000    0.000    0.000    0.000    0.000    0.000 
#
# Total GULP energy -111347.352566 kJ/mol
# GULP energy per Si atom -5567.367628 kJ/mol
# Density = 2.169954 g / cm^3
# Si number density = 21.749037 Si / 1000 Ang^3
#
#
#
# Elastic Constant Matrix: (Units=GPa)
#
#
# Indices 1 2 3 4 5 6 
#
# 1 140.6355 23.5338 60.7909 -0.0005 6.1181 0.0002
# 2 23.5338 80.2037 47.7958 -0.0002 14.6188 -0.0001
# 3 60.7909 47.7958 190.9900 -0.0004 7.0655 0.0000
# 4 -0.0005 -0.0002 -0.0004 27.0554 0.0006 12.4214
# 5 6.1181 14.6188 7.0655 0.0006 60.0290 -0.0001
# 6 0.0002 -0.0001 0.0000 12.4214 -0.0001 -11.3586
#
#
#
# Elastic Compliance Matrix: (Units=1/GPa)
#
#
# Indices 1 2 3 4 5 6 
#
# 1 0.008321 -0.000952 -0.002398 0.000000 -0.000334 0.000000
# 2 -0.000952 0.015381 -0.003426 0.000000 -0.003245 0.000000
# 3 -0.002398 -0.003426 0.006846 0.000000 0.000273 0.000000
# 4 0.000000 0.000000 0.000000 0.024607 0.000000 0.026909
# 5 -0.000334 -0.003245 0.000273 0.000000 0.017451 0.000000
# 6 0.000000 0.000000 0.000000 0.026909 0.000000 -0.058612
#
#
# Mechanical properties :
#
#
# Convention : Reuss Voigt Hill
#
# Bulk Modulus (GPa) = 58.83521 75.11891 66.97706
# Shear Modulus (GPa) = 150.55281 33.79240 92.17260
#
# Velocity S-wave (km/s) = 8.32905 3.94603 6.51706
# Velocity P-wave (km/s) = 10.93654 7.44147 9.35370
#
# Compressibility (1/GPa) = 0.01699663
#
# Stress axis : x y z
#
# Youngs Moduli (GPa) = 120.17924 65.01623 146.06131
#
# Poissons Ratio (x) = 0.06187 0.35025
# Poissons Ratio (y) = 0.11437 0.50042
# Poissons Ratio (z) = 0.28819 0.22275
#
# Static dielectric constant tensor:
#      x y z
#    x 1.682800 0.000000 -0.143020 
#    y 0.000000 1.786910 0.000000 
#    z -0.143020 0.000000 1.633300 
# 
# From -- ./inp_files/98131.got.cif
#   From: 2010.05.17/outbox.cif.g08.bks.cpg/sg15_50_cif.got.tgz:98131.got - 2010.06.03 18:47:42.
