data_PCOD9300148
_publ_section_title
;
Structure prediction by ZEFSAII (Michael W. Deem and Ramdas Pophale) SiO2 
 PCOD9300148
Probable space group: C 2/C
;
_chemical_formula_sum "Si O2"
_cell_formula_units_Z 52
_cell_length_a 10.050290
_cell_length_b 22.369060
_cell_length_c 10.860350
_cell_angle_alpha 90.000000
_cell_angle_beta 118.896015
_cell_angle_gamma 90.000000
_cell_volume 2137.594760
_symmetry_space_group_name_H-M "C 2/C"
_symmetry_group_IT_number 15
_symmetry_cell_setting 'monoclinic'
loop_
_space_group_symop_operation_xyz
x,y,z
-x,y,1/2-z
-x,-y,-z
x,-y,1/2+z
1/2+x,1/2+y,z
1/2-x,1/2+y,1/2-z
1/2-x,1/2-y,-z
1/2+x,1/2-y,1/2+z
loop_
_atom_site_type_symbol
_atom_site_label
_atom_site_fract_x
_atom_site_fract_y
_atom_site_fract_z
Si Si1 0.320178 0.678418 0.777300
Si Si2 0.104796 0.718514 0.879472
Si Si3 0.339658 0.430681 0.436894
Si Si4 0.841161 0.050498 0.327564
Si Si5 0.107380 0.600296 0.027474
Si Si6 0.000000 0.713800 0.250000
Si Si7 0.807114 0.616170 0.014151
O O1 0.160262 0.685934 0.777527
O O2 0.394995 0.631594 0.902759
O O3 0.406074 0.740485 0.795001
O O4 0.293936 0.647568 0.635013
O O5 0.000000 0.763967 0.750000
O O6 0.250000 0.750000 0.000000
O O7 0.078482 0.669035 0.973655
O O8 0.316582 0.479270 0.319790
O O9 0.476368 0.445203 0.591543
O O10 0.181292 0.427249 0.438469
O O11 0.737572 0.087165 0.186749
O O12 0.785159 0.073849 0.436309
O O13 0.946501 0.580907 0.011446
O O14 0.885455 0.670058 0.127112
#
# Coordination Sequence:
#
# PCOD9300148 Si02
#       7
#     8   8   8   8   8   4   8
#     4  11  25  43  68 100 137 184 229 296 360 429
#     4  11  24  43  70 100 143 187 236 297 360 441
#     4  10  26  45  71 101 141 191 241 296 368 431
#     4  11  24  46  71 104 141 188 243 299 360 446
#     4  11  23  47  68 104 144 182 243 299 363 436
#     4  12  24  46  70 106 144 184 238 294 370 444
#     4  12  24  44  72 106 143 181 240 294 366 432
#
# _framework density 24.326407
#
# number of rings (size 3 to 8) (size 9 to 14) (size 15 to 20)
#    0.000    0.923    3.077    2.769    2.154    3.077 
#    2.769    0.000    0.000    0.000    0.000    0.000 
#    0.000    0.000    0.000    0.000    0.000    0.000 
#
# Total GULP energy -144977.177623 kJ/mol
# GULP energy per Si atom -5576.045293 kJ/mol
# Density = 2.427104 g / cm^3
# Si number density = 24.326407 Si / 1000 Ang^3
#
#
#
# Elastic Constant Matrix: (Units=GPa)
#
#
# Indices 1 2 3 4 5 6 
#
# 1 76.4889 2.8153 -32.4596 0.0000 -18.7374 0.0000
# 2 2.8153 43.6935 10.2988 0.0000 0.0407 0.0000
# 3 -32.4596 10.2988 91.5183 0.0000 13.7372 0.0000
# 4 0.0000 0.0000 0.0000 22.5883 0.0000 -5.9407
# 5 -18.7374 0.0407 13.7372 0.0000 32.2018 0.0000
# 6 0.0000 0.0000 0.0000 -5.9407 0.0000 24.2444
#
#
#
# Elastic Compliance Matrix: (Units=1/GPa)
#
#
# Indices 1 2 3 4 5 6 
#
# 1 0.017297 -0.002353 0.005223 0.000000 0.007840 0.000000
# 2 -0.002353 0.023872 -0.003537 0.000000 0.000110 0.000000
# 3 0.005223 -0.003537 0.013591 0.000000 -0.002754 0.000000
# 4 0.000000 0.000000 0.000000 0.047320 0.000000 0.011595
# 5 0.007840 0.000110 -0.002754 0.000000 0.036791 0.000000
# 6 0.000000 0.000000 0.000000 0.011595 0.000000 0.044088
#
#
# Mechanical properties :
#
#
# Convention : Reuss Voigt Hill
#
# Bulk Modulus (GPa) = 18.71765 19.22331 18.97048
# Shear Modulus (GPa) = 24.73997 31.20996 27.97496
#
# Velocity S-wave (km/s) = 3.19250 3.58574 3.39482
# Velocity P-wave (km/s) = 4.61525 5.00627 4.81473
#
# Compressibility (1/GPa) = 0.05342552
#
# Stress axis : x y z
#
# Youngs Moduli (GPa) = 57.81216 41.89004 73.57938
#
# Poissons Ratio (x) = 0.09857 -0.38431
# Poissons Ratio (y) = 0.13603 0.26028
# Poissons Ratio (z) = -0.30195 0.14818
#
# Static dielectric constant tensor:
#      x y z
#    x 1.902960 0.000000 -0.163980 
#    y 0.000000 4.397950 0.000000 
#    z -0.163980 0.000000 1.707370 
# 
# From -- ./inp_files/89707.got.cif
#   From: 2010.05.17/outbox.cif.g08.bks.cpg/sg15_45_cif.got.tgz:89707.got - 2010.06.03 18:47:42.
