data_PCOD9300045
_publ_section_title
;
Structure prediction by ZEFSAII (Michael W. Deem and Ramdas Pophale) SiO2 
 PCOD9300045
Probable space group: C 2/C
;
_chemical_formula_sum "Si O2"
_cell_formula_units_Z 40
_cell_length_a 9.506755
_cell_length_b 7.750288
_cell_length_c 23.468631
_cell_angle_alpha 90.000000
_cell_angle_beta 72.842055
_cell_angle_gamma 90.000000
_cell_volume 1652.214344
_symmetry_space_group_name_H-M "C 2/C"
_symmetry_group_IT_number 15
_symmetry_cell_setting 'monoclinic'
loop_
_space_group_symop_operation_xyz
x,y,z
-x,y,1/2-z
-x,-y,-z
x,-y,1/2+z
1/2+x,1/2+y,z
1/2-x,1/2+y,1/2-z
1/2-x,1/2-y,-z
1/2+x,1/2-y,1/2+z
loop_
_atom_site_type_symbol
_atom_site_label
_atom_site_fract_x
_atom_site_fract_y
_atom_site_fract_z
Si Si1 0.404342 0.468083 0.143642
Si Si2 0.750000 0.250000 0.500000
Si Si3 0.946881 0.639214 0.595352
Si Si4 0.583060 0.990754 0.187192
Si Si5 0.500000 0.327344 0.250000
Si Si6 0.680847 0.603378 0.545993
O O1 0.422358 0.667006 0.122903
O O2 0.238093 0.409780 0.151952
O O3 0.432989 0.438157 0.207237
O O4 0.524834 0.362071 0.093766
O O5 0.592274 0.150616 0.538888
O O6 0.665749 0.432792 0.510854
O O7 0.802212 0.571847 0.580652
O O8 0.980194 0.518121 0.645188
O O9 0.500000 0.902079 0.250000
O O10 0.608486 0.186137 0.207300
O O11 0.750000 0.750000 0.500000
#
# Coordination Sequence:
#
# PCOD9300045 Si02
#       6
#     8   4   8   8   4   8
#     4  11  26  45  72 106 144 192 244 306 372 440
#     4  10  26  46  76 106 146 194 244 304 366 434
#     4  11  26  47  72 109 145 194 245 308 370 443
#     4  10  27  43  70 101 146 190 242 301 370 443
#     4  10  26  42  74 104 144 194 246 306 370 444
#     4  11  27  48  77 108 151 193 252 307 374 443
#
# _framework density 24.209935000000002
#
# number of rings (size 3 to 8) (size 9 to 14) (size 15 to 20)
#    0.600    0.800    0.000    1.800   15.400    4.800 
#    0.000    0.000    0.000    0.000    0.000    0.000 
#    0.000    0.000    0.000    0.000    0.000    0.000 
#
# Total GULP energy -111371.043355 kJ/mol
# GULP energy per Si atom -5568.552168 kJ/mol
# Density = 2.415483 g / cm^3
# Si number density = 24.209935 Si / 1000 Ang^3
#
#
#
# Elastic Constant Matrix: (Units=GPa)
#
#
# Indices 1 2 3 4 5 6 
#
# 1 121.7060 -25.5473 54.0997 0.0000 -29.8479 0.0000
# 2 -25.5473 60.5636 17.3118 0.0000 -14.6346 0.0000
# 3 54.0997 17.3118 78.7092 0.0000 -13.8680 0.0000
# 4 0.0000 0.0000 0.0000 36.6461 0.0000 -8.5077
# 5 -29.8479 -14.6346 -13.8680 0.0000 46.8413 0.0000
# 6 0.0000 0.0000 0.0000 -8.5077 0.0000 5.7961
#
#
#
# Elastic Compliance Matrix: (Units=1/GPa)
#
#
# Indices 1 2 3 4 5 6 
#
# 1 0.024261 0.019301 -0.018078 0.000000 0.016138 0.000000
# 2 0.019301 0.033965 -0.017619 0.000000 0.017694 0.000000
# 3 -0.018078 -0.017619 0.027437 0.000000 -0.008901 0.000000
# 4 0.000000 0.000000 0.000000 0.041394 0.000000 0.060760
# 5 0.016138 0.017694 -0.008901 0.000000 0.034525 0.000000
# 6 0.000000 0.000000 0.000000 0.060760 0.000000 0.261715
#
#
# Mechanical properties :
#
#
# Convention : Reuss Voigt Hill
#
# Bulk Modulus (GPa) = 18.91343 39.18967 29.05155
# Shear Modulus (GPa) = 10.55490 32.19766 21.37628
#
# Velocity S-wave (km/s) = 2.09026 3.65078 2.97468
# Velocity P-wave (km/s) = 3.69524 5.83040 4.88100
#
# Compressibility (1/GPa) = 0.05287247
#
# Stress axis : x y z
#
# Youngs Moduli (GPa) = 41.21773 29.44187 36.44660
#
# Poissons Ratio (x) = -0.56826 0.65887
# Poissons Ratio (y) = -0.79554 0.64216
# Poissons Ratio (z) = 0.74512 0.51874
#
# Static dielectric constant tensor:
#      x y z
#    x 1.877820 0.000000 0.004080 
#    y 0.000000 1.999210 0.000000 
#    z 0.004080 0.000000 2.024950 
# 
# From -- ./inp_files/262491.got.cif
#   From: 2010.05.17/outbox.cif.g08.bks.cpg/sg15_132_cif.got.tgz:262491.got - 2010.06.03 18:47:42.
