data_PCOD9300051
_publ_section_title
;
Structure prediction by ZEFSAII (Michael W. Deem and Ramdas Pophale) SiO2 
 PCOD9300051
Probable space group: C 2/C
;
_chemical_formula_sum "Si O2"
_cell_formula_units_Z 28
_cell_length_a 9.084212
_cell_length_b 14.038786
_cell_length_c 9.367732
_cell_angle_alpha 90.000000
_cell_angle_beta 75.800300
_cell_angle_gamma 90.000000
_cell_volume 1158.177649
_symmetry_space_group_name_H-M "C 2/C"
_symmetry_group_IT_number 15
_symmetry_cell_setting 'monoclinic'
loop_
_space_group_symop_operation_xyz
x,y,z
-x,y,1/2-z
-x,-y,-z
x,-y,1/2+z
1/2+x,1/2+y,z
1/2-x,1/2+y,1/2-z
1/2-x,1/2-y,-z
1/2+x,1/2-y,1/2+z
loop_
_atom_site_type_symbol
_atom_site_label
_atom_site_fract_x
_atom_site_fract_y
_atom_site_fract_z
Si Si1 0.172088 0.511501 0.904917
Si Si2 0.246451 0.375587 0.115236
Si Si3 0.500000 0.721976 0.250000
Si Si4 0.934154 0.106993 0.993570
O O1 0.872637 0.708159 0.843709
O O2 0.809187 0.538661 0.765394
O O3 0.244699 0.415773 0.953741
O O4 0.274302 0.595344 0.952899
O O5 0.417695 0.347178 0.116756
O O6 0.000000 0.500000 0.000000
O O7 0.423383 0.659932 0.145192
O O8 0.000000 0.000000 0.000000
#
# Coordination Sequence:
#
# PCOD9300051 Si02
#       4
#     8   8   4   8
#     4  11  22  45  73 106 146 196 240 304 377 451
#     4  11  24  45  74 111 150 192 254 306 372 443
#     4  12  24  48  74 112 152 196 258 322 356 448
#     4  10  26  42  75 101 151 199 248 303 382 438
#
# _framework density 24.175909000000001
#
# number of rings (size 3 to 8) (size 9 to 14) (size 15 to 20)
#    0.000    1.143    2.857    1.714   16.000    1.143 
#    0.000    0.000    0.000    0.000    0.000    0.000 
#    0.000    0.000    0.000    0.000    0.000    0.000 
#
# Total GULP energy -78174.242902 kJ/mol
# GULP energy per Si atom -5583.874493 kJ/mol
# Density = 2.412088 g / cm^3
# Si number density = 24.175909 Si / 1000 Ang^3
#
#
#
# Elastic Constant Matrix: (Units=GPa)
#
#
# Indices 1 2 3 4 5 6 
#
# 1 170.0754 8.2139 28.1727 0.0000 -2.9402 0.0000
# 2 8.2139 89.8061 49.1118 0.0000 2.9862 0.0000
# 3 28.1727 49.1118 125.9848 0.0000 -10.3102 0.0000
# 4 0.0000 0.0000 0.0000 44.0722 0.0000 -1.1008
# 5 -2.9402 2.9862 -10.3102 0.0000 40.0345 0.0000
# 6 0.0000 0.0000 0.0000 -1.1008 0.0000 35.9726
#
#
#
# Elastic Compliance Matrix: (Units=1/GPa)
#
#
# Indices 1 2 3 4 5 6 
#
# 1 0.006110 0.000234 -0.001453 0.000000 0.000057 0.000000
# 2 0.000234 0.014416 -0.005883 0.000000 -0.002573 0.000000
# 3 -0.001453 -0.005883 0.010811 0.000000 0.003116 0.000000
# 4 0.000000 0.000000 0.000000 0.022707 0.000000 0.000695
# 5 0.000057 -0.002573 0.003116 0.000000 0.025977 0.000000
# 6 0.000000 0.000000 0.000000 0.000695 0.000000 0.027820
#
#
# Mechanical properties :
#
#
# Convention : Reuss Voigt Hill
#
# Bulk Modulus (GPa) = 58.36504 61.87368 60.11936
# Shear Modulus (GPa) = 39.13704 44.04039 41.58872
#
# Velocity S-wave (km/s) = 4.02785 4.27273 4.15209
# Velocity P-wave (km/s) = 6.76947 7.07038 6.92156
#
# Compressibility (1/GPa) = 0.01713354
#
# Stress axis : x y z
#
# Youngs Moduli (GPa) = 163.66364 69.36591 92.50232
#
# Poissons Ratio (x) = -0.01621 0.13438
# Poissons Ratio (y) = -0.03825 0.54416
# Poissons Ratio (z) = 0.23777 0.40806
#
# Static dielectric constant tensor:
#      x y z
#    x 2.092550 0.000000 0.008500 
#    y 0.000000 1.965650 0.000000 
#    z 0.008500 0.000000 1.960800 
# 
# From -- ./inp_files/75138.got.cif
#   From: 2010.05.17/outbox.cif.g08.bks.cpg/sg15_38_cif.got.tgz:75138.got - 2010.06.03 18:47:42.
