data_PCOD9300443
_publ_section_title
;
Structure prediction by ZEFSAII (Michael W. Deem and Ramdas Pophale) SiO2 
 PCOD9300443
Probable space group: C 2/C
;
_chemical_formula_sum "Si O2"
_cell_formula_units_Z 60
_cell_length_a 19.286471
_cell_length_b 9.589796
_cell_length_c 23.453979
_cell_angle_alpha 90.000000
_cell_angle_beta 33.791378
_cell_angle_gamma 90.000000
_cell_volume 2412.607459
_symmetry_space_group_name_H-M "C 2/C"
_symmetry_group_IT_number 15
_symmetry_cell_setting 'monoclinic'
loop_
_space_group_symop_operation_xyz
x,y,z
-x,y,1/2-z
-x,-y,-z
x,-y,1/2+z
1/2+x,1/2+y,z
1/2-x,1/2+y,1/2-z
1/2-x,1/2-y,-z
1/2+x,1/2-y,1/2+z
loop_
_atom_site_type_symbol
_atom_site_label
_atom_site_fract_x
_atom_site_fract_y
_atom_site_fract_z
Si Si1 0.128680 0.052214 0.300533
Si Si2 0.040580 0.236433 0.539514
Si Si3 0.300036 0.785969 0.171337
Si Si4 0.324720 0.398730 0.852556
Si Si5 0.543005 0.062508 0.552200
Si Si6 0.000000 0.000000 0.000000
Si Si7 0.676942 0.605096 0.543897
Si Si8 0.112776 0.395015 0.133755
O O1 0.222399 0.159732 0.269452
O O2 0.096878 0.103760 0.259084
O O3 0.018992 0.060546 0.422295
O O4 0.196861 0.904693 0.243759
O O5 0.168507 0.223442 0.413018
O O6 0.020367 0.396770 0.564997
O O7 0.062619 0.154978 0.583374
O O8 0.951286 0.150919 0.558448
O O9 0.427358 0.863219 0.102553
O O10 0.349149 0.529233 0.878104
O O11 0.346775 0.256153 0.871344
O O12 0.179953 0.411034 0.932758
O O13 0.560673 0.108427 0.605314
O O14 0.750000 0.750000 0.500000
O O15 0.768226 0.496910 0.449241
O O16 0.000000 0.448209 0.250000
#
# Coordination Sequence:
#
# PCOD9300443 Si02
#       8
#     8   8   8   8   8   4   8   8
#     4  11  25  46  68 105 140 185 234 298 354 428
#     4  11  23  44  69 100 140 181 236 289 355 420
#     4  11  25  42  72 100 140 185 239 288 363 421
#     4  11  24  44  76 102 141 190 238 295 357 426
#     4  11  22  44  70 100 138 190 234 296 354 422
#     4  10  28  44  64 104 142 184 236 288 360 430
#     4  11  21  45  71 100 142 186 237 294 359 419
#     4  11  25  43  68 106 144 190 242 291 355 427
#
# _framework density 24.869357999999998
#
# number of rings (size 3 to 8) (size 9 to 14) (size 15 to 20)
#    0.000    1.067    4.000    2.800    1.867   10.667 
#    2.400    0.667    0.000    0.000    0.000    0.000 
#    0.000    0.000    0.000    0.000    0.000    0.000 
#
# Total GULP energy -167265.364763 kJ/mol
# GULP energy per Si atom -5575.512159 kJ/mol
# Density = 2.481275 g / cm^3
# Si number density = 24.869358 Si / 1000 Ang^3
#
#
#
# Elastic Constant Matrix: (Units=GPa)
#
#
# Indices 1 2 3 4 5 6 
#
# 1 79.6683 13.1414 35.0725 -0.0001 8.8588 0.0000
# 2 13.1414 92.5946 2.4014 -0.0001 26.0553 0.0000
# 3 35.0725 2.4014 125.3328 -0.0002 33.5124 0.0001
# 4 -0.0001 -0.0001 -0.0002 33.0154 0.0000 9.0566
# 5 8.8588 26.0553 33.5124 0.0000 57.3769 0.0000
# 6 0.0000 0.0000 0.0001 9.0566 0.0000 49.3263
#
#
#
# Elastic Compliance Matrix: (Units=1/GPa)
#
#
# Indices 1 2 3 4 5 6 
#
# 1 0.014750 -0.002373 -0.004457 0.000000 0.001404 0.000000
# 2 -0.002373 0.013006 0.002247 0.000000 -0.006852 0.000000
# 3 -0.004457 0.002247 0.010988 0.000000 -0.006750 0.000000
# 4 0.000000 0.000000 0.000000 0.031895 0.000000 -0.005856
# 5 0.001404 -0.006852 -0.006750 0.000000 0.024266 0.000000
# 6 0.000000 0.000000 0.000000 -0.005856 0.000000 0.021348
#
#
# Mechanical properties :
#
#
# Convention : Reuss Voigt Hill
#
# Bulk Modulus (GPa) = 33.80895 44.31405 39.06150
# Shear Modulus (GPa) = 36.96067 44.40907 40.68487
#
# Velocity S-wave (km/s) = 3.85930 4.23033 4.04907
# Velocity P-wave (km/s) = 5.78645 6.45898 6.13194
#
# Compressibility (1/GPa) = 0.02957797
#
# Stress axis : x y z
#
# Youngs Moduli (GPa) = 67.79853 76.88505 91.00961
#
# Poissons Ratio (x) = 0.18242 0.40566
# Poissons Ratio (y) = 0.16086 -0.20450
# Poissons Ratio (z) = 0.30220 -0.17276
#
# Static dielectric constant tensor:
#      x y z
#    x -7.385200 0.000010 -0.309240 
#    y 0.000010 2.109780 0.000000 
#    z -0.309240 0.000000 2.109000 
# 
# From -- ./inp_files/279684.got.cif
#   From: 2010.05.17/outbox.cif.g08.bks.cpg/sg15_140_cif.got.tgz:279684.got - 2010.06.03 18:47:42.
