data_PCOD9300571
_publ_section_title
;
Structure prediction by ZEFSAII (Michael W. Deem and Ramdas Pophale) SiO2 
 PCOD9300571
Probable space group: C 2/C
;
_chemical_formula_sum "Si O2"
_cell_formula_units_Z 64
_cell_length_a 23.361473
_cell_length_b 31.142489
_cell_length_c 16.399955
_cell_angle_alpha 90.000000
_cell_angle_beta 160.473467
_cell_angle_gamma 90.000000
_cell_volume 3988.035115
_symmetry_space_group_name_H-M "C 2/C"
_symmetry_group_IT_number 15
_symmetry_cell_setting 'monoclinic'
loop_
_space_group_symop_operation_xyz
x,y,z
-x,y,1/2-z
-x,-y,-z
x,-y,1/2+z
1/2+x,1/2+y,z
1/2-x,1/2+y,1/2-z
1/2-x,1/2-y,-z
1/2+x,1/2-y,1/2+z
loop_
_atom_site_type_symbol
_atom_site_label
_atom_site_fract_x
_atom_site_fract_y
_atom_site_fract_z
Si Si1 0.538288 0.291740 0.163623
Si Si2 0.222019 0.289921 0.852093
Si Si3 0.393230 0.881267 0.753821
Si Si4 0.704421 0.068215 0.647273
Si Si5 0.402144 0.612253 0.778221
Si Si6 0.479975 0.022920 0.628765
Si Si7 0.683180 0.531026 0.532830
Si Si8 0.769469 0.937974 0.832126
O O1 0.656973 0.290265 0.404585
O O2 0.599480 0.251165 0.193628
O O3 0.568650 0.337659 0.161771
O O4 0.346581 0.288610 0.941561
O O5 0.124094 0.334856 0.728841
O O6 0.251025 0.887666 0.493231
O O7 0.357874 0.917386 0.773647
O O8 0.579853 0.891040 0.970715
O O9 0.856096 0.079437 0.788758
O O10 0.766389 0.060677 0.822660
O O11 0.595645 0.025692 0.477860
O O12 0.574730 0.594579 0.969246
O O13 0.500000 0.034013 0.750000
O O14 0.658800 0.027837 0.819186
O O15 0.337982 0.051854 0.393046
O O16 0.664064 0.483188 0.544356
O O17 0.500000 0.543716 0.250000
#
# Coordination Sequence:
#
# PCOD9300571 Si02
#       8
#     8   8   8   8   8   8   8   8
#     4   9  18  31  43  71 100 136 171 204 247 304
#     4   9  18  29  47  66 102 137 170 203 253 301
#     4  11  18  35  51  73 103 145 169 211 255 296
#     4  11  23  36  51  77 104 132 181 217 249 302
#     4  11  22  31  53  78 103 138 179 211 245 306
#     4  11  23  38  54  74 103 134 173 218 262 304
#     4  11  23  38  55  72 103 138 170 216 267 300
#     4  11  21  36  54  73 103 135 177 213 252 302
#
# _framework density 16.048003999999999
#
# number of rings (size 3 to 8) (size 9 to 14) (size 15 to 20)
#    0.000    1.500    3.750    3.000    5.250    1.000 
#    0.000    0.000    0.000    0.000    0.000    0.000 
#    0.000    6.000    0.000    0.000    0.000    0.000 
#
# Total GULP energy -178492.037353 kJ/mol
# GULP energy per Si atom -5577.876167 kJ/mol
# Density = 1.601148 g / cm^3
# Si number density = 16.048004 Si / 1000 Ang^3
#
#
#
# Elastic Constant Matrix: (Units=GPa)
#
#
# Indices 1 2 3 4 5 6 
#
# 1 62.6371 10.0765 8.3197 0.0000 -11.4272 0.0000
# 2 10.0765 69.1023 10.3681 0.0000 -6.1524 0.0000
# 3 8.3197 10.3681 50.8881 -0.0001 -11.5566 -0.0001
# 4 0.0000 0.0000 -0.0001 14.5649 0.0000 6.4998
# 5 -11.4272 -6.1524 -11.5566 0.0000 21.1112 0.0000
# 6 0.0000 0.0000 -0.0001 6.4998 0.0000 17.9946
#
#
#
# Elastic Compliance Matrix: (Units=1/GPa)
#
#
# Indices 1 2 3 4 5 6 
#
# 1 0.017943 -0.001740 -0.000558 0.000000 0.008900 0.000000
# 2 -0.001740 0.015272 -0.002318 0.000000 0.002240 0.000000
# 3 -0.000558 -0.002318 0.022831 0.000000 0.011520 0.000000
# 4 0.000000 0.000000 0.000000 0.081852 0.000000 -0.029566
# 5 0.008900 0.002240 0.011520 0.000000 0.059144 0.000000
# 6 0.000000 0.000000 0.000000 -0.029566 0.000000 0.066252
#
#
# Mechanical properties :
#
#
# Convention : Reuss Voigt Hill
#
# Bulk Modulus (GPa) = 21.36186 26.68402 24.02294
# Shear Modulus (GPa) = 17.35318 20.99169 19.17244
#
# Velocity S-wave (km/s) = 3.29193 3.62063 3.46018
# Velocity P-wave (km/s) = 5.27154 5.84314 5.56469
#
# Compressibility (1/GPa) = 0.04681241
#
# Stress axis : x y z
#
# Youngs Moduli (GPa) = 55.73323 65.47786 43.80055
#
# Poissons Ratio (x) = 0.11395 0.02443
# Poissons Ratio (y) = 0.09700 0.10155
# Poissons Ratio (z) = 0.03109 0.15181
#
# Static dielectric constant tensor:
#      x y z
#    x 1.533520 0.000000 0.006120 
#    y 0.000000 1.528950 0.000000 
#    z 0.006120 0.000000 1.525880 
# 
# From -- ./inp_files/149145.got.cif
#   From: 2010.05.17/outbox.cif.g08.bks.cpg/sg15_75_cif.got.tgz:149145.got - 2010.06.03 18:47:42.
