data_PCOD9300159
_publ_section_title
;
Structure prediction by ZEFSAII (Michael W. Deem and Ramdas Pophale) SiO2 
 PCOD9300159
Probable space group: C 2/C
;
_chemical_formula_sum "Si O2"
_cell_formula_units_Z 36
_cell_length_a 15.744688
_cell_length_b 10.002249
_cell_length_c 10.031221
_cell_angle_alpha 90.000000
_cell_angle_beta 115.709828
_cell_angle_gamma 90.000000
_cell_volume 1423.349569
_symmetry_space_group_name_H-M "C 2/C"
_symmetry_group_IT_number 15
_symmetry_cell_setting 'monoclinic'
loop_
_space_group_symop_operation_xyz
x,y,z
-x,y,1/2-z
-x,-y,-z
x,-y,1/2+z
1/2+x,1/2+y,z
1/2-x,1/2+y,1/2-z
1/2-x,1/2-y,-z
1/2+x,1/2-y,1/2+z
loop_
_atom_site_type_symbol
_atom_site_label
_atom_site_fract_x
_atom_site_fract_y
_atom_site_fract_z
Si Si1 0.650827 0.846657 0.262375
Si Si2 0.813880 0.144102 0.704355
Si Si3 0.139676 0.517340 0.501007
Si Si4 0.944570 0.078850 0.348259
Si Si5 0.500000 0.192443 0.250000
O O1 0.753749 0.796104 0.285434
O O2 0.577251 0.735874 0.161856
O O3 0.644249 0.887719 0.411065
O O4 0.638049 0.978402 0.160372
O O5 0.734110 0.109342 0.538693
O O6 0.910539 0.218749 0.736343
O O7 0.846250 0.996723 0.770604
O O8 0.048475 0.597924 0.391433
O O9 0.000000 0.058446 0.250000
O O10 0.000000 0.000000 0.500000
#
# Coordination Sequence:
#
# PCOD9300159 Si02
#       5
#     8   8   8   8   4
#     4  10  27  50  75 110 163 196 264 316 393 459
#     4  10  26  45  77 114 155 204 262 317 392 454
#     4  10  26  48  76 110 153 206 257 319 394 447
#     4  12  28  51  80 116 155 209 264 319 387 468
#     4  12  22  46  80 110 154 206 260 322 382 470
#
# _framework density 25.292452999999998
#
# number of rings (size 3 to 8) (size 9 to 14) (size 15 to 20)
#    1.333    0.000    1.111    2.000    7.778    1.778 
#    4.000    0.000    0.000    0.000    0.000    0.000 
#    0.000    0.000    0.000    0.000    0.000    0.000 
#
# Total GULP energy -100447.775411 kJ/mol
# GULP energy per Si atom -5580.431967 kJ/mol
# Density = 2.523489 g / cm^3
# Si number density = 25.292453 Si / 1000 Ang^3
#
#
#
# Elastic Constant Matrix: (Units=GPa)
#
#
# Indices 1 2 3 4 5 6 
#
# 1 147.4024 67.5637 67.6851 0.0000 22.1147 0.0000
# 2 67.5637 86.5478 34.4654 0.0000 0.3160 0.0000
# 3 67.6851 34.4654 123.2553 0.0000 10.7544 0.0000
# 4 0.0000 0.0000 0.0000 65.0507 0.0000 18.6925
# 5 22.1147 0.3160 10.7544 0.0000 51.2521 0.0000
# 6 0.0000 0.0000 0.0000 18.6925 0.0000 43.6478
#
#
#
# Elastic Compliance Matrix: (Units=1/GPa)
#
#
# Indices 1 2 3 4 5 6 
#
# 1 0.013682 -0.008823 -0.004621 0.000000 -0.004880 0.000000
# 2 -0.008823 0.018716 -0.000724 0.000000 0.003844 0.000000
# 3 -0.004621 -0.000724 0.010878 0.000000 -0.000284 0.000000
# 4 0.000000 0.000000 0.000000 0.017530 0.000000 -0.007507
# 5 -0.004880 0.003844 -0.000284 0.000000 0.021653 0.000000
# 6 0.000000 0.000000 0.000000 -0.007507 0.000000 0.026126
#
#
# Mechanical properties :
#
#
# Convention : Reuss Voigt Hill
#
# Bulk Modulus (GPa) = 66.92825 77.40376 72.16601
# Shear Modulus (GPa) = 35.23609 44.48954 39.86281
#
# Velocity S-wave (km/s) = 3.73654 4.19860 3.97429
# Velocity P-wave (km/s) = 6.71824 7.36032 7.04660
#
# Compressibility (1/GPa) = 0.01494137
#
# Stress axis : x y z
#
# Youngs Moduli (GPa) = 73.08799 53.42942 91.93060
#
# Poissons Ratio (x) = 0.47142 0.42477
# Poissons Ratio (y) = 0.64487 0.06653
# Poissons Ratio (z) = 0.33771 0.03867
#
# Static dielectric constant tensor:
#      x y z
#    x 2.026820 0.000000 0.014650 
#    y 0.000000 2.080370 0.000000 
#    z 0.014650 0.000000 1.993470 
# 
# From -- ./inp_files/103388.got.cif
#   From: 2010.05.17/outbox.cif.g08.bks.cpg/sg15_52_cif.got.tgz:103388.got - 2010.06.03 18:47:42.
