data_PCOD9300069
_publ_section_title
;
Structure prediction by ZEFSAII (Michael W. Deem and Ramdas Pophale) SiO2 
 PCOD9300069
Probable space group: C 2/C
;
_chemical_formula_sum "Si O2"
_cell_formula_units_Z 60
_cell_length_a 19.243695
_cell_length_b 6.522321
_cell_length_c 22.395514
_cell_angle_alpha 90.000000
_cell_angle_beta 110.942984
_cell_angle_gamma 90.000000
_cell_volume 2625.240258
_symmetry_space_group_name_H-M "C 2/C"
_symmetry_group_IT_number 15
_symmetry_cell_setting 'monoclinic'
loop_
_space_group_symop_operation_xyz
x,y,z
-x,y,1/2-z
-x,-y,-z
x,-y,1/2+z
1/2+x,1/2+y,z
1/2-x,1/2+y,1/2-z
1/2-x,1/2-y,-z
1/2+x,1/2-y,1/2+z
loop_
_atom_site_type_symbol
_atom_site_label
_atom_site_fract_x
_atom_site_fract_y
_atom_site_fract_z
Si Si1 0.711092 0.224235 0.829437
Si Si2 0.316410 0.369713 0.471113
Si Si3 0.750000 0.250000 0.500000
Si Si4 0.579066 0.518238 0.255830
Si Si5 0.962847 0.630958 0.849811
Si Si6 0.603820 0.983822 0.943322
Si Si7 0.939361 0.828443 0.970308
Si Si8 0.829868 0.643062 0.267077
O O1 0.758922 0.210900 0.904132
O O2 0.635526 0.354513 0.815725
O O3 0.762095 0.324032 0.792358
O O4 0.692891 0.000363 0.795868
O O5 0.280299 0.510541 0.511127
O O6 0.366677 0.190482 0.514737
O O7 0.362141 0.548103 0.450201
O O8 0.827344 0.340666 0.553638
O O9 0.500000 0.418297 0.250000
O O10 0.550182 0.691286 0.201493
O O11 0.633488 0.353255 0.243132
O O12 0.953084 0.728229 0.911540
O O13 0.896848 0.471253 0.821118
O O14 0.044939 0.534987 0.874067
O O15 0.561911 0.845988 0.980007
O O16 0.000000 0.000000 0.000000
#
# Coordination Sequence:
#
# PCOD9300069 Si02
#       8
#     8   8   4   8   8   8   8   8
#     4  11  24  44  73 100 136 184 232 296 346 428
#     4  11  24  43  70  97 141 179 235 283 356 419
#     4  10  26  44  62  98 136 186 230 276 348 426
#     4  11  27  47  70 104 135 182 241 294 357 408
#     4  11  25  42  74  99 138 178 226 290 352 416
#     4  11  24  44  67 102 139 183 228 285 351 428
#     4  11  23  39  67 108 135 173 225 279 349 419
#     4  11  24  45  70 103 136 180 241 283 362 417
#
# _framework density 22.855053000000002
#
# number of rings (size 3 to 8) (size 9 to 14) (size 15 to 20)
#    0.000    1.067    2.667    2.400    7.467    4.267 
#    4.800    0.000    0.000    0.000    0.000    0.000 
#    0.000    0.000    0.000    0.000    0.000    0.000 
#
# Total GULP energy -167185.245728 kJ/mol
# GULP energy per Si atom -5572.841524 kJ/mol
# Density = 2.280303 g / cm^3
# Si number density = 22.855053 Si / 1000 Ang^3
#
#
#
# Elastic Constant Matrix: (Units=GPa)
#
#
# Indices 1 2 3 4 5 6 
#
# 1 75.5408 29.0080 17.1536 0.0000 22.6079 0.0000
# 2 29.0080 108.1920 43.2816 0.0000 15.9260 0.0000
# 3 17.1536 43.2816 81.9434 0.0000 29.5779 0.0000
# 4 0.0000 0.0000 0.0000 5.0122 0.0000 8.6273
# 5 22.6079 15.9260 29.5779 0.0000 31.9085 0.0000
# 6 0.0000 0.0000 0.0000 8.6273 0.0000 46.3115
#
#
#
# Elastic Compliance Matrix: (Units=1/GPa)
#
#
# Indices 1 2 3 4 5 6 
#
# 1 0.018281 -0.004223 0.003484 0.000000 -0.014074 0.000000
# 2 -0.004223 0.012695 -0.006935 0.000000 0.003084 0.000000
# 3 0.003484 -0.006935 0.022210 0.000000 -0.019595 0.000000
# 4 0.000000 0.000000 0.000000 0.293684 0.000000 -0.054710
# 5 -0.014074 0.003084 -0.019595 0.000000 0.057936 0.000000
# 6 0.000000 0.000000 0.000000 -0.054710 0.000000 0.031785
#
#
# Mechanical properties :
#
#
# Convention : Reuss Voigt Hill
#
# Bulk Modulus (GPa) = 26.42864 49.39583 37.91224
# Shear Modulus (GPa) = 10.76309 28.39531 19.57920
#
# Velocity S-wave (km/s) = 2.17244 3.52861 2.93007
# Velocity P-wave (km/s) = 4.22864 6.18555 5.29822
#
# Compressibility (1/GPa) = 0.03783774
#
# Stress axis : x y z
#
# Youngs Moduli (GPa) = 54.70298 78.76887 45.02489
#
# Poissons Ratio (x) = 0.33267 -0.15687
# Poissons Ratio (y) = 0.23103 0.31223
# Poissons Ratio (z) = -0.19058 0.54623
#
# Static dielectric constant tensor:
#      x y z
#    x 1.913750 0.000000 -0.045040 
#    y 0.000000 1.806590 0.000000 
#    z -0.045040 0.000000 1.782930 
# 
# From -- ./inp_files/300116.got.cif
#   From: 2010.05.17/outbox.cif.g08.bks.cpg/sg15_151_cif.got.tgz:300116.got - 2010.06.03 18:47:42.
