data_PCOD9300490
_publ_section_title
;
Structure prediction by ZEFSAII (Michael W. Deem and Ramdas Pophale) SiO2 
 PCOD9300490
Probable space group: C 2/C
;
_chemical_formula_sum "Si O2"
_cell_formula_units_Z 52
_cell_length_a 32.009794
_cell_length_b 11.350938
_cell_length_c 8.126731
_cell_angle_alpha 90.000000
_cell_angle_beta 100.866984
_cell_angle_gamma 90.000000
_cell_volume 2899.825472
_symmetry_space_group_name_H-M "C 2/C"
_symmetry_group_IT_number 15
_symmetry_cell_setting 'monoclinic'
loop_
_space_group_symop_operation_xyz
x,y,z
-x,y,1/2-z
-x,-y,-z
x,-y,1/2+z
1/2+x,1/2+y,z
1/2-x,1/2+y,1/2-z
1/2-x,1/2-y,-z
1/2+x,1/2-y,1/2+z
loop_
_atom_site_type_symbol
_atom_site_label
_atom_site_fract_x
_atom_site_fract_y
_atom_site_fract_z
Si Si1 0.500000 0.926638 0.750000
Si Si2 0.562495 0.057784 0.042693
Si Si3 0.813048 0.243875 0.315599
Si Si4 0.717092 0.687563 0.675853
Si Si5 0.120622 0.604747 0.800411
Si Si6 0.286098 0.532737 0.494512
Si Si7 0.690339 0.899176 0.855053
O O1 0.528300 0.007023 0.890011
O O2 0.535805 0.868721 0.658821
O O3 0.598011 0.120657 0.959112
O O4 0.585276 0.946386 0.148056
O O5 0.766819 0.276212 0.205014
O O6 0.853208 0.283075 0.239971
O O7 0.812266 0.112414 0.385929
O O8 0.814940 0.324574 0.482486
O O9 0.703033 0.604737 0.514737
O O10 0.692209 0.807173 0.704136
O O11 0.712224 0.600430 0.830818
O O12 0.154901 0.498435 0.826551
O O13 0.236878 0.542824 0.400719
#
# Coordination Sequence:
#
# PCOD9300490 Si02
#       7
#     4   8   8   8   8   8   8
#     4   8  16  34  40  66  84 118 138 150 212 290
#     4   9  18  26  48  60  90 114 138 166 212 266
#     4   9  17  28  41  57  87 114 154 188 223 252
#     4   9  17  30  42  54  78 124 156 194 221 242
#     4  11  16  27  42  68  86 118 144 184 214 245
#     4   9  17  30  42  54  78 124 156 194 221 242
#     4   9  17  28  41  57  87 114 154 188 223 252
#
# _framework density 17.932113000000001
#
# number of rings (size 3 to 8) (size 9 to 14) (size 15 to 20)
#    0.000    2.769    3.077    1.846    0.000    0.000 
#    2.769    1.538    0.000    0.000    0.000    0.000 
#    0.000    0.000    0.000   96.923    0.000    0.000 
#
# Total GULP energy -144915.263237 kJ/mol
# GULP energy per Si atom -5573.663971 kJ/mol
# Density = 1.789130 g / cm^3
# Si number density = 17.932113 Si / 1000 Ang^3
#
#
#
# Elastic Constant Matrix: (Units=GPa)
#
#
# Indices 1 2 3 4 5 6 
#
# 1 99.0138 24.8236 39.8612 0.0000 -28.7897 0.0000
# 2 24.8236 63.1469 17.9754 0.0000 -11.9314 0.0000
# 3 39.8612 17.9754 60.9223 0.0000 -23.8104 0.0000
# 4 0.0000 0.0000 0.0000 24.6017 0.0000 -3.0518
# 5 -28.7897 -11.9314 -23.8104 0.0000 49.0474 0.0000
# 6 0.0000 0.0000 0.0000 -3.0518 0.0000 5.5270
#
#
#
# Elastic Compliance Matrix: (Units=1/GPa)
#
#
# Indices 1 2 3 4 5 6 
#
# 1 0.015092 -0.003014 -0.007170 0.000000 0.004645 0.000000
# 2 -0.003014 0.018073 -0.002880 0.000000 0.001229 0.000000
# 3 -0.007170 -0.002880 0.024729 0.000000 0.007095 0.000000
# 4 0.000000 0.000000 0.000000 0.043637 0.000000 0.024095
# 5 0.004645 0.001229 0.007095 0.000000 0.026858 0.000000
# 6 0.000000 0.000000 0.000000 0.024095 0.000000 0.194233
#
#
# Mechanical properties :
#
#
# Convention : Reuss Voigt Hill
#
# Bulk Modulus (GPa) = 31.48089 43.15593 37.31841
# Shear Modulus (GPa) = 13.91441 25.19674 19.55558
#
# Velocity S-wave (km/s) = 2.78861 3.75256 3.30591
# Velocity P-wave (km/s) = 5.28793 6.54936 5.95215
#
# Compressibility (1/GPa) = 0.03176530
#
# Stress axis : x y z
#
# Youngs Moduli (GPa) = 66.25832 55.33088 40.43901
#
# Poissons Ratio (x) = 0.16678 0.28995
# Poissons Ratio (y) = 0.19972 0.11646
# Poissons Ratio (z) = 0.47508 0.15935
#
# Static dielectric constant tensor:
#      x y z
#    x 1.624130 0.000000 -0.032280 
#    y 0.000000 1.600200 0.000000 
#    z -0.032280 0.000000 1.735600 
# 
# From -- ./inp_files/59245.got.cif
#   From: 2010.05.17/outbox.cif.g08.bks.cpg/sg15_30_cif.got.tgz:59245.got - 2010.06.03 18:47:42.
