data_PCOD9300861
_publ_section_title
;
Structure prediction by ZEFSAII (Michael W. Deem and Ramdas Pophale) SiO2 
 PCOD9300861
Probable space group: C 2/C
;
_chemical_formula_sum "Si O2"
_cell_formula_units_Z 36
_cell_length_a 17.172285
_cell_length_b 13.600340
_cell_length_c 9.127900
_cell_angle_alpha 90.000000
_cell_angle_beta 141.607826
_cell_angle_gamma 90.000000
_cell_volume 1323.941545
_symmetry_space_group_name_H-M "C 2/C"
_symmetry_group_IT_number 15
_symmetry_cell_setting 'monoclinic'
loop_
_space_group_symop_operation_xyz
x,y,z
-x,y,1/2-z
-x,-y,-z
x,-y,1/2+z
1/2+x,1/2+y,z
1/2-x,1/2+y,1/2-z
1/2-x,1/2-y,-z
1/2+x,1/2-y,1/2+z
loop_
_atom_site_type_symbol
_atom_site_label
_atom_site_fract_x
_atom_site_fract_y
_atom_site_fract_z
Si Si1 0.675283 0.251881 0.238988
Si Si2 0.884960 0.184716 0.320717
Si Si3 0.500000 0.391995 0.250000
Si Si4 0.301735 0.559968 0.934717
Si Si5 0.040051 0.386182 0.153304
O O1 0.750000 0.250000 0.500000
O O2 0.776635 0.211253 0.270393
O O3 0.660904 0.360315 0.134276
O O4 0.579823 0.157478 0.105378
O O5 0.004581 0.172910 0.608473
O O6 0.899826 0.277251 0.233586
O O7 0.852776 0.096227 0.167971
O O8 0.618233 0.460950 0.462650
O O9 0.149806 0.557135 0.728356
O O10 0.000000 0.430379 0.250000
#
# Coordination Sequence:
#
# PCOD9300861 Si02
#       5
#     8   8   4   8   8
#     4  11  22  39  69 105 136 175 246 295 347 423
#     4  11  22  40  65 100 135 186 231 290 349 421
#     4  12  26  42  66 108 150 182 240 284 376 430
#     4  11  23  41  67  98 142 189 224 297 361 422
#     4  11  19  41  74  99 132 182 246 289 348 416
#
# _framework density 27.191533
#
# number of rings (size 3 to 8) (size 9 to 14) (size 15 to 20)
#    0.000    0.889    4.444    4.667    0.000    4.444 
#    0.000    1.111    0.000    0.000    0.000    0.000 
#    0.000    0.000    0.000    0.000    0.000    0.000 
#
# Total GULP energy -100483.987175 kJ/mol
# GULP energy per Si atom -5582.443732 kJ/mol
# Density = 2.712964 g / cm^3
# Si number density = 27.191533 Si / 1000 Ang^3
#
#
#
# Elastic Constant Matrix: (Units=GPa)
#
#
# Indices 1 2 3 4 5 6 
#
# 1 92.2877 -3.9147 32.5332 0.0000 -6.1185 0.0000
# 2 -3.9147 107.9869 19.8040 0.0000 -9.2365 0.0000
# 3 32.5332 19.8040 193.2831 0.0000 -12.0585 0.0000
# 4 0.0000 0.0000 0.0000 -26.0540 0.0000 -171.3282
# 5 -6.1185 -9.2365 -12.0585 0.0000 64.6517 0.0000
# 6 0.0000 0.0000 0.0000 -171.3282 0.0000 -353.0802
#
#
#
# Elastic Compliance Matrix: (Units=1/GPa)
#
#
# Indices 1 2 3 4 5 6 
#
# 1 0.011631 0.000860 -0.001993 0.000000 0.000852 0.000000
# 2 0.000860 0.009591 -0.001049 0.000000 0.001256 0.000000
# 3 -0.001993 -0.001049 0.005661 0.000000 0.000717 0.000000
# 4 0.000000 0.000000 0.000000 0.017519 0.000000 -0.008501
# 5 0.000852 0.001256 0.000717 0.000000 0.015861 0.000000
# 6 0.000000 0.000000 0.000000 -0.008501 0.000000 0.001293
#
#
# Mechanical properties :
#
#
# Convention : Reuss Voigt Hill
#
# Bulk Modulus (GPa) = 44.40461 54.48919 49.44690
# Shear Modulus (GPa) = 68.09442 -39.88751 14.10345
#
# Velocity S-wave (km/s) = 5.00968 -3.83418 2.27991
# Velocity P-wave (km/s) = 7.05891 0.69374 5.01545
#
# Compressibility (1/GPa) = 0.02252018
#
# Stress axis : x y z
#
# Youngs Moduli (GPa) = 85.97633 104.26015 176.63398
#
# Poissons Ratio (x) = -0.08966 0.35198
# Poissons Ratio (y) = -0.07394 0.18531
# Poissons Ratio (z) = 0.17133 0.10938
#
# Static dielectric constant tensor:
#      x y z
#    x 2.272560 0.000000 0.275580 
#    y 0.000000 2.307270 0.000000 
#    z 0.275580 0.000000 2.304300 
# 
# From -- ./inp_files/48850.got.cif
#   From: 2010.05.17/outbox.cif.g08.bks.cpg/sg15_25_cif.got.tgz:48850.got - 2010.06.03 18:47:42.
