data_PCOD9300995
_publ_section_title
;
Structure prediction by ZEFSAII (Michael W. Deem and Ramdas Pophale) SiO2 
 PCOD9300995
Probable space group: C 2/C
;
_chemical_formula_sum "Si O2"
_cell_formula_units_Z 48
_cell_length_a 10.830436
_cell_length_b 26.146253
_cell_length_c 13.589121
_cell_angle_alpha 90.000000
_cell_angle_beta 147.500248
_cell_angle_gamma 90.000000
_cell_volume 2067.570555
_symmetry_space_group_name_H-M "C 2/C"
_symmetry_group_IT_number 15
_symmetry_cell_setting 'monoclinic'
loop_
_space_group_symop_operation_xyz
x,y,z
-x,y,1/2-z
-x,-y,-z
x,-y,1/2+z
1/2+x,1/2+y,z
1/2-x,1/2+y,1/2-z
1/2-x,1/2-y,-z
1/2+x,1/2-y,1/2+z
loop_
_atom_site_type_symbol
_atom_site_label
_atom_site_fract_x
_atom_site_fract_y
_atom_site_fract_z
Si Si1 0.208420 0.395841 0.691576
Si Si2 0.929049 0.298680 0.817586
Si Si3 0.534732 0.937230 0.382749
Si Si4 0.842881 0.819456 0.237653
Si Si5 0.042868 0.083792 0.559397
Si Si6 0.748679 0.048540 0.530034
O O1 0.255637 0.341106 0.776867
O O2 0.161032 0.399999 0.544001
O O3 0.968157 0.420069 0.571975
O O4 0.444710 0.423339 0.883562
O O5 0.901432 0.237997 0.810337
O O6 0.000000 0.306066 0.750000
O O7 0.105689 0.313636 0.021871
O O8 0.500000 0.915347 0.250000
O O9 0.268734 0.949730 0.233157
O O10 0.667158 0.990454 0.471295
O O11 0.868271 0.861495 0.338421
O O12 0.000000 0.834194 0.250000
O O13 0.816287 0.069853 0.469013
O O14 0.000000 0.052338 0.750000
#
# Coordination Sequence:
#
# PCOD9300995 Si02
#       6
#     8   8   8   8   8   8
#     4  12  24  44  68 100 135 178 217 276 336 398
#     4  11  20  35  63 103 139 169 212 265 343 409
#     4  12  29  46  65  95 131 183 230 276 322 396
#     4  11  20  36  62 103 139 170 207 271 342 411
#     4  12  25  45  70  97 139 173 221 279 338 397
#     4  12  25  44  70  99 135 173 219 277 344 399
#
# _framework density 23.215651999999999
#
# number of rings (size 3 to 8) (size 9 to 14) (size 15 to 20)
#    0.000    0.333    3.333    8.500    2.333    1.333 
#    0.000    0.000    0.000    1.000    0.000    0.000 
#    0.000    0.000    0.000    0.000    0.000    0.000 
#
# Total GULP energy -133953.739588 kJ/mol
# GULP energy per Si atom -5581.405816 kJ/mol
# Density = 2.316281 g / cm^3
# Si number density = 23.215652 Si / 1000 Ang^3
#
#
#
# Elastic Constant Matrix: (Units=GPa)
#
#
# Indices 1 2 3 4 5 6 
#
# 1 55.5192 37.9340 23.4593 0.0000 -23.9976 0.0000
# 2 37.9340 140.4413 41.4094 0.0000 -11.9112 0.0000
# 3 23.4593 41.4094 181.2645 0.0000 -22.6670 0.0000
# 4 0.0000 0.0000 0.0000 21.0687 0.0000 1.8620
# 5 -23.9976 -11.9112 -22.6670 0.0000 38.8241 0.0000
# 6 0.0000 0.0000 0.0000 1.8620 0.0000 13.0736
#
#
#
# Elastic Compliance Matrix: (Units=1/GPa)
#
#
# Indices 1 2 3 4 5 6 
#
# 1 0.029556 -0.006524 -0.000324 0.000000 0.016078 0.000000
# 2 -0.006524 0.009149 -0.001509 0.000000 -0.002107 0.000000
# 3 -0.000324 -0.001509 0.006279 0.000000 0.003003 0.000000
# 4 0.000000 0.000000 0.000000 0.048069 0.000000 -0.006846
# 5 0.016078 -0.002107 0.003003 0.000000 0.036802 0.000000
# 6 0.000000 0.000000 0.000000 -0.006846 0.000000 0.077465
#
#
# Mechanical properties :
#
#
# Convention : Reuss Voigt Hill
#
# Bulk Modulus (GPa) = 35.37431 64.75891 50.06661
# Shear Modulus (GPa) = 21.41717 32.88808 27.15262
#
# Velocity S-wave (km/s) = 3.04062 3.76790 3.42363
# Velocity P-wave (km/s) = 5.25333 6.84723 6.10254
#
# Compressibility (1/GPa) = 0.02826910
#
# Stress axis : x y z
#
# Youngs Moduli (GPa) = 33.83411 109.30302 159.26142
#
# Poissons Ratio (x) = 0.71309 0.05163
# Poissons Ratio (y) = 0.22073 0.24035
# Poissons Ratio (z) = 0.01097 0.16495
#
# Static dielectric constant tensor:
#      x y z
#    x 2.025860 0.000000 -0.068270 
#    y 0.000000 2.056120 0.000000 
#    z -0.068270 0.000000 1.811140 
# 
# From -- ./inp_files/148827.got.cif
#   From: 2010.05.17/outbox.cif.g08.bks.cpg/sg15_75_cif.got.tgz:148827.got - 2010.06.03 18:47:42.
