data_PCOD9300652
_publ_section_title
;
Structure prediction by ZEFSAII (Michael W. Deem and Ramdas Pophale) SiO2 
 PCOD9300652
Probable space group: C 2/C
;
_chemical_formula_sum "Si O2"
_cell_formula_units_Z 40
_cell_length_a 15.582877
_cell_length_b 11.348718
_cell_length_c 15.136629
_cell_angle_alpha 90.000000
_cell_angle_beta 35.476285
_cell_angle_gamma 90.000000
_cell_volume 1553.551056
_symmetry_space_group_name_H-M "C 2/C"
_symmetry_group_IT_number 15
_symmetry_cell_setting 'monoclinic'
loop_
_space_group_symop_operation_xyz
x,y,z
-x,y,1/2-z
-x,-y,-z
x,-y,1/2+z
1/2+x,1/2+y,z
1/2-x,1/2+y,1/2-z
1/2-x,1/2-y,-z
1/2+x,1/2-y,1/2+z
loop_
_atom_site_type_symbol
_atom_site_label
_atom_site_fract_x
_atom_site_fract_y
_atom_site_fract_z
Si Si1 0.050454 0.300564 0.614204
Si Si2 0.836320 0.510209 0.723481
Si Si3 0.491181 0.758647 0.479423
Si Si4 0.800565 0.131938 0.305291
Si Si5 0.323479 0.026584 0.919579
O O1 0.067174 0.226184 0.510382
O O2 0.175946 0.393294 0.540828
O O3 0.000000 0.244515 0.750000
O O4 0.927743 0.394282 0.679908
O O5 0.950093 0.610699 0.597512
O O6 0.735817 0.480706 0.724760
O O7 0.752180 0.537899 0.883987
O O8 0.315816 0.769594 0.631782
O O9 0.543075 0.678644 0.355291
O O10 0.755960 0.106381 0.442134
O O11 0.500000 0.055558 0.750000
#
# Coordination Sequence:
#
# PCOD9300652 Si02
#       5
#     8   8   8   8   8
#     4   8  14  29  55  75  95 136 186 213 245 299
#     4   9  17  33  53  74 106 140 185 211 252 315
#     4  11  19  33  54  82 110 136 174 224 267 314
#     4  11  20  34  55  85 105 138 179 219 270 314
#     4   9  15  30  56  77  98 138 186 220 245 302
#
# _framework density 25.747463
#
# number of rings (size 3 to 8) (size 9 to 14) (size 15 to 20)
#    0.000    2.800    6.000    1.200    0.000    0.800 
#    0.000   10.000    0.000    0.000    5.200    0.000 
#    0.000    0.000    0.000    0.000    0.000    0.000 
#
# Total GULP energy -111563.441030 kJ/mol
# GULP energy per Si atom -5578.172052 kJ/mol
# Density = 2.568886 g / cm^3
# Si number density = 25.747463 Si / 1000 Ang^3
#
#
#
# Elastic Constant Matrix: (Units=GPa)
#
#
# Indices 1 2 3 4 5 6 
#
# 1 58.4622 10.2970 60.1252 0.0000 43.4879 0.0000
# 2 10.2970 22.9719 15.3690 0.0000 -0.7003 0.0000
# 3 60.1252 15.3690 146.6174 0.0000 43.7567 0.0000
# 4 0.0000 0.0000 0.0000 29.6109 0.0000 -2.4275
# 5 43.4879 -0.7003 43.7567 0.0000 65.9970 0.0000
# 6 0.0000 0.0000 0.0000 -2.4275 0.0000 14.8919
#
#
#
# Elastic Compliance Matrix: (Units=1/GPa)
#
#
# Indices 1 2 3 4 5 6 
#
# 1 0.051484 -0.016176 -0.011521 0.000000 -0.026458 0.000000
# 2 -0.016176 0.053084 -0.002843 0.000000 0.013107 0.000000
# 3 -0.011521 -0.002843 0.011951 0.000000 -0.000362 0.000000
# 4 0.000000 0.000000 0.000000 0.034229 0.000000 0.005580
# 5 -0.026458 0.013107 -0.000362 0.000000 0.032966 0.000000
# 6 0.000000 0.000000 0.000000 0.005580 0.000000 0.068060
#
#
# Mechanical properties :
#
#
# Convention : Reuss Voigt Hill
#
# Bulk Modulus (GPa) = 18.03764 44.40375 31.22069
# Shear Modulus (GPa) = 15.09064 31.58400 23.33732
#
# Velocity S-wave (km/s) = 2.42358 3.50620 3.01390
# Velocity P-wave (km/s) = 3.85389 5.80298 4.92580
#
# Compressibility (1/GPa) = 0.05543963
#
# Stress axis : x y z
#
# Youngs Moduli (GPa) = 19.42363 18.83824 83.67461
#
# Poissons Ratio (x) = 0.30473 0.96400
# Poissons Ratio (y) = 0.31419 0.23785
# Poissons Ratio (z) = 0.22378 0.05355
#
# Static dielectric constant tensor:
#      x y z
#    x 2.099240 0.000000 0.035880 
#    y 0.000000 2.177910 0.000000 
#    z 0.035880 0.000000 2.067210 
# 
# From -- ./inp_files/104632.got.cif
#   From: 2010.05.17/outbox.cif.g08.bks.cpg/sg15_53_cif.got.tgz:104632.got - 2010.06.03 18:47:42.
