data_PCOD9300197
_publ_section_title
;
Structure prediction by ZEFSAII (Michael W. Deem and Ramdas Pophale) SiO2 
 PCOD9300197
Probable space group: C 2/C
;
_chemical_formula_sum "Si O2"
_cell_formula_units_Z 40
_cell_length_a 14.586322
_cell_length_b 17.327482
_cell_length_c 19.723507
_cell_angle_alpha 90.000000
_cell_angle_beta 160.126972
_cell_angle_gamma 90.000000
_cell_volume 1694.586198
_symmetry_space_group_name_H-M "C 2/C"
_symmetry_group_IT_number 15
_symmetry_cell_setting 'monoclinic'
loop_
_space_group_symop_operation_xyz
x,y,z
-x,y,1/2-z
-x,-y,-z
x,-y,1/2+z
1/2+x,1/2+y,z
1/2-x,1/2+y,1/2-z
1/2-x,1/2-y,-z
1/2+x,1/2-y,1/2+z
loop_
_atom_site_type_symbol
_atom_site_label
_atom_site_fract_x
_atom_site_fract_y
_atom_site_fract_z
Si Si1 0.000000 0.642595 0.250000
Si Si2 0.070399 0.289037 0.545431
Si Si3 0.309060 0.527702 0.991680
Si Si4 0.990357 0.144870 0.662233
Si Si5 0.652261 0.370496 0.634560
Si Si6 0.000000 0.867270 0.750000
O O1 0.244646 0.688220 0.453914
O O2 0.144858 0.605956 0.284239
O O3 0.773671 0.325259 0.332410
O O4 0.046625 0.196725 0.529666
O O5 0.184258 0.327235 0.692696
O O6 0.269524 0.315625 0.624336
O O7 0.000000 0.531400 0.750000
O O8 0.415529 0.443070 0.087902
O O9 0.494885 0.560609 0.060607
O O10 0.364608 0.581123 0.096401
O O11 0.000000 0.147962 0.750000
#
# Coordination Sequence:
#
# PCOD9300197 Si02
#       6
#     4   8   8   8   8   4
#     4  12  26  46  70 112 146 194 248 302 368 434
#     4  11  26  46  73 109 150 199 242 305 367 440
#     4  11  26  46  74 109 145 197 248 304 366 433
#     4  12  25  47  75 107 149 196 247 304 368 434
#     4  11  27  45  73 110 150 199 245 302 367 443
#     4  10  26  46  70 108 148 192 244 306 366 438
#
# _framework density 23.604582000000001
#
# number of rings (size 3 to 8) (size 9 to 14) (size 15 to 20)
#    0.000    0.800    4.000    1.200    8.400    8.800 
#    0.000    0.000    0.000    0.000    0.000    0.000 
#    0.000    0.000    0.000    0.000    0.000    0.000 
#
# Total GULP energy -111872.234394 kJ/mol
# GULP energy per Si atom -5593.611720 kJ/mol
# Density = 2.355086 g / cm^3
# Si number density = 23.604582 Si / 1000 Ang^3
#
#
#
# Elastic Constant Matrix: (Units=GPa)
#
#
# Indices 1 2 3 4 5 6 
#
# 1 219.2540 61.1157 76.6810 -0.1481 17.1690 -0.0100
# 2 61.1157 112.7842 29.0770 0.0892 10.0518 0.0132
# 3 76.6810 29.0770 139.3024 0.1450 -7.0534 -0.0162
# 4 -0.1481 0.0892 0.1450 29.9016 0.0445 -3.0008
# 5 17.1690 10.0518 -7.0534 0.0445 49.9186 0.0155
# 6 -0.0100 0.0132 -0.0162 -3.0008 0.0155 36.6576
#
#
#
# Elastic Compliance Matrix: (Units=1/GPa)
#
#
# Indices 1 2 3 4 5 6 
#
# 1 0.006555 -0.002534 -0.003191 0.000059 -0.002195 0.000007
# 2 -0.002534 0.010592 -0.000886 -0.000039 -0.001386 -0.000007
# 3 -0.003191 -0.000886 0.009251 -0.000062 0.002583 -0.000003
# 4 0.000059 -0.000039 -0.000062 0.033721 -0.000052 0.002760
# 5 -0.002195 -0.001386 0.002583 -0.000052 0.021432 -0.000012
# 6 0.000007 -0.000007 -0.000003 0.002760 -0.000012 0.027505
#
#
# Mechanical properties :
#
#
# Convention : Reuss Voigt Hill
#
# Bulk Modulus (GPa) = 75.89507 89.45421 82.67464
# Shear Modulus (GPa) = 39.47297 43.59335 41.53316
#
# Velocity S-wave (km/s) = 4.09376 4.30212 4.19924
# Velocity P-wave (km/s) = 7.38699 7.91561 7.65587
#
# Compressibility (1/GPa) = 0.01317609
#
# Stress axis : x y z
#
# Youngs Moduli (GPa) = 152.55446 94.41431 108.09901
#
# Poissons Ratio (x) = 0.23923 0.34490
# Poissons Ratio (y) = 0.38655 0.09579
# Poissons Ratio (z) = 0.48674 0.08367
#
# Static dielectric constant tensor:
#      x y z
#    x 1.863180 0.000000 -0.035900 
#    y 0.000000 1.928510 -0.000360 
#    z -0.035900 -0.000360 1.949980 
# 
# From -- ./inp_files/41082.got.cif
#   From: 2010.05.17/outbox.cif.g08.bks.cpg/sg15_21_cif.got.tgz:41082.got - 2010.06.03 18:47:42.
