data_PCOD9300480
_publ_section_title
;
Structure prediction by ZEFSAII (Michael W. Deem and Ramdas Pophale) SiO2 
 PCOD9300480
Probable space group: C 2/C
;
_chemical_formula_sum "Si O2"
_cell_formula_units_Z 40
_cell_length_a 14.406557
_cell_length_b 5.200120
_cell_length_c 17.873174
_cell_angle_alpha 90.000000
_cell_angle_beta 101.593897
_cell_angle_gamma 90.000000
_cell_volume 1311.663845
_symmetry_space_group_name_H-M "C 2/C"
_symmetry_group_IT_number 15
_symmetry_cell_setting 'monoclinic'
loop_
_space_group_symop_operation_xyz
x,y,z
-x,y,1/2-z
-x,-y,-z
x,-y,1/2+z
1/2+x,1/2+y,z
1/2-x,1/2+y,1/2-z
1/2-x,1/2-y,-z
1/2+x,1/2-y,1/2+z
loop_
_atom_site_type_symbol
_atom_site_label
_atom_site_fract_x
_atom_site_fract_y
_atom_site_fract_z
Si Si1 0.139878 0.661341 0.722778
Si Si2 0.667463 0.860023 0.403881
Si Si3 0.500000 0.000000 0.000000
Si Si4 0.996139 0.986915 0.611123
Si Si5 0.281329 0.127876 0.912285
Si Si6 0.500000 0.748766 0.750000
O O1 0.159925 0.652360 0.813055
O O2 0.223373 0.610315 0.679312
O O3 0.089482 0.900927 0.672663
O O4 0.063102 0.434384 0.709496
O O5 0.562426 0.781126 0.422440
O O6 0.721779 0.123842 0.426986
O O7 0.730402 0.620450 0.434406
O O8 0.492839 0.715205 0.945395
O O9 0.608569 0.897466 0.046650
O O10 0.942327 0.097028 0.676617
#
# Coordination Sequence:
#
# PCOD9300480 Si02
#       6
#     8   8   4   8   8   4
#     4  11  23  42  69 112 143 189 242 310 381 447
#     4  12  23  45  72 112 141 190 249 313 367 441
#     4  10  28  54  64 112 150 212 252 306 390 464
#     4  11  24  44  77 105 153 199 244 312 378 459
#     4  11  28  44  73 103 150 193 244 314 371 444
#     4  12  20  42  80 108 140 200 254 302 376 456
#
# _framework density 30.495616999999999
#
# number of rings (size 3 to 8) (size 9 to 14) (size 15 to 20)
#    0.000    0.800    4.000    2.400    5.600    2.400 
#    3.600    0.000    0.000    0.000    0.000    0.000 
#    0.000    0.000    0.000    0.000    0.000    0.000 
#
# Total GULP energy -111777.690278 kJ/mol
# GULP energy per Si atom -5588.884514 kJ/mol
# Density = 3.042621 g / cm^3
# Si number density = 30.495617 Si / 1000 Ang^3
#
#
#
# Elastic Constant Matrix: (Units=GPa)
#
#
# Indices 1 2 3 4 5 6 
#
# 1 205.0894 96.7254 45.9665 0.0000 3.4820 0.0000
# 2 96.7254 279.8738 104.7519 0.0000 15.2329 0.0000
# 3 45.9665 104.7519 247.9457 0.0000 14.0494 0.0000
# 4 0.0000 0.0000 0.0000 56.6103 0.0000 22.9963
# 5 3.4820 15.2329 14.0494 0.0000 41.1191 0.0000
# 6 0.0000 0.0000 0.0000 22.9963 0.0000 53.1066
#
#
#
# Elastic Compliance Matrix: (Units=1/GPa)
#
#
# Indices 1 2 3 4 5 6 
#
# 1 0.005845 -0.001930 -0.000286 0.000000 0.000318 0.000000
# 2 -0.001930 0.004921 -0.001659 0.000000 -0.001093 0.000000
# 3 -0.000286 -0.001659 0.004845 0.000000 -0.001016 0.000000
# 4 0.000000 0.000000 0.000000 0.021435 0.000000 -0.009282
# 5 0.000318 -0.001093 -0.001016 0.000000 0.025045 0.000000
# 6 0.000000 0.000000 0.000000 -0.009282 0.000000 0.022849
#
#
# Mechanical properties :
#
#
# Convention : Reuss Voigt Hill
#
# Bulk Modulus (GPa) = 127.23681 136.42183 131.82932
# Shear Modulus (GPa) = 52.46032 62.53155 57.49594
#
# Velocity S-wave (km/s) = 4.15210 4.53317 4.34681
# Velocity P-wave (km/s) = 8.04985 8.49891 8.27743
#
# Compressibility (1/GPa) = 0.00785936
#
# Stress axis : x y z
#
# Youngs Moduli (GPa) = 171.08588 203.22818 206.41083
#
# Poissons Ratio (x) = 0.39229 0.05906
# Poissons Ratio (y) = 0.33024 0.34245
# Poissons Ratio (z) = 0.04895 0.33717
#
# Static dielectric constant tensor:
#      x y z
#    x 1.854780 0.000000 0.356440 
#    y 0.000000 2.067420 0.000000 
#    z 0.356440 0.000000 2.292930 
# 
# From -- ./inp_files/208127.got.cif
#   From: 2010.05.17/outbox.cif.g08.bks.cpg/sg15_105_cif.got.tgz:208127.got - 2010.06.03 18:47:42.
