data_PCOD9300279
_publ_section_title
;
Structure prediction by ZEFSAII (Michael W. Deem and Ramdas Pophale) SiO2 
 PCOD9300279
Probable space group: C 2/C
;
_chemical_formula_sum "Si O2"
_cell_formula_units_Z 48
_cell_length_a 14.225274
_cell_length_b 13.576353
_cell_length_c 23.654963
_cell_angle_alpha 90.000000
_cell_angle_beta 150.417070
_cell_angle_gamma 90.000000
_cell_volume 2255.350424
_symmetry_space_group_name_H-M "C 2/C"
_symmetry_group_IT_number 15
_symmetry_cell_setting 'monoclinic'
loop_
_space_group_symop_operation_xyz
x,y,z
-x,y,1/2-z
-x,-y,-z
x,-y,1/2+z
1/2+x,1/2+y,z
1/2-x,1/2+y,1/2-z
1/2-x,1/2-y,-z
1/2+x,1/2-y,1/2+z
loop_
_atom_site_type_symbol
_atom_site_label
_atom_site_fract_x
_atom_site_fract_y
_atom_site_fract_z
Si Si1 0.752924 0.872074 0.212581
Si Si2 0.112606 0.550485 0.928823
Si Si3 0.299588 0.750247 0.843565
Si Si4 0.830772 0.338277 0.502656
Si Si5 0.000000 0.166597 0.750000
Si Si6 0.000000 0.360716 0.250000
Si Si7 0.971789 0.074918 0.303167
O O1 0.528409 0.892216 0.101531
O O2 0.820328 0.835981 0.308756
O O3 0.849344 0.794985 0.218658
O O4 0.844732 0.977870 0.247040
O O5 0.047343 0.580395 0.831836
O O6 0.092130 0.432411 0.923737
O O7 0.329451 0.574633 0.059217
O O8 0.188758 0.705002 0.838365
O O9 0.152791 0.831466 0.743438
O O10 0.505229 0.799177 0.953154
O O11 0.750000 0.250000 0.500000
O O12 0.657886 0.378612 0.374146
O O13 0.000000 0.081868 0.250000
#
# Coordination Sequence:
#
# PCOD9300279 Si02
#       7
#     8   8   8   8   4   4   8
#     4  11  23  42  65 100 133 173 227 287 339 409
#     4  11  25  44  70  96 142 178 230 287 345 406
#     4  11  24  44  69 100 140 178 233 281 347 410
#     4  12  24  44  67 101 140 180 231 286 339 419
#     4  12  24  38  68  98 134 180 230 275 343 408
#     4  10  26  48  68 102 138 186 232 277 349 420
#     4  12  23  42  70 101 131 180 228 285 346 400
#
# _framework density 21.282723000000001
#
# number of rings (size 3 to 8) (size 9 to 14) (size 15 to 20)
#    0.000    0.667    6.667    0.000    2.333    6.000 
#    0.000    7.500    0.000    0.000    0.000    0.000 
#    0.000    0.000    0.000    0.000    0.000    0.000 
#
# Total GULP energy -133670.869115 kJ/mol
# GULP energy per Si atom -5569.619546 kJ/mol
# Density = 2.123428 g / cm^3
# Si number density = 21.282723 Si / 1000 Ang^3
#
#
#
# Elastic Constant Matrix: (Units=GPa)
#
#
# Indices 1 2 3 4 5 6 
#
# 1 133.1441 34.4667 42.5414 0.0000 12.1866 0.0000
# 2 34.4667 75.2873 24.3661 0.0002 -0.9260 0.0000
# 3 42.5414 24.3661 122.4070 0.0006 14.1585 -0.0001
# 4 0.0000 0.0002 0.0006 19.7865 0.0001 8.8513
# 5 12.1866 -0.9260 14.1585 0.0001 31.4730 -0.0001
# 6 0.0000 0.0000 -0.0001 8.8513 -0.0001 27.2773
#
#
#
# Elastic Compliance Matrix: (Units=1/GPa)
#
#
# Indices 1 2 3 4 5 6 
#
# 1 0.009413 -0.003620 -0.002233 0.000000 -0.002747 0.000000
# 2 -0.003620 0.015685 -0.002194 0.000000 0.002850 0.000000
# 3 -0.002233 -0.002194 0.009800 0.000000 -0.003608 0.000000
# 4 0.000000 0.000000 0.000000 0.059122 0.000000 -0.019185
# 5 -0.002747 0.002850 -0.003608 0.000000 0.034544 0.000000
# 6 0.000000 0.000000 0.000000 -0.019185 0.000000 0.042886
#
#
# Mechanical properties :
#
#
# Convention : Reuss Voigt Hill
#
# Bulk Modulus (GPa) = 53.18213 59.28743 56.23478
# Shear Modulus (GPa) = 25.79849 31.00498 28.40173
#
# Velocity S-wave (km/s) = 3.48541 3.82096 3.65704
# Velocity P-wave (km/s) = 6.42185 6.88360 6.65673
#
# Compressibility (1/GPa) = 0.01880331
#
# Stress axis : x y z
#
# Youngs Moduli (GPa) = 106.23953 63.75584 102.04559
#
# Poissons Ratio (x) = 0.23081 0.22786
# Poissons Ratio (y) = 0.38462 0.22385
# Poissons Ratio (z) = 0.23723 0.13986
#
# Static dielectric constant tensor:
#      x y z
#    x 1.824060 0.000000 0.022950 
#    y 0.000000 1.798830 0.000000 
#    z 0.022950 0.000000 1.736380 
# 
# From -- ./inp_files/274408.got.cif
#   From: 2010.05.17/outbox.cif.g08.bks.cpg/sg15_138_cif.got.tgz:274408.got - 2010.06.03 18:47:42.
