data_PCOD9300184
_publ_section_title
;
Structure prediction by ZEFSAII (Michael W. Deem and Ramdas Pophale) SiO2 
 PCOD9300184
Probable space group: C 2/C
;
_chemical_formula_sum "Si O2"
_cell_formula_units_Z 44
_cell_length_a 28.814648
_cell_length_b 5.501062
_cell_length_c 15.029124
_cell_angle_alpha 90.000000
_cell_angle_beta 126.537170
_cell_angle_gamma 90.000000
_cell_volume 1914.095613
_symmetry_space_group_name_H-M "C 2/C"
_symmetry_group_IT_number 15
_symmetry_cell_setting 'monoclinic'
loop_
_space_group_symop_operation_xyz
x,y,z
-x,y,1/2-z
-x,-y,-z
x,-y,1/2+z
1/2+x,1/2+y,z
1/2-x,1/2+y,1/2-z
1/2-x,1/2-y,-z
1/2+x,1/2-y,1/2+z
loop_
_atom_site_type_symbol
_atom_site_label
_atom_site_fract_x
_atom_site_fract_y
_atom_site_fract_z
Si Si1 0.500000 0.749064 0.250000
Si Si2 0.534599 0.053586 0.126419
Si Si3 0.907413 0.918310 0.210307
Si Si4 0.769808 0.785151 0.420733
Si Si5 0.854510 0.740497 0.792417
Si Si6 0.340666 0.214868 0.979195
O O1 0.502813 0.910425 0.166728
O O2 0.439923 0.604064 0.182984
O O3 0.600544 0.962259 0.189906
O O4 0.540747 0.325138 0.167685
O O5 0.500000 0.000000 0.000000
O O6 0.864948 0.040432 0.233522
O O7 0.881095 0.719549 0.113356
O O8 0.750000 0.750000 0.500000
O O9 0.713140 0.811538 0.294771
O O10 0.806875 0.543631 0.438191
O O11 0.802628 0.041964 0.451954
O O12 0.867859 0.764965 0.912685
#
# Coordination Sequence:
#
# PCOD9300184 Si02
#       6
#     4   8   8   8   8   8
#     4  10  26  46  68 106 144 188 248 304 370 432
#     4  11  27  46  74 103 148 193 249 306 368 444
#     4  11  26  46  72 104 145 191 250 302 373 442
#     4  12  25  49  73 110 149 194 244 304 369 440
#     4  11  27  44  72 108 145 191 250 299 372 443
#     4  12  28  45  80 106 153 193 242 305 373 442
#
# _framework density 22.987355999999998
#
# number of rings (size 3 to 8) (size 9 to 14) (size 15 to 20)
#    0.000    0.727    1.818    3.273   15.273    1.455 
#    0.000    0.000    0.000    0.000    0.000    0.000 
#    0.000    0.000    0.000    0.000    0.000    0.000 
#
# Total GULP energy -122911.378300 kJ/mol
# GULP energy per Si atom -5586.880832 kJ/mol
# Density = 2.293504 g / cm^3
# Si number density = 22.987356 Si / 1000 Ang^3
#
#
#
# Elastic Constant Matrix: (Units=GPa)
#
#
# Indices 1 2 3 4 5 6 
#
# 1 91.7842 26.8516 28.3480 0.0000 -29.7778 0.0000
# 2 26.8516 76.4417 5.3468 -0.0005 3.2301 -0.0004
# 3 28.3480 5.3468 115.1058 0.0001 -15.2128 0.0001
# 4 0.0000 -0.0005 0.0001 -52.3746 -0.0001 -54.7585
# 5 -29.7778 3.2301 -15.2128 -0.0001 37.9903 -0.0001
# 6 0.0000 -0.0004 0.0001 -54.7585 -0.0001 -24.8685
#
#
#
# Elastic Compliance Matrix: (Units=1/GPa)
#
#
# Indices 1 2 3 4 5 6 
#
# 1 0.018071 -0.006770 -0.002310 0.000000 0.013815 0.000000
# 2 -0.006770 0.015735 0.000062 0.000000 -0.006620 0.000000
# 3 -0.002310 0.000062 0.009517 0.000000 0.001995 0.000000
# 4 0.000000 0.000000 0.000000 0.014663 0.000000 -0.032287
# 5 0.013815 -0.006620 0.001995 0.000000 0.038513 0.000000
# 6 0.000000 0.000000 0.000000 -0.032287 0.000000 0.030881
#
#
# Mechanical properties :
#
#
# Convention : Reuss Voigt Hill
#
# Bulk Modulus (GPa) = 39.54667 44.93607 42.24137
# Shear Modulus (GPa) = 32.49963 7.00178 19.75070
#
# Velocity S-wave (km/s) = 3.76414 1.74715 2.93439
# Velocity P-wave (km/s) = 6.01104 4.86422 5.46778
#
# Compressibility (1/GPa) = 0.02528658
#
# Stress axis : x y z
#
# Youngs Moduli (GPa) = 55.33597 63.55081 105.07023
#
# Poissons Ratio (x) = 0.43025 0.24274
# Poissons Ratio (y) = 0.37463 -0.00646
# Poissons Ratio (z) = 0.12784 -0.00391
#
# Static dielectric constant tensor:
#      x y z
#    x 1.845520 0.000000 0.036600 
#    y 0.000000 1.893540 0.000000 
#    z 0.036600 0.000000 1.906030 
# 
# From -- ./inp_files/175785.got.cif
#   From: 2010.05.17/outbox.cif.g08.bks.cpg/sg15_88_cif.got.tgz:175785.got - 2010.06.03 18:47:42.
