data_PCOD9300218
_publ_section_title
;
Structure prediction by ZEFSAII (Michael W. Deem and Ramdas Pophale) SiO2 
 PCOD9300218
Probable space group: C 2/C
;
_chemical_formula_sum "Si O2"
_cell_formula_units_Z 60
_cell_length_a 19.381475
_cell_length_b 25.850728
_cell_length_c 13.469104
_cell_angle_alpha 90.000000
_cell_angle_beta 158.089192
_cell_angle_gamma 90.000000
_cell_volume 2518.237292
_symmetry_space_group_name_H-M "C 2/C"
_symmetry_group_IT_number 15
_symmetry_cell_setting 'monoclinic'
loop_
_space_group_symop_operation_xyz
x,y,z
-x,y,1/2-z
-x,-y,-z
x,-y,1/2+z
1/2+x,1/2+y,z
1/2-x,1/2+y,1/2-z
1/2-x,1/2-y,-z
1/2+x,1/2-y,1/2+z
loop_
_atom_site_type_symbol
_atom_site_label
_atom_site_fract_x
_atom_site_fract_y
_atom_site_fract_z
Si Si1 0.994368 0.148077 0.893929
Si Si2 0.537285 0.758746 0.700896
Si Si3 0.627973 0.978086 0.259068
Si Si4 0.000000 0.917808 0.750000
Si Si5 0.905720 0.616927 0.447072
Si Si6 0.637545 0.090611 0.341218
Si Si7 0.515271 0.676976 0.401129
Si Si8 0.878730 0.715098 0.779997
O O1 0.055124 0.201915 0.923517
O O2 0.834550 0.118476 0.622395
O O3 0.913812 0.164956 0.893384
O O4 0.185374 0.118011 0.166080
O O5 0.500000 0.790537 0.750000
O O6 0.484743 0.780852 0.526554
O O7 0.750000 0.750000 0.000000
O O8 0.822697 0.952407 0.487294
O O9 0.667550 0.028511 0.377050
O O10 0.504768 0.930650 0.133392
O O11 0.500000 0.000000 0.000000
O O12 0.052126 0.877865 0.731131
O O13 0.934169 0.608484 0.364458
O O14 0.003905 0.669804 0.615073
O O15 0.500000 0.099333 0.250000
O O16 0.678125 0.695734 0.545714
O O17 0.385587 0.727228 0.243752
#
# Coordination Sequence:
#
# PCOD9300218 Si02
#       8
#     8   8   8   4   8   8   8   8
#     4  11  23  39  67 100 140 189 238 295 364 429
#     4  11  20  32  54  94 136 181 227 273 342 416
#     4  10  26  46  74 102 141 185 241 303 367 431
#     4  12  26  52  76 106 142 188 248 306 376 432
#     4  11  22  44  67 100 147 188 239 300 352 430
#     4  11  24  41  69 105 141 187 241 297 376 429
#     4  11  25  43  70 105 138 198 241 302 357 433
#     4  11  21  40  64  98 147 187 245 293 352 428
#
# _framework density 23.82619
#
# number of rings (size 3 to 8) (size 9 to 14) (size 15 to 20)
#    0.000    1.067    1.333    6.800    5.600    2.667 
#    0.000    1.333    0.000    0.000    0.000    0.000 
#    0.000    0.000    0.000    0.000    0.000    0.000 
#
# Total GULP energy -167617.722909 kJ/mol
# GULP energy per Si atom -5587.257430 kJ/mol
# Density = 2.377196 g / cm^3
# Si number density = 23.826190 Si / 1000 Ang^3
#
#
#
# Elastic Constant Matrix: (Units=GPa)
#
#
# Indices 1 2 3 4 5 6 
#
# 1 84.7570 22.6639 6.8135 0.0000 -2.6570 0.0000
# 2 22.6639 181.5759 47.4606 0.0000 4.5928 0.0000
# 3 6.8135 47.4606 119.0036 0.0000 19.1361 0.0000
# 4 0.0000 0.0000 0.0000 36.3526 0.0000 1.6806
# 5 -2.6570 4.5928 19.1361 0.0000 35.9168 0.0000
# 6 0.0000 0.0000 0.0000 1.6806 0.0000 27.0735
#
#
#
# Elastic Compliance Matrix: (Units=1/GPa)
#
#
# Indices 1 2 3 4 5 6 
#
# 1 0.012259 -0.001480 -0.000315 0.000000 0.001264 0.000000
# 2 -0.001480 0.006338 -0.002510 0.000000 0.000417 0.000000
# 3 -0.000315 -0.002510 0.010253 0.000000 -0.005165 0.000000
# 4 0.000000 0.000000 0.000000 0.027588 0.000000 -0.001712
# 5 0.001264 0.000417 -0.005165 0.000000 0.030634 0.000000
# 6 0.000000 0.000000 0.000000 -0.001712 0.000000 0.037043
#
#
# Mechanical properties :
#
#
# Convention : Reuss Voigt Hill
#
# Bulk Modulus (GPa) = 49.40724 59.91248 54.65986
# Shear Modulus (GPa) = 35.85014 40.42849 38.13931
#
# Velocity S-wave (km/s) = 3.88319 4.12370 4.00525
# Velocity P-wave (km/s) = 6.39430 6.91907 6.66185
#
# Compressibility (1/GPa) = 0.02023995
#
# Stress axis : x y z
#
# Youngs Moduli (GPa) = 81.57222 157.79017 97.53573
#
# Poissons Ratio (x) = 0.23350 0.03072
# Poissons Ratio (y) = 0.12071 0.24481
# Poissons Ratio (z) = 0.02569 0.39604
#
# Static dielectric constant tensor:
#      x y z
#    x 1.368430 0.000000 -0.241990 
#    y 0.000000 1.938340 0.000000 
#    z -0.241990 0.000000 1.836900 
# 
# From -- ./inp_files/169962.got.cif
#   From: 2010.05.17/outbox.cif.g08.bks.cpg/sg15_85_cif.got.tgz:169962.got - 2010.06.03 18:47:42.
