data_PCOD9300701
_publ_section_title
;
Structure prediction by ZEFSAII (Michael W. Deem and Ramdas Pophale) SiO2 
 PCOD9300701
Probable space group: C 2/C
;
_chemical_formula_sum "Si O2"
_cell_formula_units_Z 48
_cell_length_a 20.755330
_cell_length_b 16.503647
_cell_length_c 21.003756
_cell_angle_alpha 90.000000
_cell_angle_beta 160.308793
_cell_angle_gamma 90.000000
_cell_volume 2424.225339
_symmetry_space_group_name_H-M "C 2/C"
_symmetry_group_IT_number 15
_symmetry_cell_setting 'monoclinic'
loop_
_space_group_symop_operation_xyz
x,y,z
-x,y,1/2-z
-x,-y,-z
x,-y,1/2+z
1/2+x,1/2+y,z
1/2-x,1/2+y,1/2-z
1/2-x,1/2-y,-z
1/2+x,1/2-y,1/2+z
loop_
_atom_site_type_symbol
_atom_site_label
_atom_site_fract_x
_atom_site_fract_y
_atom_site_fract_z
Si Si1 0.123157 0.037454 0.308329
Si Si2 0.596112 0.316874 0.595091
Si Si3 0.607946 0.451732 0.158256
Si Si4 0.609071 0.318190 0.957409
Si Si5 0.482238 0.866671 0.475052
Si Si6 0.471802 0.134234 0.633120
O O1 0.339697 0.059029 0.529394
O O2 0.000000 0.998826 0.250000
O O3 0.093573 0.992892 0.213548
O O4 0.038960 0.127011 0.217454
O O5 0.494648 0.365002 0.444266
O O6 0.464513 0.321117 0.537141
O O7 0.611658 0.221283 0.598203
O O8 0.801629 0.358520 0.798185
O O9 0.833471 0.435165 0.357852
O O10 0.500000 0.500000 0.000000
O O11 0.815359 0.358762 0.141946
O O12 0.610821 0.225470 0.936678
O O13 0.504150 0.875299 0.420157
#
# Coordination Sequence:
#
# PCOD9300701 Si02
#       6
#     8   8   8   8   8   8
#     4  12  27  41  55  86 127 161 198 251 301 351
#     4  11  19  36  64  95 121 149 198 252 299 354
#     4  12  23  40  62  94 123 155 199 249 305 354
#     4  11  19  38  60  87 121 159 203 241 285 358
#     4  11  19  35  66  95 120 151 199 254 299 346
#     4  11  19  37  62  85 122 161 202 241 288 355
#
# _framework density 19.800139999999999
#
# number of rings (size 3 to 8) (size 9 to 14) (size 15 to 20)
#    0.000    0.667    8.333    2.000    0.000    5.333 
#    0.000    0.000    0.000    1.000    0.000    0.000 
#    0.000    0.000    0.000    0.000    0.000    0.000 
#
# Total GULP energy -134043.136232 kJ/mol
# GULP energy per Si atom -5585.130676 kJ/mol
# Density = 1.975507 g / cm^3
# Si number density = 19.800140 Si / 1000 Ang^3
#
#
#
# Elastic Constant Matrix: (Units=GPa)
#
#
# Indices 1 2 3 4 5 6 
#
# 1 102.1491 47.8357 25.8336 -0.0028 0.5858 -0.0028
# 2 47.8357 59.9874 21.8293 0.0154 6.4590 0.0132
# 3 25.8336 21.8293 105.8539 -0.0095 22.9859 0.0011
# 4 -0.0028 0.0154 -0.0095 26.2676 -0.0033 18.2029
# 5 0.5858 6.4590 22.9859 -0.0033 20.1195 0.0057
# 6 -0.0028 0.0132 0.0011 18.2029 0.0057 3.4265
#
#
#
# Elastic Compliance Matrix: (Units=1/GPa)
#
#
# Indices 1 2 3 4 5 6 
#
# 1 0.016499 -0.012855 -0.002882 0.000010 0.006939 -0.000002
# 2 -0.012855 0.028102 -0.001038 -0.000020 -0.007462 0.000002
# 3 -0.002882 -0.001038 0.013664 0.000005 -0.015193 -0.000002
# 4 0.000010 -0.000020 0.000005 -0.014198 -0.000023 0.075424
# 5 0.006939 -0.007462 -0.015193 -0.000023 0.069254 0.000045
# 6 -0.000002 0.000002 -0.000002 0.075424 0.000045 -0.108840
#
#
# Mechanical properties :
#
#
# Convention : Reuss Voigt Hill
#
# Bulk Modulus (GPa) = 40.46239 50.99862 45.73050
# Shear Modulus (GPa) = 108.06611 21.46217 64.76414
#
# Velocity S-wave (km/s) = 7.39574 3.29590 5.72538
# Velocity P-wave (km/s) = 9.66483 6.34795 8.17635
#
# Compressibility (1/GPa) = 0.02471431
#
# Stress axis : x y z
#
# Youngs Moduli (GPa) = 60.61144 35.58481 73.18720
#
# Poissons Ratio (x) = 0.45743 0.21096
# Poissons Ratio (y) = 0.77914 0.07595
# Poissons Ratio (z) = 0.17471 0.03693
#
# Static dielectric constant tensor:
#      x y z
#    x 1.727270 0.000000 0.043200 
#    y 0.000000 1.716210 0.000000 
#    z 0.043200 0.000000 1.773520 
# 
# From -- ./inp_files/216249.got.cif
#   From: 2010.05.17/outbox.cif.g08.bks.cpg/sg15_109_cif.got.tgz:216249.got - 2010.06.03 18:47:42.
