data_PCOD9300512
_publ_section_title
;
Structure prediction by ZEFSAII (Michael W. Deem and Ramdas Pophale) SiO2 
 PCOD9300512
Probable space group: C 2/C
;
_chemical_formula_sum "Si O2"
_cell_formula_units_Z 56
_cell_length_a 13.244335
_cell_length_b 18.251851
_cell_length_c 14.154509
_cell_angle_alpha 90.000000
_cell_angle_beta 60.399474
_cell_angle_gamma 90.000000
_cell_volume 2975.066444
_symmetry_space_group_name_H-M "C 2/C"
_symmetry_group_IT_number 15
_symmetry_cell_setting 'monoclinic'
loop_
_space_group_symop_operation_xyz
x,y,z
-x,y,1/2-z
-x,-y,-z
x,-y,1/2+z
1/2+x,1/2+y,z
1/2-x,1/2+y,1/2-z
1/2-x,1/2-y,-z
1/2+x,1/2-y,1/2+z
loop_
_atom_site_type_symbol
_atom_site_label
_atom_site_fract_x
_atom_site_fract_y
_atom_site_fract_z
Si Si1 0.132311 0.512647 0.909514
Si Si2 0.599742 0.142056 0.777339
Si Si3 0.223194 0.020961 0.472846
Si Si4 0.205217 0.077450 0.282254
Si Si5 0.476176 0.705919 0.149157
Si Si6 0.824246 0.140703 0.571920
Si Si7 0.530605 0.440700 0.342166
O O1 0.137763 0.574341 0.825000
O O2 0.195950 0.439557 0.840538
O O3 0.202307 0.537981 0.969677
O O4 0.000000 0.500000 0.000000
O O5 0.500000 0.117951 0.750000
O O6 0.551716 0.209689 0.860087
O O7 0.707045 0.175096 0.667278
O O8 0.259342 0.060548 0.359792
O O9 0.089831 0.042287 0.551213
O O10 0.221001 0.934143 0.455504
O O11 0.133358 0.152424 0.318001
O O12 0.108522 0.014292 0.305615
O O13 0.500000 0.701246 0.250000
O O14 0.589673 0.680921 0.039047
O O15 0.900252 0.117487 0.627744
O O16 0.500000 0.418537 0.250000
#
# Coordination Sequence:
#
# PCOD9300512 Si02
#       7
#     8   8   8   8   8   8   8
#     4  12  25  38  61  86 124 164 204 242 300 374
#     4  11  25  42  57  86 129 167 197 240 309 372
#     4  11  19  35  64  91 111 149 204 257 300 337
#     4  11  20  36  60  92 116 148 202 258 295 349
#     4  11  23  37  63  91 123 157 201 254 309 354
#     4  11  20  38  62  88 121 152 201 258 301 350
#     4  11  17  32  64  93 114 140 198 260 306 334
#
# _framework density 18.823108999999999
#
# number of rings (size 3 to 8) (size 9 to 14) (size 15 to 20)
#    0.000    0.857    7.143    3.000    0.000    3.429 
#    0.000    0.714    0.000    0.000    0.000    0.000 
#    0.000    0.000    0.000    0.000    0.000    0.000 
#
# Total GULP energy -156355.710887 kJ/mol
# GULP energy per Si atom -5584.132532 kJ/mol
# Density = 1.878027 g / cm^3
# Si number density = 18.823109 Si / 1000 Ang^3
#
#
#
# Elastic Constant Matrix: (Units=GPa)
#
#
# Indices 1 2 3 4 5 6 
#
# 1 107.2425 13.0430 30.9977 0.0000 7.8960 0.0000
# 2 13.0430 45.1619 2.6726 0.0000 7.6273 0.0000
# 3 30.9977 2.6726 86.9394 0.0000 -5.0190 0.0000
# 4 0.0000 0.0000 0.0000 8.5721 0.0000 -0.8346
# 5 7.8960 7.6273 -5.0190 0.0000 40.1677 0.0000
# 6 0.0000 0.0000 0.0000 -0.8346 0.0000 9.9253
#
#
#
# Elastic Compliance Matrix: (Units=1/GPa)
#
#
# Indices 1 2 3 4 5 6 
#
# 1 0.010935 -0.002560 -0.003945 0.000000 -0.002156 0.000000
# 2 -0.002560 0.023556 -0.000041 0.000000 -0.003975 0.000000
# 3 -0.003945 -0.000041 0.013049 0.000000 0.002414 0.000000
# 4 0.000000 0.000000 0.000000 0.117621 0.000000 0.009891
# 5 -0.002156 -0.003975 0.002414 0.000000 0.026376 0.000000
# 6 0.000000 0.000000 0.000000 0.009891 0.000000 0.101584
#
#
# Mechanical properties :
#
#
# Convention : Reuss Voigt Hill
#
# Bulk Modulus (GPa) = 29.02880 36.97449 33.00164
# Shear Modulus (GPa) = 15.73837 24.57504 20.15670
#
# Velocity S-wave (km/s) = 2.89471 3.61720 3.27593
# Velocity P-wave (km/s) = 5.16022 6.09354 5.64620
#
# Compressibility (1/GPa) = 0.03444855
#
# Stress axis : x y z
#
# Youngs Moduli (GPa) = 91.44966 42.45249 76.63275
#
# Poissons Ratio (x) = 0.10870 0.30228
# Poissons Ratio (y) = 0.23416 0.00312
# Poissons Ratio (z) = 0.36073 0.00173
#
# Static dielectric constant tensor:
#      x y z
#    x 1.651100 0.000000 -0.016300 
#    y 0.000000 1.644330 0.000000 
#    z -0.016300 0.000000 1.716030 
# 
# From -- ./inp_files/145957.got.cif
#   From: 2010.05.17/outbox.cif.g08.bks.cpg/sg15_73_cif.got.tgz:145957.got - 2010.06.03 18:47:42.
