data_PCOD9300591
_publ_section_title
;
Structure prediction by ZEFSAII (Michael W. Deem and Ramdas Pophale) SiO2 
 PCOD9300591
Probable space group: C 2/C
;
_chemical_formula_sum "Si O2"
_cell_formula_units_Z 48
_cell_length_a 11.363688
_cell_length_b 9.901649
_cell_length_c 27.278853
_cell_angle_alpha 90.000000
_cell_angle_beta 138.873088
_cell_angle_gamma 90.000000
_cell_volume 2018.831195
_symmetry_space_group_name_H-M "C 2/C"
_symmetry_group_IT_number 15
_symmetry_cell_setting 'monoclinic'
loop_
_space_group_symop_operation_xyz
x,y,z
-x,y,1/2-z
-x,-y,-z
x,-y,1/2+z
1/2+x,1/2+y,z
1/2-x,1/2+y,1/2-z
1/2-x,1/2-y,-z
1/2+x,1/2-y,1/2+z
loop_
_atom_site_type_symbol
_atom_site_label
_atom_site_fract_x
_atom_site_fract_y
_atom_site_fract_z
Si Si1 0.613300 0.985176 0.851932
Si Si2 0.098960 0.377283 0.055679
Si Si3 0.007982 0.807821 0.194132
Si Si4 0.862681 0.000685 0.840389
Si Si5 0.923207 0.723538 0.591461
Si Si6 0.621843 0.657345 0.993156
O O1 0.483656 0.852324 0.817209
O O2 0.690711 0.977782 0.820971
O O3 0.582561 0.138330 0.859868
O O4 0.765390 0.946048 0.939483
O O5 0.311902 0.364818 0.116673
O O6 0.048710 0.367614 0.096068
O O7 0.025012 0.248476 0.003100
O O8 0.000000 0.500000 0.000000
O O9 0.000000 0.817949 0.250000
O O10 0.149679 0.904621 0.211478
O O11 0.970718 0.862517 0.865584
O O12 0.986335 0.086369 0.915482
O O13 0.750000 0.750000 0.500000
O O14 0.750000 0.750000 0.000000
#
# Coordination Sequence:
#
# PCOD9300591 Si02
#       6
#     8   8   8   8   8   8
#     4  11  23  43  64  99 135 177 225 277 351 413
#     4  11  22  39  67 102 138 175 230 283 350 406
#     4  11  26  50  68  92 141 187 235 291 348 423
#     4  12  22  42  66  98 138 173 224 287 342 408
#     4  12  22  37  66 105 141 167 218 285 342 409
#     4  11  18  36  62  97 138 170 212 280 340 406
#
# _framework density 23.776133000000002
#
# number of rings (size 3 to 8) (size 9 to 14) (size 15 to 20)
#    0.000    0.667    8.333    3.500    0.000    0.000 
#    3.000    0.833    0.000    0.000    0.000    0.000 
#    0.000    0.000    0.000    0.000    0.000    0.000 
#
# Total GULP energy -134078.069954 kJ/mol
# GULP energy per Si atom -5586.586248 kJ/mol
# Density = 2.372202 g / cm^3
# Si number density = 23.776133 Si / 1000 Ang^3
#
#
#
# Elastic Constant Matrix: (Units=GPa)
#
#
# Indices 1 2 3 4 5 6 
#
# 1 92.8742 39.2120 23.4981 0.0000 -11.7646 0.0000
# 2 39.2120 115.0744 32.6509 0.0000 6.2294 0.0000
# 3 23.4981 32.6509 92.0060 0.0000 -9.4652 0.0000
# 4 0.0000 0.0000 0.0000 31.1489 0.0000 -14.7599
# 5 -11.7646 6.2294 -9.4652 0.0000 37.7973 0.0000
# 6 0.0000 0.0000 0.0000 -14.7599 0.0000 49.9904
#
#
#
# Elastic Compliance Matrix: (Units=1/GPa)
#
#
# Indices 1 2 3 4 5 6 
#
# 1 0.013603 -0.004486 -0.001407 0.000000 0.004621 0.000000
# 2 -0.004486 0.011381 -0.003315 0.000000 -0.004102 0.000000
# 3 -0.001407 -0.003315 0.012744 0.000000 0.003300 0.000000
# 4 0.000000 0.000000 0.000000 0.037326 0.000000 0.011021
# 5 0.004621 -0.004102 0.003300 0.000000 0.029398 0.000000
# 6 0.000000 0.000000 0.000000 0.011021 0.000000 0.023258
#
#
# Mechanical properties :
#
#
# Convention : Reuss Voigt Hill
#
# Bulk Modulus (GPa) = 51.78140 54.51963 53.15052
# Shear Modulus (GPa) = 32.77329 37.42689 35.10009
#
# Velocity S-wave (km/s) = 3.71672 3.97184 3.84640
# Velocity P-wave (km/s) = 6.34387 6.63432 6.49072
#
# Compressibility (1/GPa) = 0.01931195
#
# Stress axis : x y z
#
# Youngs Moduli (GPa) = 73.51538 87.86217 78.46749
#
# Poissons Ratio (x) = 0.39416 0.11038
# Poissons Ratio (y) = 0.32980 0.26014
# Poissons Ratio (z) = 0.10341 0.29129
#
# Static dielectric constant tensor:
#      x y z
#    x 2.130280 0.000000 0.080330 
#    y 0.000000 1.824040 0.000000 
#    z 0.080330 0.000000 1.943020 
# 
# From -- ./inp_files/291289.got.cif
#   From: 2010.05.17/outbox.cif.g08.bks.cpg/sg15_146_cif.got.tgz:291289.got - 2010.06.03 18:47:42.
