data_PCOD9300605
_publ_section_title
;
Structure prediction by ZEFSAII (Michael W. Deem and Ramdas Pophale) SiO2 
 PCOD9300605
Probable space group: C 2/C
;
_chemical_formula_sum "Si O2"
_cell_formula_units_Z 44
_cell_length_a 20.477157
_cell_length_b 11.811492
_cell_length_c 14.106869
_cell_angle_alpha 90.000000
_cell_angle_beta 34.908433
_cell_angle_gamma 90.000000
_cell_volume 1952.555728
_symmetry_space_group_name_H-M "C 2/C"
_symmetry_group_IT_number 15
_symmetry_cell_setting 'monoclinic'
loop_
_space_group_symop_operation_xyz
x,y,z
-x,y,1/2-z
-x,-y,-z
x,-y,1/2+z
1/2+x,1/2+y,z
1/2-x,1/2+y,1/2-z
1/2-x,1/2-y,-z
1/2+x,1/2-y,1/2+z
loop_
_atom_site_type_symbol
_atom_site_label
_atom_site_fract_x
_atom_site_fract_y
_atom_site_fract_z
Si Si1 0.706821 0.573645 0.009111
Si Si2 0.513216 0.749128 0.586919
Si Si3 0.000000 0.067973 0.750000
Si Si4 0.125130 0.752055 0.764489
Si Si5 0.378504 0.960226 0.938284
Si Si6 0.072470 0.603524 0.458739
O O1 0.601609 0.508470 0.090185
O O2 0.656498 0.654318 0.151444
O O3 0.777779 0.655295 0.855680
O O4 0.788463 0.482576 0.963221
O O5 0.036705 0.849642 0.290825
O O6 0.597682 0.706839 0.403080
O O7 0.412427 0.817617 0.651507
O O8 0.589239 0.836782 0.558776
O O9 0.007866 0.684927 0.881990
O O10 0.500000 0.997654 0.750000
O O11 0.344583 0.041366 0.067521
O O12 0.000000 0.500000 0.500000
#
# Coordination Sequence:
#
# PCOD9300605 Si02
#       6
#     8   8   4   8   8   8
#     4  11  25  39  65  93 135 177 213 275 328 399
#     4   9  21  42  63  95 131 165 217 272 329 394
#     4  12  26  44  62 100 146 170 214 274 350 388
#     4   9  21  43  60  96 123 174 225 257 333 388
#     4  11  18  38  69  94 120 169 224 269 321 384
#     4   8  17  37  65  89 124 158 215 273 312 377
#
# _framework density 22.534566999999999
#
# number of rings (size 3 to 8) (size 9 to 14) (size 15 to 20)
#    1.091    1.091    2.727    0.000    0.000    5.818 
#    3.273    0.000    0.000    0.000    0.000    0.000 
#    0.000    0.000    0.000    0.000    0.000    0.000 
#
# Total GULP energy -122506.401692 kJ/mol
# GULP energy per Si atom -5568.472804 kJ/mol
# Density = 2.248328 g / cm^3
# Si number density = 22.534567 Si / 1000 Ang^3
#
#
#
# Elastic Constant Matrix: (Units=GPa)
#
#
# Indices 1 2 3 4 5 6 
#
# 1 19.2691 -6.0523 1.9059 0.0000 2.4858 0.0000
# 2 -6.0523 51.7927 11.1998 0.0000 5.8184 0.0000
# 3 1.9059 11.1998 33.9244 0.0000 17.7097 0.0000
# 4 0.0000 0.0000 0.0000 26.7035 0.0000 3.6195
# 5 2.4858 5.8184 17.7097 0.0000 32.6439 0.0000
# 6 0.0000 0.0000 0.0000 3.6195 0.0000 17.8804
#
#
#
# Elastic Compliance Matrix: (Units=1/GPa)
#
#
# Indices 1 2 3 4 5 6 
#
# 1 0.055129 0.007657 -0.003796 0.000000 -0.003503 0.000000
# 2 0.007657 0.021856 -0.007405 0.000000 -0.000462 0.000000
# 3 -0.003796 -0.007405 0.043660 0.000000 -0.022077 0.000000
# 4 0.000000 0.000000 0.000000 0.038505 0.000000 -0.007794
# 5 -0.003503 -0.000462 -0.022077 0.000000 0.042960 0.000000
# 6 0.000000 0.000000 0.000000 -0.007794 0.000000 0.057505
#
#
# Mechanical properties :
#
#
# Convention : Reuss Voigt Hill
#
# Bulk Modulus (GPa) = 8.80617 13.23253 11.01935
# Shear Modulus (GPa) = 16.41744 21.97441 19.19592
#
# Velocity S-wave (km/s) = 2.70208 3.12611 2.92180
# Velocity P-wave (km/s) = 3.69477 4.34914 4.03524
#
# Compressibility (1/GPa) = 0.11355672
#
# Stress axis : x y z
#
# Youngs Moduli (GPa) = 18.13929 45.75507 22.90421
#
# Poissons Ratio (x) = -0.35033 0.08694
# Poissons Ratio (y) = -0.13889 0.16960
# Poissons Ratio (z) = 0.06886 0.33880
#
# Static dielectric constant tensor:
#      x y z
#    x 1.883390 0.000000 0.014360 
#    y 0.000000 1.836750 0.000000 
#    z 0.014360 0.000000 1.836840 
# 
# From -- ./inp_files/162759.got.cif
#   From: 2010.05.17/outbox.cif.g08.bks.cpg/sg15_82_cif.got.tgz:162759.got - 2010.06.03 18:47:42.
