data_PCOD9300647
_publ_section_title
;
Structure prediction by ZEFSAII (Michael W. Deem and Ramdas Pophale) SiO2 
 PCOD9300647
Probable space group: C 2/C
;
_chemical_formula_sum "Si O2"
_cell_formula_units_Z 36
_cell_length_a 10.519351
_cell_length_b 9.901327
_cell_length_c 18.387628
_cell_angle_alpha 90.000000
_cell_angle_beta 56.413082
_cell_angle_gamma 90.000000
_cell_volume 1595.430396
_symmetry_space_group_name_H-M "C 2/C"
_symmetry_group_IT_number 15
_symmetry_cell_setting 'monoclinic'
loop_
_space_group_symop_operation_xyz
x,y,z
-x,y,1/2-z
-x,-y,-z
x,-y,1/2+z
1/2+x,1/2+y,z
1/2-x,1/2+y,1/2-z
1/2-x,1/2-y,-z
1/2+x,1/2-y,1/2+z
loop_
_atom_site_type_symbol
_atom_site_label
_atom_site_fract_x
_atom_site_fract_y
_atom_site_fract_z
Si Si1 0.500000 0.083891 0.750000
Si Si2 0.056634 0.319669 0.991214
Si Si3 0.735817 0.921270 0.066238
Si Si4 0.762957 0.275999 0.874751
Si Si5 0.404083 0.831098 0.687815
O O1 0.368718 0.151812 0.838431
O O2 0.426767 0.979656 0.715128
O O3 0.137443 0.415835 0.023908
O O4 0.874340 0.315802 0.055264
O O5 0.115898 0.168887 0.992487
O O6 0.112305 0.343674 0.892100
O O7 0.766061 0.071195 0.086296
O O8 0.777428 0.270466 0.782195
O O9 0.935340 0.251022 0.849219
#
# Coordination Sequence:
#
# PCOD9300647 Si02
#       5
#     4   8   8   8   8
#     4   8  18  38  50  68 114 136 166 236 258 314
#     4  11  19  32  59  81 102 149 183 218 274 339
#     4   9  21  33  51  84 108 141 183 221 277 326
#     4   9  19  37  53  76 117 137 176 240 263 317
#     4   8  18  34  53  77 103 140 183 214 275 323
#
# _framework density 22.564444000000002
#
# number of rings (size 3 to 8) (size 9 to 14) (size 15 to 20)
#    0.000    3.556    0.000    1.333    3.111    3.556 
#    0.000    0.000    9.778    0.000    0.000    0.000 
#    0.000    0.000    0.000    0.000    0.000    0.000 
#
# Total GULP energy -100369.666024 kJ/mol
# GULP energy per Si atom -5576.092557 kJ/mol
# Density = 2.251309 g / cm^3
# Si number density = 22.564444 Si / 1000 Ang^3
#
#
#
# Elastic Constant Matrix: (Units=GPa)
#
#
# Indices 1 2 3 4 5 6 
#
# 1 74.8606 34.2837 70.9048 0.0000 19.6959 0.0000
# 2 34.2837 54.6339 35.1633 0.0000 -0.5862 0.0000
# 3 70.9048 35.1633 164.9921 0.0000 35.3605 0.0000
# 4 0.0000 0.0000 0.0000 16.3917 0.0000 -1.8460
# 5 19.6959 -0.5862 35.3605 0.0000 46.7632 0.0000
# 6 0.0000 0.0000 0.0000 -1.8460 0.0000 7.1639
#
#
#
# Elastic Compliance Matrix: (Units=1/GPa)
#
#
# Indices 1 2 3 4 5 6 
#
# 1 0.028588 -0.012644 -0.008325 0.000000 -0.005904 0.000000
# 2 -0.012644 0.027592 -0.001983 0.000000 0.007171 0.000000
# 3 -0.008325 -0.001983 0.011117 0.000000 -0.004924 0.000000
# 4 0.000000 0.000000 0.000000 0.062830 0.000000 0.016190
# 5 -0.005904 0.007171 -0.004924 0.000000 0.027684 0.000000
# 6 0.000000 0.000000 0.000000 0.016190 0.000000 0.143762
#
#
# Mechanical properties :
#
#
# Convention : Reuss Voigt Hill
#
# Bulk Modulus (GPa) = 46.75100 63.91004 55.33052
# Shear Modulus (GPa) = 14.10009 24.33940 19.21974
#
# Velocity S-wave (km/s) = 2.50247 3.28786 2.92168
# Velocity P-wave (km/s) = 5.39571 6.54203 5.99633
#
# Compressibility (1/GPa) = 0.02138992
#
# Stress axis : x y z
#
# Youngs Moduli (GPa) = 34.98031 36.24292 89.95385
#
# Poissons Ratio (x) = 0.45826 0.74890
# Poissons Ratio (y) = 0.44230 0.17842
# Poissons Ratio (z) = 0.29122 0.07189
#
# Static dielectric constant tensor:
#      x y z
#    x 1.882390 0.000000 -0.014880 
#    y 0.000000 1.832690 0.000000 
#    z -0.014880 0.000000 1.866730 
# 
# From -- ./inp_files/196756.got.cif
#   From: 2010.05.17/outbox.cif.g08.bks.cpg/sg15_99_cif.got.tgz:196756.got - 2010.06.03 18:47:42.
