data_PCOD9300878
_publ_section_title
;
Structure prediction by ZEFSAII (Michael W. Deem and Ramdas Pophale) SiO2 
 PCOD9300878
Probable space group: C 2/C
;
_chemical_formula_sum "Si O2"
_cell_formula_units_Z 60
_cell_length_a 22.375861
_cell_length_b 16.542191
_cell_length_c 10.958047
_cell_angle_alpha 90.000000
_cell_angle_beta 44.512663
_cell_angle_gamma 90.000000
_cell_volume 2843.579653
_symmetry_space_group_name_H-M "C 2/C"
_symmetry_group_IT_number 15
_symmetry_cell_setting 'monoclinic'
loop_
_space_group_symop_operation_xyz
x,y,z
-x,y,1/2-z
-x,-y,-z
x,-y,1/2+z
1/2+x,1/2+y,z
1/2-x,1/2+y,1/2-z
1/2-x,1/2-y,-z
1/2+x,1/2-y,1/2+z
loop_
_atom_site_type_symbol
_atom_site_label
_atom_site_fract_x
_atom_site_fract_y
_atom_site_fract_z
Si Si1 0.131915 0.041950 0.134103
Si Si2 0.177069 0.304464 0.173670
Si Si3 0.899327 0.432863 0.405124
Si Si4 0.313943 0.828418 0.726358
Si Si5 0.627488 0.657493 0.372808
Si Si6 0.500000 0.414716 0.250000
Si Si7 0.181706 0.146831 0.849388
Si Si8 0.226476 0.566394 0.999661
O O1 0.133950 0.090934 0.256897
O O2 0.121101 0.102426 0.034878
O O3 0.060284 0.974476 0.237847
O O4 0.221512 0.994633 0.988177
O O5 0.134876 0.367227 0.143800
O O6 0.111211 0.241708 0.327557
O O7 0.229357 0.345026 0.206319
O O8 0.250000 0.250000 0.000000
O O9 0.872726 0.393350 0.572261
O O10 0.848418 0.515230 0.452979
O O11 0.000000 0.443554 0.250000
O O12 0.219578 0.835613 0.803852
O O13 0.343967 0.736996 0.655282
O O14 0.305474 0.856275 0.878306
O O15 0.557797 0.636065 0.574108
O O16 0.203939 0.093858 0.700387
#
# Coordination Sequence:
#
# PCOD9300878 Si02
#       8
#     8   8   8   8   8   4   8   8
#     4  12  21  41  66  94 136 176 222 270 334 419
#     4  11  19  45  73  90 129 179 226 276 332 405
#     4  12  25  43  70 102 129 175 242 286 331 410
#     4  11  22  45  69  94 134 179 228 281 346 409
#     4  11  21  41  67  95 137 178 218 266 344 410
#     4  12  26  38  60 110 140 164 212 284 344 406
#     4  11  22  41  73  98 125 183 235 265 337 421
#     4  12  23  41  69  96 137 178 218 284 349 402
#
# _framework density 21.100163999999999
#
# number of rings (size 3 to 8) (size 9 to 14) (size 15 to 20)
#    0.000    0.533    8.000    2.400    0.000    0.533 
#    7.200    0.000    1.467    0.000    0.000    0.000 
#    0.000    0.000    0.000    0.000    0.000    0.000 
#
# Total GULP energy -167767.534834 kJ/mol
# GULP energy per Si atom -5592.251161 kJ/mol
# Density = 2.105214 g / cm^3
# Si number density = 21.100164 Si / 1000 Ang^3
#
#
#
# Elastic Constant Matrix: (Units=GPa)
#
#
# Indices 1 2 3 4 5 6 
#
# 1 35.5032 15.5242 4.0196 0.0000 -2.8252 0.0000
# 2 15.5242 78.7006 37.1004 0.0000 11.9967 0.0000
# 3 4.0196 37.1004 97.3576 0.0000 2.5201 0.0000
# 4 0.0000 0.0000 0.0000 14.3863 0.0000 3.6452
# 5 -2.8252 11.9967 2.5201 0.0000 33.4799 0.0000
# 6 0.0000 0.0000 0.0000 3.6452 0.0000 18.7847
#
#
#
# Elastic Compliance Matrix: (Units=1/GPa)
#
#
# Indices 1 2 3 4 5 6 
#
# 1 0.031840 -0.007819 0.001526 0.000000 0.005374 0.000000
# 2 -0.007819 0.018336 -0.006490 0.000000 -0.006741 0.000000
# 3 0.001526 -0.006490 0.012643 0.000000 0.001503 0.000000
# 4 0.000000 0.000000 0.000000 0.073105 0.000000 -0.014186
# 5 0.005374 -0.006741 0.001503 0.000000 0.032625 0.000000
# 6 0.000000 0.000000 0.000000 -0.014186 0.000000 0.055988
#
#
# Mechanical properties :
#
#
# Convention : Reuss Voigt Hill
#
# Bulk Modulus (GPa) = 26.84385 36.09441 31.46913
# Shear Modulus (GPa) = 19.04614 23.65800 21.35207
#
# Velocity S-wave (km/s) = 3.00768 3.35210 3.18455
# Velocity P-wave (km/s) = 4.98109 5.66793 5.33557
#
# Compressibility (1/GPa) = 0.03725248
#
# Stress axis : x y z
#
# Youngs Moduli (GPa) = 31.40668 54.53785 79.09719
#
# Poissons Ratio (x) = 0.42645 -0.12071
# Poissons Ratio (y) = 0.24558 0.51334
# Poissons Ratio (z) = -0.04793 0.35395
#
# Static dielectric constant tensor:
#      x y z
#    x 1.791410 0.000000 0.048740 
#    y 0.000000 1.788770 0.000000 
#    z 0.048740 0.000000 1.782040 
# 
# From -- ./inp_files/119435.got.cif
#   From: 2010.05.17/outbox.cif.g08.bks.cpg/sg15_60_cif.got.tgz:119435.got - 2010.06.03 18:47:42.
