data_PCOD9300084
_publ_section_title
;
Structure prediction by ZEFSAII (Michael W. Deem and Ramdas Pophale) SiO2 
 PCOD9300084
Probable space group: C 2/C
;
_chemical_formula_sum "Si O2"
_cell_formula_units_Z 52
_cell_length_a 12.670703
_cell_length_b 8.590256
_cell_length_c 27.730550
_cell_angle_alpha 90.000000
_cell_angle_beta 57.042443
_cell_angle_gamma 90.000000
_cell_volume 2532.593317
_symmetry_space_group_name_H-M "C 2/C"
_symmetry_group_IT_number 15
_symmetry_cell_setting 'monoclinic'
loop_
_space_group_symop_operation_xyz
x,y,z
-x,y,1/2-z
-x,-y,-z
x,-y,1/2+z
1/2+x,1/2+y,z
1/2-x,1/2+y,1/2-z
1/2-x,1/2-y,-z
1/2+x,1/2-y,1/2+z
loop_
_atom_site_type_symbol
_atom_site_label
_atom_site_fract_x
_atom_site_fract_y
_atom_site_fract_z
Si Si1 0.435909 0.917583 0.561639
Si Si2 0.500000 0.895753 0.250000
Si Si3 0.127646 0.062927 0.943073
Si Si4 0.183507 0.639209 0.055605
Si Si5 0.982409 0.096264 0.199415
Si Si6 0.300962 0.372836 0.360610
Si Si7 0.756845 0.088760 0.182924
O O1 0.386031 0.746316 0.561178
O O2 0.543806 0.897444 0.574294
O O3 0.500000 0.000000 0.500000
O O4 0.325061 0.027500 0.606459
O O5 0.508652 0.779152 0.201728
O O6 0.628440 0.991689 0.220749
O O7 0.237294 0.014927 0.952916
O O8 0.163085 0.981246 0.882778
O O9 0.000000 0.000000 0.000000
O O10 0.188617 0.738816 0.102472
O O11 0.250000 0.750000 0.000000
O O12 0.000000 0.034918 0.250000
O O13 0.850414 0.078525 0.205382
O O14 0.091231 0.993617 0.149533
O O15 0.288895 0.266361 0.315617
#
# Coordination Sequence:
#
# PCOD9300084 Si02
#       7
#     8   4   8   8   8   8   8
#     4  12  23  40  65  97 137 178 228 272 329 408
#     4  10  26  44  68 100 132 172 234 280 346 408
#     4  11  23  42  70 100 138 180 221 276 340 409
#     4  11  22  43  64  99 139 180 221 272 333 410
#     4  10  26  44  69 100 129 172 230 286 345 402
#     4  11  25  42  67  99 131 177 228 271 345 400
#     4  11  25  46  71  98 138 179 225 284 348 408
#
# _framework density 20.532314
#
# number of rings (size 3 to 8) (size 9 to 14) (size 15 to 20)
#    0.462    0.615    3.077    2.769    3.231    4.308 
#    0.000    0.000    0.000    0.000    0.000    0.000 
#    0.000    0.000    0.000    0.000    0.000    0.000 
#
# Total GULP energy -144985.016339 kJ/mol
# GULP energy per Si atom -5576.346782 kJ/mol
# Density = 2.048558 g / cm^3
# Si number density = 20.532314 Si / 1000 Ang^3
#
#
#
# Elastic Constant Matrix: (Units=GPa)
#
#
# Indices 1 2 3 4 5 6 
#
# 1 217.2032 98.1136 39.9865 0.0000 -12.2394 0.0000
# 2 98.1136 161.0050 30.4586 0.0000 -20.2801 0.0000
# 3 39.9865 30.4586 29.7887 0.0000 -4.7013 0.0000
# 4 0.0000 0.0000 0.0000 19.0926 0.0000 -0.0014
# 5 -12.2394 -20.2801 -4.7013 0.0000 33.5691 0.0000
# 6 0.0000 0.0000 0.0000 -0.0014 0.0000 17.6705
#
#
#
# Elastic Compliance Matrix: (Units=1/GPa)
#
#
# Indices 1 2 3 4 5 6 
#
# 1 0.007232 -0.003212 -0.006456 0.000000 -0.000208 0.000000
# 2 -0.003212 0.009585 -0.004868 0.000000 0.003938 0.000000
# 3 -0.006456 -0.004868 0.047426 0.000000 0.001347 0.000000
# 4 0.000000 0.000000 0.000000 0.052376 0.000000 0.000004
# 5 -0.000208 0.003938 0.001347 0.000000 0.032281 0.000000
# 6 0.000000 0.000000 0.000000 0.000004 0.000000 0.056591
#
#
# Mechanical properties :
#
#
# Convention : Reuss Voigt Hill
#
# Bulk Modulus (GPa) = 28.43230 82.79049 55.61140
# Shear Modulus (GPa) = 20.30151 30.02900 25.16526
#
# Velocity S-wave (km/s) = 3.14787 3.82844 3.50471
# Velocity P-wave (km/s) = 5.20478 7.74288 6.59704
#
# Compressibility (1/GPa) = 0.03517127
#
# Stress axis : x y z
#
# Youngs Moduli (GPa) = 138.28277 104.32947 21.08533
#
# Poissons Ratio (x) = 0.33506 0.13613
# Poissons Ratio (y) = 0.44411 0.10264
# Poissons Ratio (z) = 0.89278 0.50788
#
# Static dielectric constant tensor:
#      x y z
#    x 1.576910 0.000000 0.653810 
#    y 0.000000 1.754210 0.000000 
#    z 0.653810 0.000000 -0.185190 
# 
# From -- ./inp_files/291470.got.cif
#   From: 2010.05.17/outbox.cif.g08.bks.cpg/sg15_146_cif.got.tgz:291470.got - 2010.06.03 18:47:42.
