data_PCOD9300299
_publ_section_title
;
Structure prediction by ZEFSAII (Michael W. Deem and Ramdas Pophale) SiO2 
 PCOD9300299
Probable space group: C 2/C
;
_chemical_formula_sum "Si O2"
_cell_formula_units_Z 48
_cell_length_a 9.431433
_cell_length_b 26.306666
_cell_length_c 15.719781
_cell_angle_alpha 90.000000
_cell_angle_beta 144.801872
_cell_angle_gamma 90.000000
_cell_volume 2248.113279
_symmetry_space_group_name_H-M "C 2/C"
_symmetry_group_IT_number 15
_symmetry_cell_setting 'monoclinic'
loop_
_space_group_symop_operation_xyz
x,y,z
-x,y,1/2-z
-x,-y,-z
x,-y,1/2+z
1/2+x,1/2+y,z
1/2-x,1/2+y,1/2-z
1/2-x,1/2-y,-z
1/2+x,1/2-y,1/2+z
loop_
_atom_site_type_symbol
_atom_site_label
_atom_site_fract_x
_atom_site_fract_y
_atom_site_fract_z
Si Si1 0.356823 0.070037 0.262033
Si Si2 0.301851 0.392218 0.508339
Si Si3 0.990601 0.631983 0.021718
Si Si4 0.351604 0.769004 0.798245
Si Si5 0.000000 0.471494 0.250000
Si Si6 0.000000 0.187411 0.750000
Si Si7 0.344696 0.717438 0.967227
O O1 0.500000 0.092877 0.250000
O O2 0.521163 0.082175 0.425116
O O3 0.339294 0.010798 0.227868
O O4 0.088745 0.092597 0.149429
O O5 0.274156 0.340762 0.441167
O O6 0.190312 0.378351 0.546120
O O7 0.155035 0.436746 0.389469
O O8 0.058906 0.677239 0.121374
O O9 0.738259 0.651989 0.857119
O O10 0.523444 0.726114 0.840564
O O11 0.139815 0.778615 0.624835
O O12 0.257827 0.741559 0.837413
O O13 0.250000 0.750000 0.000000
#
# Coordination Sequence:
#
# PCOD9300299 Si02
#       7
#     8   8   8   8   4   4   8
#     4  10  26  48  74 102 141 187 244 307 380 433
#     4  12  25  47  77 106 146 188 246 302 374 448
#     4  12  26  44  72 106 143 203 242 301 370 436
#     4  12  25  42  65 106 151 201 242 291 362 439
#     4  10  28  47  78 110 134 193 246 320 380 426
#     4  12  28  43  66 112 162 191 252 298 358 450
#     4  12  25  40  71 107 151 191 245 295 362 449
#
# _framework density 21.351237000000001
#
# number of rings (size 3 to 8) (size 9 to 14) (size 15 to 20)
#    0.500    0.000    5.000    2.000    8.167    0.667 
#    0.000    0.000    0.000    0.000    0.000    0.000 
#    0.000    0.000    0.000    0.000    0.000    0.000 
#
# Total GULP energy -134024.660132 kJ/mol
# GULP energy per Si atom -5584.360839 kJ/mol
# Density = 2.130264 g / cm^3
# Si number density = 21.351237 Si / 1000 Ang^3
#
#
#
# Elastic Constant Matrix: (Units=GPa)
#
#
# Indices 1 2 3 4 5 6 
#
# 1 121.9203 37.0599 38.9322 0.0000 3.1653 0.0000
# 2 37.0599 115.7823 30.2402 0.0000 1.0825 0.0000
# 3 38.9322 30.2402 90.0013 0.0000 4.6821 0.0000
# 4 0.0000 0.0000 0.0000 45.4367 0.0000 -0.7251
# 5 3.1653 1.0825 4.6821 0.0000 34.7201 0.0000
# 6 0.0000 0.0000 0.0000 -0.7251 0.0000 27.0985
#
#
#
# Elastic Compliance Matrix: (Units=1/GPa)
#
#
# Indices 1 2 3 4 5 6 
#
# 1 0.010041 -0.002281 -0.003558 0.000000 -0.000364 0.000000
# 2 -0.002281 0.009987 -0.002380 0.000000 0.000218 0.000000
# 3 -0.003558 -0.002380 0.013524 0.000000 -0.001425 0.000000
# 4 0.000000 0.000000 0.000000 0.022018 0.000000 0.000589
# 5 -0.000364 0.000218 -0.001425 0.000000 0.029020 0.000000
# 6 0.000000 0.000000 0.000000 0.000589 0.000000 0.036918
#
#
# Mechanical properties :
#
#
# Convention : Reuss Voigt Hill
#
# Bulk Modulus (GPa) = 58.43502 60.01870 59.22686
# Shear Modulus (GPa) = 34.80648 36.21584 35.51116
#
# Velocity S-wave (km/s) = 4.04194 4.12296 4.08265
# Velocity P-wave (km/s) = 7.01505 7.12995 7.07273
#
# Compressibility (1/GPa) = 0.01711302
#
# Stress axis : x y z
#
# Youngs Moduli (GPa) = 99.59003 100.13347 73.94326
#
# Poissons Ratio (x) = 0.22843 0.26310
# Poissons Ratio (y) = 0.22719 0.17598
# Poissons Ratio (z) = 0.35435 0.23832
#
# Static dielectric constant tensor:
#      x y z
#    x 1.780830 0.000000 0.025460 
#    y 0.000000 1.772040 0.000000 
#    z 0.025460 0.000000 1.791340 
# 
# From -- ./inp_files/115137.got.cif
#   From: 2010.05.17/outbox.cif.g08.bks.cpg/sg15_58_cif.got.tgz:115137.got - 2010.06.03 18:47:42.
