data_PCOD9300230
_publ_section_title
;
Structure prediction by ZEFSAII (Michael W. Deem and Ramdas Pophale) SiO2 
 PCOD9300230
Probable space group: C 2/C
;
_chemical_formula_sum "Si O2"
_cell_formula_units_Z 56
_cell_length_a 13.709781
_cell_length_b 18.907730
_cell_length_c 13.269548
_cell_angle_alpha 90.000000
_cell_angle_beta 137.218336
_cell_angle_gamma 90.000000
_cell_volume 2336.295897
_symmetry_space_group_name_H-M "C 2/C"
_symmetry_group_IT_number 15
_symmetry_cell_setting 'monoclinic'
loop_
_space_group_symop_operation_xyz
x,y,z
-x,y,1/2-z
-x,-y,-z
x,-y,1/2+z
1/2+x,1/2+y,z
1/2-x,1/2+y,1/2-z
1/2-x,1/2-y,-z
1/2+x,1/2-y,1/2+z
loop_
_atom_site_type_symbol
_atom_site_label
_atom_site_fract_x
_atom_site_fract_y
_atom_site_fract_z
Si Si1 0.209257 0.026697 0.128346
Si Si2 0.512971 0.193828 0.058709
Si Si3 0.210930 0.223498 0.858456
Si Si4 0.840746 0.070800 0.609661
Si Si5 0.470409 0.966311 0.583977
Si Si6 0.410139 0.248360 0.582269
Si Si7 0.999102 0.908480 0.626489
O O1 0.380316 0.012750 0.247985
O O2 0.143574 0.058040 0.182878
O O3 0.171723 0.087072 0.018152
O O4 0.121923 0.958091 0.020700
O O5 0.592576 0.236027 0.206342
O O6 0.484107 0.117908 0.084496
O O7 0.360520 0.227200 0.914538
O O8 0.591477 0.193508 0.011842
O O9 0.167660 0.141731 0.832942
O O10 0.250000 0.250000 0.000000
O O11 0.698784 0.023570 0.520904
O O12 0.000000 0.042576 0.750000
O O13 0.500000 0.000000 0.500000
O O14 0.500000 0.228582 0.750000
O O15 0.250000 0.250000 0.500000
O O16 0.462281 0.325494 0.579829
O O17 0.000000 0.908576 0.750000
#
# Coordination Sequence:
#
# PCOD9300230 Si02
#       7
#     8   8   8   8   8   8   8
#     4  11  25  45  78 104 149 195 243 311 373 438
#     4  11  25  44  70 103 147 190 241 299 370 430
#     4  11  23  40  68 106 141 184 229 298 367 441
#     4  11  25  44  70 107 144 185 240 293 368 447
#     4  11  28  45  71 108 151 191 241 307 365 446
#     4  11  26  46  72 105 146 198 253 307 362 443
#     4  10  26  46  75 111 146 196 253 306 371 440
#
# _framework density 23.969567000000001
#
# number of rings (size 3 to 8) (size 9 to 14) (size 15 to 20)
#    0.000    1.143    0.000    3.857   16.000    4.571 
#    0.000    0.000    0.000    0.000    0.000    0.000 
#    0.000    0.000    0.000    0.000    0.000    0.000 
#
# Total GULP energy -156265.105590 kJ/mol
# GULP energy per Si atom -5580.896628 kJ/mol
# Density = 2.391501 g / cm^3
# Si number density = 23.969567 Si / 1000 Ang^3
#
#
#
# Elastic Constant Matrix: (Units=GPa)
#
#
# Indices 1 2 3 4 5 6 
#
# 1 127.7672 -20.4763 40.8800 0.0000 20.2616 0.0000
# 2 -20.4763 28.2089 13.5103 0.0000 3.0623 0.0000
# 3 40.8800 13.5103 154.9754 0.0000 20.8403 0.0000
# 4 0.0000 0.0000 0.0000 24.5891 0.0000 -2.1545
# 5 20.2616 3.0623 20.8403 0.0000 50.5479 0.0000
# 6 0.0000 0.0000 0.0000 -2.1545 0.0000 31.6756
#
#
#
# Elastic Compliance Matrix: (Units=1/GPa)
#
#
# Indices 1 2 3 4 5 6 
#
# 1 0.011072 0.010016 -0.003298 0.000000 -0.003685 0.000000
# 2 0.010016 0.046101 -0.006083 0.000000 -0.004300 0.000000
# 3 -0.003298 -0.006083 0.008073 0.000000 -0.001638 0.000000
# 4 0.000000 0.000000 0.000000 0.040912 0.000000 0.002783
# 5 -0.003685 -0.004300 -0.001638 0.000000 0.022196 0.000000
# 6 0.000000 0.000000 0.000000 0.002783 0.000000 0.031759
#
#
# Mechanical properties :
#
#
# Convention : Reuss Voigt Hill
#
# Bulk Modulus (GPa) = 15.03395 42.08659 28.56027
# Shear Modulus (GPa) = 27.62211 39.83170 33.72690
#
# Velocity S-wave (km/s) = 3.39836 4.08089 3.75517
# Velocity P-wave (km/s) = 4.65663 6.30883 5.54462
#
# Compressibility (1/GPa) = 0.06651613
#
# Stress axis : x y z
#
# Youngs Moduli (GPa) = 90.32096 21.69169 123.86684
#
# Poissons Ratio (x) = -0.21727 0.40853
# Poissons Ratio (y) = -0.90469 0.75346
# Poissons Ratio (z) = 0.29789 0.13195
#
# Static dielectric constant tensor:
#      x y z
#    x 2.385230 0.000000 -0.262250 
#    y 0.000000 1.952820 0.000000 
#    z -0.262250 0.000000 2.206290 
# 
# From -- ./inp_files/156226.got.cif
#   From: 2010.05.17/outbox.cif.g08.bks.cpg/sg15_79_cif.got.tgz:156226.got - 2010.06.03 18:47:42.
