data_PCOD9300441
_publ_section_title
;
Structure prediction by ZEFSAII (Michael W. Deem and Ramdas Pophale) SiO2 
 PCOD9300441
Probable space group: C 2/C
;
_chemical_formula_sum "Si O2"
_cell_formula_units_Z 44
_cell_length_a 16.440543
_cell_length_b 16.402191
_cell_length_c 7.890571
_cell_angle_alpha 90.000000
_cell_angle_beta 56.337101
_cell_angle_gamma 90.000000
_cell_volume 1770.978348
_symmetry_space_group_name_H-M "C 2/C"
_symmetry_group_IT_number 15
_symmetry_cell_setting 'monoclinic'
loop_
_space_group_symop_operation_xyz
x,y,z
-x,y,1/2-z
-x,-y,-z
x,-y,1/2+z
1/2+x,1/2+y,z
1/2-x,1/2+y,1/2-z
1/2-x,1/2-y,-z
1/2+x,1/2-y,1/2+z
loop_
_atom_site_type_symbol
_atom_site_label
_atom_site_fract_x
_atom_site_fract_y
_atom_site_fract_z
Si Si1 0.285717 0.869122 0.592561
Si Si2 0.500000 0.875709 0.250000
Si Si3 0.891107 0.794838 0.543219
Si Si4 0.430172 0.105070 0.480408
Si Si5 0.061268 0.900675 0.323923
Si Si6 0.757851 0.968188 0.199913
O O1 0.395874 0.837472 0.431564
O O2 0.208121 0.801619 0.737071
O O3 0.252074 0.919639 0.464793
O O4 0.273283 0.937316 0.755027
O O5 0.531783 0.923108 0.380711
O O6 0.925737 0.702800 0.496437
O O7 0.885232 0.832764 0.358963
O O8 0.977638 0.851224 0.520788
O O9 0.500000 0.082122 0.250000
O O10 0.321797 0.073053 0.586170
O O11 0.136139 0.952496 0.343454
O O12 0.000000 0.949411 0.250000
#
# Coordination Sequence:
#
# PCOD9300441 Si02
#       6
#     8   4   8   8   8   8
#     4  11  25  44  64  97 137 178 219 281 331 402
#     4  10  28  42  64 102 136 176 228 278 330 406
#     4   9  21  43  65  97 132 171 223 271 338 396
#     4  11  24  43  71 101 133 183 221 280 336 398
#     4   8  20  41  60  99 122 170 220 265 332 396
#     4  11  25  40  67  98 131 181 224 272 339 396
#
# _framework density 24.845025
#
# number of rings (size 3 to 8) (size 9 to 14) (size 15 to 20)
#    1.091    0.727    1.818    1.091    6.364    9.455 
#    0.000    0.000    0.000    0.000    0.000    0.000 
#    0.000    0.000    0.000    0.000    0.000    0.000 
#
# Total GULP energy -122866.307144 kJ/mol
# GULP energy per Si atom -5584.832143 kJ/mol
# Density = 2.478848 g / cm^3
# Si number density = 24.845025 Si / 1000 Ang^3
#
#
#
# Elastic Constant Matrix: (Units=GPa)
#
#
# Indices 1 2 3 4 5 6 
#
# 1 107.5378 11.8811 60.7107 0.0000 -17.0187 0.0000
# 2 11.8811 73.4077 50.6931 0.0000 -9.4836 0.0000
# 3 60.7107 50.6931 150.5355 0.0000 -26.1735 0.0000
# 4 0.0000 0.0000 0.0000 6.3836 0.0000 10.6625
# 5 -17.0187 -9.4836 -26.1735 0.0000 49.5194 0.0000
# 6 0.0000 0.0000 0.0000 10.6625 0.0000 6.6928
#
#
#
# Elastic Compliance Matrix: (Units=1/GPa)
#
#
# Indices 1 2 3 4 5 6 
#
# 1 0.012377 0.001903 -0.005318 0.000000 0.001807 0.000000
# 2 0.001903 0.018046 -0.006750 0.000000 0.000542 0.000000
# 3 -0.005318 -0.006750 0.011583 0.000000 0.003002 0.000000
# 4 0.000000 0.000000 0.000000 -0.094310 0.000000 0.150249
# 5 0.001807 0.000542 0.003002 0.000000 0.022506 0.000000
# 6 0.000000 0.000000 0.000000 0.150249 0.000000 -0.089953
#
#
# Mechanical properties :
#
#
# Convention : Reuss Voigt Hill
#
# Bulk Modulus (GPa) = 46.13626 64.22787 55.18207
# Shear Modulus (GPa) = -54.23311 26.39889 -13.91711
#
# Velocity S-wave (km/s) = -4.67717 3.26320 -2.36933
# Velocity P-wave (km/s) = 3.24931 6.33289 3.84366
#
# Compressibility (1/GPa) = 0.02167492
#
# Stress axis : x y z
#
# Youngs Moduli (GPa) = 80.79316 55.41363 86.33455
#
# Poissons Ratio (x) = -0.10544 0.45915
# Poissons Ratio (y) = -0.15374 0.58278
# Poissons Ratio (z) = 0.42968 0.37405
#
# Static dielectric constant tensor:
#      x y z
#    x 2.015850 0.000000 0.015680 
#    y 0.000000 1.950680 0.000000 
#    z 0.015680 0.000000 1.980340 
# 
# From -- ./inp_files/48878.got.cif
#   From: 2010.05.17/outbox.cif.g08.bks.cpg/sg15_25_cif.got.tgz:48878.got - 2010.06.03 18:47:42.
