data_PCOD9300674
_publ_section_title
;
Structure prediction by ZEFSAII (Michael W. Deem and Ramdas Pophale) SiO2 
 PCOD9300674
Probable space group: C 2/C
;
_chemical_formula_sum "Si O2"
_cell_formula_units_Z 52
_cell_length_a 11.945444
_cell_length_b 21.512040
_cell_length_c 13.926492
_cell_angle_alpha 90.000000
_cell_angle_beta 133.716980
_cell_angle_gamma 90.000000
_cell_volume 2586.551671
_symmetry_space_group_name_H-M "C 2/C"
_symmetry_group_IT_number 15
_symmetry_cell_setting 'monoclinic'
loop_
_space_group_symop_operation_xyz
x,y,z
-x,y,1/2-z
-x,-y,-z
x,-y,1/2+z
1/2+x,1/2+y,z
1/2-x,1/2+y,1/2-z
1/2-x,1/2-y,-z
1/2+x,1/2-y,1/2+z
loop_
_atom_site_type_symbol
_atom_site_label
_atom_site_fract_x
_atom_site_fract_y
_atom_site_fract_z
Si Si1 0.834347 0.394104 0.675558
Si Si2 0.806291 0.187240 0.755172
Si Si3 0.322427 0.088957 0.683511
Si Si4 0.359851 0.724482 0.480877
Si Si5 0.000000 0.092409 0.750000
Si Si6 0.194310 0.998491 0.465500
Si Si7 0.340665 0.983335 0.853260
O O1 0.699199 0.344814 0.579082
O O2 0.817102 0.452076 0.590710
O O3 0.835618 0.422700 0.783154
O O4 0.000000 0.363946 0.750000
O O5 0.735708 0.152474 0.804885
O O6 0.679978 0.231581 0.632198
O O7 0.864070 0.136886 0.709005
O O8 0.963475 0.222357 0.879595
O O9 0.500000 0.091414 0.750000
O O10 0.205756 0.060225 0.535316
O O11 0.314871 0.039648 0.765343
O O12 0.250000 0.750000 0.500000
O O13 0.949798 0.047884 0.632325
O O14 0.227200 0.017832 0.376086
O O15 0.500000 0.000000 0.000000
#
# Coordination Sequence:
#
# PCOD9300674 Si02
#       7
#     8   8   8   8   4   8   8
#     4  11  21  34  62  96 128 166 216 269 319 395
#     4  12  25  43  68  98 131 173 223 283 338 389
#     4  11  24  41  67  97 134 178 220 265 330 410
#     4  12  24  43  66  96 128 169 225 284 336 379
#     4  12  22  38  66 100 132 170 204 280 342 394
#     4  11  21  38  61  97 137 168 212 259 338 399
#     4  11  19  34  62  95 131 170 210 255 322 398
#
# _framework density 20.103985999999999
#
# number of rings (size 3 to 8) (size 9 to 14) (size 15 to 20)
#    0.000    0.615    7.692    1.846    0.000    3.077 
#    0.000    0.769    0.000    0.000    0.000    0.000 
#    0.000    0.000    0.000    0.000    0.000    0.000 
#
# Total GULP energy -145145.974140 kJ/mol
# GULP energy per Si atom -5582.537467 kJ/mol
# Density = 2.005823 g / cm^3
# Si number density = 20.103986 Si / 1000 Ang^3
#
#
#
# Elastic Constant Matrix: (Units=GPa)
#
#
# Indices 1 2 3 4 5 6 
#
# 1 48.9139 30.1438 32.1304 0.0000 -21.4546 0.0000
# 2 30.1438 82.4896 44.6413 0.0000 -12.9060 0.0000
# 3 32.1304 44.6413 123.5624 0.0000 -10.4571 0.0000
# 4 0.0000 0.0000 0.0000 45.7462 0.0000 -7.9415
# 5 -21.4546 -12.9060 -10.4571 0.0000 33.2287 0.0000
# 6 0.0000 0.0000 0.0000 -7.9415 0.0000 31.3775
#
#
#
# Elastic Compliance Matrix: (Units=1/GPa)
#
#
# Indices 1 2 3 4 5 6 
#
# 1 0.037099 -0.007705 -0.005229 0.000000 0.019316 0.000000
# 2 -0.007705 0.017278 -0.004204 0.000000 0.000413 0.000000
# 3 -0.005229 -0.004204 0.010836 0.000000 -0.001598 0.000000
# 4 0.000000 0.000000 0.000000 0.022864 0.000000 0.005787
# 5 0.019316 0.000413 -0.001598 0.000000 0.042223 0.000000
# 6 0.000000 0.000000 0.000000 0.005787 0.000000 0.033335
#
#
# Mechanical properties :
#
#
# Convention : Reuss Voigt Hill
#
# Bulk Modulus (GPa) = 32.32258 52.08856 42.20557
# Shear Modulus (GPa) = 24.01263 31.94050 27.97657
#
# Velocity S-wave (km/s) = 3.45979 3.99026 3.73445
# Velocity P-wave (km/s) = 5.66328 6.86989 6.29556
#
# Compressibility (1/GPa) = 0.03093812
#
# Stress axis : x y z
#
# Youngs Moduli (GPa) = 26.95460 57.87694 92.28385
#
# Poissons Ratio (x) = 0.44597 0.48251
# Poissons Ratio (y) = 0.20770 0.38793
# Poissons Ratio (z) = 0.14093 0.24330
#
# Static dielectric constant tensor:
#      x y z
#    x 1.776310 0.000000 0.032560 
#    y 0.000000 1.754600 0.000000 
#    z 0.032560 0.000000 1.917180 
# 
# From -- ./inp_files/89699.got.cif
#   From: 2010.05.17/outbox.cif.g08.bks.cpg/sg15_45_cif.got.tgz:89699.got - 2010.06.03 18:47:42.
