data_PCOD9300073
_publ_section_title
;
Structure prediction by ZEFSAII (Michael W. Deem and Ramdas Pophale) SiO2 
 PCOD9300073
Probable space group: C 2/C
;
_chemical_formula_sum "Si O2"
_cell_formula_units_Z 60
_cell_length_a 25.266314
_cell_length_b 6.491283
_cell_length_c 21.487561
_cell_angle_alpha 90.000000
_cell_angle_beta 122.727237
_cell_angle_gamma 90.000000
_cell_volume 2964.740118
_symmetry_space_group_name_H-M "C 2/C"
_symmetry_group_IT_number 15
_symmetry_cell_setting 'monoclinic'
loop_
_space_group_symop_operation_xyz
x,y,z
-x,y,1/2-z
-x,-y,-z
x,-y,1/2+z
1/2+x,1/2+y,z
1/2-x,1/2+y,1/2-z
1/2-x,1/2-y,-z
1/2+x,1/2-y,1/2+z
loop_
_atom_site_type_symbol
_atom_site_label
_atom_site_fract_x
_atom_site_fract_y
_atom_site_fract_z
Si Si1 0.661501 0.283730 0.570741
Si Si2 0.528635 0.623942 0.669437
Si Si3 0.563434 0.251888 0.879649
Si Si4 0.000000 0.535981 0.250000
Si Si5 0.776373 0.609409 0.333927
Si Si6 0.346143 0.536149 0.812640
Si Si7 0.031199 0.423082 0.957749
Si Si8 0.702442 0.659852 0.521691
O O1 0.637357 0.433595 0.610407
O O2 0.602822 0.154364 0.507707
O O3 0.696018 0.419391 0.539460
O O4 0.704532 0.118915 0.633117
O O5 0.475705 0.460134 0.654882
O O6 0.529550 0.810407 0.718487
O O7 0.596264 0.531648 0.698305
O O8 0.506778 0.729025 0.591675
O O9 0.554097 0.109593 0.813144
O O10 0.529140 0.115669 0.910156
O O11 0.633240 0.290197 0.949678
O O12 0.710854 0.585862 0.256262
O O13 0.823141 0.733368 0.317253
O O14 0.778759 0.732389 0.400897
O O15 0.000000 0.500000 0.000000
O O16 0.750000 0.750000 0.500000
#
# Coordination Sequence:
#
# PCOD9300073 Si02
#       8
#     8   8   8   4   8   8   8   8
#     4  11  22  42  66  95 138 171 222 280 326 405
#     4  11  24  42  67  97 129 176 215 274 339 387
#     4  11  23  45  64  95 132 166 227 273 322 405
#     4  10  26  44  64  92 132 176 218 276 322 402
#     4  11  23  44  63  97 136 172 223 274 328 411
#     4  11  24  41  68  98 136 176 216 273 342 393
#     4  11  22  38  67  99 130 167 212 273 340 394
#     4  11  26  43  67  96 131 182 225 274 338 397
#
# _framework density 20.237862
#
# number of rings (size 3 to 8) (size 9 to 14) (size 15 to 20)
#    0.000    1.067    4.000    2.000    1.867    5.867 
#    0.000    0.000    0.000    0.000    0.000    0.000 
#    0.000    0.000    0.000    0.000    0.000    0.000 
#
# Total GULP energy -167378.858585 kJ/mol
# GULP energy per Si atom -5579.295286 kJ/mol
# Density = 2.019180 g / cm^3
# Si number density = 20.237862 Si / 1000 Ang^3
#
#
#
# Elastic Constant Matrix: (Units=GPa)
#
#
# Indices 1 2 3 4 5 6 
#
# 1 66.9969 24.5417 12.5721 0.0002 -7.5278 -0.0004
# 2 24.5417 101.4291 34.8179 0.0008 -6.6727 -0.0024
# 3 12.5721 34.8179 82.9960 0.0000 -2.6226 0.0000
# 4 0.0002 0.0008 0.0000 44.5452 0.0000 5.2975
# 5 -7.5278 -6.6727 -2.6226 0.0000 22.7575 0.0000
# 6 -0.0004 -0.0024 0.0000 5.2975 0.0000 17.8042
#
#
#
# Elastic Compliance Matrix: (Units=1/GPa)
#
#
# Indices 1 2 3 4 5 6 
#
# 1 0.016875 -0.003459 -0.000964 0.000000 0.004457 0.000000
# 2 -0.003459 0.012411 -0.004621 0.000000 0.001962 0.000002
# 3 -0.000964 -0.004621 0.014132 0.000000 -0.000045 -0.000001
# 4 0.000000 0.000000 0.000000 0.023273 0.000000 -0.006925
# 5 0.004457 0.001962 -0.000045 0.000000 0.045986 0.000000
# 6 0.000000 0.000002 -0.000001 -0.006925 0.000000 0.058227
#
#
# Mechanical properties :
#
#
# Convention : Reuss Voigt Hill
#
# Bulk Modulus (GPa) = 39.47856 43.92057 41.69957
# Shear Modulus (GPa) = 25.32487 28.98740 27.15613
#
# Velocity S-wave (km/s) = 3.54130 3.78873 3.66710
# Velocity P-wave (km/s) = 6.02251 6.39442 6.21125
#
# Compressibility (1/GPa) = 0.02533021
#
# Stress axis : x y z
#
# Youngs Moduli (GPa) = 59.26005 80.57192 70.76196
#
# Poissons Ratio (x) = 0.27868 0.06824
# Poissons Ratio (y) = 0.20497 0.32697
# Poissons Ratio (z) = 0.05715 0.37230
#
# Static dielectric constant tensor:
#      x y z
#    x 1.326160 0.000000 -0.095580 
#    y 0.000000 1.745240 0.000000 
#    z -0.095580 0.000000 1.723830 
# 
# From -- ./inp_files/256795.got.cif
#   From: 2010.05.17/outbox.cif.g08.bks.cpg/sg15_129_cif.got.tgz:256795.got - 2010.06.03 18:47:42.
