data_PCOD9300473
_publ_section_title
;
Structure prediction by ZEFSAII (Michael W. Deem and Ramdas Pophale) SiO2 
 PCOD9300473
Probable space group: C 2/C
;
_chemical_formula_sum "Si O2"
_cell_formula_units_Z 60
_cell_length_a 11.040240
_cell_length_b 9.108788
_cell_length_c 27.891225
_cell_angle_alpha 90.000000
_cell_angle_beta 106.057919
_cell_angle_gamma 90.000000
_cell_volume 2695.393696
_symmetry_space_group_name_H-M "C 2/C"
_symmetry_group_IT_number 15
_symmetry_cell_setting 'monoclinic'
loop_
_space_group_symop_operation_xyz
x,y,z
-x,y,1/2-z
-x,-y,-z
x,-y,1/2+z
1/2+x,1/2+y,z
1/2-x,1/2+y,1/2-z
1/2-x,1/2-y,-z
1/2+x,1/2-y,1/2+z
loop_
_atom_site_type_symbol
_atom_site_label
_atom_site_fract_x
_atom_site_fract_y
_atom_site_fract_z
Si Si1 0.309878 0.336178 0.962402
Si Si2 0.083487 0.610578 0.182634
Si Si3 0.851985 0.042217 0.164292
Si Si4 0.138663 0.851041 0.056538
Si Si5 0.414659 0.310185 0.099580
Si Si6 0.047289 0.359881 0.475006
Si Si7 0.393342 0.139879 0.631727
Si Si8 0.500000 0.682542 0.750000
O O1 0.337291 0.505050 0.972022
O O2 0.195376 0.310660 0.913328
O O3 0.433237 0.254874 0.958902
O O4 0.250000 0.250000 0.000000
O O5 0.215943 0.563085 0.174128
O O6 0.092977 0.701260 0.233411
O O7 0.020732 0.734151 0.142821
O O8 0.982107 0.476129 0.169505
O O9 0.914264 0.199253 0.157989
O O10 0.850096 0.954433 0.113856
O O11 0.928783 0.929537 0.206613
O O12 0.240047 0.863844 0.110720
O O13 0.996648 0.846777 0.061650
O O14 0.148297 0.712061 0.022555
O O15 0.078255 0.381700 0.422462
O O16 0.000000 0.500000 0.500000
#
# Coordination Sequence:
#
# PCOD9300473 Si02
#       8
#     8   8   8   8   8   8   8   4
#     4  12  24  39  63  90 139 193 244 289 345 403
#     4  11  24  51  72 105 140 180 223 294 362 438
#     4  11  26  46  77 108 139 174 234 290 363 438
#     4  12  24  43  64  98 146 195 244 290 345 401
#     4  11  23  44  69 100 143 187 239 287 350 414
#     4  12  26  42  65 100 148 200 252 299 341 405
#     4  12  25  42  71 104 142 191 239 292 350 417
#     4  10  28  50  78 108 136 174 220 292 374 450
#
# _framework density 22.260200999999999
#
# number of rings (size 3 to 8) (size 9 to 14) (size 15 to 20)
#    0.000    0.533    4.000    4.000    3.733    2.667 
#    0.000    0.000    0.000    0.000    0.000    0.000 
#    0.000    0.000    0.000    0.000    0.000    0.000 
#
# Total GULP energy -167267.973066 kJ/mol
# GULP energy per Si atom -5575.599102 kJ/mol
# Density = 2.220954 g / cm^3
# Si number density = 22.260201 Si / 1000 Ang^3
#
#
#
# Elastic Constant Matrix: (Units=GPa)
#
#
# Indices 1 2 3 4 5 6 
#
# 1 88.3340 44.5863 19.2362 0.0000 -6.7460 0.0000
# 2 44.5863 175.7765 42.0069 0.0000 -8.3618 0.0000
# 3 19.2362 42.0069 55.0878 0.0000 -4.9089 0.0000
# 4 0.0000 0.0000 0.0000 48.2480 0.0000 -1.5737
# 5 -6.7460 -8.3618 -4.9089 0.0000 24.3290 0.0000
# 6 0.0000 0.0000 0.0000 -1.5737 0.0000 46.8376
#
#
#
# Elastic Compliance Matrix: (Units=1/GPa)
#
#
# Indices 1 2 3 4 5 6 
#
# 1 0.013388 -0.002713 -0.002402 0.000000 0.002295 0.000000
# 2 -0.002713 0.007550 -0.004731 0.000000 0.000888 0.000000
# 3 -0.002402 -0.004731 0.022805 0.000000 0.002309 0.000000
# 4 0.000000 0.000000 0.000000 0.020749 0.000000 0.000697
# 5 0.002295 0.000888 0.002309 0.000000 0.042511 0.000000
# 6 0.000000 0.000000 0.000000 0.000697 0.000000 0.021374
#
#
# Mechanical properties :
#
#
# Convention : Reuss Voigt Hill
#
# Bulk Modulus (GPa) = 41.57642 58.98412 50.28027
# Shear Modulus (GPa) = 32.03384 38.10751 35.07068
#
# Velocity S-wave (km/s) = 3.79761 4.14201 3.97355
# Velocity P-wave (km/s) = 6.16013 7.03066 6.60974
#
# Compressibility (1/GPa) = 0.02405209
#
# Stress axis : x y z
#
# Youngs Moduli (GPa) = 74.69216 132.45130 43.85049
#
# Poissons Ratio (x) = 0.35931 0.10533
# Poissons Ratio (y) = 0.20262 0.20745
# Poissons Ratio (z) = 0.17941 0.62659
#
# Static dielectric constant tensor:
#      x y z
#    x 1.873990 0.000000 0.025530 
#    y 0.000000 1.842040 0.000000 
#    z 0.025530 0.000000 2.023290 
# 
# From -- ./inp_files/310008.got.cif
#   From: 2010.05.17/outbox.cif.g08.bks.cpg/sg15_156_cif.got.tgz:310008.got - 2010.06.03 18:47:42.
