data_PCOD9300548
_publ_section_title
;
Structure prediction by ZEFSAII (Michael W. Deem and Ramdas Pophale) SiO2 
 PCOD9300548
Probable space group: C 2/C
;
_chemical_formula_sum "Si O2"
_cell_formula_units_Z 48
_cell_length_a 19.779387
_cell_length_b 9.668676
_cell_length_c 11.735615
_cell_angle_alpha 90.000000
_cell_angle_beta 126.954476
_cell_angle_gamma 90.000000
_cell_volume 1793.469998
_symmetry_space_group_name_H-M "C 2/C"
_symmetry_group_IT_number 15
_symmetry_cell_setting 'monoclinic'
loop_
_space_group_symop_operation_xyz
x,y,z
-x,y,1/2-z
-x,-y,-z
x,-y,1/2+z
1/2+x,1/2+y,z
1/2-x,1/2+y,1/2-z
1/2-x,1/2-y,-z
1/2+x,1/2-y,1/2+z
loop_
_atom_site_type_symbol
_atom_site_label
_atom_site_fract_x
_atom_site_fract_y
_atom_site_fract_z
Si Si1 0.069733 0.174772 0.601745
Si Si2 0.956053 0.462057 0.828053
Si Si3 0.817280 0.381495 0.552420
Si Si4 0.698341 0.568537 0.297294
Si Si5 0.404562 0.644844 0.113773
Si Si6 0.111778 0.154293 0.012873
O O1 0.060418 0.298310 0.678146
O O2 0.129627 0.055857 0.708985
O O3 0.106342 0.219526 0.517285
O O4 0.970404 0.139670 0.489550
O O5 0.855286 0.480964 0.691808
O O6 0.000000 0.506347 0.750000
O O7 0.000000 0.500000 0.000000
O O8 0.750000 0.250000 0.500000
O O9 0.777828 0.490913 0.425395
O O10 0.887179 0.298561 0.549662
O O11 0.660841 0.671358 0.353522
O O12 0.695857 0.643524 0.174297
O O13 0.500000 0.666344 0.250000
O O14 0.393582 0.481180 0.071125
#
# Coordination Sequence:
#
# PCOD9300548 Si02
#       6
#     8   8   8   8   8   8
#     4  11  21  39  70 100 133 183 244 299 364 433
#     4  12  28  51  74  99 144 205 251 293 368 471
#     4  12  24  42  72 100 144 199 241 300 381 456
#     4  11  22  39  67 108 142 180 244 317 369 434
#     4  11  18  32  64 102 137 169 227 309 366 416
#     4  11  21  37  67 101 139 189 239 294 371 445
#
# _framework density 26.763760000000001
#
# number of rings (size 3 to 8) (size 9 to 14) (size 15 to 20)
#    0.000    0.667    8.333    1.000    0.000    2.000 
#    0.000    0.000    0.000    5.000    0.000    0.000 
#    0.000    0.000    0.000    0.000    0.000    0.000 
#
# Total GULP energy -133677.097188 kJ/mol
# GULP energy per Si atom -5569.879050 kJ/mol
# Density = 2.670284 g / cm^3
# Si number density = 26.763760 Si / 1000 Ang^3
#
#
#
# Elastic Constant Matrix: (Units=GPa)
#
#
# Indices 1 2 3 4 5 6 
#
# 1 63.8743 18.0538 18.5319 0.0000 -29.5261 0.0000
# 2 18.0538 65.3381 45.5934 0.0000 -6.6010 0.0000
# 3 18.5319 45.5934 194.7570 0.0000 -26.4793 0.0000
# 4 0.0000 0.0000 0.0000 37.4582 0.0000 -9.5952
# 5 -29.5261 -6.6010 -26.4793 0.0000 38.6618 0.0000
# 6 0.0000 0.0000 0.0000 -9.5952 0.0000 19.6785
#
#
#
# Elastic Compliance Matrix: (Units=1/GPa)
#
#
# Indices 1 2 3 4 5 6 
#
# 1 0.026301 -0.006451 0.001752 0.000000 0.020185 0.000000
# 2 -0.006451 0.019877 -0.004684 0.000000 -0.004741 0.000000
# 3 0.001752 -0.004684 0.006768 0.000000 0.005173 0.000000
# 4 0.000000 0.000000 0.000000 0.030507 0.000000 0.014875
# 5 0.020185 -0.004741 0.005173 0.000000 0.044014 0.000000
# 6 0.000000 0.000000 0.000000 0.014875 0.000000 0.058070
#
#
# Mechanical properties :
#
#
# Convention : Reuss Voigt Hill
#
# Bulk Modulus (GPa) = 29.25652 54.25863 41.75758
# Shear Modulus (GPa) = 23.18077 35.27905 29.22991
#
# Velocity S-wave (km/s) = 2.94619 3.63459 3.30835
# Velocity P-wave (km/s) = 4.74642 6.15880 5.49815
#
# Compressibility (1/GPa) = 0.03418042
#
# Stress axis : x y z
#
# Youngs Moduli (GPa) = 38.02105 50.30946 147.75762
#
# Poissons Ratio (x) = 0.32452 -0.25884
# Poissons Ratio (y) = 0.24526 0.69210
# Poissons Ratio (z) = -0.06660 0.23565
#
# Static dielectric constant tensor:
#      x y z
#    x 2.283390 0.000000 0.104130 
#    y 0.000000 2.102740 0.000000 
#    z 0.104130 0.000000 2.159020 
# 
# From -- ./inp_files/111813.got.cif
#   From: 2010.05.17/outbox.cif.g08.bks.cpg/sg15_56_cif.got.tgz:111813.got - 2010.06.03 18:47:42.
