data_PCOD9300631
_publ_section_title
;
Structure prediction by ZEFSAII (Michael W. Deem and Ramdas Pophale) SiO2 
 PCOD9300631
Probable space group: C 2/C
;
_chemical_formula_sum "Si O2"
_cell_formula_units_Z 64
_cell_length_a 21.506267
_cell_length_b 23.852993
_cell_length_c 8.745924
_cell_angle_alpha 90.000000
_cell_angle_beta 66.004279
_cell_angle_gamma 90.000000
_cell_volume 4098.814037
_symmetry_space_group_name_H-M "C 2/C"
_symmetry_group_IT_number 15
_symmetry_cell_setting 'monoclinic'
loop_
_space_group_symop_operation_xyz
x,y,z
-x,y,1/2-z
-x,-y,-z
x,-y,1/2+z
1/2+x,1/2+y,z
1/2-x,1/2+y,1/2-z
1/2-x,1/2-y,-z
1/2+x,1/2-y,1/2+z
loop_
_atom_site_type_symbol
_atom_site_label
_atom_site_fract_x
_atom_site_fract_y
_atom_site_fract_z
Si Si1 0.859072 0.938219 0.574215
Si Si2 0.500000 0.250232 0.067207
Si Si3 0.225660 0.839356 0.708667
Si Si4 0.642640 0.227419 0.791307
Si Si5 1.000000 0.880181 0.064159
Si Si6 0.725660 0.339356 0.340012
Si Si7 0.640928 0.438219 0.292360
Si Si8 0.857360 0.272581 0.576587
O O1 0.801298 0.895547 0.688475
O O2 0.931713 0.912093 0.553452
O O3 0.859246 0.940565 0.390754
O O4 0.850698 1.000000 0.649302
O O5 0.500000 0.250280 0.250000
O O6 0.500000 0.315469 0.013217
O O7 0.431100 0.222339 0.075759
O O8 0.568900 0.222339 0.937959
O O9 0.175556 0.787700 0.801109
O O10 0.223567 0.844533 0.526433
O O11 0.301423 0.819144 0.676296
O O12 0.698577 0.180856 0.779143
O O13 0.637044 0.226691 0.612956
O O14 0.000000 0.879571 0.250000
O O15 0.931713 0.912093 0.083122
O O16 0.698702 0.395547 0.291071
O O17 0.675556 0.287700 0.347779
#
# Coordination Sequence:
#
# PCOD9300631 Si02
#       8
#     8   8   8   8   8   8   8   8
#     4  11  21  34  49  68  97 132 171 207 243 284
#     4  11  19  30  48  74 102 129 164 201 241 290
#     4   9  18  33  50  70  95 126 164 204 244 289
#     4   9  18  32  50  71  97 127 161 200 246 294
#     4   9  19  32  44  66  99 132 166 202 235 280
#     4   9  18  33  50  70  95 126 164 204 244 289
#     4  11  21  34  49  68  97 132 171 207 243 284
#     4   9  18  32  50  71  97 127 161 200 246 294
#
# _framework density 15.614273000000001
#
# number of rings (size 3 to 8) (size 9 to 14) (size 15 to 20)
#    0.000    2.250    2.500    3.000    0.000    1.000 
#    0.000    4.375    0.000    0.000    0.000    0.875 
#    0.000    0.000    0.000    0.000    0.000    0.000 
#
# Total GULP energy -178516.996767 kJ/mol
# GULP energy per Si atom -5578.656149 kJ/mol
# Density = 1.557873 g / cm^3
# Si number density = 15.614273 Si / 1000 Ang^3
#
#
#
# Elastic Constant Matrix: (Units=GPa)
#
#
# Indices 1 2 3 4 5 6 
#
# 1 124.2387 59.5349 42.6119 0.0000 -26.6740 0.0000
# 2 59.5349 94.5679 36.7560 0.0000 -16.5883 0.0000
# 3 42.6119 36.7560 53.9033 0.0000 -24.5464 0.0000
# 4 0.0000 0.0000 0.0000 20.8427 0.0000 0.5063
# 5 -26.6740 -16.5883 -24.5464 0.0000 24.0485 0.0000
# 6 0.0000 0.0000 0.0000 0.5063 0.0000 20.1475
#
#
#
# Elastic Compliance Matrix: (Units=1/GPa)
#
#
# Indices 1 2 3 4 5 6 
#
# 1 0.013697 -0.006023 -0.003166 0.000000 0.007806 0.000000
# 2 -0.006023 0.017037 -0.008495 0.000000 -0.003600 0.000000
# 3 -0.003166 -0.008495 0.042190 0.000000 0.033692 0.000000
# 4 0.000000 0.000000 0.000000 0.048008 0.000000 -0.001206
# 5 0.007806 -0.003600 0.033692 0.000000 0.082147 0.000000
# 6 0.000000 0.000000 0.000000 -0.001206 0.000000 0.049664
#
#
# Mechanical properties :
#
#
# Convention : Reuss Voigt Hill
#
# Bulk Modulus (GPa) = 26.62752 61.16839 43.89795
# Shear Modulus (GPa) = 16.63179 21.92821 19.28000
#
# Velocity S-wave (km/s) = 3.26723 3.75156 3.51774
# Velocity P-wave (km/s) = 5.59673 7.61743 6.68389
#
# Compressibility (1/GPa) = 0.03755513
#
# Stress axis : x y z
#
# Youngs Moduli (GPa) = 73.00746 58.69739 23.70257
#
# Poissons Ratio (x) = 0.35354 0.07504
# Poissons Ratio (y) = 0.43974 0.20135
# Poissons Ratio (z) = 0.23114 0.49863
#
# Static dielectric constant tensor:
#      x y z
#    x 1.519280 0.000000 0.001450 
#    y 0.000000 1.495310 0.000000 
#    z 0.001450 0.000000 1.521270 
# 
# From -- ./inp_files/57855.got.cif
#   From: 2010.05.17/outbox.cif.g08.bks.cpg/sg15_29_cif.got.tgz:57855.got - 2010.06.03 18:47:42.
