data_PCOD9300240
_publ_section_title
;
Structure prediction by ZEFSAII (Michael W. Deem and Ramdas Pophale) SiO2 
 PCOD9300240
Probable space group: C 2/C
;
_chemical_formula_sum "Si O2"
_cell_formula_units_Z 32
_cell_length_a 15.624170
_cell_length_b 8.425808
_cell_length_c 10.009462
_cell_angle_alpha 90.000000
_cell_angle_beta 90.894439
_cell_angle_gamma 90.000000
_cell_volume 1317.547643
_symmetry_space_group_name_H-M "C 2/C"
_symmetry_group_IT_number 15
_symmetry_cell_setting 'monoclinic'
loop_
_space_group_symop_operation_xyz
x,y,z
-x,y,1/2-z
-x,-y,-z
x,-y,1/2+z
1/2+x,1/2+y,z
1/2-x,1/2+y,1/2-z
1/2-x,1/2-y,-z
1/2+x,1/2-y,1/2+z
loop_
_atom_site_type_symbol
_atom_site_label
_atom_site_fract_x
_atom_site_fract_y
_atom_site_fract_z
Si Si1 0.659812 0.496669 0.688628
Si Si2 0.798909 0.717405 0.139648
Si Si3 0.250000 0.250000 0.500000
Si Si4 0.086077 0.567492 0.937530
Si Si5 0.000000 0.175876 0.250000
O O1 0.722114 0.349223 0.731785
O O2 0.660319 0.622131 0.807625
O O3 0.705725 0.591063 0.570743
O O4 0.565486 0.429426 0.665179
O O5 0.869608 0.582117 0.132156
O O6 0.750000 0.750000 0.000000
O O7 0.160444 0.353113 0.527028
O O8 0.057529 0.708394 0.839702
O O9 0.000000 0.500000 0.000000
#
# Coordination Sequence:
#
# PCOD9300240 Si02
#       5
#     8   8   4   8   4
#     4  11  26  46  75 108 152 195 258 316 393 458
#     4  11  26  46  77 108 148 199 256 315 386 458
#     4  10  26  46  78 106 148 206 252 324 390 462
#     4  11  27  47  76 110 155 195 261 318 394 466
#     4  12  28  46  74 114 152 202 258 316 400 472
#
# _framework density 24.287545000000001
#
# number of rings (size 3 to 8) (size 9 to 14) (size 15 to 20)
#    0.000    1.000    0.000    4.500   21.000    1.000 
#    0.000    0.000    0.000    0.000    0.000    0.000 
#    0.000    0.000    0.000    0.000    0.000    0.000 
#
# Total GULP energy -89106.601286 kJ/mol
# GULP energy per Si atom -5569.162580 kJ/mol
# Density = 2.423227 g / cm^3
# Si number density = 24.287545 Si / 1000 Ang^3
#
#
#
# Elastic Constant Matrix: (Units=GPa)
#
#
# Indices 1 2 3 4 5 6 
#
# 1 195.5744 71.5137 42.5875 0.0000 -33.2247 0.0000
# 2 71.5137 144.4425 32.9857 0.0000 -1.4758 0.0000
# 3 42.5875 32.9857 42.7238 0.0000 5.5846 0.0000
# 4 0.0000 0.0000 0.0000 43.4081 0.0000 0.2429
# 5 -33.2247 -1.4758 5.5846 0.0000 32.7760 0.0000
# 6 0.0000 0.0000 0.0000 0.2429 0.0000 87.1781
#
#
#
# Elastic Compliance Matrix: (Units=1/GPa)
#
#
# Indices 1 2 3 4 5 6 
#
# 1 0.010237 -0.002745 -0.009640 0.000000 0.011896 0.000000
# 2 -0.002745 0.009216 -0.004162 0.000000 -0.001659 0.000000
# 3 -0.009640 -0.004162 0.038385 0.000000 -0.016499 0.000000
# 4 0.000000 0.000000 0.000000 0.023038 0.000000 -0.000064
# 5 0.011896 -0.001659 -0.016499 0.000000 0.045306 0.000000
# 6 0.000000 0.000000 0.000000 -0.000064 0.000000 0.011471
#
#
# Mechanical properties :
#
#
# Convention : Reuss Voigt Hill
#
# Bulk Modulus (GPa) = 40.41376 75.21272 57.81324
# Shear Modulus (GPa) = 27.93392 48.38270 38.15831
#
# Velocity S-wave (km/s) = 3.39504 4.46811 3.96802
# Velocity P-wave (km/s) = 5.66076 7.59299 6.69693
#
# Compressibility (1/GPa) = 0.02474405
#
# Stress axis : x y z
#
# Youngs Moduli (GPa) = 97.68398 108.50801 26.05193
#
# Poissons Ratio (x) = 0.29791 0.25113
# Poissons Ratio (y) = 0.26819 0.10842
# Poissons Ratio (z) = 0.94164 0.45158
#
# Static dielectric constant tensor:
#      x y z
#    x 1.955550 0.000000 0.175520 
#    y 0.000000 1.980100 0.000000 
#    z 0.175520 0.000000 2.838580 
# 
# From -- ./inp_files/93281.got.cif
#   From: 2010.05.17/outbox.cif.g08.bks.cpg/sg15_47_cif.got.tgz:93281.got - 2010.06.03 18:47:42.
