data_PCOD9300361
_publ_section_title
;
Structure prediction by ZEFSAII (Michael W. Deem and Ramdas Pophale) SiO2 
 PCOD9300361
Probable space group: C 2/C
;
_chemical_formula_sum "Si O2"
_cell_formula_units_Z 36
_cell_length_a 15.430798
_cell_length_b 25.286142
_cell_length_c 8.978305
_cell_angle_alpha 90.000000
_cell_angle_beta 27.384233
_cell_angle_gamma 90.000000
_cell_volume 1611.317356
_symmetry_space_group_name_H-M "C 2/C"
_symmetry_group_IT_number 15
_symmetry_cell_setting 'monoclinic'
loop_
_space_group_symop_operation_xyz
x,y,z
-x,y,1/2-z
-x,-y,-z
x,-y,1/2+z
1/2+x,1/2+y,z
1/2-x,1/2+y,1/2-z
1/2-x,1/2-y,-z
1/2+x,1/2-y,1/2+z
loop_
_atom_site_type_symbol
_atom_site_label
_atom_site_fract_x
_atom_site_fract_y
_atom_site_fract_z
Si Si1 0.000000 0.348702 0.750000
Si Si2 0.655189 0.427781 0.244237
Si Si3 0.934827 0.736217 0.121531
Si Si4 0.500000 0.829679 0.250000
Si Si5 0.893226 0.845506 0.752379
Si Si6 0.000000 0.993460 0.750000
O O1 0.169757 0.388030 0.529222
O O2 0.951616 0.306982 0.954386
O O3 0.477927 0.388743 0.512000
O O4 0.627200 0.459006 0.442930
O O5 0.635297 0.470131 0.144173
O O6 0.750000 0.750000 0.500000
O O7 0.891268 0.705848 0.036276
O O8 0.046346 0.788024 0.900713
O O9 0.330550 0.856030 0.416032
O O10 0.000000 0.850645 0.750000
#
# Coordination Sequence:
#
# PCOD9300361 Si02
#       6
#     4   8   8   4   8   4
#     4  12  26  45  75 112 148 194 250 300 374 462
#     4  11  25  48  75 103 142 191 245 320 374 437
#     4  12  25  44  70 112 154 198 240 296 363 462
#     4  12  28  41  71 106 148 207 243 286 368 448
#     4  12  25  48  72 106 158 197 243 305 370 450
#     4  10  26  50  72 100 138 189 253 324 380 426
#
# _framework density 22.341968000000001
#
# number of rings (size 3 to 8) (size 9 to 14) (size 15 to 20)
#    0.000    0.444    4.444    3.333    3.111    1.778 
#    0.000    4.444    0.000    0.000    0.000    0.000 
#    0.000    0.000    0.000    0.000    0.000    0.000 
#
# Total GULP energy -100503.919600 kJ/mol
# GULP energy per Si atom -5583.551089 kJ/mol
# Density = 2.229112 g / cm^3
# Si number density = 22.341968 Si / 1000 Ang^3
#
#
#
# Elastic Constant Matrix: (Units=GPa)
#
#
# Indices 1 2 3 4 5 6 
#
# 1 100.4247 31.1341 21.0612 -0.0155 -3.4384 0.0080
# 2 31.1341 109.3960 -0.8931 -0.0006 -5.0424 -0.0004
# 3 21.0612 -0.8931 60.0477 -0.0016 -27.8875 -0.0134
# 4 -0.0155 -0.0006 -0.0016 -6.2687 0.0120 25.4426
# 5 -3.4384 -5.0424 -27.8875 0.0120 45.6065 -0.0023
# 6 0.0080 -0.0004 -0.0134 25.4426 -0.0023 15.9500
#
#
#
# Elastic Compliance Matrix: (Units=1/GPa)
#
#
# Indices 1 2 3 4 5 6 
#
# 1 0.012186 -0.003652 -0.005711 -0.000011 -0.002977 0.000006
# 2 -0.003652 0.010314 0.002564 0.000004 0.002433 -0.000002
# 3 -0.005711 0.002564 0.026014 0.000020 0.015760 -0.000004
# 4 -0.000011 0.000004 0.000020 -0.021343 0.000019 0.034046
# 5 -0.002977 0.002433 0.015760 0.000019 0.031608 -0.000011
# 6 0.000006 -0.000002 -0.000004 0.034046 -0.000011 0.008388
#
#
# Mechanical properties :
#
#
# Convention : Reuss Voigt Hill
#
# Bulk Modulus (GPa) = 28.64056 41.38588 35.01322
# Shear Modulus (GPa) = 54.11123 25.62866 39.86995
#
# Velocity S-wave (km/s) = 4.92667 3.39057 4.22895
# Velocity P-wave (km/s) = 6.72383 5.82169 6.28895
#
# Compressibility (1/GPa) = 0.03491552
#
# Stress axis : x y z
#
# Youngs Moduli (GPa) = 82.06359 96.96025 38.44102
#
# Poissons Ratio (x) = 0.35409 0.21954
# Poissons Ratio (y) = 0.29969 -0.09857
# Poissons Ratio (z) = 0.46867 -0.24862
#
# Static dielectric constant tensor:
#      x y z
#    x 1.928370 0.000000 0.006530 
#    y 0.000000 1.802800 0.000000 
#    z 0.006530 0.000000 1.862030 
# 
# From -- ./inp_files/23894.got.cif
#   From: 2010.05.17/outbox.cif.g08.bks.cpg/sg15_12_cif.got.tgz:23894.got - 2010.06.03 18:47:42.
