data_PCOD9300676
_publ_section_title
;
Structure prediction by ZEFSAII (Michael W. Deem and Ramdas Pophale) SiO2 
 PCOD9300676
Probable space group: C 2/C
;
_chemical_formula_sum "Si O2"
_cell_formula_units_Z 56
_cell_length_a 5.559861
_cell_length_b 22.837805
_cell_length_c 23.827450
_cell_angle_alpha 90.000000
_cell_angle_beta 57.178393
_cell_angle_gamma 90.000000
_cell_volume 2542.508426
_symmetry_space_group_name_H-M "C 2/C"
_symmetry_group_IT_number 15
_symmetry_cell_setting 'monoclinic'
loop_
_space_group_symop_operation_xyz
x,y,z
-x,y,1/2-z
-x,-y,-z
x,-y,1/2+z
1/2+x,1/2+y,z
1/2-x,1/2+y,1/2-z
1/2-x,1/2-y,-z
1/2+x,1/2-y,1/2+z
loop_
_atom_site_type_symbol
_atom_site_label
_atom_site_fract_x
_atom_site_fract_y
_atom_site_fract_z
Si Si1 0.769008 0.380531 0.422909
Si Si2 0.156153 0.927742 0.173213
Si Si3 0.043001 0.699901 0.505364
Si Si4 0.227654 0.524809 0.425988
Si Si5 0.711448 0.408153 0.935800
Si Si6 0.704098 0.683776 0.819055
Si Si7 0.440753 0.785907 0.896041
O O1 0.909113 0.356385 0.462656
O O2 0.457967 0.400572 0.483011
O O3 0.753225 0.330318 0.378477
O O4 0.998323 0.424224 0.367081
O O5 0.000000 0.945943 0.250000
O O6 0.025303 0.863601 0.174664
O O7 0.116527 0.973483 0.128411
O O8 0.250000 0.750000 0.500000
O O9 0.746250 0.731190 0.557492
O O10 0.092557 0.691358 0.433508
O O11 0.483755 0.557870 0.425997
O O12 0.000000 0.500000 0.500000
O O13 0.015721 0.561261 0.410820
O O14 0.761368 0.343341 0.903463
O O15 0.618058 0.752158 0.826390
O O16 0.000000 0.672942 0.750000
#
# Coordination Sequence:
#
# PCOD9300676 Si02
#       7
#     8   8   8   8   8   8   8
#     4  12  22  39  71 103 142 172 235 298 363 422
#     4  12  27  46  70 102 142 187 236 304 368 432
#     4  11  19  34  63  99 141 179 215 285 352 419
#     4  12  27  46  74 103 142 186 248 303 356 421
#     4  12  26  44  72 108 140 187 236 303 364 423
#     4  12  25  41  68 104 142 188 239 289 364 440
#     4  11  23  38  64 103 142 183 230 284 358 433
#
# _framework density 22.025492
#
# number of rings (size 3 to 8) (size 9 to 14) (size 15 to 20)
#    0.000    0.286    7.143    3.000    2.000    0.000 
#    0.000    0.714    0.000    3.429    0.000    0.000 
#    0.000    0.000    0.000    0.000    0.000    0.000 
#
# Total GULP energy -156344.391845 kJ/mol
# GULP energy per Si atom -5583.728280 kJ/mol
# Density = 2.197536 g / cm^3
# Si number density = 22.025492 Si / 1000 Ang^3
#
#
#
# Elastic Constant Matrix: (Units=GPa)
#
#
# Indices 1 2 3 4 5 6 
#
# 1 94.0511 40.1753 22.1031 0.0000 -2.7733 0.0000
# 2 40.1753 104.3595 41.5986 0.0000 2.2555 0.0000
# 3 22.1031 41.5986 96.3077 0.0000 -1.7289 0.0000
# 4 0.0000 0.0000 0.0000 29.4098 0.0000 -0.1876
# 5 -2.7733 2.2555 -1.7289 0.0000 25.9541 0.0000
# 6 0.0000 0.0000 0.0000 -0.1876 0.0000 46.9620
#
#
#
# Elastic Compliance Matrix: (Units=1/GPa)
#
#
# Indices 1 2 3 4 5 6 
#
# 1 0.012876 -0.004625 -0.000927 0.000000 0.001716 0.000000
# 2 -0.004625 0.013283 -0.004711 0.000000 -0.001962 0.000000
# 3 -0.000927 -0.004711 0.012652 0.000000 0.001153 0.000000
# 4 0.000000 0.000000 0.000000 0.034003 0.000000 0.000136
# 5 0.001716 -0.001962 0.001153 0.000000 0.038960 0.000000
# 6 0.000000 0.000000 0.000000 0.000136 0.000000 0.021294
#
#
# Mechanical properties :
#
#
# Convention : Reuss Voigt Hill
#
# Bulk Modulus (GPa) = 54.68763 55.83025 55.25894
# Shear Modulus (GPa) = 31.31074 33.18792 32.24933
#
# Velocity S-wave (km/s) = 3.77446 3.88596 3.83061
# Velocity P-wave (km/s) = 6.62409 6.74813 6.68640
#
# Compressibility (1/GPa) = 0.01828567
#
# Stress axis : x y z
#
# Youngs Moduli (GPa) = 77.66119 75.28442 79.04055
#
# Poissons Ratio (x) = 0.34817 0.07326
# Poissons Ratio (y) = 0.35916 0.37238
# Poissons Ratio (z) = 0.07198 0.35468
#
# Static dielectric constant tensor:
#      x y z
#    x 1.972220 0.000000 -0.071820 
#    y 0.000000 1.925030 0.000000 
#    z -0.071820 0.000000 1.862690 
# 
# From -- ./inp_files/286652.got.cif
#   From: 2010.05.17/outbox.cif.g08.bks.cpg/sg15_144_cif.got.tgz:286652.got - 2010.06.03 18:47:42.
