data_PCOD9300637
_publ_section_title
;
Structure prediction by ZEFSAII (Michael W. Deem and Ramdas Pophale) SiO2 
 PCOD9300637
Probable space group: C 2/C
;
_chemical_formula_sum "Si O2"
_cell_formula_units_Z 48
_cell_length_a 20.961170
_cell_length_b 15.569207
_cell_length_c 8.843053
_cell_angle_alpha 90.000000
_cell_angle_beta 73.292756
_cell_angle_gamma 90.000000
_cell_volume 2764.093924
_symmetry_space_group_name_H-M "C 2/C"
_symmetry_group_IT_number 15
_symmetry_cell_setting 'monoclinic'
loop_
_space_group_symop_operation_xyz
x,y,z
-x,y,1/2-z
-x,-y,-z
x,-y,1/2+z
1/2+x,1/2+y,z
1/2-x,1/2+y,1/2-z
1/2-x,1/2-y,-z
1/2+x,1/2-y,1/2+z
loop_
_atom_site_type_symbol
_atom_site_label
_atom_site_fract_x
_atom_site_fract_y
_atom_site_fract_z
Si Si1 0.210429 0.033913 0.644416
Si Si2 0.578530 0.073986 0.685054
Si Si3 0.832821 0.721170 0.831401
Si Si4 0.692205 0.626607 0.964736
Si Si5 0.762870 0.823193 0.613614
Si Si6 0.157127 0.442556 0.830824
O O1 0.180267 0.082821 0.810151
O O2 0.209766 0.096786 0.501157
O O3 0.180931 0.944926 0.601510
O O4 0.285434 0.006529 0.642989
O O5 0.500000 0.064873 0.750000
O O6 0.605593 0.160283 0.746687
O O7 0.605943 0.081415 0.496614
O O8 0.616507 0.993569 0.732278
O O9 0.769877 0.658333 0.911452
O O10 0.808922 0.780435 0.709276
O O11 0.844994 0.786432 0.962028
O O12 0.750000 0.750000 0.500000
O O13 0.696934 0.861219 0.737950
#
# Coordination Sequence:
#
# PCOD9300637 Si02
#       6
#     8   8   8   8   8   8
#     4  12  18  32  53  82 113 140 171 226 298 344
#     4  12  25  39  55  77 115 164 198 222 262 334
#     4  11  20  34  51  78 110 146 185 232 284 325
#     4  11  19  31  52  79 112 139 175 231 293 340
#     4  12  21  31  56  84 115 144 178 240 293 337
#     4  12  20  39  55  81 118 148 190 231 277 341
#
# _framework density 17.365545999999998
#
# number of rings (size 3 to 8) (size 9 to 14) (size 15 to 20)
#    0.000    0.333   10.000    1.500    0.000    0.000 
#    0.000    0.000    0.000    0.000    0.000    4.667 
#    0.000    0.000    0.000    0.000    0.000    0.000 
#
# Total GULP energy -133915.324009 kJ/mol
# GULP energy per Si atom -5579.805167 kJ/mol
# Density = 1.732602 g / cm^3
# Si number density = 17.365546 Si / 1000 Ang^3
#
#
#
# Elastic Constant Matrix: (Units=GPa)
#
#
# Indices 1 2 3 4 5 6 
#
# 1 48.4802 18.5589 23.7966 0.0000 -0.8442 0.0000
# 2 18.5589 99.3177 40.8149 0.0000 10.1899 0.0000
# 3 23.7966 40.8149 105.8215 0.0000 12.0411 0.0000
# 4 0.0000 0.0000 0.0000 49.1787 0.0000 10.7768
# 5 -0.8442 10.1899 12.0411 0.0000 11.4346 0.0000
# 6 0.0000 0.0000 0.0000 10.7768 0.0000 16.5347
#
#
#
# Elastic Compliance Matrix: (Units=1/GPa)
#
#
# Indices 1 2 3 4 5 6 
#
# 1 0.024827 -0.003496 -0.005451 0.000000 0.010688 0.000000
# 2 -0.003496 0.012912 -0.003244 0.000000 -0.008348 0.000000
# 3 -0.005451 -0.003244 0.013229 0.000000 -0.011442 0.000000
# 4 0.000000 0.000000 0.000000 0.023722 0.000000 -0.015461
# 5 0.010688 -0.008348 -0.011442 0.000000 0.107732 0.000000
# 6 0.000000 0.000000 0.000000 -0.015461 0.000000 0.070556
#
#
# Mechanical properties :
#
#
# Convention : Reuss Voigt Hill
#
# Bulk Modulus (GPa) = 37.61358 46.66223 42.13790
# Shear Modulus (GPa) = 17.46906 26.79285 22.13096
#
# Velocity S-wave (km/s) = 3.17513 3.93221 3.57377
# Velocity P-wave (km/s) = 5.92865 6.89530 6.43017
#
# Compressibility (1/GPa) = 0.02658615
#
# Stress axis : x y z
#
# Youngs Moduli (GPa) = 40.27890 77.45007 75.59305
#
# Poissons Ratio (x) = 0.27075 0.41204
# Poissons Ratio (y) = 0.14081 0.24521
# Poissons Ratio (z) = 0.21955 0.25124
#
# Static dielectric constant tensor:
#      x y z
#    x 1.568290 0.000000 0.041180 
#    y 0.000000 1.646020 0.000000 
#    z 0.041180 0.000000 1.648850 
# 
# From -- ./inp_files/47930.got.cif
#   From: 2010.05.17/outbox.cif.g08.bks.cpg/sg15_24_cif.got.tgz:47930.got - 2010.06.03 18:47:42.
