data_PCOD9300165
_publ_section_title
;
Structure prediction by ZEFSAII (Michael W. Deem and Ramdas Pophale) SiO2 
 PCOD9300165
Probable space group: C 2/C
;
_chemical_formula_sum "Si O2"
_cell_formula_units_Z 36
_cell_length_a 19.548045
_cell_length_b 9.324393
_cell_length_c 8.711531
_cell_angle_alpha 90.000000
_cell_angle_beta 109.955549
_cell_angle_gamma 90.000000
_cell_volume 1492.542437
_symmetry_space_group_name_H-M "C 2/C"
_symmetry_group_IT_number 15
_symmetry_cell_setting 'monoclinic'
loop_
_space_group_symop_operation_xyz
x,y,z
-x,y,1/2-z
-x,-y,-z
x,-y,1/2+z
1/2+x,1/2+y,z
1/2-x,1/2+y,1/2-z
1/2-x,1/2-y,-z
1/2+x,1/2-y,1/2+z
loop_
_atom_site_type_symbol
_atom_site_label
_atom_site_fract_x
_atom_site_fract_y
_atom_site_fract_z
Si Si1 0.884470 0.848125 0.860698
Si Si2 0.626509 0.081584 0.843238
Si Si3 0.289217 0.153633 0.290994
Si Si4 0.101863 0.148676 0.764207
Si Si5 0.500000 0.120983 0.250000
O O1 0.907493 0.706066 0.787563
O O2 0.796993 0.851428 0.772104
O O3 0.915906 0.993105 0.812281
O O4 0.897864 0.847870 0.051987
O O5 0.677774 0.978658 0.780487
O O6 0.562744 0.981583 0.862716
O O7 0.675531 0.146627 0.014458
O O8 0.319886 0.297519 0.234727
O O9 0.044253 0.271646 0.672023
#
# Coordination Sequence:
#
# PCOD9300165 Si02
#       5
#     8   8   8   8   4
#     4  12  23  41  66  97 126 168 213 267 324 370
#     4  11  23  40  68  92 131 171 211 264 311 386
#     4  11  22  41  65  98 128 165 212 265 325 375
#     4  11  25  41  64  92 133 167 210 267 312 381
#     4  10  26  46  62  94 128 174 220 250 318 378
#
# _framework density 24.119916
#
# number of rings (size 3 to 8) (size 9 to 14) (size 15 to 20)
#    0.000    0.889    0.000    8.000    0.000    9.778 
#    0.000    0.000    0.000    0.000    0.000    0.000 
#    0.000    0.000    0.000    0.000    0.000    0.000 
#
# Total GULP energy -100872.143460 kJ/mol
# GULP energy per Si atom -5604.007970 kJ/mol
# Density = 2.406502 g / cm^3
# Si number density = 24.119916 Si / 1000 Ang^3
#
#
#
# Elastic Constant Matrix: (Units=GPa)
#
#
# Indices 1 2 3 4 5 6 
#
# 1 92.5593 29.0620 9.4741 0.0000 13.0681 0.0000
# 2 29.0620 150.8209 36.8461 0.0000 -13.6232 0.0000
# 3 9.4741 36.8461 143.2802 0.0000 -14.2020 0.0000
# 4 0.0000 0.0000 0.0000 22.8000 0.0000 -23.2899
# 5 13.0681 -13.6232 -14.2020 0.0000 25.4570 0.0000
# 6 0.0000 0.0000 0.0000 -23.2899 0.0000 35.0747
#
#
#
# Elastic Compliance Matrix: (Units=1/GPa)
#
#
# Indices 1 2 3 4 5 6 
#
# 1 0.013139 -0.003106 -0.000956 0.000000 -0.008940 0.000000
# 2 -0.003106 0.008022 -0.001349 0.000000 0.005135 0.000000
# 3 -0.000956 -0.001349 0.007798 0.000000 0.004119 0.000000
# 4 0.000000 0.000000 0.000000 0.136326 0.000000 0.090521
# 5 -0.008940 0.005135 0.004119 0.000000 0.048917 0.000000
# 6 0.000000 0.000000 0.000000 0.090521 0.000000 0.088617
#
#
# Mechanical properties :
#
#
# Convention : Reuss Voigt Hill
#
# Bulk Modulus (GPa) = 55.13397 59.71385 57.42391
# Shear Modulus (GPa) = 15.64033 37.41823 26.52928
#
# Velocity S-wave (km/s) = 2.54921 3.94298 3.32006
# Velocity P-wave (km/s) = 5.61894 6.74835 6.20938
#
# Compressibility (1/GPa) = 0.01813764
#
# Stress axis : x y z
#
# Youngs Moduli (GPa) = 76.10832 124.65514 128.24299
#
# Poissons Ratio (x) = 0.38715 0.12264
# Poissons Ratio (y) = 0.23637 0.17295
# Poissons Ratio (z) = 0.07278 0.16812
#
# Static dielectric constant tensor:
#      x y z
#    x 1.943270 0.000000 0.011780 
#    y 0.000000 1.930360 0.000000 
#    z 0.011780 0.000000 1.884730 
# 
# From -- ./inp_files/60122.got.cif
#   From: 2010.05.17/outbox.cif.g08.bks.cpg/sg15_31_cif.got.tgz:60122.got - 2010.06.03 18:47:42.
