data_PCOD9300821
_publ_section_title
;
Structure prediction by ZEFSAII (Michael W. Deem and Ramdas Pophale) SiO2 
 PCOD9300821
Probable space group: C 2/C
;
_chemical_formula_sum "Si O2"
_cell_formula_units_Z 60
_cell_length_a 23.755965
_cell_length_b 9.938096
_cell_length_c 20.738308
_cell_angle_alpha 90.000000
_cell_angle_beta 40.067535
_cell_angle_gamma 90.000000
_cell_volume 3151.563182
_symmetry_space_group_name_H-M "C 2/C"
_symmetry_group_IT_number 15
_symmetry_cell_setting 'monoclinic'
loop_
_space_group_symop_operation_xyz
x,y,z
-x,y,1/2-z
-x,-y,-z
x,-y,1/2+z
1/2+x,1/2+y,z
1/2-x,1/2+y,1/2-z
1/2-x,1/2-y,-z
1/2+x,1/2-y,1/2+z
loop_
_atom_site_type_symbol
_atom_site_label
_atom_site_fract_x
_atom_site_fract_y
_atom_site_fract_z
Si Si1 0.645651 0.220511 0.790302
Si Si2 0.653053 0.954381 0.702307
Si Si3 0.817852 0.232476 0.721982
Si Si4 0.506245 0.838226 0.983165
Si Si5 0.000000 0.071810 0.750000
Si Si6 0.651265 0.491780 0.707059
Si Si7 0.784370 0.401119 0.985352
Si Si8 0.032540 0.686089 0.131463
O O1 0.634922 0.093254 0.753262
O O2 0.728968 0.196175 0.763602
O O3 0.663004 0.353422 0.733949
O O4 0.557320 0.230534 0.909686
O O5 0.698327 0.853885 0.713522
O O6 0.710702 0.971828 0.588307
O O7 0.560381 0.880900 0.767464
O O8 0.893786 0.285571 0.607139
O O9 0.852682 0.109537 0.735451
O O10 0.472169 0.804055 0.941344
O O11 0.500000 0.000000 0.000000
O O12 0.933176 0.989456 0.765178
O O13 0.956895 0.173953 0.839668
O O14 0.727057 0.532220 0.590869
O O15 0.883149 0.398435 0.924352
O O16 0.750000 0.250000 0.000000
#
# Coordination Sequence:
#
# PCOD9300821 Si02
#       8
#     8   8   8   8   4   8   8   8
#     4  12  27  43  63 103 143 163 217 294 339 393
#     4  11  22  43  66  96 125 171 224 266 326 402
#     4  11  22  45  70  97 129 175 228 274 331 407
#     4  11  23  42  71  97 126 181 224 264 344 405
#     4  12  20  46  60  94 134 170 222 276 304 400
#     4  12  26  42  65  99 133 172 215 281 337 379
#     4  12  21  38  70  95 118 172 225 266 327 392
#     4  11  19  39  72  92 119 167 232 269 301 407
#
# _framework density 19.038171999999999
#
# number of rings (size 3 to 8) (size 9 to 14) (size 15 to 20)
#    0.000    0.533    9.333    1.600    1.867    1.067 
#    4.800    0.000    0.000    0.000    0.000    0.000 
#    0.000    0.000    0.000    0.000    0.000    0.000 
#
# Total GULP energy -167532.797727 kJ/mol
# GULP energy per Si atom -5584.426591 kJ/mol
# Density = 1.899484 g / cm^3
# Si number density = 19.038172 Si / 1000 Ang^3
#
#
#
# Elastic Constant Matrix: (Units=GPa)
#
#
# Indices 1 2 3 4 5 6 
#
# 1 76.5894 9.7795 22.0181 0.0000 -1.3697 0.0000
# 2 9.7795 53.7013 1.8573 0.0000 15.7469 -0.0001
# 3 22.0181 1.8573 95.9491 0.0000 12.0794 -0.0001
# 4 0.0000 0.0000 0.0000 23.7209 0.0000 3.1641
# 5 -1.3697 15.7469 12.0794 0.0000 28.8443 0.0000
# 6 0.0000 -0.0001 -0.0001 3.1641 0.0000 13.8602
#
#
#
# Elastic Compliance Matrix: (Units=1/GPa)
#
#
# Indices 1 2 3 4 5 6 
#
# 1 0.014737 -0.003845 -0.003864 0.000000 0.004417 0.000000
# 2 -0.003845 0.023296 0.002170 0.000000 -0.013809 0.000000
# 3 -0.003864 0.002170 0.012076 0.000000 -0.006425 0.000000
# 4 0.000000 0.000000 0.000000 0.043481 0.000000 -0.009926
# 5 0.004417 -0.013809 -0.006425 0.000000 0.045108 0.000000
# 6 0.000000 0.000000 0.000000 -0.009926 0.000000 0.074415
#
#
# Mechanical properties :
#
#
# Convention : Reuss Voigt Hill
#
# Bulk Modulus (GPa) = 25.62050 32.61662 29.11856
# Shear Modulus (GPa) = 21.07910 26.12406 23.60158
#
# Velocity S-wave (km/s) = 3.33107 3.70833 3.52475
# Velocity P-wave (km/s) = 5.31803 5.95861 5.64741
#
# Compressibility (1/GPa) = 0.03903124
#
# Stress axis : x y z
#
# Youngs Moduli (GPa) = 67.85483 42.92564 82.81107
#
# Poissons Ratio (x) = 0.16507 0.31994
# Poissons Ratio (y) = 0.26093 -0.17970
# Poissons Ratio (z) = 0.26216 -0.09315
#
# Static dielectric constant tensor:
#      x y z
#    x 1.756600 0.000000 -0.032280 
#    y 0.000000 1.644920 0.000000 
#    z -0.032280 0.000000 1.697690 
# 
# From -- ./inp_files/255151.got.cif
#   From: 2010.05.17/outbox.cif.g08.bks.cpg/sg15_128_cif.got.tgz:255151.got - 2010.06.03 18:47:42.
