data_PCOD9300614
_publ_section_title
;
Structure prediction by ZEFSAII (Michael W. Deem and Ramdas Pophale) SiO2 
 PCOD9300614
Probable space group: C 2/C
;
_chemical_formula_sum "Si O2"
_cell_formula_units_Z 48
_cell_length_a 33.207355
_cell_length_b 14.740738
_cell_length_c 16.522323
_cell_angle_alpha 90.000000
_cell_angle_beta 162.518476
_cell_angle_gamma 90.000000
_cell_volume 2429.528547
_symmetry_space_group_name_H-M "C 2/C"
_symmetry_group_IT_number 15
_symmetry_cell_setting 'monoclinic'
loop_
_space_group_symop_operation_xyz
x,y,z
-x,y,1/2-z
-x,-y,-z
x,-y,1/2+z
1/2+x,1/2+y,z
1/2-x,1/2+y,1/2-z
1/2-x,1/2-y,-z
1/2+x,1/2-y,1/2+z
loop_
_atom_site_type_symbol
_atom_site_label
_atom_site_fract_x
_atom_site_fract_y
_atom_site_fract_z
Si Si1 0.754770 0.658496 0.867991
Si Si2 0.050787 0.466851 0.683318
Si Si3 0.159771 0.847542 0.542812
Si Si4 0.733714 0.948740 0.281055
Si Si5 0.036695 0.828742 0.723002
Si Si6 0.384270 0.139883 0.597016
O O1 0.793212 0.763024 0.922653
O O2 0.773225 0.600036 0.820125
O O3 0.596808 0.645844 0.580529
O O4 0.849182 0.617425 0.117749
O O5 0.124819 0.550433 0.868452
O O6 0.000000 0.500000 0.500000
O O7 0.916330 0.446471 0.474956
O O8 0.209931 0.948236 0.613700
O O9 0.245284 0.833749 0.788539
O O10 0.000000 0.846308 0.250000
O O11 0.836172 0.893719 0.534622
O O12 0.070982 0.726306 0.766188
O O13 0.000000 0.826789 0.750000
O O14 0.500000 0.125628 0.750000
#
# Coordination Sequence:
#
# PCOD9300614 Si02
#       6
#     8   8   8   8   8   8
#     4  11  20  37  63  89 116 147 195 243 287 343
#     4  12  25  39  56  84 122 163 194 232 288 350
#     4  12  21  32  63  98 114 140 197 251 289 336
#     4  11  20  37  60  88 115 149 199 244 288 338
#     4   9  18  34  61  91 113 142 189 251 299 330
#     4  11  18  39  62  84 117 152 191 244 297 336
#
# _framework density 19.756920000000001
#
# number of rings (size 3 to 8) (size 9 to 14) (size 15 to 20)
#    0.000    1.000    8.333    3.000    0.000    0.000 
#    0.000    5.000    0.000    0.000    0.000    0.000 
#    0.000    0.000    0.000    0.000    0.000    0.000 
#
# Total GULP energy -133914.071897 kJ/mol
# GULP energy per Si atom -5579.752996 kJ/mol
# Density = 1.971195 g / cm^3
# Si number density = 19.756920 Si / 1000 Ang^3
#
#
#
# Elastic Constant Matrix: (Units=GPa)
#
#
# Indices 1 2 3 4 5 6 
#
# 1 -10.1977 -15.9855 -13.7777 0.0000 -1.6433 0.0000
# 2 -15.9855 81.1335 -14.4620 0.0000 3.3603 0.0000
# 3 -13.7777 -14.4620 106.1395 0.0000 15.5749 0.0000
# 4 0.0000 0.0000 0.0000 -11.3204 0.0000 -16.3968
# 5 -1.6433 3.3603 15.5749 0.0000 8.9236 0.0000
# 6 0.0000 0.0000 0.0000 -16.3968 0.0000 -9.9993
#
#
#
# Elastic Compliance Matrix: (Units=1/GPa)
#
#
# Indices 1 2 3 4 5 6 
#
# 1 -0.060850 -0.014818 -0.012223 0.000000 0.015708 0.000000
# 2 -0.014818 0.009790 0.000473 0.000000 -0.007241 0.000000
# 3 -0.012223 0.000473 0.011098 0.000000 -0.021799 0.000000
# 4 0.000000 0.000000 0.000000 0.064238 0.000000 -0.105337
# 5 0.015708 -0.007241 -0.021799 0.000000 0.155728 0.000000
# 6 0.000000 0.000000 0.000000 -0.105337 0.000000 0.072725
#
#
# Mechanical properties :
#
#
# Convention : Reuss Voigt Hill
#
# Bulk Modulus (GPa) = -10.74131 9.84722 -0.44704
# Shear Modulus (GPa) = 18.19286 12.27416 15.23351
#
# Velocity S-wave (km/s) = 3.03782 2.49521 2.77979
# Velocity P-wave (km/s) = 2.61838 3.64643 3.17430
#
# Compressibility (1/GPa) = -0.09309855
#
# Stress axis : x y z
#
# Youngs Moduli (GPa) = -16.43382 102.14572 90.10483
#
# Poissons Ratio (x) = 1.51363 1.10133
# Poissons Ratio (y) = -0.24352 -0.04261
# Poissons Ratio (z) = -0.20087 -0.04830
#
# Static dielectric constant tensor:
#      x y z
#    x 1.703440 0.000000 -0.006000 
#    y 0.000000 1.736770 0.000000 
#    z -0.006000 0.000000 1.707510 
# 
# From -- ./inp_files/182516.got.cif
#   From: 2010.05.17/outbox.cif.g08.bks.cpg/sg15_92_cif.got.tgz:182516.got - 2010.06.03 18:47:42.
