data_PCOD9300810
_publ_section_title
;
Structure prediction by ZEFSAII (Michael W. Deem and Ramdas Pophale) SiO2 
 PCOD9300810
Probable space group: C 2/C
;
_chemical_formula_sum "Si O2"
_cell_formula_units_Z 56
_cell_length_a 14.054873
_cell_length_b 18.146490
_cell_length_c 18.923296
_cell_angle_alpha 90.000000
_cell_angle_beta 34.609810
_cell_angle_gamma 90.000000
_cell_volume 2741.277222
_symmetry_space_group_name_H-M "C 2/C"
_symmetry_group_IT_number 15
_symmetry_cell_setting 'monoclinic'
loop_
_space_group_symop_operation_xyz
x,y,z
-x,y,1/2-z
-x,-y,-z
x,-y,1/2+z
1/2+x,1/2+y,z
1/2-x,1/2+y,1/2-z
1/2-x,1/2-y,-z
1/2+x,1/2-y,1/2+z
loop_
_atom_site_type_symbol
_atom_site_label
_atom_site_fract_x
_atom_site_fract_y
_atom_site_fract_z
Si Si1 0.220475 0.646949 0.784676
Si Si2 0.907005 0.380291 0.376119
Si Si3 0.925162 0.192888 0.452745
Si Si4 0.144651 0.446668 0.608563
Si Si5 0.731613 0.210132 0.326419
Si Si6 0.516483 0.419305 0.021032
Si Si7 0.026968 0.419783 0.522127
O O1 0.291953 0.727882 0.721535
O O2 0.357105 0.593645 0.668062
O O3 0.045230 0.629538 0.851508
O O4 0.170299 0.626947 0.894030
O O5 0.734886 0.338321 0.489925
O O6 0.855417 0.464104 0.390990
O O7 0.000000 0.350961 0.250000
O O8 0.849026 0.254470 0.553320
O O9 0.067962 0.204674 0.306469
O O10 0.003833 0.136255 0.462398
O O11 0.317149 0.415048 0.533483
O O12 0.092108 0.429207 0.561370
O O13 0.000000 0.421702 0.750000
O O14 0.639325 0.131682 0.374383
O O15 0.500000 0.500000 0.000000
O O16 0.000000 0.500000 0.500000
#
# Coordination Sequence:
#
# PCOD9300810 Si02
#       7
#     8   8   8   8   8   8   8
#     4  11  24  44  66  98 145 188 234 294 363 420
#     4  11  19  39  66 102 138 185 232 291 355 439
#     4  11  23  41  68 100 142 188 245 287 360 437
#     4  11  23  41  70 105 137 185 242 296 366 427
#     4  11  24  45  67  99 145 195 234 293 366 427
#     4  11  21  39  70 100 131 185 240 291 351 442
#     4  12  26  45  72 103 146 184 237 307 362 419
#
# _framework density 20.428432999999998
#
# number of rings (size 3 to 8) (size 9 to 14) (size 15 to 20)
#    0.000    0.857    7.143    1.714    2.000    1.143 
#    2.571    2.857    6.286    0.000    0.000    0.000 
#    0.000    0.000    0.000    0.000    0.000    0.000 
#
# Total GULP energy -156235.255591 kJ/mol
# GULP energy per Si atom -5579.830557 kJ/mol
# Density = 2.038194 g / cm^3
# Si number density = 20.428433 Si / 1000 Ang^3
#
#
#
# Elastic Constant Matrix: (Units=GPa)
#
#
# Indices 1 2 3 4 5 6 
#
# 1 132.9652 44.3132 54.1146 0.0005 -8.0771 -0.0006
# 2 44.3132 88.4858 71.2366 0.0003 -9.6718 -0.0005
# 3 54.1146 71.2366 173.7886 -0.0021 -9.5450 -0.0002
# 4 0.0005 0.0003 -0.0021 39.2390 -0.0004 -3.8081
# 5 -8.0771 -9.6718 -9.5450 -0.0004 38.7566 0.0007
# 6 -0.0006 -0.0005 -0.0002 -3.8081 0.0007 25.1087
#
#
#
# Elastic Compliance Matrix: (Units=1/GPa)
#
#
# Indices 1 2 3 4 5 6 
#
# 1 0.009292 -0.003398 -0.001460 0.000000 0.000729 0.000000
# 2 -0.003398 0.018361 -0.006341 0.000000 0.002312 0.000000
# 3 -0.001460 -0.006341 0.008824 0.000001 0.000286 0.000000
# 4 0.000000 0.000000 0.000001 0.025866 0.000000 0.003923
# 5 0.000729 0.002312 0.000286 0.000000 0.026601 -0.000001
# 6 0.000000 0.000000 0.000000 0.003923 -0.000001 0.040422
#
#
# Mechanical properties :
#
#
# Convention : Reuss Voigt Hill
#
# Bulk Modulus (GPa) = 71.03561 81.61874 76.32718
# Shear Modulus (GPa) = 31.95780 35.65919 33.80849
#
# Velocity S-wave (km/s) = 3.95951 4.18253 4.07255
# Velocity P-wave (km/s) = 7.46673 7.96021 7.71742
#
# Compressibility (1/GPa) = 0.01407745
#
# Stress axis : x y z
#
# Youngs Moduli (GPa) = 107.62141 54.46463 113.32951
#
# Poissons Ratio (x) = 0.18506 0.16552
# Poissons Ratio (y) = 0.36568 0.71863
# Poissons Ratio (z) = 0.15718 0.34536
#
# Static dielectric constant tensor:
#      x y z
#    x 1.799370 0.000000 0.014630 
#    y 0.000000 1.829470 0.000000 
#    z 0.014630 0.000000 1.747640 
# 
# From -- ./inp_files/245120.got.cif
#   From: 2010.05.17/outbox.cif.g08.bks.cpg/sg15_123_cif.got.tgz:245120.got - 2010.06.03 18:47:42.
