data_PCOD9300921
_publ_section_title
;
Structure prediction by ZEFSAII (Michael W. Deem and Ramdas Pophale) SiO2 
 PCOD9300921
Probable space group: C 2/C
;
_chemical_formula_sum "Si O2"
_cell_formula_units_Z 64
_cell_length_a 18.309765
_cell_length_b 20.936074
_cell_length_c 12.259614
_cell_angle_alpha 90.000000
_cell_angle_beta 135.200777
_cell_angle_gamma 90.000000
_cell_volume 3311.407323
_symmetry_space_group_name_H-M "C 2/C"
_symmetry_group_IT_number 15
_symmetry_cell_setting 'monoclinic'
loop_
_space_group_symop_operation_xyz
x,y,z
-x,y,1/2-z
-x,-y,-z
x,-y,1/2+z
1/2+x,1/2+y,z
1/2-x,1/2+y,1/2-z
1/2-x,1/2-y,-z
1/2+x,1/2-y,1/2+z
loop_
_atom_site_type_symbol
_atom_site_label
_atom_site_fract_x
_atom_site_fract_y
_atom_site_fract_z
Si Si1 0.305792 0.639878 0.068086
Si Si2 0.291468 0.637901 0.677117
Si Si3 0.881670 0.949269 0.452474
Si Si4 0.369921 0.226494 0.342634
Si Si5 0.666050 0.675482 0.015053
Si Si6 0.433358 0.187941 0.078532
Si Si7 0.616110 0.777830 0.385740
Si Si8 0.388173 0.417469 0.868496
O O1 0.374220 0.705237 0.148934
O O2 0.311582 0.604075 0.190392
O O3 0.341732 0.590614 0.013588
O O4 0.196262 0.671972 0.920160
O O5 0.332446 0.580268 0.791302
O O6 0.347277 0.701197 0.782722
O O7 0.321622 0.636073 0.582314
O O8 0.167483 0.646970 0.557546
O O9 0.005089 0.937994 0.575874
O O10 0.856858 0.024080 0.414342
O O11 0.279962 0.186554 0.186851
O O12 0.483552 0.202782 0.427673
O O13 0.356487 0.224275 0.457573
O O14 0.598187 0.641780 0.035513
O O15 0.616533 0.744294 0.936785
O O16 0.500000 0.161492 0.250000
O O17 0.500000 0.800080 0.250000
#
# Coordination Sequence:
#
# PCOD9300921 Si02
#       8
#     8   8   8   8   8   8   8   8
#     4  11  24  44  61  92 127 158 205 253 306 366
#     4  11  22  37  57  90 122 157 200 242 301 355
#     4  11  25  41  63  87 116 161 204 250 299 355
#     4  11  20  37  55  90 124 154 196 242 305 358
#     4  11  22  36  58  87 122 157 195 246 295 357
#     4  11  20  33  58  89 124 153 186 243 300 367
#     4  11  24  37  66  94 125 164 196 252 313 370
#     4  11  25  42  62  85 119 161 203 249 297 356
#
# _framework density 19.327128999999999
#
# number of rings (size 3 to 8) (size 9 to 14) (size 15 to 20)
#    0.000    1.000    5.000    2.625    5.250    0.000 
#    0.000    0.000    0.000    3.750    0.000    0.000 
#    0.000    0.000    0.000    0.000    0.000    0.000 
#
# Total GULP energy -178734.725696 kJ/mol
# GULP energy per Si atom -5585.460178 kJ/mol
# Density = 1.928314 g / cm^3
# Si number density = 19.327129 Si / 1000 Ang^3
#
#
#
# Elastic Constant Matrix: (Units=GPa)
#
#
# Indices 1 2 3 4 5 6 
#
# 1 64.2483 8.9996 1.3582 0.0000 2.0386 0.0000
# 2 8.9996 55.9246 18.1427 0.0000 0.4111 0.0000
# 3 1.3582 18.1427 59.0049 0.0000 -0.7780 0.0000
# 4 0.0000 0.0000 0.0000 21.4980 0.0000 -5.1232
# 5 2.0386 0.4111 -0.7780 0.0000 28.3065 0.0000
# 6 0.0000 0.0000 0.0000 -5.1232 0.0000 26.6512
#
#
#
# Elastic Compliance Matrix: (Units=1/GPa)
#
#
# Indices 1 2 3 4 5 6 
#
# 1 0.015969 -0.002708 0.000451 0.000000 -0.001098 0.000000
# 2 -0.002708 0.020328 -0.006191 0.000000 -0.000270 0.000000
# 3 0.000451 -0.006191 0.018849 0.000000 0.000576 0.000000
# 4 0.000000 0.000000 0.000000 0.048749 0.000000 0.009371
# 5 -0.001098 -0.000270 0.000576 0.000000 0.035426 0.000000
# 6 0.000000 0.000000 0.000000 0.009371 0.000000 0.039323
#
#
# Mechanical properties :
#
#
# Convention : Reuss Voigt Hill
#
# Bulk Modulus (GPa) = 26.14528 26.24207 26.19368
# Shear Modulus (GPa) = 24.00484 25.33630 24.67057
#
# Velocity S-wave (km/s) = 3.52807 3.62459 3.57665
# Velocity P-wave (km/s) = 5.49122 5.57891 5.53523
#
# Compressibility (1/GPa) = 0.03824782
#
# Stress axis : x y z
#
# Youngs Moduli (GPa) = 62.62036 49.19425 53.05407
#
# Poissons Ratio (x) = 0.13321 -0.02390
# Poissons Ratio (y) = 0.16957 0.32848
# Poissons Ratio (z) = -0.02821 0.30459
#
# Static dielectric constant tensor:
#      x y z
#    x 1.716960 0.000000 0.009310 
#    y 0.000000 1.664690 0.000000 
#    z 0.009310 0.000000 1.671720 
# 
# From -- ./inp_files/114267.got.cif
#   From: 2010.05.17/outbox.cif.g08.bks.cpg/sg15_58_cif.got.tgz:114267.got - 2010.06.03 18:47:42.
