data_PCOD9300899
_publ_section_title
;
Structure prediction by ZEFSAII (Michael W. Deem and Ramdas Pophale) SiO2 
 PCOD9300899
Probable space group: C 2/C
;
_chemical_formula_sum "Si O2"
_cell_formula_units_Z 64
_cell_length_a 18.240611
_cell_length_b 11.931558
_cell_length_c 20.437118
_cell_angle_alpha 90.000000
_cell_angle_beta 138.986189
_cell_angle_gamma 90.000000
_cell_volume 2918.901941
_symmetry_space_group_name_H-M "C 2/C"
_symmetry_group_IT_number 15
_symmetry_cell_setting 'monoclinic'
loop_
_space_group_symop_operation_xyz
x,y,z
-x,y,1/2-z
-x,-y,-z
x,-y,1/2+z
1/2+x,1/2+y,z
1/2-x,1/2+y,1/2-z
1/2-x,1/2-y,-z
1/2+x,1/2-y,1/2+z
loop_
_atom_site_type_symbol
_atom_site_label
_atom_site_fract_x
_atom_site_fract_y
_atom_site_fract_z
Si Si1 0.044596 0.891539 0.852332
Si Si2 0.631477 0.510976 0.094563
Si Si3 0.134205 0.052181 0.745537
Si Si4 0.784339 0.813594 0.442056
Si Si5 0.284671 0.795270 0.717702
Si Si6 0.870425 0.283880 0.271510
Si Si7 0.448792 0.025925 0.373438
Si Si8 0.160462 0.565204 0.058244
O O1 0.967066 0.808241 0.843104
O O2 0.000000 0.872789 0.750000
O O3 0.995449 0.015947 0.834216
O O4 0.170798 0.857242 0.957138
O O5 0.663952 0.480165 0.190869
O O6 0.674797 0.415358 0.075953
O O7 0.685013 0.632923 0.117293
O O8 0.500000 0.500000 0.000000
O O9 0.170852 0.179374 0.781452
O O10 0.214155 0.978178 0.845868
O O11 0.662287 0.798992 0.327058
O O12 0.839013 0.692713 0.465209
O O13 0.233133 0.761929 0.754531
O O14 0.388398 0.880365 0.790090
O O15 0.907276 0.402331 0.325528
O O16 0.402761 0.055946 0.414608
O O17 0.582761 0.015395 0.461918
#
# Coordination Sequence:
#
# PCOD9300899 Si02
#       8
#     8   8   8   8   8   8   8   8
#     4  12  27  43  60  85 123 174 216 250 295 368
#     4  12  21  33  59  96 126 154 194 252 322 371
#     4  12  22  39  57  90 127 159 199 253 309 377
#     4  12  20  37  62  89 119 157 202 257 313 360
#     4  12  20  35  59  94 129 156 182 257 319 370
#     4  12  20  38  59  89 131 152 207 250 308 368
#     4  11  20  32  54  91 125 157 181 240 319 380
#     4  11  20  32  56  87 125 155 186 244 316 369
#
# _framework density 21.926054000000001
#
# number of rings (size 3 to 8) (size 9 to 14) (size 15 to 20)
#    0.000    0.250   11.250    0.000    0.000    1.500 
#    0.000    0.000    0.000    1.500    0.000    0.000 
#    0.000    0.000    0.000    0.000    0.000    0.000 
#
# Total GULP energy -178515.624998 kJ/mol
# GULP energy per Si atom -5578.613281 kJ/mol
# Density = 2.187615 g / cm^3
# Si number density = 21.926054 Si / 1000 Ang^3
#
#
#
# Elastic Constant Matrix: (Units=GPa)
#
#
# Indices 1 2 3 4 5 6 
#
# 1 24.3859 23.3370 17.0929 0.0000 -0.9337 0.0000
# 2 23.3370 163.0172 40.4733 0.0000 4.4127 0.0000
# 3 17.0929 40.4733 115.4187 0.0000 11.1829 0.0000
# 4 0.0000 0.0000 0.0000 37.0302 0.0000 6.1341
# 5 -0.9337 4.4127 11.1829 0.0000 34.2474 0.0000
# 6 0.0000 0.0000 0.0000 6.1341 0.0000 10.0231
#
#
#
# Elastic Compliance Matrix: (Units=1/GPa)
#
#
# Indices 1 2 3 4 5 6 
#
# 1 0.050963 -0.005952 -0.005854 0.000000 0.004068 0.000000
# 2 -0.005952 0.007415 -0.001663 0.000000 -0.000575 0.000000
# 3 -0.005854 -0.001663 0.010439 0.000000 -0.003354 0.000000
# 4 0.000000 0.000000 0.000000 0.030052 0.000000 -0.018391
# 5 0.004068 -0.000575 -0.003354 0.000000 0.030479 0.000000
# 6 0.000000 0.000000 0.000000 -0.018391 0.000000 0.111025
#
#
# Mechanical properties :
#
#
# Convention : Reuss Voigt Hill
#
# Bulk Modulus (GPa) = 23.87891 51.62535 37.75213
# Shear Modulus (GPa) = 17.77647 31.05472 24.41560
#
# Velocity S-wave (km/s) = 2.85045 3.76751 3.34060
# Velocity P-wave (km/s) = 4.66344 6.52088 5.66875
#
# Compressibility (1/GPa) = 0.04187797
#
# Stress axis : x y z
#
# Youngs Moduli (GPa) = 19.62216 134.86427 95.79287
#
# Poissons Ratio (x) = 0.80276 0.56079
# Poissons Ratio (y) = 0.11680 0.15930
# Poissons Ratio (z) = 0.11487 0.22427
#
# Static dielectric constant tensor:
#      x y z
#    x 1.834270 0.000000 0.004670 
#    y 0.000000 1.802540 0.000000 
#    z 0.004670 0.000000 1.921270 
# 
# From -- ./inp_files/252572.got.cif
#   From: 2010.05.17/outbox.cif.g08.bks.cpg/sg15_127_cif.got.tgz:252572.got - 2010.06.03 18:47:42.
