data_PCOD9300830
_publ_section_title
;
Structure prediction by ZEFSAII (Michael W. Deem and Ramdas Pophale) SiO2 
 PCOD9300830
Probable space group: C 2/C
;
_chemical_formula_sum "Si O2"
_cell_formula_units_Z 64
_cell_length_a 17.161672
_cell_length_b 10.732539
_cell_length_c 28.990022
_cell_angle_alpha 90.000000
_cell_angle_beta 32.253807
_cell_angle_gamma 90.000000
_cell_volume 2849.600539
_symmetry_space_group_name_H-M "C 2/C"
_symmetry_group_IT_number 15
_symmetry_cell_setting 'monoclinic'
loop_
_space_group_symop_operation_xyz
x,y,z
-x,y,1/2-z
-x,-y,-z
x,-y,1/2+z
1/2+x,1/2+y,z
1/2-x,1/2+y,1/2-z
1/2-x,1/2-y,-z
1/2+x,1/2-y,1/2+z
loop_
_atom_site_type_symbol
_atom_site_label
_atom_site_fract_x
_atom_site_fract_y
_atom_site_fract_z
Si Si1 0.419953 0.160834 0.191664
Si Si2 0.247936 0.861135 0.944371
Si Si3 0.679342 0.261427 0.432744
Si Si4 0.539405 0.432672 0.571680
Si Si5 0.789421 0.006561 0.377564
Si Si6 0.221555 0.985184 0.861671
Si Si7 0.079282 0.943014 0.283413
Si Si8 0.526192 0.853076 0.542690
O O1 0.585005 0.153504 0.127396
O O2 0.326756 0.067187 0.269571
O O3 0.377723 0.307418 0.217914
O O4 0.420337 0.119579 0.138309
O O5 0.233482 0.887757 0.897238
O O6 0.140883 0.746649 0.006382
O O7 0.178981 0.977568 0.006050
O O8 0.599485 0.305117 0.519876
O O9 0.796602 0.153913 0.382865
O O10 0.747128 0.381939 0.373149
O O11 0.562230 0.205580 0.455343
O O12 0.437963 0.487155 0.581497
O O13 0.445214 0.452839 0.664768
O O14 0.813001 0.979657 0.311770
O O15 0.631253 0.962272 0.473228
O O16 0.919523 0.936387 0.338877
#
# Coordination Sequence:
#
# PCOD9300830 Si02
#       8
#     8   8   8   8   8   8   8   8
#     4  12  24  38  72 105 127 171 231 285 325 394
#     4  11  19  40  68  97 129 167 220 281 329 384
#     4  11  24  46  64  94 139 182 218 266 338 412
#     4  11  22  44  71  93 131 178 220 275 337 394
#     4  11  26  43  65  96 137 179 218 274 337 393
#     4  11  23  41  67 100 131 170 220 282 333 383
#     4  11  24  44  67  96 134 172 221 283 338 383
#     4  12  21  43  69  98 134 170 227 273 331 398
#
# _framework density 22.459288000000001
#
# number of rings (size 3 to 8) (size 9 to 14) (size 15 to 20)
#    0.000    0.750    5.000    3.375    3.500    0.500 
#   11.250    0.000    0.000    0.000    0.000    0.000 
#    0.000    0.000    0.000    0.000    0.000    0.000 
#
# Total GULP energy -178918.469457 kJ/mol
# GULP energy per Si atom -5591.202171 kJ/mol
# Density = 2.240817 g / cm^3
# Si number density = 22.459288 Si / 1000 Ang^3
#
#
#
# Elastic Constant Matrix: (Units=GPa)
#
#
# Indices 1 2 3 4 5 6 
#
# 1 62.1957 9.4455 25.3425 0.0000 21.8578 0.0000
# 2 9.4455 78.7640 50.7008 0.0000 16.5267 0.0001
# 3 25.3425 50.7008 109.1630 -0.0003 44.7692 0.0001
# 4 0.0000 0.0000 -0.0003 32.5419 0.0000 -0.4804
# 5 21.8578 16.5267 44.7692 0.0000 51.3082 0.0000
# 6 0.0000 0.0001 0.0001 -0.4804 0.0000 21.6268
#
#
#
# Elastic Compliance Matrix: (Units=1/GPa)
#
#
# Indices 1 2 3 4 5 6 
#
# 1 0.019117 0.000294 -0.001862 0.000000 -0.006614 0.000000
# 2 0.000294 0.018298 -0.009497 0.000000 0.002267 0.000000
# 3 -0.001862 -0.009497 0.019347 0.000000 -0.013029 0.000000
# 4 0.000000 0.000000 0.000000 0.030740 0.000000 0.000683
# 5 -0.006614 0.002267 -0.013029 0.000000 0.032946 0.000000
# 6 0.000000 0.000000 0.000000 0.000683 0.000000 0.046254
#
#
# Mechanical properties :
#
#
# Convention : Reuss Voigt Hill
#
# Bulk Modulus (GPa) = 28.87484 46.78894 37.83189
# Shear Modulus (GPa) = 24.95316 32.07099 28.51207
#
# Velocity S-wave (km/s) = 3.33684 3.78294 3.56687
# Velocity P-wave (km/s) = 5.26597 6.32130 5.81761
#
# Compressibility (1/GPa) = 0.03463223
#
# Stress axis : x y z
#
# Youngs Moduli (GPa) = 52.31029 54.65010 51.68755
#
# Poissons Ratio (x) = -0.01606 0.09625
# Poissons Ratio (y) = -0.01537 0.49086
# Poissons Ratio (z) = 0.09741 0.51899
#
# Static dielectric constant tensor:
#      x y z
#    x 1.831050 0.000000 0.033230 
#    y 0.000000 1.838030 0.000000 
#    z 0.033230 0.000000 1.863290 
# 
# From -- ./inp_files/316187.got.cif
#   From: 2010.05.17/outbox.cif.g08.bks.cpg/sg15_159_cif.got.tgz:316187.got - 2010.06.03 18:47:42.
