data_PCOD9300766
_publ_section_title
;
Structure prediction by ZEFSAII (Michael W. Deem and Ramdas Pophale) SiO2 
 PCOD9300766
Probable space group: C 2/C
;
_chemical_formula_sum "Si O2"
_cell_formula_units_Z 56
_cell_length_a 27.115226
_cell_length_b 11.358007
_cell_length_c 14.612692
_cell_angle_alpha 90.000000
_cell_angle_beta 141.987002
_cell_angle_gamma 90.000000
_cell_volume 2771.492095
_symmetry_space_group_name_H-M "C 2/C"
_symmetry_group_IT_number 15
_symmetry_cell_setting 'monoclinic'
loop_
_space_group_symop_operation_xyz
x,y,z
-x,y,1/2-z
-x,-y,-z
x,-y,1/2+z
1/2+x,1/2+y,z
1/2-x,1/2+y,1/2-z
1/2-x,1/2-y,-z
1/2+x,1/2-y,1/2+z
loop_
_atom_site_type_symbol
_atom_site_label
_atom_site_fract_x
_atom_site_fract_y
_atom_site_fract_z
Si Si1 0.148441 0.441846 0.059090
Si Si2 0.171354 0.087440 0.627116
Si Si3 0.080689 0.283158 0.806253
Si Si4 0.022878 0.670332 0.508231
Si Si5 0.410341 0.485499 0.161924
Si Si6 0.919185 0.927004 0.868181
Si Si7 0.561183 0.816948 0.425290
O O1 0.234375 0.402690 0.222455
O O2 0.085936 0.410640 0.048567
O O3 0.135882 0.365417 0.948414
O O4 0.124054 0.576593 0.999544
O O5 0.114446 0.203176 0.533811
O O6 0.151599 0.017625 0.506226
O O7 0.144883 0.003230 0.671490
O O8 0.105691 0.148113 0.830892
O O9 0.000000 0.279371 0.750000
O O10 0.055644 0.330604 0.670913
O O11 0.063613 0.799665 0.565758
O O12 0.995779 0.650132 0.572051
O O13 0.500000 0.492202 0.250000
O O14 0.403711 0.572782 0.237670
O O15 0.000000 0.000000 0.000000
O O16 0.500000 0.797415 0.250000
#
# Coordination Sequence:
#
# PCOD9300766 Si02
#       7
#     8   8   8   8   8   8   8
#     4  11  27  42  63  97 135 173 216 281 337 387
#     4  12  25  41  64 100 136 165 219 289 336 374
#     4   9  18  37  66  90 119 168 215 255 316 398
#     4  11  21  43  72  91 127 177 225 262 326 408
#     4  11  19  37  67  96 125 168 214 263 330 392
#     4  12  20  39  68 102 124 165 223 277 322 400
#     4  12  25  45  68  94 134 183 229 262 323 418
#
# _framework density 20.205722000000002
#
# number of rings (size 3 to 8) (size 9 to 14) (size 15 to 20)
#    0.000    0.857    4.286    4.714    4.000    0.000 
#    5.143    2.857    0.000    0.000    0.000    0.000 
#    0.000    0.000    0.000    0.000    0.000    0.000 
#
# Total GULP energy -156305.949599 kJ/mol
# GULP energy per Si atom -5582.355343 kJ/mol
# Density = 2.015973 g / cm^3
# Si number density = 20.205722 Si / 1000 Ang^3
#
#
#
# Elastic Constant Matrix: (Units=GPa)
#
#
# Indices 1 2 3 4 5 6 
#
# 1 61.4101 13.3405 55.5666 0.0000 -18.5192 0.0000
# 2 13.3405 84.1781 32.2228 0.0000 14.1535 0.0000
# 3 55.5666 32.2228 153.7800 0.0000 -9.3643 0.0000
# 4 0.0000 0.0000 0.0000 -6.5757 0.0000 0.5218
# 5 -18.5192 14.1535 -9.3643 0.0000 32.2967 0.0000
# 6 0.0000 0.0000 0.0000 0.5218 0.0000 17.7610
#
#
#
# Elastic Compliance Matrix: (Units=1/GPa)
#
#
# Indices 1 2 3 4 5 6 
#
# 1 0.030452 -0.004128 -0.009126 0.000000 0.016624 0.000000
# 2 -0.004128 0.015002 -0.002236 0.000000 -0.009590 0.000000
# 3 -0.009126 -0.002236 0.010190 0.000000 -0.001299 0.000000
# 4 0.000000 0.000000 0.000000 -0.151720 0.000000 0.004457
# 5 0.016624 -0.009590 -0.001299 0.000000 0.044321 0.000000
# 6 0.000000 0.000000 0.000000 0.004457 0.000000 0.056172
#
#
# Mechanical properties :
#
#
# Convention : Reuss Voigt Hill
#
# Bulk Modulus (GPa) = 40.54496 55.73645 48.14071
# Shear Modulus (GPa) = 114.63345 21.91229 68.27287
#
# Velocity S-wave (km/s) = 7.54031 3.29669 5.81913
# Velocity P-wave (km/s) = 9.79378 6.49117 8.30823
#
# Compressibility (1/GPa) = 0.02466398
#
# Stress axis : x y z
#
# Youngs Moduli (GPa) = 32.83899 66.65780 98.13681
#
# Poissons Ratio (x) = 0.27514 0.89561
# Poissons Ratio (y) = 0.13555 0.21943
# Poissons Ratio (z) = 0.29969 0.14904
#
# Static dielectric constant tensor:
#      x y z
#    x 1.956920 0.000000 -0.329060 
#    y 0.000000 1.640730 0.000000 
#    z -0.329060 0.000000 1.953160 
# 
# From -- ./inp_files/181586.got.cif
#   From: 2010.05.17/outbox.cif.g08.bks.cpg/sg15_91_cif.got.tgz:181586.got - 2010.06.03 18:47:42.
