data_PCOD9300945
_publ_section_title
;
Structure prediction by ZEFSAII (Michael W. Deem and Ramdas Pophale) SiO2 
 PCOD9300945
Probable space group: C 2/C
;
_chemical_formula_sum "Si O2"
_cell_formula_units_Z 36
_cell_length_a 20.082073
_cell_length_b 20.401709
_cell_length_c 8.268340
_cell_angle_alpha 90.000000
_cell_angle_beta 35.388946
_cell_angle_gamma 90.000000
_cell_volume 1961.845964
_symmetry_space_group_name_H-M "C 2/C"
_symmetry_group_IT_number 15
_symmetry_cell_setting 'monoclinic'
loop_
_space_group_symop_operation_xyz
x,y,z
-x,y,1/2-z
-x,-y,-z
x,-y,1/2+z
1/2+x,1/2+y,z
1/2-x,1/2+y,1/2-z
1/2-x,1/2-y,-z
1/2+x,1/2-y,1/2+z
loop_
_atom_site_type_symbol
_atom_site_label
_atom_site_fract_x
_atom_site_fract_y
_atom_site_fract_z
Si Si1 0.038911 0.429120 0.360480
Si Si2 0.764840 0.655691 0.068597
Si Si3 0.000000 0.339620 0.750000
Si Si4 0.848452 0.231228 0.932483
Si Si5 0.068506 0.219325 0.275694
O O1 0.997317 0.381593 0.589857
O O2 0.000000 0.418001 0.250000
O O3 0.000000 0.500000 0.500000
O O4 0.174633 0.413407 0.077613
O O5 0.698625 0.672092 0.365922
O O6 0.671231 0.671177 0.118047
O O7 0.867468 0.710333 0.867135
O O8 0.114301 0.293893 0.532406
O O9 0.968512 0.217153 0.606913
O O10 0.750000 0.250000 0.000000
O O11 0.000000 0.204612 0.250000
#
# Coordination Sequence:
#
# PCOD9300945 Si02
#       5
#     8   8   4   8   8
#     4  12  25  43  63  92 129 177 231 276 322 392
#     4  11  21  37  57  91 137 166 210 276 330 397
#     4  12  22  42  64  94 140 170 218 268 332 394
#     4  12  21  34  61  97 134 173 205 267 347 407
#     4  11  20  34  56  94 135 169 209 260 348 397
#
# _framework density 18.350064
#
# number of rings (size 3 to 8) (size 9 to 14) (size 15 to 20)
#    0.000    0.444    7.778    3.333    0.000    0.000 
#    0.000    0.000    0.000    0.000    0.000   21.778 
#    0.000    0.000    0.000    0.000    0.000    0.000 
#
# Total GULP energy -100325.109322 kJ/mol
# GULP energy per Si atom -5573.617185 kJ/mol
# Density = 1.830830 g / cm^3
# Si number density = 18.350064 Si / 1000 Ang^3
#
#
#
# Elastic Constant Matrix: (Units=GPa)
#
#
# Indices 1 2 3 4 5 6 
#
# 1 164.2294 37.4001 40.5795 0.0000 -7.7609 0.0000
# 2 37.4001 64.1000 36.0560 0.0000 -7.1033 0.0000
# 3 40.5795 36.0560 142.2119 0.0000 2.5511 0.0000
# 4 0.0000 0.0000 0.0000 40.2994 0.0000 3.4983
# 5 -7.7609 -7.1033 2.5511 0.0000 44.8573 0.0000
# 6 0.0000 0.0000 0.0000 3.4983 0.0000 18.4984
#
#
#
# Elastic Compliance Matrix: (Units=1/GPa)
#
#
# Indices 1 2 3 4 5 6 
#
# 1 0.007206 -0.003446 -0.001196 0.000000 0.000769 0.000000
# 2 -0.003446 0.020299 -0.004214 0.000000 0.002858 0.000000
# 3 -0.001196 -0.004214 0.008466 0.000000 -0.001356 0.000000
# 4 0.000000 0.000000 0.000000 0.025228 0.000000 -0.004771
# 5 0.000769 0.002858 -0.001356 0.000000 0.022956 0.000000
# 6 0.000000 0.000000 0.000000 -0.004771 0.000000 0.054961
#
#
# Mechanical properties :
#
#
# Convention : Reuss Voigt Hill
#
# Bulk Modulus (GPa) = 54.77430 66.51252 60.64341
# Shear Modulus (GPa) = 30.69098 37.83141 34.26119
#
# Velocity S-wave (km/s) = 4.09409 4.54547 4.32567
# Velocity P-wave (km/s) = 7.22933 7.99209 7.62026
#
# Compressibility (1/GPa) = 0.01825674
#
# Stress axis : x y z
#
# Youngs Moduli (GPa) = 138.77777 49.26440 118.12092
#
# Poissons Ratio (x) = 0.16978 0.14129
# Poissons Ratio (y) = 0.47826 0.49780
# Poissons Ratio (z) = 0.16600 0.20762
#
# Static dielectric constant tensor:
#      x y z
#    x 1.706590 0.000000 0.065520 
#    y 0.000000 1.661180 0.000000 
#    z 0.065520 0.000000 1.679990 
# 
# From -- ./inp_files/57666.got.cif
#   From: 2010.05.17/outbox.cif.g08.bks.cpg/sg15_29_cif.got.tgz:57666.got - 2010.06.03 18:47:42.
