data_PCOD9300127
_publ_section_title
;
Structure prediction by ZEFSAII (Michael W. Deem and Ramdas Pophale) SiO2 
 PCOD9300127
Probable space group: C 2/C
;
_chemical_formula_sum "Si O2"
_cell_formula_units_Z 52
_cell_length_a 15.917926
_cell_length_b 28.175658
_cell_length_c 9.499315
_cell_angle_alpha 90.000000
_cell_angle_beta 146.194752
_cell_angle_gamma 90.000000
_cell_volume 2370.379542
_symmetry_space_group_name_H-M "C 2/C"
_symmetry_group_IT_number 15
_symmetry_cell_setting 'monoclinic'
loop_
_space_group_symop_operation_xyz
x,y,z
-x,y,1/2-z
-x,-y,-z
x,-y,1/2+z
1/2+x,1/2+y,z
1/2-x,1/2+y,1/2-z
1/2-x,1/2-y,-z
1/2+x,1/2-y,1/2+z
loop_
_atom_site_type_symbol
_atom_site_label
_atom_site_fract_x
_atom_site_fract_y
_atom_site_fract_z
Si Si1 0.194120 0.913855 0.155723
Si Si2 0.597363 0.283398 0.610668
Si Si3 0.000000 0.988405 0.750000
Si Si4 0.238487 0.931472 0.532659
Si Si5 0.507481 0.913996 0.094923
Si Si6 0.000000 0.147091 0.750000
Si Si7 0.561840 0.197061 0.993788
Si Si8 0.000000 0.167670 0.250000
O O1 0.263869 0.915301 0.407782
O O2 0.325684 0.923415 0.227951
O O3 0.065320 0.953842 0.960767
O O4 0.113552 0.865457 0.996234
O O5 0.492885 0.318433 0.373533
O O6 0.528343 0.231028 0.525443
O O7 0.594305 0.302607 0.766989
O O8 0.762533 0.288003 0.771954
O O9 0.866553 0.022431 0.614119
O O10 0.140722 0.888428 0.463430
O O11 0.384931 0.940722 0.829646
O O12 0.500000 0.924388 0.250000
O O13 0.467141 0.858190 0.015986
O O14 0.500000 0.204320 0.750000
#
# Coordination Sequence:
#
# PCOD9300127 Si02
#       8
#     8   8   4   8   8   4   8   4
#     4  11  24  43  70 105 129 176 227 277 339 411
#     4  12  24  42  64  96 138 182 238 284 333 400
#     4  10  26  44  76 102 132 172 222 274 338 414
#     4  11  23  46  70  97 138 173 218 281 337 411
#     4  11  25  44  69  99 140 177 225 278 345 397
#     4  11  24  43  64  96 132 180 224 277 346 389
#     4  11  24  40  65  97 134 183 233 283 333 393
#     4  11  22  39  70  94 136 182 236 279 336 401
#
# _framework density 21.937414
#
# number of rings (size 3 to 8) (size 9 to 14) (size 15 to 20)
#    0.000    0.923    3.846    3.231    2.154    3.692 
#    2.769    0.000    0.000    0.000    0.000    0.000 
#    0.000    0.000    0.000    0.000    0.000    0.000 
#
# Total GULP energy -145428.108092 kJ/mol
# GULP energy per Si atom -5593.388773 kJ/mol
# Density = 2.188748 g / cm^3
# Si number density = 21.937414 Si / 1000 Ang^3
#
#
#
# Elastic Constant Matrix: (Units=GPa)
#
#
# Indices 1 2 3 4 5 6 
#
# 1 63.5737 21.0410 21.5696 0.0000 -5.0502 0.0000
# 2 21.0410 52.5997 19.2134 0.0000 0.6219 0.0000
# 3 21.5696 19.2134 101.5337 0.0000 3.9233 0.0000
# 4 0.0000 0.0000 0.0000 10.6441 0.0000 9.3263
# 5 -5.0502 0.6219 3.9233 0.0000 39.9392 0.0000
# 6 0.0000 0.0000 0.0000 9.3263 0.0000 21.0526
#
#
#
# Elastic Compliance Matrix: (Units=1/GPa)
#
#
# Indices 1 2 3 4 5 6 
#
# 1 0.019135 -0.006621 -0.002921 0.000000 0.002810 0.000000
# 2 -0.006621 0.022714 -0.002857 0.000000 -0.000910 0.000000
# 3 -0.002921 -0.002857 0.011065 0.000000 -0.001412 0.000000
# 4 0.000000 0.000000 0.000000 0.153550 0.000000 -0.068023
# 5 0.002810 -0.000910 -0.001412 0.000000 0.025546 0.000000
# 6 0.000000 0.000000 0.000000 -0.068023 0.000000 0.077634
#
#
# Mechanical properties :
#
#
# Convention : Reuss Voigt Hill
#
# Bulk Modulus (GPa) = 35.56481 37.92833 36.74657
# Shear Modulus (GPa) = 14.54279 24.71940 19.63110
#
# Velocity S-wave (km/s) = 2.57752 3.36045 2.99468
# Velocity P-wave (km/s) = 5.01052 5.69067 5.36139
#
# Compressibility (1/GPa) = 0.02811768
#
# Stress axis : x y z
#
# Youngs Moduli (GPa) = 52.25965 44.02532 90.37893
#
# Poissons Ratio (x) = 0.29148 0.26397
# Poissons Ratio (y) = 0.34600 0.25817
# Poissons Ratio (z) = 0.15264 0.12576
#
# Static dielectric constant tensor:
#      x y z
#    x 1.770830 0.000000 0.002950 
#    y 0.000000 1.822860 0.000000 
#    z 0.002950 0.000000 1.805930 
# 
# From -- ./inp_files/44958.got.cif
#   From: 2010.05.17/outbox.cif.g08.bks.cpg/sg15_23_cif.got.tgz:44958.got - 2010.06.03 18:47:42.
