data_PCOD9300436
_publ_section_title
;
Structure prediction by ZEFSAII (Michael W. Deem and Ramdas Pophale) SiO2 
 PCOD9300436
Probable space group: C 2/C
;
_chemical_formula_sum "Si O2"
_cell_formula_units_Z 32
_cell_length_a 14.536608
_cell_length_b 8.588611
_cell_length_c 9.181400
_cell_angle_alpha 90.000000
_cell_angle_beta 95.025044
_cell_angle_gamma 90.000000
_cell_volume 1141.885339
_symmetry_space_group_name_H-M "C 2/C"
_symmetry_group_IT_number 15
_symmetry_cell_setting 'monoclinic'
loop_
_space_group_symop_operation_xyz
x,y,z
-x,y,1/2-z
-x,-y,-z
x,-y,1/2+z
1/2+x,1/2+y,z
1/2-x,1/2+y,1/2-z
1/2-x,1/2-y,-z
1/2+x,1/2-y,1/2+z
loop_
_atom_site_type_symbol
_atom_site_label
_atom_site_fract_x
_atom_site_fract_y
_atom_site_fract_z
Si Si1 0.616551 0.539551 0.846743
Si Si2 0.983256 0.757823 0.517081
Si Si3 0.093389 0.496027 0.179139
Si Si4 0.761031 0.914368 0.413370
O O1 0.570942 0.371228 0.879181
O O2 0.653048 0.581188 0.691519
O O3 0.538078 0.649368 0.900722
O O4 0.708314 0.538049 0.960112
O O5 0.067519 0.668056 0.605516
O O6 0.912909 0.626899 0.446315
O O7 0.177558 0.477455 0.301364
O O8 0.000000 0.536710 0.250000
O O9 0.750000 0.750000 0.500000
#
# Coordination Sequence:
#
# PCOD9300436 Si02
#       4
#     8   8   8   8
#     4  11  29  53  86 122 172 227 302 366 442 543
#     4  10  27  52  84 128 171 235 288 368 453 530
#     4  11  27  50  83 124 178 228 289 362 447 536
#     4  12  31  53  84 128 176 231 298 373 447 533
#
# _framework density 28.023828999999999
#
# number of rings (size 3 to 8) (size 9 to 14) (size 15 to 20)
#    0.000    1.000    0.000    1.500   21.000    3.000 
#    0.000    0.000    0.000    0.000    0.000    0.000 
#    0.000    0.000    0.000    0.000    0.000    0.000 
#
# Total GULP energy -89619.907691 kJ/mol
# GULP energy per Si atom -5601.244231 kJ/mol
# Density = 2.796005 g / cm^3
# Si number density = 28.023829 Si / 1000 Ang^3
#
#
#
# Elastic Constant Matrix: (Units=GPa)
#
#
# Indices 1 2 3 4 5 6 
#
# 1 179.7694 43.7828 68.2297 0.0000 29.6761 0.0000
# 2 43.7828 144.4164 80.6108 0.0000 -1.0255 0.0000
# 3 68.2297 80.6108 203.4898 0.0000 -5.5799 0.0000
# 4 0.0000 0.0000 0.0000 44.8798 0.0000 2.3239
# 5 29.6761 -1.0255 -5.5799 0.0000 78.0748 0.0000
# 6 0.0000 0.0000 0.0000 2.3239 0.0000 30.4522
#
#
#
# Elastic Compliance Matrix: (Units=1/GPa)
#
#
# Indices 1 2 3 4 5 6 
#
# 1 0.007054 -0.001021 -0.002039 0.000000 -0.002840 0.000000
# 2 -0.001021 0.009039 -0.003231 0.000000 0.000276 0.000000
# 3 -0.002039 -0.003231 0.006911 0.000000 0.001226 0.000000
# 4 0.000000 0.000000 0.000000 0.022370 0.000000 -0.001707
# 5 -0.002840 0.000276 0.001226 0.000000 0.013979 0.000000
# 6 0.000000 0.000000 0.000000 -0.001707 0.000000 0.032969
#
#
# Mechanical properties :
#
#
# Convention : Reuss Voigt Hill
#
# Bulk Modulus (GPa) = 95.93516 101.43582 98.68549
# Shear Modulus (GPa) = 46.13481 53.01819 49.57650
#
# Velocity S-wave (km/s) = 4.06183 4.35431 4.21061
# Velocity P-wave (km/s) = 7.50371 7.84569 7.67661
#
# Compressibility (1/GPa) = 0.01042371
#
# Stress axis : x y z
#
# Youngs Moduli (GPa) = 141.76511 110.62734 144.68836
#
# Poissons Ratio (x) = 0.11292 0.29497
# Poissons Ratio (y) = 0.14471 0.46750
# Poissons Ratio (z) = 0.28902 0.35744
#
# Static dielectric constant tensor:
#      x y z
#    x 2.294380 0.000000 -0.059030 
#    y 0.000000 2.256580 0.000000 
#    z -0.059030 0.000000 2.279640 
# 
# From -- ./inp_files/140981.got.cif
#   From: 2010.05.17/outbox.cif.g08.bks.cpg/sg15_71_cif.got.tgz:140981.got - 2010.06.03 18:47:42.
