data_PCOD9300137
_publ_section_title
;
Structure prediction by ZEFSAII (Michael W. Deem and Ramdas Pophale) SiO2 
 PCOD9300137
Probable space group: C 2/C
;
_chemical_formula_sum "Si O2"
_cell_formula_units_Z 44
_cell_length_a 10.429571
_cell_length_b 22.150186
_cell_length_c 8.149227
_cell_angle_alpha 90.000000
_cell_angle_beta 104.417024
_cell_angle_gamma 90.000000
_cell_volume 1823.324637
_symmetry_space_group_name_H-M "C 2/C"
_symmetry_group_IT_number 15
_symmetry_cell_setting 'monoclinic'
loop_
_space_group_symop_operation_xyz
x,y,z
-x,y,1/2-z
-x,-y,-z
x,-y,1/2+z
1/2+x,1/2+y,z
1/2-x,1/2+y,1/2-z
1/2-x,1/2-y,-z
1/2+x,1/2-y,1/2+z
loop_
_atom_site_type_symbol
_atom_site_label
_atom_site_fract_x
_atom_site_fract_y
_atom_site_fract_z
Si Si1 0.000000 0.223150 0.250000
Si Si2 0.284232 0.420800 0.231116
Si Si3 0.866236 0.408406 0.642660
Si Si4 0.108297 0.276923 0.993870
Si Si5 0.500000 0.519693 0.250000
Si Si6 0.311239 0.386398 0.588418
Si Si7 0.000000 0.179839 0.750000
O O1 0.112581 0.176835 0.357889
O O2 0.912295 0.270865 0.322652
O O3 0.382601 0.477626 0.275493
O O4 0.231546 0.399337 0.393448
O O5 0.374493 0.363672 0.204727
O O6 0.194178 0.435743 0.043819
O O7 0.904846 0.341404 0.590761
O O8 0.768316 0.400853 0.768325
O O9 0.000000 0.439234 0.750000
O O10 0.003008 0.227297 0.898034
O O11 0.250000 0.250000 0.000000
O O12 0.567439 0.566440 0.394990
#
# Coordination Sequence:
#
# PCOD9300137 Si02
#       7
#     4   8   8   8   4   8   4
#     4  11  22  39  70 108 140 185 238 291 358 412
#     4  11  24  43  73 105 138 173 235 298 355 410
#     4  12  28  46  65  99 151 190 233 286 346 430
#     4  12  22  40  63 100 147 185 228 290 347 413
#     4  10  26  44  80 118 128 166 238 314 358 412
#     4  11  24  44  73 105 140 177 235 296 361 414
#     4  11  20  39  64 100 138 171 230 295 332 406
#
# _framework density 24.131741000000002
#
# number of rings (size 3 to 8) (size 9 to 14) (size 15 to 20)
#    0.000    0.727    6.364    0.545   10.182    2.182 
#    0.000    4.545    0.000    0.000    0.000    0.000 
#    0.000    0.000    0.000    0.000    0.000    0.000 
#
# Total GULP energy -122668.789063 kJ/mol
# GULP energy per Si atom -5575.854048 kJ/mol
# Density = 2.407682 g / cm^3
# Si number density = 24.131741 Si / 1000 Ang^3
#
#
#
# Elastic Constant Matrix: (Units=GPa)
#
#
# Indices 1 2 3 4 5 6 
#
# 1 85.1636 5.2907 63.4067 0.0000 -11.4706 0.0000
# 2 5.2907 79.0182 15.0106 0.0000 -8.0975 0.0000
# 3 63.4067 15.0106 153.0124 0.0000 -4.8589 0.0000
# 4 0.0000 0.0000 0.0000 24.7954 0.0000 -10.2131
# 5 -11.4706 -8.0975 -4.8589 0.0000 40.9809 0.0000
# 6 0.0000 0.0000 0.0000 -10.2131 0.0000 13.0766
#
#
#
# Elastic Compliance Matrix: (Units=1/GPa)
#
#
# Indices 1 2 3 4 5 6 
#
# 1 0.017667 0.000625 -0.007249 0.000000 0.004209 0.000000
# 2 0.000625 0.013159 -0.001467 0.000000 0.002601 0.000000
# 3 -0.007249 -0.001467 0.009646 0.000000 -0.001175 0.000000
# 4 0.000000 0.000000 0.000000 0.059457 0.000000 0.046438
# 5 0.004209 0.002601 -0.001175 0.000000 0.025954 0.000000
# 6 0.000000 0.000000 0.000000 0.046438 0.000000 0.112741
#
#
# Mechanical properties :
#
#
# Convention : Reuss Voigt Hill
#
# Bulk Modulus (GPa) = 41.16894 53.84558 47.50726
# Shear Modulus (GPa) = 19.01844 31.33633 25.17738
#
# Velocity S-wave (km/s) = 2.81037 3.60745 3.23357
# Velocity P-wave (km/s) = 5.25624 6.30184 5.80264
#
# Compressibility (1/GPa) = 0.02429016
#
# Stress axis : x y z
#
# Youngs Moduli (GPa) = 56.60249 75.99501 103.67142
#
# Poissons Ratio (x) = -0.04753 0.75149
# Poissons Ratio (y) = -0.03540 0.15213
# Poissons Ratio (z) = 0.41030 0.11152
#
# Static dielectric constant tensor:
#      x y z
#    x 1.924870 0.000000 -0.056130 
#    y 0.000000 1.846950 0.000000 
#    z -0.056130 0.000000 2.516130 
# 
# From -- ./inp_files/32257.got.cif
#   From: 2010.05.17/outbox.cif.g08.bks.cpg/sg15_17_cif.got.tgz:32257.got - 2010.06.03 18:47:42.
