data_PCOD9300449
_publ_section_title
;
Structure prediction by ZEFSAII (Michael W. Deem and Ramdas Pophale) SiO2 
 PCOD9300449
Probable space group: C 2/C
;
_chemical_formula_sum "Si O2"
_cell_formula_units_Z 36
_cell_length_a 9.222155
_cell_length_b 9.976388
_cell_length_c 18.286236
_cell_angle_alpha 90.000000
_cell_angle_beta 86.216188
_cell_angle_gamma 90.000000
_cell_volume 1678.735754
_symmetry_space_group_name_H-M "C 2/C"
_symmetry_group_IT_number 15
_symmetry_cell_setting 'monoclinic'
loop_
_space_group_symop_operation_xyz
x,y,z
-x,y,1/2-z
-x,-y,-z
x,-y,1/2+z
1/2+x,1/2+y,z
1/2-x,1/2+y,1/2-z
1/2-x,1/2-y,-z
1/2+x,1/2-y,1/2+z
loop_
_atom_site_type_symbol
_atom_site_label
_atom_site_fract_x
_atom_site_fract_y
_atom_site_fract_z
Si Si1 0.000000 0.631268 0.250000
Si Si2 0.998655 0.094926 0.426836
Si Si3 0.279989 0.973672 0.640362
Si Si4 0.028078 0.654744 0.481194
Si Si5 0.715446 0.771795 0.619859
O O1 0.879783 0.547794 0.208182
O O2 0.896545 0.712884 0.309045
O O3 0.941978 0.240006 0.456542
O O4 0.160855 0.115067 0.390488
O O5 0.892674 0.046033 0.365577
O O6 0.000000 0.000000 0.500000
O O7 0.294963 0.129353 0.618833
O O8 0.346191 0.864228 0.582469
O O9 0.000000 0.500000 0.500000
O O10 0.885953 0.713662 0.447004
#
# Coordination Sequence:
#
# PCOD9300449 Si02
#       5
#     4   8   8   8   8
#     4  10  28  46  64  90 134 190 232 270 328 396
#     4  12  23  40  73 106 135 171 218 280 349 399
#     4  11  24  44  67  98 134 181 222 279 328 404
#     4  11  21  42  69 102 142 169 209 277 349 400
#     4  11  24  45  66  98 138 175 227 281 324 405
#
# _framework density 21.444707999999999
#
# number of rings (size 3 to 8) (size 9 to 14) (size 15 to 20)
#    0.000    0.889    4.444    2.667    0.000    4.444 
#    0.000    0.000    0.000    0.000    0.000    0.000 
#    0.000    0.000    0.000    0.000    0.000    0.000 
#
# Total GULP energy -100325.179709 kJ/mol
# GULP energy per Si atom -5573.621095 kJ/mol
# Density = 2.139590 g / cm^3
# Si number density = 21.444708 Si / 1000 Ang^3
#
#
#
# Elastic Constant Matrix: (Units=GPa)
#
#
# Indices 1 2 3 4 5 6 
#
# 1 145.7702 24.9239 50.4277 0.0000 14.8897 0.0000
# 2 24.9239 109.2251 36.2121 0.0000 10.5472 0.0000
# 3 50.4277 36.2121 76.5951 0.0000 11.2698 0.0000
# 4 0.0000 0.0000 0.0000 21.4047 0.0000 6.3979
# 5 14.8897 10.5472 11.2698 0.0000 49.9917 0.0000
# 6 0.0000 0.0000 0.0000 6.3979 0.0000 36.8008
#
#
#
# Elastic Compliance Matrix: (Units=1/GPa)
#
#
# Indices 1 2 3 4 5 6 
#
# 1 0.008975 -0.000027 -0.005693 0.000000 -0.001384 0.000000
# 2 -0.000027 0.010924 -0.004974 0.000000 -0.001175 0.000000
# 3 -0.005693 -0.004974 0.019394 0.000000 -0.001627 0.000000
# 4 0.000000 0.000000 0.000000 0.049279 0.000000 -0.008567
# 5 -0.001384 -0.001175 -0.001627 0.000000 0.021030 0.000000
# 6 0.000000 0.000000 0.000000 -0.008567 0.000000 0.028663
#
#
# Mechanical properties :
#
#
# Convention : Reuss Voigt Hill
#
# Bulk Modulus (GPa) = 55.84467 61.63532 58.73999
# Shear Modulus (GPa) = 30.18909 36.30788 33.24848
#
# Velocity S-wave (km/s) = 3.75609 4.11918 3.94182
# Velocity P-wave (km/s) = 6.70140 7.17130 6.94032
#
# Compressibility (1/GPa) = 0.01790681
#
# Stress axis : x y z
#
# Youngs Moduli (GPa) = 111.41484 91.54074 51.56111
#
# Poissons Ratio (x) = 0.00248 0.29352
# Poissons Ratio (y) = 0.00302 0.25646
# Poissons Ratio (z) = 0.63425 0.45531
#
# Static dielectric constant tensor:
#      x y z
#    x 1.896560 0.000000 -0.032320 
#    y 0.000000 1.781110 0.000000 
#    z -0.032320 0.000000 1.845600 
# 
# From -- ./inp_files/229324.got.cif
#   From: 2010.05.17/outbox.cif.g08.bks.cpg/sg15_115_cif.got.tgz:229324.got - 2010.06.03 18:47:42.
