data_PCOD9300135
_publ_section_title
;
Structure prediction by ZEFSAII (Michael W. Deem and Ramdas Pophale) SiO2 
 PCOD9300135
Probable space group: C 2/C
;
_chemical_formula_sum "Si O2"
_cell_formula_units_Z 28
_cell_length_a 27.057609
_cell_length_b 7.696916
_cell_length_c 9.399786
_cell_angle_alpha 90.000000
_cell_angle_beta 143.470247
_cell_angle_gamma 90.000000
_cell_volume 1165.242563
_symmetry_space_group_name_H-M "C 2/C"
_symmetry_group_IT_number 15
_symmetry_cell_setting 'monoclinic'
loop_
_space_group_symop_operation_xyz
x,y,z
-x,y,1/2-z
-x,-y,-z
x,-y,1/2+z
1/2+x,1/2+y,z
1/2-x,1/2+y,1/2-z
1/2-x,1/2-y,-z
1/2+x,1/2-y,1/2+z
loop_
_atom_site_type_symbol
_atom_site_label
_atom_site_fract_x
_atom_site_fract_y
_atom_site_fract_z
Si Si1 0.786501 0.706416 0.431157
Si Si2 0.643014 0.180380 0.396184
Si Si3 0.089572 0.149999 0.487516
Si Si4 0.500000 0.314154 0.250000
O O1 0.750000 0.750000 0.500000
O O2 0.828171 0.517975 0.534845
O O3 0.855566 0.835922 0.526668
O O4 0.711131 0.716727 0.145330
O O5 0.553534 0.205376 0.263603
O O6 0.636092 0.255524 0.222252
O O7 0.000000 0.235847 0.250000
O O8 0.063949 0.952937 0.468522
#
# Coordination Sequence:
#
# PCOD9300135 Si02
#       4
#     8   8   8   4
#     4  12  28  48  78 115 153 198 251 311 382 450
#     4  12  26  49  78 110 154 197 253 312 376 456
#     4  10  26  49  77 107 154 198 256 309 385 435
#     4  10  26  44  80 110 150 198 256 312 378 436
#
# _framework density 24.029332
#
# number of rings (size 3 to 8) (size 9 to 14) (size 15 to 20)
#    0.857    0.000    0.000    5.143    6.000    5.714 
#    0.000    0.000    0.000    0.000    0.000    0.000 
#    0.000    0.000    0.000    0.000    0.000    0.000 
#
# Total GULP energy -78435.493437 kJ/mol
# GULP energy per Si atom -5602.535246 kJ/mol
# Density = 2.397464 g / cm^3
# Si number density = 24.029332 Si / 1000 Ang^3
#
#
#
# Elastic Constant Matrix: (Units=GPa)
#
#
# Indices 1 2 3 4 5 6 
#
# 1 234.2316 76.0188 72.1095 0.0000 11.9208 0.0000
# 2 76.0188 156.0282 36.5242 0.0000 7.6961 0.0000
# 3 72.1095 36.5242 135.9173 0.0000 -12.2264 0.0000
# 4 0.0000 0.0000 0.0000 -14.4985 0.0000 14.6068
# 5 11.9208 7.6961 -12.2264 0.0000 38.9214 0.0000
# 6 0.0000 0.0000 0.0000 14.6068 0.0000 45.3332
#
#
#
# Elastic Compliance Matrix: (Units=1/GPa)
#
#
# Indices 1 2 3 4 5 6 
#
# 1 0.005931 -0.002127 -0.002779 0.000000 -0.002269 0.000000
# 2 -0.002127 0.007755 -0.001065 0.000000 -0.001216 0.000000
# 3 -0.002779 -0.001065 0.009481 0.000000 0.004040 0.000000
# 4 0.000000 0.000000 0.000000 -0.052070 0.000000 0.016777
# 5 -0.002269 -0.001216 0.004040 0.000000 0.027897 0.000000
# 6 0.000000 0.000000 0.000000 0.016777 0.000000 0.016653
#
#
# Mechanical properties :
#
#
# Convention : Reuss Voigt Hill
#
# Bulk Modulus (GPa) = 89.08651 99.49801 94.29226
# Shear Modulus (GPa) = 159.59075 36.71952 98.15514
#
# Velocity S-wave (km/s) = 8.15838 3.91335 6.39818
# Velocity P-wave (km/s) = 11.22052 7.86866 9.69061
#
# Compressibility (1/GPa) = 0.01122504
#
# Stress axis : x y z
#
# Youngs Moduli (GPa) = 168.61811 128.95455 105.47082
#
# Poissons Ratio (x) = 0.27429 0.29309
# Poissons Ratio (y) = 0.35866 0.11231
# Poissons Ratio (z) = 0.46857 0.13731
#
# Static dielectric constant tensor:
#      x y z
#    x 1.891360 0.000000 0.021580 
#    y 0.000000 1.925620 0.000000 
#    z 0.021580 0.000000 1.846140 
# 
# From -- ./inp_files/45458.got.cif
#   From: 2010.05.17/outbox.cif.g08.bks.cpg/sg15_23_cif.got.tgz:45458.got - 2010.06.03 18:47:42.
