data_PCOD9300603
_publ_section_title
;
Structure prediction by ZEFSAII (Michael W. Deem and Ramdas Pophale) SiO2 
 PCOD9300603
Probable space group: C 2/C
;
_chemical_formula_sum "Si O2"
_cell_formula_units_Z 56
_cell_length_a 21.444811
_cell_length_b 10.012235
_cell_length_c 12.298974
_cell_angle_alpha 90.000000
_cell_angle_beta 108.106045
_cell_angle_gamma 90.000000
_cell_volume 2509.958096
_symmetry_space_group_name_H-M "C 2/C"
_symmetry_group_IT_number 15
_symmetry_cell_setting 'monoclinic'
loop_
_space_group_symop_operation_xyz
x,y,z
-x,y,1/2-z
-x,-y,-z
x,-y,1/2+z
1/2+x,1/2+y,z
1/2-x,1/2+y,1/2-z
1/2-x,1/2-y,-z
1/2+x,1/2-y,1/2+z
loop_
_atom_site_type_symbol
_atom_site_label
_atom_site_fract_x
_atom_site_fract_y
_atom_site_fract_z
Si Si1 0.977903 0.035241 0.114584
Si Si2 0.841086 0.857120 0.531369
Si Si3 0.901640 0.544236 0.030628
Si Si4 0.759304 0.517198 0.364546
Si Si5 0.864097 0.396512 0.196901
Si Si6 0.981766 0.670240 0.917057
Si Si7 0.770549 0.792756 0.279364
O O1 0.899020 0.036370 0.070174
O O2 0.000000 0.984019 0.250000
O O3 0.000522 0.189078 0.122821
O O4 0.000000 0.000000 0.000000
O O5 0.774664 0.911272 0.550431
O O6 0.862862 0.727587 0.611718
O O7 0.825759 0.815684 0.399942
O O8 0.834730 0.515905 0.929915
O O9 0.942791 0.671098 0.011161
O O10 0.875642 0.533675 0.138880
O O11 0.955143 0.425580 0.043038
O O12 0.755398 0.635446 0.271344
O O13 0.717805 0.382684 0.319586
O O14 0.926237 0.388112 0.308358
O O15 0.795170 0.370669 0.216994
#
# Coordination Sequence:
#
# PCOD9300603 Si02
#       7
#     8   8   8   8   8   8   8
#     4  12  26  46  69  96 133 182 233 282 348 427
#     4  11  22  41  66  87 128 177 227 268 337 428
#     4  11  20  37  63  97 124 162 223 281 332 407
#     4  11  22  40  63  97 128 174 224 272 345 411
#     4  11  18  38  64  94 124 172 226 273 340 421
#     4  11  22  38  67  94 130 174 222 284 351 410
#     4  11  22  37  65  93 131 172 220 283 337 417
#
# _framework density 22.311129999999999
#
# number of rings (size 3 to 8) (size 9 to 14) (size 15 to 20)
#    0.000    0.857    7.143    1.286    2.000    0.000 
#    0.000    5.000    0.000    0.000    0.000    0.000 
#    0.000    0.000    0.000    0.000    0.000    0.000 
#
# Total GULP energy -155884.831370 kJ/mol
# GULP energy per Si atom -5567.315406 kJ/mol
# Density = 2.226035 g / cm^3
# Si number density = 22.311130 Si / 1000 Ang^3
#
#
#
# Elastic Constant Matrix: (Units=GPa)
#
#
# Indices 1 2 3 4 5 6 
#
# 1 94.9353 -1.5551 14.2375 0.0000 12.4278 0.0000
# 2 -1.5551 29.9382 3.7676 0.0000 -0.2549 0.0000
# 3 14.2375 3.7676 86.0666 0.0000 20.3870 0.0000
# 4 0.0000 0.0000 0.0000 30.6998 0.0000 -12.5762
# 5 12.4278 -0.2549 20.3870 0.0000 29.4144 0.0000
# 6 0.0000 0.0000 0.0000 -12.5762 0.0000 31.0279
#
#
#
# Elastic Compliance Matrix: (Units=1/GPa)
#
#
# Indices 1 2 3 4 5 6 
#
# 1 0.011218 0.000663 -0.000913 0.000000 -0.004101 0.000000
# 2 0.000663 0.033687 -0.001899 0.000000 0.001328 0.000000
# 3 -0.000913 -0.001899 0.014077 0.000000 -0.009387 0.000000
# 4 0.000000 0.000000 0.000000 0.039059 0.000000 0.015831
# 5 -0.004101 0.001328 -0.009387 0.000000 0.042247 0.000000
# 6 0.000000 0.000000 0.000000 0.015831 0.000000 0.038646
#
#
# Mechanical properties :
#
#
# Convention : Reuss Voigt Hill
#
# Bulk Modulus (GPa) = 18.28728 27.09333 22.69031
# Shear Modulus (GPa) = 24.81883 31.19445 28.00664
#
# Velocity S-wave (km/s) = 3.33888 3.74325 3.54683
# Velocity P-wave (km/s) = 4.80400 5.55449 5.19282
#
# Compressibility (1/GPa) = 0.05468281
#
# Stress axis : x y z
#
# Youngs Moduli (GPa) = 89.14114 29.68523 71.03944
#
# Poissons Ratio (x) = -0.01967 0.06488
# Poissons Ratio (y) = -0.05908 0.13489
# Poissons Ratio (z) = 0.08142 0.05637
#
# Static dielectric constant tensor:
#      x y z
#    x 1.908350 0.000000 -0.129370 
#    y 0.000000 1.869110 0.000000 
#    z -0.129370 0.000000 1.966590 
# 
# From -- ./inp_files/117653.got.cif
#   From: 2010.05.17/outbox.cif.g08.bks.cpg/sg15_59_cif.got.tgz:117653.got - 2010.06.03 18:47:42.
