data_PCOD9300628
_publ_section_title
;
Structure prediction by ZEFSAII (Michael W. Deem and Ramdas Pophale) SiO2 
 PCOD9300628
Probable space group: C 2/C
;
_chemical_formula_sum "Si O2"
_cell_formula_units_Z 48
_cell_length_a 7.274430
_cell_length_b 21.844759
_cell_length_c 14.923021
_cell_angle_alpha 90.000000
_cell_angle_beta 120.529024
_cell_angle_gamma 90.000000
_cell_volume 2042.648793
_symmetry_space_group_name_H-M "C 2/C"
_symmetry_group_IT_number 15
_symmetry_cell_setting 'monoclinic'
loop_
_space_group_symop_operation_xyz
x,y,z
-x,y,1/2-z
-x,-y,-z
x,-y,1/2+z
1/2+x,1/2+y,z
1/2-x,1/2+y,1/2-z
1/2-x,1/2-y,-z
1/2+x,1/2-y,1/2+z
loop_
_atom_site_type_symbol
_atom_site_label
_atom_site_fract_x
_atom_site_fract_y
_atom_site_fract_z
Si Si1 0.466902 0.674834 0.847708
Si Si2 0.071540 0.797626 0.558469
Si Si3 0.743863 0.699361 0.283467
Si Si4 0.103370 0.336998 0.499408
Si Si5 0.736806 0.052306 0.809940
Si Si6 0.492588 0.032671 0.904673
O O1 0.500000 0.679570 0.750000
O O2 0.628724 0.689387 0.969385
O O3 0.297513 0.729870 0.819775
O O4 0.405866 0.604739 0.848852
O O5 0.008188 0.726428 0.555699
O O6 0.848424 0.833191 0.523422
O O7 0.247253 0.811731 0.677623
O O8 0.500000 0.688688 0.250000
O O9 0.879381 0.660825 0.388299
O O10 0.990669 0.395542 0.429922
O O11 0.500000 0.085015 0.750000
O O12 0.702537 0.018099 0.895158
O O13 0.707936 0.016314 0.709741
O O14 0.500000 0.000000 0.000000
#
# Coordination Sequence:
#
# PCOD9300628 Si02
#       6
#     8   8   8   8   8   8
#     4  11  19  29  49  74 110 142 167 207 261 316
#     4   9  16  29  47  74 110 136 166 208 256 323
#     4   9  18  28  49  75 107 140 172 204 256 319
#     4   9  15  27  51  78 101 132 169 214 262 308
#     4   8  18  32  55  76  94 124 181 217 249 315
#     4   9  17  31  58  78  94 126 177 230 253 298
#
# _framework density 23.498899999999999
#
# number of rings (size 3 to 8) (size 9 to 14) (size 15 to 20)
#    1.000    1.667    1.667    2.500    0.000    0.667 
#    0.000    0.000   22.000    4.000    0.000    0.000 
#    0.000    0.000    0.000    0.000    0.000    0.000 
#
# Total GULP energy -133658.576738 kJ/mol
# GULP energy per Si atom -5569.107364 kJ/mol
# Density = 2.344542 g / cm^3
# Si number density = 23.498900 Si / 1000 Ang^3
#
#
#
# Elastic Constant Matrix: (Units=GPa)
#
#
# Indices 1 2 3 4 5 6 
#
# 1 42.1261 -5.6036 24.2088 0.0000 -1.0104 0.0000
# 2 -5.6036 14.2052 14.1848 0.0000 -14.5225 0.0000
# 3 24.2088 14.1848 233.2562 0.0000 -28.1380 0.0000
# 4 0.0000 0.0000 0.0000 35.4307 0.0000 -4.7099
# 5 -1.0104 -14.5225 -28.1380 0.0000 25.3370 0.0000
# 6 0.0000 0.0000 0.0000 -4.7099 0.0000 10.5505
#
#
#
# Elastic Compliance Matrix: (Units=1/GPa)
#
#
# Indices 1 2 3 4 5 6 
#
# 1 0.029952 0.030452 -0.003130 0.000000 0.015173 0.000000
# 2 0.030452 0.201534 -0.001542 0.000000 0.115016 0.000000
# 3 -0.003130 -0.001542 0.005293 0.000000 0.004870 0.000000
# 4 0.000000 0.000000 0.000000 0.030005 0.000000 0.013395
# 5 0.015173 0.115016 0.004870 0.000000 0.111405 0.000000
# 6 0.000000 0.000000 0.000000 0.013395 0.000000 0.100762
#
#
# Mechanical properties :
#
#
# Convention : Reuss Voigt Hill
#
# Bulk Modulus (GPa) = 3.46813 39.46305 21.46559
# Shear Modulus (GPa) = 9.55105 31.38347 20.46726
#
# Velocity S-wave (km/s) = 2.01824 3.65845 2.95445
# Velocity P-wave (km/s) = 2.62871 5.88861 4.55993
#
# Compressibility (1/GPa) = 0.28834004
#
# Stress axis : x y z
#
# Youngs Moduli (GPa) = 33.38703 4.96194 188.92113
#
# Poissons Ratio (x) = -0.15110 0.59135
# Poissons Ratio (y) = -1.01672 0.29127
# Poissons Ratio (z) = 0.10451 0.00765
#
# Static dielectric constant tensor:
#      x y z
#    x 2.003590 0.000000 -0.079590 
#    y 0.000000 1.832310 0.000000 
#    z -0.079590 0.000000 2.093420 
# 
# From -- ./inp_files/90115.got.cif
#   From: 2010.05.17/outbox.cif.g08.bks.cpg/sg15_46_cif.got.tgz:90115.got - 2010.06.03 18:47:42.
