data_PCOD9300220
_publ_section_title
;
Structure prediction by ZEFSAII (Michael W. Deem and Ramdas Pophale) SiO2 
 PCOD9300220
Probable space group: C 2/C
;
_chemical_formula_sum "Si O2"
_cell_formula_units_Z 56
_cell_length_a 9.108411
_cell_length_b 14.179355
_cell_length_c 21.686108
_cell_angle_alpha 90.000000
_cell_angle_beta 124.690269
_cell_angle_gamma 90.000000
_cell_volume 2302.924441
_symmetry_space_group_name_H-M "C 2/C"
_symmetry_group_IT_number 15
_symmetry_cell_setting 'monoclinic'
loop_
_space_group_symop_operation_xyz
x,y,z
-x,y,1/2-z
-x,-y,-z
x,-y,1/2+z
1/2+x,1/2+y,z
1/2-x,1/2+y,1/2-z
1/2-x,1/2-y,-z
1/2+x,1/2-y,1/2+z
loop_
_atom_site_type_symbol
_atom_site_label
_atom_site_fract_x
_atom_site_fract_y
_atom_site_fract_z
Si Si1 0.265200 0.020501 0.589214
Si Si2 0.678324 0.664617 0.663391
Si Si3 0.240215 0.785135 0.426882
Si Si4 0.624340 0.342468 0.839510
Si Si5 0.504394 0.647100 0.450303
Si Si6 0.099731 0.510254 0.588359
Si Si7 0.689047 0.670023 0.803936
O O1 0.253455 0.069069 0.652614
O O2 0.461218 0.002271 0.610494
O O3 0.179065 0.096795 0.521007
O O4 0.147568 0.926766 0.563708
O O5 0.462269 0.661065 0.611189
O O6 0.755912 0.749966 0.642127
O O7 0.755572 0.678860 0.751440
O O8 0.250000 0.750000 0.500000
O O9 0.451803 0.748609 0.463950
O O10 0.166547 0.739504 0.341934
O O11 0.500000 0.349724 0.750000
O O12 0.526889 0.343150 0.882179
O O13 0.752100 0.432407 0.870639
O O14 0.199331 0.612218 0.616715
O O15 0.000000 0.500000 0.500000
O O16 0.500000 0.620121 0.750000
#
# Coordination Sequence:
#
# PCOD9300220 Si02
#       7
#     8   8   8   8   8   8   8
#     4  11  26  43  72 106 149 189 245 303 373 430
#     4  11  26  48  71 107 146 196 244 306 368 440
#     4  11  23  42  76 102 145 194 241 299 365 435
#     4  12  28  47  73 104 148 189 248 302 371 440
#     4  11  25  45  69 110 145 189 244 305 360 444
#     4  12  27  46  75 107 143 191 247 304 368 445
#     4  10  26  46  74 106 147 190 244 301 371 429
#
# _framework density 24.316907
#
# number of rings (size 3 to 8) (size 9 to 14) (size 15 to 20)
#    0.000    0.857    2.857    2.143   14.000    0.571 
#    0.000    1.429    0.000    0.000    0.000    0.000 
#    0.000    0.000    0.000    0.000    0.000    0.000 
#
# Total GULP energy -155881.306883 kJ/mol
# GULP energy per Si atom -5567.189532 kJ/mol
# Density = 2.426156 g / cm^3
# Si number density = 24.316907 Si / 1000 Ang^3
#
#
#
# Elastic Constant Matrix: (Units=GPa)
#
#
# Indices 1 2 3 4 5 6 
#
# 1 174.2769 24.6523 37.7496 0.0000 -23.7547 0.0000
# 2 24.6523 84.4327 18.7720 0.0000 5.5285 0.0000
# 3 37.7496 18.7720 164.5440 0.0000 -34.6142 0.0000
# 4 0.0000 0.0000 0.0000 38.2898 0.0000 4.8096
# 5 -23.7547 5.5285 -34.6142 0.0000 44.5607 0.0000
# 6 0.0000 0.0000 0.0000 4.8096 0.0000 37.5406
#
#
#
# Elastic Compliance Matrix: (Units=1/GPa)
#
#
# Indices 1 2 3 4 5 6 
#
# 1 0.006602 -0.002014 -0.000588 0.000000 0.003312 0.000000
# 2 -0.002014 0.013133 -0.001918 0.000000 -0.004193 0.000000
# 3 -0.000588 -0.001918 0.007668 0.000000 0.005881 0.000000
# 4 0.000000 0.000000 0.000000 0.026544 0.000000 -0.003401
# 5 0.003312 -0.004193 0.005881 0.000000 0.029296 0.000000
# 6 0.000000 0.000000 0.000000 -0.003401 0.000000 0.027073
#
#
# Mechanical properties :
#
#
# Convention : Reuss Voigt Hill
#
# Bulk Modulus (GPa) = 54.45811 65.06683 59.76247
# Shear Modulus (GPa) = 39.84803 46.88354 43.36578
#
# Velocity S-wave (km/s) = 4.05247 4.39569 4.22757
# Velocity P-wave (km/s) = 6.65887 7.25112 6.96129
#
# Compressibility (1/GPa) = 0.01836274
#
# Stress axis : x y z
#
# Youngs Moduli (GPa) = 151.47629 76.14553 130.40608
#
# Poissons Ratio (x) = 0.15333 0.07668
# Poissons Ratio (y) = 0.30502 0.25016
# Poissons Ratio (z) = 0.08907 0.14607
#
# Static dielectric constant tensor:
#      x y z
#    x 2.059360 0.000000 0.035330 
#    y 0.000000 2.016900 0.000000 
#    z 0.035330 0.000000 2.009150 
# 
# From -- ./inp_files/264798.got.cif
#   From: 2010.05.17/outbox.cif.g08.bks.cpg/sg15_133_cif.got.tgz:264798.got - 2010.06.03 18:47:42.
