data_PCOD9300442
_publ_section_title
;
Structure prediction by ZEFSAII (Michael W. Deem and Ramdas Pophale) SiO2 
 PCOD9300442
Probable space group: C 2/C
;
_chemical_formula_sum "Si O2"
_cell_formula_units_Z 44
_cell_length_a 14.465266
_cell_length_b 20.857157
_cell_length_c 14.400070
_cell_angle_alpha 90.000000
_cell_angle_beta 152.238447
_cell_angle_gamma 90.000000
_cell_volume 2023.667030
_symmetry_space_group_name_H-M "C 2/C"
_symmetry_group_IT_number 15
_symmetry_cell_setting 'monoclinic'
loop_
_space_group_symop_operation_xyz
x,y,z
-x,y,1/2-z
-x,-y,-z
x,-y,1/2+z
1/2+x,1/2+y,z
1/2-x,1/2+y,1/2-z
1/2-x,1/2-y,-z
1/2+x,1/2-y,1/2+z
loop_
_atom_site_type_symbol
_atom_site_label
_atom_site_fract_x
_atom_site_fract_y
_atom_site_fract_z
Si Si1 0.602203 0.312055 0.473838
Si Si2 0.761302 0.479184 0.143910
Si Si3 0.500000 0.802389 0.750000
Si Si4 0.777897 0.390413 0.772821
Si Si5 0.751567 0.903076 0.189017
Si Si6 0.259864 0.031264 0.433402
O O1 0.556833 0.243802 0.387121
O O2 0.674470 0.326144 0.642875
O O3 0.397582 0.349037 0.283607
O O4 0.797936 0.338863 0.593841
O O5 0.722599 0.548639 0.156587
O O6 0.699066 0.425177 0.162138
O O7 0.999484 0.472989 0.349723
O O8 0.684430 0.467963 0.971755
O O9 0.721464 0.411325 0.826819
O O10 0.018080 0.385999 0.979066
O O11 0.792363 0.965209 0.163301
#
# Coordination Sequence:
#
# PCOD9300442 Si02
#       6
#     8   8   4   8   8   8
#     4  11  24  42  56  79 109 141 192 247 291 348
#     4   8  15  30  52  88 129 155 183 220 267 346
#     4  10  28  44  56  78 110 140 196 256 304 330
#     4   9  19  33  56  85 119 155 187 223 279 337
#     4   9  19  34  57  84 117 159 188 221 282 343
#     4   8  15  30  52  89 127 154 183 221 266 344
#
# _framework density 21.742706999999999
#
# number of rings (size 3 to 8) (size 9 to 14) (size 15 to 20)
#    0.000    2.909    0.000    2.182    7.636    4.364 
#    0.000    2.727    0.000    0.000    0.000    5.091 
#    0.000    0.000    0.000    0.000    0.000    0.000 
#
# Total GULP energy -122873.369399 kJ/mol
# GULP energy per Si atom -5585.153154 kJ/mol
# Density = 2.169322 g / cm^3
# Si number density = 21.742707 Si / 1000 Ang^3
#
#
#
# Elastic Constant Matrix: (Units=GPa)
#
#
# Indices 1 2 3 4 5 6 
#
# 1 128.7924 39.7291 60.0230 0.0000 -16.2403 0.0000
# 2 39.7291 39.8659 24.4199 0.0000 -8.5335 0.0000
# 3 60.0230 24.4199 121.1641 0.0000 -10.7643 0.0000
# 4 0.0000 0.0000 0.0000 30.5784 0.0000 -0.4110
# 5 -16.2403 -8.5335 -10.7643 0.0000 60.2129 0.0000
# 6 0.0000 0.0000 0.0000 -0.4110 0.0000 31.8222
#
#
#
# Elastic Compliance Matrix: (Units=1/GPa)
#
#
# Indices 1 2 3 4 5 6 
#
# 1 0.013052 -0.010081 -0.004317 0.000000 0.001320 0.000000
# 2 -0.010081 0.036973 -0.002270 0.000000 0.002115 0.000000
# 3 -0.004317 -0.002270 0.010890 0.000000 0.000461 0.000000
# 4 0.000000 0.000000 0.000000 0.032709 0.000000 0.000422
# 5 0.001320 0.002115 0.000461 0.000000 0.017346 0.000000
# 6 0.000000 0.000000 0.000000 0.000422 0.000000 0.031430
#
#
# Mechanical properties :
#
#
# Convention : Reuss Voigt Hill
#
# Bulk Modulus (GPa) = 36.25720 59.79629 48.02674
# Shear Modulus (GPa) = 27.03729 35.56605 31.30167
#
# Velocity S-wave (km/s) = 3.53017 4.04885 3.79838
# Velocity P-wave (km/s) = 5.77303 7.02987 6.43222
#
# Compressibility (1/GPa) = 0.02758073
#
# Stress axis : x y z
#
# Youngs Moduli (GPa) = 76.61408 27.04643 91.82474
#
# Poissons Ratio (x) = 0.27265 0.39641
# Poissons Ratio (y) = 0.77232 0.20845
# Poissons Ratio (z) = 0.33074 0.06140
#
# Static dielectric constant tensor:
#      x y z
#    x 1.829560 0.000000 -0.002840 
#    y 0.000000 1.779100 0.000000 
#    z -0.002840 0.000000 1.907010 
# 
# From -- ./inp_files/156279.got.cif
#   From: 2010.05.17/outbox.cif.g08.bks.cpg/sg15_79_cif.got.tgz:156279.got - 2010.06.03 18:47:42.
