data_PCOD9300736
_publ_section_title
;
Structure prediction by ZEFSAII (Michael W. Deem and Ramdas Pophale) SiO2 
 PCOD9300736
Probable space group: C 2/C
;
_chemical_formula_sum "Si O2"
_cell_formula_units_Z 36
_cell_length_a 10.243448
_cell_length_b 21.012040
_cell_length_c 14.627901
_cell_angle_alpha 90.000000
_cell_angle_beta 39.048487
_cell_angle_gamma 90.000000
_cell_volume 1983.451866
_symmetry_space_group_name_H-M "C 2/C"
_symmetry_group_IT_number 15
_symmetry_cell_setting 'monoclinic'
loop_
_space_group_symop_operation_xyz
x,y,z
-x,y,1/2-z
-x,-y,-z
x,-y,1/2+z
1/2+x,1/2+y,z
1/2-x,1/2+y,1/2-z
1/2-x,1/2-y,-z
1/2+x,1/2-y,1/2+z
loop_
_atom_site_type_symbol
_atom_site_label
_atom_site_fract_x
_atom_site_fract_y
_atom_site_fract_z
Si Si1 0.500000 0.101806 0.250000
Si Si2 0.185728 0.006197 0.973354
Si Si3 0.500000 0.882326 0.250000
Si Si4 0.744085 0.334035 0.735048
Si Si5 0.334421 0.278612 0.050330
Si Si6 0.000000 0.937890 0.750000
O O1 0.586856 0.141765 0.286421
O O2 0.679430 0.056160 0.114737
O O3 0.343599 0.066588 0.881403
O O4 0.091184 0.016532 0.123618
O O5 0.000000 0.000000 0.000000
O O6 0.678320 0.830693 0.179837
O O7 0.834756 0.279174 0.621064
O O8 0.659033 0.390549 0.715814
O O9 0.550367 0.309699 0.901853
O O10 0.250000 0.250000 0.000000
#
# Coordination Sequence:
#
# PCOD9300736 Si02
#       6
#     4   8   4   8   8   4
#     4  11  26  46  61  95 142 165 208 276 326 373
#     4  11  23  43  65  94 132 170 213 268 321 386
#     4  11  19  36  66  90 124 166 208 268 310 373
#     4  12  24  41  67  96 131 168 213 270 320 383
#     4  12  20  38  64  97 121 165 220 257 310 386
#     4  12  21  40  69  95 124 173 220 256 322 390
#
# _framework density 18.150175999999998
#
# number of rings (size 3 to 8) (size 9 to 14) (size 15 to 20)
#    0.000    0.444    8.889    0.000    0.000    1.778 
#    4.000    0.000    0.000    0.000    0.000    0.000 
#    0.000    0.000    0.000    0.000    0.000    0.000 
#
# Total GULP energy -100224.940637 kJ/mol
# GULP energy per Si atom -5568.052258 kJ/mol
# Density = 1.810887 g / cm^3
# Si number density = 18.150176 Si / 1000 Ang^3
#
#
#
# Elastic Constant Matrix: (Units=GPa)
#
#
# Indices 1 2 3 4 5 6 
#
# 1 151.4457 69.0238 72.7214 -0.0012 6.7345 0.0004
# 2 69.0238 95.9949 52.6670 -0.0029 13.5189 0.0011
# 3 72.7214 52.6670 131.8740 -0.0061 13.2769 0.0019
# 4 -0.0012 -0.0029 -0.0061 -23.4253 0.0025 18.0733
# 5 6.7345 13.5189 13.2769 0.0025 30.2902 -0.0007
# 6 0.0004 0.0011 0.0019 18.0733 -0.0007 24.1181
#
#
#
# Elastic Compliance Matrix: (Units=1/GPa)
#
#
# Indices 1 2 3 4 5 6 
#
# 1 0.011218 -0.006201 -0.003910 0.000001 0.001987 0.000000
# 2 -0.006201 0.017196 -0.002944 -0.000001 -0.005006 0.000000
# 3 -0.003910 -0.002944 0.011189 -0.000002 -0.002721 0.000001
# 4 0.000001 -0.000001 -0.000002 -0.027050 0.000004 0.020270
# 5 0.001987 -0.005006 -0.002721 0.000004 0.035999 -0.000001
# 6 0.000000 0.000000 0.000001 0.020270 -0.000001 0.026273
#
#
# Mechanical properties :
#
#
# Convention : Reuss Voigt Hill
#
# Bulk Modulus (GPa) = 74.11140 85.34877 79.73008
# Shear Modulus (GPa) = 47.42325 18.52343 32.97334
#
# Velocity S-wave (km/s) = 5.11713 3.19809 4.26690
# Velocity P-wave (km/s) = 8.70829 7.79505 8.26429
#
# Compressibility (1/GPa) = 0.01349320
#
# Stress axis : x y z
#
# Youngs Moduli (GPa) = 89.13964 58.15185 89.37488
#
# Poissons Ratio (x) = 0.36061 0.34944
# Poissons Ratio (y) = 0.55277 0.26314
# Poissons Ratio (z) = 0.34852 0.17121
#
# Static dielectric constant tensor:
#      x y z
#    x 1.641650 0.000000 -0.056350 
#    y 0.000000 1.642180 0.000000 
#    z -0.056350 0.000000 1.768330 
# 
# From -- ./inp_files/22564.got.cif
#   From: 2010.05.17/outbox.cif.g08.bks.cpg/sg15_12_cif.got.tgz:22564.got - 2010.06.03 18:47:42.
