data_PCOD9300022
_publ_section_title
;
Structure prediction by ZEFSAII (Michael W. Deem and Ramdas Pophale) SiO2 
 PCOD9300022
Probable space group: C 2/C
;
_chemical_formula_sum "Si O2"
_cell_formula_units_Z 60
_cell_length_a 17.658162
_cell_length_b 20.754007
_cell_length_c 9.931115
_cell_angle_alpha 90.000000
_cell_angle_beta 118.598347
_cell_angle_gamma 90.000000
_cell_volume 3195.496841
_symmetry_space_group_name_H-M "C 2/C"
_symmetry_group_IT_number 15
_symmetry_cell_setting 'monoclinic'
loop_
_space_group_symop_operation_xyz
x,y,z
-x,y,1/2-z
-x,-y,-z
x,-y,1/2+z
1/2+x,1/2+y,z
1/2-x,1/2+y,1/2-z
1/2-x,1/2-y,-z
1/2+x,1/2-y,1/2+z
loop_
_atom_site_type_symbol
_atom_site_label
_atom_site_fract_x
_atom_site_fract_y
_atom_site_fract_z
Si Si1 0.443435 0.973682 0.329931
Si Si2 0.506973 0.577053 0.488986
Si Si3 0.277519 0.042206 0.098417
Si Si4 0.000000 0.837046 0.250000
Si Si5 0.692239 0.599449 0.531017
Si Si6 0.815787 0.621849 0.867358
Si Si7 0.840262 0.756934 0.997749
Si Si8 0.821706 0.131686 0.274300
O O1 0.500000 0.953796 0.250000
O O2 0.386096 0.917173 0.342832
O O3 0.500000 0.000000 0.500000
O O4 0.376003 0.027280 0.220929
O O5 0.500000 0.500000 0.500000
O O6 0.515714 0.615582 0.637254
O O7 0.591088 0.593911 0.474734
O O8 0.417637 0.601980 0.351246
O O9 0.233903 0.085226 0.176341
O O10 0.228881 0.973690 0.051527
O O11 0.277243 0.078270 0.955266
O O12 0.083432 0.792504 0.354626
O O13 0.739066 0.634079 0.695971
O O14 0.711710 0.633007 0.405849
O O15 0.859213 0.684567 0.967703
O O16 0.750000 0.750000 0.000000
O O17 0.825683 0.800648 0.853704
#
# Coordination Sequence:
#
# PCOD9300022 Si02
#       8
#     8   8   8   4   8   8   8   8
#     4  11  23  41  64  94 126 157 206 269 333 380
#     4  11  23  36  63  92 134 167 206 259 325 380
#     4  11  22  39  63  95 125 158 213 264 315 392
#     4  10  26  42  62 100 122 168 236 256 302 406
#     4  11  23  38  62  97 132 160 205 268 331 374
#     4  11  24  42  65  92 126 166 214 266 315 377
#     4  11  23  45  66  87 128 174 219 261 307 387
#     4  11  24  39  61  95 127 167 213 257 315 385
#
# _framework density 18.776422
#
# number of rings (size 3 to 8) (size 9 to 14) (size 15 to 20)
#    0.000    1.067    4.000    2.800    5.600    1.600 
#    0.000    2.667    0.000    0.000    0.000    0.000 
#    0.000    0.000    0.000    0.000    0.000    0.000 
#
# Total GULP energy -167605.670685 kJ/mol
# GULP energy per Si atom -5586.855690 kJ/mol
# Density = 1.873369 g / cm^3
# Si number density = 18.776422 Si / 1000 Ang^3
#
#
#
# Elastic Constant Matrix: (Units=GPa)
#
#
# Indices 1 2 3 4 5 6 
#
# 1 118.9457 20.5176 47.8509 0.0000 -10.1035 0.0000
# 2 20.5176 72.9713 28.5757 0.0000 -1.4305 0.0000
# 3 47.8509 28.5757 129.6584 0.0000 -15.6365 0.0000
# 4 0.0000 0.0000 0.0000 18.4959 0.0000 -5.7614
# 5 -10.1035 -1.4305 -15.6365 0.0000 26.2220 0.0000
# 6 0.0000 0.0000 0.0000 -5.7614 0.0000 25.2370
#
#
#
# Elastic Compliance Matrix: (Units=1/GPa)
#
#
# Indices 1 2 3 4 5 6 
#
# 1 0.010110 -0.001570 -0.003152 0.000000 0.001930 0.000000
# 2 -0.001570 0.015280 -0.002974 0.000000 -0.001545 0.000000
# 3 -0.003152 -0.002974 0.010091 0.000000 0.004641 0.000000
# 4 0.000000 0.000000 0.000000 0.058205 0.000000 0.013288
# 5 0.001930 -0.001545 0.004641 0.000000 0.041562 0.000000
# 6 0.000000 0.000000 0.000000 0.013288 0.000000 0.042658
#
#
# Mechanical properties :
#
#
# Convention : Reuss Voigt Hill
#
# Bulk Modulus (GPa) = 49.78318 57.27376 53.52847
# Shear Modulus (GPa) = 25.00040 28.96640 26.98340
#
# Velocity S-wave (km/s) = 3.65290 3.93198 3.79501
# Velocity P-wave (km/s) = 6.66054 7.15425 6.91180
#
# Compressibility (1/GPa) = 0.02008711
#
# Stress axis : x y z
#
# Youngs Moduli (GPa) = 98.91008 65.44479 99.09694
#
# Poissons Ratio (x) = 0.10278 0.31239
# Poissons Ratio (y) = 0.15533 0.29475
# Poissons Ratio (z) = 0.31180 0.19466
#
# Static dielectric constant tensor:
#      x y z
#    x 1.660750 0.000000 0.016870 
#    y 0.000000 1.576120 0.000000 
#    z 0.016870 0.000000 1.676520 
# 
# From -- ./inp_files/50188.got.cif
#   From: 2010.05.17/outbox.cif.g08.bks.cpg/sg15_26_cif.got.tgz:50188.got - 2010.06.03 18:47:42.
