data_PCOD9300356
_publ_section_title
;
Structure prediction by ZEFSAII (Michael W. Deem and Ramdas Pophale) SiO2 
 PCOD9300356
Probable space group: C 2/C
;
_chemical_formula_sum "Si O2"
_cell_formula_units_Z 44
_cell_length_a 11.850658
_cell_length_b 17.190572
_cell_length_c 15.385292
_cell_angle_alpha 90.000000
_cell_angle_beta 140.474848
_cell_angle_gamma 90.000000
_cell_volume 1994.712151
_symmetry_space_group_name_H-M "C 2/C"
_symmetry_group_IT_number 15
_symmetry_cell_setting 'monoclinic'
loop_
_space_group_symop_operation_xyz
x,y,z
-x,y,1/2-z
-x,-y,-z
x,-y,1/2+z
1/2+x,1/2+y,z
1/2-x,1/2+y,1/2-z
1/2-x,1/2-y,-z
1/2+x,1/2-y,1/2+z
loop_
_atom_site_type_symbol
_atom_site_label
_atom_site_fract_x
_atom_site_fract_y
_atom_site_fract_z
Si Si1 0.653237 0.842008 0.685669
Si Si2 0.989343 0.811472 0.004551
Si Si3 0.816327 0.924612 0.628999
Si Si4 0.000000 0.571594 0.250000
Si Si5 0.321707 0.174370 0.591766
Si Si6 0.384152 0.466937 0.011673
O O1 0.556947 0.772109 0.577571
O O2 0.724404 0.913661 0.668023
O O3 0.518168 0.875575 0.675692
O O4 0.825212 0.808567 0.839414
O O5 0.929424 0.874680 0.040648
O O6 0.160317 0.847570 0.058598
O O7 0.668498 0.888085 0.478539
O O8 0.000000 0.875925 0.750000
O O9 0.892552 0.993902 0.612048
O O10 0.180532 0.524753 0.361780
O O11 0.500000 0.185507 0.750000
O O12 0.250000 0.250000 0.500000
O O13 0.500000 0.500000 0.000000
#
# Coordination Sequence:
#
# PCOD9300356 Si02
#       6
#     8   8   8   4   8   8
#     4  11  24  44  73 102 137 187 240 299 350 434
#     4  11  23  44  69 102 143 186 234 297 365 413
#     4  12  23  42  67 103 141 184 237 293 361 425
#     4  10  26  50  70  96 146 186 234 298 364 418
#     4  12  22  36  67 105 141 183 237 297 352 417
#     4  11  24  45  69  97 146 191 227 290 364 425
#
# _framework density 22.058319999999998
#
# number of rings (size 3 to 8) (size 9 to 14) (size 15 to 20)
#    0.000    0.727    5.455    2.727    1.273    3.636 
#    4.909    0.000    0.000    0.000    0.000    0.000 
#    0.000    0.000    0.000    0.000    0.000    0.000 
#
# Total GULP energy -122627.953128 kJ/mol
# GULP energy per Si atom -5573.997869 kJ/mol
# Density = 2.200811 g / cm^3
# Si number density = 22.058320 Si / 1000 Ang^3
#
#
#
# Elastic Constant Matrix: (Units=GPa)
#
#
# Indices 1 2 3 4 5 6 
#
# 1 160.4300 48.2939 47.2969 0.0001 -4.1209 0.0000
# 2 48.2939 73.6180 33.0433 0.0001 -13.6558 0.0000
# 3 47.2969 33.0433 154.3486 0.0003 10.6452 0.0001
# 4 0.0001 0.0001 0.0003 28.2688 0.0002 -5.3188
# 5 -4.1209 -13.6558 10.6452 0.0002 45.6312 0.0001
# 6 0.0000 0.0000 0.0001 -5.3188 0.0001 30.1066
#
#
#
# Elastic Compliance Matrix: (Units=1/GPa)
#
#
# Indices 1 2 3 4 5 6 
#
# 1 0.008067 -0.004709 -0.001440 0.000000 -0.000345 0.000000
# 2 -0.004709 0.019173 -0.003077 0.000000 0.006030 0.000000
# 3 -0.001440 -0.003077 0.007776 0.000000 -0.002865 0.000000
# 4 0.000000 0.000000 0.000000 0.036591 0.000000 0.006464
# 5 -0.000345 0.006030 -0.002865 0.000000 0.024357 0.000000
# 6 0.000000 0.000000 0.000000 0.006464 0.000000 0.034357
#
#
# Mechanical properties :
#
#
# Convention : Reuss Voigt Hill
#
# Bulk Modulus (GPa) = 60.37679 71.74054 66.05867
# Shear Modulus (GPa) = 32.40541 38.11882 35.26211
#
# Velocity S-wave (km/s) = 3.83701 4.16154 4.00257
# Velocity P-wave (km/s) = 6.86011 7.46224 7.16750
#
# Compressibility (1/GPa) = 0.01656266
#
# Stress axis : x y z
#
# Youngs Moduli (GPa) = 123.96883 52.15682 128.59319
#
# Poissons Ratio (x) = 0.24563 0.18515
# Poissons Ratio (y) = 0.58382 0.39573
# Poissons Ratio (z) = 0.17849 0.16051
#
# Static dielectric constant tensor:
#      x y z
#    x 1.829850 0.000000 -0.043870 
#    y 0.000000 1.967890 0.000000 
#    z -0.043870 0.000000 1.874590 
# 
# From -- ./inp_files/147282.got.cif
#   From: 2010.05.17/outbox.cif.g08.bks.cpg/sg15_74_cif.got.tgz:147282.got - 2010.06.03 18:47:42.
