data_PCOD9300506
_publ_section_title
;
Structure prediction by ZEFSAII (Michael W. Deem and Ramdas Pophale) SiO2 
 PCOD9300506
Probable space group: C 2/C
;
_chemical_formula_sum "Si O2"
_cell_formula_units_Z 48
_cell_length_a 8.911317
_cell_length_b 16.686517
_cell_length_c 25.018955
_cell_angle_alpha 90.000000
_cell_angle_beta 128.507780
_cell_angle_gamma 90.000000
_cell_volume 2911.214528
_symmetry_space_group_name_H-M "C 2/C"
_symmetry_group_IT_number 15
_symmetry_cell_setting 'monoclinic'
loop_
_space_group_symop_operation_xyz
x,y,z
-x,y,1/2-z
-x,-y,-z
x,-y,1/2+z
1/2+x,1/2+y,z
1/2-x,1/2+y,1/2-z
1/2-x,1/2-y,-z
1/2+x,1/2-y,1/2+z
loop_
_atom_site_type_symbol
_atom_site_label
_atom_site_fract_x
_atom_site_fract_y
_atom_site_fract_z
Si Si1 0.471355 0.073900 0.418849
Si Si2 0.305011 0.658686 0.448533
Si Si3 0.645675 0.101466 0.575254
Si Si4 0.447486 0.743676 0.076705
Si Si5 0.172832 0.787770 0.829119
Si Si6 0.029765 0.814490 0.402149
O O1 0.658387 0.085307 0.422823
O O2 0.542163 0.102600 0.493735
O O3 0.305228 0.133112 0.362490
O O4 0.398847 0.983848 0.408937
O O5 0.425664 0.673021 0.422023
O O6 0.168015 0.736788 0.425178
O O7 0.447020 0.660119 0.530852
O O8 0.559976 0.173645 0.590827
O O9 0.868981 0.118875 0.612001
O O10 0.404519 0.729131 0.128699
O O11 0.250000 0.750000 0.000000
O O12 0.316742 0.715746 0.844267
O O13 0.000000 0.796776 0.750000
#
# Coordination Sequence:
#
# PCOD9300506 Si02
#       6
#     8   8   8   8   8   8
#     4   9  17  33  51  79 105 133 170 215 273 311
#     4   8  14  27  51  71  99 129 168 216 249 300
#     4   9  17  31  57  78 101 131 177 222 256 315
#     4  11  17  31  52  78 100 132 181 223 255 301
#     4  11  21  33  50  74 107 138 173 217 270 319
#     4   8  14  29  48  72  97 134 168 204 253 302
#
# _framework density 16.487963000000001
#
# number of rings (size 3 to 8) (size 9 to 14) (size 15 to 20)
#    0.000    2.667    3.333    2.000    0.000    0.000 
#    0.000   11.667    0.000    0.000    0.000    0.000 
#    0.000    0.000    0.000    0.000    0.000    0.000 
#
# Total GULP energy -133667.574235 kJ/mol
# GULP energy per Si atom -5569.482260 kJ/mol
# Density = 1.645044 g / cm^3
# Si number density = 16.487963 Si / 1000 Ang^3
#
#
#
# Elastic Constant Matrix: (Units=GPa)
#
#
# Indices 1 2 3 4 5 6 
#
# 1 109.3642 45.7022 49.8685 0.0000 8.0282 0.0000
# 2 45.7022 75.0643 29.3242 0.0000 9.0853 0.0000
# 3 49.8685 29.3242 89.8814 0.0000 13.2577 0.0000
# 4 0.0000 0.0000 0.0000 11.7952 0.0000 2.3568
# 5 8.0282 9.0853 13.2577 0.0000 19.7482 0.0000
# 6 0.0000 0.0000 0.0000 2.3568 0.0000 31.6808
#
#
#
# Elastic Compliance Matrix: (Units=1/GPa)
#
#
# Indices 1 2 3 4 5 6 
#
# 1 0.014631 -0.006664 -0.006125 0.000000 0.001230 0.000000
# 2 -0.006664 0.018606 -0.001676 0.000000 -0.004726 0.000000
# 3 -0.006125 -0.001676 0.016193 0.000000 -0.007610 0.000000
# 4 0.000000 0.000000 0.000000 0.086060 0.000000 -0.006402
# 5 0.001230 -0.004726 -0.007610 0.000000 0.057420 0.000000
# 6 0.000000 0.000000 0.000000 -0.006402 0.000000 0.032041
#
#
# Mechanical properties :
#
#
# Convention : Reuss Voigt Hill
#
# Bulk Modulus (GPa) = 48.77901 58.23332 53.50617
# Shear Modulus (GPa) = 19.17801 22.60584 20.89192
#
# Velocity S-wave (km/s) = 3.41420 3.70679 3.56350
# Velocity P-wave (km/s) = 6.72244 7.32910 7.03232
#
# Compressibility (1/GPa) = 0.02050062
#
# Stress axis : x y z
#
# Youngs Moduli (GPa) = 68.34660 53.74622 61.75389
#
# Poissons Ratio (x) = 0.35818 0.37824
# Poissons Ratio (y) = 0.45548 0.10348
# Poissons Ratio (z) = 0.41862 0.09007
#
# Static dielectric constant tensor:
#      x y z
#    x 1.583380 0.000000 0.010260 
#    y 0.000000 1.572650 0.000000 
#    z 0.010260 0.000000 1.526540 
# 
# From -- ./inp_files/189783.got.cif
#   From: 2010.05.17/outbox.cif.g08.bks.cpg/sg15_95_cif.got.tgz:189783.got - 2010.06.03 18:47:42.
