data_PCOD9300616
_publ_section_title
;
Structure prediction by ZEFSAII (Michael W. Deem and Ramdas Pophale) SiO2 
 PCOD9300616
Probable space group: C 2/C
;
_chemical_formula_sum "Si O2"
_cell_formula_units_Z 28
_cell_length_a 14.726514
_cell_length_b 7.095917
_cell_length_c 15.340304
_cell_angle_alpha 90.000000
_cell_angle_beta 39.131878
_cell_angle_gamma 90.000000
_cell_volume 1011.686087
_symmetry_space_group_name_H-M "C 2/C"
_symmetry_group_IT_number 15
_symmetry_cell_setting 'monoclinic'
loop_
_space_group_symop_operation_xyz
x,y,z
-x,y,1/2-z
-x,-y,-z
x,-y,1/2+z
1/2+x,1/2+y,z
1/2-x,1/2+y,1/2-z
1/2-x,1/2-y,-z
1/2+x,1/2-y,1/2+z
loop_
_atom_site_type_symbol
_atom_site_label
_atom_site_fract_x
_atom_site_fract_y
_atom_site_fract_z
Si Si1 0.598268 0.573791 0.794796
Si Si2 0.296235 0.535506 0.975523
Si Si3 0.396852 0.004416 0.661200
Si Si4 0.500000 0.838260 0.250000
O O1 0.432778 0.523091 0.937504
O O2 0.639933 0.491627 0.667913
O O3 0.590556 0.804092 0.798079
O O4 0.731878 0.527726 0.756139
O O5 0.250000 0.750000 0.000000
O O6 0.158355 0.419077 0.103098
O O7 0.500000 0.000000 0.500000
O O8 0.447920 0.172205 0.685599
#
# Coordination Sequence:
#
# PCOD9300616 Si02
#       4
#     8   8   8   4
#     4  11  23  40  70  97 134 168 224 271 333 387
#     4  11  18  40  67  96 119 178 228 271 305 388
#     4  12  24  43  67 100 135 174 219 276 328 393
#     4  12  22  40  70  94 136 168 230 274 320 388
#
# _framework density 27.676568
#
# number of rings (size 3 to 8) (size 9 to 14) (size 15 to 20)
#    0.000    0.571    8.571    0.000    0.000    1.143 
#    0.000    4.286    0.000    0.000    0.000    0.000 
#    0.000    0.000    0.000    0.000    0.000    0.000 
#
# Total GULP energy -78187.479953 kJ/mol
# GULP energy per Si atom -5584.819997 kJ/mol
# Density = 2.761357 g / cm^3
# Si number density = 27.676568 Si / 1000 Ang^3
#
#
#
# Elastic Constant Matrix: (Units=GPa)
#
#
# Indices 1 2 3 4 5 6 
#
# 1 223.5833 1.6230 48.3825 0.0000 -63.5068 0.0000
# 2 1.6230 72.4477 30.7358 0.0000 -15.0045 0.0001
# 3 48.3825 30.7358 186.3462 0.0000 -24.2995 0.0000
# 4 0.0000 0.0000 0.0000 52.1734 0.0000 22.5288
# 5 -63.5068 -15.0045 -24.2995 0.0000 93.7410 0.0000
# 6 0.0000 0.0001 0.0000 22.5288 0.0000 -8.9157
#
#
#
# Elastic Compliance Matrix: (Units=1/GPa)
#
#
# Indices 1 2 3 4 5 6 
#
# 1 0.005806 0.001169 -0.001204 0.000000 0.003809 0.000000
# 2 0.001169 0.015377 -0.002500 0.000000 0.002606 0.000000
# 3 -0.001204 -0.002500 0.006140 0.000000 0.000376 0.000000
# 4 0.000000 0.000000 0.000000 0.009166 0.000000 0.023161
# 5 0.003809 0.002606 0.000376 0.000000 0.013763 0.000000
# 6 0.000000 0.000000 0.000000 0.023161 0.000000 -0.053637
#
#
# Mechanical properties :
#
#
# Convention : Reuss Voigt Hill
#
# Bulk Modulus (GPa) = 44.93375 71.53997 58.23686
# Shear Modulus (GPa) = 549.28173 54.17546 301.72859
#
# Velocity S-wave (km/s) = 14.10303 4.42911 10.45257
# Velocity P-wave (km/s) = 16.77690 7.21531 12.91366
#
# Compressibility (1/GPa) = 0.02225499
#
# Stress axis : x y z
#
# Youngs Moduli (GPa) = 172.22117 65.03136 162.85822
#
# Poissons Ratio (x) = -0.07605 0.19605
# Poissons Ratio (y) = -0.20141 0.40718
# Poissons Ratio (z) = 0.20732 0.16259
#
# Static dielectric constant tensor:
#      x y z
#    x 1.961330 0.000000 0.176400 
#    y 0.000000 2.906200 0.000000 
#    z 0.176400 0.000000 1.969700 
# 
# From -- ./inp_files/64691.got.cif
#   From: 2010.05.17/outbox.cif.g08.bks.cpg/sg15_33_cif.got.tgz:64691.got - 2010.06.03 18:47:42.
