data_PCOD9300755
_publ_section_title
;
Structure prediction by ZEFSAII (Michael W. Deem and Ramdas Pophale) SiO2 
 PCOD9300755
Probable space group: C 2/C
;
_chemical_formula_sum "Si O2"
_cell_formula_units_Z 56
_cell_length_a 12.945584
_cell_length_b 18.536073
_cell_length_c 11.455395
_cell_angle_alpha 90.000000
_cell_angle_beta 97.760394
_cell_angle_gamma 90.000000
_cell_volume 2723.664431
_symmetry_space_group_name_H-M "C 2/C"
_symmetry_group_IT_number 15
_symmetry_cell_setting 'monoclinic'
loop_
_space_group_symop_operation_xyz
x,y,z
-x,y,1/2-z
-x,-y,-z
x,-y,1/2+z
1/2+x,1/2+y,z
1/2-x,1/2+y,1/2-z
1/2-x,1/2-y,-z
1/2+x,1/2-y,1/2+z
loop_
_atom_site_type_symbol
_atom_site_label
_atom_site_fract_x
_atom_site_fract_y
_atom_site_fract_z
Si Si1 0.727754 0.565782 0.771770
Si Si2 0.418811 0.336446 0.116643
Si Si3 0.383765 0.424620 0.684802
Si Si4 0.080244 0.657846 0.651845
Si Si5 0.196006 0.812091 0.640942
Si Si6 0.579951 0.438365 0.053405
Si Si7 0.442712 0.824934 0.625150
O O1 0.667097 0.637485 0.805234
O O2 0.685594 0.496995 0.837562
O O3 0.846302 0.589233 0.806185
O O4 0.686000 0.543673 0.636939
O O5 0.509562 0.393690 0.128808
O O6 0.472928 0.259163 0.128744
O O7 0.360190 0.339185 0.984219
O O8 0.500000 0.442325 0.750000
O O9 0.332995 0.366716 0.761168
O O10 0.395528 0.393185 0.557830
O O11 0.147892 0.732693 0.658075
O O12 0.042433 0.648721 0.508445
O O13 0.000000 0.664812 0.750000
O O14 0.318874 0.817988 0.633429
O O15 0.500000 0.500000 0.000000
O O16 0.500000 0.858026 0.750000
#
# Coordination Sequence:
#
# PCOD9300755 Si02
#       7
#     8   8   8   8   8   8   8
#     4  12  22  39  63  92 133 172 217 263 330 402
#     4  11  19  37  63  94 128 170 211 258 330 402
#     4  12  23  38  62  98 132 169 209 276 335 384
#     4  11  25  44  67  96 134 179 223 274 329 396
#     4  11  22  42  66  96 133 173 215 273 337 389
#     4  12  22  34  60 101 135 162 208 270 339 393
#     4  11  23  42  69  94 128 178 227 272 327 397
#
# _framework density 20.560535999999999
#
# number of rings (size 3 to 8) (size 9 to 14) (size 15 to 20)
#    0.000    0.571    7.143    2.571    2.000    1.143 
#    0.000    2.143    0.000    2.571    0.000    0.000 
#    0.000    0.000    0.000    0.000    0.000    0.000 
#
# Total GULP energy -155961.499618 kJ/mol
# GULP energy per Si atom -5570.053558 kJ/mol
# Density = 2.051374 g / cm^3
# Si number density = 20.560536 Si / 1000 Ang^3
#
#
#
# Elastic Constant Matrix: (Units=GPa)
#
#
# Indices 1 2 3 4 5 6 
#
# 1 78.2266 16.2344 55.4565 0.0000 -10.7220 0.0000
# 2 16.2344 51.1796 14.2095 0.0000 -0.1660 0.0000
# 3 55.4565 14.2095 168.3264 0.0000 2.5118 0.0000
# 4 0.0000 0.0000 0.0000 18.3824 0.0000 -4.2265
# 5 -10.7220 -0.1660 2.5118 0.0000 23.8509 0.0000
# 6 0.0000 0.0000 0.0000 -4.2265 0.0000 14.6999
#
#
#
# Elastic Compliance Matrix: (Units=1/GPa)
#
#
# Indices 1 2 3 4 5 6 
#
# 1 0.019317 -0.004395 -0.006132 0.000000 0.009299 0.000000
# 2 -0.004395 0.021010 -0.000299 0.000000 -0.001798 0.000000
# 3 -0.006132 -0.000299 0.008040 0.000000 -0.003605 0.000000
# 4 0.000000 0.000000 0.000000 0.058251 0.000000 0.016748
# 5 0.009299 -0.001798 -0.003605 0.000000 0.046475 0.000000
# 6 0.000000 0.000000 0.000000 0.016748 0.000000 0.072843
#
#
# Mechanical properties :
#
#
# Convention : Reuss Voigt Hill
#
# Bulk Modulus (GPa) = 37.43056 52.17038 44.80047
# Shear Modulus (GPa) = 19.49376 25.50879 22.50127
#
# Velocity S-wave (km/s) = 3.08249 3.52613 3.31175
# Velocity P-wave (km/s) = 5.56000 6.48130 6.03825
#
# Compressibility (1/GPa) = 0.02671614
#
# Stress axis : x y z
#
# Youngs Moduli (GPa) = 51.76771 47.59582 124.37686
#
# Poissons Ratio (x) = 0.20918 0.76267
# Poissons Ratio (y) = 0.22751 0.03717
# Poissons Ratio (z) = 0.31744 0.01422
#
# Static dielectric constant tensor:
#      x y z
#    x 1.780320 0.000000 0.024610 
#    y 0.000000 1.767280 0.000000 
#    z 0.024610 0.000000 1.845710 
# 
# From -- ./inp_files/88959.got.cif
#   From: 2010.05.17/outbox.cif.g08.bks.cpg/sg15_45_cif.got.tgz:88959.got - 2010.06.03 18:47:42.
