data_PCOD9300317
_publ_section_title
;
Structure prediction by ZEFSAII (Michael W. Deem and Ramdas Pophale) SiO2 
 PCOD9300317
Probable space group: C 2/C
;
_chemical_formula_sum "Si O2"
_cell_formula_units_Z 56
_cell_length_a 8.722784
_cell_length_b 24.301084
_cell_length_c 12.259337
_cell_angle_alpha 90.000000
_cell_angle_beta 109.030413
_cell_angle_gamma 90.000000
_cell_volume 2456.622181
_symmetry_space_group_name_H-M "C 2/C"
_symmetry_group_IT_number 15
_symmetry_cell_setting 'monoclinic'
loop_
_space_group_symop_operation_xyz
x,y,z
-x,y,1/2-z
-x,-y,-z
x,-y,1/2+z
1/2+x,1/2+y,z
1/2-x,1/2+y,1/2-z
1/2-x,1/2-y,-z
1/2+x,1/2-y,1/2+z
loop_
_atom_site_type_symbol
_atom_site_label
_atom_site_fract_x
_atom_site_fract_y
_atom_site_fract_z
Si Si1 0.966927 0.870517 0.565338
Si Si2 0.500000 0.798396 0.750000
Si Si3 0.355212 0.516783 0.382346
Si Si4 0.172223 0.758347 0.599898
Si Si5 0.000000 0.531734 0.250000
Si Si6 0.862292 0.616030 0.387933
Si Si7 0.868508 0.097014 0.795546
Si Si8 0.549229 0.858032 0.136907
O O1 0.824632 0.870952 0.623888
O O2 0.889177 0.881725 0.425567
O O3 0.096134 0.919264 0.620919
O O4 0.063650 0.813073 0.583673
O O5 0.334731 0.764367 0.708758
O O6 0.534242 0.837555 0.653671
O O7 0.500000 0.500000 0.500000
O O8 0.158974 0.509185 0.354789
O O9 0.381286 0.468796 0.301456
O O10 0.250000 0.750000 0.500000
O O11 0.071321 0.704768 0.606114
O O12 0.101721 0.564217 0.180556
O O13 0.940033 0.611247 0.524881
O O14 0.713355 0.109428 0.687547
O O15 0.000000 0.125016 0.750000
O O16 0.500000 0.856713 0.250000
#
# Coordination Sequence:
#
# PCOD9300317 Si02
#       8
#     8   4   8   8   4   8   8   8
#     4  11  25  48  71 106 150 194 252 309 376 460
#     4  11  26  44  68 104 144 194 250 301 378 454
#     4  10  26  48  76 111 146 199 251 316 386 452
#     4  12  27  45  75 106 149 197 246 306 379 457
#     4  11  26  46  78 108 150 198 258 321 380 460
#     4  11  25  46  73 106 151 199 252 312 379 456
#     4  11  26  45  74 103 146 192 247 307 376 448
#     4  12  27  46  70 110 146 196 245 309 380 446
#
# _framework density 22.795525999999999
#
# number of rings (size 3 to 8) (size 9 to 14) (size 15 to 20)
#    0.000    0.857    2.857    2.571   12.000    1.714 
#    0.000    3.571    0.000    0.000    0.000    0.000 
#    0.000    0.000    0.000    0.000    0.000    0.000 
#
# Total GULP energy -155967.510566 kJ/mol
# GULP energy per Si atom -5570.268235 kJ/mol
# Density = 2.274364 g / cm^3
# Si number density = 22.795526 Si / 1000 Ang^3
#
#
#
# Elastic Constant Matrix: (Units=GPa)
#
#
# Indices 1 2 3 4 5 6 
#
# 1 140.8154 11.9574 44.9209 0.0000 7.8247 0.0000
# 2 11.9574 80.2346 21.9651 0.0000 14.6290 0.0000
# 3 44.9209 21.9651 91.8980 0.0000 7.3827 0.0000
# 4 0.0000 0.0000 0.0000 23.4366 0.0000 5.5230
# 5 7.8247 14.6290 7.3827 0.0000 52.3472 0.0000
# 6 0.0000 0.0000 0.0000 5.5230 0.0000 34.1595
#
#
#
# Elastic Compliance Matrix: (Units=1/GPa)
#
#
# Indices 1 2 3 4 5 6 
#
# 1 0.008438 -0.000020 -0.004065 0.000000 -0.000682 0.000000
# 2 -0.000020 0.013930 -0.003042 0.000000 -0.003461 0.000000
# 3 -0.004065 -0.003042 0.013633 0.000000 -0.000465 0.000000
# 4 0.000000 0.000000 0.000000 0.044358 0.000000 -0.007172
# 5 -0.000682 -0.003461 -0.000465 0.000000 0.020238 0.000000
# 6 0.000000 0.000000 0.000000 -0.007172 0.000000 0.030434
#
#
# Mechanical properties :
#
#
# Convention : Reuss Voigt Hill
#
# Bulk Modulus (GPa) = 45.98231 52.29276 49.13753
# Shear Modulus (GPa) = 32.77958 37.59564 35.18761
#
# Velocity S-wave (km/s) = 3.79619 4.06551 3.93315
# Velocity P-wave (km/s) = 6.27934 6.71026 6.49837
#
# Compressibility (1/GPa) = 0.02174749
#
# Stress axis : x y z
#
# Youngs Moduli (GPa) = 118.51365 71.78665 73.35183
#
# Poissons Ratio (x) = 0.00146 0.29817
# Poissons Ratio (y) = 0.00240 0.22310
# Poissons Ratio (z) = 0.48174 0.21834
#
# Static dielectric constant tensor:
#      x y z
#    x 1.647930 0.000000 -0.023920 
#    y 0.000000 1.971330 0.000000 
#    z -0.023920 0.000000 1.889530 
# 
# From -- ./inp_files/81470.got.cif
#   From: 2010.05.17/outbox.cif.g08.bks.cpg/sg15_41_cif.got.tgz:81470.got - 2010.06.03 18:47:42.
