data_PCOD9300854
_publ_section_title
;
Structure prediction by ZEFSAII (Michael W. Deem and Ramdas Pophale) SiO2 
 PCOD9300854
Probable space group: C 2/C
;
_chemical_formula_sum "Si O2"
_cell_formula_units_Z 64
_cell_length_a 18.096914
_cell_length_b 14.542108
_cell_length_c 11.489682
_cell_angle_alpha 90.000000
_cell_angle_beta 92.322216
_cell_angle_gamma 90.000000
_cell_volume 3021.225143
_symmetry_space_group_name_H-M "C 2/C"
_symmetry_group_IT_number 15
_symmetry_cell_setting 'monoclinic'
loop_
_space_group_symop_operation_xyz
x,y,z
-x,y,1/2-z
-x,-y,-z
x,-y,1/2+z
1/2+x,1/2+y,z
1/2-x,1/2+y,1/2-z
1/2-x,1/2-y,-z
1/2+x,1/2-y,1/2+z
loop_
_atom_site_type_symbol
_atom_site_label
_atom_site_fract_x
_atom_site_fract_y
_atom_site_fract_z
Si Si1 0.225100 0.838848 0.647950
Si Si2 0.934419 0.422013 0.153550
Si Si3 0.798595 0.872703 0.594606
Si Si4 0.821806 0.067868 0.582094
Si Si5 0.324834 0.130610 0.839451
Si Si6 0.364061 0.200585 0.468202
Si Si7 0.919526 0.797761 0.234415
Si Si8 0.894134 0.625279 0.084311
O O1 0.197816 0.880320 0.766159
O O2 0.179461 0.870588 0.533433
O O3 0.215325 0.729463 0.661229
O O4 0.309346 0.867935 0.627053
O O5 0.860332 0.395530 0.220362
O O6 0.931299 0.530054 0.123972
O O7 0.000000 0.402777 0.250000
O O8 0.925915 0.362840 0.034502
O O9 0.712029 0.856875 0.556582
O O10 0.841292 0.783221 0.552392
O O11 0.837977 0.963563 0.548592
O O12 0.738312 0.060742 0.625794
O O13 0.867153 0.122950 0.681093
O O14 0.385916 0.130038 0.944937
O O15 0.388704 0.248121 0.348691
O O16 0.929726 0.715153 0.142048
O O17 0.000000 0.840505 0.250000
#
# Coordination Sequence:
#
# PCOD9300854 Si02
#       8
#     8   8   8   8   8   8   8   8
#     4  11  19  41  68  98 127 169 220 278 328 380
#     4  12  28  42  63  96 138 182 218 267 336 409
#     4  11  23  41  72 100 131 166 223 288 328 385
#     4  11  23  40  69 101 127 175 225 271 329 391
#     4  11  21  41  66  93 130 171 222 277 321 392
#     4  11  25  45  65 102 133 174 219 279 338 386
#     4  12  26  44  66  96 138 175 215 273 333 398
#     4  11  22  41  63  95 130 173 219 267 330 393
#
# _framework density 21.183458000000002
#
# number of rings (size 3 to 8) (size 9 to 14) (size 15 to 20)
#    0.000    0.750    5.000    3.375    7.000    0.500 
#    0.000    1.250    0.000    0.000    0.000    0.000 
#    0.000    0.000    0.000    0.000    0.000    0.000 
#
# Total GULP energy -178876.766974 kJ/mol
# GULP energy per Si atom -5589.898968 kJ/mol
# Density = 2.113524 g / cm^3
# Si number density = 21.183458 Si / 1000 Ang^3
#
#
#
# Elastic Constant Matrix: (Units=GPa)
#
#
# Indices 1 2 3 4 5 6 
#
# 1 53.6916 17.6197 14.9300 0.0000 18.4125 0.0000
# 2 17.6197 95.6040 -4.8664 0.0000 5.7679 0.0000
# 3 14.9300 -4.8664 71.4554 0.0000 2.5186 0.0000
# 4 0.0000 0.0000 0.0000 27.2576 0.0000 5.5239
# 5 18.4125 5.7679 2.5186 0.0000 26.9224 0.0000
# 6 0.0000 0.0000 0.0000 5.5239 0.0000 17.2243
#
#
#
# Elastic Compliance Matrix: (Units=1/GPa)
#
#
# Indices 1 2 3 4 5 6 
#
# 1 0.027505 -0.004297 -0.005427 0.000000 -0.017383 0.000000
# 2 -0.004297 0.011314 0.001656 0.000000 0.000360 0.000000
# 3 -0.005427 0.001656 0.015173 0.000000 0.001937 0.000000
# 4 0.000000 0.000000 0.000000 0.039237 0.000000 -0.012583
# 5 -0.017383 0.000360 0.001937 0.000000 0.048774 0.000000
# 6 0.000000 0.000000 0.000000 -0.012583 0.000000 0.062093
#
#
# Mechanical properties :
#
#
# Convention : Reuss Voigt Hill
#
# Bulk Modulus (GPa) = 26.41550 30.67971 28.54760
# Shear Modulus (GPa) = 21.47299 27.15206 24.31253
#
# Velocity S-wave (km/s) = 3.18727 3.58405 3.39147
# Velocity P-wave (km/s) = 5.10312 5.62508 5.37045
#
# Compressibility (1/GPa) = 0.03785657
#
# Stress axis : x y z
#
# Youngs Moduli (GPa) = 36.35703 88.38405 65.90609
#
# Poissons Ratio (x) = 0.37976 0.35766
# Poissons Ratio (y) = 0.15621 -0.10912
# Poissons Ratio (z) = 0.19730 -0.14633
#
# Static dielectric constant tensor:
#      x y z
#    x 1.783630 0.000000 0.016370 
#    y 0.000000 1.797580 0.000000 
#    z 0.016370 0.000000 1.770900 
# 
# From -- ./inp_files/105737.got.cif
#   From: 2010.05.17/outbox.cif.g08.bks.cpg/sg15_53_cif.got.tgz:105737.got - 2010.06.03 18:47:42.
