data_PCOD9300293
_publ_section_title
;
Structure prediction by ZEFSAII (Michael W. Deem and Ramdas Pophale) SiO2 
 PCOD9300293
Probable space group: C 2/C
;
_chemical_formula_sum "Si O2"
_cell_formula_units_Z 44
_cell_length_a 9.131852
_cell_length_b 11.166621
_cell_length_c 17.354344
_cell_angle_alpha 90.000000
_cell_angle_beta 99.460472
_cell_angle_gamma 90.000000
_cell_volume 1745.587277
_symmetry_space_group_name_H-M "C 2/C"
_symmetry_group_IT_number 15
_symmetry_cell_setting 'monoclinic'
loop_
_space_group_symop_operation_xyz
x,y,z
-x,y,1/2-z
-x,-y,-z
x,-y,1/2+z
1/2+x,1/2+y,z
1/2-x,1/2+y,1/2-z
1/2-x,1/2-y,-z
1/2+x,1/2-y,1/2+z
loop_
_atom_site_type_symbol
_atom_site_label
_atom_site_fract_x
_atom_site_fract_y
_atom_site_fract_z
Si Si1 0.689132 0.742975 0.843959
Si Si2 0.321185 0.314800 0.579233
Si Si3 0.120680 0.062171 0.093251
Si Si4 0.669521 0.959333 0.035834
Si Si5 0.751891 0.380861 0.196146
Si Si6 0.000000 0.418903 0.750000
O O1 0.817104 0.841317 0.841573
O O2 0.766467 0.661312 0.917286
O O3 0.684882 0.664657 0.768473
O O4 0.540221 0.826948 0.825219
O O5 0.250000 0.250000 0.500000
O O6 0.467900 0.378410 0.557882
O O7 0.224698 0.430317 0.592751
O O8 0.330893 0.219729 0.649375
O O9 0.116851 0.935344 0.134122
O O10 0.242407 0.048172 0.037275
O O11 0.500000 0.000000 0.000000
O O12 0.866644 0.485127 0.229929
#
# Coordination Sequence:
#
# PCOD9300293 Si02
#       6
#     8   8   8   8   8   4
#     4  11  27  45  78 111 155 206 263 328 402 481
#     4  12  26  47  80 109 157 209 258 330 401 479
#     4  11  26  50  74 112 154 203 262 329 393 484
#     4  12  28  49  80 116 158 211 268 333 405 476
#     4  11  26  48  74 111 157 203 269 323 410 471
#     4  10  26  48  72 106 160 204 252 338 388 484
#
# _framework density 25.206416999999998
#
# number of rings (size 3 to 8) (size 9 to 14) (size 15 to 20)
#    0.000    0.727    1.818    3.273   12.727    0.000 
#    0.000    0.000    0.000    0.000    0.000    0.000 
#    0.000    0.000    0.000    0.000    0.000    0.000 
#
# Total GULP energy -122578.737898 kJ/mol
# GULP energy per Si atom -5571.760814 kJ/mol
# Density = 2.514905 g / cm^3
# Si number density = 25.206417 Si / 1000 Ang^3
#
#
#
# Elastic Constant Matrix: (Units=GPa)
#
#
# Indices 1 2 3 4 5 6 
#
# 1 138.7785 56.5288 47.5678 0.0000 23.0516 0.0000
# 2 56.5288 146.5632 40.1156 0.0000 9.9529 0.0000
# 3 47.5678 40.1156 100.6868 0.0000 0.0896 0.0000
# 4 0.0000 0.0000 0.0000 63.3703 0.0000 26.0610
# 5 23.0516 9.9529 0.0896 0.0000 40.6517 0.0000
# 6 0.0000 0.0000 0.0000 26.0610 0.0000 51.6265
#
#
#
# Elastic Compliance Matrix: (Units=1/GPa)
#
#
# Indices 1 2 3 4 5 6 
#
# 1 0.010492 -0.002617 -0.003909 0.000000 -0.005300 0.000000
# 2 -0.002617 0.008455 -0.002132 0.000000 -0.000582 0.000000
# 3 -0.003909 -0.002132 0.012626 0.000000 0.002711 0.000000
# 4 0.000000 0.000000 0.000000 0.019914 0.000000 -0.010053
# 5 -0.005300 -0.000582 0.002711 0.000000 0.027741 0.000000
# 6 0.000000 0.000000 0.000000 -0.010053 0.000000 0.024445
#
#
# Mechanical properties :
#
#
# Convention : Reuss Voigt Hill
#
# Bulk Modulus (GPa) = 70.14285 74.93922 72.54104
# Shear Modulus (GPa) = 39.76400 47.25080 43.50740
#
# Velocity S-wave (km/s) = 3.97613 4.33431 4.15908
# Velocity P-wave (km/s) = 6.99766 7.40561 7.20452
#
# Compressibility (1/GPa) = 0.01425662
#
# Stress axis : x y z
#
# Youngs Moduli (GPa) = 95.31062 118.26899 79.20303
#
# Poissons Ratio (x) = 0.30948 0.30964
# Poissons Ratio (y) = 0.24940 0.16886
# Poissons Ratio (z) = 0.37262 0.25215
#
# Static dielectric constant tensor:
#      x y z
#    x 2.125520 0.000000 0.142680 
#    y 0.000000 2.140400 0.000000 
#    z 0.142680 0.000000 2.079040 
# 
# From -- ./inp_files/230253.got.cif
#   From: 2010.05.17/outbox.cif.g08.bks.cpg/sg15_116_cif.got.tgz:230253.got - 2010.06.03 18:47:42.
