data_PCOD9300418
_publ_section_title
;
Structure prediction by ZEFSAII (Michael W. Deem and Ramdas Pophale) SiO2 
 PCOD9300418
Probable space group: C 2/C
;
_chemical_formula_sum "Si O2"
_cell_formula_units_Z 48
_cell_length_a 9.107065
_cell_length_b 20.535940
_cell_length_c 11.717264
_cell_angle_alpha 90.000000
_cell_angle_beta 122.034071
_cell_angle_gamma 90.000000
_cell_volume 1857.711374
_symmetry_space_group_name_H-M "C 2/C"
_symmetry_group_IT_number 15
_symmetry_cell_setting 'monoclinic'
loop_
_space_group_symop_operation_xyz
x,y,z
-x,y,1/2-z
-x,-y,-z
x,-y,1/2+z
1/2+x,1/2+y,z
1/2-x,1/2+y,1/2-z
1/2-x,1/2-y,-z
1/2+x,1/2-y,1/2+z
loop_
_atom_site_type_symbol
_atom_site_label
_atom_site_fract_x
_atom_site_fract_y
_atom_site_fract_z
Si Si1 0.500000 0.259473 0.250000
Si Si2 0.175042 0.448202 0.390885
Si Si3 0.321933 0.461641 0.234579
Si Si4 0.302634 0.901413 0.531058
Si Si5 0.599587 0.289822 0.550604
Si Si6 0.000000 0.803321 0.750000
Si Si7 0.322172 0.103292 0.363474
O O1 0.497376 0.277219 0.388728
O O2 0.710749 0.243400 0.349857
O O3 0.329650 0.436825 0.366240
O O4 0.190995 0.522629 0.437186
O O5 0.159669 0.404759 0.494126
O O6 0.000000 0.439375 0.250000
O O7 0.500000 0.481418 0.250000
O O8 0.212520 0.528722 0.191665
O O9 0.251571 0.404684 0.123937
O O10 0.170912 0.863491 0.555408
O O11 0.497992 0.874282 0.618418
O O12 0.486288 0.272448 0.617032
O O13 0.837011 0.849225 0.710684
#
# Coordination Sequence:
#
# PCOD9300418 Si02
#       7
#     4   8   8   8   8   4   8
#     4  10  26  54  77  98 130 166 215 286 364 426
#     4  11  20  36  57  86 136 190 228 266 313 369
#     4  11  22  34  54  88 135 184 227 270 309 368
#     4  11  23  37  63  90 128 182 224 266 325 398
#     4  11  26  48  76 103 131 170 221 282 353 419
#     4  12  26  40  71 106 136 170 223 274 326 410
#     4  11  22  38  56  94 138 183 224 267 320 374
#
# _framework density 25.838242000000001
#
# number of rings (size 3 to 8) (size 9 to 14) (size 15 to 20)
#    0.000    1.000    4.167    3.000    4.667    2.000 
#    0.000    0.000    0.000    0.000    0.000    0.000 
#    0.000    0.000    0.000    0.000    0.000    0.000 
#
# Total GULP energy -133791.972517 kJ/mol
# GULP energy per Si atom -5574.665522 kJ/mol
# Density = 2.577943 g / cm^3
# Si number density = 25.838242 Si / 1000 Ang^3
#
#
#
# Elastic Constant Matrix: (Units=GPa)
#
#
# Indices 1 2 3 4 5 6 
#
# 1 139.5955 3.9305 52.5123 0.0000 -35.5215 0.0000
# 2 3.9305 24.0357 20.6414 0.0000 2.3954 0.0000
# 3 52.5123 20.6414 147.8204 0.0000 -16.6018 0.0000
# 4 0.0000 0.0000 0.0000 3.8833 0.0000 5.9871
# 5 -35.5215 2.3954 -16.6018 0.0000 60.7803 0.0000
# 6 0.0000 0.0000 0.0000 5.9871 0.0000 25.4918
#
#
#
# Elastic Compliance Matrix: (Units=1/GPa)
#
#
# Indices 1 2 3 4 5 6 
#
# 1 0.009434 0.000469 -0.002888 0.000000 0.004706 0.000000
# 2 0.000469 0.048155 -0.007297 0.000000 -0.003617 0.000000
# 3 -0.002888 -0.007297 0.008927 0.000000 0.001038 0.000000
# 4 0.000000 0.000000 0.000000 0.403686 0.000000 -0.094811
# 5 0.004706 -0.003617 0.001038 0.000000 0.019629 0.000000
# 6 0.000000 0.000000 0.000000 -0.094811 0.000000 0.061496
#
#
# Mechanical properties :
#
#
# Convention : Reuss Voigt Hill
#
# Bulk Modulus (GPa) = 21.23925 51.73554 36.48740
# Shear Modulus (GPa) = 8.52581 33.65556 21.09069
#
# Velocity S-wave (km/s) = 1.81847 3.61300 2.86012
# Velocity P-wave (km/s) = 3.55627 6.12138 5.00592
#
# Compressibility (1/GPa) = 0.04708263
#
# Stress axis : x y z
#
# Youngs Moduli (GPa) = 105.99415 20.76623 112.02536
#
# Poissons Ratio (x) = -0.00973 0.32358
# Poissons Ratio (y) = -0.04968 0.81745
# Poissons Ratio (z) = 0.30616 0.15153
#
# Static dielectric constant tensor:
#      x y z
#    x 2.041380 0.000000 -0.015940 
#    y 0.000000 2.073700 0.000000 
#    z -0.015940 0.000000 2.254570 
# 
# From -- ./inp_files/80966.got.cif
#   From: 2010.05.17/outbox.cif.g08.bks.cpg/sg15_41_cif.got.tgz:80966.got - 2010.06.03 18:47:42.
