data_PCOD9300277
_publ_section_title
;
Structure prediction by ZEFSAII (Michael W. Deem and Ramdas Pophale) SiO2 
 PCOD9300277
Probable space group: C 2/C
;
_chemical_formula_sum "Si O2"
_cell_formula_units_Z 52
_cell_length_a 12.797141
_cell_length_b 24.101307
_cell_length_c 11.274276
_cell_angle_alpha 90.000000
_cell_angle_beta 132.405449
_cell_angle_gamma 90.000000
_cell_volume 2567.608057
_symmetry_space_group_name_H-M "C 2/C"
_symmetry_group_IT_number 15
_symmetry_cell_setting 'monoclinic'
loop_
_space_group_symop_operation_xyz
x,y,z
-x,y,1/2-z
-x,-y,-z
x,-y,1/2+z
1/2+x,1/2+y,z
1/2-x,1/2+y,1/2-z
1/2-x,1/2-y,-z
1/2+x,1/2-y,1/2+z
loop_
_atom_site_type_symbol
_atom_site_label
_atom_site_fract_x
_atom_site_fract_y
_atom_site_fract_z
Si Si1 0.530459 0.635541 0.144355
Si Si2 0.815348 0.174058 0.794633
Si Si3 0.489551 0.145190 0.874868
Si Si4 0.000000 0.105532 0.750000
Si Si5 0.628841 0.460471 0.561160
Si Si6 0.067172 0.485167 0.178802
Si Si7 0.739009 0.781184 0.620316
O O1 0.500000 0.611745 0.250000
O O2 0.624807 0.593092 0.142964
O O3 0.609847 0.694205 0.224168
O O4 0.383896 0.643913 0.962168
O O5 0.647412 0.166380 0.660645
O O6 0.900124 0.145671 0.752614
O O7 0.827985 0.238746 0.836264
O O8 0.500000 0.169352 0.750000
O O9 0.459410 0.080489 0.839333
O O10 0.637029 0.165442 0.039401
O O11 0.905247 0.065625 0.593932
O O12 0.500000 0.500000 0.500000
O O13 0.771135 0.495120 0.688347
O O14 0.000000 0.508375 0.250000
O O15 0.000000 0.500000 0.000000
O O16 0.750000 0.750000 0.500000
#
# Coordination Sequence:
#
# PCOD9300277 Si02
#       7
#     8   8   8   4   8   8   8
#     4  11  22  40  65 104 129 168 233 284 341 409
#     4  11  23  40  68  91 141 179 217 286 339 410
#     4  11  22  40  63 101 131 174 230 289 344 414
#     4  10  26  48  66 106 142 184 248 276 350 434
#     4  11  26  45  74  96 138 188 235 291 344 423
#     4  11  26  43  69 100 142 181 229 291 365 421
#     4  12  22  38  67  99 139 171 225 290 352 401
#
# _framework density 20.252312
#
# number of rings (size 3 to 8) (size 9 to 14) (size 15 to 20)
#    0.000    0.923    3.077    3.692    5.385    2.462 
#    0.000    6.923    1.692    0.000    0.000    0.000 
#    0.000    0.000    0.000    0.000    0.000    0.000 
#
# Total GULP energy -145063.193785 kJ/mol
# GULP energy per Si atom -5579.353607 kJ/mol
# Density = 2.020622 g / cm^3
# Si number density = 20.252312 Si / 1000 Ang^3
#
#
#
# Elastic Constant Matrix: (Units=GPa)
#
#
# Indices 1 2 3 4 5 6 
#
# 1 104.3888 28.4036 63.0453 0.0000 3.7101 0.0000
# 2 28.4036 92.6700 36.3630 0.0000 -0.3065 0.0000
# 3 63.0453 36.3630 112.0799 0.0000 -1.5975 0.0000
# 4 0.0000 0.0000 0.0000 38.5350 0.0000 2.8667
# 5 3.7101 -0.3065 -1.5975 0.0000 37.9734 0.0000
# 6 0.0000 0.0000 0.0000 2.8667 0.0000 23.9130
#
#
#
# Elastic Compliance Matrix: (Units=1/GPa)
#
#
# Indices 1 2 3 4 5 6 
#
# 1 0.014795 -0.001450 -0.007878 0.000000 -0.001789 0.000000
# 2 -0.001450 0.012507 -0.003241 0.000000 0.000106 0.000000
# 3 -0.007878 -0.003241 0.014424 0.000000 0.001350 0.000000
# 4 0.000000 0.000000 0.000000 0.026184 0.000000 -0.003139
# 5 -0.001789 0.000106 0.001350 0.000000 0.026567 0.000000
# 6 0.000000 0.000000 0.000000 -0.003139 0.000000 0.042195
#
#
# Mechanical properties :
#
#
# Convention : Reuss Voigt Hill
#
# Bulk Modulus (GPa) = 60.27556 62.75138 61.51347
# Shear Modulus (GPa) = 29.87964 32.17273 31.02619
#
# Velocity S-wave (km/s) = 3.84522 3.99004 3.91830
# Velocity P-wave (km/s) = 7.03855 7.23044 7.13514
#
# Compressibility (1/GPa) = 0.01659047
#
# Stress axis : x y z
#
# Youngs Moduli (GPa) = 67.58958 79.95298 69.32854
#
# Poissons Ratio (x) = 0.11590 0.54614
# Poissons Ratio (y) = 0.09798 0.22469
# Poissons Ratio (z) = 0.53244 0.25912
#
# Static dielectric constant tensor:
#      x y z
#    x 1.725800 0.000000 -0.016370 
#    y 0.000000 1.078690 0.000000 
#    z -0.016370 0.000000 1.771440 
# 
# From -- ./inp_files/91331.got.cif
#   From: 2010.05.17/outbox.cif.g08.bks.cpg/sg15_46_cif.got.tgz:91331.got - 2010.06.03 18:47:42.
