data_PCOD9300374
_publ_section_title
;
Structure prediction by ZEFSAII (Michael W. Deem and Ramdas Pophale) SiO2 
 PCOD9300374
Probable space group: C 2/C
;
_chemical_formula_sum "Si O2"
_cell_formula_units_Z 60
_cell_length_a 18.658232
_cell_length_b 5.172268
_cell_length_c 27.504826
_cell_angle_alpha 90.000000
_cell_angle_beta 60.318501
_cell_angle_gamma 90.000000
_cell_volume 2306.088398
_symmetry_space_group_name_H-M "C 2/C"
_symmetry_group_IT_number 15
_symmetry_cell_setting 'monoclinic'
loop_
_space_group_symop_operation_xyz
x,y,z
-x,y,1/2-z
-x,-y,-z
x,-y,1/2+z
1/2+x,1/2+y,z
1/2-x,1/2+y,1/2-z
1/2-x,1/2-y,-z
1/2+x,1/2-y,1/2+z
loop_
_atom_site_type_symbol
_atom_site_label
_atom_site_fract_x
_atom_site_fract_y
_atom_site_fract_z
Si Si1 0.626358 0.684568 0.140685
Si Si2 0.210785 0.103271 0.881791
Si Si3 0.000000 0.543971 0.750000
Si Si4 0.917223 0.318575 0.897557
Si Si5 0.820891 0.220914 0.016338
Si Si6 0.081676 0.494018 0.939443
Si Si7 0.598805 0.775234 0.794498
Si Si8 0.852818 0.239315 0.171189
O O1 0.706598 0.731880 0.146171
O O2 0.545225 0.768432 0.197130
O O3 0.625090 0.392978 0.122965
O O4 0.621056 0.896927 0.098385
O O5 0.122570 0.240033 0.902030
O O6 0.201200 0.006175 0.940149
O O7 0.218413 0.877081 0.839195
O O8 0.930165 0.361557 0.749421
O O9 0.011833 0.316175 0.851619
O O10 0.902418 0.208814 0.956079
O O11 0.844511 0.438397 0.047361
O O12 0.750000 0.250000 0.000000
O O13 0.080284 0.694014 0.894643
O O14 0.000000 0.500000 0.000000
O O15 0.624810 0.484104 0.797844
O O16 0.659865 0.993536 0.795830
#
# Coordination Sequence:
#
# PCOD9300374 Si02
#       8
#     8   8   4   8   8   8   8   8
#     4  11  25  45  71 101 143 177 234 303 370 426
#     4  11  25  43  68 100 151 193 239 287 355 431
#     4  10  26  50  76 112 124 176 234 320 376 432
#     4  11  24  40  68 104 141 184 225 299 354 420
#     4  11  23  38  65 103 145 190 242 286 348 424
#     4  11  25  42  66 103 151 203 247 286 347 443
#     4  11  23  44  72 101 138 172 242 296 369 426
#     4  11  24  43  68  99 144 190 229 288 347 437
#
# _framework density 26.018084999999999
#
# number of rings (size 3 to 8) (size 9 to 14) (size 15 to 20)
#    0.000    1.067    2.667    3.200    5.600    6.933 
#    0.000    1.333    0.000    0.000    0.000    0.000 
#    0.000    0.000    0.000    0.000    0.000    0.000 
#
# Total GULP energy -167645.268180 kJ/mol
# GULP energy per Si atom -5588.175606 kJ/mol
# Density = 2.595887 g / cm^3
# Si number density = 26.018085 Si / 1000 Ang^3
#
#
#
# Elastic Constant Matrix: (Units=GPa)
#
#
# Indices 1 2 3 4 5 6 
#
# 1 87.5751 32.2462 -3.1959 0.0585 13.3634 0.0241
# 2 32.2462 119.9640 16.7978 0.1692 15.6155 0.0422
# 3 -3.1959 16.7978 73.9567 0.0952 11.9763 -0.0012
# 4 0.0585 0.1692 0.0952 20.4070 0.0138 12.5909
# 5 13.3634 15.6155 11.9763 0.0138 44.8595 -0.0214
# 6 0.0241 0.0422 -0.0012 12.5909 -0.0214 48.3068
#
#
#
# Elastic Compliance Matrix: (Units=1/GPa)
#
#
# Indices 1 2 3 4 5 6 
#
# 1 0.013235 -0.003395 0.001871 -0.000016 -0.003260 -0.000001
# 2 -0.003395 0.009778 -0.002070 -0.000066 -0.001840 0.000010
# 3 0.001871 -0.002070 0.014681 -0.000064 -0.003756 0.000016
# 4 -0.000016 -0.000066 -0.000064 0.058394 0.000020 -0.015220
# 5 -0.003260 -0.001840 -0.003756 0.000020 0.024906 0.000009
# 6 -0.000001 0.000010 0.000016 -0.015220 0.000009 0.024668
#
#
# Mechanical properties :
#
#
# Convention : Reuss Voigt Hill
#
# Bulk Modulus (GPa) = 32.78047 41.46577 37.12312
# Shear Modulus (GPa) = 30.67151 38.42450 34.54800
#
# Velocity S-wave (km/s) = 3.43717 3.84713 3.64791
# Velocity P-wave (km/s) = 5.32716 5.97543 5.66058
#
# Compressibility (1/GPa) = 0.03050597
#
# Stress axis : x y z
#
# Youngs Moduli (GPa) = 75.55920 102.27286 68.11667
#
# Poissons Ratio (x) = 0.34722 -0.12745
# Poissons Ratio (y) = 0.25653 0.14097
# Poissons Ratio (z) = -0.14137 0.21166
#
# Static dielectric constant tensor:
#      x y z
#    x 2.118750 -0.000050 0.021990 
#    y -0.000050 2.095500 -0.000150 
#    z 0.021990 -0.000150 2.084930 
# 
# From -- ./inp_files/300103.got.cif
#   From: 2010.05.17/outbox.cif.g08.bks.cpg/sg15_151_cif.got.tgz:300103.got - 2010.06.03 18:47:42.
