data_PCOD9300290
_publ_section_title
;
Structure prediction by ZEFSAII (Michael W. Deem and Ramdas Pophale) SiO2 
 PCOD9300290
Probable space group: C 2/C
;
_chemical_formula_sum "Si O2"
_cell_formula_units_Z 52
_cell_length_a 30.711751
_cell_length_b 6.492938
_cell_length_c 8.848667
_cell_angle_alpha 90.000000
_cell_angle_beta 86.815438
_cell_angle_gamma 90.000000
_cell_volume 1761.783410
_symmetry_space_group_name_H-M "C 2/C"
_symmetry_group_IT_number 15
_symmetry_cell_setting 'monoclinic'
loop_
_space_group_symop_operation_xyz
x,y,z
-x,y,1/2-z
-x,-y,-z
x,-y,1/2+z
1/2+x,1/2+y,z
1/2-x,1/2+y,1/2-z
1/2-x,1/2-y,-z
1/2+x,1/2-y,1/2+z
loop_
_atom_site_type_symbol
_atom_site_label
_atom_site_fract_x
_atom_site_fract_y
_atom_site_fract_z
Si Si1 0.079427 0.617034 0.527701
Si Si2 0.624251 0.860325 0.326556
Si Si3 0.702641 0.714081 0.705123
Si Si4 0.892760 0.865073 0.214079
Si Si5 0.786420 0.501884 0.558732
Si Si6 0.435466 0.385397 0.519158
Si Si7 0.000000 0.274884 0.250000
O O1 0.117295 0.642765 0.646607
O O2 0.069508 0.850342 0.458411
O O3 0.080384 0.375689 0.464042
O O4 0.036900 0.598109 0.652679
O O5 0.673413 0.865712 0.378748
O O6 0.610498 0.603117 0.358424
O O7 0.614031 0.125337 0.348115
O O8 0.654425 0.629667 0.688974
O O9 0.739940 0.572854 0.630954
O O10 0.709862 0.930650 0.615243
O O11 0.707293 0.770442 0.881501
O O12 0.928904 0.883248 0.339935
O O13 0.477219 0.351104 0.619785
#
# Coordination Sequence:
#
# PCOD9300290 Si02
#       7
#     8   8   8   8   8   8   4
#     4  11  24  42  72  98 140 182 237 282 370 405
#     4  11  21  43  68 100 140 189 221 294 343 432
#     4  11  26  44  71 106 146 184 242 283 352 410
#     4  12  25  46  68 103 137 196 226 296 349 435
#     4  11  24  45  69 107 143 187 234 294 336 425
#     4  11  25  43  71  98 143 178 242 284 363 413
#     4  10  26  48  70 112 134 184 232 312 348 436
#
# _framework density 29.515544999999999
#
# number of rings (size 3 to 8) (size 9 to 14) (size 15 to 20)
#    0.000    0.923    3.077    3.692    2.154    6.154 
#    0.000    0.000    0.000    0.000    0.000    0.000 
#    0.000    0.000    0.000    0.000    0.000    0.000 
#
# Total GULP energy -145544.329920 kJ/mol
# GULP energy per Si atom -5597.858843 kJ/mol
# Density = 2.944837 g / cm^3
# Si number density = 29.515545 Si / 1000 Ang^3
#
#
#
# Elastic Constant Matrix: (Units=GPa)
#
#
# Indices 1 2 3 4 5 6 
#
# 1 147.4234 57.2110 70.7803 0.0000 -22.3452 0.0000
# 2 57.2110 179.5407 84.0638 0.0000 -27.5034 0.0000
# 3 70.7803 84.0638 240.1169 0.0000 -1.4885 0.0000
# 4 0.0000 0.0000 0.0000 88.7944 0.0000 -10.6532
# 5 -22.3452 -27.5034 -1.4885 0.0000 44.5707 0.0000
# 6 0.0000 0.0000 0.0000 -10.6532 0.0000 39.7323
#
#
#
# Elastic Compliance Matrix: (Units=1/GPa)
#
#
# Indices 1 2 3 4 5 6 
#
# 1 0.008846 -0.001267 -0.002142 0.000000 0.003581 0.000000
# 2 -0.001267 0.007657 -0.002282 0.000000 0.004013 0.000000
# 3 -0.002142 -0.002282 0.005581 0.000000 -0.002296 0.000000
# 4 0.000000 0.000000 0.000000 0.011636 0.000000 0.003120
# 5 0.003581 0.004013 -0.002296 0.000000 0.026632 0.000000
# 6 0.000000 0.000000 0.000000 0.003120 0.000000 0.026005
#
#
# Mechanical properties :
#
#
# Convention : Reuss Voigt Hill
#
# Bulk Modulus (GPa) = 93.44771 110.13236 101.79004
# Shear Modulus (GPa) = 49.35528 58.28789 53.82159
#
# Velocity S-wave (km/s) = 4.09367 4.44872 4.27488
# Velocity P-wave (km/s) = 7.35346 7.98639 7.67645
#
# Compressibility (1/GPa) = 0.01070117
#
# Stress axis : x y z
#
# Youngs Moduli (GPa) = 113.04389 130.59984 179.18896
#
# Poissons Ratio (x) = 0.16553 0.38377
# Poissons Ratio (y) = 0.14328 0.40894
# Poissons Ratio (z) = 0.24210 0.29805
#
# Static dielectric constant tensor:
#      x y z
#    x 2.199590 0.000000 -0.166200 
#    y 0.000000 2.324120 0.000000 
#    z -0.166200 0.000000 2.230230 
# 
# From -- ./inp_files/68872.got.cif
#   From: 2010.05.17/outbox.cif.g08.bks.cpg/sg15_35_cif.got.tgz:68872.got - 2010.06.03 18:47:42.
