data_PCOD9300917
_publ_section_title
;
Structure prediction by ZEFSAII (Michael W. Deem and Ramdas Pophale) SiO2 
 PCOD9300917
Probable space group: C 2/C
;
_chemical_formula_sum "Si O2"
_cell_formula_units_Z 60
_cell_length_a 19.953960
_cell_length_b 12.056601
_cell_length_c 15.342395
_cell_angle_alpha 90.000000
_cell_angle_beta 39.549265
_cell_angle_gamma 90.000000
_cell_volume 2350.229493
_symmetry_space_group_name_H-M "C 2/C"
_symmetry_group_IT_number 15
_symmetry_cell_setting 'monoclinic'
loop_
_space_group_symop_operation_xyz
x,y,z
-x,y,1/2-z
-x,-y,-z
x,-y,1/2+z
1/2+x,1/2+y,z
1/2-x,1/2+y,1/2-z
1/2-x,1/2-y,-z
1/2+x,1/2-y,1/2+z
loop_
_atom_site_type_symbol
_atom_site_label
_atom_site_fract_x
_atom_site_fract_y
_atom_site_fract_z
Si Si1 0.350637 0.914570 0.709603
Si Si2 0.382385 0.544606 0.772154
Si Si3 0.802748 0.258358 0.170322
Si Si4 0.158865 0.394946 0.533775
Si Si5 0.469943 0.076581 0.903870
Si Si6 0.500000 0.715744 0.750000
Si Si7 0.544575 0.323286 0.842332
Si Si8 0.331914 0.577455 0.618984
O O1 0.300006 0.793750 0.774044
O O2 0.397636 0.911199 0.564005
O O3 0.439667 0.984215 0.669177
O O4 0.241584 0.978327 0.835352
O O5 0.478831 0.627588 0.694494
O O6 0.395078 0.413179 0.777500
O O7 0.356881 0.554519 0.695565
O O8 0.281749 0.588769 0.926598
O O9 0.893444 0.189570 0.127321
O O10 0.747888 0.319773 0.305700
O O11 0.851972 0.346877 0.054716
O O12 0.104689 0.515259 0.590492
O O13 0.097267 0.300635 0.647191
O O14 0.517162 0.198529 0.839441
O O15 0.437357 0.390154 0.966589
#
# Coordination Sequence:
#
# PCOD9300917 Si02
#       8
#     8   8   8   8   8   4   8   8
#     4  11  20  33  57  97 142 167 199 243 326 406
#     4  11  25  44  64  94 128 172 219 272 316 369
#     4  11  20  35  60  99 137 169 200 261 324 396
#     4  11  25  44  68  92 132 171 219 272 319 377
#     4  11  21  37  60  97 134 171 203 252 325 402
#     4  12  28  48  68  88 118 176 238 278 312 362
#     4  12  22  36  64  98 140 167 204 261 333 403
#     4  11  21  34  61  99 136 171 202 252 328 403
#
# _framework density 25.529420999999999
#
# number of rings (size 3 to 8) (size 9 to 14) (size 15 to 20)
#    0.000    0.800    6.667    2.400    5.600    0.000 
#    0.000    0.667    0.000    1.600    0.000    0.000 
#    0.000    0.000    0.000    0.000    0.000    0.000 
#
# Total GULP energy -167546.569208 kJ/mol
# GULP energy per Si atom -5584.885640 kJ/mol
# Density = 2.547132 g / cm^3
# Si number density = 25.529421 Si / 1000 Ang^3
#
#
#
# Elastic Constant Matrix: (Units=GPa)
#
#
# Indices 1 2 3 4 5 6 
#
# 1 42.0656 19.3404 16.5280 0.0000 7.5514 0.0000
# 2 19.3404 190.3243 45.9072 0.0000 -10.1980 0.0000
# 3 16.5280 45.9072 58.7074 0.0000 0.2625 0.0000
# 4 0.0000 0.0000 0.0000 44.0235 0.0000 -18.1734
# 5 7.5514 -10.1980 0.2625 0.0000 12.6125 0.0000
# 6 0.0000 0.0000 0.0000 -18.1734 0.0000 29.6806
#
#
#
# Elastic Compliance Matrix: (Units=1/GPa)
#
#
# Indices 1 2 3 4 5 6 
#
# 1 0.031355 -0.002705 -0.006619 0.000000 -0.020823 0.000000
# 2 -0.002705 0.007090 -0.004816 0.000000 0.007453 0.000000
# 3 -0.006619 -0.004816 0.022665 0.000000 -0.000403 0.000000
# 4 0.000000 0.000000 0.000000 0.030399 0.000000 0.018613
# 5 -0.020823 0.007453 -0.000403 0.000000 0.097787 0.000000
# 6 0.000000 0.000000 0.000000 0.018613 0.000000 0.045089
#
#
# Mechanical properties :
#
#
# Convention : Reuss Voigt Hill
#
# Bulk Modulus (GPa) = 30.46038 50.51651 40.48845
# Shear Modulus (GPa) = 18.27433 31.21810 24.74621
#
# Velocity S-wave (km/s) = 2.67837 3.50069 3.11677
# Velocity P-wave (km/s) = 4.63921 6.01417 5.37087
#
# Compressibility (1/GPa) = 0.03282953
#
# Stress axis : x y z
#
# Youngs Moduli (GPa) = 31.89304 141.04255 44.12168
#
# Poissons Ratio (x) = 0.38159 0.29203
# Poissons Ratio (y) = 0.08629 0.21248
# Poissons Ratio (z) = 0.21109 0.67924
#
# Static dielectric constant tensor:
#      x y z
#    x 2.047660 0.000000 -0.007610 
#    y 0.000000 2.084650 0.000000 
#    z -0.007610 0.000000 2.031820 
# 
# From -- ./inp_files/255547.got.cif
#   From: 2010.05.17/outbox.cif.g08.bks.cpg/sg15_128_cif.got.tgz:255547.got - 2010.06.03 18:47:42.
