data_PCOD9300639
_publ_section_title
;
Structure prediction by ZEFSAII (Michael W. Deem and Ramdas Pophale) SiO2 
 PCOD9300639
Probable space group: C 2/C
;
_chemical_formula_sum "Si O2"
_cell_formula_units_Z 48
_cell_length_a 18.416238
_cell_length_b 9.138104
_cell_length_c 15.935889
_cell_angle_alpha 90.000000
_cell_angle_beta 55.680896
_cell_angle_gamma 90.000000
_cell_volume 2214.961703
_symmetry_space_group_name_H-M "C 2/C"
_symmetry_group_IT_number 15
_symmetry_cell_setting 'monoclinic'
loop_
_space_group_symop_operation_xyz
x,y,z
-x,y,1/2-z
-x,-y,-z
x,-y,1/2+z
1/2+x,1/2+y,z
1/2-x,1/2+y,1/2-z
1/2-x,1/2-y,-z
1/2+x,1/2-y,1/2+z
loop_
_atom_site_type_symbol
_atom_site_label
_atom_site_fract_x
_atom_site_fract_y
_atom_site_fract_z
Si Si1 0.616965 0.020985 0.409595
Si Si2 0.926480 0.391319 0.228935
Si Si3 0.755675 0.450124 0.819316
Si Si4 0.240000 0.659260 0.920940
Si Si5 0.848792 0.802202 0.035794
Si Si6 0.338353 0.633756 0.357124
O O1 0.710308 0.028596 0.296843
O O2 0.594929 0.186137 0.448754
O O3 0.556718 0.950032 0.376482
O O4 0.646273 0.922698 0.469038
O O5 0.840490 0.485159 0.313585
O O6 0.896168 0.221368 0.251638
O O7 0.000000 0.414914 0.250000
O O8 0.744240 0.281287 0.846028
O O9 0.674552 0.549960 0.899601
O O10 0.316728 0.537600 0.867623
O O11 0.250000 0.750000 0.000000
O O12 0.756348 0.714972 0.084068
O O13 0.880213 0.834569 0.921476
#
# Coordination Sequence:
#
# PCOD9300639 Si02
#       6
#     8   8   8   8   8   8
#     4   9  20  29  52  79 104 135 173 219 267 318
#     4   9  20  37  52  71 103 148 185 212 257 313
#     4   9  18  31  52  79 108 129 171 217 268 320
#     4  11  19  31  53  87 111 128 166 225 284 322
#     4   9  15  31  48  78 102 129 163 218 274 308
#     4   9  18  30  53  72 107 135 167 214 268 316
#
# _framework density 21.670801999999998
#
# number of rings (size 3 to 8) (size 9 to 14) (size 15 to 20)
#    1.000    1.667    1.667    1.000    4.667    0.000 
#    0.000    1.667    0.000    1.000    0.000    0.000 
#    0.000    0.000    0.000    0.000    0.000    0.000 
#
# Total GULP energy -133646.097934 kJ/mol
# GULP energy per Si atom -5568.587414 kJ/mol
# Density = 2.162148 g / cm^3
# Si number density = 21.670802 Si / 1000 Ang^3
#
#
#
# Elastic Constant Matrix: (Units=GPa)
#
#
# Indices 1 2 3 4 5 6 
#
# 1 86.7213 36.0509 22.0801 0.0000 23.1094 0.0000
# 2 36.0509 163.0186 22.7606 0.0000 11.0567 0.0000
# 3 22.0801 22.7606 22.9136 0.0000 13.4796 0.0000
# 4 0.0000 0.0000 0.0000 22.8069 0.0000 20.6919
# 5 23.1094 11.0567 13.4796 0.0000 31.1863 0.0000
# 6 0.0000 0.0000 0.0000 20.6919 0.0000 18.8914
#
#
#
# Elastic Compliance Matrix: (Units=1/GPa)
#
#
# Indices 1 2 3 4 5 6 
#
# 1 0.016833 -0.001817 -0.009999 0.000001 -0.007507 -0.000001
# 2 -0.001817 0.007330 -0.006428 0.000002 0.001526 -0.000002
# 3 -0.009999 -0.006428 0.072363 0.000003 -0.021589 -0.000003
# 4 0.000001 0.000002 0.000003 6.998449 -0.000003 -7.665446
# 5 -0.007507 0.001526 -0.021589 -0.000003 0.046419 0.000004
# 6 -0.000001 -0.000002 -0.000003 -7.665446 0.000004 8.448946
#
#
# Mechanical properties :
#
#
# Convention : Reuss Voigt Hill
#
# Bulk Modulus (GPa) = 16.65630 48.27074 32.46352
# Shear Modulus (GPa) = 0.31955 27.36104 13.84029
#
# Velocity S-wave (km/s) = 0.38442 3.55713 2.52992
# Velocity P-wave (km/s) = 2.81065 6.26050 4.85250
#
# Compressibility (1/GPa) = 0.06003736
#
# Stress axis : x y z
#
# Youngs Moduli (GPa) = 59.40681 136.42393 13.81927
#
# Poissons Ratio (x) = 0.24792 0.13818
# Poissons Ratio (y) = 0.10796 0.08883
# Poissons Ratio (z) = 0.59402 0.87690
#
# Static dielectric constant tensor:
#      x y z
#    x 1.861320 0.000000 -0.013450 
#    y 0.000000 1.821390 0.000000 
#    z -0.013450 0.000000 1.874410 
# 
# From -- ./inp_files/251247.got.cif
#   From: 2010.05.17/outbox.cif.g08.bks.cpg/sg15_126_cif.got.tgz:251247.got - 2010.06.03 18:47:42.
