data_PCOD9300092
_publ_section_title
;
Structure prediction by ZEFSAII (Michael W. Deem and Ramdas Pophale) SiO2 
 PCOD9300092
Probable space group: C 2/C
;
_chemical_formula_sum "Si O2"
_cell_formula_units_Z 44
_cell_length_a 9.964665
_cell_length_b 23.131644
_cell_length_c 15.010757
_cell_angle_alpha 90.000000
_cell_angle_beta 37.628508
_cell_angle_gamma 90.000000
_cell_volume 2112.445050
_symmetry_space_group_name_H-M "C 2/C"
_symmetry_group_IT_number 15
_symmetry_cell_setting 'monoclinic'
loop_
_space_group_symop_operation_xyz
x,y,z
-x,y,1/2-z
-x,-y,-z
x,-y,1/2+z
1/2+x,1/2+y,z
1/2-x,1/2+y,1/2-z
1/2-x,1/2-y,-z
1/2+x,1/2-y,1/2+z
loop_
_atom_site_type_symbol
_atom_site_label
_atom_site_fract_x
_atom_site_fract_y
_atom_site_fract_z
Si Si1 0.500000 0.404431 0.750000
Si Si2 0.654202 0.513058 0.332621
Si Si3 0.064193 0.404253 0.629595
Si Si4 0.680601 0.727228 0.736033
Si Si5 0.045781 0.102378 0.830371
Si Si6 0.394006 0.178470 0.076869
O O1 0.459852 0.446234 0.684532
O O2 0.295791 0.359669 0.869462
O O3 0.500000 0.500000 0.500000
O O4 0.709342 0.449553 0.265198
O O5 0.885700 0.544901 0.227886
O O6 0.319916 0.415775 0.496192
O O7 0.000000 0.367067 0.750000
O O8 0.030867 0.369831 0.557220
O O9 0.500000 0.734988 0.750000
O O10 0.608997 0.667303 0.821929
O O11 0.690277 0.778867 0.801332
O O12 0.926125 0.714402 0.572217
O O13 0.000000 0.102505 0.750000
#
# Coordination Sequence:
#
# PCOD9300092 Si02
#       6
#     4   8   8   8   8   8
#     4  10  26  44  68  96 136 184 224 270 344 396
#     4  11  23  41  66  96 133 175 224 272 335 410
#     4  11  22  38  64  95 129 170 217 279 335 392
#     4  11  23  39  66  97 129 170 226 278 336 386
#     4  11  22  40  61  98 129 164 222 272 336 388
#     4  11  24  42  64  95 131 176 221 280 327 399
#
# _framework density 20.828945000000001
#
# number of rings (size 3 to 8) (size 9 to 14) (size 15 to 20)
#    0.000    1.091    6.364    1.091    2.545    2.909 
#    0.000    0.000    0.000    0.000    0.000    0.000 
#    0.000    0.000    0.000    0.000    0.000    0.000 
#
# Total GULP energy -122534.683122 kJ/mol
# GULP energy per Si atom -5569.758324 kJ/mol
# Density = 2.078154 g / cm^3
# Si number density = 20.828945 Si / 1000 Ang^3
#
#
#
# Elastic Constant Matrix: (Units=GPa)
#
#
# Indices 1 2 3 4 5 6 
#
# 1 64.6859 35.8360 26.7041 0.0001 -3.6631 -0.0002
# 2 35.8360 116.1743 21.6968 0.0000 -3.7435 0.0000
# 3 26.7041 21.6968 115.6700 0.0007 0.5134 -0.0017
# 4 0.0001 0.0000 0.0007 20.7980 -0.0003 12.4343
# 5 -3.6631 -3.7435 0.5134 -0.0003 17.5710 0.0007
# 6 -0.0002 0.0000 -0.0017 12.4343 0.0007 29.1764
#
#
#
# Elastic Compliance Matrix: (Units=1/GPa)
#
#
# Indices 1 2 3 4 5 6 
#
# 1 0.020154 -0.005434 -0.003648 0.000000 0.003150 0.000000
# 2 -0.005434 0.010453 -0.000711 0.000000 0.001115 0.000000
# 3 -0.003648 -0.000711 0.009626 -0.000001 -0.001193 0.000001
# 4 0.000000 0.000000 -0.000001 0.064521 0.000002 -0.027497
# 5 0.003150 0.001115 -0.001193 0.000002 0.057841 -0.000002
# 6 0.000000 0.000000 0.000001 -0.027497 -0.000002 0.045993
#
#
# Mechanical properties :
#
#
# Convention : Reuss Voigt Hill
#
# Bulk Modulus (GPa) = 48.43234 51.66710 50.04972
# Shear Modulus (GPa) = 21.27151 27.66197 24.46674
#
# Velocity S-wave (km/s) = 3.19916 3.64820 3.43104
# Velocity P-wave (km/s) = 6.07858 6.52726 6.30691
#
# Compressibility (1/GPa) = 0.02064736
#
# Stress axis : x y z
#
# Youngs Moduli (GPa) = 49.61780 95.66871 103.88482
#
# Poissons Ratio (x) = 0.51988 0.37892
# Poissons Ratio (y) = 0.26963 0.07387
# Poissons Ratio (z) = 0.18098 0.06803
#
# Static dielectric constant tensor:
#      x y z
#    x 1.780120 0.000000 0.046110 
#    y 0.000000 1.791380 0.000000 
#    z 0.046110 0.000000 1.723150 
# 
# From -- ./inp_files/200728.got.cif
#   From: 2010.05.17/outbox.cif.g08.bks.cpg/sg15_101_cif.got.tgz:200728.got - 2010.06.03 18:47:42.
