data_PCOD9300055
_publ_section_title
;
Structure prediction by ZEFSAII (Michael W. Deem and Ramdas Pophale) SiO2 
 PCOD9300055
Probable space group: C 2/C
;
_chemical_formula_sum "Si O2"
_cell_formula_units_Z 48
_cell_length_a 22.991159
_cell_length_b 11.434553
_cell_length_c 9.196766
_cell_angle_alpha 90.000000
_cell_angle_beta 108.693207
_cell_angle_gamma 90.000000
_cell_volume 2290.229582
_symmetry_space_group_name_H-M "C 2/C"
_symmetry_group_IT_number 15
_symmetry_cell_setting 'monoclinic'
loop_
_space_group_symop_operation_xyz
x,y,z
-x,y,1/2-z
-x,-y,-z
x,-y,1/2+z
1/2+x,1/2+y,z
1/2-x,1/2+y,1/2-z
1/2-x,1/2-y,-z
1/2+x,1/2-y,1/2+z
loop_
_atom_site_type_symbol
_atom_site_label
_atom_site_fract_x
_atom_site_fract_y
_atom_site_fract_z
Si Si1 0.023593 0.130004 0.038070
Si Si2 0.000000 0.301723 0.250000
Si Si3 0.185613 0.400473 0.158091
Si Si4 0.838639 0.867143 0.809376
Si Si5 0.231337 0.018284 0.511602
Si Si6 0.000000 0.712320 0.250000
Si Si7 0.561531 0.004182 0.148370
O O1 0.983202 0.215558 0.106016
O O2 0.089759 0.117557 0.163904
O O3 0.027984 0.202843 0.893220
O O4 0.000000 0.000000 0.000000
O O5 0.053548 0.390278 0.244677
O O6 0.169181 0.265174 0.145151
O O7 0.224102 0.421135 0.336396
O O8 0.124922 0.482797 0.116371
O O9 0.227028 0.432752 0.053241
O O10 0.816966 0.949934 0.924877
O O11 0.800715 0.898724 0.633645
O O12 0.947904 0.624301 0.271332
O O13 0.500000 0.000000 0.000000
#
# Coordination Sequence:
#
# PCOD9300055 Si02
#       7
#     8   4   8   8   8   4   8
#     4  12  27  43  68  98 135 181 218 270 340 404
#     4  11  23  42  62 100 131 173 218 270 342 397
#     4  11  23  43  70  96 134 172 224 275 336 390
#     4  11  24  47  66  92 136 172 228 277 323 402
#     4  10  26  43  66  97 127 181 227 272 330 389
#     4  11  25  44  66 108 135 169 222 268 348 403
#     4  11  23  41  71 104 137 169 216 281 346 390
#
# _framework density 20.958597000000001
#
# number of rings (size 3 to 8) (size 9 to 14) (size 15 to 20)
#    0.000    1.000    3.333    1.500   11.667    0.000 
#    0.000    0.000    0.000    0.000    0.000    0.000 
#    0.000    0.000    0.000    0.000    0.000    0.000 
#
# Total GULP energy -134108.292943 kJ/mol
# GULP energy per Si atom -5587.845539 kJ/mol
# Density = 2.091089 g / cm^3
# Si number density = 20.958597 Si / 1000 Ang^3
#
#
#
# Elastic Constant Matrix: (Units=GPa)
#
#
# Indices 1 2 3 4 5 6 
#
# 1 65.8761 15.6595 16.2800 0.0000 2.4310 0.0000
# 2 15.6595 124.1794 19.2578 0.0000 1.5104 0.0000
# 3 16.2800 19.2578 87.2863 0.0000 -6.9136 0.0000
# 4 0.0000 0.0000 0.0000 26.0808 0.0000 2.5030
# 5 2.4310 1.5104 -6.9136 0.0000 29.0459 0.0000
# 6 0.0000 0.0000 0.0000 2.5030 0.0000 12.8518
#
#
#
# Elastic Compliance Matrix: (Units=1/GPa)
#
#
# Indices 1 2 3 4 5 6 
#
# 1 0.016336 -0.001594 -0.002851 0.000000 -0.001963 0.000000
# 2 -0.001594 0.008516 -0.001637 0.000000 -0.000699 0.000000
# 3 -0.002851 -0.001637 0.012613 0.000000 0.003326 0.000000
# 4 0.000000 0.000000 0.000000 0.039073 0.000000 -0.007610
# 5 -0.001963 -0.000699 0.003326 0.000000 0.035421 0.000000
# 6 0.000000 0.000000 0.000000 -0.007610 0.000000 0.079292
#
#
# Mechanical properties :
#
#
# Convention : Reuss Voigt Hill
#
# Bulk Modulus (GPa) = 39.52321 42.19294 40.85807
# Shear Modulus (GPa) = 23.60188 28.67200 26.13694
#
# Velocity S-wave (km/s) = 3.35941 3.70270 3.53523
# Velocity P-wave (km/s) = 5.82634 6.20123 6.01671
#
# Compressibility (1/GPa) = 0.02530159
#
# Stress axis : x y z
#
# Youngs Moduli (GPa) = 61.21512 117.42253 79.28447
#
# Poissons Ratio (x) = 0.18718 0.22601
# Poissons Ratio (y) = 0.09758 0.12979
# Poissons Ratio (z) = 0.17450 0.19222
#
# Static dielectric constant tensor:
#      x y z
#    x 1.754840 0.000000 -0.016190 
#    y 0.000000 1.738180 0.000000 
#    z -0.016190 0.000000 1.812140 
# 
# From -- ./inp_files/60917.got.cif
#   From: 2010.05.17/outbox.cif.g08.bks.cpg/sg15_31_cif.got.tgz:60917.got - 2010.06.03 18:47:42.
