data_PCOD9300703
_publ_section_title
;
Structure prediction by ZEFSAII (Michael W. Deem and Ramdas Pophale) SiO2 
 PCOD9300703
Probable space group: C 2/C
;
_chemical_formula_sum "Si O2"
_cell_formula_units_Z 48
_cell_length_a 7.767930
_cell_length_b 10.885253
_cell_length_c 22.970775
_cell_angle_alpha 90.000000
_cell_angle_beta 71.716872
_cell_angle_gamma 90.000000
_cell_volume 1844.262070
_symmetry_space_group_name_H-M "C 2/C"
_symmetry_group_IT_number 15
_symmetry_cell_setting 'monoclinic'
loop_
_space_group_symop_operation_xyz
x,y,z
-x,y,1/2-z
-x,-y,-z
x,-y,1/2+z
1/2+x,1/2+y,z
1/2-x,1/2+y,1/2-z
1/2-x,1/2-y,-z
1/2+x,1/2-y,1/2+z
loop_
_atom_site_type_symbol
_atom_site_label
_atom_site_fract_x
_atom_site_fract_y
_atom_site_fract_z
Si Si1 0.270794 0.812497 0.620369
Si Si2 0.322305 0.429106 0.538270
Si Si3 0.375496 0.549611 0.652927
Si Si4 0.106464 0.808886 0.798588
Si Si5 0.966050 0.344788 0.014938
Si Si6 0.706617 0.076390 0.854741
O O1 0.308950 0.688686 0.651732
O O2 0.055545 0.821529 0.636725
O O3 0.367960 0.816281 0.546928
O O4 0.329030 0.931621 0.651810
O O5 0.500000 0.500000 0.500000
O O6 0.292701 0.482765 0.604886
O O7 0.163473 0.437477 0.507795
O O8 0.367127 0.286098 0.533272
O O9 0.317789 0.449037 0.707966
O O10 0.593222 0.572620 0.636539
O O11 0.000000 0.790491 0.750000
O O12 0.211417 0.685580 0.806447
O O13 0.950558 0.390583 0.082474
#
# Coordination Sequence:
#
# PCOD9300703 Si02
#       6
#     8   8   8   8   8   8
#     4  11  26  40  68 108 132 175 227 276 353 409
#     4  11  19  35  67 102 143 183 214 260 340 421
#     4  11  23  45  71  99 134 182 226 272 344 414
#     4  11  28  50  68  91 132 181 238 296 342 398
#     4  11  21  36  65 106 144 180 217 269 341 431
#     4  11  24  43  67 103 140 176 225 279 342 420
#
# _framework density 26.026668999999998
#
# number of rings (size 3 to 8) (size 9 to 14) (size 15 to 20)
#    0.000    1.000    5.000    1.500    2.333    3.333 
#    0.000    0.833    0.000    0.000    0.000    0.000 
#    0.000    0.000    0.000    0.000    0.000    0.000 
#
# Total GULP energy -133956.270445 kJ/mol
# GULP energy per Si atom -5581.511269 kJ/mol
# Density = 2.596743 g / cm^3
# Si number density = 26.026669 Si / 1000 Ang^3
#
#
#
# Elastic Constant Matrix: (Units=GPa)
#
#
# Indices 1 2 3 4 5 6 
#
# 1 64.1266 20.7004 17.8339 0.0000 20.4101 0.0000
# 2 20.7004 238.0142 37.0624 0.0000 15.8992 0.0000
# 3 17.8339 37.0624 94.4025 0.0000 19.0565 0.0000
# 4 0.0000 0.0000 0.0000 27.7690 0.0000 5.3176
# 5 20.4101 15.8992 19.0565 0.0000 28.8757 0.0000
# 6 0.0000 0.0000 0.0000 5.3176 0.0000 45.7788
#
#
#
# Elastic Compliance Matrix: (Units=1/GPa)
#
#
# Indices 1 2 3 4 5 6 
#
# 1 0.020336 -0.000742 -0.000844 0.000000 -0.013409 0.000000
# 2 -0.000742 0.004559 -0.001441 0.000000 -0.001035 0.000000
# 3 -0.000844 -0.001441 0.012734 0.000000 -0.007014 0.000000
# 4 0.000000 0.000000 0.000000 0.036831 0.000000 -0.004278
# 5 -0.013409 -0.001035 -0.007014 0.000000 0.049308 0.000000
# 6 0.000000 0.000000 0.000000 -0.004278 0.000000 0.022341
#
#
# Mechanical properties :
#
#
# Convention : Reuss Voigt Hill
#
# Bulk Modulus (GPa) = 31.66899 60.85964 46.26431
# Shear Modulus (GPa) = 30.73384 41.88113 36.30749
#
# Velocity S-wave (km/s) = 3.44009 4.01579 3.73904
# Velocity P-wave (km/s) = 5.28898 6.70346 6.03778
#
# Compressibility (1/GPa) = 0.03157664
#
# Stress axis : x y z
#
# Youngs Moduli (GPa) = 49.17404 219.32398 78.53038
#
# Poissons Ratio (x) = 0.16264 0.06627
# Poissons Ratio (y) = 0.03646 0.11316
# Poissons Ratio (z) = 0.04150 0.31604
#
# Static dielectric constant tensor:
#      x y z
#    x 2.175700 0.000000 0.100830 
#    y 0.000000 2.764600 0.000000 
#    z 0.100830 0.000000 2.227940 
# 
# From -- ./inp_files/263493.got.cif
#   From: 2010.05.17/outbox.cif.g08.bks.cpg/sg15_132_cif.got.tgz:263493.got - 2010.06.03 18:47:42.
