data_PCOD9300577
_publ_section_title
;
Structure prediction by ZEFSAII (Michael W. Deem and Ramdas Pophale) SiO2 
 PCOD9300577
Probable space group: C 2/C
;
_chemical_formula_sum "Si O2"
_cell_formula_units_Z 40
_cell_length_a 7.133856
_cell_length_b 14.685961
_cell_length_c 15.608250
_cell_angle_alpha 90.000000
_cell_angle_beta 121.620659
_cell_angle_gamma 90.000000
_cell_volume 1392.467052
_symmetry_space_group_name_H-M "C 2/C"
_symmetry_group_IT_number 15
_symmetry_cell_setting 'monoclinic'
loop_
_space_group_symop_operation_xyz
x,y,z
-x,y,1/2-z
-x,-y,-z
x,-y,1/2+z
1/2+x,1/2+y,z
1/2-x,1/2+y,1/2-z
1/2-x,1/2-y,-z
1/2+x,1/2-y,1/2+z
loop_
_atom_site_type_symbol
_atom_site_label
_atom_site_fract_x
_atom_site_fract_y
_atom_site_fract_z
Si Si1 0.833418 0.934187 0.286360
Si Si2 0.249042 0.255198 0.218671
Si Si3 0.925235 0.095218 0.409624
Si Si4 0.979645 0.266980 0.504455
Si Si5 0.521608 0.054332 0.094949
O O1 0.970608 0.994894 0.386290
O O2 0.649302 0.996377 0.197244
O O3 0.000000 0.914635 0.250000
O O4 0.754981 0.832559 0.292227
O O5 0.500000 0.234300 0.250000
O O6 0.134882 0.157145 0.187962
O O7 0.114064 0.303519 0.108594
O O8 0.070883 0.167604 0.497738
O O9 0.708287 0.077168 0.414191
O O10 0.750000 0.250000 0.500000
O O11 0.108273 0.345018 0.586030
O O12 0.500000 0.000000 0.000000
#
# Coordination Sequence:
#
# PCOD9300577 Si02
#       5
#     8   8   8   8   8
#     4  11  22  35  56  84 115 146 183 227 282 330
#     4   9  17  32  53  78 107 145 186 215 270 331
#     4   9  20  37  57  84 106 148 194 224 266 335
#     4   8  17  30  56  81 104 140 189 225 267 323
#     4  11  18  35  60  84 109 144 190 232 271 326
#
# _framework density 28.725992999999999
#
# number of rings (size 3 to 8) (size 9 to 14) (size 15 to 20)
#    1.200    1.200    2.000    1.800    0.000    0.000 
#    0.000    6.000    0.000    0.000    0.000    0.000 
#    0.000    0.000    0.000    0.000    0.000    0.000 
#
# Total GULP energy -111615.550531 kJ/mol
# GULP energy per Si atom -5580.777527 kJ/mol
# Density = 2.866061 g / cm^3
# Si number density = 28.725993 Si / 1000 Ang^3
#
#
#
# Elastic Constant Matrix: (Units=GPa)
#
#
# Indices 1 2 3 4 5 6 
#
# 1 83.0343 6.3521 16.4005 0.0000 -0.9764 0.0000
# 2 6.3521 227.6038 52.4228 0.0000 -8.1996 0.0000
# 3 16.4005 52.4228 149.0958 0.0000 0.1322 0.0000
# 4 0.0000 0.0000 0.0000 47.4561 0.0000 -9.9589
# 5 -0.9764 -8.1996 0.1322 0.0000 36.8504 0.0000
# 6 0.0000 0.0000 0.0000 -9.9589 0.0000 19.7639
#
#
#
# Elastic Compliance Matrix: (Units=1/GPa)
#
#
# Indices 1 2 3 4 5 6 
#
# 1 0.012315 -0.000022 -0.001347 0.000000 0.000326 0.000000
# 2 -0.000022 0.004823 -0.001694 0.000000 0.001079 0.000000
# 3 -0.001347 -0.001694 0.007451 0.000000 -0.000439 0.000000
# 4 0.000000 0.000000 0.000000 0.023564 0.000000 0.011874
# 5 0.000326 0.001079 -0.000439 0.000000 0.027387 0.000000
# 6 0.000000 0.000000 0.000000 0.011874 0.000000 0.056580
#
#
# Mechanical properties :
#
#
# Convention : Reuss Voigt Hill
#
# Bulk Modulus (GPa) = 54.16297 67.78721 60.97509
# Shear Modulus (GPa) = 34.62558 46.45131 40.53844
#
# Velocity S-wave (km/s) = 3.47562 4.02562 3.76068
# Velocity P-wave (km/s) = 5.91629 6.72730 6.33479
#
# Compressibility (1/GPa) = 0.01846280
#
# Stress axis : x y z
#
# Youngs Moduli (GPa) = 81.20301 207.32484 134.20150
#
# Poissons Ratio (x) = 0.00448 0.18081
# Poissons Ratio (y) = 0.00176 0.22740
# Poissons Ratio (z) = 0.10941 0.35131
#
# Static dielectric constant tensor:
#      x y z
#    x 2.264200 0.000000 -0.044690 
#    y 0.000000 2.380680 0.000000 
#    z -0.044690 0.000000 2.291210 
# 
# From -- ./inp_files/189038.got.cif
#   From: 2010.05.17/outbox.cif.g08.bks.cpg/sg15_95_cif.got.tgz:189038.got - 2010.06.03 18:47:42.
