data_PCOD9300573
_publ_section_title
;
Structure prediction by ZEFSAII (Michael W. Deem and Ramdas Pophale) SiO2 
 PCOD9300573
Probable space group: C 2/C
;
_chemical_formula_sum "Si O2"
_cell_formula_units_Z 32
_cell_length_a 23.117352
_cell_length_b 8.112464
_cell_length_c 23.968313
_cell_angle_alpha 90.000000
_cell_angle_beta 159.462568
_cell_angle_gamma 90.000000
_cell_volume 1576.927569
_symmetry_space_group_name_H-M "C 2/C"
_symmetry_group_IT_number 15
_symmetry_cell_setting 'monoclinic'
loop_
_space_group_symop_operation_xyz
x,y,z
-x,y,1/2-z
-x,-y,-z
x,-y,1/2+z
1/2+x,1/2+y,z
1/2-x,1/2+y,1/2-z
1/2-x,1/2-y,-z
1/2+x,1/2-y,1/2+z
loop_
_atom_site_type_symbol
_atom_site_label
_atom_site_fract_x
_atom_site_fract_y
_atom_site_fract_z
Si Si1 0.951755 0.234097 0.971088
Si Si2 0.663382 0.150835 0.871654
Si Si3 0.990648 0.087214 0.355541
Si Si4 0.238600 0.578377 0.688527
O O1 0.857632 0.406097 0.896156
O O2 0.835378 0.108191 0.833698
O O3 0.002736 0.171740 0.077627
O O4 0.103958 0.277551 0.067936
O O5 0.500000 0.065851 0.750000
O O6 0.593523 0.283118 0.763336
O O7 0.750000 0.250000 0.000000
O O8 0.819241 0.050938 0.988209
O O9 0.867805 0.934322 0.254723
#
# Coordination Sequence:
#
# PCOD9300573 Si02
#       4
#     8   8   8   8
#     4  11  22  35  54  84 123 154 184 215 272 346
#     4   9  19  33  54  83 110 137 190 246 286 314
#     4  11  18  35  55  82 116 145 179 234 286 320
#     4  11  22  35  53  81 123 156 185 218 267 343
#
# _framework density 20.292625999999998
#
# number of rings (size 3 to 8) (size 9 to 14) (size 15 to 20)
#    0.000    1.500    5.000    0.750    0.000    0.000 
#    0.000    0.000    0.000    0.000    0.000   22.750 
#    0.000    0.000    0.000    0.000    0.000    0.000 
#
# Total GULP energy -89164.584201 kJ/mol
# GULP energy per Si atom -5572.786513 kJ/mol
# Density = 2.024644 g / cm^3
# Si number density = 20.292626 Si / 1000 Ang^3
#
#
#
# Elastic Constant Matrix: (Units=GPa)
#
#
# Indices 1 2 3 4 5 6 
#
# 1 74.7265 2.1530 17.6296 0.0004 42.7381 0.0000
# 2 2.1530 24.4091 -3.1619 -0.0002 3.4311 -0.0001
# 3 17.6296 -3.1619 75.5580 -0.0008 27.1321 -0.0001
# 4 0.0004 -0.0002 -0.0008 28.0564 -0.0007 10.4004
# 5 42.7381 3.4311 27.1321 -0.0007 70.1623 0.0000
# 6 0.0000 -0.0001 -0.0001 10.4004 0.0000 16.2233
#
#
#
# Elastic Compliance Matrix: (Units=1/GPa)
#
#
# Indices 1 2 3 4 5 6 
#
# 1 0.020545 -0.000119 -0.000356 -0.000001 -0.012371 0.000001
# 2 -0.000119 0.041786 0.002885 0.000000 -0.003086 0.000000
# 3 -0.000356 0.002885 0.015574 0.000000 -0.005947 0.000000
# 4 -0.000001 0.000000 0.000000 0.046753 0.000001 -0.029972
# 5 -0.012371 -0.003086 -0.005947 0.000001 0.024239 -0.000001
# 6 0.000001 0.000000 0.000000 -0.029972 -0.000001 0.080854
#
#
# Mechanical properties :
#
#
# Convention : Reuss Voigt Hill
#
# Bulk Modulus (GPa) = 12.08851 23.10390 17.59620
# Shear Modulus (GPa) = 19.80140 33.42661 26.61401
#
# Velocity S-wave (km/s) = 3.12716 4.06301 3.62541
# Velocity P-wave (km/s) = 4.35991 5.78107 5.12004
#
# Compressibility (1/GPa) = 0.08272320
#
# Stress axis : x y z
#
# Youngs Moduli (GPa) = 48.67388 23.93129 64.20923
#
# Poissons Ratio (x) = 0.00286 0.02288
# Poissons Ratio (y) = 0.00581 -0.18523
# Poissons Ratio (z) = 0.01735 -0.06904
#
# Static dielectric constant tensor:
#      x y z
#    x 1.769010 0.000000 0.094570 
#    y 0.000000 1.751160 0.000000 
#    z 0.094570 0.000000 1.790200 
# 
# From -- ./inp_files/45716.got.cif
#   From: 2010.05.17/outbox.cif.g08.bks.cpg/sg15_23_cif.got.tgz:45716.got - 2010.06.03 18:47:42.
