data_PCOD9300791
_publ_section_title
;
Structure prediction by ZEFSAII (Michael W. Deem and Ramdas Pophale) SiO2 
 PCOD9300791
Probable space group: C 2/C
;
_chemical_formula_sum "Si O2"
_cell_formula_units_Z 60
_cell_length_a 26.906599
_cell_length_b 22.473971
_cell_length_c 8.285567
_cell_angle_alpha 90.000000
_cell_angle_beta 33.234836
_cell_angle_gamma 90.000000
_cell_volume 2745.986350
_symmetry_space_group_name_H-M "C 2/C"
_symmetry_group_IT_number 15
_symmetry_cell_setting 'monoclinic'
loop_
_space_group_symop_operation_xyz
x,y,z
-x,y,1/2-z
-x,-y,-z
x,-y,1/2+z
1/2+x,1/2+y,z
1/2-x,1/2+y,1/2-z
1/2-x,1/2-y,-z
1/2+x,1/2-y,1/2+z
loop_
_atom_site_type_symbol
_atom_site_label
_atom_site_fract_x
_atom_site_fract_y
_atom_site_fract_z
Si Si1 0.870553 0.977222 0.625214
Si Si2 0.762333 0.337005 0.660349
Si Si3 0.731685 0.608937 0.895739
Si Si4 0.173386 0.515657 0.056128
Si Si5 0.000000 0.816016 0.750000
Si Si6 0.409156 0.593114 0.721829
Si Si7 0.194924 0.777031 0.299254
Si Si8 0.095283 0.580850 0.572915
O O1 0.930034 0.946484 0.324136
O O2 0.770084 0.983031 0.816178
O O3 0.892914 0.042714 0.629314
O O4 0.853306 0.932889 0.822765
O O5 0.755059 0.356876 0.495828
O O6 0.772353 0.266599 0.648314
O O7 0.851855 0.363209 0.501647
O O8 0.677778 0.366787 0.987130
O O9 0.810666 0.564636 0.624998
O O10 0.714914 0.655357 0.797973
O O11 0.098425 0.468090 0.207225
O O12 0.152929 0.549577 0.275521
O O13 0.021820 0.859275 0.539340
O O14 0.088567 0.777502 0.547895
O O15 0.250000 0.750000 0.000000
O O16 0.000000 0.594044 0.750000
#
# Coordination Sequence:
#
# PCOD9300791 Si02
#       8
#     8   8   8   8   4   8   8   8
#     4  11  19  38  70 101 137 183 223 273 354 425
#     4  11  22  45  68  98 130 190 239 283 345 410
#     4  11  22  41  74  98 130 185 238 276 345 432
#     4  12  18  38  62  97 136 182 224 278 348 423
#     4  12  28  46  70 108 134 176 246 288 352 426
#     4  11  22  41  70  99 140 174 228 277 346 427
#     4  12  26  47  74  95 132 184 235 293 350 405
#     4  12  23  35  62  99 141 179 233 291 346 412
#
# _framework density 21.850071
#
# number of rings (size 3 to 8) (size 9 to 14) (size 15 to 20)
#    0.000    0.533    8.000    2.400    0.933    0.533 
#    0.000    2.000    0.000    0.000    0.000    0.000 
#    0.000    0.000    0.000    0.000    0.000    0.000 
#
# Total GULP energy -167731.653884 kJ/mol
# GULP energy per Si atom -5591.055129 kJ/mol
# Density = 2.180034 g / cm^3
# Si number density = 21.850071 Si / 1000 Ang^3
#
#
#
# Elastic Constant Matrix: (Units=GPa)
#
#
# Indices 1 2 3 4 5 6 
#
# 1 75.5349 16.6326 34.7304 0.0000 -2.7277 0.0000
# 2 16.6326 100.1527 36.9016 0.0000 1.9273 0.0000
# 3 34.7304 36.9016 78.8484 0.0000 -1.4640 0.0000
# 4 0.0000 0.0000 0.0000 37.1130 0.0000 6.1489
# 5 -2.7277 1.9273 -1.4640 0.0000 34.9805 0.0000
# 6 0.0000 0.0000 0.0000 6.1489 0.0000 49.0567
#
#
#
# Elastic Compliance Matrix: (Units=1/GPa)
#
#
# Indices 1 2 3 4 5 6 
#
# 1 0.016636 -0.000107 -0.007259 0.000000 0.000999 0.000000
# 2 -0.000107 0.012094 -0.005630 0.000000 -0.000910 0.000000
# 3 -0.007259 -0.005630 0.018524 0.000000 0.000519 0.000000
# 4 0.000000 0.000000 0.000000 0.027516 0.000000 -0.003449
# 5 0.000999 -0.000910 0.000519 0.000000 0.028737 0.000000
# 6 0.000000 0.000000 0.000000 -0.003449 0.000000 0.020817
#
#
# Mechanical properties :
#
#
# Convention : Reuss Voigt Hill
#
# Bulk Modulus (GPa) = 47.03101 47.89614 47.46358
# Shear Modulus (GPa) = 31.76511 35.31480 33.53995
#
# Velocity S-wave (km/s) = 3.81698 4.02460 3.92216
# Velocity P-wave (km/s) = 6.40288 6.60034 6.50236
#
# Compressibility (1/GPa) = 0.02126257
#
# Stress axis : x y z
#
# Youngs Moduli (GPa) = 60.10965 82.68247 53.98291
#
# Poissons Ratio (x) = 0.00889 0.39186
# Poissons Ratio (y) = 0.00646 0.30392
# Poissons Ratio (z) = 0.43633 0.46549
#
# Static dielectric constant tensor:
#      x y z
#    x 1.840670 0.000000 0.004580 
#    y 0.000000 1.801360 0.000000 
#    z 0.004580 0.000000 1.829570 
# 
# From -- ./inp_files/70949.got.cif
#   From: 2010.05.17/outbox.cif.g08.bks.cpg/sg15_36_cif.got.tgz:70949.got - 2010.06.03 18:47:42.
