data_PCOD9300291
_publ_section_title
;
Structure prediction by ZEFSAII (Michael W. Deem and Ramdas Pophale) SiO2 
 PCOD9300291
Probable space group: C 2/C
;
_chemical_formula_sum "Si O2"
_cell_formula_units_Z 36
_cell_length_a 15.471486
_cell_length_b 11.160052
_cell_length_c 16.472817
_cell_angle_alpha 90.000000
_cell_angle_beta 145.274512
_cell_angle_gamma 90.000000
_cell_volume 1620.207212
_symmetry_space_group_name_H-M "C 2/C"
_symmetry_group_IT_number 15
_symmetry_cell_setting 'monoclinic'
loop_
_space_group_symop_operation_xyz
x,y,z
-x,y,1/2-z
-x,-y,-z
x,-y,1/2+z
1/2+x,1/2+y,z
1/2-x,1/2+y,1/2-z
1/2-x,1/2-y,-z
1/2+x,1/2-y,1/2+z
loop_
_atom_site_type_symbol
_atom_site_label
_atom_site_fract_x
_atom_site_fract_y
_atom_site_fract_z
Si Si1 0.363236 0.768231 0.841037
Si Si2 0.518571 0.429076 0.361187
Si Si3 0.348755 0.085236 0.176314
Si Si4 0.969902 0.199745 0.374220
Si Si5 0.000000 0.648727 0.750000
O O1 0.391692 0.657595 0.801775
O O2 0.362510 0.882170 0.781071
O O3 0.208048 0.774724 0.770394
O O4 0.488468 0.752622 0.006337
O O5 0.500000 0.440353 0.250000
O O6 0.686513 0.379565 0.514170
O O7 0.502010 0.559226 0.389971
O O8 0.500000 0.139517 0.250000
O O9 0.369903 0.943839 0.177405
O O10 0.049518 0.270204 0.362927
#
# Coordination Sequence:
#
# PCOD9300291 Si02
#       5
#     8   8   8   8   4
#     4  12  27  45  75 106 148 188 243 295 360 428
#     4  12  27  48  75 107 150 190 240 297 367 426
#     4  10  26  48  73 104 147 187 242 294 360 430
#     4  12  27  47  75 107 147 192 242 303 356 429
#     4  10  26  48  72 104 148 188 250 286 370 426
#
# _framework density 22.219380000000001
#
# number of rings (size 3 to 8) (size 9 to 14) (size 15 to 20)
#    0.667    0.000    3.333    2.667    9.333    4.444 
#    0.000    0.000    0.000    0.000    0.000    0.000 
#    0.000    0.000    0.000    0.000    0.000    0.000 
#
# Total GULP energy -100579.115849 kJ/mol
# GULP energy per Si atom -5587.728658 kJ/mol
# Density = 2.216881 g / cm^3
# Si number density = 22.219380 Si / 1000 Ang^3
#
#
#
# Elastic Constant Matrix: (Units=GPa)
#
#
# Indices 1 2 3 4 5 6 
#
# 1 84.5608 49.3994 21.1395 0.0000 -13.8765 0.0000
# 2 49.3994 76.9977 -1.1674 0.0000 3.0442 0.0000
# 3 21.1395 -1.1674 50.2563 0.0000 -2.2561 0.0000
# 4 0.0000 0.0000 0.0000 54.3751 0.0000 -71.8925
# 5 -13.8765 3.0442 -2.2561 0.0000 48.0865 0.0000
# 6 0.0000 0.0000 0.0000 -71.8925 0.0000 157.1087
#
#
#
# Elastic Compliance Matrix: (Units=1/GPa)
#
#
# Indices 1 2 3 4 5 6 
#
# 1 0.025831 -0.017055 -0.010901 0.000000 0.008022 0.000000
# 2 -0.017055 0.024284 0.007464 0.000000 -0.006109 0.000000
# 3 -0.010901 0.007464 0.024546 0.000000 -0.002467 0.000000
# 4 0.000000 0.000000 0.000000 0.046561 0.000000 0.021306
# 5 0.008022 -0.006109 -0.002467 0.000000 0.023382 0.000000
# 6 0.000000 0.000000 0.000000 0.021306 0.000000 0.016115
#
#
# Mechanical properties :
#
#
# Convention : Reuss Voigt Hill
#
# Bulk Modulus (GPa) = 29.69476 38.95088 34.32282
# Shear Modulus (GPa) = 23.48216 61.41027 42.44622
#
# Velocity S-wave (km/s) = 3.25442 5.26290 4.37547
# Velocity P-wave (km/s) = 5.24548 7.38235 6.40368
#
# Compressibility (1/GPa) = 0.03367598
#
# Stress axis : x y z
#
# Youngs Moduli (GPa) = 38.71384 41.17972 40.73973
#
# Poissons Ratio (x) = 0.70230 0.44411
# Poissons Ratio (y) = 0.66025 -0.30406
# Poissons Ratio (z) = 0.42203 -0.30735
#
# Static dielectric constant tensor:
#      x y z
#    x 1.825610 0.000000 0.001980 
#    y 0.000000 1.806090 0.000000 
#    z 0.001980 0.000000 1.763240 
# 
# From -- ./inp_files/152806.got.cif
#   From: 2010.05.17/outbox.cif.g08.bks.cpg/sg15_77_cif.got.tgz:152806.got - 2010.06.03 18:47:42.
