data_PCOD9300386
_publ_section_title
;
Structure prediction by ZEFSAII (Michael W. Deem and Ramdas Pophale) SiO2 
 PCOD9300386
Probable space group: C 2/C
;
_chemical_formula_sum "Si O2"
_cell_formula_units_Z 48
_cell_length_a 15.305416
_cell_length_b 5.633201
_cell_length_c 27.627770
_cell_angle_alpha 90.000000
_cell_angle_beta 125.767765
_cell_angle_gamma 90.000000
_cell_volume 1932.757481
_symmetry_space_group_name_H-M "C 2/C"
_symmetry_group_IT_number 15
_symmetry_cell_setting 'monoclinic'
loop_
_space_group_symop_operation_xyz
x,y,z
-x,y,1/2-z
-x,-y,-z
x,-y,1/2+z
1/2+x,1/2+y,z
1/2-x,1/2+y,1/2-z
1/2-x,1/2-y,-z
1/2+x,1/2-y,1/2+z
loop_
_atom_site_type_symbol
_atom_site_label
_atom_site_fract_x
_atom_site_fract_y
_atom_site_fract_z
Si Si1 0.157773 0.131054 0.936584
Si Si2 0.008159 0.459224 0.833674
Si Si3 0.779477 0.660949 0.232945
Si Si4 0.139930 0.438406 0.120036
Si Si5 0.217957 0.285107 0.389232
Si Si6 0.600560 0.354670 0.518091
O O1 0.091441 0.249133 0.872070
O O2 0.207979 0.895443 0.931385
O O3 0.250000 0.250000 0.000000
O O4 0.074216 0.140407 0.952720
O O5 0.906611 0.384754 0.768821
O O6 0.949815 0.532090 0.866545
O O7 0.092383 0.650284 0.839958
O O8 0.735566 0.414425 0.242788
O O9 0.713874 0.722493 0.163616
O O10 0.220117 0.659144 0.135193
O O11 0.100930 0.372471 0.053474
O O12 0.291708 0.497930 0.433423
O O13 0.500000 0.500000 0.500000
#
# Coordination Sequence:
#
# PCOD9300386 Si02
#       6
#     8   8   8   8   8   8
#     4  12  24  43  66 105 154 191 244 313 378 457
#     4  11  26  47  79 102 151 201 249 321 393 451
#     4  10  26  50  81 109 148 201 259 319 391 466
#     4  11  26  47  76 108 146 196 262 309 389 461
#     4  12  25  46  72 110 146 199 254 311 385 469
#     4  12  26  41  71 105 150 195 250 312 381 462
#
# _framework density 24.834982
#
# number of rings (size 3 to 8) (size 9 to 14) (size 15 to 20)
#    0.000    0.667    3.333    2.500   14.000    1.333 
#    0.000    5.000    0.000    0.000    0.000    0.000 
#    0.000    0.000    0.000    0.000    0.000    0.000 
#
# Total GULP energy -133711.946094 kJ/mol
# GULP energy per Si atom -5571.331087 kJ/mol
# Density = 2.477846 g / cm^3
# Si number density = 24.834982 Si / 1000 Ang^3
#
#
#
# Elastic Constant Matrix: (Units=GPa)
#
#
# Indices 1 2 3 4 5 6 
#
# 1 101.1617 25.7132 26.4487 0.0000 31.7851 0.0000
# 2 25.7132 82.4257 42.8274 0.0000 5.4990 0.0001
# 3 26.4487 42.8274 79.4403 0.0000 12.6188 0.0000
# 4 0.0000 0.0000 0.0000 56.3011 0.0000 -0.2483
# 5 31.7851 5.4990 12.6188 0.0000 59.2192 0.0000
# 6 0.0000 0.0001 0.0000 -0.2483 0.0000 46.3127
#
#
#
# Elastic Compliance Matrix: (Units=1/GPa)
#
#
# Indices 1 2 3 4 5 6 
#
# 1 0.013056 -0.002660 -0.001903 0.000000 -0.006355 0.000000
# 2 -0.002660 0.017403 -0.008764 0.000000 0.001679 0.000000
# 3 -0.001903 -0.008764 0.018273 0.000000 -0.002058 0.000000
# 4 0.000000 0.000000 0.000000 0.017762 0.000000 0.000095
# 5 -0.006355 0.001679 -0.002058 0.000000 0.020580 0.000000
# 6 0.000000 0.000000 0.000000 0.000095 0.000000 0.021593
#
#
# Mechanical properties :
#
#
# Convention : Reuss Voigt Hill
#
# Bulk Modulus (GPa) = 45.29231 50.33405 47.81318
# Shear Modulus (GPa) = 35.04345 43.56915 39.30630
#
# Velocity S-wave (km/s) = 3.76047 4.19304 3.98263
# Velocity P-wave (km/s) = 6.09358 6.61464 6.35945
#
# Compressibility (1/GPa) = 0.02207880
#
# Stress axis : x y z
#
# Youngs Moduli (GPa) = 76.59572 57.46031 54.72476
#
# Poissons Ratio (x) = 0.15284 0.10416
# Poissons Ratio (y) = 0.20374 0.47958
# Poissons Ratio (z) = 0.14578 0.50355
#
# Static dielectric constant tensor:
#      x y z
#    x 2.087290 0.000000 0.006670 
#    y 0.000000 2.036500 0.000000 
#    z 0.006670 0.000000 1.872790 
# 
# From -- ./inp_files/312247.got.cif
#   From: 2010.05.17/outbox.cif.g08.bks.cpg/sg15_157_cif.got.tgz:312247.got - 2010.06.03 18:47:42.
