data_PCOD9300340
_publ_section_title
;
Structure prediction by ZEFSAII (Michael W. Deem and Ramdas Pophale) SiO2 
 PCOD9300340
Probable space group: C 2/C
;
_chemical_formula_sum "Si O2"
_cell_formula_units_Z 56
_cell_length_a 5.385046
_cell_length_b 14.544150
_cell_length_c 29.755392
_cell_angle_alpha 90.000000
_cell_angle_beta 82.332871
_cell_angle_gamma 90.000000
_cell_volume 2309.634962
_symmetry_space_group_name_H-M "C 2/C"
_symmetry_group_IT_number 15
_symmetry_cell_setting 'monoclinic'
loop_
_space_group_symop_operation_xyz
x,y,z
-x,y,1/2-z
-x,-y,-z
x,-y,1/2+z
1/2+x,1/2+y,z
1/2-x,1/2+y,1/2-z
1/2-x,1/2-y,-z
1/2+x,1/2-y,1/2+z
loop_
_atom_site_type_symbol
_atom_site_label
_atom_site_fract_x
_atom_site_fract_y
_atom_site_fract_z
Si Si1 0.957703 0.609024 0.825526
Si Si2 0.818172 0.039682 0.297778
Si Si3 0.547217 0.365632 0.954521
Si Si4 0.313695 0.811195 0.098706
Si Si5 0.991535 0.609395 0.993711
Si Si6 0.776001 0.741278 0.220697
Si Si7 0.057661 0.027839 0.886358
O O1 0.737309 0.666441 0.808211
O O2 0.842221 0.540291 0.864847
O O3 0.128920 0.543713 0.792057
O O4 0.112298 0.681336 0.851064
O O5 0.000000 0.042353 0.250000
O O6 0.932348 0.015112 0.344053
O O7 0.702166 0.142119 0.303636
O O8 0.661803 0.293611 0.916316
O O9 0.747321 0.359628 0.989869
O O10 0.538254 0.463541 0.929858
O O11 0.261186 0.350984 0.977516
O O12 0.065281 0.873058 0.100513
O O13 0.498285 0.860090 0.058174
O O14 0.000000 0.500000 0.000000
O O15 0.500000 0.742673 0.250000
O O16 0.000000 0.747707 0.250000
#
# Coordination Sequence:
#
# PCOD9300340 Si02
#       7
#     8   8   8   8   8   8   8
#     4  11  27  45  77 103 151 192 248 303 378 444
#     4  10  26  49  73 108 144 196 248 309 374 451
#     4  12  27  46  75 106 150 193 244 306 368 439
#     4  11  26  46  70 109 144 196 243 304 365 448
#     4  12  25  47  76 105 148 194 248 303 368 441
#     4  11  28  48  74 107 143 187 247 308 370 447
#     4  11  26  44  73 105 145 194 242 305 371 446
#
# _framework density 24.246258000000001
#
# number of rings (size 3 to 8) (size 9 to 14) (size 15 to 20)
#    0.000    0.857    1.429    3.000   16.000    1.143 
#    0.000    0.000    0.000    0.000    0.000    0.000 
#    0.000    0.000    0.000    0.000    0.000    0.000 
#
# Total GULP energy -156612.510081 kJ/mol
# GULP energy per Si atom -5593.303931 kJ/mol
# Density = 2.419107 g / cm^3
# Si number density = 24.246258 Si / 1000 Ang^3
#
#
#
# Elastic Constant Matrix: (Units=GPa)
#
#
# Indices 1 2 3 4 5 6 
#
# 1 103.7525 21.0136 39.7682 0.0000 8.2786 0.0000
# 2 21.0136 84.1286 -1.6647 0.0000 -3.4175 0.0000
# 3 39.7682 -1.6647 65.8260 0.0000 0.3650 0.0000
# 4 0.0000 0.0000 0.0000 49.8552 0.0000 -16.4981
# 5 8.2786 -3.4175 0.3650 0.0000 46.2242 0.0000
# 6 0.0000 0.0000 0.0000 -16.4981 0.0000 1.5860
#
#
#
# Elastic Compliance Matrix: (Units=1/GPa)
#
#
# Indices 1 2 3 4 5 6 
#
# 1 0.013846 -0.003735 -0.008445 0.000000 -0.002689 0.000000
# 2 -0.003735 0.012936 0.002575 0.000000 0.001605 0.000000
# 3 -0.008445 0.002575 0.020350 0.000000 0.001542 0.000000
# 4 0.000000 0.000000 0.000000 -0.008213 0.000000 -0.085431
# 5 -0.002689 0.001605 0.001542 0.000000 0.022222 0.000000
# 6 0.000000 0.000000 0.000000 -0.085431 0.000000 -0.258160
#
#
# Mechanical properties :
#
#
# Convention : Reuss Voigt Hill
#
# Bulk Modulus (GPa) = 35.81410 41.32683 38.57046
# Shear Modulus (GPa) = -29.67311 32.50573 1.41631
#
# Velocity S-wave (km/s) = -3.50211 3.66546 0.76512
# Velocity P-wave (km/s) = 1.24499 5.91572 4.08936
#
# Compressibility (1/GPa) = 0.02792197
#
# Stress axis : x y z
#
# Youngs Moduli (GPa) = 72.22240 77.30611 49.14044
#
# Poissons Ratio (x) = 0.28872 0.41497
# Poissons Ratio (y) = 0.26974 -0.12652
# Poissons Ratio (z) = 0.60989 -0.19903
#
# Static dielectric constant tensor:
#      x y z
#    x 2.051460 0.000000 0.071820 
#    y 0.000000 1.957220 0.000000 
#    z 0.071820 0.000000 2.024760 
# 
# From -- ./inp_files/305388.got.cif
#   From: 2010.05.17/outbox.cif.g08.bks.cpg/sg15_153_cif.got.tgz:305388.got - 2010.06.03 18:47:42.
