data_PCOD9300363
_publ_section_title
;
Structure prediction by ZEFSAII (Michael W. Deem and Ramdas Pophale) SiO2 
 PCOD9300363
Probable space group: C 2/C
;
_chemical_formula_sum "Si O2"
_cell_formula_units_Z 52
_cell_length_a 19.189695
_cell_length_b 8.098700
_cell_length_c 14.205383
_cell_angle_alpha 90.000000
_cell_angle_beta 78.162582
_cell_angle_gamma 90.000000
_cell_volume 2160.731696
_symmetry_space_group_name_H-M "C 2/C"
_symmetry_group_IT_number 15
_symmetry_cell_setting 'monoclinic'
loop_
_space_group_symop_operation_xyz
x,y,z
-x,y,1/2-z
-x,-y,-z
x,-y,1/2+z
1/2+x,1/2+y,z
1/2-x,1/2+y,1/2-z
1/2-x,1/2-y,-z
1/2+x,1/2-y,1/2+z
loop_
_atom_site_type_symbol
_atom_site_label
_atom_site_fract_x
_atom_site_fract_y
_atom_site_fract_z
Si Si1 0.952336 0.626534 0.456199
Si Si2 0.836281 0.403341 0.138761
Si Si3 0.228170 0.896313 0.434804
Si Si4 0.500000 0.500000 0.500000
Si Si5 0.133372 0.563677 0.185031
Si Si6 0.680016 0.567593 0.628674
Si Si7 0.874108 0.039935 0.177712
O O1 0.875666 0.605041 0.528599
O O2 0.938447 0.562341 0.355109
O O3 0.000000 0.500000 0.500000
O O4 0.979988 0.812950 0.459604
O O5 0.876212 0.514382 0.204331
O O6 0.757658 0.473464 0.148016
O O7 0.834646 0.213933 0.172397
O O8 0.250000 0.750000 0.500000
O O9 0.173295 0.896864 0.361616
O O10 0.303552 0.946878 0.370395
O O11 0.185863 0.020525 0.518004
O O12 0.551275 0.541536 0.395599
O O13 0.164625 0.743306 0.153428
O O14 0.622905 0.478436 0.710596
#
# Coordination Sequence:
#
# PCOD9300363 Si02
#       7
#     8   8   8   4   8   8   8
#     4  11  27  49  75  99 147 194 248 303 362 443
#     4  11  22  44  70 105 142 180 231 305 363 427
#     4  12  25  39  71 107 145 188 240 298 375 429
#     4  10  26  50  72  98 146 194 236 296 368 436
#     4  12  25  43  73 109 142 185 245 303 370 436
#     4  12  22  40  72 107 140 181 235 299 363 430
#     4  11  25  46  69 104 145 186 234 297 363 446
#
# _framework density 24.065923999999999
#
# number of rings (size 3 to 8) (size 9 to 14) (size 15 to 20)
#    0.000    0.615    4.615    3.231    6.462    0.615 
#    2.769    2.308    0.000    0.000    0.000    0.000 
#    0.000    0.000    0.000    0.000    0.000    0.000 
#
# Total GULP energy -144831.801320 kJ/mol
# GULP energy per Si atom -5570.453897 kJ/mol
# Density = 2.401115 g / cm^3
# Si number density = 24.065924 Si / 1000 Ang^3
#
#
#
# Elastic Constant Matrix: (Units=GPa)
#
#
# Indices 1 2 3 4 5 6 
#
# 1 37.5804 -0.1131 25.2075 0.0000 9.8895 0.0000
# 2 -0.1131 45.9721 23.4604 0.0000 5.5545 0.0000
# 3 25.2075 23.4604 114.8242 0.0000 1.9494 0.0000
# 4 0.0000 0.0000 0.0000 45.4870 0.0000 0.3309
# 5 9.8895 5.5545 1.9494 0.0000 48.5354 0.0000
# 6 0.0000 0.0000 0.0000 0.3309 0.0000 25.0384
#
#
#
# Elastic Compliance Matrix: (Units=1/GPa)
#
#
# Indices 1 2 3 4 5 6 
#
# 1 0.034207 0.005278 -0.008465 0.000000 -0.007234 0.000000
# 2 0.005278 0.025426 -0.006290 0.000000 -0.003733 0.000000
# 3 -0.008465 -0.006290 0.011819 0.000000 0.001970 0.000000
# 4 0.000000 0.000000 0.000000 0.021986 0.000000 -0.000291
# 5 -0.007234 -0.003733 0.001970 0.000000 0.022426 0.000000
# 6 0.000000 0.000000 0.000000 -0.000291 0.000000 0.039942
#
#
# Mechanical properties :
#
#
# Convention : Reuss Voigt Hill
#
# Bulk Modulus (GPa) = 19.04832 32.83179 25.94005
# Shear Modulus (GPa) = 26.00628 33.80030 29.90329
#
# Velocity S-wave (km/s) = 3.29085 3.75172 3.52882
# Velocity P-wave (km/s) = 4.72989 5.69554 5.23503
#
# Compressibility (1/GPa) = 0.05249808
#
# Stress axis : x y z
#
# Youngs Moduli (GPa) = 29.23352 39.32922 84.60885
#
# Poissons Ratio (x) = -0.20759 0.71623
# Poissons Ratio (y) = -0.15430 0.53222
# Poissons Ratio (z) = 0.24747 0.24739
#
# Static dielectric constant tensor:
#      x y z
#    x 2.255950 0.000000 -0.032890 
#    y 0.000000 1.959960 0.000000 
#    z -0.032890 0.000000 1.920150 
# 
# From -- ./inp_files/171355.got.cif
#   From: 2010.05.17/outbox.cif.g08.bks.cpg/sg15_86_cif.got.tgz:171355.got - 2010.06.03 18:47:42.
