data_PCOD9300499
_publ_section_title
;
Structure prediction by ZEFSAII (Michael W. Deem and Ramdas Pophale) SiO2 
 PCOD9300499
Probable space group: C 2/C
;
_chemical_formula_sum "Si O2"
_cell_formula_units_Z 64
_cell_length_a 8.368600
_cell_length_b 20.989146
_cell_length_c 20.553115
_cell_angle_alpha 90.000000
_cell_angle_beta 87.389206
_cell_angle_gamma 90.000000
_cell_volume 3606.402552
_symmetry_space_group_name_H-M "C 2/C"
_symmetry_group_IT_number 15
_symmetry_cell_setting 'monoclinic'
loop_
_space_group_symop_operation_xyz
x,y,z
-x,y,1/2-z
-x,-y,-z
x,-y,1/2+z
1/2+x,1/2+y,z
1/2-x,1/2+y,1/2-z
1/2-x,1/2-y,-z
1/2+x,1/2-y,1/2+z
loop_
_atom_site_type_symbol
_atom_site_label
_atom_site_fract_x
_atom_site_fract_y
_atom_site_fract_z
Si Si1 0.846193 0.265934 0.599563
Si Si2 0.175134 0.804218 0.728988
Si Si3 0.102715 0.949587 0.686280
Si Si4 0.895300 0.078200 0.066017
Si Si5 0.865772 0.476050 0.452812
Si Si6 0.634057 0.157152 0.147165
Si Si7 0.318606 0.352263 0.007029
Si Si8 0.464550 0.977916 0.677065
O O1 0.757779 0.264914 0.670454
O O2 0.750572 0.314527 0.554141
O O3 0.848391 0.199023 0.562782
O O4 0.020599 0.294588 0.611054
O O5 0.143617 0.875868 0.702591
O O6 0.287276 0.812731 0.789872
O O7 0.000000 0.778435 0.750000
O O8 0.274149 0.981213 0.671212
O O9 0.000000 0.973937 0.750000
O O10 0.995210 0.950719 0.624340
O O11 0.775841 0.130053 0.099804
O O12 0.019390 0.111833 0.016062
O O13 0.785743 0.023213 0.038079
O O14 0.809185 0.405286 0.469677
O O15 0.000000 0.500000 0.500000
O O16 0.938197 0.484006 0.379273
O O17 0.526829 0.095356 0.168395
O O18 0.500000 0.997947 0.750000
#
# Coordination Sequence:
#
# PCOD9300499 Si02
#       8
#     8   8   8   8   8   8   8   8
#     4  11  22  36  59  80 121 152 187 242 279 350
#     4  11  18  32  57  89 115 140 188 241 287 336
#     4  11  17  30  56  92 116 137 182 242 300 335
#     4  11  20  35  60  84 117 145 192 249 285 346
#     4  11  24  39  61  85 114 155 198 245 298 353
#     4  11  18  31  58  91 110 143 188 241 293 329
#     4  11  23  40  54  82 117 159 195 228 292 345
#     4  11  19  33  57  87 118 144 190 245 293 342
#
# _framework density 17.746214999999999
#
# number of rings (size 3 to 8) (size 9 to 14) (size 15 to 20)
#    0.000    1.000    6.250    3.750    0.000    0.500 
#    0.000    1.875    0.000    6.000    0.000    0.000 
#    0.000    0.000    0.000    0.000    0.000    0.000 
#
# Total GULP energy -178789.303119 kJ/mol
# GULP energy per Si atom -5587.165722 kJ/mol
# Density = 1.770582 g / cm^3
# Si number density = 17.746215 Si / 1000 Ang^3
#
#
#
# Elastic Constant Matrix: (Units=GPa)
#
#
# Indices 1 2 3 4 5 6 
#
# 1 115.9703 33.2468 22.9226 0.0000 -3.6353 0.0000
# 2 33.2468 58.5044 39.6147 0.0000 -7.6400 0.0000
# 3 22.9226 39.6147 57.5255 0.0000 -6.3253 0.0000
# 4 0.0000 0.0000 0.0000 11.7909 0.0000 9.1581
# 5 -3.6353 -7.6400 -6.3253 0.0000 41.5257 0.0000
# 6 0.0000 0.0000 0.0000 9.1581 0.0000 14.6881
#
#
#
# Elastic Compliance Matrix: (Units=1/GPa)
#
#
# Indices 1 2 3 4 5 6 
#
# 1 0.010303 -0.005781 -0.000145 0.000000 -0.000184 0.000000
# 2 -0.005781 0.035544 -0.021876 0.000000 0.002701 0.000000
# 3 -0.000145 -0.021876 0.032609 0.000000 0.000929 0.000000
# 4 0.000000 0.000000 0.000000 0.164453 0.000000 -0.102538
# 5 -0.000184 0.002701 0.000929 0.000000 0.024704 0.000000
# 6 0.000000 0.000000 0.000000 -0.102538 0.000000 0.132015
#
#
# Mechanical properties :
#
#
# Convention : Reuss Voigt Hill
#
# Bulk Modulus (GPa) = 43.76155 47.06314 45.41234
# Shear Modulus (GPa) = 10.80266 22.68203 16.74235
#
# Velocity S-wave (km/s) = 2.46992 3.57898 3.07487
# Velocity P-wave (km/s) = 5.73125 6.60730 6.18481
#
# Compressibility (1/GPa) = 0.02285111
#
# Stress axis : x y z
#
# Youngs Moduli (GPa) = 97.05848 28.13430 30.66677
#
# Poissons Ratio (x) = 0.16265 0.00443
# Poissons Ratio (y) = 0.56110 0.67088
# Poissons Ratio (z) = 0.01404 0.61548
#
# Static dielectric constant tensor:
#      x y z
#    x 1.623890 0.000000 -0.009140 
#    y 0.000000 1.581770 0.000000 
#    z -0.009140 0.000000 1.609480 
# 
# From -- ./inp_files/232683.got.cif
#   From: 2010.05.17/outbox.cif.g08.bks.cpg/sg15_117_cif.got.tgz:232683.got - 2010.06.03 18:47:42.
