data_PCOD9300881
_publ_section_title
;
Structure prediction by ZEFSAII (Michael W. Deem and Ramdas Pophale) SiO2 
 PCOD9300881
Probable space group: C 2/C
;
_chemical_formula_sum "Si O2"
_cell_formula_units_Z 64
_cell_length_a 19.433956
_cell_length_b 12.502166
_cell_length_c 11.520688
_cell_angle_alpha 90.000000
_cell_angle_beta 88.548542
_cell_angle_gamma 90.000000
_cell_volume 2798.243625
_symmetry_space_group_name_H-M "C 2/C"
_symmetry_group_IT_number 15
_symmetry_cell_setting 'monoclinic'
loop_
_space_group_symop_operation_xyz
x,y,z
-x,y,1/2-z
-x,-y,-z
x,-y,1/2+z
1/2+x,1/2+y,z
1/2-x,1/2+y,1/2-z
1/2-x,1/2-y,-z
1/2+x,1/2-y,1/2+z
loop_
_atom_site_type_symbol
_atom_site_label
_atom_site_fract_x
_atom_site_fract_y
_atom_site_fract_z
Si Si1 0.332600 0.278961 0.511687
Si Si2 0.453213 0.865024 0.362071
Si Si3 0.819573 0.031030 0.851453
Si Si4 0.298318 0.326409 0.134278
Si Si5 0.413512 0.832945 0.595502
Si Si6 0.895955 0.596778 0.355102
Si Si7 0.666235 0.291004 0.715455
Si Si8 0.700472 0.024378 0.503914
O O1 0.250000 0.250000 0.500000
O O2 0.351527 0.389974 0.445994
O O3 0.379669 0.187956 0.450400
O O4 0.346029 0.290131 0.646755
O O5 0.500000 0.837067 0.250000
O O6 0.471852 0.830424 0.493658
O O7 0.381841 0.801529 0.337827
O O8 0.446044 0.994209 0.363589
O O9 0.821641 0.089425 0.728888
O O10 0.845451 0.910009 0.834632
O O11 0.740683 0.033827 0.900065
O O12 0.365141 0.269562 0.083069
O O13 0.246337 0.240689 0.193321
O O14 0.253018 0.384431 0.040164
O O15 0.417985 0.849487 0.733037
O O16 0.367858 0.932498 0.552913
O O17 0.821406 0.536683 0.377252
#
# Coordination Sequence:
#
# PCOD9300881 Si02
#       8
#     8   8   8   8   8   8   8   8
#     4  12  23  39  61 101 149 174 205 263 334 413
#     4  11  28  47  68  92 122 177 236 283 326 385
#     4  12  23  34  60  96 141 174 211 247 334 413
#     4  12  20  34  57  96 133 169 206 251 331 406
#     4  11  21  37  61  89 130 164 209 270 326 389
#     4  11  22  39  62  93 129 174 216 272 333 379
#     4  12  24  41  65  95 138 179 214 271 332 394
#     4  11  20  30  53  89 130 178 202 245 308 397
#
# _framework density 22.871490999999999
#
# number of rings (size 3 to 8) (size 9 to 14) (size 15 to 20)
#    0.000    0.500    7.500    2.625    3.500    0.500 
#    0.000    0.000    0.000    3.750    0.000    0.000 
#    0.000    0.000    0.000    0.000    0.000    0.000 
#
# Total GULP energy -178576.328602 kJ/mol
# GULP energy per Si atom -5580.510269 kJ/mol
# Density = 2.281943 g / cm^3
# Si number density = 22.871491 Si / 1000 Ang^3
#
#
#
# Elastic Constant Matrix: (Units=GPa)
#
#
# Indices 1 2 3 4 5 6 
#
# 1 55.0801 22.7228 29.7549 0.0000 -14.5729 0.0000
# 2 22.7228 127.6948 48.4424 0.0000 -3.5626 0.0000
# 3 29.7549 48.4424 176.4476 0.0000 -32.1991 0.0000
# 4 0.0000 0.0000 0.0000 28.1283 0.0000 -0.8843
# 5 -14.5729 -3.5626 -32.1991 0.0000 27.6380 0.0000
# 6 0.0000 0.0000 0.0000 -0.8843 0.0000 12.2565
#
#
#
# Elastic Compliance Matrix: (Units=1/GPa)
#
#
# Indices 1 2 3 4 5 6 
#
# 1 0.022865 -0.003390 -0.001022 0.000000 0.010429 0.000000
# 2 -0.003390 0.009343 -0.002667 0.000000 -0.003690 0.000000
# 3 -0.001022 -0.002667 0.008142 0.000000 0.008603 0.000000
# 4 0.000000 0.000000 0.000000 0.035632 0.000000 0.002571
# 5 0.010429 -0.003690 0.008603 0.000000 0.051228 0.000000
# 6 0.000000 0.000000 0.000000 0.002571 0.000000 0.081775
#
#
# Mechanical properties :
#
#
# Convention : Reuss Voigt Hill
#
# Bulk Modulus (GPa) = 38.17912 62.34028 50.25970
# Shear Modulus (GPa) = 21.56347 30.82471 26.19409
#
# Velocity S-wave (km/s) = 3.07385 3.67513 3.38786
# Velocity P-wave (km/s) = 5.41546 6.73237 6.10950
#
# Compressibility (1/GPa) = 0.02619233
#
# Stress axis : x y z
#
# Youngs Moduli (GPa) = 43.73450 107.03020 122.82329
#
# Poissons Ratio (x) = 0.36284 0.12553
# Poissons Ratio (y) = 0.14826 0.32754
# Poissons Ratio (z) = 0.04470 0.28543
#
# Static dielectric constant tensor:
#      x y z
#    x 1.920220 0.000000 -0.014860 
#    y 0.000000 1.916460 0.000000 
#    z -0.014860 0.000000 1.906530 
# 
# From -- ./inp_files/117982.got.cif
#   From: 2010.05.17/outbox.cif.g08.bks.cpg/sg15_59_cif.got.tgz:117982.got - 2010.06.03 18:47:42.
