data_PCOD9300624
_publ_section_title
;
Structure prediction by ZEFSAII (Michael W. Deem and Ramdas Pophale) SiO2 
 PCOD9300624
Probable space group: C 2/C
;
_chemical_formula_sum "Si O2"
_cell_formula_units_Z 56
_cell_length_a 14.617949
_cell_length_b 15.939604
_cell_length_c 22.140745
_cell_angle_alpha 90.000000
_cell_angle_beta 29.570655
_cell_angle_gamma 90.000000
_cell_volume 2545.893635
_symmetry_space_group_name_H-M "C 2/C"
_symmetry_group_IT_number 15
_symmetry_cell_setting 'monoclinic'
loop_
_space_group_symop_operation_xyz
x,y,z
-x,y,1/2-z
-x,-y,-z
x,-y,1/2+z
1/2+x,1/2+y,z
1/2-x,1/2+y,1/2-z
1/2-x,1/2-y,-z
1/2+x,1/2-y,1/2+z
loop_
_atom_site_type_symbol
_atom_site_label
_atom_site_fract_x
_atom_site_fract_y
_atom_site_fract_z
Si Si1 0.758121 0.625765 0.622304
Si Si2 0.500000 0.221605 0.250000
Si Si3 0.500000 0.476729 0.750000
Si Si4 0.069537 0.689181 0.648943
Si Si5 0.948170 0.858452 0.884591
Si Si6 0.595181 0.935313 0.346892
Si Si7 0.647649 0.912041 0.566871
Si Si8 0.983216 0.989928 0.081607
O O1 0.649412 0.713385 0.694689
O O2 0.634789 0.542295 0.703942
O O3 0.919938 0.597483 0.574992
O O4 0.792330 0.628672 0.531071
O O5 0.425173 0.158705 0.345032
O O6 0.396579 0.420540 0.858754
O O7 0.973447 0.779186 0.696081
O O8 0.290742 0.683746 0.516842
O O9 0.000000 0.648538 0.750000
O O10 0.008279 0.636487 0.628446
O O11 0.059738 0.918832 0.864430
O O12 0.808872 0.933980 0.201414
O O13 0.501207 0.019601 0.373215
O O14 0.822569 0.957165 0.500489
O O15 0.000000 0.000000 0.000000
#
# Coordination Sequence:
#
# PCOD9300624 Si02
#       8
#     8   4   4   8   8   8   8   8
#     4  11  23  45  72 101 141 189 245 297 358 436
#     4  11  26  46  73 108 150 194 241 314 376 437
#     4  11  18  44  71  94 128 184 239 284 352 425
#     4  11  24  41  66  99 142 183 233 294 358 422
#     4  11  22  43  68  98 136 184 232 293 355 425
#     4  12  25  42  72 107 141 189 246 296 358 448
#     4  12  25  47  73 105 148 192 246 306 370 443
#     4  12  24  42  71 102 142 189 240 295 367 439
#
# _framework density 21.996206000000001
#
# number of rings (size 3 to 8) (size 9 to 14) (size 15 to 20)
#    0.000    0.571    5.000    3.429    1.000    2.286 
#    0.000    2.857    0.000    0.000    0.000    0.000 
#    0.000    0.000    0.000    0.000    0.000    0.000 
#
# Total GULP energy -155909.329125 kJ/mol
# GULP energy per Si atom -5568.190326 kJ/mol
# Density = 2.194614 g / cm^3
# Si number density = 21.996206 Si / 1000 Ang^3
#
#
#
# Elastic Constant Matrix: (Units=GPa)
#
#
# Indices 1 2 3 4 5 6 
#
# 1 99.8699 14.8972 27.9492 -0.0056 15.7227 -0.0007
# 2 14.8972 117.1600 17.2542 -0.0069 -0.1587 0.0007
# 3 27.9492 17.2542 69.6475 -0.0222 15.7684 -0.0012
# 4 -0.0056 -0.0069 -0.0222 84.6081 0.0053 21.3714
# 5 15.7227 -0.1587 15.7684 0.0053 31.2838 0.0015
# 6 -0.0007 0.0007 -0.0012 21.3714 0.0015 3.0338
#
#
#
# Elastic Compliance Matrix: (Units=1/GPa)
#
#
# Indices 1 2 3 4 5 6 
#
# 1 0.011808 -0.000983 -0.003556 0.000001 -0.004147 -0.000004
# 2 -0.000983 0.008987 -0.002206 -0.000001 0.001652 0.000005
# 3 -0.003556 -0.002206 0.017981 -0.000003 -0.007287 0.000029
# 4 0.000001 -0.000001 -0.000003 -0.015165 -0.000002 0.106827
# 5 -0.004147 0.001652 -0.007287 -0.000002 0.037731 -0.000011
# 6 -0.000004 0.000005 0.000029 0.106827 -0.000011 -0.422923
#
#
# Mechanical properties :
#
#
# Convention : Reuss Voigt Hill
#
# Bulk Modulus (GPa) = 39.54691 45.20872 42.37782
# Shear Modulus (GPa) = -14.72058 38.89026 12.08484
#
# Velocity S-wave (km/s) = -2.58976 4.20937 2.34648
# Velocity P-wave (km/s) = 3.01256 6.65001 5.16228
#
# Compressibility (1/GPa) = 0.02528643
#
# Stress axis : x y z
#
# Youngs Moduli (GPa) = 84.69038 111.26612 55.61317
#
# Poissons Ratio (x) = 0.10941 0.19775
# Poissons Ratio (y) = 0.08328 0.12267
# Poissons Ratio (z) = 0.30115 0.24544
#
# Static dielectric constant tensor:
#      x y z
#    x -24.698320 0.000340 23.934920 
#    y 0.000340 1.850300 -0.000300 
#    z 23.934920 -0.000300 -19.603630 
# 
# From -- ./inp_files/274485.got.cif
#   From: 2010.05.17/outbox.cif.g08.bks.cpg/sg15_138_cif.got.tgz:274485.got - 2010.06.03 18:47:42.
