data_PCOD9300482
_publ_section_title
;
Structure prediction by ZEFSAII (Michael W. Deem and Ramdas Pophale) SiO2 
 PCOD9300482
Probable space group: C 2/C
;
_chemical_formula_sum "Si O2"
_cell_formula_units_Z 28
_cell_length_a 23.462040
_cell_length_b 4.672480
_cell_length_c 8.814892
_cell_angle_alpha 90.000000
_cell_angle_beta 67.476682
_cell_angle_gamma 90.000000
_cell_volume 892.631709
_symmetry_space_group_name_H-M "C 2/C"
_symmetry_group_IT_number 15
_symmetry_cell_setting 'monoclinic'
loop_
_space_group_symop_operation_xyz
x,y,z
-x,y,1/2-z
-x,-y,-z
x,-y,1/2+z
1/2+x,1/2+y,z
1/2-x,1/2+y,1/2-z
1/2-x,1/2-y,-z
1/2+x,1/2-y,1/2+z
loop_
_atom_site_type_symbol
_atom_site_label
_atom_site_fract_x
_atom_site_fract_y
_atom_site_fract_z
Si Si1 0.329392 0.235817 0.152465
Si Si2 0.418487 0.262561 0.565537
Si Si3 0.250000 0.750000 0.000000
Si Si4 0.750000 0.250000 0.500000
Si Si5 0.000000 0.880877 0.750000
O O1 0.368987 0.505054 0.177033
O O2 0.301731 0.084438 0.340800
O O3 0.382089 0.015142 0.047383
O O4 0.300831 0.446595 0.031377
O O5 0.463075 0.201050 0.661818
O O6 0.455510 0.416534 0.394391
O O7 0.238256 0.487914 0.880622
#
# Coordination Sequence:
#
# PCOD9300482 Si02
#       5
#     8   8   4   4   4
#     4  12  28  48  78 117 161 207 256 315 409 467
#     4  11  28  51  82 113 153 210 261 342 396 457
#     4  12  26  48  72 116 160 206 254 318 368 516
#     4  12  26  48  72 116 160 206 254 318 368 516
#     4  10  28  56  80 116 152 200 292 340 388 470
#
# _framework density 31.367923000000001
#
# number of rings (size 3 to 8) (size 9 to 14) (size 15 to 20)
#    0.000    0.571    0.000    5.143   12.000    6.857 
#    0.000    0.000    0.000    0.000    0.000    0.000 
#    0.000    0.000    0.000    0.000    0.000    0.000 
#
# Total GULP energy -77946.793220 kJ/mol
# GULP energy per Si atom -5567.628087 kJ/mol
# Density = 3.129653 g / cm^3
# Si number density = 31.367923 Si / 1000 Ang^3
#
#
#
# Elastic Constant Matrix: (Units=GPa)
#
#
# Indices 1 2 3 4 5 6 
#
# 1 197.9349 34.6125 83.3854 0.0000 47.5584 0.0000
# 2 34.6125 178.6896 32.8995 0.0000 9.2069 0.0000
# 3 83.3854 32.8995 248.7470 0.0000 11.1342 0.0000
# 4 0.0000 0.0000 0.0000 -12.6702 0.0000 -39.2644
# 5 47.5584 9.2069 11.1342 0.0000 91.2895 0.0000
# 6 0.0000 0.0000 0.0000 -39.2644 0.0000 37.7115
#
#
#
# Elastic Compliance Matrix: (Units=1/GPa)
#
#
# Indices 1 2 3 4 5 6 
#
# 1 0.006823 -0.000780 -0.002040 0.000000 -0.003227 0.000000
# 2 -0.000780 0.005847 -0.000506 0.000000 -0.000122 0.000000
# 3 -0.002040 -0.000506 0.004747 0.000000 0.000535 0.000000
# 4 0.000000 0.000000 0.000000 -0.018674 0.000000 -0.019443
# 5 -0.003227 -0.000122 0.000535 0.000000 0.012582 0.000000
# 6 0.000000 0.000000 0.000000 -0.019443 0.000000 0.006274
#
#
# Mechanical properties :
#
#
# Convention : Reuss Voigt Hill
#
# Bulk Modulus (GPa) = 92.89312 103.01848 97.95580
# Shear Modulus (GPa) = 179.59681 54.89776 117.24729
#
# Velocity S-wave (km/s) = 7.57491 4.18799 6.12039
# Velocity P-wave (km/s) = 10.30456 7.50326 9.01340
#
# Compressibility (1/GPa) = 0.01076506
#
# Stress axis : x y z
#
# Youngs Moduli (GPa) = 146.55822 171.03172 210.66170
#
# Poissons Ratio (x) = 0.13338 0.42969
# Poissons Ratio (y) = 0.11429 0.10669
# Poissons Ratio (z) = 0.29893 0.08662
#
# Static dielectric constant tensor:
#      x y z
#    x 7.274750 0.000000 0.500730 
#    y 0.000000 -17.568130 0.000000 
#    z 0.500730 0.000000 1.707980 
# 
# From -- ./inp_files/64291.got.cif
#   From: 2010.05.17/outbox.cif.g08.bks.cpg/sg15_33_cif.got.tgz:64291.got - 2010.06.03 18:47:42.
