data_PCOD9300698
_publ_section_title
;
Structure prediction by ZEFSAII (Michael W. Deem and Ramdas Pophale) SiO2 
 PCOD9300698
Probable space group: C 2/C
;
_chemical_formula_sum "Si O2"
_cell_formula_units_Z 60
_cell_length_a 25.008180
_cell_length_b 18.686523
_cell_length_c 12.479567
_cell_angle_alpha 90.000000
_cell_angle_beta 152.302699
_cell_angle_gamma 90.000000
_cell_volume 2710.669306
_symmetry_space_group_name_H-M "C 2/C"
_symmetry_group_IT_number 15
_symmetry_cell_setting 'monoclinic'
loop_
_space_group_symop_operation_xyz
x,y,z
-x,y,1/2-z
-x,-y,-z
x,-y,1/2+z
1/2+x,1/2+y,z
1/2-x,1/2+y,1/2-z
1/2-x,1/2-y,-z
1/2+x,1/2-y,1/2+z
loop_
_atom_site_type_symbol
_atom_site_label
_atom_site_fract_x
_atom_site_fract_y
_atom_site_fract_z
Si Si1 0.702569 0.777354 0.111524
Si Si2 0.708211 0.620366 0.109206
Si Si3 0.501301 0.401779 0.944977
Si Si4 0.262700 0.095055 0.977854
Si Si5 0.527288 0.752490 0.417170
Si Si6 0.168111 0.310156 0.298480
Si Si7 0.243406 0.069175 0.398525
Si Si8 0.500000 0.511491 0.750000
O O1 0.649540 0.698878 0.998872
O O2 0.678893 0.843182 0.990032
O O3 0.836881 0.757067 0.333367
O O4 0.681590 0.801910 0.195681
O O5 0.770062 0.608113 0.333299
O O6 0.787589 0.606875 0.146926
O O7 0.611480 0.559748 0.934322
O O8 0.476349 0.327386 0.841083
O O9 0.394469 0.421760 0.829988
O O10 0.512465 0.460825 0.874040
O O11 0.623624 0.394219 0.220211
O O12 0.280552 0.013623 0.970249
O O13 0.500000 0.779612 0.250000
O O14 0.461183 0.795936 0.390588
O O15 0.250000 0.250000 0.500000
O O16 0.205095 0.386378 0.411305
#
# Coordination Sequence:
#
# PCOD9300698 Si02
#       8
#     8   8   8   8   8   8   8   4
#     4  11  25  43  61  93 131 173 212 263 327 383
#     4  12  23  39  58  91 129 168 214 248 321 401
#     4  11  20  35  57  99 132 159 196 254 342 382
#     4  11  25  37  60  87 128 171 203 261 324 389
#     4  11  19  35  64  93 129 164 204 264 314 380
#     4  12  22  38  64  99 125 164 219 272 316 372
#     4  12  22  37  59  94 127 162 213 264 321 386
#     4  12  22  34  64  98 134 162 202 270 324 406
#
# _framework density 22.134755999999999
#
# number of rings (size 3 to 8) (size 9 to 14) (size 15 to 20)
#    0.000    0.533    7.333    1.600    3.733    1.067 
#    0.000    0.000    0.000    0.800    8.667    0.000 
#    0.000    0.000    0.000    0.000    0.000    0.000 
#
# Total GULP energy -167827.423089 kJ/mol
# GULP energy per Si atom -5594.247436 kJ/mol
# Density = 2.208438 g / cm^3
# Si number density = 22.134756 Si / 1000 Ang^3
#
#
#
# Elastic Constant Matrix: (Units=GPa)
#
#
# Indices 1 2 3 4 5 6 
#
# 1 142.9579 43.5644 28.3599 0.0000 -29.6926 0.0000
# 2 43.5644 140.4177 9.5219 0.0000 -18.2617 0.0000
# 3 28.3599 9.5219 19.3905 0.0000 -3.5936 0.0000
# 4 0.0000 0.0000 0.0000 47.6527 0.0000 3.3946
# 5 -29.6926 -18.2617 -3.5936 0.0000 33.3718 0.0000
# 6 0.0000 0.0000 0.0000 3.3946 0.0000 44.3476
#
#
#
# Elastic Compliance Matrix: (Units=1/GPa)
#
#
# Indices 1 2 3 4 5 6 
#
# 1 0.012366 -0.001680 -0.015705 0.000000 0.008392 0.000000
# 2 -0.001680 0.008076 -0.000986 0.000000 0.002818 0.000000
# 3 -0.015705 -0.000986 0.073810 0.000000 -0.006566 0.000000
# 4 0.000000 0.000000 0.000000 0.021100 0.000000 -0.001615
# 5 0.008392 0.002818 -0.006566 0.000000 0.038267 0.000000
# 6 0.000000 0.000000 0.000000 -0.001615 0.000000 0.022673
#
#
# Mechanical properties :
#
#
# Convention : Reuss Voigt Hill
#
# Bulk Modulus (GPa) = 17.38897 51.73983 34.56440
# Shear Modulus (GPa) = 21.53272 39.82907 30.68090
#
# Velocity S-wave (km/s) = 3.12236 4.24652 3.72707
# Velocity P-wave (km/s) = 4.56857 6.88982 5.84557
#
# Compressibility (1/GPa) = 0.05750770
#
# Stress axis : x y z
#
# Youngs Moduli (GPa) = 80.86910 123.81946 13.54839
#
# Poissons Ratio (x) = 0.20802 0.21278
# Poissons Ratio (y) = 0.13586 0.01336
# Poissons Ratio (z) = 1.27008 0.12214
#
# Static dielectric constant tensor:
#      x y z
#    x 1.839180 0.000000 -0.005880 
#    y 0.000000 1.834230 0.000000 
#    z -0.005880 0.000000 1.848680 
# 
# From -- ./inp_files/124016.got.cif
#   From: 2010.05.17/outbox.cif.g08.bks.cpg/sg15_63_cif.got.tgz:124016.got - 2010.06.03 18:47:42.
