data_PCOD9300877
_publ_section_title
;
Structure prediction by ZEFSAII (Michael W. Deem and Ramdas Pophale) SiO2 
 PCOD9300877
Probable space group: C 2/C
;
_chemical_formula_sum "Si O2"
_cell_formula_units_Z 56
_cell_length_a 11.121970
_cell_length_b 15.408236
_cell_length_c 13.603829
_cell_angle_alpha 90.000000
_cell_angle_beta 101.102711
_cell_angle_gamma 90.000000
_cell_volume 2287.653925
_symmetry_space_group_name_H-M "C 2/C"
_symmetry_group_IT_number 15
_symmetry_cell_setting 'monoclinic'
loop_
_space_group_symop_operation_xyz
x,y,z
-x,y,1/2-z
-x,-y,-z
x,-y,1/2+z
1/2+x,1/2+y,z
1/2-x,1/2+y,1/2-z
1/2-x,1/2-y,-z
1/2+x,1/2-y,1/2+z
loop_
_atom_site_type_symbol
_atom_site_label
_atom_site_fract_x
_atom_site_fract_y
_atom_site_fract_z
Si Si1 0.684176 0.479089 0.038137
Si Si2 0.944879 0.483688 0.631327
Si Si3 0.706203 0.015546 0.643543
Si Si4 0.934564 0.290170 0.631906
Si Si5 0.721847 0.211001 0.701810
Si Si6 0.118356 0.101025 0.200635
Si Si7 0.845553 0.212700 0.936430
O O1 0.825710 0.458595 0.095229
O O2 0.618297 0.543669 0.102328
O O3 0.623093 0.385185 0.028950
O O4 0.701840 0.517706 0.933346
O O5 0.890671 0.387519 0.608702
O O6 0.000000 0.493971 0.750000
O O7 0.071228 0.486103 0.591159
O O8 0.683175 0.111857 0.681364
O O9 0.765107 0.942529 0.723805
O O10 0.821154 0.227746 0.631626
O O11 0.000000 0.290937 0.750000
O O12 0.028997 0.264597 0.562193
O O13 0.635446 0.295999 0.685525
O O14 0.783102 0.214305 0.819182
O O15 0.000000 0.087456 0.250000
O O16 0.750000 0.250000 0.000000
#
# Coordination Sequence:
#
# PCOD9300877 Si02
#       7
#     8   8   8   8   8   8   8
#     4  12  25  44  71 106 144 183 237 293 361 428
#     4  11  19  43  72  98 136 181 235 298 347 419
#     4  12  26  45  73 104 141 190 236 291 363 425
#     4   9  19  37  69  93 135 187 232 276 344 426
#     4  11  23  46  67  98 139 192 233 292 360 414
#     4  12  27  49  70 102 148 188 238 301 362 421
#     4  11  22  39  69 107 139 181 244 290 345 422
#
# _framework density 24.479227999999999
#
# number of rings (size 3 to 8) (size 9 to 14) (size 15 to 20)
#    0.000    0.857    4.286    3.857    2.000    2.857 
#    2.571    0.000    0.000    0.000    0.000    0.000 
#    0.000    0.000    0.000    0.000    0.000    0.000 
#
# Total GULP energy -156646.277992 kJ/mol
# GULP energy per Si atom -5594.509928 kJ/mol
# Density = 2.442351 g / cm^3
# Si number density = 24.479228 Si / 1000 Ang^3
#
#
#
# Elastic Constant Matrix: (Units=GPa)
#
#
# Indices 1 2 3 4 5 6 
#
# 1 103.5398 27.1772 23.2432 0.0000 -33.1387 0.0000
# 2 27.1772 138.4278 31.2978 0.0000 -16.4125 0.0000
# 3 23.2432 31.2978 87.3604 0.0000 -35.9597 0.0000
# 4 0.0000 0.0000 0.0000 24.0779 0.0000 -10.2464
# 5 -33.1387 -16.4125 -35.9597 0.0000 54.2606 0.0000
# 6 0.0000 0.0000 0.0000 -10.2464 0.0000 34.0068
#
#
#
# Elastic Compliance Matrix: (Units=1/GPa)
#
#
# Indices 1 2 3 4 5 6 
#
# 1 0.012336 -0.001627 0.000274 0.000000 0.007223 0.000000
# 2 -0.001627 0.008095 -0.002569 0.000000 -0.000248 0.000000
# 3 0.000274 -0.002569 0.016561 0.000000 0.010366 0.000000
# 4 0.000000 0.000000 0.000000 0.047640 0.000000 0.014354
# 5 0.007223 -0.000248 0.010366 0.000000 0.029636 0.000000
# 6 0.000000 0.000000 0.000000 0.014354 0.000000 0.033731
#
#
# Mechanical properties :
#
#
# Convention : Reuss Voigt Hill
#
# Bulk Modulus (GPa) = 34.30887 54.75160 44.53024
# Shear Modulus (GPa) = 30.20078 38.97640 34.58859
#
# Velocity S-wave (km/s) = 3.51626 3.99460 3.76304
# Velocity P-wave (km/s) = 5.52552 6.60991 6.09189
#
# Compressibility (1/GPa) = 0.02914698
#
# Stress axis : x y z
#
# Youngs Moduli (GPa) = 81.06637 123.53358 60.38235
#
# Poissons Ratio (x) = 0.20104 -0.01656
# Poissons Ratio (y) = 0.13193 0.15514
# Poissons Ratio (z) = -0.02224 0.31739
#
# Static dielectric constant tensor:
#      x y z
#    x 1.948470 0.000000 0.003530 
#    y 0.000000 1.883870 0.000000 
#    z 0.003530 0.000000 2.042500 
# 
# From -- ./inp_files/144248.got.cif
#   From: 2010.05.17/outbox.cif.g08.bks.cpg/sg15_73_cif.got.tgz:144248.got - 2010.06.03 18:47:42.
