data_PCOD9300208
_publ_section_title
;
Structure prediction by ZEFSAII (Michael W. Deem and Ramdas Pophale) SiO2 
 PCOD9300208
Probable space group: C 2/C
;
_chemical_formula_sum "Si O2"
_cell_formula_units_Z 40
_cell_length_a 5.020955
_cell_length_b 27.888065
_cell_length_c 12.688848
_cell_angle_alpha 90.000000
_cell_angle_beta 68.117793
_cell_angle_gamma 90.000000
_cell_volume 1648.740995
_symmetry_space_group_name_H-M "C 2/C"
_symmetry_group_IT_number 15
_symmetry_cell_setting 'monoclinic'
loop_
_space_group_symop_operation_xyz
x,y,z
-x,y,1/2-z
-x,-y,-z
x,-y,1/2+z
1/2+x,1/2+y,z
1/2-x,1/2+y,1/2-z
1/2-x,1/2-y,-z
1/2+x,1/2-y,1/2+z
loop_
_atom_site_type_symbol
_atom_site_label
_atom_site_fract_x
_atom_site_fract_y
_atom_site_fract_z
Si Si1 0.731420 0.079607 0.359247
Si Si2 0.450059 0.928710 0.393312
Si Si3 0.035704 0.781362 0.962562
Si Si4 0.500000 0.017434 0.250000
Si Si5 0.482610 0.635885 0.867487
Si Si6 0.500000 0.673693 0.250000
O O1 0.746606 0.062052 0.475457
O O2 0.445901 0.058716 0.347823
O O3 0.000000 0.058584 0.250000
O O4 0.768926 0.136496 0.335045
O O5 0.688335 0.893226 0.404790
O O6 0.240589 0.901731 0.342731
O O7 0.583640 0.976649 0.324994
O O8 0.995974 0.829150 0.037394
O O9 0.750000 0.750000 0.000000
O O10 0.115014 0.795505 0.830950
O O11 0.250000 0.750000 0.000000
O O12 0.500000 0.660960 0.750000
#
# Coordination Sequence:
#
# PCOD9300208 Si02
#       6
#     8   8   8   4   8   4
#     4  10  26  46  72 102 149 201 242 300 365 439
#     4  12  26  47  73 109 150 191 254 300 362 443
#     4  12  29  48  79 110 143 190 249 313 375 459
#     4  12  26  42  73 110 146 204 249 308 352 436
#     4  12  25  49  75 106 149 195 236 307 386 434
#     4  10  26  52  73 108 152 192 249 304 384 448
#
# _framework density 24.260933999999999
#
# number of rings (size 3 to 8) (size 9 to 14) (size 15 to 20)
#    0.600    0.000    4.000    1.800   11.200    0.800 
#    0.000    0.000    0.000    0.000    0.000    0.000 
#    0.000    0.000    0.000    0.000    0.000    0.000 
#
# Total GULP energy -111416.779237 kJ/mol
# GULP energy per Si atom -5570.838962 kJ/mol
# Density = 2.420571 g / cm^3
# Si number density = 24.260934 Si / 1000 Ang^3
#
#
#
# Elastic Constant Matrix: (Units=GPa)
#
#
# Indices 1 2 3 4 5 6 
#
# 1 120.9729 30.9831 25.4884 0.0000 14.1648 0.0000
# 2 30.9831 96.5150 38.5924 0.0000 20.4863 0.0000
# 3 25.4884 38.5924 167.7986 0.0000 35.9766 0.0000
# 4 0.0000 0.0000 0.0000 29.3511 0.0000 7.4328
# 5 14.1648 20.4863 35.9766 0.0000 40.5491 0.0000
# 6 0.0000 0.0000 0.0000 7.4328 0.0000 -13.4858
#
#
#
# Elastic Compliance Matrix: (Units=1/GPa)
#
#
# Indices 1 2 3 4 5 6 
#
# 1 0.009172 -0.002416 -0.000509 0.000000 -0.001532 0.000000
# 2 -0.002416 0.012670 -0.001674 0.000000 -0.004072 0.000000
# 3 -0.000509 -0.001674 0.007659 0.000000 -0.005772 0.000000
# 4 0.000000 0.000000 0.000000 0.029897 0.000000 0.016478
# 5 -0.001532 -0.004072 -0.005772 0.000000 0.032375 0.000000
# 6 0.000000 0.000000 0.000000 0.016478 0.000000 -0.065070
#
#
# Mechanical properties :
#
#
# Convention : Reuss Voigt Hill
#
# Bulk Modulus (GPa) = 49.25196 63.93493 56.59345
# Shear Modulus (GPa) = 117.18002 30.63104 73.90553
#
# Velocity S-wave (km/s) = 6.95735 3.55712 5.52530
# Velocity P-wave (km/s) = 9.21329 6.57883 8.00518
#
# Compressibility (1/GPa) = 0.02030376
#
# Stress axis : x y z
#
# Youngs Moduli (GPa) = 109.03212 78.92492 130.55774
#
# Poissons Ratio (x) = 0.19065 0.06648
# Poissons Ratio (y) = 0.26337 0.21856
# Poissons Ratio (z) = 0.05552 0.13212
#
# Static dielectric constant tensor:
#      x y z
#    x 2.691210 0.000000 -0.009200 
#    y 0.000000 1.915310 0.000000 
#    z -0.009200 0.000000 2.179480 
# 
# From -- ./inp_files/73119.got.cif
#   From: 2010.05.17/outbox.cif.g08.bks.cpg/sg15_37_cif.got.tgz:73119.got - 2010.06.03 18:47:42.
