data_PCOD9300504
_publ_section_title
;
Structure prediction by ZEFSAII (Michael W. Deem and Ramdas Pophale) SiO2 
 PCOD9300504
Probable space group: C 2/C
;
_chemical_formula_sum "Si O2"
_cell_formula_units_Z 48
_cell_length_a 15.826995
_cell_length_b 9.406522
_cell_length_c 22.593547
_cell_angle_alpha 90.000000
_cell_angle_beta 59.129085
_cell_angle_gamma 90.000000
_cell_volume 2887.114212
_symmetry_space_group_name_H-M "C 2/C"
_symmetry_group_IT_number 15
_symmetry_cell_setting 'monoclinic'
loop_
_space_group_symop_operation_xyz
x,y,z
-x,y,1/2-z
-x,-y,-z
x,-y,1/2+z
1/2+x,1/2+y,z
1/2-x,1/2+y,1/2-z
1/2-x,1/2-y,-z
1/2+x,1/2-y,1/2+z
loop_
_atom_site_type_symbol
_atom_site_label
_atom_site_fract_x
_atom_site_fract_y
_atom_site_fract_z
Si Si1 0.404037 0.308951 0.918437
Si Si2 0.755950 0.896599 0.076028
Si Si3 0.936120 0.208499 0.053878
Si Si4 0.419641 0.623818 0.598823
Si Si5 0.964040 0.090857 0.829736
Si Si6 0.731262 0.771473 0.576652
O O1 0.334270 0.199868 0.910459
O O2 0.494598 0.231518 0.919241
O O3 0.438409 0.433138 0.862591
O O4 0.338908 0.382228 0.994298
O O5 0.810960 0.838939 0.114908
O O6 0.723635 0.059849 0.091398
O O7 0.829983 0.272723 0.077343
O O8 0.924986 0.043705 0.078857
O O9 0.999318 0.202440 0.970848
O O10 0.451661 0.643012 0.654642
O O11 0.866027 0.185823 0.871472
O O12 0.000000 0.090493 0.750000
O O13 0.750000 0.750000 0.500000
#
# Coordination Sequence:
#
# PCOD9300504 Si02
#       6
#     8   8   8   8   8   8
#     4   9  17  33  52  79  98 127 169 210 251 292
#     4   9  17  31  56  76  98 127 170 211 243 295
#     4   8  14  27  52  72  97 128 165 202 245 297
#     4   8  14  29  48  72  97 133 164 192 249 310
#     4  11  21  33  50  74 104 134 167 208 255 302
#     4  11  17  31  52  77 100 132 169 208 248 293
#
# _framework density 16.625598
#
# number of rings (size 3 to 8) (size 9 to 14) (size 15 to 20)
#    0.000    2.667    3.333    2.000    0.000    0.000 
#    0.000    8.333    0.000    0.000    0.000    0.000 
#    0.000    0.000    0.000    0.000    0.000    0.000 
#
# Total GULP energy -133615.886119 kJ/mol
# GULP energy per Si atom -5567.328588 kJ/mol
# Density = 1.658776 g / cm^3
# Si number density = 16.625598 Si / 1000 Ang^3
#
#
#
# Elastic Constant Matrix: (Units=GPa)
#
#
# Indices 1 2 3 4 5 6 
#
# 1 184.4737 40.3451 66.6930 0.0000 28.4336 0.0000
# 2 40.3451 29.2832 27.6358 0.0000 5.2835 0.0000
# 3 66.6930 27.6358 98.7847 0.0000 18.4191 0.0000
# 4 0.0000 0.0000 0.0000 11.5007 0.0000 -1.6257
# 5 28.4336 5.2835 18.4191 0.0000 20.0114 0.0000
# 6 0.0000 0.0000 0.0000 -1.6257 0.0000 27.7296
#
#
#
# Elastic Compliance Matrix: (Units=1/GPa)
#
#
# Indices 1 2 3 4 5 6 
#
# 1 0.009762 -0.009767 -0.002116 0.000000 -0.009344 0.000000
# 2 -0.009767 0.056174 -0.010796 0.000000 0.008983 0.000000
# 3 -0.002116 -0.010796 0.016273 0.000000 -0.009121 0.000000
# 4 0.000000 0.000000 0.000000 0.087678 0.000000 0.005140
# 5 -0.009344 0.008983 -0.009121 0.000000 0.069272 0.000000
# 6 0.000000 0.000000 0.000000 0.005140 0.000000 0.036364
#
#
# Mechanical properties :
#
#
# Convention : Reuss Voigt Hill
#
# Bulk Modulus (GPa) = 27.13685 64.65437 45.89561
# Shear Modulus (GPa) = 15.00764 23.70618 19.35691
#
# Velocity S-wave (km/s) = 3.00773 3.78018 3.41586
# Velocity P-wave (km/s) = 5.33101 7.61748 6.57440
#
# Compressibility (1/GPa) = 0.03685026
#
# Stress axis : x y z
#
# Youngs Moduli (GPa) = 102.43571 17.80195 61.45316
#
# Poissons Ratio (x) = 0.17387 0.13004
# Poissons Ratio (y) = 1.00048 0.66345
# Poissons Ratio (z) = 0.21677 0.19219
#
# Static dielectric constant tensor:
#      x y z
#    x 1.629650 0.000000 0.014440 
#    y 0.000000 1.556710 0.000000 
#    z 0.014440 0.000000 1.535290 
# 
# From -- ./inp_files/246838.got.cif
#   From: 2010.05.17/outbox.cif.g08.bks.cpg/sg15_124_cif.got.tgz:246838.got - 2010.06.03 18:47:42.
