data_PCOD9300540
_publ_section_title
;
Structure prediction by ZEFSAII (Michael W. Deem and Ramdas Pophale) SiO2 
 PCOD9300540
Probable space group: C 2/C
;
_chemical_formula_sum "Si O2"
_cell_formula_units_Z 52
_cell_length_a 21.822991
_cell_length_b 6.632130
_cell_length_c 18.524369
_cell_angle_alpha 90.000000
_cell_angle_beta 66.215912
_cell_angle_gamma 90.000000
_cell_volume 2453.385836
_symmetry_space_group_name_H-M "C 2/C"
_symmetry_group_IT_number 15
_symmetry_cell_setting 'monoclinic'
loop_
_space_group_symop_operation_xyz
x,y,z
-x,y,1/2-z
-x,-y,-z
x,-y,1/2+z
1/2+x,1/2+y,z
1/2-x,1/2+y,1/2-z
1/2-x,1/2-y,-z
1/2+x,1/2-y,1/2+z
loop_
_atom_site_type_symbol
_atom_site_label
_atom_site_fract_x
_atom_site_fract_y
_atom_site_fract_z
Si Si1 0.108920 0.591063 0.948265
Si Si2 0.510252 0.191738 0.399787
Si Si3 0.372562 0.198536 0.795868
Si Si4 0.598263 0.534051 0.352515
Si Si5 0.192857 0.310303 0.746994
Si Si6 0.754536 0.040029 0.360142
Si Si7 0.000000 0.524131 0.250000
O O1 0.179796 0.479522 0.926875
O O2 0.060584 0.455853 0.919915
O O3 0.120976 0.801916 0.900216
O O4 0.064313 0.639854 0.038867
O O5 0.529676 0.423039 0.406228
O O6 0.518971 0.154109 0.310605
O O7 0.404071 0.348624 0.721740
O O8 0.312798 0.318627 0.864540
O O9 0.436753 0.109259 0.805366
O O10 0.340428 0.011654 0.767471
O O11 0.646132 0.344132 0.313526
O O12 0.219395 0.185434 0.666179
O O13 0.246325 0.376084 0.781691
#
# Coordination Sequence:
#
# PCOD9300540 Si02
#       7
#     8   8   8   8   8   8   4
#     4  11  22  40  60  97 127 156 211 270 315 368
#     4  11  24  39  64  88 127 171 206 259 317 371
#     4  11  23  35  61  93 121 166 208 257 309 367
#     4  11  18  37  59  94 120 155 206 253 317 357
#     4  11  18  32  57  92 121 154 194 266 300 366
#     4  11  19  33  59  89 126 156 203 254 320 358
#     4  12  22  48  58  86 132 168 214 254 302 394
#
# _framework density 21.195198000000001
#
# number of rings (size 3 to 8) (size 9 to 14) (size 15 to 20)
#    0.000    0.923    7.692    1.385    0.000    0.615 
#    0.000    0.769    0.000    0.923    0.000    0.000 
#    0.000    0.000    0.000    0.000    0.000    0.000 
#
# Total GULP energy -145025.450175 kJ/mol
# GULP energy per Si atom -5577.901930 kJ/mol
# Density = 2.114696 g / cm^3
# Si number density = 21.195198 Si / 1000 Ang^3
#
#
#
# Elastic Constant Matrix: (Units=GPa)
#
#
# Indices 1 2 3 4 5 6 
#
# 1 71.2305 24.7635 11.5757 0.0001 -26.7781 0.0007
# 2 24.7635 104.8226 11.8497 0.0005 -11.1254 0.0024
# 3 11.5757 11.8497 67.2596 0.0000 -25.1483 0.0002
# 4 0.0001 0.0005 0.0000 12.3528 0.0000 -8.3061
# 5 -26.7781 -11.1254 -25.1483 0.0000 34.2653 0.0001
# 6 0.0007 0.0024 0.0002 -8.3061 0.0001 29.4271
#
#
#
# Elastic Compliance Matrix: (Units=1/GPa)
#
#
# Indices 1 2 3 4 5 6 
#
# 1 0.021640 -0.003576 0.003852 0.000000 0.018578 0.000000
# 2 -0.003576 0.010499 -0.001384 -0.000001 -0.000402 -0.000001
# 3 0.003852 -0.001384 0.021233 0.000000 0.018144 0.000000
# 4 0.000000 -0.000001 0.000000 0.099917 -0.000001 0.028203
# 5 0.018578 -0.000402 0.018144 -0.000001 0.056888 -0.000001
# 6 0.000000 -0.000001 0.000000 0.028203 -0.000001 0.041943
#
#
# Mechanical properties :
#
#
# Convention : Reuss Voigt Hill
#
# Bulk Modulus (GPa) = 19.54877 37.74337 28.64607
# Shear Modulus (GPa) = 18.42378 28.21729 23.32054
#
# Velocity S-wave (km/s) = 2.95149 3.65267 3.32064
# Velocity P-wave (km/s) = 4.56709 5.96954 5.31478
#
# Compressibility (1/GPa) = 0.05115412
#
# Stress axis : x y z
#
# Youngs Moduli (GPa) = 46.21039 95.25112 47.09696
#
# Poissons Ratio (x) = 0.34062 -0.18141
# Poissons Ratio (y) = 0.16525 0.06520
# Poissons Ratio (z) = -0.17799 0.13187
#
# Static dielectric constant tensor:
#      x y z
#    x 1.833250 0.000000 -0.096200 
#    y 0.000000 1.782190 0.000000 
#    z -0.096200 0.000000 1.781770 
# 
# From -- ./inp_files/254299.got.cif
#   From: 2010.05.17/outbox.cif.g08.bks.cpg/sg15_128_cif.got.tgz:254299.got - 2010.06.03 18:47:42.
