data_PCOD9300783
_publ_section_title
;
Structure prediction by ZEFSAII (Michael W. Deem and Ramdas Pophale) SiO2 
 PCOD9300783
Probable space group: C 2/C
;
_chemical_formula_sum "Si O2"
_cell_formula_units_Z 44
_cell_length_a 19.256636
_cell_length_b 12.480623
_cell_length_c 7.233827
_cell_angle_alpha 90.000000
_cell_angle_beta 85.694680
_cell_angle_gamma 90.000000
_cell_volume 1733.634597
_symmetry_space_group_name_H-M "C 2/C"
_symmetry_group_IT_number 15
_symmetry_cell_setting 'monoclinic'
loop_
_space_group_symop_operation_xyz
x,y,z
-x,y,1/2-z
-x,-y,-z
x,-y,1/2+z
1/2+x,1/2+y,z
1/2-x,1/2+y,1/2-z
1/2-x,1/2-y,-z
1/2+x,1/2-y,1/2+z
loop_
_atom_site_type_symbol
_atom_site_label
_atom_site_fract_x
_atom_site_fract_y
_atom_site_fract_z
Si Si1 0.000000 0.601826 0.750000
Si Si2 0.270480 0.069542 0.625833
Si Si3 0.622964 0.927686 0.682659
Si Si4 0.044258 0.754041 0.090112
Si Si5 0.918268 0.904755 0.720142
Si Si6 0.668335 0.585285 0.927513
O O1 0.934169 0.524428 0.817874
O O2 0.983285 0.675011 0.572656
O O3 0.316385 0.973103 0.704044
O O4 0.215019 0.008412 0.511148
O O5 0.332450 0.120712 0.498015
O O6 0.226165 0.138061 0.781786
O O7 0.578701 0.824602 0.736193
O O8 0.000000 0.819848 0.250000
O O9 0.089170 0.835480 0.962371
O O10 0.000000 0.906156 0.750000
O O11 0.888145 0.020964 0.679917
O O12 0.873036 0.857662 0.899660
#
# Coordination Sequence:
#
# PCOD9300783 Si02
#       6
#     4   8   8   8   8   8
#     4  12  22  42  66 100 142 176 222 266 334 404
#     4   9  19  36  66  92 122 178 220 261 317 412
#     4  11  19  38  67  93 133 179 212 262 333 394
#     4  12  25  39  62 106 140 168 221 284 328 393
#     4  11  23  43  68  94 131 170 224 289 339 389
#     4   9  21  42  64  89 125 171 223 271 335 394
#
# _framework density 25.380203000000002
#
# number of rings (size 3 to 8) (size 9 to 14) (size 15 to 20)
#    0.000    1.455    3.636    2.182    0.000    3.636 
#    0.000    9.091    0.000    0.000    0.000    0.000 
#    0.000    0.000    0.000    0.000    0.000    0.000 
#
# Total GULP energy -122534.299115 kJ/mol
# GULP energy per Si atom -5569.740869 kJ/mol
# Density = 2.532244 g / cm^3
# Si number density = 25.380203 Si / 1000 Ang^3
#
#
#
# Elastic Constant Matrix: (Units=GPa)
#
#
# Indices 1 2 3 4 5 6 
#
# 1 147.6179 34.5228 45.8449 0.0000 -9.8017 0.0000
# 2 34.5228 50.0718 23.2082 0.0000 -0.2933 0.0000
# 3 45.8449 23.2082 118.7434 0.0000 -46.4108 0.0000
# 4 0.0000 0.0000 0.0000 23.5594 0.0000 -4.1419
# 5 -9.8017 -0.2933 -46.4108 0.0000 54.6488 0.0000
# 6 0.0000 0.0000 0.0000 -4.1419 0.0000 7.1132
#
#
#
# Elastic Compliance Matrix: (Units=1/GPa)
#
#
# Indices 1 2 3 4 5 6 
#
# 1 0.008675 -0.004717 -0.002738 0.000000 -0.000795 0.000000
# 2 -0.004717 0.025592 -0.005176 0.000000 -0.005104 0.000000
# 3 -0.002738 -0.005176 0.015399 0.000000 0.012559 0.000000
# 4 0.000000 0.000000 0.000000 0.047286 0.000000 0.027534
# 5 -0.000795 -0.005104 0.012559 0.000000 0.028794 0.000000
# 6 0.000000 0.000000 0.000000 0.027534 0.000000 0.156616
#
#
# Mechanical properties :
#
#
# Convention : Reuss Voigt Hill
#
# Bulk Modulus (GPa) = 40.97540 58.17611 49.57575
# Shear Modulus (GPa) = 15.83486 31.25477 23.54481
#
# Velocity S-wave (km/s) = 2.50052 3.51303 3.04910
# Velocity P-wave (km/s) = 4.95141 6.27907 5.65435
#
# Compressibility (1/GPa) = 0.02440489
#
# Stress axis : x y z
#
# Youngs Moduli (GPa) = 115.27579 39.07400 64.94024
#
# Poissons Ratio (x) = 0.18430 0.17780
# Poissons Ratio (y) = 0.54372 0.33613
# Poissons Ratio (z) = 0.31562 0.20225
#
# Static dielectric constant tensor:
#      x y z
#    x 2.030780 0.000000 -0.051410 
#    y 0.000000 1.940470 0.000000 
#    z -0.051410 0.000000 2.169590 
# 
# From -- ./inp_files/54926.got.cif
#   From: 2010.05.17/outbox.cif.g08.bks.cpg/sg15_28_cif.got.tgz:54926.got - 2010.06.03 18:47:42.
