data_PCOD9300486
_publ_section_title
;
Structure prediction by ZEFSAII (Michael W. Deem and Ramdas Pophale) SiO2 
 PCOD9300486
Probable space group: C 2/C
;
_chemical_formula_sum "Si O2"
_cell_formula_units_Z 40
_cell_length_a 17.783445
_cell_length_b 7.150580
_cell_length_c 14.544495
_cell_angle_alpha 90.000000
_cell_angle_beta 128.360663
_cell_angle_gamma 90.000000
_cell_volume 1450.234369
_symmetry_space_group_name_H-M "C 2/C"
_symmetry_group_IT_number 15
_symmetry_cell_setting 'monoclinic'
loop_
_space_group_symop_operation_xyz
x,y,z
-x,y,1/2-z
-x,-y,-z
x,-y,1/2+z
1/2+x,1/2+y,z
1/2-x,1/2+y,1/2-z
1/2-x,1/2-y,-z
1/2+x,1/2-y,1/2+z
loop_
_atom_site_type_symbol
_atom_site_label
_atom_site_fract_x
_atom_site_fract_y
_atom_site_fract_z
Si Si1 0.321548 0.245261 0.399093
Si Si2 0.625648 0.560469 0.199619
Si Si3 0.604716 0.135228 0.562115
Si Si4 0.908648 0.570808 0.630465
Si Si5 0.694236 0.244153 0.361040
O O1 0.347311 0.433761 0.368478
O O2 0.212397 0.179516 0.308679
O O3 0.381376 0.077511 0.393730
O O4 0.352343 0.223117 0.528218
O O5 0.558895 0.718591 0.099024
O O6 0.615425 0.399770 0.270871
O O7 0.568713 0.091010 0.430680
O O8 0.714512 0.209270 0.633966
O O9 0.850583 0.459544 0.664135
O O10 0.000000 0.652688 0.750000
O O11 0.750000 0.250000 0.500000
#
# Coordination Sequence:
#
# PCOD9300486 Si02
#       5
#     8   8   8   8   8
#     4   9  17  27  53  71  97 127 157 198 250 276
#     4  11  15  31  53  75  96 120 169 204 238 288
#     4   8  18  30  53  71  97 126 162 202 246 278
#     4   9  18  35  50  68 104 137 158 194 251 289
#     4   9  16  28  51  75  96 128 160 203 245 280
#
# _framework density 27.581748999999999
#
# number of rings (size 3 to 8) (size 9 to 14) (size 15 to 20)
#    1.200    1.600    6.000    0.000    0.000    0.000 
#    0.000    4.000    8.800    0.000    0.000    0.000 
#    0.000    0.000    0.000    0.000    0.000    0.000 
#
# Total GULP energy -111426.827210 kJ/mol
# GULP energy per Si atom -5571.341361 kJ/mol
# Density = 2.751897 g / cm^3
# Si number density = 27.581749 Si / 1000 Ang^3
#
#
#
# Elastic Constant Matrix: (Units=GPa)
#
#
# Indices 1 2 3 4 5 6 
#
# 1 65.9241 17.5893 23.8791 0.0000 -5.1432 0.0000
# 2 17.5893 181.4515 48.4200 0.0000 -9.8432 0.0000
# 3 23.8791 48.4200 171.9027 0.0000 -12.8698 0.0000
# 4 0.0000 0.0000 0.0000 57.7809 0.0000 -16.8882
# 5 -5.1432 -9.8432 -12.8698 0.0000 30.0217 0.0000
# 6 0.0000 0.0000 0.0000 -16.8882 0.0000 28.6407
#
#
#
# Elastic Compliance Matrix: (Units=1/GPa)
#
#
# Indices 1 2 3 4 5 6 
#
# 1 0.016233 -0.000989 -0.001852 0.000000 0.001663 0.000000
# 2 -0.000989 0.006067 -0.001483 0.000000 0.001184 0.000000
# 3 -0.001852 -0.001483 0.006645 0.000000 0.002045 0.000000
# 4 0.000000 0.000000 0.000000 0.020911 0.000000 0.012330
# 5 0.001663 0.001184 0.002045 0.000000 0.034859 0.000000
# 6 0.000000 0.000000 0.000000 0.012330 0.000000 0.042186
#
#
# Mechanical properties :
#
#
# Convention : Reuss Voigt Hill
#
# Bulk Modulus (GPa) = 49.26649 66.56170 57.91409
# Shear Modulus (GPa) = 35.13332 45.24798 40.19065
#
# Velocity S-wave (km/s) = 3.57289 4.05471 3.82140
# Velocity P-wave (km/s) = 5.90944 6.79012 6.36503
#
# Compressibility (1/GPa) = 0.02029777
#
# Stress axis : x y z
#
# Youngs Moduli (GPa) = 61.60134 164.82809 150.48275
#
# Poissons Ratio (x) = 0.16306 0.27867
# Poissons Ratio (y) = 0.06094 0.22314
# Poissons Ratio (z) = 0.11408 0.24441
#
# Static dielectric constant tensor:
#      x y z
#    x 2.391040 0.000000 0.036200 
#    y 0.000000 2.110600 0.000000 
#    z 0.036200 0.000000 2.193810 
# 
# From -- ./inp_files/224018.got.cif
#   From: 2010.05.17/outbox.cif.g08.bks.cpg/sg15_113_cif.got.tgz:224018.got - 2010.06.03 18:47:42.
