data_PCOD9300992
_publ_section_title
;
Structure prediction by ZEFSAII (Michael W. Deem and Ramdas Pophale) SiO2 
 PCOD9300992
Probable space group: C 2/C
;
_chemical_formula_sum "Si O2"
_cell_formula_units_Z 44
_cell_length_a 9.936446
_cell_length_b 25.430927
_cell_length_c 13.913684
_cell_angle_alpha 90.000000
_cell_angle_beta 135.270536
_cell_angle_gamma 90.000000
_cell_volume 2474.343927
_symmetry_space_group_name_H-M "C 2/C"
_symmetry_group_IT_number 15
_symmetry_cell_setting 'monoclinic'
loop_
_space_group_symop_operation_xyz
x,y,z
-x,y,1/2-z
-x,-y,-z
x,-y,1/2+z
1/2+x,1/2+y,z
1/2-x,1/2+y,1/2-z
1/2-x,1/2-y,-z
1/2+x,1/2-y,1/2+z
loop_
_atom_site_type_symbol
_atom_site_label
_atom_site_fract_x
_atom_site_fract_y
_atom_site_fract_z
Si Si1 0.224582 0.432436 0.249770
Si Si2 0.150397 0.183856 0.743610
Si Si3 0.985147 0.749561 0.505311
Si Si4 0.660881 0.326526 0.903572
Si Si5 0.718571 0.062450 0.969380
Si Si6 0.500000 0.502476 0.750000
O O1 0.257423 0.369656 0.252063
O O2 0.259895 0.448519 0.378436
O O3 0.366572 0.462148 0.250510
O O4 0.003549 0.447555 0.119051
O O5 0.042793 0.216553 0.605193
O O6 0.314477 0.220830 0.873348
O O7 0.000000 0.169531 0.750000
O O8 0.820614 0.705359 0.426359
O O9 0.937546 0.787539 0.570640
O O10 0.500000 0.346504 0.750000
O O11 0.753417 0.375252 0.003860
O O12 0.861529 0.032090 0.112069
#
# Coordination Sequence:
#
# PCOD9300992 Si02
#       6
#     8   8   8   8   8   4
#     4  11  24  41  63  94 119 159 207 250 304 364
#     4  12  23  40  59  86 130 167 195 242 299 366
#     4  11  23  36  62  90 121 159 202 234 304 364
#     4  11  20  35  62  94 117 148 199 257 296 350
#     4  11  23  40  68  89 118 158 203 255 302 358
#     4  12  24  44  64  88 124 160 200 258 314 352
#
# _framework density 17.782491
#
# number of rings (size 3 to 8) (size 9 to 14) (size 15 to 20)
#    0.000    0.727    7.273    1.636    0.000    0.000 
#    0.000    0.000    0.000    0.000    0.000    0.000 
#    0.000    0.000    0.000    0.000    0.000    0.000 
#
# Total GULP energy -122852.722352 kJ/mol
# GULP energy per Si atom -5584.214652 kJ/mol
# Density = 1.774202 g / cm^3
# Si number density = 17.782491 Si / 1000 Ang^3
#
#
#
# Elastic Constant Matrix: (Units=GPa)
#
#
# Indices 1 2 3 4 5 6 
#
# 1 120.3261 37.6919 53.1059 0.0000 -0.1603 0.0000
# 2 37.6919 83.3241 39.8660 0.0000 4.2519 0.0000
# 3 53.1059 39.8660 123.6814 0.0000 5.2886 0.0000
# 4 0.0000 0.0000 0.0000 30.2154 0.0000 0.8966
# 5 -0.1603 4.2519 5.2886 0.0000 16.6345 0.0000
# 6 0.0000 0.0000 0.0000 0.8966 0.0000 30.8164
#
#
#
# Elastic Compliance Matrix: (Units=1/GPa)
#
#
# Indices 1 2 3 4 5 6 
#
# 1 0.011001 -0.003289 -0.003755 0.000000 0.002141 0.000000
# 2 -0.003289 0.015253 -0.003382 0.000000 -0.002855 0.000000
# 3 -0.003755 -0.003382 0.010901 0.000000 -0.002637 0.000000
# 4 0.000000 0.000000 0.000000 0.033124 0.000000 -0.000964
# 5 0.002141 -0.002855 -0.002637 0.000000 0.061705 0.000000
# 6 0.000000 0.000000 0.000000 -0.000964 0.000000 0.032478
#
#
# Mechanical properties :
#
#
# Convention : Reuss Voigt Hill
#
# Bulk Modulus (GPa) = 61.34115 65.40658 63.37386
# Shear Modulus (GPa) = 26.21249 28.64445 27.42847
#
# Velocity S-wave (km/s) = 3.84352 4.01786 3.93165
# Velocity P-wave (km/s) = 7.36661 7.64104 7.50508
#
# Compressibility (1/GPa) = 0.01630227
#
# Stress axis : x y z
#
# Youngs Moduli (GPa) = 90.89942 65.56083 91.73864
#
# Poissons Ratio (x) = 0.21563 0.34448
# Poissons Ratio (y) = 0.29897 0.31027
# Poissons Ratio (z) = 0.34133 0.22174
#
# Static dielectric constant tensor:
#      x y z
#    x 1.580210 0.000000 0.002370 
#    y 0.000000 1.575320 0.000000 
#    z 0.002370 0.000000 1.599990 
# 
# From -- ./inp_files/79703.got.cif
#   From: 2010.05.17/outbox.cif.g08.bks.cpg/sg15_40_cif.got.tgz:79703.got - 2010.06.03 18:47:42.
