data_PCOD9300776
_publ_section_title
;
Structure prediction by ZEFSAII (Michael W. Deem and Ramdas Pophale) SiO2 
 PCOD9300776
Probable space group: C 2/C
;
_chemical_formula_sum "Si O2"
_cell_formula_units_Z 52
_cell_length_a 17.788011
_cell_length_b 8.505149
_cell_length_c 16.524585
_cell_angle_alpha 90.000000
_cell_angle_beta 81.846318
_cell_angle_gamma 90.000000
_cell_volume 2474.727272
_symmetry_space_group_name_H-M "C 2/C"
_symmetry_group_IT_number 15
_symmetry_cell_setting 'monoclinic'
loop_
_space_group_symop_operation_xyz
x,y,z
-x,y,1/2-z
-x,-y,-z
x,-y,1/2+z
1/2+x,1/2+y,z
1/2-x,1/2+y,1/2-z
1/2-x,1/2-y,-z
1/2+x,1/2-y,1/2+z
loop_
_atom_site_type_symbol
_atom_site_label
_atom_site_fract_x
_atom_site_fract_y
_atom_site_fract_z
Si Si1 0.727478 0.937454 0.848612
Si Si2 0.708115 0.612771 0.397434
Si Si3 0.830308 0.782649 0.030911
Si Si4 0.500000 0.707091 0.250000
Si Si5 0.664611 0.806663 0.249187
Si Si6 0.834639 0.805099 0.418858
Si Si7 0.959019 0.961698 0.920080
O O1 0.659674 0.869839 0.914311
O O2 0.780810 0.790029 0.818774
O O3 0.697603 0.027313 0.774035
O O4 0.778825 0.062329 0.889112
O O5 0.681840 0.435362 0.411117
O O6 0.671645 0.697355 0.327661
O O7 0.799074 0.645480 0.388794
O O8 0.676779 0.695666 0.483363
O O9 0.750000 0.750000 0.000000
O O10 0.895195 0.834133 0.958459
O O11 0.577743 0.806002 0.235662
O O12 0.499496 0.606504 0.165869
O O13 0.917545 0.878217 0.395465
O O14 0.000000 0.000000 0.000000
#
# Coordination Sequence:
#
# PCOD9300776 Si02
#       7
#     8   8   8   4   8   8   8
#     4  11  21  40  65  93 123 169 226 274 327 400
#     4   9  18  32  60  93 121 154 214 267 320 383
#     4  11  19  38  64  91 122 168 215 278 326 391
#     4  12  22  42  64  96 142 180 212 282 340 410
#     4  11  23  37  66  94 129 173 221 275 338 395
#     4   9  17  36  58  91 122 159 211 269 316 392
#     4  11  23  39  65  96 133 182 221 262 345 408
#
# _framework density 21.012418
#
# number of rings (size 3 to 8) (size 9 to 14) (size 15 to 20)
#    0.000    1.538    4.615    2.769    0.000    0.000 
#    0.000    0.769   10.154    0.923    0.000    0.000 
#    0.000    0.000    0.000    0.000    0.000    0.000 
#
# Total GULP energy -144882.589685 kJ/mol
# GULP energy per Si atom -5572.407296 kJ/mol
# Density = 2.096459 g / cm^3
# Si number density = 21.012418 Si / 1000 Ang^3
#
#
#
# Elastic Constant Matrix: (Units=GPa)
#
#
# Indices 1 2 3 4 5 6 
#
# 1 90.3817 9.1373 20.8182 0.0000 0.5503 0.0000
# 2 9.1373 36.6070 20.5458 0.0000 -6.2658 0.0000
# 3 20.8182 20.5458 108.7916 0.0000 1.6167 0.0000
# 4 0.0000 0.0000 0.0000 45.0820 0.0000 1.0267
# 5 0.5503 -6.2658 1.6167 0.0000 30.7999 0.0000
# 6 0.0000 0.0000 0.0000 1.0267 0.0000 26.2553
#
#
#
# Elastic Compliance Matrix: (Units=1/GPa)
#
#
# Indices 1 2 3 4 5 6 
#
# 1 0.011694 -0.001963 -0.001860 0.000000 -0.000511 0.000000
# 2 -0.001963 0.032254 -0.005818 0.000000 0.006902 0.000000
# 3 -0.001860 -0.005818 0.010672 0.000000 -0.001711 0.000000
# 4 0.000000 0.000000 0.000000 0.022202 0.000000 -0.000868
# 5 -0.000511 0.006902 -0.001711 0.000000 0.033971 0.000000
# 6 0.000000 0.000000 0.000000 -0.000868 0.000000 0.038121
#
#
# Mechanical properties :
#
#
# Convention : Reuss Voigt Hill
#
# Bulk Modulus (GPa) = 28.29730 37.42033 32.85882
# Shear Modulus (GPa) = 27.78173 32.77937 30.28055
#
# Velocity S-wave (km/s) = 3.64009 3.95397 3.80027
# Velocity P-wave (km/s) = 5.58240 6.22033 5.90998
#
# Compressibility (1/GPa) = 0.03533906
#
# Stress axis : x y z
#
# Youngs Moduli (GPa) = 85.51375 31.00387 93.70350
#
# Poissons Ratio (x) = 0.06085 0.17424
# Poissons Ratio (y) = 0.16783 0.54520
# Poissons Ratio (z) = 0.15901 0.18039
#
# Static dielectric constant tensor:
#      x y z
#    x 1.805910 0.000000 -0.025050 
#    y 0.000000 1.796560 0.000000 
#    z -0.025050 0.000000 1.841770 
# 
# From -- ./inp_files/209087.got.cif
#   From: 2010.05.17/outbox.cif.g08.bks.cpg/sg15_105_cif.got.tgz:209087.got - 2010.06.03 18:47:42.
