data_PCOD9300693
_publ_section_title
;
Structure prediction by ZEFSAII (Michael W. Deem and Ramdas Pophale) SiO2 
 PCOD9300693
Probable space group: C 2/C
;
_chemical_formula_sum "Si O2"
_cell_formula_units_Z 48
_cell_length_a 12.702395
_cell_length_b 21.021293
_cell_length_c 14.007569
_cell_angle_alpha 90.000000
_cell_angle_beta 137.064727
_cell_angle_gamma 90.000000
_cell_volume 2547.794618
_symmetry_space_group_name_H-M "C 2/C"
_symmetry_group_IT_number 15
_symmetry_cell_setting 'monoclinic'
loop_
_space_group_symop_operation_xyz
x,y,z
-x,y,1/2-z
-x,-y,-z
x,-y,1/2+z
1/2+x,1/2+y,z
1/2-x,1/2+y,1/2-z
1/2-x,1/2-y,-z
1/2+x,1/2-y,1/2+z
loop_
_atom_site_type_symbol
_atom_site_label
_atom_site_fract_x
_atom_site_fract_y
_atom_site_fract_z
Si Si1 0.862825 0.325180 0.980817
Si Si2 0.818210 0.517321 0.904074
Si Si3 0.195198 0.102476 0.217233
Si Si4 0.842944 0.397153 0.255392
Si Si5 0.116013 0.180638 0.478433
Si Si6 0.325525 0.031162 0.130957
O O1 0.822854 0.350531 0.848941
O O2 0.703715 0.323715 0.935319
O O3 0.925708 0.253621 0.027830
O O4 0.983537 0.371525 0.114037
O O5 0.715021 0.460349 0.794985
O O6 0.786753 0.580472 0.822282
O O7 0.787612 0.524773 0.995039
O O8 0.000000 0.500000 0.000000
O O9 0.225550 0.077533 0.130574
O O10 0.031234 0.135678 0.116535
O O11 0.830762 0.461350 0.183965
O O12 0.739581 0.343890 0.137886
O O13 0.500000 0.056316 0.250000
#
# Coordination Sequence:
#
# PCOD9300693 Si02
#       6
#     8   8   8   8   8   8
#     4  11  21  39  61  83 119 161 199 242 299 372
#     4  11  20  36  62  89 110 157 202 239 297 372
#     4  11  22  37  60  89 121 150 200 261 294 360
#     4  11  21  37  61  83 117 154 200 245 294 368
#     4  11  24  36  57  91 120 153 198 254 308 339
#     4  11  19  35  60  88 113 151 201 241 301 360
#
# _framework density 18.839824
#
# number of rings (size 3 to 8) (size 9 to 14) (size 15 to 20)
#    0.000    1.000    5.000    4.000    0.000    5.333 
#    0.000    2.500    0.000   11.000    0.000    0.000 
#    0.000    0.000    0.000    0.000    0.000    0.000 
#
# Total GULP energy -134080.558673 kJ/mol
# GULP energy per Si atom -5586.689945 kJ/mol
# Density = 1.879694 g / cm^3
# Si number density = 18.839824 Si / 1000 Ang^3
#
#
#
# Elastic Constant Matrix: (Units=GPa)
#
#
# Indices 1 2 3 4 5 6 
#
# 1 101.2963 53.0942 46.7602 0.0000 -28.9581 0.0000
# 2 53.0942 86.4257 12.7500 0.0000 -0.6386 0.0000
# 3 46.7602 12.7500 54.0653 0.0000 -12.4862 0.0000
# 4 0.0000 0.0000 0.0000 33.5384 0.0000 4.6223
# 5 -28.9581 -0.6386 -12.4862 0.0000 38.4577 0.0000
# 6 0.0000 0.0000 0.0000 4.6223 0.0000 51.2769
#
#
#
# Elastic Compliance Matrix: (Units=1/GPa)
#
#
# Indices 1 2 3 4 5 6 
#
# 1 0.034332 -0.017830 -0.021174 0.000000 0.018681 0.000000
# 2 -0.017830 0.021269 0.007985 0.000000 -0.010480 0.000000
# 3 -0.021174 0.007985 0.033810 0.000000 -0.004834 0.000000
# 4 0.000000 0.000000 0.000000 0.030192 0.000000 -0.002722
# 5 0.018681 -0.010480 -0.004834 0.000000 0.038326 0.000000
# 6 0.000000 0.000000 0.000000 -0.002722 0.000000 0.019747
#
#
# Mechanical properties :
#
#
# Convention : Reuss Voigt Hill
#
# Bulk Modulus (GPa) = 36.53367 51.88848 44.21108
# Shear Modulus (GPa) = 20.09332 33.26678 26.68005
#
# Velocity S-wave (km/s) = 3.26933 4.20666 3.76726
# Velocity P-wave (km/s) = 5.80389 7.15517 6.51466
#
# Compressibility (1/GPa) = 0.02737201
#
# Stress axis : x y z
#
# Youngs Moduli (GPa) = 29.12702 47.01752 29.57690
#
# Poissons Ratio (x) = 0.83831 0.62628
# Poissons Ratio (y) = 0.51933 -0.23616
# Poissons Ratio (z) = 0.61675 -0.37542
#
# Static dielectric constant tensor:
#      x y z
#    x 1.679160 0.000000 -0.028990 
#    y 0.000000 1.658000 0.000000 
#    z -0.028990 0.000000 1.700580 
# 
# From -- ./inp_files/147459.got.cif
#   From: 2010.05.17/outbox.cif.g08.bks.cpg/sg15_74_cif.got.tgz:147459.got - 2010.06.03 18:47:42.
