data_PCOD9300272
_publ_section_title
;
Structure prediction by ZEFSAII (Michael W. Deem and Ramdas Pophale) SiO2 
 PCOD9300272
Probable space group: C 2/C
;
_chemical_formula_sum "Si O2"
_cell_formula_units_Z 52
_cell_length_a 20.094123
_cell_length_b 9.383584
_cell_length_c 26.167562
_cell_angle_alpha 90.000000
_cell_angle_beta 150.231706
_cell_angle_gamma 90.000000
_cell_volume 2449.710672
_symmetry_space_group_name_H-M "C 2/C"
_symmetry_group_IT_number 15
_symmetry_cell_setting 'monoclinic'
loop_
_space_group_symop_operation_xyz
x,y,z
-x,y,1/2-z
-x,-y,-z
x,-y,1/2+z
1/2+x,1/2+y,z
1/2-x,1/2+y,1/2-z
1/2-x,1/2-y,-z
1/2+x,1/2-y,1/2+z
loop_
_atom_site_type_symbol
_atom_site_label
_atom_site_fract_x
_atom_site_fract_y
_atom_site_fract_z
Si Si1 0.821127 0.715072 0.685153
Si Si2 0.893643 0.130651 0.759095
Si Si3 0.000000 0.925436 0.750000
Si Si4 0.060989 0.449853 0.680767
Si Si5 0.321826 0.592844 0.285818
Si Si6 0.023409 0.159479 0.499478
Si Si7 0.085861 0.592418 0.515969
O O1 0.879358 0.815279 0.679783
O O2 0.914454 0.582044 0.764446
O O3 0.802188 0.816376 0.721872
O O4 0.670573 0.668386 0.574534
O O5 0.936656 0.295180 0.790292
O O6 0.743003 0.110329 0.634699
O O7 0.995791 0.032668 0.794966
O O8 0.883481 0.056232 0.807672
O O9 0.191548 0.444175 0.731220
O O10 0.940209 0.460724 0.559119
O O11 0.416223 0.688957 0.383960
O O12 0.986014 0.256996 0.522367
O O13 0.000000 0.000000 0.500000
O O14 0.000000 0.500000 0.500000
#
# Coordination Sequence:
#
# PCOD9300272 Si02
#       7
#     8   8   4   8   8   8   8
#     4  11  23  41  60  91 128 164 205 252 303 381
#     4  11  23  42  60  88 128 164 206 254 297 374
#     4  10  26  48  62  76 126 184 208 244 304 356
#     4  12  21  36  64  97 124 154 203 260 322 358
#     4  11  20  36  61  95 129 154 192 253 327 368
#     4  12  21  34  61  97 127 152 195 255 323 375
#     4  12  21  34  61  96 126 155 197 253 319 370
#
# _framework density 21.226997000000001
#
# number of rings (size 3 to 8) (size 9 to 14) (size 15 to 20)
#    0.000    0.615    6.154    3.692    0.000    0.615 
#    0.000    7.692    0.000    0.000    0.000    0.000 
#    0.000    0.000    0.000    0.000    0.000    0.000 
#
# Total GULP energy -145156.385162 kJ/mol
# GULP energy per Si atom -5582.937891 kJ/mol
# Density = 2.117868 g / cm^3
# Si number density = 21.226997 Si / 1000 Ang^3
#
#
#
# Elastic Constant Matrix: (Units=GPa)
#
#
# Indices 1 2 3 4 5 6 
#
# 1 68.7744 31.2819 18.2492 0.0000 12.6963 0.0000
# 2 31.2819 141.3291 2.0315 0.0001 5.3085 0.0000
# 3 18.2492 2.0315 75.1649 0.0003 -12.1745 0.0000
# 4 0.0000 0.0001 0.0003 27.3069 0.0000 -0.9273
# 5 12.6963 5.3085 -12.1745 0.0000 18.8368 0.0000
# 6 0.0000 0.0000 0.0000 -0.9273 0.0000 28.7454
#
#
#
# Elastic Compliance Matrix: (Units=1/GPa)
#
#
# Indices 1 2 3 4 5 6 
#
# 1 0.022157 -0.004062 -0.008381 0.000000 -0.019206 0.000000
# 2 -0.004062 0.007919 0.000954 0.000000 0.001123 0.000000
# 3 -0.008381 0.000954 0.018077 0.000000 0.017063 0.000000
# 4 0.000000 0.000000 0.000000 0.036661 0.000000 0.001183
# 5 -0.019206 0.001123 0.017063 0.000000 0.076744 0.000000
# 6 0.000000 0.000000 0.000000 0.001183 0.000000 0.034826
#
#
# Mechanical properties :
#
#
# Convention : Reuss Voigt Hill
#
# Bulk Modulus (GPa) = 39.72126 43.15482 41.43804
# Shear Modulus (GPa) = 21.95350 30.55820 26.25585
#
# Velocity S-wave (km/s) = 3.21943 3.79831 3.52079
# Velocity P-wave (km/s) = 5.70726 6.29369 6.00764
#
# Compressibility (1/GPa) = 0.02517543
#
# Stress axis : x y z
#
# Youngs Moduli (GPa) = 45.13155 126.27909 55.31992
#
# Poissons Ratio (x) = 0.51301 0.46361
# Poissons Ratio (y) = 0.18335 -0.05279
# Poissons Ratio (z) = 0.37823 -0.12050
#
# Static dielectric constant tensor:
#      x y z
#    x 1.718250 0.000000 0.028620 
#    y 0.000000 2.058810 0.000000 
#    z 0.028620 0.000000 1.746360 
# 
# From -- ./inp_files/166209.got.cif
#   From: 2010.05.17/outbox.cif.g08.bks.cpg/sg15_84_cif.got.tgz:166209.got - 2010.06.03 18:47:42.
