data_PCOD9300217
_publ_section_title
;
Structure prediction by ZEFSAII (Michael W. Deem and Ramdas Pophale) SiO2 
 PCOD9300217
Probable space group: C 2/C
;
_chemical_formula_sum "Si O2"
_cell_formula_units_Z 40
_cell_length_a 14.560370
_cell_length_b 4.959113
_cell_length_c 27.504869
_cell_angle_alpha 90.000000
_cell_angle_beta 114.152711
_cell_angle_gamma 90.000000
_cell_volume 1812.170031
_symmetry_space_group_name_H-M "C 2/C"
_symmetry_group_IT_number 15
_symmetry_cell_setting 'monoclinic'
loop_
_space_group_symop_operation_xyz
x,y,z
-x,y,1/2-z
-x,-y,-z
x,-y,1/2+z
1/2+x,1/2+y,z
1/2-x,1/2+y,1/2-z
1/2-x,1/2-y,-z
1/2+x,1/2-y,1/2+z
loop_
_atom_site_type_symbol
_atom_site_label
_atom_site_fract_x
_atom_site_fract_y
_atom_site_fract_z
Si Si1 0.500000 0.000000 0.500000
Si Si2 0.579527 0.601734 0.361555
Si Si3 0.233626 0.500502 0.032207
Si Si4 0.981356 0.603798 0.381667
Si Si5 0.680247 0.051095 0.227517
Si Si6 0.500000 0.318601 0.250000
O O1 0.622528 0.001683 0.528858
O O2 0.504266 0.034926 0.441573
O O3 0.687062 0.523303 0.406706
O O4 0.555909 0.914657 0.365728
O O5 0.554284 0.504658 0.302099
O O6 0.503301 0.419098 0.377530
O O7 0.250000 0.750000 0.000000
O O8 0.250000 0.250000 0.000000
O O9 0.871568 0.540634 0.336644
O O10 0.769617 0.268761 0.248318
O O11 0.588640 0.146517 0.242998
#
# Coordination Sequence:
#
# PCOD9300217 Si02
#       6
#     4   8   8   8   8   4
#     4  12  26  46  74 100 138 188 228 280 358 392
#     4  11  23  48  69 101 142 179 228 288 336 411
#     4  12  25  47  69 101 139 180 233 286 337 408
#     4  11  25  45  71 102 140 177 235 282 335 421
#     4  11  25  47  69 104 137 178 234 284 337 414
#     4  10  26  46  74 100 140 186 222 286 352 396
#
# _framework density 22.072984999999999
#
# number of rings (size 3 to 8) (size 9 to 14) (size 15 to 20)
#    0.000    0.800    4.000    2.400    2.800   10.400 
#    3.600    0.000    0.000    0.000    0.000    0.000 
#    0.000    0.000    0.000    0.000    0.000    0.000 
#
# Total GULP energy -111375.667534 kJ/mol
# GULP energy per Si atom -5568.783377 kJ/mol
# Density = 2.202275 g / cm^3
# Si number density = 22.072985 Si / 1000 Ang^3
#
#
#
# Elastic Constant Matrix: (Units=GPa)
#
#
# Indices 1 2 3 4 5 6 
#
# 1 85.5303 -8.0255 7.3649 0.0000 19.1966 0.0000
# 2 -8.0255 74.1483 -9.3961 0.0000 -4.8363 0.0001
# 3 7.3649 -9.3961 185.7233 0.0000 26.9079 0.0000
# 4 0.0000 0.0000 0.0000 9.4205 0.0000 21.6824
# 5 19.1966 -4.8363 26.9079 0.0000 52.0978 0.0000
# 6 0.0000 0.0001 0.0000 21.6824 0.0000 18.3844
#
#
#
# Elastic Compliance Matrix: (Units=1/GPa)
#
#
# Indices 1 2 3 4 5 6 
#
# 1 0.012842 0.001110 0.000235 0.000000 -0.004750 0.000000
# 2 0.001110 0.013716 0.000567 0.000000 0.000571 0.000000
# 3 0.000235 0.000567 0.005846 0.000000 -0.003053 0.000000
# 4 0.000000 0.000000 0.000000 -0.061913 0.000000 0.073020
# 5 -0.004750 0.000571 -0.003053 0.000000 0.022575 0.000000
# 6 0.000000 0.000000 0.000000 0.073020 0.000000 -0.031725
#
#
# Mechanical properties :
#
#
# Convention : Reuss Voigt Hill
#
# Bulk Modulus (GPa) = 27.60298 36.14316 31.87307
# Shear Modulus (GPa) = -164.42961 39.67777 -62.37592
#
# Velocity S-wave (km/s) = -8.64033 4.24438 -5.32168
# Velocity P-wave (km/s) = 9.32781 6.35843 4.82589
#
# Compressibility (1/GPa) = 0.03622798
#
# Stress axis : x y z
#
# Youngs Moduli (GPa) = 77.87057 72.90886 171.05404
#
# Poissons Ratio (x) = -0.08092 -0.04022
# Poissons Ratio (y) = -0.08643 -0.09701
# Poissons Ratio (z) = -0.01831 -0.04135
#
# Static dielectric constant tensor:
#      x y z
#    x 1.803310 0.000000 0.021060 
#    y 0.000000 1.791690 0.000000 
#    z 0.021060 0.000000 1.822110 
# 
# From -- ./inp_files/271722.got.cif
#   From: 2010.05.17/outbox.cif.g08.bks.cpg/sg15_136_cif.got.tgz:271722.got - 2010.06.03 18:47:42.
