data_PCOD9300192
_publ_section_title
;
Structure prediction by ZEFSAII (Michael W. Deem and Ramdas Pophale) SiO2 
 PCOD9300192
Probable space group: C 2/C
;
_chemical_formula_sum "Si O2"
_cell_formula_units_Z 56
_cell_length_a 18.776731
_cell_length_b 11.173132
_cell_length_c 20.983736
_cell_angle_alpha 90.000000
_cell_angle_beta 149.161395
_cell_angle_gamma 90.000000
_cell_volume 2256.703731
_symmetry_space_group_name_H-M "C 2/C"
_symmetry_group_IT_number 15
_symmetry_cell_setting 'monoclinic'
loop_
_space_group_symop_operation_xyz
x,y,z
-x,y,1/2-z
-x,-y,-z
x,-y,1/2+z
1/2+x,1/2+y,z
1/2-x,1/2+y,1/2-z
1/2-x,1/2-y,-z
1/2+x,1/2-y,1/2+z
loop_
_atom_site_type_symbol
_atom_site_label
_atom_site_fract_x
_atom_site_fract_y
_atom_site_fract_z
Si Si1 0.500000 0.261025 0.750000
Si Si2 0.400444 0.651346 0.932340
Si Si3 0.494752 0.013838 0.402329
Si Si4 0.272507 0.541049 0.056195
Si Si5 0.176957 0.545711 0.841076
Si Si6 0.661487 0.787999 0.170657
Si Si7 0.939564 0.764556 0.337757
Si Si8 0.000000 0.151545 0.750000
O O1 0.622857 0.346092 0.870717
O O2 0.585360 0.168590 0.771683
O O3 0.320526 0.557098 0.913638
O O4 0.268300 0.736132 0.811573
O O5 0.449085 0.626132 0.896901
O O6 0.528431 0.705284 0.067954
O O7 0.500228 0.152534 0.425538
O O8 0.641193 0.949954 0.502530
O O9 0.420236 0.035520 0.276551
O O10 0.394238 0.924777 0.364116
O O11 0.366886 0.433913 0.153344
O O12 0.209418 0.514661 0.938243
O O13 0.771833 0.760855 0.199600
O O14 0.012910 0.781877 0.327149
#
# Coordination Sequence:
#
# PCOD9300192 Si02
#       8
#     4   8   8   8   8   8   8   4
#     4  11  22  39  66 104 144 177 226 291 342 412
#     4   9  22  42  68  99 139 179 227 289 354 406
#     4  11  23  44  69 102 136 185 233 280 351 421
#     4  11  25  41  69 104 137 185 231 278 353 419
#     4  11  22  40  68 103 139 178 225 286 351 415
#     4   9  22  45  66 104 132 184 235 285 351 414
#     4  10  26  46  69  96 139 185 234 292 348 412
#     4  11  28  49  64 102 142 183 238 289 344 422
#
# _framework density 24.814955000000001
#
# number of rings (size 3 to 8) (size 9 to 14) (size 15 to 20)
#    0.857    0.857    1.429    1.286    8.000    2.286 
#    7.714    2.143    0.000    0.000    0.000    0.000 
#    0.000    0.000    0.000    0.000    0.000    0.000 
#
# Total GULP energy -156020.446205 kJ/mol
# GULP energy per Si atom -5572.158793 kJ/mol
# Density = 2.475847 g / cm^3
# Si number density = 24.814955 Si / 1000 Ang^3
#
#
#
# Elastic Constant Matrix: (Units=GPa)
#
#
# Indices 1 2 3 4 5 6 
#
# 1 94.5613 19.0347 16.6985 0.0000 4.9422 0.0000
# 2 19.0347 60.5468 22.3507 -0.0001 12.5839 0.0000
# 3 16.6985 22.3507 123.4141 -0.0003 30.5059 -0.0001
# 4 0.0000 -0.0001 -0.0003 20.7929 -0.0002 10.1753
# 5 4.9422 12.5839 30.5059 -0.0002 26.9104 -0.0001
# 6 0.0000 0.0000 -0.0001 10.1753 -0.0001 15.6040
#
#
#
# Elastic Compliance Matrix: (Units=1/GPa)
#
#
# Indices 1 2 3 4 5 6 
#
# 1 0.011404 -0.003323 -0.001122 0.000000 0.000731 0.000000
# 2 -0.003323 0.019512 -0.001361 0.000000 -0.006971 0.000000
# 3 -0.001122 -0.001361 0.011521 0.000000 -0.012218 0.000000
# 4 0.000000 0.000000 0.000000 0.070633 0.000000 -0.046059
# 5 0.000731 -0.006971 -0.012218 0.000000 0.054136 0.000000
# 6 0.000000 0.000000 0.000000 -0.046059 0.000000 0.094121
#
#
# Mechanical properties :
#
#
# Convention : Reuss Voigt Hill
#
# Bulk Modulus (GPa) = 32.44078 43.85443 38.14760
# Shear Modulus (GPa) = 17.65448 27.35736 22.50592
#
# Velocity S-wave (km/s) = 2.67019 3.32393 3.01483
# Velocity P-wave (km/s) = 4.75479 5.69581 5.24644
#
# Compressibility (1/GPa) = 0.03082540
#
# Stress axis : x y z
#
# Youngs Moduli (GPa) = 87.68883 51.25028 86.79675
#
# Poissons Ratio (x) = 0.17030 0.09739
# Poissons Ratio (y) = 0.29139 0.11812
# Poissons Ratio (z) = 0.09839 0.06975
#
# Static dielectric constant tensor:
#      x y z
#    x 2.024580 0.000000 -0.028280 
#    y 0.000000 2.091600 0.000000 
#    z -0.028280 0.000000 1.997810 
# 
# From -- ./inp_files/280037.got.cif
#   From: 2010.05.17/outbox.cif.g08.bks.cpg/sg15_141_cif.got.tgz:280037.got - 2010.06.03 18:47:42.
