data_PCOD9300593
_publ_section_title
;
Structure prediction by ZEFSAII (Michael W. Deem and Ramdas Pophale) SiO2 
 PCOD9300593
Probable space group: C 2/C
;
_chemical_formula_sum "Si O2"
_cell_formula_units_Z 32
_cell_length_a 10.537037
_cell_length_b 9.341350
_cell_length_c 27.218163
_cell_angle_alpha 90.000000
_cell_angle_beta 26.378015
_cell_angle_gamma 90.000000
_cell_volume 1190.295846
_symmetry_space_group_name_H-M "C 2/C"
_symmetry_group_IT_number 15
_symmetry_cell_setting 'monoclinic'
loop_
_space_group_symop_operation_xyz
x,y,z
-x,y,1/2-z
-x,-y,-z
x,-y,1/2+z
1/2+x,1/2+y,z
1/2-x,1/2+y,1/2-z
1/2-x,1/2-y,-z
1/2+x,1/2-y,1/2+z
loop_
_atom_site_type_symbol
_atom_site_label
_atom_site_fract_x
_atom_site_fract_y
_atom_site_fract_z
Si Si1 0.335693 0.965377 0.644083
Si Si2 0.713223 0.255912 0.134827
Si Si3 0.752989 0.587314 0.770816
Si Si4 0.873944 0.168219 0.583907
O O1 0.405720 0.118546 0.594432
O O2 0.358180 0.969442 0.695151
O O3 0.000000 0.955769 0.750000
O O4 0.459216 0.824281 0.576648
O O5 0.500000 0.193671 0.250000
O O6 0.493818 0.333769 0.173919
O O7 0.917340 0.151544 0.034215
O O8 0.623105 0.563449 0.869990
O O9 0.046268 0.672881 0.679256
#
# Coordination Sequence:
#
# PCOD9300593 Si02
#       4
#     8   8   8   8
#     4   9  18  35  56  90 114 145 201 236 282 359
#     4   9  20  34  55  89 120 147 202 239 273 359
#     4   9  20  33  60  92 113 148 202 237 285 357
#     4  11  18  36  64  81 118 164 179 241 311 319
#
# _framework density 26.884070999999999
#
# number of rings (size 3 to 8) (size 9 to 14) (size 15 to 20)
#    0.000    3.000    2.500    1.500    0.000    4.000 
#    0.000    0.000   22.000    7.500    0.000    0.000 
#    0.000    0.000    0.000    0.000    0.000    0.000 
#
# Total GULP energy -89461.325038 kJ/mol
# GULP energy per Si atom -5591.332815 kJ/mol
# Density = 2.682288 g / cm^3
# Si number density = 26.884071 Si / 1000 Ang^3
#
#
#
# Elastic Constant Matrix: (Units=GPa)
#
#
# Indices 1 2 3 4 5 6 
#
# 1 120.2189 41.5805 81.8349 0.0142 44.3315 0.0135
# 2 41.5805 98.4314 27.9611 -0.0116 22.9761 0.0011
# 3 81.8349 27.9611 177.0851 -0.0608 48.6047 0.0467
# 4 0.0142 -0.0116 -0.0608 38.8522 -0.0186 4.9330
# 5 44.3315 22.9761 48.6047 -0.0186 52.0239 -0.0237
# 6 0.0135 0.0011 0.0467 4.9330 -0.0237 29.3978
#
#
#
# Elastic Compliance Matrix: (Units=1/GPa)
#
#
# Indices 1 2 3 4 5 6 
#
# 1 0.015271 -0.003473 -0.004516 -0.000017 -0.007259 -0.000003
# 2 -0.003473 0.012158 0.000466 0.000005 -0.002846 -0.000003
# 3 -0.004516 0.000466 0.008958 0.000016 -0.004727 -0.000019
# 4 -0.000017 0.000005 0.000016 0.026299 0.000005 -0.004413
# 5 -0.007259 -0.002846 -0.004727 0.000005 0.031081 0.000035
# 6 -0.000003 -0.000003 -0.000019 -0.004413 0.000035 0.034757
#
#
# Mechanical properties :
#
#
# Convention : Reuss Voigt Hill
#
# Bulk Modulus (GPa) = 46.85869 77.60980 62.23425
# Shear Modulus (GPa) = 33.18238 40.34537 36.76388
#
# Velocity S-wave (km/s) = 3.51704 3.87811 3.70198
# Velocity P-wave (km/s) = 5.82756 6.99886 6.43989
#
# Compressibility (1/GPa) = 0.02134076
#
# Stress axis : x y z
#
# Youngs Moduli (GPa) = 65.48552 82.24773 111.63694
#
# Poissons Ratio (x) = 0.28568 0.50414
# Poissons Ratio (y) = 0.22746 -0.05207
# Poissons Ratio (z) = 0.29573 -0.03836
#
# Static dielectric constant tensor:
#      x y z
#    x 2.078860 0.000010 0.067910 
#    y 0.000010 2.241950 0.000000 
#    z 0.067910 0.000000 2.074470 
# 
# From -- ./inp_files/268630.got.cif
#   From: 2010.05.17/outbox.cif.g08.bks.cpg/sg15_135_cif.got.tgz:268630.got - 2010.06.03 18:47:42.
