data_PCOD9300348
_publ_section_title
;
Structure prediction by ZEFSAII (Michael W. Deem and Ramdas Pophale) SiO2 
 PCOD9300348
Probable space group: C 2/C
;
_chemical_formula_sum "Si O2"
_cell_formula_units_Z 40
_cell_length_a 7.040659
_cell_length_b 22.819490
_cell_length_c 13.322055
_cell_angle_alpha 90.000000
_cell_angle_beta 135.126513
_cell_angle_gamma 90.000000
_cell_volume 1510.130213
_symmetry_space_group_name_H-M "C 2/C"
_symmetry_group_IT_number 15
_symmetry_cell_setting 'monoclinic'
loop_
_space_group_symop_operation_xyz
x,y,z
-x,y,1/2-z
-x,-y,-z
x,-y,1/2+z
1/2+x,1/2+y,z
1/2-x,1/2+y,1/2-z
1/2-x,1/2-y,-z
1/2+x,1/2-y,1/2+z
loop_
_atom_site_type_symbol
_atom_site_label
_atom_site_fract_x
_atom_site_fract_y
_atom_site_fract_z
Si Si1 0.242967 0.889066 0.465005
Si Si2 0.463786 0.291049 0.479595
Si Si3 0.227296 0.320871 0.708745
Si Si4 0.435613 0.118472 0.613624
Si Si5 0.308045 0.485579 0.583287
O O1 0.045061 0.838820 0.427226
O O2 0.525000 0.875713 0.628834
O O3 0.326264 0.884044 0.378902
O O4 0.123628 0.952851 0.443605
O O5 0.683427 0.296975 0.649648
O O6 0.423748 0.230188 0.409585
O O7 0.185403 0.316089 0.421815
O O8 0.500000 0.333758 0.750000
O O9 0.500000 0.098935 0.750000
O O10 0.211794 0.073935 0.486348
O O11 0.500000 0.479004 0.750000
O O12 0.000000 0.500000 0.500000
#
# Coordination Sequence:
#
# PCOD9300348 Si02
#       5
#     8   8   8   8   8
#     4  11  27  48  76 111 156 197 262 317 394 466
#     4  12  28  47  79 107 156 202 264 318 397 464
#     4  12  26  50  75 112 151 208 257 327 390 472
#     4  11  27  49  77 112 155 208 257 324 389 470
#     4  10  26  49  80 115 158 207 260 329 393 473
#
# _framework density 26.487781999999999
#
# number of rings (size 3 to 8) (size 9 to 14) (size 15 to 20)
#    0.000    0.800    2.000    2.400   14.000    2.400 
#    0.000    0.000    0.000    0.000    0.000    0.000 
#    0.000    0.000    0.000    0.000    0.000    0.000 
#
# Total GULP energy -112207.283265 kJ/mol
# GULP energy per Si atom -5610.364163 kJ/mol
# Density = 2.642749 g / cm^3
# Si number density = 26.487782 Si / 1000 Ang^3
#
#
#
# Elastic Constant Matrix: (Units=GPa)
#
#
# Indices 1 2 3 4 5 6 
#
# 1 93.1797 -3.8810 14.4234 0.0000 -17.1163 0.0000
# 2 -3.8810 125.8842 61.0434 0.0000 -16.5477 0.0000
# 3 14.4234 61.0434 229.3869 0.0000 -20.3883 0.0000
# 4 0.0000 0.0000 0.0000 50.9015 0.0000 10.2162
# 5 -17.1163 -16.5477 -20.3883 0.0000 44.0208 0.0000
# 6 0.0000 0.0000 0.0000 10.2162 0.0000 32.4357
#
#
#
# Elastic Compliance Matrix: (Units=1/GPa)
#
#
# Indices 1 2 3 4 5 6 
#
# 1 0.011764 0.001311 -0.000666 0.000000 0.004759 0.000000
# 2 0.001311 0.009517 -0.002349 0.000000 0.003000 0.000000
# 3 -0.000666 -0.002349 0.005136 0.000000 0.001237 0.000000
# 4 0.000000 0.000000 0.000000 0.020972 0.000000 -0.006605
# 5 0.004759 0.003000 0.001237 0.000000 0.026267 0.000000
# 6 0.000000 0.000000 0.000000 -0.006605 0.000000 0.032911
#
#
# Mechanical properties :
#
#
# Convention : Reuss Voigt Hill
#
# Bulk Modulus (GPa) = 43.45762 65.73584 54.59673
# Shear Modulus (GPa) = 42.50126 50.59593 46.54860
#
# Velocity S-wave (km/s) = 4.01004 4.37528 4.19664
# Velocity P-wave (km/s) = 6.15491 7.09897 6.64373
#
# Compressibility (1/GPa) = 0.02301093
#
# Stress axis : x y z
#
# Youngs Moduli (GPa) = 85.00738 105.07098 194.69463
#
# Poissons Ratio (x) = -0.13774 0.12959
# Poissons Ratio (y) = -0.11144 0.45725
# Poissons Ratio (z) = 0.05658 0.24676
#
# Static dielectric constant tensor:
#      x y z
#    x 2.152740 0.000000 0.040810 
#    y 0.000000 2.095300 0.000000 
#    z 0.040810 0.000000 2.088460 
# 
# From -- ./inp_files/23606.got.cif
#   From: 2010.05.17/outbox.cif.g08.bks.cpg/sg15_12_cif.got.tgz:23606.got - 2010.06.03 18:47:42.
