data_PCOD9300636
_publ_section_title
;
Structure prediction by ZEFSAII (Michael W. Deem and Ramdas Pophale) SiO2 
 PCOD9300636
Probable space group: C 2/C
;
_chemical_formula_sum "Si O2"
_cell_formula_units_Z 64
_cell_length_a 16.289762
_cell_length_b 31.041789
_cell_length_c 12.770169
_cell_angle_alpha 90.000000
_cell_angle_beta 37.135516
_cell_angle_gamma 90.000000
_cell_volume 3898.350969
_symmetry_space_group_name_H-M "C 2/C"
_symmetry_group_IT_number 15
_symmetry_cell_setting 'monoclinic'
loop_
_space_group_symop_operation_xyz
x,y,z
-x,y,1/2-z
-x,-y,-z
x,-y,1/2+z
1/2+x,1/2+y,z
1/2-x,1/2+y,1/2-z
1/2-x,1/2-y,-z
1/2+x,1/2-y,1/2+z
loop_
_atom_site_type_symbol
_atom_site_label
_atom_site_fract_x
_atom_site_fract_y
_atom_site_fract_z
Si Si1 0.629180 0.699814 0.548648
Si Si2 0.483977 0.936243 0.582103
Si Si3 0.489221 0.569565 0.546786
Si Si4 0.226328 0.110978 0.431972
Si Si5 0.623148 0.205149 0.045024
Si Si6 0.758884 0.620734 0.648698
Si Si7 0.099958 0.984327 0.747315
Si Si8 0.084885 0.525761 0.569715
O O1 0.500000 0.686712 0.750000
O O2 0.684085 0.658339 0.431565
O O3 0.597392 0.746252 0.529155
O O4 0.747574 0.707752 0.511267
O O5 0.373843 0.905849 0.749535
O O6 0.627448 0.912447 0.429040
O O7 0.426231 0.948518 0.527350
O O8 0.513129 0.979954 0.616496
O O9 0.612152 0.579972 0.500907
O O10 0.382768 0.609155 0.650976
O O11 0.411846 0.528383 0.674086
O O12 0.550431 0.554040 0.374346
O O13 0.227193 0.113233 0.557139
O O14 0.500000 0.193243 0.250000
O O15 0.668705 0.167660 0.919478
O O16 0.258119 0.979369 0.558385
O O17 0.000000 0.986532 0.750000
O O18 0.000000 0.546309 0.750000
#
# Coordination Sequence:
#
# PCOD9300636 Si02
#       8
#     8   8   8   8   8   8   8   8
#     4   9  17  29  46  69 102 142 171 204 245 299
#     4  11  23  35  51  76 103 132 177 214 251 307
#     4  11  23  35  51  76 102 130 178 213 249 308
#     4  11  19  33  49  74 106 140 174 207 248 295
#     4   9  17  29  45  71 104 138 175 201 245 299
#     4  11  19  31  51  76 103 142 168 208 247 302
#     4  11  24  39  55  72 100 136 170 220 266 300
#     4  11  24  39  54  72 100 136 171 218 267 301
#
# _framework density 16.417199
#
# number of rings (size 3 to 8) (size 9 to 14) (size 15 to 20)
#    0.000    1.500    2.500    5.250    3.500    0.000 
#    0.000    0.000    0.000    0.000    0.000    0.000 
#    0.000    6.000    0.000    0.000    0.000    0.000 
#
# Total GULP energy -178341.879393 kJ/mol
# GULP energy per Si atom -5573.183731 kJ/mol
# Density = 1.637983 g / cm^3
# Si number density = 16.417199 Si / 1000 Ang^3
#
#
#
# Elastic Constant Matrix: (Units=GPa)
#
#
# Indices 1 2 3 4 5 6 
#
# 1 36.9890 6.9195 22.3140 0.0000 -10.9949 0.0000
# 2 6.9195 66.2467 16.0079 0.0000 5.7328 0.0000
# 3 22.3140 16.0079 94.5378 0.0000 -16.0505 0.0000
# 4 0.0000 0.0000 0.0000 25.5335 0.0000 -3.7114
# 5 -10.9949 5.7328 -16.0505 0.0000 27.9923 0.0000
# 6 0.0000 0.0000 0.0000 -3.7114 0.0000 12.5132
#
#
#
# Elastic Compliance Matrix: (Units=1/GPa)
#
#
# Indices 1 2 3 4 5 6 
#
# 1 0.034295 -0.003136 -0.005725 0.000000 0.010830 0.000000
# 2 -0.003136 0.016759 -0.003201 0.000000 -0.006499 0.000000
# 3 -0.005725 -0.003201 0.013516 0.000000 0.006157 0.000000
# 4 0.000000 0.000000 0.000000 0.040929 0.000000 0.012139
# 5 0.010830 -0.006499 0.006157 0.000000 0.044839 0.000000
# 6 0.000000 0.000000 0.000000 0.012139 0.000000 0.083516
#
#
# Mechanical properties :
#
#
# Convention : Reuss Voigt Hill
#
# Bulk Modulus (GPa) = 24.72438 32.02848 28.37643
# Shear Modulus (GPa) = 18.41897 23.37661 20.89779
#
# Velocity S-wave (km/s) = 3.35316 3.77757 3.57167
# Velocity P-wave (km/s) = 5.48492 6.21113 5.85928
#
# Compressibility (1/GPa) = 0.04044591
#
# Stress axis : x y z
#
# Youngs Moduli (GPa) = 29.15915 59.67097 73.98426
#
# Poissons Ratio (x) = 0.18712 0.42355
# Poissons Ratio (y) = 0.09144 0.23682
# Poissons Ratio (z) = 0.16693 0.19100
#
# Static dielectric constant tensor:
#      x y z
#    x 1.523720 0.000000 -0.001350 
#    y 0.000000 1.650010 0.000000 
#    z -0.001350 0.000000 1.556760 
# 
# From -- ./inp_files/164516.got.cif
#   From: 2010.05.17/outbox.cif.g08.bks.cpg/sg15_83_cif.got.tgz:164516.got - 2010.06.03 18:47:42.
