data_PCOD9300569
_publ_section_title
;
Structure prediction by ZEFSAII (Michael W. Deem and Ramdas Pophale) SiO2 
 PCOD9300569
Probable space group: C 2/C
;
_chemical_formula_sum "Si O2"
_cell_formula_units_Z 56
_cell_length_a 18.824614
_cell_length_b 25.745295
_cell_length_c 10.987901
_cell_angle_alpha 90.000000
_cell_angle_beta 29.974004
_cell_angle_gamma 90.000000
_cell_volume 2660.524247
_symmetry_space_group_name_H-M "C 2/C"
_symmetry_group_IT_number 15
_symmetry_cell_setting 'monoclinic'
loop_
_space_group_symop_operation_xyz
x,y,z
-x,y,1/2-z
-x,-y,-z
x,-y,1/2+z
1/2+x,1/2+y,z
1/2-x,1/2+y,1/2-z
1/2-x,1/2-y,-z
1/2+x,1/2-y,1/2+z
loop_
_atom_site_type_symbol
_atom_site_label
_atom_site_fract_x
_atom_site_fract_y
_atom_site_fract_z
Si Si1 0.112829 0.184036 0.184391
Si Si2 0.589193 0.157808 0.000724
Si Si3 0.141703 0.535942 0.458869
Si Si4 0.805626 0.242532 0.227473
Si Si5 0.584431 0.847713 0.993742
Si Si6 0.893817 0.069255 0.245509
Si Si7 0.792010 0.938170 0.164511
O O1 0.075804 0.217785 0.358397
O O2 0.158084 0.129420 0.174441
O O3 0.000000 0.168868 0.250000
O O4 0.216391 0.219925 0.951127
O O5 0.500000 0.139685 0.250000
O O6 0.639671 0.216745 0.951458
O O7 0.507116 0.161308 0.992793
O O8 0.717622 0.117562 0.790469
O O9 0.131946 0.592025 0.408777
O O10 0.290236 0.539644 0.310360
O O11 0.166548 0.480742 0.359385
O O12 0.000000 0.532976 0.750000
O O13 0.706577 0.196188 0.324967
O O14 0.500000 0.844058 0.250000
O O15 0.853979 0.051797 0.439308
O O16 0.062032 0.063471 0.972254
#
# Coordination Sequence:
#
# PCOD9300569 Si02
#       7
#     8   8   8   8   8   8   8
#     4  11  18  34  65  99 126 165 220 293 334 377
#     4  12  26  42  65 100 141 185 221 272 353 421
#     4  11  24  40  65  96 133 170 221 287 346 403
#     4  11  21  36  63  98 132 169 223 278 342 396
#     4  11  23  42  69  99 132 172 236 287 337 395
#     4  11  21  41  67  97 126 171 238 286 331 395
#     4  11  23  41  65  93 131 177 230 283 336 405
#
# _framework density 21.048483000000001
#
# number of rings (size 3 to 8) (size 9 to 14) (size 15 to 20)
#    0.000    0.857    4.286    5.571    0.000    4.000 
#    0.000    0.000    3.143    0.000    0.000    0.000 
#    0.000    0.000    0.000    0.000    0.000    0.000 
#
# Total GULP energy -155958.233428 kJ/mol
# GULP energy per Si atom -5569.936908 kJ/mol
# Density = 2.100058 g / cm^3
# Si number density = 21.048483 Si / 1000 Ang^3
#
#
#
# Elastic Constant Matrix: (Units=GPa)
#
#
# Indices 1 2 3 4 5 6 
#
# 1 67.1208 11.2234 23.9970 0.0027 -14.1431 -0.0009
# 2 11.2234 114.7712 36.9527 0.0047 -11.2900 -0.0022
# 3 23.9970 36.9527 69.2630 0.0037 -10.3688 -0.0022
# 4 0.0027 0.0047 0.0037 31.8372 -0.0016 -6.0826
# 5 -14.1431 -11.2900 -10.3688 -0.0016 19.8307 0.0005
# 6 -0.0009 -0.0022 -0.0022 -6.0826 0.0005 16.5668
#
#
#
# Elastic Compliance Matrix: (Units=1/GPa)
#
#
# Indices 1 2 3 4 5 6 
#
# 1 0.019063 0.001002 -0.005445 -0.000001 0.011319 0.000000
# 2 0.001002 0.010777 -0.005502 -0.000001 0.003974 0.000000
# 3 -0.005445 -0.005502 0.019756 -0.000001 0.003314 0.000001
# 4 -0.000001 -0.000001 -0.000001 0.033779 0.000001 0.012402
# 5 0.011319 0.003974 0.003314 0.000001 0.062494 0.000000
# 6 0.000000 0.000000 0.000001 0.012402 0.000000 0.064915
#
#
# Mechanical properties :
#
#
# Convention : Reuss Voigt Hill
#
# Bulk Modulus (GPa) = 33.66287 43.94460 38.80373
# Shear Modulus (GPa) = 20.78342 25.57905 23.18124
#
# Velocity S-wave (km/s) = 3.14571 3.48982 3.32222
# Velocity P-wave (km/s) = 5.40571 6.09603 5.76122
#
# Compressibility (1/GPa) = 0.02970632
#
# Stress axis : x y z
#
# Youngs Moduli (GPa) = 52.45888 92.78651 50.61810
#
# Poissons Ratio (x) = -0.09301 0.27560
# Poissons Ratio (y) = -0.05258 0.27852
# Poissons Ratio (z) = 0.28563 0.51054
#
# Static dielectric constant tensor:
#      x y z
#    x 1.821610 0.000000 -0.037710 
#    y 0.000000 1.829690 0.000000 
#    z -0.037710 0.000000 1.785530 
# 
# From -- ./inp_files/114704.got.cif
#   From: 2010.05.17/outbox.cif.g08.bks.cpg/sg15_58_cif.got.tgz:114704.got - 2010.06.03 18:47:42.
