data_PCOD9300000
_publ_section_title
;
Structure prediction by ZEFSAII (Michael W. Deem and Ramdas Pophale) SiO2 
 PCOD9300000
Probable space group: C 2/C
;
_chemical_formula_sum "Si O2"
_cell_formula_units_Z 52
_cell_length_a 14.434048
_cell_length_b 5.388641
_cell_length_c 27.858762
_cell_angle_alpha 90.000000
_cell_angle_beta 106.291209
_cell_angle_gamma 90.000000
_cell_volume 2079.849113
_symmetry_space_group_name_H-M "C 2/C"
_symmetry_group_IT_number 15
_symmetry_cell_setting 'monoclinic'
loop_
_space_group_symop_operation_xyz
x,y,z
-x,y,1/2-z
-x,-y,-z
x,-y,1/2+z
1/2+x,1/2+y,z
1/2-x,1/2+y,1/2-z
1/2-x,1/2-y,-z
1/2+x,1/2-y,1/2+z
loop_
_atom_site_type_symbol
_atom_site_label
_atom_site_fract_x
_atom_site_fract_y
_atom_site_fract_z
Si Si1 0.517612 0.321518 0.165882
Si Si2 0.064723 0.091051 0.435576
Si Si3 0.767263 0.729464 0.432181
Si Si4 0.201163 0.556282 0.166151
Si Si5 0.500000 0.057585 0.250000
Si Si6 0.885156 0.767180 0.970685
Si Si7 0.842118 0.805537 0.770839
O O1 0.468167 0.503451 0.121637
O O2 0.590113 0.146255 0.146784
O O3 0.452731 0.187315 0.195971
O O4 0.589781 0.461646 0.212435
O O5 0.165422 0.232848 0.444517
O O6 0.979921 0.234983 0.450830
O O7 0.084220 0.848190 0.471378
O O8 0.749455 0.649156 0.374498
O O9 0.821080 0.993795 0.444202
O O10 0.830040 0.492857 0.459549
O O11 0.194605 0.269562 0.181287
O O12 0.258590 0.661277 0.220369
O O13 0.585136 0.900268 0.238601
#
# Coordination Sequence:
#
# PCOD9300000 Si02
#       7
#     8   8   8   8   4   8   8
#     4  11  23  47  63 103 144 183 243 297 363 440
#     4  11  26  47  80 106 149 199 247 315 378 439
#     4  12  27  48  78 111 150 196 252 307 380 444
#     4  11  24  41  70  96 141 192 239 300 366 433
#     4  10  26  38  66  98 140 182 244 286 356 440
#     4  11  27  53  74 113 151 195 251 315 370 454
#     4  11  23  43  64  97 141 189 233 298 358 435
#
# _framework density 25.001811
#
# number of rings (size 3 to 8) (size 9 to 14) (size 15 to 20)
#    0.000    0.923    3.077    2.308    4.308    4.923 
#    8.308    0.000    0.000    0.000    0.000    0.000 
#    0.000    0.000    0.000    0.000    0.000    0.000 
#
# Total GULP energy -145498.268224 kJ/mol
# GULP energy per Si atom -5596.087239 kJ/mol
# Density = 2.494491 g / cm^3
# Si number density = 25.001811 Si / 1000 Ang^3
#
#
#
# Elastic Constant Matrix: (Units=GPa)
#
#
# Indices 1 2 3 4 5 6 
#
# 1 148.6380 33.3736 27.2194 0.0000 -9.6542 0.0000
# 2 33.3736 60.2193 14.4324 0.0000 0.4157 0.0000
# 3 27.2194 14.4324 101.5814 0.0000 -4.8323 0.0000
# 4 0.0000 0.0000 0.0000 25.6445 0.0000 1.9352
# 5 -9.6542 0.4157 -4.8323 0.0000 41.2137 0.0000
# 6 0.0000 0.0000 0.0000 1.9352 0.0000 4.1693
#
#
#
# Elastic Compliance Matrix: (Units=1/GPa)
#
#
# Indices 1 2 3 4 5 6 
#
# 1 0.008036 -0.004110 -0.001486 0.000000 0.001750 0.000000
# 2 -0.004110 0.019302 -0.001706 0.000000 -0.001357 0.000000
# 3 -0.001486 -0.001706 0.010528 0.000000 0.000903 0.000000
# 4 0.000000 0.000000 0.000000 0.040410 0.000000 -0.018756
# 5 0.001750 -0.001357 0.000903 0.000000 0.024793 0.000000
# 6 0.000000 0.000000 0.000000 -0.018756 0.000000 0.248553
#
#
# Mechanical properties :
#
#
# Convention : Reuss Voigt Hill
#
# Bulk Modulus (GPa) = 42.98722 51.16550 47.07636
# Shear Modulus (GPa) = 13.36971 29.89973 21.63472
#
# Velocity S-wave (km/s) = 2.31497 3.46193 2.94483
# Velocity P-wave (km/s) = 4.93725 6.04062 5.51659
#
# Compressibility (1/GPa) = 0.02326273
#
# Stress axis : x y z
#
# Youngs Moduli (GPa) = 124.43547 51.80899 94.98570
#
# Poissons Ratio (x) = 0.21291 0.14117
# Poissons Ratio (y) = 0.51138 0.16202
# Poissons Ratio (z) = 0.18494 0.08837
#
# Static dielectric constant tensor:
#      x y z
#    x 2.038790 0.000000 -0.001560 
#    y 0.000000 2.052370 0.000000 
#    z -0.001560 0.000000 1.967900 
# 
# From -- ./inp_files/312418.got.cif
#   From: 2010.05.17/outbox.cif.g08.bks.cpg/sg15_157_cif.got.tgz:312418.got - 2010.06.03 18:47:42.
