data_PCOD9300660
_publ_section_title
;
Structure prediction by ZEFSAII (Michael W. Deem and Ramdas Pophale) SiO2 
 PCOD9300660
Probable space group: C 2/C
;
_chemical_formula_sum "Si O2"
_cell_formula_units_Z 36
_cell_length_a 12.039161
_cell_length_b 19.593017
_cell_length_c 13.097162
_cell_angle_alpha 90.000000
_cell_angle_beta 143.104652
_cell_angle_gamma 90.000000
_cell_volume 1854.740188
_symmetry_space_group_name_H-M "C 2/C"
_symmetry_group_IT_number 15
_symmetry_cell_setting 'monoclinic'
loop_
_space_group_symop_operation_xyz
x,y,z
-x,y,1/2-z
-x,-y,-z
x,-y,1/2+z
1/2+x,1/2+y,z
1/2-x,1/2+y,1/2-z
1/2-x,1/2-y,-z
1/2+x,1/2-y,1/2+z
loop_
_atom_site_type_symbol
_atom_site_label
_atom_site_fract_x
_atom_site_fract_y
_atom_site_fract_z
Si Si1 0.473453 0.144724 0.846794
Si Si2 0.740905 0.537571 0.775079
Si Si3 0.169286 0.783927 0.793830
Si Si4 0.934997 0.092689 0.404948
Si Si5 0.500000 0.520343 0.250000
O O1 0.500000 0.120769 0.750000
O O2 0.416005 0.082492 0.876674
O O3 0.318511 0.204615 0.726825
O O4 0.653928 0.183270 0.021537
O O5 0.568484 0.577922 0.596520
O O6 0.731660 0.462710 0.715710
O O7 0.676565 0.523160 0.843365
O O8 0.126234 0.831431 0.665084
O O9 0.000000 0.786569 0.750000
O O10 0.039481 0.066828 0.377705
#
# Coordination Sequence:
#
# PCOD9300660 Si02
#       5
#     8   8   8   8   4
#     4  11  22  30  52  78 105 134 169 213 259 312
#     4   9  18  33  52  82  99 139 167 203 261 298
#     4  11  19  34  50  73 105 134 170 215 262 301
#     4   9  17  32  57  75 102 137 167 210 254 298
#     4   8  16  32  58  72 104 136 168 208 246 306
#
# _framework density 19.409727
#
# number of rings (size 3 to 8) (size 9 to 14) (size 15 to 20)
#    1.333    0.889    1.111    5.333    0.000    0.889 
#    0.000    0.000    0.000    5.333    0.000    0.000 
#    0.000    0.000    0.000    0.000    0.000    0.000 
#
# Total GULP energy -100232.264865 kJ/mol
# GULP energy per Si atom -5568.459159 kJ/mol
# Density = 1.936555 g / cm^3
# Si number density = 19.409727 Si / 1000 Ang^3
#
#
#
# Elastic Constant Matrix: (Units=GPa)
#
#
# Indices 1 2 3 4 5 6 
#
# 1 43.1061 20.9600 0.8364 0.0000 4.8855 0.0000
# 2 20.9600 73.7151 -12.1879 0.0000 16.4671 0.0000
# 3 0.8364 -12.1879 56.5036 0.0000 7.0925 0.0000
# 4 0.0000 0.0000 0.0000 20.6078 0.0000 4.4241
# 5 4.8855 16.4671 7.0925 0.0000 20.2382 0.0000
# 6 0.0000 0.0000 0.0000 4.4241 0.0000 35.6764
#
#
#
# Elastic Compliance Matrix: (Units=1/GPa)
#
#
# Indices 1 2 3 4 5 6 
#
# 1 0.027185 -0.008351 -0.002335 0.000000 0.001050 0.000000
# 2 -0.008351 0.020966 0.006835 0.000000 -0.017439 0.000000
# 3 -0.002335 0.006835 0.020747 0.000000 -0.012268 0.000000
# 4 0.000000 0.000000 0.000000 0.049853 0.000000 -0.006182
# 5 0.001050 -0.017439 -0.012268 0.000000 0.067646 0.000000
# 6 0.000000 0.000000 0.000000 -0.006182 0.000000 0.028796
#
#
# Mechanical properties :
#
#
# Convention : Reuss Voigt Hill
#
# Bulk Modulus (GPa) = 16.34110 21.39352 18.86731
# Shear Modulus (GPa) = 20.55126 26.21890 23.38508
#
# Velocity S-wave (km/s) = 3.25747 3.67933 3.47481
# Velocity P-wave (km/s) = 4.75242 5.39406 5.08337
#
# Compressibility (1/GPa) = 0.06119539
#
# Stress axis : x y z
#
# Youngs Moduli (GPa) = 36.78462 47.69675 48.20021
#
# Poissons Ratio (x) = 0.39830 0.11257
# Poissons Ratio (y) = 0.30717 -0.32944
# Poissons Ratio (z) = 0.08591 -0.32600
#
# Static dielectric constant tensor:
#      x y z
#    x 1.677920 0.000000 0.023460 
#    y 0.000000 1.744720 0.000000 
#    z 0.023460 0.000000 1.770840 
# 
# From -- ./inp_files/147948.got.cif
#   From: 2010.05.17/outbox.cif.g08.bks.cpg/sg15_74_cif.got.tgz:147948.got - 2010.06.03 18:47:42.
