data_PCOD9300942
_publ_section_title
;
Structure prediction by ZEFSAII (Michael W. Deem and Ramdas Pophale) SiO2 
 PCOD9300942
Probable space group: C 2/C
;
_chemical_formula_sum "Si O2"
_cell_formula_units_Z 64
_cell_length_a 24.714111
_cell_length_b 18.394976
_cell_length_c 21.402339
_cell_angle_alpha 90.000000
_cell_angle_beta 19.874078
_cell_angle_gamma 90.000000
_cell_volume 3307.697222
_symmetry_space_group_name_H-M "C 2/C"
_symmetry_group_IT_number 15
_symmetry_cell_setting 'monoclinic'
loop_
_space_group_symop_operation_xyz
x,y,z
-x,y,1/2-z
-x,-y,-z
x,-y,1/2+z
1/2+x,1/2+y,z
1/2-x,1/2+y,1/2-z
1/2-x,1/2-y,-z
1/2+x,1/2-y,1/2+z
loop_
_atom_site_type_symbol
_atom_site_label
_atom_site_fract_x
_atom_site_fract_y
_atom_site_fract_z
Si Si1 0.732126 0.522848 0.805636
Si Si2 0.732297 0.691866 0.575189
Si Si3 0.119415 0.538430 0.070632
Si Si4 0.128454 0.808500 0.991791
Si Si5 0.413303 0.901684 0.682174
Si Si6 0.209897 0.821012 0.757039
Si Si7 0.430855 0.166728 0.598915
Si Si8 0.375171 0.529697 0.211499
O O1 0.850917 0.460128 0.699305
O O2 0.814482 0.598458 0.734126
O O3 0.692661 0.515829 0.774629
O O4 0.558846 0.511067 0.024053
O O5 0.750000 0.750000 0.500000
O O6 0.814020 0.614628 0.474666
O O7 0.815203 0.730144 0.544719
O O8 0.548623 0.679544 0.791955
O O9 0.000000 0.503952 0.250000
O O10 0.017319 0.559695 0.120740
O O11 0.263541 0.488846 0.890631
O O12 0.258574 0.863622 0.878920
O O13 0.148485 0.821491 0.895876
O O14 0.510926 0.842070 0.536483
O O15 0.400124 0.832902 0.549121
O O16 0.159189 0.741398 0.790013
O O17 0.132674 0.887038 0.803063
#
# Coordination Sequence:
#
# PCOD9300942 Si02
#       8
#     8   8   8   8   8   8   8   8
#     4  11  21  38  62  92 123 160 196 270 322 381
#     4  12  24  39  55  82 123 173 220 255 298 362
#     4  12  25  40  60  85 118 169 213 255 301 374
#     4  11  21  34  54  79 116 162 206 255 305 356
#     4  11  21  38  58  90 123 161 208 254 314 370
#     4  11  22  35  56  90 122 161 201 259 318 378
#     4  11  20  34  56  88 126 155 197 246 323 377
#     4  11  23  39  62  89 126 158 212 258 327 374
#
# _framework density 19.34881
#
# number of rings (size 3 to 8) (size 9 to 14) (size 15 to 20)
#    0.000    0.750    3.750    7.500    1.750    0.000 
#    0.000    1.875    0.000    0.000    0.000    7.875 
#    0.000    0.000    0.000    0.000    0.000    0.000 
#
# Total GULP energy -178877.974050 kJ/mol
# GULP energy per Si atom -5589.936689 kJ/mol
# Density = 1.930477 g / cm^3
# Si number density = 19.348810 Si / 1000 Ang^3
#
#
#
# Elastic Constant Matrix: (Units=GPa)
#
#
# Indices 1 2 3 4 5 6 
#
# 1 37.0418 10.6242 19.6467 -0.0059 -0.8170 0.0022
# 2 10.6242 97.4068 22.7586 -0.0156 2.8821 0.0080
# 3 19.6467 22.7586 126.6757 -0.0275 9.3372 0.0115
# 4 -0.0059 -0.0156 -0.0275 39.1926 0.0072 -7.0881
# 5 -0.8170 2.8821 9.3372 0.0072 28.0430 -0.0026
# 6 0.0022 0.0080 0.0115 -7.0881 -0.0026 17.9066
#
#
#
# Elastic Compliance Matrix: (Units=1/GPa)
#
#
# Indices 1 2 3 4 5 6 
#
# 1 0.030073 -0.002320 -0.004438 0.000000 0.002592 0.000001
# 2 -0.002320 0.010901 -0.001549 0.000003 -0.000672 -0.000003
# 3 -0.004438 -0.001549 0.009082 0.000005 -0.002994 -0.000003
# 4 0.000000 0.000003 0.000005 0.027482 -0.000008 0.010879
# 5 0.002592 -0.000672 -0.002994 -0.000008 0.036801 0.000004
# 6 0.000001 -0.000003 -0.000003 0.010879 0.000004 0.060152
#
#
# Mechanical properties :
#
#
# Convention : Reuss Voigt Hill
#
# Bulk Modulus (GPa) = 29.90341 40.79814 35.35077
# Shear Modulus (GPa) = 24.72155 30.90141 27.81148
#
# Velocity S-wave (km/s) = 3.57834 4.00067 3.79538
# Velocity P-wave (km/s) = 5.70624 6.51705 6.12507
#
# Compressibility (1/GPa) = 0.03344100
#
# Stress axis : x y z
#
# Youngs Moduli (GPa) = 33.25217 91.73395 110.11319
#
# Poissons Ratio (x) = 0.21280 0.48874
# Poissons Ratio (y) = 0.07714 0.17058
# Poissons Ratio (z) = 0.14759 0.14211
#
# Static dielectric constant tensor:
#      x y z
#    x 1.687960 0.000000 -0.007920 
#    y 0.000000 1.689010 0.000010 
#    z -0.007920 0.000010 1.697870 
# 
# From -- ./inp_files/255967.got.cif
#   From: 2010.05.17/outbox.cif.g08.bks.cpg/sg15_128_cif.got.tgz:255967.got - 2010.06.03 18:47:42.
