data_PCOD9300355
_publ_section_title
;
Structure prediction by ZEFSAII (Michael W. Deem and Ramdas Pophale) SiO2 
 PCOD9300355
Probable space group: C 2/C
;
_chemical_formula_sum "Si O2"
_cell_formula_units_Z 44
_cell_length_a 11.834320
_cell_length_b 17.424917
_cell_length_c 8.773759
_cell_angle_alpha 90.000000
_cell_angle_beta 77.877878
_cell_angle_gamma 90.000000
_cell_volume 1768.912428
_symmetry_space_group_name_H-M "C 2/C"
_symmetry_group_IT_number 15
_symmetry_cell_setting 'monoclinic'
loop_
_space_group_symop_operation_xyz
x,y,z
-x,y,1/2-z
-x,-y,-z
x,-y,1/2+z
1/2+x,1/2+y,z
1/2-x,1/2+y,1/2-z
1/2-x,1/2-y,-z
1/2+x,1/2-y,1/2+z
loop_
_atom_site_type_symbol
_atom_site_label
_atom_site_fract_x
_atom_site_fract_y
_atom_site_fract_z
Si Si1 0.794175 0.844694 0.558683
Si Si2 0.972131 0.242834 0.579676
Si Si3 0.130129 0.843211 0.647933
Si Si4 0.419568 0.887016 0.031852
Si Si5 0.000000 0.496621 0.250000
Si Si6 0.910719 0.982296 0.395981
O O1 0.917609 0.811615 0.481004
O O2 0.779988 0.824134 0.740940
O O3 0.686101 0.829994 0.480756
O O4 0.812461 0.933166 0.503076
O O5 0.976647 0.325356 0.493919
O O6 0.000000 0.260496 0.750000
O O7 0.870139 0.195461 0.519466
O O8 0.000000 0.825041 0.750000
O O9 0.135950 0.935625 0.643826
O O10 0.441766 0.946936 0.888740
O O11 0.414527 0.939115 0.183232
O O12 0.000000 0.944386 0.250000
O O13 0.000000 0.000000 0.500000
#
# Coordination Sequence:
#
# PCOD9300355 Si02
#       6
#     8   8   8   8   4   8
#     4  11  23  37  66 101 129 163 216 264 312 390
#     4  11  22  42  65  94 136 172 204 258 333 389
#     4   9  20  35  58  93 133 169 195 247 329 385
#     4  11  25  47  69  91 124 167 232 269 312 377
#     4  10  26  50  70  86 118 184 216 276 328 354
#     4  11  18  33  55  92 136 169 193 244 323 396
#
# _framework density 24.874040999999998
#
# number of rings (size 3 to 8) (size 9 to 14) (size 15 to 20)
#    0.000    1.455    6.364    1.091    6.364    0.000 
#    0.000    0.909    0.000    0.000    0.000    0.000 
#    0.000    0.000    0.000    0.000    0.000    0.000 
#
# Total GULP energy -122484.717898 kJ/mol
# GULP energy per Si atom -5567.487177 kJ/mol
# Density = 2.481743 g / cm^3
# Si number density = 24.874041 Si / 1000 Ang^3
#
#
#
# Elastic Constant Matrix: (Units=GPa)
#
#
# Indices 1 2 3 4 5 6 
#
# 1 34.8840 3.5414 2.9916 0.0000 18.3502 0.0000
# 2 3.5414 78.4633 35.5322 0.0000 9.7216 0.0000
# 3 2.9916 35.5322 91.6361 0.0000 21.0801 0.0000
# 4 0.0000 0.0000 0.0000 48.7062 0.0000 0.1412
# 5 18.3502 9.7216 21.0801 0.0000 28.1498 0.0000
# 6 0.0000 0.0000 0.0000 0.1412 0.0000 31.3670
#
#
#
# Elastic Compliance Matrix: (Units=1/GPa)
#
#
# Indices 1 2 3 4 5 6 
#
# 1 0.046782 -0.000875 0.006956 0.000000 -0.035403 0.000000
# 2 -0.000875 0.015500 -0.005898 0.000000 -0.000366 0.000000
# 3 0.006956 -0.005898 0.016366 0.000000 -0.014754 0.000000
# 4 0.000000 0.000000 0.000000 0.020532 0.000000 -0.000092
# 5 -0.035403 -0.000366 -0.014754 0.000000 0.069778 0.000000
# 6 0.000000 0.000000 0.000000 -0.000092 0.000000 0.031881
#
#
# Mechanical properties :
#
#
# Convention : Reuss Voigt Hill
#
# Bulk Modulus (GPa) = 12.65565 32.12376 22.38971
# Shear Modulus (GPa) = 22.04480 32.50583 27.27531
#
# Velocity S-wave (km/s) = 2.98024 3.61891 3.31499
# Velocity P-wave (km/s) = 4.11599 5.51404 4.86549
#
# Compressibility (1/GPa) = 0.07901608
#
# Stress axis : x y z
#
# Youngs Moduli (GPa) = 21.37568 64.51454 61.10057
#
# Poissons Ratio (x) = 0.05646 -0.42503
# Poissons Ratio (y) = 0.01871 0.36034
# Poissons Ratio (z) = -0.14870 0.38048
#
# Static dielectric constant tensor:
#      x y z
#    x 1.880920 0.000000 0.055220 
#    y 0.000000 1.813480 0.000000 
#    z 0.055220 0.000000 2.012250 
# 
# From -- ./inp_files/39229.got.cif
#   From: 2010.05.17/outbox.cif.g08.bks.cpg/sg15_20_cif.got.tgz:39229.got - 2010.06.03 18:47:42.
