data_PCOD9300651
_publ_section_title
;
Structure prediction by ZEFSAII (Michael W. Deem and Ramdas Pophale) SiO2 
 PCOD9300651
Probable space group: C 2/C
;
_chemical_formula_sum "Si O2"
_cell_formula_units_Z 64
_cell_length_a 5.310616
_cell_length_b 22.865882
_cell_length_c 24.215077
_cell_angle_alpha 90.000000
_cell_angle_beta 89.698275
_cell_angle_gamma 90.000000
_cell_volume 2940.442492
_symmetry_space_group_name_H-M "C 2/C"
_symmetry_group_IT_number 15
_symmetry_cell_setting 'monoclinic'
loop_
_space_group_symop_operation_xyz
x,y,z
-x,y,1/2-z
-x,-y,-z
x,-y,1/2+z
1/2+x,1/2+y,z
1/2-x,1/2+y,1/2-z
1/2-x,1/2-y,-z
1/2+x,1/2-y,1/2+z
loop_
_atom_site_type_symbol
_atom_site_label
_atom_site_fract_x
_atom_site_fract_y
_atom_site_fract_z
Si Si1 0.443866 0.700755 0.016766
Si Si2 0.051179 0.931055 0.856520
Si Si3 0.951293 0.608931 0.513272
Si Si4 0.930955 0.631047 0.106463
Si Si5 0.692338 0.256837 0.407625
Si Si6 0.603419 0.527086 0.555448
Si Si7 0.756878 0.877704 0.115232
Si Si8 0.240868 0.965479 0.283848
O O1 0.559662 0.720166 0.074676
O O2 0.250000 0.750000 0.000000
O O3 0.297123 0.640346 0.010894
O O4 0.631389 0.710010 0.965451
O O5 0.311647 0.901740 0.877012
O O6 0.809621 0.887456 0.855628
O O7 0.142210 0.971606 0.805822
O O8 0.937146 0.979389 0.898188
O O9 0.882378 0.545521 0.536845
O O10 0.126386 0.614896 0.458904
O O11 0.032906 0.635575 0.571817
O O12 0.977130 0.701043 0.107664
O O13 0.675067 0.311595 0.366515
O O14 0.500000 0.500000 0.500000
O O15 0.459518 0.584588 0.579358
O O16 0.699606 0.921006 0.165722
O O17 0.500000 0.972065 0.250000
O O18 0.000000 0.941415 0.250000
#
# Coordination Sequence:
#
# PCOD9300651 Si02
#       8
#     8   8   8   8   8   8   8   8
#     4  11  19  33  52  86 139 199 226 244 293 375
#     4  11  26  43  66  98 128 171 226 270 340 399
#     4  12  22  34  60  94 145 188 226 254 322 399
#     4  12  24  39  64  99 144 186 216 258 318 408
#     4  11  22  36  58  92 138 181 227 268 306 389
#     4  11  23  36  57  91 141 181 216 275 314 382
#     4  11  25  39  65  99 128 178 224 280 338 397
#     4  11  27  52  77  96 123 164 220 294 358 409
#
# _framework density 21.765429999999999
#
# number of rings (size 3 to 8) (size 9 to 14) (size 15 to 20)
#    0.000    0.750    5.000    3.000    7.000    1.000 
#    0.000    0.000    0.000    4.500    0.000    0.000 
#    0.000    0.000    0.000    0.000    0.000    0.000 
#
# Total GULP energy -178187.591728 kJ/mol
# GULP energy per Si atom -5568.362241 kJ/mol
# Density = 2.171589 g / cm^3
# Si number density = 21.765430 Si / 1000 Ang^3
#
#
#
# Elastic Constant Matrix: (Units=GPa)
#
#
# Indices 1 2 3 4 5 6 
#
# 1 86.1443 38.9625 35.2212 0.0000 -14.8648 0.0000
# 2 38.9625 131.1200 40.9234 0.0000 -12.9589 0.0000
# 3 35.2212 40.9234 88.8951 0.0000 -22.2074 0.0000
# 4 0.0000 0.0000 0.0000 16.2537 0.0000 -2.9506
# 5 -14.8648 -12.9589 -22.2074 0.0000 33.3824 0.0000
# 6 0.0000 0.0000 0.0000 -2.9506 0.0000 41.2041
#
#
#
# Elastic Compliance Matrix: (Units=1/GPa)
#
#
# Indices 1 2 3 4 5 6 
#
# 1 0.015041 -0.002975 -0.003844 0.000000 0.002985 0.000000
# 2 -0.002975 0.009516 -0.003130 0.000000 0.000287 0.000000
# 3 -0.003844 -0.003130 0.016169 0.000000 0.007830 0.000000
# 4 0.000000 0.000000 0.000000 0.062335 0.000000 0.004464
# 5 0.002985 0.000287 0.007830 0.000000 0.036605 0.000000
# 6 0.000000 0.000000 0.000000 0.004464 0.000000 0.024589
#
#
# Mechanical properties :
#
#
# Convention : Reuss Voigt Hill
#
# Bulk Modulus (GPa) = 48.01292 59.59707 53.80500
# Shear Modulus (GPa) = 26.16487 30.90485 28.53486
#
# Velocity S-wave (km/s) = 3.47094 3.77225 3.62473
# Velocity P-wave (km/s) = 6.17822 6.81279 6.50325
#
# Compressibility (1/GPa) = 0.02082773
#
# Stress axis : x y z
#
# Youngs Moduli (GPa) = 66.48643 105.08744 61.84533
#
# Poissons Ratio (x) = 0.31259 0.23774
# Poissons Ratio (y) = 0.19777 0.19360
# Poissons Ratio (z) = 0.25558 0.32897
#
# Static dielectric constant tensor:
#      x y z
#    x 3.654000 0.000000 -0.238460 
#    y 0.000000 2.254620 0.000000 
#    z -0.238460 0.000000 1.842220 
# 
# From -- ./inp_files/261696.got.cif
#   From: 2010.05.17/outbox.cif.g08.bks.cpg/sg15_131_cif.got.tgz:261696.got - 2010.06.03 18:47:42.
