data_PCOD9300246
_publ_section_title
;
Structure prediction by ZEFSAII (Michael W. Deem and Ramdas Pophale) SiO2 
 PCOD9300246
Probable space group: C 2/C
;
_chemical_formula_sum "Si O2"
_cell_formula_units_Z 56
_cell_length_a 4.737175
_cell_length_b 18.270441
_cell_length_c 26.508814
_cell_angle_alpha 90.000000
_cell_angle_beta 70.586793
_cell_angle_gamma 90.000000
_cell_volume 2163.902632
_symmetry_space_group_name_H-M "C 2/C"
_symmetry_group_IT_number 15
_symmetry_cell_setting 'monoclinic'
loop_
_space_group_symop_operation_xyz
x,y,z
-x,y,1/2-z
-x,-y,-z
x,-y,1/2+z
1/2+x,1/2+y,z
1/2-x,1/2+y,1/2-z
1/2-x,1/2-y,-z
1/2+x,1/2-y,1/2+z
loop_
_atom_site_type_symbol
_atom_site_label
_atom_site_fract_x
_atom_site_fract_y
_atom_site_fract_z
Si Si1 0.849313 0.187340 0.927288
Si Si2 0.931889 0.534236 0.121902
Si Si3 0.696364 0.753738 0.326548
Si Si4 0.000000 0.363418 0.250000
Si Si5 0.402651 0.561420 0.639041
Si Si6 0.680228 0.872163 0.781650
Si Si7 0.250000 0.750000 0.500000
Si Si8 0.732880 0.823682 0.920105
O O1 0.801163 0.206269 0.871122
O O2 0.077406 0.120288 0.907129
O O3 0.044995 0.248706 0.946567
O O4 0.520543 0.185610 0.969498
O O5 0.748716 0.460547 0.124860
O O6 0.759335 0.572174 0.177948
O O7 0.915509 0.599068 0.081798
O O8 0.250071 0.511548 0.125220
O O9 0.652173 0.810111 0.283253
O O10 0.946797 0.692195 0.304819
O O11 0.402349 0.707909 0.360935
O O12 0.770364 0.409859 0.300090
O O13 0.500000 0.916739 0.750000
O O14 0.000000 0.839834 0.750000
O O15 0.054066 0.814910 0.544572
#
# Coordination Sequence:
#
# PCOD9300246 Si02
#       8
#     8   8   8   4   8   8   4   8
#     4  11  24  50  78 114 149 197 259 334 391 477
#     4  12  28  51  70 110 163 208 252 321 387 469
#     4  11  25  45  75 112 150 199 269 323 380 444
#     4  12  28  50  72 112 162 222 260 318 382 466
#     4  12  29  49  76 108 166 212 258 310 393 471
#     4  12  27  43  69 108 149 204 269 311 367 448
#     4  10  26  46  92 114 142 192 268 342 420 470
#     4  11  23  51  80 114 148 196 264 339 395 473
#
# _framework density 25.879168
#
# number of rings (size 3 to 8) (size 9 to 14) (size 15 to 20)
#    0.000    0.571    2.857    3.857   12.000    1.143 
#    2.571    1.429    0.000    0.000    0.000    0.000 
#    0.000    0.000    0.000    0.000    0.000    0.000 
#
# Total GULP energy -156037.589406 kJ/mol
# GULP energy per Si atom -5572.771050 kJ/mol
# Density = 2.582027 g / cm^3
# Si number density = 25.879168 Si / 1000 Ang^3
#
#
#
# Elastic Constant Matrix: (Units=GPa)
#
#
# Indices 1 2 3 4 5 6 
#
# 1 94.7418 15.2726 18.6604 0.0000 -6.4243 0.0000
# 2 15.2726 102.4920 46.7997 0.0000 3.3067 0.0000
# 3 18.6604 46.7997 129.3650 0.0000 4.7422 0.0000
# 4 0.0000 0.0000 0.0000 34.7789 0.0000 2.9482
# 5 -6.4243 3.3067 4.7422 0.0000 42.1803 0.0000
# 6 0.0000 0.0000 0.0000 2.9482 0.0000 52.2802
#
#
#
# Elastic Compliance Matrix: (Units=1/GPa)
#
#
# Indices 1 2 3 4 5 6 
#
# 1 0.011118 -0.001143 -0.001261 0.000000 0.001925 0.000000
# 2 -0.001143 0.011813 -0.004085 0.000000 -0.000641 0.000000
# 3 -0.001261 -0.004085 0.009424 0.000000 -0.000931 0.000000
# 4 0.000000 0.000000 0.000000 0.028891 0.000000 -0.001629
# 5 0.001925 -0.000641 -0.000931 0.000000 0.024156 0.000000
# 6 0.000000 0.000000 0.000000 -0.001629 0.000000 0.019220
#
#
# Mechanical properties :
#
#
# Convention : Reuss Voigt Hill
#
# Bulk Modulus (GPa) = 51.60739 54.22934 52.91837
# Shear Modulus (GPa) = 40.30332 42.23895 41.27114
#
# Velocity S-wave (km/s) = 3.95063 4.04438 3.99778
# Velocity P-wave (km/s) = 6.38709 6.54291 6.46547
#
# Compressibility (1/GPa) = 0.01937707
#
# Stress axis : x y z
#
# Youngs Moduli (GPa) = 89.94336 84.65048 106.11250
#
# Poissons Ratio (x) = 0.09677 0.13378
# Poissons Ratio (y) = 0.10282 0.43350
# Poissons Ratio (z) = 0.11340 0.34582
#
# Static dielectric constant tensor:
#      x y z
#    x 2.277100 0.000000 0.214270 
#    y 0.000000 2.046560 0.000000 
#    z 0.214270 0.000000 2.350340 
# 
# From -- ./inp_files/286047.got.cif
#   From: 2010.05.17/outbox.cif.g08.bks.cpg/sg15_144_cif.got.tgz:286047.got - 2010.06.03 18:47:42.
