data_PCOD9300589
_publ_section_title
;
Structure prediction by ZEFSAII (Michael W. Deem and Ramdas Pophale) SiO2 
 PCOD9300589
Probable space group: C 2/C
;
_chemical_formula_sum "Si O2"
_cell_formula_units_Z 64
_cell_length_a 12.159077
_cell_length_b 24.794275
_cell_length_c 11.610284
_cell_angle_alpha 90.000000
_cell_angle_beta 87.753663
_cell_angle_gamma 90.000000
_cell_volume 3497.526399
_symmetry_space_group_name_H-M "C 2/C"
_symmetry_group_IT_number 15
_symmetry_cell_setting 'monoclinic'
loop_
_space_group_symop_operation_xyz
x,y,z
-x,y,1/2-z
-x,-y,-z
x,-y,1/2+z
1/2+x,1/2+y,z
1/2-x,1/2+y,1/2-z
1/2-x,1/2-y,-z
1/2+x,1/2-y,1/2+z
loop_
_atom_site_type_symbol
_atom_site_label
_atom_site_fract_x
_atom_site_fract_y
_atom_site_fract_z
Si Si1 0.896482 0.395793 0.339749
Si Si2 0.189897 0.805972 0.041414
Si Si3 0.288897 0.691852 0.702204
Si Si4 0.051495 0.677162 0.457992
Si Si5 0.837328 0.629839 0.394550
Si Si6 0.548640 0.298535 0.522534
Si Si7 0.064035 0.511818 0.121882
Si Si8 0.224400 0.813384 0.691906
O O1 0.797010 0.356811 0.308190
O O2 0.944290 0.372307 0.455898
O O3 0.864612 0.457845 0.360696
O O4 0.000000 0.393999 0.250000
O O5 0.155531 0.807170 0.175646
O O6 0.076860 0.816177 0.979544
O O7 0.250000 0.750000 0.000000
O O8 0.279415 0.852101 0.014783
O O9 0.376109 0.691284 0.594274
O O10 0.223953 0.748809 0.709264
O O11 0.040167 0.733263 0.525879
O O12 0.168300 0.678338 0.391605
O O13 0.947902 0.666193 0.380305
O O14 0.870122 0.567718 0.390631
O O15 0.752942 0.650881 0.300984
O O16 0.614166 0.324224 0.625761
O O17 0.000000 0.517228 0.250000
O O18 0.000000 0.500000 0.000000
#
# Coordination Sequence:
#
# PCOD9300589 Si02
#       8
#     8   8   8   8   8   8   8   8
#     4  11  22  35  62  92 122 164 213 267 311 376
#     4  12  24  38  58  93 125 168 208 266 316 379
#     4  11  21  39  58  89 126 166 212 252 321 383
#     4  11  18  36  58  89 127 162 204 253 315 385
#     4  12  24  39  60  91 133 163 206 266 327 381
#     4  11  22  38  58  90 130 165 211 247 325 396
#     4  11  25  42  64  97 131 174 215 270 334 388
#     4  11  21  35  58  91 124 173 200 251 324 392
#
# _framework density 18.298646999999999
#
# number of rings (size 3 to 8) (size 9 to 14) (size 15 to 20)
#    0.000    0.750    6.250    3.000    1.750    2.500 
#    0.000    0.000    0.000    0.750    3.250    0.000 
#    0.000    0.000    0.000    0.000    0.000    0.000 
#
# Total GULP energy -178416.835699 kJ/mol
# GULP energy per Si atom -5575.526116 kJ/mol
# Density = 1.825700 g / cm^3
# Si number density = 18.298647 Si / 1000 Ang^3
#
#
#
# Elastic Constant Matrix: (Units=GPa)
#
#
# Indices 1 2 3 4 5 6 
#
# 1 104.9281 41.7716 26.3560 0.0000 27.9324 0.0000
# 2 41.7716 132.2882 30.4760 0.0000 1.2253 0.0000
# 3 26.3560 30.4760 73.5466 0.0000 22.9982 0.0000
# 4 0.0000 0.0000 0.0000 23.0788 0.0000 0.3316
# 5 27.9324 1.2253 22.9982 0.0000 25.8110 0.0000
# 6 0.0000 0.0000 0.0000 0.3316 0.0000 28.0983
#
#
#
# Elastic Compliance Matrix: (Units=1/GPa)
#
#
# Indices 1 2 3 4 5 6 
#
# 1 0.016363 -0.005593 0.002645 0.000000 -0.019799 0.000000
# 2 -0.005593 0.010536 -0.005680 0.000000 0.010614 0.000000
# 3 0.002645 -0.005680 0.021921 0.000000 -0.022125 0.000000
# 4 0.000000 0.000000 0.000000 0.043337 0.000000 -0.000511
# 5 -0.019799 0.010614 -0.022125 0.000000 0.079380 0.000000
# 6 0.000000 0.000000 0.000000 -0.000511 0.000000 0.035595
#
#
# Mechanical properties :
#
#
# Convention : Reuss Voigt Hill
#
# Bulk Modulus (GPa) = 31.68205 56.44112 44.06158
# Shear Modulus (GPa) = 21.28469 29.54155 25.41312
#
# Velocity S-wave (km/s) = 3.41425 4.02233 3.73070
# Velocity P-wave (km/s) = 5.73535 7.24456 6.53368
#
# Compressibility (1/GPa) = 0.03156361
#
# Stress axis : x y z
#
# Youngs Moduli (GPa) = 61.11305 94.91656 45.61746
#
# Poissons Ratio (x) = 0.53085 -0.12066
# Poissons Ratio (y) = 0.34179 0.25913
# Poissons Ratio (z) = -0.16164 0.53916
#
# Static dielectric constant tensor:
#      x y z
#    x 1.619450 0.000000 0.085950 
#    y 0.000000 1.641900 0.000000 
#    z 0.085950 0.000000 1.483480 
# 
# From -- ./inp_files/90791.got.cif
#   From: 2010.05.17/outbox.cif.g08.bks.cpg/sg15_46_cif.got.tgz:90791.got - 2010.06.03 18:47:42.
