data_PCOD9300678
_publ_section_title
;
Structure prediction by ZEFSAII (Michael W. Deem and Ramdas Pophale) SiO2 
 PCOD9300678
Probable space group: C 2/C
;
_chemical_formula_sum "Si O2"
_cell_formula_units_Z 40
_cell_length_a 14.324994
_cell_length_b 15.756155
_cell_length_c 17.914177
_cell_angle_alpha 90.000000
_cell_angle_beta 156.197767
_cell_angle_gamma 90.000000
_cell_volume 1631.819873
_symmetry_space_group_name_H-M "C 2/C"
_symmetry_group_IT_number 15
_symmetry_cell_setting 'monoclinic'
loop_
_space_group_symop_operation_xyz
x,y,z
-x,y,1/2-z
-x,-y,-z
x,-y,1/2+z
1/2+x,1/2+y,z
1/2-x,1/2+y,1/2-z
1/2-x,1/2-y,-z
1/2+x,1/2-y,1/2+z
loop_
_atom_site_type_symbol
_atom_site_label
_atom_site_fract_x
_atom_site_fract_y
_atom_site_fract_z
Si Si1 0.772535 0.331833 0.125417
Si Si2 0.645833 0.365813 0.788676
Si Si3 0.940144 0.076113 0.900607
Si Si4 0.622925 0.132426 0.561016
Si Si5 0.371572 0.193395 0.231228
O O1 0.791530 0.230434 0.139451
O O2 0.745096 0.368992 0.187343
O O3 0.000000 0.365226 0.250000
O O4 0.541053 0.357751 0.913501
O O5 0.500000 0.406140 0.750000
O O6 0.888758 0.394130 0.932363
O O7 0.820763 0.066635 0.732485
O O8 0.175645 0.127371 0.064262
O O9 0.000000 0.000000 0.000000
O O10 0.538698 0.149685 0.414470
O O11 0.737725 0.224396 0.665268
O O12 0.500000 0.220829 0.250000
#
# Coordination Sequence:
#
# PCOD9300678 Si02
#       5
#     8   8   8   8   8
#     4  11  20  36  61  93 132 169 218 276 344 418
#     4  11  19  34  65 104 126 169 224 286 348 416
#     4  12  27  44  66 100 144 186 230 299 370 430
#     4  12  22  43  73 104 144 182 244 306 353 427
#     4  12  25  44  74 107 136 192 258 302 352 421
#
# _framework density 24.512509000000001
#
# number of rings (size 3 to 8) (size 9 to 14) (size 15 to 20)
#    0.000    0.400    6.000    5.400    0.000    1.600 
#    0.000    0.000    0.000    0.000    0.000    0.000 
#    0.000    0.000    0.000    0.000    0.000    0.000 
#
# Total GULP energy -111847.536072 kJ/mol
# GULP energy per Si atom -5592.376804 kJ/mol
# Density = 2.445672 g / cm^3
# Si number density = 24.512509 Si / 1000 Ang^3
#
#
#
# Elastic Constant Matrix: (Units=GPa)
#
#
# Indices 1 2 3 4 5 6 
#
# 1 121.8158 20.2814 46.6758 0.0029 -2.2539 -0.0018
# 2 20.2814 60.6971 37.7772 0.0423 6.6009 0.0096
# 3 46.6758 37.7772 211.1106 0.0231 -25.9026 0.0082
# 4 0.0029 0.0423 0.0231 29.4187 0.0047 -10.1238
# 5 -2.2539 6.6009 -25.9026 0.0047 43.9270 -0.0002
# 6 -0.0018 0.0096 0.0082 -10.1238 -0.0002 13.8638
#
#
#
# Elastic Compliance Matrix: (Units=1/GPa)
#
#
# Indices 1 2 3 4 5 6 
#
# 1 0.009188 -0.001983 -0.001706 0.000006 -0.000236 0.000008
# 2 -0.001983 0.020098 -0.003817 -0.000039 -0.005373 -0.000040
# 3 -0.001706 -0.003817 0.006313 -0.000001 0.004209 -0.000002
# 4 0.000006 -0.000039 -0.000001 0.045401 0.000001 0.033153
# 5 -0.000236 -0.005373 0.004209 0.000001 0.026042 0.000003
# 6 0.000008 -0.000040 -0.000002 0.033153 0.000003 0.096340
#
#
# Mechanical properties :
#
#
# Convention : Reuss Voigt Hill
#
# Bulk Modulus (GPa) = 48.57157 67.01026 57.79091
# Shear Modulus (GPa) = 22.19685 36.70118 29.44901
#
# Velocity S-wave (km/s) = 3.01247 3.87362 3.46986
# Velocity P-wave (km/s) = 5.65314 6.88499 6.29925
#
# Compressibility (1/GPa) = 0.02058818
#
# Stress axis : x y z
#
# Youngs Moduli (GPa) = 108.83217 49.75629 158.39116
#
# Poissons Ratio (x) = 0.09866 0.27017
# Poissons Ratio (y) = 0.21581 0.60461
# Poissons Ratio (z) = 0.18564 0.18993
#
# Static dielectric constant tensor:
#      x y z
#    x 2.024140 -0.000010 -0.053200 
#    y -0.000010 2.076380 -0.000020 
#    z -0.053200 -0.000020 1.946820 
# 
# From -- ./inp_files/207046.got.cif
#   From: 2010.05.17/outbox.cif.g08.bks.cpg/sg15_104_cif.got.tgz:207046.got - 2010.06.03 18:47:42.
