data_PCOD9300256
_publ_section_title
;
Structure prediction by ZEFSAII (Michael W. Deem and Ramdas Pophale) SiO2 
 PCOD9300256
Probable space group: C 2/C
;
_chemical_formula_sum "Si O2"
_cell_formula_units_Z 28
_cell_length_a 9.789928
_cell_length_b 17.655391
_cell_length_c 7.503210
_cell_angle_alpha 90.000000
_cell_angle_beta 56.946990
_cell_angle_gamma 90.000000
_cell_volume 1087.011502
_symmetry_space_group_name_H-M "C 2/C"
_symmetry_group_IT_number 15
_symmetry_cell_setting 'monoclinic'
loop_
_space_group_symop_operation_xyz
x,y,z
-x,y,1/2-z
-x,-y,-z
x,-y,1/2+z
1/2+x,1/2+y,z
1/2-x,1/2+y,1/2-z
1/2-x,1/2-y,-z
1/2+x,1/2-y,1/2+z
loop_
_atom_site_type_symbol
_atom_site_label
_atom_site_fract_x
_atom_site_fract_y
_atom_site_fract_z
Si Si1 0.772166 0.588904 0.585892
Si Si2 0.820501 0.928403 0.950963
Si Si3 0.932545 0.311206 0.494839
Si Si4 0.500000 0.693379 0.750000
O O1 0.784021 0.504953 0.502684
O O2 0.321799 0.582397 0.660100
O O3 0.941311 0.628790 0.508371
O O4 0.650211 0.643895 0.567121
O O5 0.000000 0.940627 0.750000
O O6 0.732480 0.856741 0.925385
O O7 0.927825 0.244379 0.641192
O O8 0.000000 0.288996 0.250000
#
# Coordination Sequence:
#
# PCOD9300256 Si02
#       4
#     8   8   8   4
#     4  11  25  45  71 106 139 183 236 285 350 413
#     4  11  24  44  72 104 139 183 234 289 344 414
#     4  10  26  47  71 104 141 185 234 287 348 415
#     4  12  26  44  74 104 144 182 230 290 354 412
#
# _framework density 25.758697999999999
#
# number of rings (size 3 to 8) (size 9 to 14) (size 15 to 20)
#    0.000    1.143    1.429    2.571    4.000    8.000 
#    0.000    0.000    0.000    0.000    0.000    0.000 
#    0.000    0.000    0.000    0.000    0.000    0.000 
#
# Total GULP energy -78598.617512 kJ/mol
# GULP energy per Si atom -5614.186965 kJ/mol
# Density = 2.570007 g / cm^3
# Si number density = 25.758698 Si / 1000 Ang^3
#
#
#
# Elastic Constant Matrix: (Units=GPa)
#
#
# Indices 1 2 3 4 5 6 
#
# 1 96.3730 31.2586 -1.3251 0.0000 10.4754 0.0000
# 2 31.2586 106.0624 24.5672 0.0000 29.4261 0.0000
# 3 -1.3251 24.5672 68.5138 0.0000 19.6609 0.0000
# 4 0.0000 0.0000 0.0000 -72.3694 0.0000 7.0226
# 5 10.4754 29.4261 19.6609 0.0000 32.5050 0.0000
# 6 0.0000 0.0000 0.0000 7.0226 0.0000 6.7738
#
#
#
# Elastic Compliance Matrix: (Units=1/GPa)
#
#
# Indices 1 2 3 4 5 6 
#
# 1 0.011708 -0.003379 0.001988 0.000000 -0.001916 0.000000
# 2 -0.003379 0.013696 -0.002094 0.000000 -0.010043 0.000000
# 3 0.001988 -0.002094 0.018180 0.000000 -0.009741 0.000000
# 4 0.000000 0.000000 0.000000 -0.012555 0.000000 0.013016
# 5 -0.001916 -0.010043 -0.009741 0.000000 0.046365 0.000000
# 6 0.000000 0.000000 0.000000 0.013016 0.000000 0.134133
#
#
# Mechanical properties :
#
#
# Convention : Reuss Voigt Hill
#
# Bulk Modulus (GPa) = 27.31286 42.21672 34.76479
# Shear Modulus (GPa) = 21.67285 7.81179 14.74232
#
# Velocity S-wave (km/s) = 2.90380 1.74335 2.39492
# Velocity P-wave (km/s) = 4.67644 4.52518 4.60143
#
# Compressibility (1/GPa) = 0.03661280
#
# Stress axis : x y z
#
# Youngs Moduli (GPa) = 85.41093 73.01546 55.00425
#
# Poissons Ratio (x) = 0.24675 -0.10936
# Poissons Ratio (y) = 0.28864 0.11520
# Poissons Ratio (z) = -0.16981 0.15293
#
# Static dielectric constant tensor:
#      x y z
#    x 1.960320 0.000000 0.011370 
#    y 0.000000 2.030430 0.000000 
#    z 0.011370 0.000000 1.979870 
# 
# From -- ./inp_files/21902.got.cif
#   From: 2010.05.17/outbox.cif.g08.bks.cpg/sg15_11_cif.got.tgz:21902.got - 2010.06.03 18:47:42.
