data_PCOD9300438
_publ_section_title
;
Structure prediction by ZEFSAII (Michael W. Deem and Ramdas Pophale) SiO2 
 PCOD9300438
Probable space group: C 2/C
;
_chemical_formula_sum "Si O2"
_cell_formula_units_Z 32
_cell_length_a 4.889575
_cell_length_b 26.731028
_cell_length_c 9.301949
_cell_angle_alpha 90.000000
_cell_angle_beta 104.847222
_cell_angle_gamma 90.000000
_cell_volume 1175.203689
_symmetry_space_group_name_H-M "C 2/C"
_symmetry_group_IT_number 15
_symmetry_cell_setting 'monoclinic'
loop_
_space_group_symop_operation_xyz
x,y,z
-x,y,1/2-z
-x,-y,-z
x,-y,1/2+z
1/2+x,1/2+y,z
1/2-x,1/2+y,1/2-z
1/2-x,1/2-y,-z
1/2+x,1/2-y,1/2+z
loop_
_atom_site_type_symbol
_atom_site_label
_atom_site_fract_x
_atom_site_fract_y
_atom_site_fract_z
Si Si1 0.650164 0.469856 0.146798
Si Si2 0.553881 0.885579 0.494931
Si Si3 0.000000 0.259172 0.750000
Si Si4 0.500000 0.192081 0.750000
Si Si5 0.500000 0.329029 0.750000
Si Si6 0.500000 0.943536 0.750000
O O1 0.500000 0.437471 0.250000
O O2 0.851797 0.431327 0.091943
O O3 0.774805 0.514752 0.263656
O O4 0.500000 0.500000 0.000000
O O5 0.437144 0.841696 0.380306
O O6 0.816710 0.861761 0.616853
O O7 0.386374 0.910715 0.604111
O O8 0.204518 0.222584 0.682439
O O9 0.266185 0.297210 0.812650
#
# Coordination Sequence:
#
# PCOD9300438 Si02
#       6
#     8   8   4   4   4   4
#     4  12  26  46  72 108 155 206 254 311 375 446
#     4  12  27  47  79 116 151 207 263 317 373 472
#     4  10  27  54  80 112 158 196 250 334 413 460
#     4  11  29  48  82 123 148 197 264 332 385 467
#     4  11  26  52  79 111 156 207 251 320 404 477
#     4  12  26  50  71 106 164 208 249 304 390 448
#
# _framework density 27.229319
#
# number of rings (size 3 to 8) (size 9 to 14) (size 15 to 20)
#    0.000    0.500    2.500    3.750    5.250   10.000 
#    0.000    0.000    0.000    0.000    0.000    0.000 
#    0.000    0.000    0.000    0.000    0.000    0.000 
#
# Total GULP energy -89185.308607 kJ/mol
# GULP energy per Si atom -5574.081788 kJ/mol
# Density = 2.716734 g / cm^3
# Si number density = 27.229319 Si / 1000 Ang^3
#
#
#
# Elastic Constant Matrix: (Units=GPa)
#
#
# Indices 1 2 3 4 5 6 
#
# 1 138.6474 40.3665 9.4905 0.0000 -11.0166 0.0000
# 2 40.3665 134.2865 36.3289 0.0000 -0.1350 0.0000
# 3 9.4905 36.3289 130.1368 0.0000 -17.9959 0.0000
# 4 0.0000 0.0000 0.0000 -26.2596 0.0000 -6.2463
# 5 -11.0166 -0.1350 -17.9959 0.0000 47.8385 0.0000
# 6 0.0000 0.0000 0.0000 -6.2463 0.0000 40.2671
#
#
#
# Elastic Compliance Matrix: (Units=1/GPa)
#
#
# Indices 1 2 3 4 5 6 
#
# 1 0.008083 -0.002534 0.000395 0.000000 0.002003 0.000000
# 2 -0.002534 0.008884 -0.002503 0.000000 -0.001500 0.000000
# 3 0.000395 -0.002503 0.008825 0.000000 0.003404 0.000000
# 4 0.000000 0.000000 0.000000 -0.036726 0.000000 -0.005697
# 5 0.002003 -0.001500 0.003404 0.000000 0.022641 0.000000
# 6 0.000000 0.000000 0.000000 -0.005697 0.000000 0.023950
#
#
# Mechanical properties :
#
#
# Convention : Reuss Voigt Hill
#
# Bulk Modulus (GPa) = 60.57971 63.93805 62.25888
# Shear Modulus (GPa) = 99.12096 33.49484 66.30790
#
# Velocity S-wave (km/s) = 6.03998 3.51109 4.94009
# Velocity P-wave (km/s) = 8.42247 6.32213 7.44672
#
# Compressibility (1/GPa) = 0.01650718
#
# Stress axis : x y z
#
# Youngs Moduli (GPa) = 123.72356 112.55959 113.31782
#
# Poissons Ratio (x) = 0.28528 -0.04476
# Poissons Ratio (y) = 0.31357 0.28360
# Poissons Ratio (z) = -0.04887 0.28170
#
# Static dielectric constant tensor:
#      x y z
#    x 2.784410 0.000000 0.036550 
#    y 0.000000 2.128500 0.000000 
#    z 0.036550 0.000000 2.102350 
# 
# From -- ./inp_files/20337.got.cif
#   From: 2010.05.17/outbox.cif.g08.bks.cpg/sg15_11_cif.got.tgz:20337.got - 2010.06.03 18:47:42.
