data_PCOD9300626
_publ_section_title
;
Structure prediction by ZEFSAII (Michael W. Deem and Ramdas Pophale) SiO2 
 PCOD9300626
Probable space group: C 2/C
;
_chemical_formula_sum "Si O2"
_cell_formula_units_Z 64
_cell_length_a 17.425984
_cell_length_b 17.906224
_cell_length_c 12.411825
_cell_angle_alpha 90.000000
_cell_angle_beta 79.921612
_cell_angle_gamma 90.000000
_cell_volume 3813.144288
_symmetry_space_group_name_H-M "C 2/C"
_symmetry_group_IT_number 15
_symmetry_cell_setting 'monoclinic'
loop_
_space_group_symop_operation_xyz
x,y,z
-x,y,1/2-z
-x,-y,-z
x,-y,1/2+z
1/2+x,1/2+y,z
1/2-x,1/2+y,1/2-z
1/2-x,1/2-y,-z
1/2+x,1/2-y,1/2+z
loop_
_atom_site_type_symbol
_atom_site_label
_atom_site_fract_x
_atom_site_fract_y
_atom_site_fract_z
Si Si1 0.250733 0.622993 0.626605
Si Si2 0.620839 0.960773 0.500417
Si Si3 0.721118 0.989149 0.794312
Si Si4 0.604324 0.227123 0.598183
Si Si5 0.406781 0.883181 0.776160
Si Si6 0.983900 0.414337 0.374858
Si Si7 0.661154 0.240684 0.343030
Si Si8 0.307666 0.363252 0.869812
O O1 0.233305 0.547947 0.695848
O O2 0.173164 0.672941 0.626617
O O3 0.309375 0.675407 0.680596
O O4 0.287810 0.614192 0.498353
O O5 0.623238 0.902869 0.597602
O O6 0.555690 0.932682 0.433366
O O7 0.698401 0.971653 0.412460
O O8 0.588685 0.039000 0.557959
O O9 0.644131 0.939011 0.786458
O O10 0.794764 0.935187 0.798092
O O11 0.530233 0.174177 0.627155
O O12 0.616198 0.237970 0.467579
O O13 0.617208 0.308736 0.647246
O O14 0.500000 0.894001 0.750000
O O15 0.386059 0.800963 0.738108
O O16 0.000000 0.440608 0.250000
O O17 0.737925 0.191358 0.348875
#
# Coordination Sequence:
#
# PCOD9300626 Si02
#       8
#     8   8   8   8   8   8   8   8
#     4   9  16  28  45  62  83 113 149 186 218 253
#     4  11  20  27  38  63  95 121 143 173 217 267
#     4  11  19  28  43  65  92 118 145 177 220 266
#     4   9  15  28  45  61  83 115 155 186 210 251
#     4  11  19  28  42  62  90 118 144 175 214 262
#     4  11  20  29  42  63  92 123 151 178 213 259
#     4   8  16  29  44  61  83 114 150 182 214 256
#     4   8  16  28  44  63  83 113 152 187 214 252
#
# _framework density 16.784049
#
# number of rings (size 3 to 8) (size 9 to 14) (size 15 to 20)
#    0.000    2.250    0.000    9.375    0.000    0.000 
#    0.000    0.625    0.000    1.500    0.000    0.875 
#    0.000    5.000    0.000    0.000    0.000    0.000 
#
# Total GULP energy -178225.691903 kJ/mol
# GULP energy per Si atom -5569.552872 kJ/mol
# Density = 1.674585 g / cm^3
# Si number density = 16.784049 Si / 1000 Ang^3
#
#
#
# Elastic Constant Matrix: (Units=GPa)
#
#
# Indices 1 2 3 4 5 6 
#
# 1 31.8737 38.0026 12.2782 0.0000 11.2213 0.0000
# 2 38.0026 91.8554 24.9179 0.0000 11.7122 0.0000
# 3 12.2782 24.9179 56.1596 0.0000 16.1478 0.0000
# 4 0.0000 0.0000 0.0000 13.9985 0.0000 -1.0803
# 5 11.2213 11.7122 16.1478 0.0000 17.2550 0.0000
# 6 0.0000 0.0000 0.0000 -1.0803 0.0000 23.7280
#
#
#
# Elastic Compliance Matrix: (Units=1/GPa)
#
#
# Indices 1 2 3 4 5 6 
#
# 1 0.075217 -0.028298 0.006366 0.000000 -0.035665 0.000000
# 2 -0.028298 0.023279 -0.006690 0.000000 0.008863 0.000000
# 3 0.006366 -0.006690 0.026361 0.000000 -0.024268 0.000000
# 4 0.000000 0.000000 0.000000 0.071688 0.000000 0.003264
# 5 -0.035665 0.008863 -0.024268 0.000000 0.097843 0.000000
# 6 0.000000 0.000000 0.000000 0.003264 0.000000 0.042293
#
#
# Mechanical properties :
#
#
# Convention : Reuss Voigt Hill
#
# Bulk Modulus (GPa) = 14.79034 36.69847 25.74441
# Shear Modulus (GPa) = 12.00584 17.97566 14.99075
#
# Velocity S-wave (km/s) = 2.67743 3.27616 2.99181
# Velocity P-wave (km/s) = 4.28830 6.01860 5.22556
#
# Compressibility (1/GPa) = 0.06761168
#
# Stress axis : x y z
#
# Youngs Moduli (GPa) = 13.29482 42.95678 37.93470
#
# Poissons Ratio (x) = 1.21561 -0.24149
# Poissons Ratio (y) = 0.37622 0.25380
# Poissons Ratio (z) = -0.08463 0.28740
#
# Static dielectric constant tensor:
#      x y z
#    x 1.585770 0.000000 0.006480 
#    y 0.000000 1.619680 0.000000 
#    z 0.006480 0.000000 1.588820 
# 
# From -- ./inp_files/106397.got.cif
#   From: 2010.05.17/outbox.cif.g08.bks.cpg/sg15_54_cif.got.tgz:106397.got - 2010.06.03 18:47:42.
