data_PCOD9300362
_publ_section_title
;
Structure prediction by ZEFSAII (Michael W. Deem and Ramdas Pophale) SiO2 
 PCOD9300362
Probable space group: C 2/C
;
_chemical_formula_sum "Si O2"
_cell_formula_units_Z 60
_cell_length_a 17.013835
_cell_length_b 20.449708
_cell_length_c 9.404548
_cell_angle_alpha 90.000000
_cell_angle_beta 120.232074
_cell_angle_gamma 90.000000
_cell_volume 2827.076223
_symmetry_space_group_name_H-M "C 2/C"
_symmetry_group_IT_number 15
_symmetry_cell_setting 'monoclinic'
loop_
_space_group_symop_operation_xyz
x,y,z
-x,y,1/2-z
-x,-y,-z
x,-y,1/2+z
1/2+x,1/2+y,z
1/2-x,1/2+y,1/2-z
1/2-x,1/2-y,-z
1/2+x,1/2-y,1/2+z
loop_
_atom_site_type_symbol
_atom_site_label
_atom_site_fract_x
_atom_site_fract_y
_atom_site_fract_z
Si Si1 0.130301 0.838707 0.583361
Si Si2 0.291537 0.382823 0.347110
Si Si3 0.000000 0.485245 0.750000
Si Si4 0.212724 0.737879 0.127182
Si Si5 0.999614 0.724718 0.918612
Si Si6 0.605823 0.430490 0.806601
Si Si7 0.589906 0.917642 0.100610
Si Si8 0.105116 0.922783 0.310243
O O1 0.222250 0.810751 0.731775
O O2 0.052336 0.784085 0.546613
O O3 0.109829 0.905747 0.649462
O O4 0.143861 0.862723 0.435741
O O5 0.277566 0.308323 0.293453
O O6 0.326009 0.386238 0.539555
O O7 0.198243 0.417704 0.221953
O O8 0.374823 0.411570 0.335259
O O9 0.052410 0.533040 0.687698
O O10 0.940102 0.441572 0.584859
O O11 0.250000 0.750000 0.000000
O O12 0.107254 0.718649 0.045009
O O13 0.949747 0.655497 0.904663
O O14 0.000000 0.739972 0.750000
O O15 0.500000 0.423754 0.750000
O O16 0.638296 0.503880 0.868384
O O17 0.000000 0.922339 0.250000
#
# Coordination Sequence:
#
# PCOD9300362 Si02
#       8
#     8   8   4   8   8   8   8   8
#     4  12  24  43  71 101 133 186 233 284 350 409
#     4  12  24  44  69 104 137 181 234 286 346 421
#     4  10  26  50  72 102 144 186 232 290 358 410
#     4  12  23  41  69 100 132 174 234 285 345 408
#     4  12  22  43  72 102 137 180 233 294 343 415
#     4  11  23  43  70  98 136 185 233 275 340 423
#     4  11  25  47  75 103 140 184 236 292 351 415
#     4  11  26  45  65 101 145 183 223 289 356 412
#
# _framework density 21.223341000000001
#
# number of rings (size 3 to 8) (size 9 to 14) (size 15 to 20)
#    0.000    0.533    4.667    3.600    1.867    3.733 
#    8.400    0.000    0.000    0.000    0.000    0.000 
#    0.000    0.000    0.000    0.000    0.000    0.000 
#
# Total GULP energy -167511.423648 kJ/mol
# GULP energy per Si atom -5583.714122 kJ/mol
# Density = 2.117504 g / cm^3
# Si number density = 21.223341 Si / 1000 Ang^3
#
#
#
# Elastic Constant Matrix: (Units=GPa)
#
#
# Indices 1 2 3 4 5 6 
#
# 1 78.0348 19.5557 19.4192 0.0000 16.8680 0.0000
# 2 19.5557 98.8068 20.1849 0.0000 -2.2756 0.0000
# 3 19.4192 20.1849 77.1183 0.0000 5.1553 0.0000
# 4 0.0000 0.0000 0.0000 16.5747 0.0000 53.6072
# 5 16.8680 -2.2756 5.1553 0.0000 35.8490 0.0000
# 6 0.0000 0.0000 0.0000 53.6072 0.0000 -115.9537
#
#
#
# Elastic Compliance Matrix: (Units=1/GPa)
#
#
# Indices 1 2 3 4 5 6 
#
# 1 0.015736 -0.002713 -0.002773 0.000000 -0.007178 0.000000
# 2 -0.002713 0.011203 -0.002405 0.000000 0.002334 0.000000
# 3 -0.002773 -0.002405 0.014356 0.000000 -0.000913 0.000000
# 4 0.000000 0.000000 0.000000 0.024179 0.000000 0.011178
# 5 -0.007178 0.002334 -0.000913 0.000000 0.031552 0.000000
# 6 0.000000 0.000000 0.000000 0.011178 0.000000 -0.003456
#
#
# Mechanical properties :
#
#
# Convention : Reuss Voigt Hill
#
# Bulk Modulus (GPa) = 39.19563 41.36440 40.28002
# Shear Modulus (GPa) = 42.42486 0.28067 21.35277
#
# Velocity S-wave (km/s) = 4.47584 0.36405 3.17535
# Velocity P-wave (km/s) = 6.72451 4.43949 5.69773
#
# Compressibility (1/GPa) = 0.02551305
#
# Stress axis : x y z
#
# Youngs Moduli (GPa) = 63.54731 89.26297 69.65870
#
# Poissons Ratio (x) = 0.24221 0.19313
# Poissons Ratio (y) = 0.17243 0.16753
# Poissons Ratio (z) = 0.17619 0.21467
#
# Static dielectric constant tensor:
#      x y z
#    x 1.749890 0.000000 -0.018630 
#    y 0.000000 1.863910 0.000000 
#    z -0.018630 0.000000 1.580350 
# 
# From -- ./inp_files/50686.got.cif
#   From: 2010.05.17/outbox.cif.g08.bks.cpg/sg15_26_cif.got.tgz:50686.got - 2010.06.03 18:47:42.
