data_PCOD9300229
_publ_section_title
;
Structure prediction by ZEFSAII (Michael W. Deem and Ramdas Pophale) SiO2 
 PCOD9300229
Probable space group: C 2/C
;
_chemical_formula_sum "Si O2"
_cell_formula_units_Z 56
_cell_length_a 25.369949
_cell_length_b 5.573197
_cell_length_c 23.232231
_cell_angle_alpha 90.000000
_cell_angle_beta 137.174277
_cell_angle_gamma 90.000000
_cell_volume 2232.941329
_symmetry_space_group_name_H-M "C 2/C"
_symmetry_group_IT_number 15
_symmetry_cell_setting 'monoclinic'
loop_
_space_group_symop_operation_xyz
x,y,z
-x,y,1/2-z
-x,-y,-z
x,-y,1/2+z
1/2+x,1/2+y,z
1/2-x,1/2+y,1/2-z
1/2-x,1/2-y,-z
1/2+x,1/2-y,1/2+z
loop_
_atom_site_type_symbol
_atom_site_label
_atom_site_fract_x
_atom_site_fract_y
_atom_site_fract_z
Si Si1 0.210801 0.018528 0.288986
Si Si2 0.470476 0.229621 0.382023
Si Si3 0.500000 0.000000 0.500000
Si Si4 0.199775 0.100217 0.573074
Si Si5 0.000000 0.482549 0.250000
Si Si6 0.849791 0.794817 0.869471
Si Si7 0.854811 0.314138 0.687508
Si Si8 0.955509 0.233920 0.096816
O O1 0.261705 0.805353 0.303844
O O2 0.175424 0.951255 0.323099
O O3 0.268658 0.228203 0.351702
O O4 0.148382 0.079680 0.191083
O O5 0.472715 0.267972 0.451322
O O6 0.398029 0.146773 0.284404
O O7 0.508351 0.467285 0.383893
O O8 0.519328 0.962905 0.425250
O O9 0.588758 0.090340 0.582658
O O10 0.138313 0.220200 0.480984
O O11 0.145616 0.920859 0.565397
O O12 0.278105 0.970469 0.613504
O O13 0.076778 0.642315 0.302165
O O14 0.014182 0.323933 0.317439
#
# Coordination Sequence:
#
# PCOD9300229 Si02
#       8
#     8   8   4   8   4   8   8   8
#     4  11  23  42  69 102 153 207 252 307 388 483
#     4  11  26  45  71 112 154 203 251 317 381 479
#     4  12  24  40  70 112 156 210 250 308 382 468
#     4  11  23  45  69 111 151 204 249 326 381 484
#     4  10  26  56  78 106 144 202 264 348 410 456
#     4  11  23  40  66 107 162 205 255 302 389 477
#     4  10  26  46  75 106 145 198 266 325 397 460
#     4  11  26  49  75 106 155 196 262 328 397 457
#
# _framework density 25.079028999999998
#
# number of rings (size 3 to 8) (size 9 to 14) (size 15 to 20)
#    0.000    1.143    2.857    1.714   10.000    4.571 
#    0.000    0.714    0.000    0.000    0.000    0.000 
#    0.000    0.000    0.000    0.000    0.000    0.000 
#
# Total GULP energy -155884.367159 kJ/mol
# GULP energy per Si atom -5567.298827 kJ/mol
# Density = 2.502195 g / cm^3
# Si number density = 25.079029 Si / 1000 Ang^3
#
#
#
# Elastic Constant Matrix: (Units=GPa)
#
#
# Indices 1 2 3 4 5 6 
#
# 1 106.0948 42.7215 13.1515 0.0056 32.2092 0.0079
# 2 42.7215 71.7172 13.5540 0.0167 7.5873 0.0157
# 3 13.1515 13.5540 103.6447 0.0006 23.3626 0.0081
# 4 0.0056 0.0167 0.0006 27.9316 0.0009 3.1823
# 5 32.2092 7.5873 23.3626 0.0009 44.1955 0.0002
# 6 0.0079 0.0157 0.0081 3.1823 0.0002 30.8526
#
#
#
# Elastic Compliance Matrix: (Units=1/GPa)
#
#
# Indices 1 2 3 4 5 6 
#
# 1 0.016105 -0.008722 0.001595 0.000002 -0.011083 0.000000
# 2 -0.008722 0.019130 -0.002370 -0.000009 0.004325 -0.000006
# 3 0.001595 -0.002370 0.011269 0.000001 -0.006713 -0.000002
# 4 0.000002 -0.000009 0.000001 0.036228 -0.000002 -0.003737
# 5 -0.011083 0.004325 -0.006713 -0.000002 0.033510 0.000002
# 6 0.000000 -0.000006 -0.000002 -0.003737 0.000002 0.032798
#
#
# Mechanical properties :
#
#
# Convention : Reuss Voigt Hill
#
# Bulk Modulus (GPa) = 36.35116 46.70118 41.52617
# Shear Modulus (GPa) = 28.21634 34.73124 31.47379
#
# Velocity S-wave (km/s) = 3.35789 3.72542 3.54642
# Velocity P-wave (km/s) = 5.43691 6.09648 5.77612
#
# Compressibility (1/GPa) = 0.02750944
#
# Stress axis : x y z
#
# Youngs Moduli (GPa) = 62.09373 52.27429 88.73922
#
# Poissons Ratio (x) = 0.45596 -0.14157
# Poissons Ratio (y) = 0.54161 0.21030
# Poissons Ratio (z) = -0.09906 0.12388
#
# Static dielectric constant tensor:
#      x y z
#    x 1.867820 -0.000020 0.280420 
#    y -0.000020 2.087120 0.000000 
#    z 0.280420 0.000000 1.733950 
# 
# From -- ./inp_files/302967.got.cif
#   From: 2010.05.17/outbox.cif.g08.bks.cpg/sg15_152_cif.got.tgz:302967.got - 2010.06.03 18:47:42.
