data_PCOD9300452
_publ_section_title
;
Structure prediction by ZEFSAII (Michael W. Deem and Ramdas Pophale) SiO2 
 PCOD9300452
Probable space group: C 2/C
;
_chemical_formula_sum "Si O2"
_cell_formula_units_Z 52
_cell_length_a 10.471846
_cell_length_b 10.894674
_cell_length_c 20.530808
_cell_angle_alpha 90.000000
_cell_angle_beta 124.265133
_cell_angle_gamma 90.000000
_cell_volume 1935.777422
_symmetry_space_group_name_H-M "C 2/C"
_symmetry_group_IT_number 15
_symmetry_cell_setting 'monoclinic'
loop_
_space_group_symop_operation_xyz
x,y,z
-x,y,1/2-z
-x,-y,-z
x,-y,1/2+z
1/2+x,1/2+y,z
1/2-x,1/2+y,1/2-z
1/2-x,1/2-y,-z
1/2+x,1/2-y,1/2+z
loop_
_atom_site_type_symbol
_atom_site_label
_atom_site_fract_x
_atom_site_fract_y
_atom_site_fract_z
Si Si1 0.291390 0.697926 0.406994
Si Si2 0.757138 0.051940 0.524955
Si Si3 0.000000 0.359577 0.250000
Si Si4 0.472954 0.518510 0.814865
Si Si5 0.593628 0.813071 0.478228
Si Si6 0.841167 0.585576 0.257553
Si Si7 0.662581 0.270194 0.138919
O O1 0.251181 0.822174 0.435391
O O2 0.311173 0.593146 0.468327
O O3 0.440629 0.745274 0.409077
O O4 0.177465 0.642306 0.319831
O O5 0.871991 0.975658 0.605426
O O6 0.613176 0.959215 0.475280
O O7 0.072040 0.455841 0.218553
O O8 0.152022 0.286804 0.316180
O O9 0.500000 0.572591 0.750000
O O10 0.332762 0.426605 0.764400
O O11 0.399129 0.601628 0.851066
O O12 0.750000 0.750000 0.500000
O O13 0.587563 0.776245 0.551999
O O14 0.906764 0.681111 0.326523
#
# Coordination Sequence:
#
# PCOD9300452 Si02
#       7
#     8   8   4   8   8   8   8
#     4  11  26  46  70 110 140 194 244 308 375 439
#     4  11  25  44  72 100 148 186 246 305 367 445
#     4  10  28  46  68 114 142 188 248 304 362 440
#     4  11  23  44  68 103 138 186 241 297 369 437
#     4  12  27  46  73 105 147 193 243 306 371 444
#     4  11  26  43  76 100 146 191 240 307 366 439
#     4  11  26  47  72 105 148 190 246 304 368 439
#
# _framework density 26.862593
#
# number of rings (size 3 to 8) (size 9 to 14) (size 15 to 20)
#    0.000    0.923    1.538    3.231   12.923    2.462 
#    0.000    0.000    0.000    0.000    0.000    0.000 
#    0.000    0.000    0.000    0.000    0.000    0.000 
#
# Total GULP energy -145413.495078 kJ/mol
# GULP energy per Si atom -5592.826734 kJ/mol
# Density = 2.680145 g / cm^3
# Si number density = 26.862593 Si / 1000 Ang^3
#
#
#
# Elastic Constant Matrix: (Units=GPa)
#
#
# Indices 1 2 3 4 5 6 
#
# 1 103.1271 22.5333 30.0000 0.0000 -1.9962 0.0000
# 2 22.5333 103.2357 29.9586 0.0000 -8.2796 0.0000
# 3 30.0000 29.9586 96.8288 0.0000 -28.6817 0.0000
# 4 0.0000 0.0000 0.0000 25.6334 0.0000 0.2712
# 5 -1.9962 -8.2796 -28.6817 0.0000 32.9135 0.0000
# 6 0.0000 0.0000 0.0000 0.2712 0.0000 46.1796
#
#
#
# Elastic Compliance Matrix: (Units=1/GPa)
#
#
# Indices 1 2 3 4 5 6 
#
# 1 0.011103 -0.001546 -0.003878 0.000000 -0.003095 0.000000
# 2 -0.001546 0.010859 -0.002830 0.000000 0.000172 0.000000
# 3 -0.003878 -0.002830 0.016343 0.000000 0.013294 0.000000
# 4 0.000000 0.000000 0.000000 0.039014 0.000000 -0.000229
# 5 -0.003095 0.000172 0.013294 0.000000 0.041823 0.000000
# 6 0.000000 0.000000 0.000000 -0.000229 0.000000 0.021656
#
#
# Mechanical properties :
#
#
# Convention : Reuss Voigt Hill
#
# Bulk Modulus (GPa) = 45.88057 52.01949 48.95003
# Shear Modulus (GPa) = 30.38186 35.65861 33.02024
#
# Velocity S-wave (km/s) = 3.36670 3.64736 3.50984
# Velocity P-wave (km/s) = 5.67712 6.09465 5.88959
#
# Compressibility (1/GPa) = 0.02179572
#
# Stress axis : x y z
#
# Youngs Moduli (GPa) = 90.06607 92.08917 61.18977
#
# Poissons Ratio (x) = 0.14239 0.23732
# Poissons Ratio (y) = 0.13926 0.17315
# Poissons Ratio (z) = 0.34932 0.26059
#
# Static dielectric constant tensor:
#      x y z
#    x 2.325670 0.000000 0.118730 
#    y 0.000000 2.077250 0.000000 
#    z 0.118730 0.000000 2.082550 
# 
# From -- ./inp_files/237705.got.cif
#   From: 2010.05.17/outbox.cif.g08.bks.cpg/sg15_119_cif.got.tgz:237705.got - 2010.06.03 18:47:42.
