data_PCOD9300728
_publ_section_title
;
Structure prediction by ZEFSAII (Michael W. Deem and Ramdas Pophale) SiO2 
 PCOD9300728
Probable space group: C 2/C
;
_chemical_formula_sum "Si O2"
_cell_formula_units_Z 56
_cell_length_a 20.112622
_cell_length_b 11.910807
_cell_length_c 15.027333
_cell_angle_alpha 90.000000
_cell_angle_beta 56.189572
_cell_angle_gamma 90.000000
_cell_volume 2991.105775
_symmetry_space_group_name_H-M "C 2/C"
_symmetry_group_IT_number 15
_symmetry_cell_setting 'monoclinic'
loop_
_space_group_symop_operation_xyz
x,y,z
-x,y,1/2-z
-x,-y,-z
x,-y,1/2+z
1/2+x,1/2+y,z
1/2-x,1/2+y,1/2-z
1/2-x,1/2-y,-z
1/2+x,1/2-y,1/2+z
loop_
_atom_site_type_symbol
_atom_site_label
_atom_site_fract_x
_atom_site_fract_y
_atom_site_fract_z
Si Si1 0.692621 0.386359 0.214456
Si Si2 0.634860 0.018131 0.857580
Si Si3 0.185454 0.371336 0.652787
Si Si4 0.056030 0.282811 0.625972
Si Si5 0.147119 0.942144 0.053733
Si Si6 0.569432 0.410057 0.471644
Si Si7 0.515720 0.157710 0.503497
O O1 0.782803 0.429339 0.166383
O O2 0.694217 0.254096 0.187410
O O3 0.656382 0.445787 0.153341
O O4 0.634247 0.405261 0.342411
O O5 0.656599 0.953468 0.751247
O O6 0.590686 0.927025 0.954766
O O7 0.565102 0.109672 0.892727
O O8 0.124541 0.360173 0.616047
O O9 0.267499 0.414489 0.551608
O O10 0.093697 0.165936 0.567706
O O11 0.000000 0.254692 0.750000
O O12 0.007007 0.339075 0.584410
O O13 0.110866 0.048045 0.031123
O O14 0.500000 0.500000 0.500000
O O15 0.536291 0.284983 0.510714
#
# Coordination Sequence:
#
# PCOD9300728 Si02
#       7
#     8   8   8   8   8   8   8
#     4  11  23  41  63  94 129 164 212 263 314 376
#     4  11  22  38  65  88 131 166 202 262 316 375
#     4  11  21  39  63  95 119 161 215 265 314 364
#     4  11  19  36  63  96 120 150 213 272 308 355
#     4  11  23  38  64  93 123 162 210 264 314 366
#     4  12  24  39  65  95 131 166 211 259 317 382
#     4  11  22  40  60  95 125 167 206 258 322 371
#
# _framework density 18.722173000000002
#
# number of rings (size 3 to 8) (size 9 to 14) (size 15 to 20)
#    0.000    0.857    5.714    4.286    0.000    0.000 
#    0.000    0.714    0.000    8.571    0.000    0.000 
#    0.000    0.000    0.000    0.000    0.000    0.000 
#
# Total GULP energy -156406.074557 kJ/mol
# GULP energy per Si atom -5585.931234 kJ/mol
# Density = 1.867956 g / cm^3
# Si number density = 18.722173 Si / 1000 Ang^3
#
#
#
# Elastic Constant Matrix: (Units=GPa)
#
#
# Indices 1 2 3 4 5 6 
#
# 1 94.5291 62.4170 35.0690 0.0000 -6.4876 0.0000
# 2 62.4170 127.7754 44.7598 0.0000 -3.7501 0.0000
# 3 35.0690 44.7598 78.7366 0.0000 -4.3529 0.0000
# 4 0.0000 0.0000 0.0000 18.5229 0.0000 -13.9130
# 5 -6.4876 -3.7501 -4.3529 0.0000 37.1229 0.0000
# 6 0.0000 0.0000 0.0000 -13.9130 0.0000 32.8290
#
#
#
# Elastic Compliance Matrix: (Units=1/GPa)
#
#
# Indices 1 2 3 4 5 6 
#
# 1 0.016438 -0.006802 -0.003356 0.000000 0.001792 0.000000
# 2 -0.006802 0.012591 -0.004150 0.000000 -0.000403 0.000000
# 3 -0.003356 -0.004150 0.016607 0.000000 0.000942 0.000000
# 4 0.000000 0.000000 0.000000 0.079198 0.000000 0.033564
# 5 0.001792 -0.000403 0.000942 0.000000 0.027320 0.000000
# 6 0.000000 0.000000 0.000000 0.033564 0.000000 0.044686
#
#
# Mechanical properties :
#
#
# Convention : Reuss Voigt Hill
#
# Bulk Modulus (GPa) = 58.75537 65.05918 61.90728
# Shear Modulus (GPa) = 21.63303 28.28131 24.95717
#
# Velocity S-wave (km/s) = 3.40292 3.89083 3.65503
# Velocity P-wave (km/s) = 6.84768 7.41687 7.13795
#
# Compressibility (1/GPa) = 0.01701972
#
# Stress axis : x y z
#
# Youngs Moduli (GPa) = 60.83579 79.42313 60.21669
#
# Poissons Ratio (x) = 0.54020 0.20207
# Poissons Ratio (y) = 0.41378 0.24993
# Poissons Ratio (z) = 0.20415 0.32964
#
# Static dielectric constant tensor:
#      x y z
#    x 1.701270 0.000000 -0.027250 
#    y 0.000000 1.693820 0.000000 
#    z -0.027250 0.000000 1.647510 
# 
# From -- ./inp_files/161252.got.cif
#   From: 2010.05.17/outbox.cif.g08.bks.cpg/sg15_81_cif.got.tgz:161252.got - 2010.06.03 18:47:42.
