data_PCOD9300187
_publ_section_title
;
Structure prediction by ZEFSAII (Michael W. Deem and Ramdas Pophale) SiO2 
 PCOD9300187
Probable space group: C 2/C
;
_chemical_formula_sum "Si O2"
_cell_formula_units_Z 44
_cell_length_a 8.226635
_cell_length_b 22.722584
_cell_length_c 11.528259
_cell_angle_alpha 90.000000
_cell_angle_beta 61.755251
_cell_angle_gamma 90.000000
_cell_volume 1898.397264
_symmetry_space_group_name_H-M "C 2/C"
_symmetry_group_IT_number 15
_symmetry_cell_setting 'monoclinic'
loop_
_space_group_symop_operation_xyz
x,y,z
-x,y,1/2-z
-x,-y,-z
x,-y,1/2+z
1/2+x,1/2+y,z
1/2-x,1/2+y,1/2-z
1/2-x,1/2-y,-z
1/2+x,1/2-y,1/2+z
loop_
_atom_site_type_symbol
_atom_site_label
_atom_site_fract_x
_atom_site_fract_y
_atom_site_fract_z
Si Si1 0.161082 0.565117 0.780735
Si Si2 0.143745 0.055611 0.299826
Si Si3 0.000000 0.630620 0.250000
Si Si4 0.346868 0.842022 0.041054
Si Si5 0.984576 0.877031 0.049150
Si Si6 0.038126 0.764656 0.601331
O O1 0.292325 0.509703 0.758197
O O2 0.080287 0.598817 0.919464
O O3 0.285495 0.612963 0.671022
O O4 0.000000 0.545133 0.750000
O O5 0.331835 0.092378 0.254910
O O6 0.047075 0.064752 0.457813
O O7 0.000000 0.076198 0.250000
O O8 0.926072 0.666027 0.385107
O O9 0.132696 0.857620 0.094915
O O10 0.405556 0.785656 0.093867
O O11 0.993773 0.826222 0.950791
O O12 0.250000 0.750000 0.500000
O O13 0.000000 0.768633 0.750000
#
# Coordination Sequence:
#
# PCOD9300187 Si02
#       6
#     8   8   4   8   8   8
#     4  12  25  45  72 108 146 188 242 301 362 443
#     4  11  24  44  73 103 150 189 239 296 367 432
#     4  10  26  46  68 112 134 192 242 298 354 430
#     4  11  25  46  72 100 146 187 241 299 360 433
#     4  11  25  46  70 106 144 190 243 293 374 434
#     4  12  27  46  74 109 144 192 245 305 374 438
#
# _framework density 23.177446
#
# number of rings (size 3 to 8) (size 9 to 14) (size 15 to 20)
#    0.000    0.727    0.909    6.000   10.182    2.182 
#    3.273    0.000    0.000    0.000    0.000    0.000 
#    0.000    0.000    0.000    0.000    0.000    0.000 
#
# Total GULP energy -123107.306450 kJ/mol
# GULP energy per Si atom -5595.786657 kJ/mol
# Density = 2.312469 g / cm^3
# Si number density = 23.177446 Si / 1000 Ang^3
#
#
#
# Elastic Constant Matrix: (Units=GPa)
#
#
# Indices 1 2 3 4 5 6 
#
# 1 139.2617 20.2417 13.7929 0.0000 15.4466 0.0000
# 2 20.2417 94.5475 -1.3062 0.0000 18.3875 0.0000
# 3 13.7929 -1.3062 85.5245 0.0000 9.8157 0.0000
# 4 0.0000 0.0000 0.0000 13.4921 0.0000 -1.6904
# 5 15.4466 18.3875 9.8157 0.0000 32.9284 0.0000
# 6 0.0000 0.0000 0.0000 -1.6904 0.0000 9.8979
#
#
#
# Elastic Compliance Matrix: (Units=1/GPa)
#
#
# Indices 1 2 3 4 5 6 
#
# 1 0.007742 -0.001144 -0.000955 0.000000 -0.002708 0.000000
# 2 -0.001144 0.012113 0.001123 0.000000 -0.006562 0.000000
# 3 -0.000955 0.001123 0.012305 0.000000 -0.003847 0.000000
# 4 0.000000 0.000000 0.000000 0.075738 0.000000 0.012935
# 5 -0.002708 -0.006562 -0.003847 0.000000 0.036450 0.000000
# 6 0.000000 0.000000 0.000000 0.012935 0.000000 0.103240
#
#
# Mechanical properties :
#
#
# Convention : Reuss Voigt Hill
#
# Bulk Modulus (GPa) = 33.10440 42.75446 37.92943
# Shear Modulus (GPa) = 19.25955 30.37071 24.81513
#
# Velocity S-wave (km/s) = 2.88577 3.62381 3.27564
# Velocity P-wave (km/s) = 5.04158 5.99966 5.54137
#
# Compressibility (1/GPa) = 0.03020747
#
# Stress axis : x y z
#
# Youngs Moduli (GPa) = 129.16556 82.55363 81.26598
#
# Poissons Ratio (x) = 0.09444 0.07763
# Poissons Ratio (y) = 0.14776 -0.09123
# Poissons Ratio (z) = 0.12338 -0.09268
#
# Static dielectric constant tensor:
#      x y z
#    x 0.754830 0.000000 0.227580 
#    y 0.000000 1.888390 0.000000 
#    z 0.227580 0.000000 1.840880 
# 
# From -- ./inp_files/79675.got.cif
#   From: 2010.05.17/outbox.cif.g08.bks.cpg/sg15_40_cif.got.tgz:79675.got - 2010.06.03 18:47:42.
