data_PCOD9300399
_publ_section_title
;
Structure prediction by ZEFSAII (Michael W. Deem and Ramdas Pophale) SiO2 
 PCOD9300399
Probable space group: C 2/C
;
_chemical_formula_sum "Si O2"
_cell_formula_units_Z 44
_cell_length_a 6.650008
_cell_length_b 14.905394
_cell_length_c 20.779419
_cell_angle_alpha 90.000000
_cell_angle_beta 75.725847
_cell_angle_gamma 90.000000
_cell_volume 1996.088294
_symmetry_space_group_name_H-M "C 2/C"
_symmetry_group_IT_number 15
_symmetry_cell_setting 'monoclinic'
loop_
_space_group_symop_operation_xyz
x,y,z
-x,y,1/2-z
-x,-y,-z
x,-y,1/2+z
1/2+x,1/2+y,z
1/2-x,1/2+y,1/2-z
1/2-x,1/2-y,-z
1/2+x,1/2-y,1/2+z
loop_
_atom_site_type_symbol
_atom_site_label
_atom_site_fract_x
_atom_site_fract_y
_atom_site_fract_z
Si Si1 0.000000 0.000000 0.000000
Si Si2 0.000000 0.630604 0.750000
Si Si3 0.240534 0.215067 0.159024
Si Si4 0.154126 0.108080 0.685330
Si Si5 0.407695 0.304018 0.442327
Si Si6 0.000000 0.384794 0.750000
Si Si7 0.414984 0.437490 0.649132
O O1 0.910310 0.042019 0.074315
O O2 0.028078 0.899374 0.032645
O O3 0.146407 0.694997 0.696383
O O4 0.139165 0.583379 0.792522
O O5 0.392201 0.242591 0.088973
O O6 0.375378 0.167762 0.203852
O O7 0.050710 0.151245 0.153165
O O8 0.187181 0.171274 0.620979
O O9 0.000000 0.151117 0.750000
O O10 0.041335 0.018582 0.671303
O O11 0.250000 0.250000 0.500000
O O12 0.187393 0.432333 0.697008
#
# Coordination Sequence:
#
# PCOD9300399 Si02
#       7
#     4   4   8   8   8   4   8
#     4  10  26  52  68 104 156 202 260 312 376 490
#     4  12  24  43  72 113 152 190 242 330 381 458
#     4  12  24  44  76 111 144 197 252 319 393 459
#     4  11  24  46  68 110 150 190 255 314 384 462
#     4  11  25  49  75 105 155 209 259 319 390 474
#     4  12  22  45  80 111 148 192 258 332 391 460
#     4  11  26  47  75 109 150 199 261 319 397 468
#
# _framework density 22.043113000000002
#
# number of rings (size 3 to 8) (size 9 to 14) (size 15 to 20)
#    0.000    0.727    3.636    3.273    2.545    3.636 
#    3.273    4.545    0.000    0.000    0.000    0.000 
#    0.000    0.000    0.000    0.000    0.000    0.000 
#
# Total GULP energy -122554.528923 kJ/mol
# GULP energy per Si atom -5570.660406 kJ/mol
# Density = 2.199294 g / cm^3
# Si number density = 22.043113 Si / 1000 Ang^3
#
#
#
# Elastic Constant Matrix: (Units=GPa)
#
#
# Indices 1 2 3 4 5 6 
#
# 1 135.7088 44.0375 76.0173 0.0000 -17.5967 0.0000
# 2 44.0375 73.4173 58.8912 0.0000 -1.4563 0.0000
# 3 76.0173 58.8912 204.8266 0.0000 -9.7647 0.0000
# 4 0.0000 0.0000 0.0000 45.8842 0.0000 -12.7795
# 5 -17.5967 -1.4563 -9.7647 0.0000 22.6124 0.0000
# 6 0.0000 0.0000 0.0000 -12.7795 0.0000 4.2186
#
#
#
# Elastic Compliance Matrix: (Units=1/GPa)
#
#
# Indices 1 2 3 4 5 6 
#
# 1 0.011201 -0.004574 -0.002492 0.000000 0.007346 0.000000
# 2 -0.004574 0.019598 -0.004132 0.000000 -0.004082 0.000000
# 3 -0.002492 -0.004132 0.007035 0.000000 0.000833 0.000000
# 4 0.000000 0.000000 0.000000 0.139453 0.000000 0.422450
# 5 0.007346 -0.004082 0.000833 0.000000 0.050037 0.000000
# 6 0.000000 0.000000 0.000000 0.422450 0.000000 1.516787
#
#
# Mechanical properties :
#
#
# Convention : Reuss Voigt Hill
#
# Bulk Modulus (GPa) = 64.77430 85.76052 75.26741
# Shear Modulus (GPa) = 2.82222 30.21015 16.51619
#
# Velocity S-wave (km/s) = 1.13274 3.70605 2.74024
# Velocity P-wave (km/s) = 5.58210 7.56990 6.65068
#
# Compressibility (1/GPa) = 0.01543822
#
# Stress axis : x y z
#
# Youngs Moduli (GPa) = 89.27448 51.02620 142.15600
#
# Poissons Ratio (x) = 0.23342 0.35422
# Poissons Ratio (y) = 0.40838 0.58733
# Poissons Ratio (z) = 0.22245 0.21082
#
# Static dielectric constant tensor:
#      x y z
#    x 1.886680 0.000000 -0.010510 
#    y 0.000000 1.895360 0.000000 
#    z -0.010510 0.000000 1.792740 
# 
# From -- ./inp_files/226944.got.cif
#   From: 2010.05.17/outbox.cif.g08.bks.cpg/sg15_114_cif.got.tgz:226944.got - 2010.06.03 18:47:42.
