data_PCOD9300171
_publ_section_title
;
Structure prediction by ZEFSAII (Michael W. Deem and Ramdas Pophale) SiO2 
 PCOD9300171
Probable space group: C 2/C
;
_chemical_formula_sum "Si O2"
_cell_formula_units_Z 60
_cell_length_a 16.667877
_cell_length_b 19.220804
_cell_length_c 17.325778
_cell_angle_alpha 90.000000
_cell_angle_beta 28.582090
_cell_angle_gamma 90.000000
_cell_volume 2655.531989
_symmetry_space_group_name_H-M "C 2/C"
_symmetry_group_IT_number 15
_symmetry_cell_setting 'monoclinic'
loop_
_space_group_symop_operation_xyz
x,y,z
-x,y,1/2-z
-x,-y,-z
x,-y,1/2+z
1/2+x,1/2+y,z
1/2-x,1/2+y,1/2-z
1/2-x,1/2-y,-z
1/2+x,1/2-y,1/2+z
loop_
_atom_site_type_symbol
_atom_site_label
_atom_site_fract_x
_atom_site_fract_y
_atom_site_fract_z
Si Si1 0.955362 0.048468 0.111909
Si Si2 0.001153 0.332062 0.607960
Si Si3 0.500000 0.062697 0.250000
Si Si4 0.928728 0.425104 0.536830
Si Si5 0.996631 0.672990 0.845735
Si Si6 0.109573 0.936834 0.083889
Si Si7 0.121366 0.803894 0.463164
Si Si8 0.635540 0.299498 0.958570
O O1 0.762950 0.071876 0.273091
O O2 0.994733 0.998262 0.148822
O O3 0.060563 0.118520 0.035701
O O4 0.000000 0.000000 0.000000
O O5 0.004954 0.389975 0.669931
O O6 0.030008 0.369590 0.502567
O O7 0.814207 0.302417 0.767815
O O8 0.125792 0.269186 0.518872
O O9 0.305015 0.034405 0.419061
O O10 0.000000 0.500000 0.500000
O O11 0.936995 0.396244 0.442417
O O12 0.183556 0.688848 0.716510
O O13 0.000000 0.664921 0.750000
O O14 0.897760 0.741634 0.958537
O O15 0.000000 0.912819 0.250000
O O16 0.112042 0.870762 0.024484
O O17 0.007103 0.789238 0.485217
#
# Coordination Sequence:
#
# PCOD9300171 Si02
#       8
#     8   8   4   8   8   8   8   8
#     4  12  24  48  72 104 140 193 245 302 365 443
#     4  11  24  43  70 103 140 182 235 294 361 435
#     4  10  26  46  66 106 152 184 236 312 360 434
#     4  12  27  46  74 105 142 192 244 295 368 452
#     4  12  28  47  73 110 142 191 242 315 372 438
#     4  11  27  44  71 105 147 193 243 299 373 445
#     4  12  23  47  75  97 143 185 246 297 370 435
#     4  11  23  42  73 103 136 186 238 294 356 442
#
# _framework density 22.594342000000001
#
# number of rings (size 3 to 8) (size 9 to 14) (size 15 to 20)
#    0.000    0.533    4.000    3.600    4.667    2.667 
#    2.400    0.000    0.000    0.000    0.000    0.000 
#    0.000    0.000    0.000    0.000    0.000    0.000 
#
# Total GULP energy -167530.633919 kJ/mol
# GULP energy per Si atom -5584.354464 kJ/mol
# Density = 2.254292 g / cm^3
# Si number density = 22.594342 Si / 1000 Ang^3
#
#
#
# Elastic Constant Matrix: (Units=GPa)
#
#
# Indices 1 2 3 4 5 6 
#
# 1 68.8697 8.5084 18.5645 0.0063 18.5247 0.0025
# 2 8.5084 131.7908 37.1342 0.0035 16.2081 -0.0247
# 3 18.5645 37.1342 81.0476 -0.0087 17.8485 -0.0532
# 4 0.0063 0.0035 -0.0087 6.3458 -0.0043 -69.1763
# 5 18.5247 16.2081 17.8485 -0.0043 39.3216 0.0075
# 6 0.0025 -0.0247 -0.0532 -69.1763 0.0075 -145.5107
#
#
#
# Elastic Compliance Matrix: (Units=1/GPa)
#
#
# Indices 1 2 3 4 5 6 
#
# 1 0.017055 0.000494 -0.002576 -0.000003 -0.007069 0.000002
# 2 0.000494 0.008867 -0.003689 -0.000002 -0.002214 0.000001
# 3 -0.002576 -0.003689 0.015573 -0.000006 -0.004335 -0.000003
# 4 -0.000003 -0.000002 -0.000006 0.025489 0.000010 -0.012118
# 5 -0.007069 -0.002214 -0.004335 0.000010 0.031642 -0.000001
# 6 0.000002 0.000001 -0.000003 -0.012118 -0.000001 -0.001112
#
#
# Mechanical properties :
#
#
# Convention : Reuss Voigt Hill
#
# Bulk Modulus (GPa) = 33.38408 45.56914 39.47661
# Shear Modulus (GPa) = 42.00247 -5.46857 18.26695
#
# Velocity S-wave (km/s) = 4.31627 -1.55743 2.84645
# Velocity P-wave (km/s) = 6.29664 4.12044 5.32099
#
# Compressibility (1/GPa) = 0.02995440
#
# Stress axis : x y z
#
# Youngs Moduli (GPa) = 58.63382 112.77222 64.21310
#
# Poissons Ratio (x) = -0.05573 0.16543
# Poissons Ratio (y) = -0.02898 0.23685
# Poissons Ratio (z) = 0.15105 0.41597
#
# Static dielectric constant tensor:
#      x y z
#    x 2.052930 -0.001060 0.022740 
#    y -0.001060 1.522180 0.000450 
#    z 0.022740 0.000450 1.874280 
# 
# From -- ./inp_files/211740.got.cif
#   From: 2010.05.17/outbox.cif.g08.bks.cpg/sg15_106_cif.got.tgz:211740.got - 2010.06.03 18:47:42.
