data_PCOD9300053
_publ_section_title
;
Structure prediction by ZEFSAII (Michael W. Deem and Ramdas Pophale) SiO2 
 PCOD9300053
Probable space group: C 2/C
;
_chemical_formula_sum "Si O2"
_cell_formula_units_Z 44
_cell_length_a 12.400642
_cell_length_b 14.338949
_cell_length_c 13.445008
_cell_angle_alpha 90.000000
_cell_angle_beta 41.918566
_cell_angle_gamma 90.000000
_cell_volume 1597.154516
_symmetry_space_group_name_H-M "C 2/C"
_symmetry_group_IT_number 15
_symmetry_cell_setting 'monoclinic'
loop_
_space_group_symop_operation_xyz
x,y,z
-x,y,1/2-z
-x,-y,-z
x,-y,1/2+z
1/2+x,1/2+y,z
1/2-x,1/2+y,1/2-z
1/2-x,1/2-y,-z
1/2+x,1/2-y,1/2+z
loop_
_atom_site_type_symbol
_atom_site_label
_atom_site_fract_x
_atom_site_fract_y
_atom_site_fract_z
Si Si1 0.137362 0.039177 0.480984
Si Si2 0.425291 0.775121 0.630956
Si Si3 0.274409 0.641604 0.890769
Si Si4 0.662876 0.656518 0.976360
Si Si5 0.826221 0.464389 0.656614
Si Si6 0.000000 0.284784 0.250000
O O1 0.287883 0.043669 0.300771
O O2 0.141407 0.117938 0.562352
O O3 0.157141 0.943905 0.529947
O O4 0.000000 0.000000 0.500000
O O5 0.342205 0.729639 0.783300
O O6 0.589621 0.829578 0.539076
O O7 0.445821 0.687226 0.542771
O O8 0.319083 0.852263 0.640603
O O9 0.281644 0.546938 0.818233
O O10 0.847448 0.661444 0.809482
O O11 0.590905 0.725238 0.106461
O O12 0.000000 0.500000 0.500000
#
# Coordination Sequence:
#
# PCOD9300053 Si02
#       6
#     8   8   8   8   8   4
#     4  12  30  53  77 119 168 219 281 344 418 504
#     4  11  25  51  85 125 167 222 282 350 421 507
#     4  11  27  54  86 124 173 221 282 352 429 497
#     4  11  25  49  78 116 166 210 283 337 416 500
#     4  10  26  50  79 121 168 218 274 342 417 504
#     4  10  26  42  80 116 152 226 266 340 414 486
#
# _framework density 27.548994
#
# number of rings (size 3 to 8) (size 9 to 14) (size 15 to 20)
#    0.000    1.091    1.818    1.091   12.727    5.818 
#    3.273    1.818    0.000    0.000    0.000    0.000 
#    0.000    0.000    0.000    0.000    0.000    0.000 
#
# Total GULP energy -122885.369342 kJ/mol
# GULP energy per Si atom -5585.698606 kJ/mol
# Density = 2.748629 g / cm^3
# Si number density = 27.548994 Si / 1000 Ang^3
#
#
#
# Elastic Constant Matrix: (Units=GPa)
#
#
# Indices 1 2 3 4 5 6 
#
# 1 126.9457 36.9693 60.7779 0.0000 8.9163 0.0000
# 2 36.9693 163.3874 45.6121 0.0001 19.4177 0.0000
# 3 60.7779 45.6121 146.1979 0.0002 8.7528 -0.0001
# 4 0.0000 0.0001 0.0002 52.8712 -0.0001 23.9334
# 5 8.9163 19.4177 8.7528 -0.0001 48.3577 0.0000
# 6 0.0000 0.0000 -0.0001 23.9334 0.0000 32.1050
#
#
#
# Elastic Compliance Matrix: (Units=1/GPa)
#
#
# Indices 1 2 3 4 5 6 
#
# 1 0.010073 -0.001136 -0.003790 0.000000 -0.000715 0.000000
# 2 -0.001136 0.007105 -0.001603 0.000000 -0.002353 0.000000
# 3 -0.003790 -0.001603 0.008932 0.000000 -0.000274 0.000000
# 4 0.000000 0.000000 0.000000 0.028547 0.000000 -0.021281
# 5 -0.000715 -0.002353 -0.000274 0.000000 0.021806 0.000000
# 6 0.000000 0.000000 0.000000 -0.021281 0.000000 0.047012
#
#
# Mechanical properties :
#
#
# Convention : Reuss Voigt Hill
#
# Bulk Modulus (GPa) = 76.62503 80.36109 78.49306
# Shear Modulus (GPa) = 35.48978 46.21158 40.85068
#
# Velocity S-wave (km/s) = 3.59310 4.10009 3.85494
# Velocity P-wave (km/s) = 6.71478 7.18665 6.95472
#
# Compressibility (1/GPa) = 0.01305057
#
# Stress axis : x y z
#
# Youngs Moduli (GPa) = 99.27334 140.75057 111.95125
#
# Poissons Ratio (x) = 0.15991 0.42434
# Poissons Ratio (y) = 0.11279 0.17950
# Poissons Ratio (z) = 0.37629 0.22568
#
# Static dielectric constant tensor:
#      x y z
#    x 2.376620 0.000000 -0.152730 
#    y 0.000000 2.493280 0.000000 
#    z -0.152730 0.000000 2.090620 
# 
# From -- ./inp_files/47120.got.cif
#   From: 2010.05.17/outbox.cif.g08.bks.cpg/sg15_24_cif.got.tgz:47120.got - 2010.06.03 18:47:42.
