data_PCOD9300784
_publ_section_title
;
Structure prediction by ZEFSAII (Michael W. Deem and Ramdas Pophale) SiO2 
 PCOD9300784
Probable space group: C 2/C
;
_chemical_formula_sum "Si O2"
_cell_formula_units_Z 48
_cell_length_a 21.476169
_cell_length_b 10.897714
_cell_length_c 12.680889
_cell_angle_alpha 90.000000
_cell_angle_beta 128.430052
_cell_angle_gamma 90.000000
_cell_volume 2324.917248
_symmetry_space_group_name_H-M "C 2/C"
_symmetry_group_IT_number 15
_symmetry_cell_setting 'monoclinic'
loop_
_space_group_symop_operation_xyz
x,y,z
-x,y,1/2-z
-x,-y,-z
x,-y,1/2+z
1/2+x,1/2+y,z
1/2-x,1/2+y,1/2-z
1/2-x,1/2-y,-z
1/2+x,1/2-y,1/2+z
loop_
_atom_site_type_symbol
_atom_site_label
_atom_site_fract_x
_atom_site_fract_y
_atom_site_fract_z
Si Si1 0.821389 0.603206 0.350531
Si Si2 0.204611 0.210864 0.057684
Si Si3 0.919348 0.994599 0.614920
Si Si4 0.966620 0.745821 0.594358
Si Si5 0.387913 0.151979 0.878697
Si Si6 0.301715 0.335930 0.630399
O O1 0.775539 0.681024 0.214088
O O2 0.883381 0.680682 0.484493
O O3 0.865300 0.489363 0.343235
O O4 0.752655 0.568857 0.362101
O O5 0.143415 0.312165 0.038464
O O6 0.250000 0.250000 0.000000
O O7 0.146462 0.092100 0.989165
O O8 0.951989 0.892182 0.567166
O O9 0.871634 0.908467 0.646922
O O10 0.000000 0.050229 0.750000
O O11 0.000000 0.724181 0.750000
O O12 0.024482 0.688114 0.567064
O O13 0.337480 0.239477 0.749668
O O14 0.250000 0.250000 0.500000
#
# Coordination Sequence:
#
# PCOD9300784 Si02
#       6
#     8   8   8   8   8   8
#     4  11  24  40  68  98 140 180 228 286 343 410
#     4  11  27  44  64  99 142 182 233 283 349 409
#     4  11  22  43  69  98 133 178 233 282 345 407
#     4  11  22  43  70 103 133 176 234 282 349 422
#     4  11  23  41  62 101 130 179 231 280 350 408
#     4  11  19  38  67  94 132 178 230 282 334 418
#
# _framework density 20.645897000000001
#
# number of rings (size 3 to 8) (size 9 to 14) (size 15 to 20)
#    0.000    1.000    5.000    2.500    2.333    3.333 
#    0.000    0.833    0.000    0.000    0.000    0.000 
#    0.000    0.000    0.000    0.000    0.000    0.000 
#
# Total GULP energy -133806.650589 kJ/mol
# GULP energy per Si atom -5575.277108 kJ/mol
# Density = 2.059891 g / cm^3
# Si number density = 20.645897 Si / 1000 Ang^3
#
#
#
# Elastic Constant Matrix: (Units=GPa)
#
#
# Indices 1 2 3 4 5 6 
#
# 1 132.5379 0.1481 24.2298 0.0000 9.3193 0.0000
# 2 0.1481 32.5832 7.6328 0.0000 15.0968 0.0000
# 3 24.2298 7.6328 82.3029 0.0000 22.5522 0.0000
# 4 0.0000 0.0000 0.0000 20.2860 0.0000 6.4731
# 5 9.3193 15.0968 22.5522 0.0000 28.2890 0.0000
# 6 0.0000 0.0000 0.0000 6.4731 0.0000 44.9525
#
#
#
# Elastic Compliance Matrix: (Units=1/GPa)
#
#
# Indices 1 2 3 4 5 6 
#
# 1 0.008031 0.001218 -0.002014 0.000000 -0.001690 0.000000
# 2 0.001218 0.041464 0.002520 0.000000 -0.024538 0.000000
# 3 -0.002014 0.002520 0.016245 0.000000 -0.013632 0.000000
# 4 0.000000 0.000000 0.000000 0.051669 0.000000 -0.007440
# 5 -0.001690 -0.024538 -0.013632 0.000000 0.059868 0.000000
# 6 0.000000 0.000000 0.000000 -0.007440 0.000000 0.023317
#
#
# Mechanical properties :
#
#
# Convention : Reuss Voigt Hill
#
# Bulk Modulus (GPa) = 14.45348 34.60504 24.52926
# Shear Modulus (GPa) = 22.70572 33.06638 27.88605
#
# Velocity S-wave (km/s) = 3.31987 4.00634 3.67915
# Velocity P-wave (km/s) = 4.65954 6.18050 5.47311
#
# Compressibility (1/GPa) = 0.06918748
#
# Stress axis : x y z
#
# Youngs Moduli (GPa) = 124.52225 24.11723 61.55831
#
# Poissons Ratio (x) = -0.02938 0.12398
# Poissons Ratio (y) = -0.15172 -0.15511
# Poissons Ratio (z) = 0.25080 -0.06077
#
# Static dielectric constant tensor:
#      x y z
#    x 1.753720 0.000000 -0.062820 
#    y 0.000000 2.168520 0.000000 
#    z -0.062820 0.000000 1.692020 
# 
# From -- ./inp_files/111799.got.cif
#   From: 2010.05.17/outbox.cif.g08.bks.cpg/sg15_56_cif.got.tgz:111799.got - 2010.06.03 18:47:42.
