data_PCOD9300666
_publ_section_title
;
Structure prediction by ZEFSAII (Michael W. Deem and Ramdas Pophale) SiO2 
 PCOD9300666
Probable space group: C 2/C
;
_chemical_formula_sum "Si O2"
_cell_formula_units_Z 36
_cell_length_a 23.877264
_cell_length_b 9.424207
_cell_length_c 7.666007
_cell_angle_alpha 90.000000
_cell_angle_beta 122.452323
_cell_angle_gamma 90.000000
_cell_volume 1455.652792
_symmetry_space_group_name_H-M "C 2/C"
_symmetry_group_IT_number 15
_symmetry_cell_setting 'monoclinic'
loop_
_space_group_symop_operation_xyz
x,y,z
-x,y,1/2-z
-x,-y,-z
x,-y,1/2+z
1/2+x,1/2+y,z
1/2-x,1/2+y,1/2-z
1/2-x,1/2-y,-z
1/2+x,1/2-y,1/2+z
loop_
_atom_site_type_symbol
_atom_site_label
_atom_site_fract_x
_atom_site_fract_y
_atom_site_fract_z
Si Si1 0.000000 0.756374 0.750000
Si Si2 0.690243 0.054260 0.682102
Si Si3 0.053370 0.814652 0.196437
Si Si4 0.906589 0.509232 0.724667
Si Si5 0.297798 0.338450 0.947931
O O1 0.054682 0.650033 0.759732
O O2 0.969742 0.842752 0.538953
O O3 0.611962 0.021345 0.596326
O O4 0.695184 0.223537 0.695384
O O5 0.672960 0.999344 0.451103
O O6 0.759121 0.977872 0.830409
O O7 0.058263 0.642439 0.219809
O O8 0.128763 0.864830 0.355741
O O9 0.000000 0.860869 0.250000
O O10 0.250000 0.250000 0.000000
#
# Coordination Sequence:
#
# PCOD9300666 Si02
#       5
#     4   8   8   8   8
#     4  12  18  32  60  92 132 162 198 268 338 378
#     4  11  22  38  63  92 130 164 209 261 323 374
#     4  11  22  35  60  93 129 165 209 268 320 383
#     4  11  19  34  57  97 124 157 207 264 331 373
#     4  11  22  42  62  96 130 166 211 269 318 382
#
# _framework density 24.731172000000001
#
# number of rings (size 3 to 8) (size 9 to 14) (size 15 to 20)
#    0.000    0.889    7.778    3.333    0.000    0.889 
#    0.000    2.222    0.000    1.333    2.889    0.000 
#    0.000    0.000    0.000    0.000    0.000    0.000 
#
# Total GULP energy -100344.204147 kJ/mol
# GULP energy per Si atom -5574.678008 kJ/mol
# Density = 2.467488 g / cm^3
# Si number density = 24.731172 Si / 1000 Ang^3
#
#
#
# Elastic Constant Matrix: (Units=GPa)
#
#
# Indices 1 2 3 4 5 6 
#
# 1 59.7708 40.6322 35.9357 0.0000 89.6686 0.0000
# 2 40.6322 68.2299 49.5612 0.0000 -0.2341 0.0000
# 3 35.9357 49.5612 173.6996 0.0000 61.9685 0.0000
# 4 0.0000 0.0000 0.0000 -5.9355 0.0000 -75.2908
# 5 89.6686 -0.2341 61.9685 0.0000 -30.6735 0.0000
# 6 0.0000 0.0000 0.0000 -75.2908 0.0000 -174.6225
#
#
#
# Elastic Compliance Matrix: (Units=1/GPa)
#
#
# Indices 1 2 3 4 5 6 
#
# 1 0.006101 -0.000435 -0.004359 0.000000 0.009030 0.000000
# 2 -0.000435 0.016651 -0.002418 0.000000 -0.006286 0.000000
# 3 -0.004359 -0.002418 0.006909 0.000000 0.001233 0.000000
# 4 0.000000 0.000000 0.000000 0.037697 0.000000 -0.016254
# 5 0.009030 -0.006286 0.001233 0.000000 -0.003665 0.000000
# 6 0.000000 0.000000 0.000000 -0.016254 0.000000 0.001281
#
#
# Mechanical properties :
#
#
# Convention : Reuss Voigt Hill
#
# Bulk Modulus (GPa) = 65.64238 61.55094 63.59666
# Shear Modulus (GPa) = 59.18669 -30.54156 14.32257
#
# Velocity S-wave (km/s) = 4.89734 -3.51799 2.40912
# Velocity P-wave (km/s) = 7.65367 2.90523 5.78874
#
# Compressibility (1/GPa) = 0.01523406
#
# Stress axis : x y z
#
# Youngs Moduli (GPa) = 163.91943 60.05744 144.73503
#
# Poissons Ratio (x) = 0.02615 0.63096
# Poissons Ratio (y) = 0.07137 0.35002
# Poissons Ratio (z) = 0.71459 0.14524
#
# Static dielectric constant tensor:
#      x y z
#    x 2.128000 0.000000 -0.237630 
#    y 0.000000 2.176730 0.000000 
#    z -0.237630 0.000000 2.200930 
# 
# From -- ./inp_files/45938.got.cif
#   From: 2010.05.17/outbox.cif.g08.bks.cpg/sg15_23_cif.got.tgz:45938.got - 2010.06.03 18:47:42.
