data_PCOD9300731
_publ_section_title
;
Structure prediction by ZEFSAII (Michael W. Deem and Ramdas Pophale) SiO2 
 PCOD9300731
Probable space group: C 2/C
;
_chemical_formula_sum "Si O2"
_cell_formula_units_Z 64
_cell_length_a 15.710830
_cell_length_b 14.402552
_cell_length_c 24.849052
_cell_angle_alpha 90.000000
_cell_angle_beta 144.478643
_cell_angle_gamma 90.000000
_cell_volume 3266.850837
_symmetry_space_group_name_H-M "C 2/C"
_symmetry_group_IT_number 15
_symmetry_cell_setting 'monoclinic'
loop_
_space_group_symop_operation_xyz
x,y,z
-x,y,1/2-z
-x,-y,-z
x,-y,1/2+z
1/2+x,1/2+y,z
1/2-x,1/2+y,1/2-z
1/2-x,1/2-y,-z
1/2+x,1/2-y,1/2+z
loop_
_atom_site_type_symbol
_atom_site_label
_atom_site_fract_x
_atom_site_fract_y
_atom_site_fract_z
Si Si1 0.588464 0.831292 0.239673
Si Si2 0.887970 0.789178 0.143243
Si Si3 0.208546 0.960866 0.464015
Si Si4 0.008829 0.646594 0.126280
Si Si5 0.852145 0.459922 0.711159
Si Si6 0.662830 0.164116 0.979649
Si Si7 0.874779 0.139867 0.477015
Si Si8 0.370888 0.774291 0.914785
O O1 0.500000 0.817760 0.250000
O O2 0.482499 0.837658 0.133064
O O3 0.716116 0.755284 0.308827
O O4 0.658054 0.932874 0.280307
O O5 0.741272 0.726329 0.073987
O O6 0.000000 0.776125 0.250000
O O7 0.965053 0.745607 0.129835
O O8 0.847934 0.897087 0.114370
O O9 0.368044 0.918459 0.559164
O O10 0.109961 0.925740 0.462899
O O11 0.240209 0.069689 0.474701
O O12 0.128204 0.601548 0.225966
O O13 0.056707 0.654897 0.089915
O O14 0.710754 0.424847 0.608129
O O15 0.000000 0.447483 0.750000
O O16 0.750000 0.250000 0.000000
O O17 0.636563 0.185473 0.029051
O O18 0.022985 0.184694 0.531955
#
# Coordination Sequence:
#
# PCOD9300731 Si02
#       8
#     8   8   8   8   8   8   8   8
#     4  11  24  48  69  87 124 183 231 266 323 399
#     4  11  19  36  65 102 142 173 202 263 344 404
#     4  11  21  43  69  94 135 174 215 265 344 411
#     4  11  19  39  64 102 134 167 215 271 331 391
#     4  11  19  37  72  96 128 179 217 256 325 402
#     4  12  27  50  69  87 127 186 227 271 337 406
#     4  11  20  38  68 106 133 165 219 280 326 382
#     4  12  27  41  67 100 136 169 225 285 328 393
#
# _framework density 19.590731999999999
#
# number of rings (size 3 to 8) (size 9 to 14) (size 15 to 20)
#    0.000    0.750    8.750    1.500    1.750    1.000 
#    2.250    0.000    0.000    0.000    0.000    0.000 
#    0.000    0.000    0.000    0.000    0.000    0.000 
#
# Total GULP energy -178553.542386 kJ/mol
# GULP energy per Si atom -5579.798200 kJ/mol
# Density = 1.954614 g / cm^3
# Si number density = 19.590732 Si / 1000 Ang^3
#
#
#
# Elastic Constant Matrix: (Units=GPa)
#
#
# Indices 1 2 3 4 5 6 
#
# 1 68.6233 33.0256 9.5663 0.0000 -27.2081 0.0000
# 2 33.0256 105.5856 9.5389 0.0000 -6.7007 0.0000
# 3 9.5663 9.5389 50.9168 0.0000 -20.0548 0.0000
# 4 0.0000 0.0000 0.0000 23.2950 0.0000 -1.3963
# 5 -27.2081 -6.7007 -20.0548 0.0000 28.1975 0.0000
# 6 0.0000 0.0000 0.0000 -1.3963 0.0000 16.2393
#
#
#
# Elastic Compliance Matrix: (Units=1/GPa)
#
#
# Indices 1 2 3 4 5 6 
#
# 1 0.030995 -0.008346 0.009361 0.000000 0.034583 0.000000
# 2 -0.008346 0.011921 -0.003780 0.000000 -0.007909 0.000000
# 3 0.009361 -0.003780 0.030274 0.000000 0.029666 0.000000
# 4 0.000000 0.000000 0.000000 0.043150 0.000000 0.003710
# 5 0.034583 -0.007909 0.029666 0.000000 0.088053 0.000000
# 6 0.000000 0.000000 0.000000 0.003710 0.000000 0.061898
#
#
# Mechanical properties :
#
#
# Convention : Reuss Voigt Hill
#
# Bulk Modulus (GPa) = 14.77969 36.59856 25.68913
# Shear Modulus (GPa) = 16.98513 25.07936 21.03225
#
# Velocity S-wave (km/s) = 2.94768 3.58182 3.28011
# Velocity P-wave (km/s) = 4.37558 5.98565 5.24279
#
# Compressibility (1/GPa) = 0.06766043
#
# Stress axis : x y z
#
# Youngs Moduli (GPa) = 32.26290 83.88504 33.03160
#
# Poissons Ratio (x) = 0.70010 -0.30922
# Poissons Ratio (y) = 0.26926 0.12487
# Poissons Ratio (z) = -0.30202 0.31712
#
# Static dielectric constant tensor:
#      x y z
#    x 1.704010 0.000000 0.006880 
#    y 0.000000 1.702570 0.000000 
#    z 0.006880 0.000000 1.695500 
# 
# From -- ./inp_files/274343.got.cif
#   From: 2010.05.17/outbox.cif.g08.bks.cpg/sg15_138_cif.got.tgz:274343.got - 2010.06.03 18:47:42.
