data_PCOD9300912
_publ_section_title
;
Structure prediction by ZEFSAII (Michael W. Deem and Ramdas Pophale) SiO2 
 PCOD9300912
Probable space group: C 2/C
;
_chemical_formula_sum "Si O2"
_cell_formula_units_Z 56
_cell_length_a 24.798033
_cell_length_b 23.125211
_cell_length_c 5.234140
_cell_angle_alpha 90.000000
_cell_angle_beta 115.214190
_cell_angle_gamma 90.000000
_cell_volume 2715.583865
_symmetry_space_group_name_H-M "C 2/C"
_symmetry_group_IT_number 15
_symmetry_cell_setting 'monoclinic'
loop_
_space_group_symop_operation_xyz
x,y,z
-x,y,1/2-z
-x,-y,-z
x,-y,1/2+z
1/2+x,1/2+y,z
1/2-x,1/2+y,1/2-z
1/2-x,1/2-y,-z
1/2+x,1/2-y,1/2+z
loop_
_atom_site_type_symbol
_atom_site_label
_atom_site_fract_x
_atom_site_fract_y
_atom_site_fract_z
Si Si1 0.428923 0.374108 0.084769
Si Si2 0.330274 0.835037 0.265537
Si Si3 0.742757 0.142244 0.394358
Si Si4 0.435552 0.719446 0.225573
Si Si5 0.037349 0.340499 0.062864
Si Si6 0.828612 0.036984 0.418235
Si Si7 0.350620 0.275341 0.151177
O O1 0.500000 0.378980 0.250000
O O2 0.399764 0.325651 0.206247
O O3 0.411718 0.341003 0.787421
O O4 0.393740 0.432855 0.057545
O O5 0.300073 0.867216 0.448788
O O6 0.394581 0.861335 0.319686
O O7 0.338924 0.770521 0.404632
O O8 0.289702 0.837237 0.930898
O O9 0.781352 0.086774 0.391495
O O10 0.789457 0.191654 0.577632
O O11 0.500000 0.703773 0.250000
O O12 0.455260 0.770816 0.456908
O O13 0.385549 0.752538 0.957882
O O14 0.000000 0.348708 0.250000
O O15 0.000000 0.363547 0.750000
O O16 0.821971 0.988616 0.622105
#
# Coordination Sequence:
#
# PCOD9300912 Si02
#       7
#     8   8   8   8   8   8   8
#     4  11  23  38  62  91 127 174 229 271 318 382
#     4  12  22  40  60  94 129 168 209 248 305 397
#     4  11  26  40  64  87 123 160 218 269 330 386
#     4  11  20  33  56  83 126 172 224 249 292 366
#     4  11  22  36  57  87 131 174 199 231 289 360
#     4  11  27  48  69  87 120 163 224 298 352 367
#     4  11  23  35  55  88 132 174 207 261 314 374
#
# _framework density 20.621718000000001
#
# number of rings (size 3 to 8) (size 9 to 14) (size 15 to 20)
#    0.000    0.857    2.857    5.571    8.000    0.571 
#    0.000    0.000    0.000    0.000    0.000    0.000 
#    0.000   40.000    0.000    0.000    0.000    0.000 
#
# Total GULP energy -156098.881013 kJ/mol
# GULP energy per Si atom -5574.960036 kJ/mol
# Density = 2.057478 g / cm^3
# Si number density = 20.621718 Si / 1000 Ang^3
#
#
#
# Elastic Constant Matrix: (Units=GPa)
#
#
# Indices 1 2 3 4 5 6 
#
# 1 152.6636 21.1568 50.4989 0.0000 5.0088 0.0000
# 2 21.1568 27.1202 4.9632 0.0000 7.5054 0.0000
# 3 50.4989 4.9632 131.2445 0.0000 16.1346 0.0000
# 4 0.0000 0.0000 0.0000 21.3224 0.0000 -10.6405
# 5 5.0088 7.5054 16.1346 0.0000 34.5891 0.0000
# 6 0.0000 0.0000 0.0000 -10.6405 0.0000 22.3480
#
#
#
# Elastic Compliance Matrix: (Units=1/GPa)
#
#
# Indices 1 2 3 4 5 6 
#
# 1 0.008456 -0.006473 -0.003215 0.000000 0.001680 0.000000
# 2 -0.006473 0.044210 0.001997 0.000000 -0.009587 0.000000
# 3 -0.003215 0.001997 0.009311 0.000000 -0.004311 0.000000
# 4 0.000000 0.000000 0.000000 0.061515 0.000000 0.029289
# 5 0.001680 -0.009587 -0.004311 0.000000 0.032759 0.000000
# 6 0.000000 0.000000 0.000000 0.029289 0.000000 0.058692
#
#
# Mechanical properties :
#
#
# Convention : Reuss Voigt Hill
#
# Bulk Modulus (GPa) = 21.46143 51.58513 36.52328
# Shear Modulus (GPa) = 20.33703 31.27917 25.80810
#
# Velocity S-wave (km/s) = 3.14378 3.89885 3.54149
# Velocity P-wave (km/s) = 4.85877 6.73329 5.87132
#
# Compressibility (1/GPa) = 0.04659522
#
# Stress axis : x y z
#
# Youngs Moduli (GPa) = 118.26120 22.61919 107.40034
#
# Poissons Ratio (x) = 0.14641 0.34532
# Poissons Ratio (y) = 0.76550 -0.21452
# Poissons Ratio (z) = 0.38024 -0.04518
#
# Static dielectric constant tensor:
#      x y z
#    x 1.884100 0.000000 -0.137120 
#    y 0.000000 1.715790 0.000000 
#    z -0.137120 0.000000 1.960800 
# 
# From -- ./inp_files/16189.got.cif
#   From: 2010.05.17/outbox.cif.g08.bks.cpg/sg15_9_cif.got.tgz:16189.got - 2010.06.03 18:47:42.
