data_PCOD9300245
_publ_section_title
;
Structure prediction by ZEFSAII (Michael W. Deem and Ramdas Pophale) SiO2 
 PCOD9300245
Probable space group: C 2/C
;
_chemical_formula_sum "Si O2"
_cell_formula_units_Z 32
_cell_length_a 4.953101
_cell_length_b 17.778904
_cell_length_c 13.747649
_cell_angle_alpha 90.000000
_cell_angle_beta 73.901093
_cell_angle_gamma 90.000000
_cell_volume 1163.152255
_symmetry_space_group_name_H-M "C 2/C"
_symmetry_group_IT_number 15
_symmetry_cell_setting 'monoclinic'
loop_
_space_group_symop_operation_xyz
x,y,z
-x,y,1/2-z
-x,-y,-z
x,-y,1/2+z
1/2+x,1/2+y,z
1/2-x,1/2+y,1/2-z
1/2-x,1/2-y,-z
1/2+x,1/2-y,1/2+z
loop_
_atom_site_type_symbol
_atom_site_label
_atom_site_fract_x
_atom_site_fract_y
_atom_site_fract_z
Si Si1 0.937875 0.689891 0.041806
Si Si2 0.500000 0.142081 0.250000
Si Si3 0.737475 0.052368 0.517658
Si Si4 0.561424 0.618962 0.641930
Si Si5 0.500000 0.530369 0.250000
O O1 0.011640 0.692248 0.149217
O O2 0.737402 0.617665 0.062554
O O3 0.284292 0.838169 0.048516
O O4 0.750000 0.750000 0.000000
O O5 0.237906 0.083542 0.272466
O O6 0.769716 0.100810 0.614352
O O7 0.500000 0.000000 0.500000
O O8 0.000000 0.000000 0.500000
O O9 0.500000 0.658981 0.750000
O O10 0.654852 0.535345 0.669747
#
# Coordination Sequence:
#
# PCOD9300245 Si02
#       5
#     8   4   8   8   4
#     4  12  30  56  87 127 188 238 298 377 463 556
#     4  12  28  52  87 131 178 240 308 370 462 535
#     4  12  24  48  86 125 171 225 297 365 434 531
#     4  10  26  48  84 131 177 232 296 370 463 533
#     4  10  26  46  89 135 174 230 300 388 440 535
#
# _framework density 27.511447
#
# number of rings (size 3 to 8) (size 9 to 14) (size 15 to 20)
#    0.750    0.000    2.500    3.000    7.000    2.000 
#    2.250    0.000    0.000    0.000    0.000    0.000 
#    0.000    0.000    0.000    0.000    0.000    0.000 
#
# Total GULP energy -89100.472740 kJ/mol
# GULP energy per Si atom -5568.779546 kJ/mol
# Density = 2.744883 g / cm^3
# Si number density = 27.511447 Si / 1000 Ang^3
#
#
#
# Elastic Constant Matrix: (Units=GPa)
#
#
# Indices 1 2 3 4 5 6 
#
# 1 198.4852 78.9694 105.6179 0.0000 14.5693 0.0000
# 2 78.9694 197.0181 88.5229 0.0000 13.5057 0.0000
# 3 105.6179 88.5229 286.3857 0.0000 -5.1812 0.0000
# 4 0.0000 0.0000 0.0000 43.3075 0.0000 11.3211
# 5 14.5693 13.5057 -5.1812 0.0000 68.2978 0.0000
# 6 0.0000 0.0000 0.0000 11.3211 0.0000 55.4917
#
#
#
# Elastic Compliance Matrix: (Units=1/GPa)
#
#
# Indices 1 2 3 4 5 6 
#
# 1 0.006915 -0.001774 -0.002025 0.000000 -0.001278 0.000000
# 2 -0.001774 0.006468 -0.001363 0.000000 -0.001004 0.000000
# 3 -0.002025 -0.001363 0.004679 0.000000 0.001056 0.000000
# 4 0.000000 0.000000 0.000000 0.024392 0.000000 -0.004976
# 5 -0.001278 -0.001004 0.001056 0.000000 0.015193 0.000000
# 6 0.000000 0.000000 0.000000 -0.004976 0.000000 0.019036
#
#
# Mechanical properties :
#
#
# Convention : Reuss Voigt Hill
#
# Bulk Modulus (GPa) = 129.23854 136.45660 132.84757
# Shear Modulus (GPa) = 55.81128 60.67133 58.24130
#
# Velocity S-wave (km/s) = 4.50895 4.70117 4.60606
# Velocity P-wave (km/s) = 8.61311 8.89807 8.75675
#
# Compressibility (1/GPa) = 0.00773763
#
# Stress axis : x y z
#
# Youngs Moduli (GPa) = 144.60273 154.60288 213.71713
#
# Poissons Ratio (x) = 0.27433 0.43279
# Poissons Ratio (y) = 0.25658 0.29132
# Poissons Ratio (z) = 0.29283 0.21074
#
# Static dielectric constant tensor:
#      x y z
#    x 2.638250 0.000000 -0.644860 
#    y 0.000000 2.206310 0.000000 
#    z -0.644860 0.000000 3.242660 
# 
# From -- ./inp_files/183919.got.cif
#   From: 2010.05.17/outbox.cif.g08.bks.cpg/sg15_92_cif.got.tgz:183919.got - 2010.06.03 18:47:42.
