data_PCOD9300025
_publ_section_title
;
Structure prediction by ZEFSAII (Michael W. Deem and Ramdas Pophale) SiO2 
 PCOD9300025
Probable space group: C 2/C
;
_chemical_formula_sum "Si O2"
_cell_formula_units_Z 52
_cell_length_a 26.643537
_cell_length_b 7.943918
_cell_length_c 17.104782
_cell_angle_alpha 90.000000
_cell_angle_beta 37.581646
_cell_angle_gamma 90.000000
_cell_volume 2207.987627
_symmetry_space_group_name_H-M "C 2/C"
_symmetry_group_IT_number 15
_symmetry_cell_setting 'monoclinic'
loop_
_space_group_symop_operation_xyz
x,y,z
-x,y,1/2-z
-x,-y,-z
x,-y,1/2+z
1/2+x,1/2+y,z
1/2-x,1/2+y,1/2-z
1/2-x,1/2-y,-z
1/2+x,1/2-y,1/2+z
loop_
_atom_site_type_symbol
_atom_site_label
_atom_site_fract_x
_atom_site_fract_y
_atom_site_fract_z
Si Si1 0.291177 0.008335 0.628828
Si Si2 0.142017 0.770277 0.831101
Si Si3 0.590228 0.060926 0.765095
Si Si4 0.922140 0.734105 0.988661
Si Si5 0.987132 0.095573 0.894583
Si Si6 0.846442 0.787142 0.251908
Si Si7 0.500000 0.128054 0.250000
O O1 0.335120 0.110878 0.643614
O O2 0.245358 0.140110 0.628569
O O3 0.213680 0.903320 0.756143
O O4 0.355247 0.868328 0.521529
O O5 0.138149 0.717115 0.744941
O O6 0.058049 0.846884 0.969655
O O7 0.638855 0.900683 0.737281
O O8 0.565623 0.994718 0.709936
O O9 0.498373 0.107851 0.910330
O O10 0.875064 0.779849 0.126416
O O11 0.956336 0.908984 0.911530
O O12 0.966885 0.241886 0.856699
O O13 0.084904 0.103025 0.787705
#
# Coordination Sequence:
#
# PCOD9300025 Si02
#       7
#     8   8   8   8   8   8   4
#     4  12  22  33  61 104 133 154 207 265 329 367
#     4  12  20  37  65  97 129 165 205 273 310 381
#     4  11  23  41  68  91 130 164 220 258 321 370
#     4  12  21  38  65  99 126 163 205 267 314 382
#     4  11  23  41  66  90 130 166 220 262 318 363
#     4  11  20  37  59  99 126 159 198 272 315 375
#     4  10  26  42  62  94 122 174 216 272 306 374
#
# _framework density 23.550856
#
# number of rings (size 3 to 8) (size 9 to 14) (size 15 to 20)
#    0.000    0.615    6.154    3.692    0.000    0.615 
#    0.000    0.000    0.000   40.615    0.000    0.000 
#    0.000    0.000    0.000    0.000    0.000    0.000 
#
# Total GULP energy -145099.613932 kJ/mol
# GULP energy per Si atom -5580.754382 kJ/mol
# Density = 2.349725 g / cm^3
# Si number density = 23.550856 Si / 1000 Ang^3
#
#
#
# Elastic Constant Matrix: (Units=GPa)
#
#
# Indices 1 2 3 4 5 6 
#
# 1 104.7761 54.0018 18.3322 -0.0003 -14.3405 -0.0051
# 2 54.0018 136.4401 21.4086 0.0003 -4.1230 -0.0771
# 3 18.3322 21.4086 12.8493 0.0293 -3.0401 -0.0859
# 4 -0.0003 0.0003 0.0293 34.4407 -0.0109 -15.3475
# 5 -14.3405 -4.1230 -3.0401 -0.0109 40.5579 0.0040
# 6 -0.0051 -0.0771 -0.0859 -15.3475 0.0040 98.1202
#
#
#
# Elastic Compliance Matrix: (Units=1/GPa)
#
#
# Indices 1 2 3 4 5 6 
#
# 1 0.014177 -0.003334 -0.013810 0.000007 0.003639 -0.000013
# 2 -0.003334 0.010710 -0.013345 0.000010 -0.001090 -0.000002
# 3 -0.013810 -0.013345 0.120424 -0.000064 0.002787 0.000084
# 4 0.000007 0.000010 -0.000064 0.031211 0.000007 0.004882
# 5 0.003639 -0.001090 0.002787 0.000007 0.026041 0.000002
# 6 -0.000013 -0.000002 0.000084 0.004882 0.000002 0.010955
#
#
# Mechanical properties :
#
#
# Convention : Reuss Voigt Hill
#
# Bulk Modulus (GPa) = 11.85805 49.06118 30.45961
# Shear Modulus (GPa) = 16.52308 45.31198 30.91753
#
# Velocity S-wave (km/s) = 2.65163 4.39111 3.62719
# Velocity P-wave (km/s) = 3.79748 6.82542 5.52301
#
# Compressibility (1/GPa) = 0.08433092
#
# Stress axis : x y z
#
# Youngs Moduli (GPa) = 70.53707 93.37169 8.30402
#
# Poissons Ratio (x) = 0.31132 0.11468
# Poissons Ratio (y) = 0.23518 0.11082
# Poissons Ratio (z) = 0.97414 1.24606
#
# Static dielectric constant tensor:
#      x y z
#    x 1.953520 0.000000 0.011360 
#    y 0.000000 1.961150 0.000010 
#    z 0.011360 0.000010 1.894620 
# 
# From -- ./inp_files/221852.got.cif
#   From: 2010.05.17/outbox.cif.g08.bks.cpg/sg15_111_cif.got.tgz:221852.got - 2010.06.03 18:47:42.
