data_PCOD9300265
_publ_section_title
;
Structure prediction by ZEFSAII (Michael W. Deem and Ramdas Pophale) SiO2 
 PCOD9300265
Probable space group: C 2/C
;
_chemical_formula_sum "Si O2"
_cell_formula_units_Z 40
_cell_length_a 23.693613
_cell_length_b 5.011769
_cell_length_c 20.962842
_cell_angle_alpha 90.000000
_cell_angle_beta 143.041198
_cell_angle_gamma 90.000000
_cell_volume 1496.651924
_symmetry_space_group_name_H-M "C 2/C"
_symmetry_group_IT_number 15
_symmetry_cell_setting 'monoclinic'
loop_
_space_group_symop_operation_xyz
x,y,z
-x,y,1/2-z
-x,-y,-z
x,-y,1/2+z
1/2+x,1/2+y,z
1/2-x,1/2+y,1/2-z
1/2-x,1/2-y,-z
1/2+x,1/2-y,1/2+z
loop_
_atom_site_type_symbol
_atom_site_label
_atom_site_fract_x
_atom_site_fract_y
_atom_site_fract_z
Si Si1 0.468325 0.185917 0.530608
Si Si2 0.021864 0.655006 0.343473
Si Si3 0.775100 0.798580 0.309798
Si Si4 0.821314 0.004622 0.065170
Si Si5 0.876906 0.991331 0.753435
O O1 0.380683 0.351853 0.425630
O O2 0.554285 0.357237 0.633888
O O3 0.500000 0.000000 0.500000
O O4 0.433682 0.036993 0.563779
O O5 0.000000 0.577394 0.250000
O O6 0.094357 0.904841 0.404792
O O7 0.920952 0.714390 0.285633
O O8 0.771266 0.582413 0.248445
O O9 0.722842 0.619676 0.315182
O O10 0.880021 0.074823 0.181886
O O11 0.750000 0.250000 0.000000
O O12 0.750000 0.750000 0.000000
#
# Coordination Sequence:
#
# PCOD9300265 Si02
#       5
#     8   8   8   8   8
#     4  12  26  49  81 113 165 217 272 344 422 495
#     4  10  26  47  76 113 160 211 268 339 408 495
#     4  12  28  48  75 112 156 206 266 331 404 486
#     4  11  27  49  78 115 154 209 266 333 403 485
#     4  11  27  46  76 112 158 206 270 327 410 493
#
# _framework density 26.726319
#
# number of rings (size 3 to 8) (size 9 to 14) (size 15 to 20)
#    0.000    0.800    2.000    2.400   14.000    2.400 
#    0.000    0.000    0.000    0.000    0.000    0.000 
#    0.000    0.000    0.000    0.000    0.000    0.000 
#
# Total GULP energy -111636.228055 kJ/mol
# GULP energy per Si atom -5581.811403 kJ/mol
# Density = 2.666549 g / cm^3
# Si number density = 26.726319 Si / 1000 Ang^3
#
#
#
# Elastic Constant Matrix: (Units=GPa)
#
#
# Indices 1 2 3 4 5 6 
#
# 1 127.0146 28.1334 21.4202 0.0006 -20.2749 0.0018
# 2 28.1334 111.2431 36.3236 0.0012 -25.1254 0.0020
# 3 21.4202 36.3236 178.6408 -0.0002 -12.7352 0.0000
# 4 0.0006 0.0012 -0.0002 20.6347 0.0000 -2.4744
# 5 -20.2749 -25.1254 -12.7352 0.0000 46.8580 0.0002
# 6 0.0018 0.0020 0.0000 -2.4744 0.0002 50.1571
#
#
#
# Elastic Compliance Matrix: (Units=1/GPa)
#
#
# Indices 1 2 3 4 5 6 
#
# 1 0.008733 -0.001372 -0.000562 0.000000 0.002890 0.000000
# 2 -0.001372 0.010991 -0.001726 -0.000001 0.004831 0.000000
# 3 -0.000562 -0.001726 0.006050 0.000000 0.000476 0.000000
# 4 0.000000 -0.000001 0.000000 0.048750 0.000000 0.002405
# 5 0.002890 0.004831 0.000476 0.000000 0.025311 0.000000
# 6 0.000000 0.000000 0.000000 0.002405 0.000000 0.020056
#
#
# Mechanical properties :
#
#
# Convention : Reuss Voigt Hill
#
# Bulk Modulus (GPa) = 54.19004 65.40589 59.79796
# Shear Modulus (GPa) = 37.49151 45.59805 41.54478
#
# Velocity S-wave (km/s) = 3.74945 4.13499 3.94693
# Velocity P-wave (km/s) = 6.25016 6.87918 6.57220
#
# Compressibility (1/GPa) = 0.01845357
#
# Stress axis : x y z
#
# Youngs Moduli (GPa) = 114.50540 90.98393 165.28738
#
# Poissons Ratio (x) = 0.12486 0.09291
# Poissons Ratio (y) = 0.15714 0.28527
# Poissons Ratio (z) = 0.06436 0.15703
#
# Static dielectric constant tensor:
#      x y z
#    x 2.169880 0.000000 -0.005100 
#    y 0.000000 2.223970 0.000010 
#    z -0.005100 0.000010 1.977410 
# 
# From -- ./inp_files/254524.got.cif
#   From: 2010.05.17/outbox.cif.g08.bks.cpg/sg15_128_cif.got.tgz:254524.got - 2010.06.03 18:47:42.
