data_PCOD9300556
_publ_section_title
;
Structure prediction by ZEFSAII (Michael W. Deem and Ramdas Pophale) SiO2 
 PCOD9300556
Probable space group: C 2/C
;
_chemical_formula_sum "Si O2"
_cell_formula_units_Z 64
_cell_length_a 30.114771
_cell_length_b 12.951800
_cell_length_c 9.666516
_cell_angle_alpha 90.000000
_cell_angle_beta 85.524941
_cell_angle_gamma 90.000000
_cell_volume 3758.838384
_symmetry_space_group_name_H-M "C 2/C"
_symmetry_group_IT_number 15
_symmetry_cell_setting 'monoclinic'
loop_
_space_group_symop_operation_xyz
x,y,z
-x,y,1/2-z
-x,-y,-z
x,-y,1/2+z
1/2+x,1/2+y,z
1/2-x,1/2+y,1/2-z
1/2-x,1/2-y,-z
1/2+x,1/2-y,1/2+z
loop_
_atom_site_type_symbol
_atom_site_label
_atom_site_fract_x
_atom_site_fract_y
_atom_site_fract_z
Si Si1 0.726209 0.899470 0.788961
Si Si2 0.313869 0.681773 0.729555
Si Si3 0.367060 0.620697 0.970496
Si Si4 0.476604 0.622322 0.382899
Si Si5 0.778047 0.395895 0.376558
Si Si6 0.323741 0.690013 0.252333
Si Si7 0.036390 0.111803 0.635407
Si Si8 0.618657 0.618311 0.007833
O O1 0.700194 0.799181 0.740285
O O2 0.778491 0.876538 0.749349
O O3 0.711413 0.000044 0.709049
O O4 0.719924 0.906291 0.957406
O O5 0.328291 0.623112 0.864907
O O6 0.272383 0.632721 0.657162
O O7 0.355616 0.676366 0.618365
O O8 0.413888 0.655152 0.889592
O O9 0.377446 0.504645 0.021798
O O10 0.349855 0.689309 0.101444
O O11 0.500000 0.679369 0.250000
O O12 0.513747 0.612044 0.490799
O O13 0.460275 0.510293 0.328015
O O14 0.431355 0.659485 0.463677
O O15 0.808109 0.300861 0.315123
O O16 0.355691 0.638129 0.356294
O O17 0.000000 0.157548 0.750000
#
# Coordination Sequence:
#
# PCOD9300556 Si02
#       8
#     8   8   8   8   8   8   8   8
#     4  11  23  39  57  74 105 140 173 219 270 304
#     4  11  22  36  52  78 106 137 183 214 256 308
#     4  11  22  30  53  80 106 147 179 211 252 311
#     4   9  17  27  47  68 100 140 174 205 252 308
#     4  11  23  39  57  74 105 140 172 221 267 305
#     4  11  22  36  52  78 110 133 183 222 247 309
#     4   9  17  31  43  70 106 138 174 208 249 302
#     4  11  18  34  51  74 108 147 175 214 258 302
#
# _framework density 17.026537000000001
#
# number of rings (size 3 to 8) (size 9 to 14) (size 15 to 20)
#    0.000    1.500    2.500    4.500    3.500    5.000 
#    0.000    0.000    0.000    0.000    0.000    0.000 
#    0.000   20.000    0.000    0.000    0.000    0.000 
#
# Total GULP energy -178478.978591 kJ/mol
# GULP energy per Si atom -5577.468081 kJ/mol
# Density = 1.698778 g / cm^3
# Si number density = 17.026537 Si / 1000 Ang^3
#
#
#
# Elastic Constant Matrix: (Units=GPa)
#
#
# Indices 1 2 3 4 5 6 
#
# 1 73.8139 10.7092 11.8761 0.0000 -9.2672 0.0000
# 2 10.7092 46.8705 -2.5749 0.0000 0.9931 0.0000
# 3 11.8761 -2.5749 53.5046 0.0000 -7.1069 0.0000
# 4 0.0000 0.0000 0.0000 16.8586 0.0000 0.2732
# 5 -9.2672 0.9931 -7.1069 0.0000 23.7159 0.0000
# 6 0.0000 0.0000 0.0000 0.2732 0.0000 7.4104
#
#
#
# Elastic Compliance Matrix: (Units=1/GPa)
#
#
# Indices 1 2 3 4 5 6 
#
# 1 0.015209 -0.003743 -0.002860 0.000000 0.005243 0.000000
# 2 -0.003743 0.022322 0.001652 0.000000 -0.001902 0.000000
# 3 -0.002860 0.001652 0.020044 0.000000 0.004820 0.000000
# 4 0.000000 0.000000 0.000000 0.059352 0.000000 -0.002188
# 5 0.005243 -0.001902 0.004820 0.000000 0.045739 0.000000
# 6 0.000000 0.000000 0.000000 -0.002188 0.000000 0.135027
#
#
# Mechanical properties :
#
#
# Convention : Reuss Voigt Hill
#
# Bulk Modulus (GPa) = 20.97559 23.80108 22.38834
# Shear Modulus (GPa) = 15.45666 19.87554 17.66610
#
# Velocity S-wave (km/s) = 3.01624 3.42032 3.22462
# Velocity P-wave (km/s) = 4.94736 5.44126 5.20018
#
# Compressibility (1/GPa) = 0.04767446
#
# Stress axis : x y z
#
# Youngs Moduli (GPa) = 65.75070 44.79944 49.88901
#
# Poissons Ratio (x) = 0.16769 0.14266
# Poissons Ratio (y) = 0.24612 -0.08244
# Poissons Ratio (z) = 0.18802 -0.07403
#
# Static dielectric constant tensor:
#      x y z
#    x 1.606400 0.000000 -0.014130 
#    y 0.000000 1.570040 0.000000 
#    z -0.014130 0.000000 1.616690 
# 
# From -- ./inp_files/69391.got.cif
#   From: 2010.05.17/outbox.cif.g08.bks.cpg/sg15_35_cif.got.tgz:69391.got - 2010.06.03 18:47:42.
