data_PCOD9300289
_publ_section_title
;
Structure prediction by ZEFSAII (Michael W. Deem and Ramdas Pophale) SiO2 
 PCOD9300289
Probable space group: C 2/C
;
_chemical_formula_sum "Si O2"
_cell_formula_units_Z 52
_cell_length_a 13.801373
_cell_length_b 5.490585
_cell_length_c 27.121878
_cell_angle_alpha 90.000000
_cell_angle_beta 101.517947
_cell_angle_gamma 90.000000
_cell_volume 2013.843318
_symmetry_space_group_name_H-M "C 2/C"
_symmetry_group_IT_number 15
_symmetry_cell_setting 'monoclinic'
loop_
_space_group_symop_operation_xyz
x,y,z
-x,y,1/2-z
-x,-y,-z
x,-y,1/2+z
1/2+x,1/2+y,z
1/2-x,1/2+y,1/2-z
1/2-x,1/2-y,-z
1/2+x,1/2-y,1/2+z
loop_
_atom_site_type_symbol
_atom_site_label
_atom_site_fract_x
_atom_site_fract_y
_atom_site_fract_z
Si Si1 0.692688 0.113851 0.914452
Si Si2 0.075644 0.002249 0.940906
Si Si3 0.699446 0.221952 0.725981
Si Si4 0.967507 0.294899 0.649954
Si Si5 0.125625 0.228756 0.040663
Si Si6 0.827931 0.438231 0.870101
Si Si7 0.000000 0.467693 0.250000
O O1 0.660221 0.300697 0.953756
O O2 0.741744 0.253368 0.873233
O O3 0.590524 0.003641 0.885021
O O4 0.773816 0.918139 0.939145
O O5 0.072410 0.062702 0.882713
O O6 0.102910 0.223291 0.980297
O O7 0.968218 0.910529 0.945650
O O8 0.742978 0.484471 0.745509
O O9 0.701215 0.166552 0.667290
O O10 0.586048 0.191990 0.733493
O O11 0.083139 0.311030 0.649711
O O12 0.952269 0.351840 0.704934
O O13 0.135063 0.475394 0.072318
#
# Coordination Sequence:
#
# PCOD9300289 Si02
#       7
#     8   8   8   8   8   8   4
#     4  12  24  43  73  99 139 188 231 295 360 436
#     4  11  25  44  72 105 139 187 235 300 362 437
#     4  11  27  48  76 110 147 197 250 307 371 441
#     4  11  24  47  69 100 140 182 242 289 365 430
#     4  11  25  45  70 103 145 182 239 296 362 438
#     4  11  25  44  71 103 143 183 237 300 356 436
#     4  10  26  48  70 106 146 194 240 318 364 442
#
# _framework density 25.821273000000001
#
# number of rings (size 3 to 8) (size 9 to 14) (size 15 to 20)
#    0.000    0.923    3.077    2.308    6.462    4.923 
#    0.000    0.000    0.000    0.000    0.000    0.000 
#    0.000    0.000    0.000    0.000    0.000    0.000 
#
# Total GULP energy -145650.098345 kJ/mol
# GULP energy per Si atom -5601.926859 kJ/mol
# Density = 2.576250 g / cm^3
# Si number density = 25.821273 Si / 1000 Ang^3
#
#
#
# Elastic Constant Matrix: (Units=GPa)
#
#
# Indices 1 2 3 4 5 6 
#
# 1 89.4780 8.9939 -0.1513 0.0000 -6.1691 0.0000
# 2 8.9939 54.3049 5.1651 0.0000 0.4677 0.0000
# 3 -0.1513 5.1651 101.2826 0.0000 2.2377 0.0000
# 4 0.0000 0.0000 0.0000 30.8868 0.0000 -1.5594
# 5 -6.1691 0.4677 2.2377 0.0000 21.9377 0.0000
# 6 0.0000 0.0000 0.0000 -1.5594 0.0000 14.8664
#
#
#
# Elastic Compliance Matrix: (Units=1/GPa)
#
#
# Indices 1 2 3 4 5 6 
#
# 1 0.011600 -0.001954 0.000044 0.000000 0.003299 0.000000
# 2 -0.001954 0.018835 -0.000945 0.000000 -0.000855 0.000000
# 3 0.000044 -0.000945 0.009943 0.000000 -0.000982 0.000000
# 4 0.000000 0.000000 0.000000 0.032549 0.000000 0.003414
# 5 0.003299 -0.000855 -0.000982 0.000000 0.046630 0.000000
# 6 0.000000 0.000000 0.000000 0.003414 0.000000 0.067624
#
#
# Mechanical properties :
#
#
# Convention : Reuss Voigt Hill
#
# Bulk Modulus (GPa) = 28.84344 30.34233 29.59288
# Shear Modulus (GPa) = 24.45634 28.94202 26.69918
#
# Velocity S-wave (km/s) = 3.08090 3.35156 3.21907
# Velocity P-wave (km/s) = 4.88371 5.17239 5.03012
#
# Compressibility (1/GPa) = 0.03466993
#
# Stress axis : x y z
#
# Youngs Moduli (GPa) = 86.20795 53.09169 100.57028
#
# Poissons Ratio (x) = 0.10373 -0.00443
# Poissons Ratio (y) = 0.16843 0.09500
# Poissons Ratio (z) = -0.00380 0.05015
#
# Static dielectric constant tensor:
#      x y z
#    x 1.956370 0.000000 -0.001870 
#    y 0.000000 2.082360 0.000000 
#    z -0.001870 0.000000 2.017450 
# 
# From -- ./inp_files/312400.got.cif
#   From: 2010.05.17/outbox.cif.g08.bks.cpg/sg15_157_cif.got.tgz:312400.got - 2010.06.03 18:47:42.
