data_PCOD9300093
_publ_section_title
;
Structure prediction by ZEFSAII (Michael W. Deem and Ramdas Pophale) SiO2 
 PCOD9300093
Probable space group: C 2/C
;
_chemical_formula_sum "Si O2"
_cell_formula_units_Z 44
_cell_length_a 16.070320
_cell_length_b 7.637223
_cell_length_c 16.510426
_cell_angle_alpha 90.000000
_cell_angle_beta 103.860978
_cell_angle_gamma 90.000000
_cell_volume 1967.359699
_symmetry_space_group_name_H-M "C 2/C"
_symmetry_group_IT_number 15
_symmetry_cell_setting 'monoclinic'
loop_
_space_group_symop_operation_xyz
x,y,z
-x,y,1/2-z
-x,-y,-z
x,-y,1/2+z
1/2+x,1/2+y,z
1/2-x,1/2+y,1/2-z
1/2-x,1/2-y,-z
1/2+x,1/2-y,1/2+z
loop_
_atom_site_type_symbol
_atom_site_label
_atom_site_fract_x
_atom_site_fract_y
_atom_site_fract_z
Si Si1 0.000000 0.342303 0.250000
Si Si2 0.330859 0.880868 0.495247
Si Si3 0.149088 0.526652 0.182433
Si Si4 0.297319 0.612793 0.830609
Si Si5 0.353367 0.240694 0.598411
Si Si6 0.902780 0.044534 0.491436
O O1 0.066807 0.446791 0.208802
O O2 0.063629 0.241985 0.325470
O O3 0.250000 0.750000 0.500000
O O4 0.338066 0.946067 0.404200
O O5 0.404556 0.739358 0.525889
O O6 0.347974 0.052340 0.552609
O O7 0.235365 0.477434 0.251993
O O8 0.139232 0.736724 0.184356
O O9 0.232367 0.730775 0.869332
O O10 0.348211 0.471891 0.895781
O O11 0.357354 0.402256 0.538411
O O12 0.000000 0.000000 0.500000
#
# Coordination Sequence:
#
# PCOD9300093 Si02
#       6
#     4   8   8   8   8   8
#     4  10  26  44  68  96 140 186 220 286 350 396
#     4  12  24  43  75 104 134 184 232 280 347 416
#     4  11  24  43  70  99 140 179 229 284 341 408
#     4  11  23  44  67  98 137 179 226 282 337 410
#     4  11  24  48  67  99 140 179 226 284 342 405
#     4  12  25  41  68 105 134 177 229 279 343 410
#
# _framework density 22.364999999999998
#
# number of rings (size 3 to 8) (size 9 to 14) (size 15 to 20)
#    0.000    0.727    3.636    3.818    5.091    2.909 
#    0.000    0.909    0.000    0.000    0.000    0.000 
#    0.000    0.000    0.000    0.000    0.000    0.000 
#
# Total GULP energy -122909.025228 kJ/mol
# GULP energy per Si atom -5586.773874 kJ/mol
# Density = 2.231410 g / cm^3
# Si number density = 22.365000 Si / 1000 Ang^3
#
#
#
# Elastic Constant Matrix: (Units=GPa)
#
#
# Indices 1 2 3 4 5 6 
#
# 1 52.9990 -13.0931 29.3570 0.0000 11.0228 0.0000
# 2 -13.0931 120.8593 20.6338 0.0000 -4.2271 0.0000
# 3 29.3570 20.6338 79.7625 0.0000 6.0730 0.0000
# 4 0.0000 0.0000 0.0000 20.9986 0.0000 -0.4822
# 5 11.0228 -4.2271 6.0730 0.0000 35.2164 0.0000
# 6 0.0000 0.0000 0.0000 -0.4822 0.0000 24.1949
#
#
#
# Elastic Compliance Matrix: (Units=1/GPa)
#
#
# Indices 1 2 3 4 5 6 
#
# 1 0.027213 0.004566 -0.010731 0.000000 -0.006119 0.000000
# 2 0.004566 0.009496 -0.004170 0.000000 0.000430 0.000000
# 3 -0.010731 -0.004170 0.017579 0.000000 -0.000173 0.000000
# 4 0.000000 0.000000 0.000000 0.047644 0.000000 0.000950
# 5 -0.006119 0.000430 -0.000173 0.000000 0.030393 0.000000
# 6 0.000000 0.000000 0.000000 0.000950 0.000000 0.041350
#
#
# Mechanical properties :
#
#
# Convention : Reuss Voigt Hill
#
# Bulk Modulus (GPa) = 29.74601 36.37959 33.06280
# Shear Modulus (GPa) = 24.32499 30.53019 27.42759
#
# Velocity S-wave (km/s) = 3.30151 3.69872 3.50574
# Velocity P-wave (km/s) = 5.27849 5.87727 5.58591
#
# Compressibility (1/GPa) = 0.03361795
#
# Stress axis : x y z
#
# Youngs Moduli (GPa) = 36.74680 105.31118 56.88680
#
# Poissons Ratio (x) = -0.48087 0.61047
# Poissons Ratio (y) = -0.16779 0.23720
# Poissons Ratio (z) = 0.39434 0.43912
#
# Static dielectric constant tensor:
#      x y z
#    x 1.891710 0.000000 -0.085770 
#    y 0.000000 1.616830 0.000000 
#    z -0.085770 0.000000 1.952390 
# 
# From -- ./inp_files/202732.got.cif
#   From: 2010.05.17/outbox.cif.g08.bks.cpg/sg15_102_cif.got.tgz:202732.got - 2010.06.03 18:47:42.
