data_PCOD9300475
_publ_section_title
;
Structure prediction by ZEFSAII (Michael W. Deem and Ramdas Pophale) SiO2 
 PCOD9300475
Probable space group: C 2/C
;
_chemical_formula_sum "Si O2"
_cell_formula_units_Z 52
_cell_length_a 8.648391
_cell_length_b 11.287475
_cell_length_c 26.961933
_cell_angle_alpha 90.000000
_cell_angle_beta 118.990853
_cell_angle_gamma 90.000000
_cell_volume 2302.188214
_symmetry_space_group_name_H-M "C 2/C"
_symmetry_group_IT_number 15
_symmetry_cell_setting 'monoclinic'
loop_
_space_group_symop_operation_xyz
x,y,z
-x,y,1/2-z
-x,-y,-z
x,-y,1/2+z
1/2+x,1/2+y,z
1/2-x,1/2+y,1/2-z
1/2-x,1/2-y,-z
1/2+x,1/2-y,1/2+z
loop_
_atom_site_type_symbol
_atom_site_label
_atom_site_fract_x
_atom_site_fract_y
_atom_site_fract_z
Si Si1 0.500000 0.516657 0.250000
Si Si2 0.188805 0.573946 0.866849
Si Si3 0.288700 0.615561 0.464270
Si Si4 0.949449 0.264843 0.946971
Si Si5 0.640820 0.406274 0.671560
Si Si6 0.305427 0.860949 0.347637
Si Si7 0.229605 0.995065 0.931716
O O1 0.407719 0.595254 0.278048
O O2 0.646391 0.431760 0.297141
O O3 0.263684 0.476402 0.916927
O O4 0.308718 0.689516 0.894055
O O5 0.221107 0.511116 0.819363
O O6 0.989747 0.601516 0.851006
O O7 0.470246 0.688924 0.495106
O O8 0.286219 0.546910 0.516195
O O9 0.118681 0.701219 0.439905
O O10 0.862123 0.384987 0.951524
O O11 0.706320 0.280218 0.661331
O O12 0.458655 0.446429 0.616585
O O13 0.299226 0.907573 0.403238
#
# Coordination Sequence:
#
# PCOD9300475 Si02
#       7
#     4   8   8   8   8   8   8
#     4  10  28  52  68 100 122 166 220 282 358 400
#     4  12  25  41  67 105 131 180 225 265 325 391
#     4  11  25  38  61 102 147 184 221 263 309 382
#     4  11  23  39  62  97 144 186 220 264 306 384
#     4  11  26  46  73  96 131 168 223 280 336 399
#     4  11  26  46  72  98 131 170 220 278 338 399
#     4  11  23  43  65 100 138 187 218 261 325 387
#
# _framework density 22.587205000000001
#
# number of rings (size 3 to 8) (size 9 to 14) (size 15 to 20)
#    0.000    0.923    4.615    0.923    4.308    3.692 
#    0.000    0.000    0.000    0.000    0.000    0.000 
#    0.000    0.000    0.000    0.000    0.000    0.000 
#
# Total GULP energy -145651.366617 kJ/mol
# GULP energy per Si atom -5601.975639 kJ/mol
# Density = 2.253580 g / cm^3
# Si number density = 22.587205 Si / 1000 Ang^3
#
#
#
# Elastic Constant Matrix: (Units=GPa)
#
#
# Indices 1 2 3 4 5 6 
#
# 1 63.0575 24.6635 23.9104 0.0000 6.3076 0.0000
# 2 24.6635 127.2975 20.7305 0.0000 -4.5756 0.0000
# 3 23.9104 20.7305 53.2870 0.0000 -11.1139 0.0000
# 4 0.0000 0.0000 0.0000 18.6313 0.0000 3.0301
# 5 6.3076 -4.5756 -11.1139 0.0000 37.6703 0.0000
# 6 0.0000 0.0000 0.0000 3.0301 0.0000 45.3047
#
#
#
# Elastic Compliance Matrix: (Units=1/GPa)
#
#
# Indices 1 2 3 4 5 6 
#
# 1 0.021404 -0.002772 -0.009956 0.000000 -0.006858 0.000000
# 2 -0.002772 0.008746 -0.001961 0.000000 0.000948 0.000000
# 3 -0.009956 -0.001961 0.025888 0.000000 0.009067 0.000000
# 4 0.000000 0.000000 0.000000 0.054263 0.000000 -0.003629
# 5 -0.006858 0.000948 0.009067 0.000000 0.030484 0.000000
# 6 0.000000 0.000000 0.000000 -0.003629 0.000000 0.022315
#
#
# Mechanical properties :
#
#
# Convention : Reuss Voigt Hill
#
# Bulk Modulus (GPa) = 37.51028 42.47231 39.99130
# Shear Modulus (GPa) = 24.83045 31.94378 28.38711
#
# Velocity S-wave (km/s) = 3.31919 3.76472 3.54895
# Velocity P-wave (km/s) = 5.59752 6.14345 5.87683
#
# Compressibility (1/GPa) = 0.02665936
#
# Stress axis : x y z
#
# Youngs Moduli (GPa) = 46.72034 114.33646 38.62863
#
# Poissons Ratio (x) = 0.31695 0.38459
# Poissons Ratio (y) = 0.12951 0.07575
# Poissons Ratio (z) = 0.46515 0.22421
#
# Static dielectric constant tensor:
#      x y z
#    x 1.842480 0.000000 -0.008310 
#    y 0.000000 1.839080 0.000000 
#    z -0.008310 0.000000 1.836320 
# 
# From -- ./inp_files/307286.got.cif
#   From: 2010.05.17/outbox.cif.g08.bks.cpg/sg15_154_cif.got.tgz:307286.got - 2010.06.03 18:47:42.
