data_PCOD9300712
_publ_section_title
;
Structure prediction by ZEFSAII (Michael W. Deem and Ramdas Pophale) SiO2 
 PCOD9300712
Probable space group: C 2/C
;
_chemical_formula_sum "Si O2"
_cell_formula_units_Z 40
_cell_length_a 22.104407
_cell_length_b 10.576389
_cell_length_c 12.334809
_cell_angle_alpha 90.000000
_cell_angle_beta 37.065402
_cell_angle_gamma 90.000000
_cell_volume 1738.076249
_symmetry_space_group_name_H-M "C 2/C"
_symmetry_group_IT_number 15
_symmetry_cell_setting 'monoclinic'
loop_
_space_group_symop_operation_xyz
x,y,z
-x,y,1/2-z
-x,-y,-z
x,-y,1/2+z
1/2+x,1/2+y,z
1/2-x,1/2+y,1/2-z
1/2-x,1/2-y,-z
1/2+x,1/2-y,1/2+z
loop_
_atom_site_type_symbol
_atom_site_label
_atom_site_fract_x
_atom_site_fract_y
_atom_site_fract_z
Si Si1 0.274548 0.360342 0.380488
Si Si2 0.020989 0.670935 0.924863
Si Si3 0.760584 0.304564 0.315793
Si Si4 0.564829 0.073398 0.248567
Si Si5 0.362658 0.602162 0.305620
O O1 0.250000 0.250000 0.500000
O O2 0.273963 0.315093 0.257547
O O3 0.174948 0.445279 0.545314
O O4 0.365981 0.453509 0.279611
O O5 0.128538 0.635071 0.827822
O O6 0.011980 0.560279 0.850734
O O7 0.039093 0.809982 0.851160
O O8 0.939818 0.654158 0.134313
O O9 0.684289 0.367276 0.509880
O O10 0.787293 0.165312 0.323614
O O11 0.500000 0.142716 0.250000
#
# Coordination Sequence:
#
# PCOD9300712 Si02
#       5
#     8   8   8   8   8
#     4  12  24  35  61  94 118 161 215 253 306 379
#     4   9  19  36  58  82 117 158 191 257 312 353
#     4   9  18  36  59  80 119 161 190 257 311 359
#     4  11  19  36  59  90 121 154 211 260 301 367
#     4   9  19  39  56  83 122 157 195 254 317 356
#
# _framework density 23.013950000000001
#
# number of rings (size 3 to 8) (size 9 to 14) (size 15 to 20)
#    1.200    0.800    4.000    0.000    2.800    0.000 
#    7.200    1.000    0.000    1.200    0.000    0.000 
#    0.000    0.000    0.000    0.000    0.000    0.000 
#
# Total GULP energy -111495.022276 kJ/mol
# GULP energy per Si atom -5574.751114 kJ/mol
# Density = 2.296157 g / cm^3
# Si number density = 23.013950 Si / 1000 Ang^3
#
#
#
# Elastic Constant Matrix: (Units=GPa)
#
#
# Indices 1 2 3 4 5 6 
#
# 1 40.6553 14.5758 36.6279 0.0000 26.7123 0.0000
# 2 14.5758 113.7533 39.1621 0.0000 24.4493 0.0000
# 3 36.6279 39.1621 134.2050 0.0000 34.7629 0.0000
# 4 0.0000 0.0000 0.0000 19.0039 0.0000 -10.9552
# 5 26.7123 24.4493 34.7629 0.0000 44.0463 0.0000
# 6 0.0000 0.0000 0.0000 -10.9552 0.0000 18.4311
#
#
#
# Elastic Compliance Matrix: (Units=1/GPa)
#
#
# Indices 1 2 3 4 5 6 
#
# 1 0.045270 0.001475 -0.006866 0.000000 -0.022855 0.000000
# 2 0.001475 0.010412 -0.002152 0.000000 -0.004976 0.000000
# 3 -0.006866 -0.002152 0.010766 0.000000 -0.003139 0.000000
# 4 0.000000 0.000000 0.000000 0.080049 0.000000 0.047580
# 5 -0.022855 -0.004976 -0.003139 0.000000 0.041803 0.000000
# 6 0.000000 0.000000 0.000000 0.047580 0.000000 0.082537
#
#
# Mechanical properties :
#
#
# Convention : Reuss Voigt Hill
#
# Bulk Modulus (GPa) = 19.46921 52.14947 35.80934
# Shear Modulus (GPa) = 16.49923 29.51279 23.00601
#
# Velocity S-wave (km/s) = 2.68045 3.58493 3.16516
# Velocity P-wave (km/s) = 4.24945 6.31227 5.38064
#
# Compressibility (1/GPa) = 0.05136315
#
# Stress axis : x y z
#
# Youngs Moduli (GPa) = 22.08954 96.04018 92.88387
#
# Poissons Ratio (x) = -0.14168 0.63773
# Poissons Ratio (y) = -0.03259 0.19990
# Poissons Ratio (z) = 0.15166 0.20669
#
# Static dielectric constant tensor:
#      x y z
#    x 1.831840 0.000000 -0.030510 
#    y 0.000000 1.934300 0.000000 
#    z -0.030510 0.000000 1.862700 
# 
# From -- ./inp_files/122350.got.cif
#   From: 2010.05.17/outbox.cif.g08.bks.cpg/sg15_62_cif.got.tgz:122350.got - 2010.06.03 18:47:42.
