data_PCOD9300431
_publ_section_title
;
Structure prediction by ZEFSAII (Michael W. Deem and Ramdas Pophale) SiO2 
 PCOD9300431
Probable space group: C 2/C
;
_chemical_formula_sum "Si O2"
_cell_formula_units_Z 56
_cell_length_a 14.491773
_cell_length_b 13.678592
_cell_length_c 12.784016
_cell_angle_alpha 90.000000
_cell_angle_beta 93.831196
_cell_angle_gamma 90.000000
_cell_volume 2528.474582
_symmetry_space_group_name_H-M "C 2/C"
_symmetry_group_IT_number 15
_symmetry_cell_setting 'monoclinic'
loop_
_space_group_symop_operation_xyz
x,y,z
-x,y,1/2-z
-x,-y,-z
x,-y,1/2+z
1/2+x,1/2+y,z
1/2-x,1/2+y,1/2-z
1/2-x,1/2-y,-z
1/2+x,1/2-y,1/2+z
loop_
_atom_site_type_symbol
_atom_site_label
_atom_site_fract_x
_atom_site_fract_y
_atom_site_fract_z
Si Si1 0.354178 0.981172 0.216044
Si Si2 0.335931 0.588386 0.326099
Si Si3 0.159575 0.186496 0.958408
Si Si4 0.967016 0.544425 0.391187
Si Si5 0.555758 0.257802 0.045751
Si Si6 0.104157 0.883270 0.233071
Si Si7 0.099850 0.267369 0.310028
O O1 0.266278 0.047185 0.196071
O O2 0.387608 0.976422 0.337713
O O3 0.439193 0.038027 0.168860
O O4 0.346782 0.870417 0.177223
O O5 0.349263 0.605825 0.450570
O O6 0.395524 0.499128 0.285221
O O7 0.354362 0.686433 0.261302
O O8 0.165212 0.147580 0.838593
O O9 0.057044 0.235034 0.956604
O O10 0.250000 0.250000 0.000000
O O11 0.926075 0.650734 0.406328
O O12 0.000000 0.500000 0.500000
O O13 0.615574 0.331346 0.121892
O O14 0.582618 0.268881 0.926561
O O15 0.000000 0.850979 0.250000
O O16 0.000000 0.290453 0.250000
#
# Coordination Sequence:
#
# PCOD9300431 Si02
#       7
#     8   8   8   8   8   8   8
#     4  11  26  43  71 108 142 182 248 300 366 440
#     4  12  28  44  74 102 150 188 243 307 365 431
#     4  11  26  45  73 104 144 189 244 301 369 431
#     4  11  22  44  73 103 142 189 238 300 370 439
#     4  11  24  45  76 102 145 196 247 300 364 447
#     4  10  27  47  70 105 143 193 246 292 369 446
#     4  12  23  49  75 107 144 198 243 297 366 452
#
# _framework density 22.147742000000001
#
# number of rings (size 3 to 8) (size 9 to 14) (size 15 to 20)
#    0.000    0.857    4.286    1.286   12.000    2.286 
#    0.000    1.429    0.000    0.000    0.000    0.000 
#    0.000    0.000    0.000    0.000    0.000    0.000 
#
# Total GULP energy -156331.403287 kJ/mol
# GULP energy per Si atom -5583.264403 kJ/mol
# Density = 2.209733 g / cm^3
# Si number density = 22.147742 Si / 1000 Ang^3
#
#
#
# Elastic Constant Matrix: (Units=GPa)
#
#
# Indices 1 2 3 4 5 6 
#
# 1 84.5766 20.7142 34.4278 0.0000 11.2672 0.0000
# 2 20.7142 86.0382 32.9583 0.0000 2.0611 0.0000
# 3 34.4278 32.9583 144.7513 0.0000 18.9269 0.0000
# 4 0.0000 0.0000 0.0000 42.0839 0.0000 4.1644
# 5 11.2672 2.0611 18.9269 0.0000 21.0080 0.0000
# 6 0.0000 0.0000 0.0000 4.1644 0.0000 23.2429
#
#
#
# Elastic Compliance Matrix: (Units=1/GPa)
#
#
# Indices 1 2 3 4 5 6 
#
# 1 0.013982 -0.002447 -0.002062 0.000000 -0.005401 0.000000
# 2 -0.002447 0.013206 -0.002751 0.000000 0.002495 0.000000
# 3 -0.002062 -0.002751 0.008893 0.000000 -0.006636 0.000000
# 4 0.000000 0.000000 0.000000 0.024191 0.000000 -0.004334
# 5 -0.005401 0.002495 -0.006636 0.000000 0.056232 0.000000
# 6 0.000000 0.000000 0.000000 -0.004334 0.000000 0.043800
#
#
# Mechanical properties :
#
#
# Convention : Reuss Voigt Hill
#
# Bulk Modulus (GPa) = 46.38131 54.61851 50.49991
# Shear Modulus (GPa) = 27.47087 32.41799 29.94443
#
# Velocity S-wave (km/s) = 3.52568 3.83000 3.68099
# Velocity P-wave (km/s) = 6.12871 6.65380 6.39665
#
# Compressibility (1/GPa) = 0.02156041
#
# Stress axis : x y z
#
# Youngs Moduli (GPa) = 71.52154 75.72347 112.44830
#
# Poissons Ratio (x) = 0.18529 0.23188
# Poissons Ratio (y) = 0.17500 0.30936
# Poissons Ratio (z) = 0.14749 0.20833
#
# Static dielectric constant tensor:
#      x y z
#    x 1.839410 0.000000 0.019440 
#    y 0.000000 1.707470 0.000000 
#    z 0.019440 0.000000 1.800090 
# 
# From -- ./inp_files/97042.got.cif
#   From: 2010.05.17/outbox.cif.g08.bks.cpg/sg15_49_cif.got.tgz:97042.got - 2010.06.03 18:47:42.
