data_PCOD9300939
_publ_section_title
;
Structure prediction by ZEFSAII (Michael W. Deem and Ramdas Pophale) SiO2 
 PCOD9300939
Probable space group: C 2/C
;
_chemical_formula_sum "Si O2"
_cell_formula_units_Z 64
_cell_length_a 14.969662
_cell_length_b 21.913030
_cell_length_c 14.808911
_cell_angle_alpha 90.000000
_cell_angle_beta 40.478586
_cell_angle_gamma 90.000000
_cell_volume 3153.492832
_symmetry_space_group_name_H-M "C 2/C"
_symmetry_group_IT_number 15
_symmetry_cell_setting 'monoclinic'
loop_
_space_group_symop_operation_xyz
x,y,z
-x,y,1/2-z
-x,-y,-z
x,-y,1/2+z
1/2+x,1/2+y,z
1/2-x,1/2+y,1/2-z
1/2-x,1/2-y,-z
1/2+x,1/2-y,1/2+z
loop_
_atom_site_type_symbol
_atom_site_label
_atom_site_fract_x
_atom_site_fract_y
_atom_site_fract_z
Si Si1 0.308642 0.053124 0.303867
Si Si2 0.651653 0.988025 0.919430
Si Si3 0.645353 0.066559 0.613611
Si Si4 0.190017 0.753744 0.944533
Si Si5 0.045797 0.680816 0.318143
Si Si6 0.955002 0.126308 0.994123
Si Si7 0.461907 0.588233 0.379694
Si Si8 0.411360 0.451176 0.236447
O O1 0.274633 0.028703 0.230455
O O2 0.410839 0.109964 0.209502
O O3 0.169172 0.083383 0.445050
O O4 0.357806 0.998548 0.329845
O O5 0.752651 0.038496 0.883986
O O6 0.644129 0.940540 0.006313
O O7 0.500000 0.000000 0.000000
O O8 0.500000 0.097815 0.750000
O O9 0.797133 0.091307 0.519474
O O10 0.085346 0.696368 0.018042
O O11 0.250000 0.750000 0.000000
O O12 0.317585 0.775084 0.781840
O O13 0.081489 0.808631 0.016706
O O14 0.000000 0.689413 0.250000
O O15 0.966929 0.123377 0.092674
O O16 0.085319 0.093667 0.850605
O O17 0.500000 0.610690 0.250000
O O18 0.515665 0.517366 0.338423
O O19 0.500000 0.423646 0.250000
#
# Coordination Sequence:
#
# PCOD9300939 Si02
#       8
#     8   8   8   8   8   8   8   8
#     4  11  20  34  56  77 108 157 194 227 292 358
#     4  12  23  34  49  82 121 154 201 243 285 350
#     4  12  22  34  49  77 120 155 188 238 288 338
#     4   9  20  38  55  80 112 140 191 248 295 356
#     4   9  19  36  54  76 104 143 182 238 290 350
#     4  11  20  34  61  83 107 160 203 238 305 348
#     4  11  20  36  56  81 120 155 202 245 275 352
#     4  11  20  35  53  82 121 157 201 238 282 361
#
# _framework density 20.294957
#
# number of rings (size 3 to 8) (size 9 to 14) (size 15 to 20)
#    0.000    1.250    6.250    1.500    0.000    1.500 
#    4.500    0.000    0.000    0.000    0.000    8.750 
#    0.000    0.000    0.000    0.000    0.000    0.000 
#
# Total GULP energy -178174.115182 kJ/mol
# GULP energy per Si atom -5567.941099 kJ/mol
# Density = 2.024876 g / cm^3
# Si number density = 20.294957 Si / 1000 Ang^3
#
#
#
# Elastic Constant Matrix: (Units=GPa)
#
#
# Indices 1 2 3 4 5 6 
#
# 1 83.0741 17.8555 25.3873 0.0006 -10.4853 -0.0002
# 2 17.8555 29.0509 11.6742 0.0010 -0.0840 -0.0007
# 3 25.3873 11.6742 52.0837 0.0016 -11.4177 -0.0013
# 4 0.0006 0.0010 0.0016 12.3637 -0.0008 -7.8322
# 5 -10.4853 -0.0840 -11.4177 -0.0008 46.9802 0.0006
# 6 -0.0002 -0.0007 -0.0013 -7.8322 0.0006 21.9364
#
#
#
# Elastic Compliance Matrix: (Units=1/GPa)
#
#
# Indices 1 2 3 4 5 6 
#
# 1 0.015559 -0.007360 -0.005467 0.000001 0.002131 0.000000
# 2 -0.007360 0.041509 -0.006402 -0.000003 -0.003124 0.000000
# 3 -0.005467 -0.006402 0.024326 -0.000002 0.004680 0.000000
# 4 0.000001 -0.000003 -0.000002 0.104523 0.000001 0.037319
# 5 0.002131 -0.003124 0.004680 0.000001 0.022893 0.000000
# 6 0.000000 0.000000 0.000000 0.037319 0.000000 0.058911
#
#
# Mechanical properties :
#
#
# Convention : Reuss Voigt Hill
#
# Bulk Modulus (GPa) = 23.29002 30.44921 26.86962
# Shear Modulus (GPa) = 15.60108 23.54216 19.57162
#
# Velocity S-wave (km/s) = 2.77558 3.40957 3.10878
# Velocity P-wave (km/s) = 4.66610 5.52595 5.11413
#
# Compressibility (1/GPa) = 0.04293685
#
# Stress axis : x y z
#
# Youngs Moduli (GPa) = 64.27128 24.09095 41.10890
#
# Poissons Ratio (x) = 0.17731 0.22475
# Poissons Ratio (y) = 0.47303 0.26316
# Poissons Ratio (z) = 0.35139 0.15422
#
# Static dielectric constant tensor:
#      x y z
#    x 1.766090 0.000000 -0.051840 
#    y 0.000000 1.784850 0.000000 
#    z -0.051840 0.000000 1.868860 
# 
# From -- ./inp_files/156798.got.cif
#   From: 2010.05.17/outbox.cif.g08.bks.cpg/sg15_79_cif.got.tgz:156798.got - 2010.06.03 18:47:42.
