data_PCOD9300649
_publ_section_title
;
Structure prediction by ZEFSAII (Michael W. Deem and Ramdas Pophale) SiO2 
 PCOD9300649
Probable space group: C 2/C
;
_chemical_formula_sum "Si O2"
_cell_formula_units_Z 60
_cell_length_a 21.972684
_cell_length_b 18.713110
_cell_length_c 11.797408
_cell_angle_alpha 90.000000
_cell_angle_beta 141.174134
_cell_angle_gamma 90.000000
_cell_volume 3041.252296
_symmetry_space_group_name_H-M "C 2/C"
_symmetry_group_IT_number 15
_symmetry_cell_setting 'monoclinic'
loop_
_space_group_symop_operation_xyz
x,y,z
-x,y,1/2-z
-x,-y,-z
x,-y,1/2+z
1/2+x,1/2+y,z
1/2-x,1/2+y,1/2-z
1/2-x,1/2-y,-z
1/2+x,1/2-y,1/2+z
loop_
_atom_site_type_symbol
_atom_site_label
_atom_site_fract_x
_atom_site_fract_y
_atom_site_fract_z
Si Si1 0.856188 0.320855 0.356253
Si Si2 0.338206 0.624803 0.032487
Si Si3 0.739291 0.825144 0.714710
Si Si4 0.921062 0.898139 0.421260
Si Si5 0.500000 0.185620 0.250000
Si Si6 0.648059 0.249193 0.286238
Si Si7 0.096859 0.719454 0.818039
Si Si8 0.860652 0.054545 0.295521
O O1 0.761534 0.365092 0.181922
O O2 0.814567 0.241818 0.327539
O O3 0.915034 0.310277 0.324984
O O4 0.920031 0.351095 0.551938
O O5 0.417761 0.611519 0.051542
O O6 0.364989 0.699496 0.131548
O O7 0.331087 0.568806 0.122500
O O8 0.666187 0.808027 0.711668
O O9 0.678638 0.820063 0.510234
O O10 0.795750 0.899616 0.788363
O O11 0.877759 0.826121 0.304858
O O12 0.029391 0.914875 0.535480
O O13 0.860890 0.970204 0.313424
O O14 0.563565 0.229554 0.251458
O O15 0.750000 0.250000 0.500000
O O16 0.000000 0.717448 0.750000
#
# Coordination Sequence:
#
# PCOD9300649 Si02
#       8
#     8   8   8   8   4   8   8   8
#     4  11  20  36  59  88 123 161 207 266 326 375
#     4  11  20  38  58  87 125 163 213 260 318 388
#     4  11  20  38  60  90 122 165 224 270 314 383
#     4  11  24  39  59  95 134 178 213 259 340 409
#     4  12  24  38  60  94 140 162 204 284 330 392
#     4  12  24  41  61  93 134 178 227 269 331 400
#     4  11  19  32  62  90 116 150 209 269 312 368
#     4  11  23  39  61  93 137 171 212 272 339 400
#
# _framework density 19.728715999999999
#
# number of rings (size 3 to 8) (size 9 to 14) (size 15 to 20)
#    0.000    0.800    6.667    3.600    0.000    1.067 
#    2.400    0.000    0.000    0.000    6.933    8.400 
#    0.000    0.000    0.000    0.000    0.000    0.000 
#
# Total GULP energy -167535.761749 kJ/mol
# GULP energy per Si atom -5584.525392 kJ/mol
# Density = 1.968381 g / cm^3
# Si number density = 19.728716 Si / 1000 Ang^3
#
#
#
# Elastic Constant Matrix: (Units=GPa)
#
#
# Indices 1 2 3 4 5 6 
#
# 1 138.6251 43.0091 14.9216 0.0000 -0.8546 0.0000
# 2 43.0091 83.2068 27.9582 0.0000 -3.3987 0.0000
# 3 14.9216 27.9582 63.3409 0.0000 -8.6528 0.0000
# 4 0.0000 0.0000 0.0000 17.6372 0.0000 7.9838
# 5 -0.8546 -3.3987 -8.6528 0.0000 36.1275 0.0000
# 6 0.0000 0.0000 0.0000 7.9838 0.0000 15.2388
#
#
#
# Elastic Compliance Matrix: (Units=1/GPa)
#
#
# Indices 1 2 3 4 5 6 
#
# 1 0.008594 -0.004415 -0.000108 0.000000 -0.000238 0.000000
# 2 -0.004415 0.016381 -0.006197 0.000000 -0.000048 0.000000
# 3 -0.000108 -0.006197 0.019093 0.000000 0.003987 0.000000
# 4 0.000000 0.000000 0.000000 0.074325 0.000000 -0.038940
# 5 -0.000238 -0.000048 0.003987 0.000000 0.028625 0.000000
# 6 0.000000 0.000000 0.000000 -0.038940 0.000000 0.086023
#
#
# Mechanical properties :
#
#
# Convention : Reuss Voigt Hill
#
# Bulk Modulus (GPa) = 44.19483 50.77228 47.48356
# Shear Modulus (GPa) = 19.08226 27.08628 23.08427
#
# Velocity S-wave (km/s) = 3.11341 3.70934 3.42436
# Velocity P-wave (km/s) = 5.94763 6.64354 6.30520
#
# Compressibility (1/GPa) = 0.02262708
#
# Stress axis : x y z
#
# Youngs Moduli (GPa) = 116.36312 61.04711 52.37545
#
# Poissons Ratio (x) = 0.26955 0.00566
# Poissons Ratio (y) = 0.51380 0.32455
# Poissons Ratio (z) = 0.01257 0.37829
#
# Static dielectric constant tensor:
#      x y z
#    x 1.747300 0.000000 0.016680 
#    y 0.000000 1.673330 0.000000 
#    z 0.016680 0.000000 1.748350 
# 
# From -- ./inp_files/113842.got.cif
#   From: 2010.05.17/outbox.cif.g08.bks.cpg/sg15_57_cif.got.tgz:113842.got - 2010.06.03 18:47:42.
