data_PCOD9300027
_publ_section_title
;
Structure prediction by ZEFSAII (Michael W. Deem and Ramdas Pophale) SiO2 
 PCOD9300027
Probable space group: C 2/C
;
_chemical_formula_sum "Si O2"
_cell_formula_units_Z 52
_cell_length_a 21.822408
_cell_length_b 14.102467
_cell_length_c 18.905577
_cell_angle_alpha 90.000000
_cell_angle_beta 26.790961
_cell_angle_gamma 90.000000
_cell_volume 2622.470675
_symmetry_space_group_name_H-M "C 2/C"
_symmetry_group_IT_number 15
_symmetry_cell_setting 'monoclinic'
loop_
_space_group_symop_operation_xyz
x,y,z
-x,y,1/2-z
-x,-y,-z
x,-y,1/2+z
1/2+x,1/2+y,z
1/2-x,1/2+y,1/2-z
1/2-x,1/2-y,-z
1/2+x,1/2-y,1/2+z
loop_
_atom_site_type_symbol
_atom_site_label
_atom_site_fract_x
_atom_site_fract_y
_atom_site_fract_z
Si Si1 0.300115 0.762989 0.807741
Si Si2 0.182358 0.934942 0.846804
Si Si3 0.571679 0.029224 0.499682
Si Si4 0.494512 0.781409 0.359927
Si Si5 0.941144 0.345831 0.888115
Si Si6 0.750000 0.250000 0.500000
Si Si7 0.899346 0.140017 0.579423
O O1 0.245849 0.865871 0.839698
O O2 0.448720 0.779882 0.685867
O O3 0.308181 0.697394 0.729446
O O4 0.199815 0.711370 0.965354
O O5 0.279503 0.934654 0.677845
O O6 0.171568 0.045663 0.877750
O O7 0.033246 0.896662 0.982437
O O8 0.494688 0.114826 0.616721
O O9 0.500000 0.000000 0.500000
O O10 0.577376 0.940648 0.546629
O O11 0.374726 0.781104 0.425545
O O12 0.638094 0.749789 0.180271
O O13 0.447847 0.709364 0.468723
O O14 0.000000 0.366885 0.750000
#
# Coordination Sequence:
#
# PCOD9300027 Si02
#       7
#     8   8   8   8   8   4   8
#     4  12  23  45  69  98 134 177 229 281 341 397
#     4  11  23  40  67 106 127 170 226 289 338 390
#     4  12  24  41  71 104 131 172 234 286 334 398
#     4  11  24  44  68  97 138 182 221 279 347 411
#     4  12  27  44  67  98 139 183 222 277 342 416
#     4  10  26  42  64  96 140 184 218 264 356 420
#     4  11  23  40  71  98 136 170 230 290 333 398
#
# _framework density 19.828631000000001
#
# number of rings (size 3 to 8) (size 9 to 14) (size 15 to 20)
#    0.000    0.615    6.154    1.385    4.308    0.000 
#    0.000    0.000    3.385    0.000    0.000    0.000 
#    0.000    0.000    0.000    0.000    0.000    0.000 
#
# Total GULP energy -144820.573758 kJ/mol
# GULP energy per Si atom -5570.022068 kJ/mol
# Density = 1.978350 g / cm^3
# Si number density = 19.828631 Si / 1000 Ang^3
#
#
#
# Elastic Constant Matrix: (Units=GPa)
#
#
# Indices 1 2 3 4 5 6 
#
# 1 42.2849 23.4196 11.2299 -0.0002 5.2281 0.0002
# 2 23.4196 81.1463 16.9465 -0.0001 6.9457 0.0002
# 3 11.2299 16.9465 121.0229 0.0000 9.1203 0.0003
# 4 -0.0002 -0.0001 0.0000 15.8047 0.0000 -7.0588
# 5 5.2281 6.9457 9.1203 0.0000 40.2447 -0.0002
# 6 0.0002 0.0002 0.0003 -7.0588 -0.0002 -3.1784
#
#
#
# Elastic Compliance Matrix: (Units=1/GPa)
#
#
# Indices 1 2 3 4 5 6 
#
# 1 0.028586 -0.007780 -0.001408 0.000001 -0.002052 0.000000
# 2 -0.007780 0.014945 -0.001274 0.000000 -0.001280 0.000000
# 3 -0.001408 -0.001274 0.008690 0.000000 -0.001566 0.000000
# 4 0.000001 0.000000 0.000000 0.031765 0.000000 -0.070545
# 5 -0.002052 -0.001280 -0.001566 0.000000 0.025690 -0.000001
# 6 0.000000 0.000000 0.000000 -0.070545 -0.000001 -0.157950
#
#
# Mechanical properties :
#
#
# Convention : Reuss Voigt Hill
#
# Bulk Modulus (GPa) = 31.95463 38.62735 35.29099
# Shear Modulus (GPa) = -295.57417 23.43139 -136.07139
#
# Velocity S-wave (km/s) = -12.22244 3.44131 -8.29293
# Velocity P-wave (km/s) = 13.52899 5.94248 8.59420
#
# Compressibility (1/GPa) = 0.03129437
#
# Stress axis : x y z
#
# Youngs Moduli (GPa) = 34.98207 66.91384 115.07383
#
# Poissons Ratio (x) = 0.52062 0.16208
# Poissons Ratio (y) = 0.27218 0.14663
# Poissons Ratio (z) = 0.04927 0.08527
#
# Static dielectric constant tensor:
#      x y z
#    x 1.688520 0.000000 -0.020550 
#    y 0.000000 1.698980 0.000000 
#    z -0.020550 0.000000 1.705370 
# 
# From -- ./inp_files/215573.got.cif
#   From: 2010.05.17/outbox.cif.g08.bks.cpg/sg15_108_cif.got.tgz:215573.got - 2010.06.03 18:47:42.
