data_PCOD9300023
_publ_section_title
;
Structure prediction by ZEFSAII (Michael W. Deem and Ramdas Pophale) SiO2 
 PCOD9300023
Probable space group: C 2/C
;
_chemical_formula_sum "Si O2"
_cell_formula_units_Z 52
_cell_length_a 27.327674
_cell_length_b 9.014920
_cell_length_c 18.299501
_cell_angle_alpha 90.000000
_cell_angle_beta 148.148308
_cell_angle_gamma 90.000000
_cell_volume 2379.081285
_symmetry_space_group_name_H-M "C 2/C"
_symmetry_group_IT_number 15
_symmetry_cell_setting 'monoclinic'
loop_
_space_group_symop_operation_xyz
x,y,z
-x,y,1/2-z
-x,-y,-z
x,-y,1/2+z
1/2+x,1/2+y,z
1/2-x,1/2+y,1/2-z
1/2-x,1/2-y,-z
1/2+x,1/2-y,1/2+z
loop_
_atom_site_type_symbol
_atom_site_label
_atom_site_fract_x
_atom_site_fract_y
_atom_site_fract_z
Si Si1 0.500000 0.802805 0.250000
Si Si2 0.945152 0.352720 0.900900
Si Si3 0.701909 0.902961 0.913926
Si Si4 0.288984 0.175782 0.321374
Si Si5 0.382071 0.033073 0.039815
Si Si6 0.413151 0.330932 0.005715
Si Si7 0.852615 0.092417 0.019692
O O1 0.586856 0.695297 0.350334
O O2 0.465416 0.913838 0.143068
O O3 0.881841 0.383845 0.749407
O O4 0.871552 0.303022 0.868417
O O5 0.000000 0.500000 0.000000
O O6 0.015471 0.222045 0.965917
O O7 0.663638 0.976739 0.939041
O O8 0.780604 0.995987 0.973135
O O9 0.750000 0.750000 0.000000
O O10 0.190103 0.170855 0.158234
O O11 0.297999 0.301293 0.394424
O O12 0.309625 0.018844 0.387077
O O13 0.416851 0.197123 0.068921
O O14 0.419945 0.485746 0.057202
#
# Coordination Sequence:
#
# PCOD9300023 Si02
#       7
#     4   8   8   8   8   8   8
#     4  10  26  42  62 104 144 182 236 304 368 424
#     4  12  25  44  77 107 141 201 256 294 376 455
#     4  12  25  46  77 111 142 197 254 306 371 453
#     4  11  24  47  67 111 149 188 245 311 373 439
#     4  11  23  45  72 102 144 194 245 297 376 442
#     4  12  23  44  77 101 144 195 243 311 361 449
#     4  11  25  44  68 106 150 181 241 315 363 436
#
# _framework density 21.857175999999999
#
# number of rings (size 3 to 8) (size 9 to 14) (size 15 to 20)
#    0.000    0.615    4.615    2.769    4.308    3.692 
#    5.538    0.000    0.000    0.000    0.000    0.000 
#    0.000    0.000    0.000    0.000    0.000    0.000 
#
# Total GULP energy -145388.603253 kJ/mol
# GULP energy per Si atom -5591.869356 kJ/mol
# Density = 2.180743 g / cm^3
# Si number density = 21.857176 Si / 1000 Ang^3
#
#
#
# Elastic Constant Matrix: (Units=GPa)
#
#
# Indices 1 2 3 4 5 6 
#
# 1 120.5865 0.2225 27.0576 0.0000 5.0834 0.0000
# 2 0.2225 81.0951 30.3328 0.0000 -2.2371 0.0000
# 3 27.0576 30.3328 125.0338 0.0000 6.2419 0.0000
# 4 0.0000 0.0000 0.0000 32.9990 0.0000 -3.9337
# 5 5.0834 -2.2371 6.2419 0.0000 27.5089 0.0000
# 6 0.0000 0.0000 0.0000 -3.9337 0.0000 42.4398
#
#
#
# Elastic Compliance Matrix: (Units=1/GPa)
#
#
# Indices 1 2 3 4 5 6 
#
# 1 0.008791 0.000700 -0.002017 0.000000 -0.001110 0.000000
# 2 0.000700 0.013713 -0.003568 0.000000 0.001795 0.000000
# 3 -0.002017 -0.003568 0.009402 0.000000 -0.002051 0.000000
# 4 0.000000 0.000000 0.000000 0.030643 0.000000 0.002840
# 5 -0.001110 0.001795 -0.002051 0.000000 0.037168 0.000000
# 6 0.000000 0.000000 0.000000 0.002840 0.000000 0.023826
#
#
# Mechanical properties :
#
#
# Convention : Reuss Voigt Hill
#
# Bulk Modulus (GPa) = 45.17430 49.10457 47.13944
# Shear Modulus (GPa) = 35.53866 38.52972 37.03419
#
# Velocity S-wave (km/s) = 4.03668 4.20312 4.12074
# Velocity P-wave (km/s) = 6.51454 6.78748 6.65241
#
# Compressibility (1/GPa) = 0.02213648
#
# Stress axis : x y z
#
# Youngs Moduli (GPa) = 113.75525 72.92181 106.35844
#
# Poissons Ratio (x) = -0.05101 0.21449
# Poissons Ratio (y) = -0.07958 0.37947
# Poissons Ratio (z) = 0.22940 0.26017
#
# Static dielectric constant tensor:
#      x y z
#    x 1.802610 0.000000 0.004510 
#    y 0.000000 1.817310 0.000000 
#    z 0.004510 0.000000 1.822210 
# 
# From -- ./inp_files/258874.got.cif
#   From: 2010.05.17/outbox.cif.g08.bks.cpg/sg15_130_cif.got.tgz:258874.got - 2010.06.03 18:47:42.
