data_PCOD9300437
_publ_section_title
;
Structure prediction by ZEFSAII (Michael W. Deem and Ramdas Pophale) SiO2 
 PCOD9300437
Probable space group: C 2/C
;
_chemical_formula_sum "Si O2"
_cell_formula_units_Z 40
_cell_length_a 18.002622
_cell_length_b 4.657707
_cell_length_c 16.712330
_cell_angle_alpha 90.000000
_cell_angle_beta 82.167549
_cell_angle_gamma 90.000000
_cell_volume 1388.271153
_symmetry_space_group_name_H-M "C 2/C"
_symmetry_group_IT_number 15
_symmetry_cell_setting 'monoclinic'
loop_
_space_group_symop_operation_xyz
x,y,z
-x,y,1/2-z
-x,-y,-z
x,-y,1/2+z
1/2+x,1/2+y,z
1/2-x,1/2+y,1/2-z
1/2-x,1/2-y,-z
1/2+x,1/2-y,1/2+z
loop_
_atom_site_type_symbol
_atom_site_label
_atom_site_fract_x
_atom_site_fract_y
_atom_site_fract_z
Si Si1 0.084245 0.558587 0.018871
Si Si2 0.201067 0.993619 0.045543
Si Si3 0.740498 0.745184 0.302974
Si Si4 0.498954 0.182860 0.660453
Si Si5 0.602408 0.329181 0.372957
O O1 0.077635 0.413289 0.108219
O O2 0.038374 0.926914 0.889463
O O3 0.056123 0.406091 0.827733
O O4 0.000000 0.500000 0.000000
O O5 0.212183 0.922824 0.138098
O O6 0.250000 0.250000 0.000000
O O7 0.250000 0.750000 0.000000
O O8 0.125325 0.375735 0.943857
O O9 0.788698 0.505754 0.248473
O O10 0.672631 0.535689 0.340632
O O11 0.500000 0.299280 0.750000
O O12 0.380674 0.370033 0.470791
#
# Coordination Sequence:
#
# PCOD9300437 Si02
#       5
#     8   8   8   8   8
#     4  10  27  52  87 124 175 233 300 373 454 555
#     4  12  31  53  87 126 173 234 307 370 454 561
#     4  12  29  53  84 122 176 232 294 381 461 544
#     4  11  25  48  82 122 171 230 297 374 456 549
#     4  11  26  49  80 120 172 230 297 373 456 550
#
# _framework density 28.812812999999998
#
# number of rings (size 3 to 8) (size 9 to 14) (size 15 to 20)
#    0.000    0.800    0.000    3.600   16.800    3.200 
#    0.000    0.000    0.000    0.000    0.000    0.000 
#    0.000    0.000    0.000    0.000    0.000    0.000 
#
# Total GULP energy -111541.647291 kJ/mol
# GULP energy per Si atom -5577.082365 kJ/mol
# Density = 2.874723 g / cm^3
# Si number density = 28.812813 Si / 1000 Ang^3
#
#
#
# Elastic Constant Matrix: (Units=GPa)
#
#
# Indices 1 2 3 4 5 6 
#
# 1 124.0156 69.7130 33.9527 0.0000 22.9618 0.0000
# 2 69.7130 272.2871 62.2502 0.0000 11.0665 0.0000
# 3 33.9527 62.2502 141.5185 0.0000 23.6573 0.0000
# 4 0.0000 0.0000 0.0000 67.0769 0.0000 -18.1352
# 5 22.9618 11.0665 23.6573 0.0000 35.2884 0.0000
# 6 0.0000 0.0000 0.0000 -18.1352 0.0000 59.8822
#
#
#
# Elastic Compliance Matrix: (Units=1/GPa)
#
#
# Indices 1 2 3 4 5 6 
#
# 1 0.010611 -0.002358 -0.000538 0.000000 -0.005804 0.000000
# 2 -0.002358 0.004607 -0.001662 0.000000 0.001204 0.000000
# 3 -0.000538 -0.001662 0.008763 0.000000 -0.005003 0.000000
# 4 0.000000 0.000000 0.000000 0.016238 0.000000 0.004918
# 5 -0.005804 0.001204 -0.005003 0.000000 0.035091 0.000000
# 6 0.000000 0.000000 0.000000 0.004918 0.000000 0.018189
#
#
# Mechanical properties :
#
#
# Convention : Reuss Voigt Hill
#
# Bulk Modulus (GPa) = 67.27419 96.62811 81.95115
# Shear Modulus (GPa) = 46.48125 57.24318 51.86221
#
# Velocity S-wave (km/s) = 4.02084 4.46211 4.24721
# Velocity P-wave (km/s) = 6.70489 7.75606 7.24956
#
# Compressibility (1/GPa) = 0.01486454
#
# Stress axis : x y z
#
# Youngs Moduli (GPa) = 94.24293 217.04589 114.11770
#
# Poissons Ratio (x) = 0.51173 0.06144
# Poissons Ratio (y) = 0.22220 0.18969
# Poissons Ratio (z) = 0.05074 0.36077
#
# Static dielectric constant tensor:
#      x y z
#    x 2.546640 0.000000 0.068750 
#    y 0.000000 2.325420 0.000000 
#    z 0.068750 0.000000 2.606750 
# 
# From -- ./inp_files/179351.got.cif
#   From: 2010.05.17/outbox.cif.g08.bks.cpg/sg15_90_cif.got.tgz:179351.got - 2010.06.03 18:47:42.
