data_PCOD9300115
_publ_section_title
;
Structure prediction by ZEFSAII (Michael W. Deem and Ramdas Pophale) SiO2 
 PCOD9300115
Probable space group: C 2/C
;
_chemical_formula_sum "Si O2"
_cell_formula_units_Z 36
_cell_length_a 5.177925
_cell_length_b 16.454688
_cell_length_c 17.743492
_cell_angle_alpha 90.000000
_cell_angle_beta 67.616303
_cell_angle_gamma 90.000000
_cell_volume 1397.860895
_symmetry_space_group_name_H-M "C 2/C"
_symmetry_group_IT_number 15
_symmetry_cell_setting 'monoclinic'
loop_
_space_group_symop_operation_xyz
x,y,z
-x,y,1/2-z
-x,-y,-z
x,-y,1/2+z
1/2+x,1/2+y,z
1/2-x,1/2+y,1/2-z
1/2-x,1/2-y,-z
1/2+x,1/2-y,1/2+z
loop_
_atom_site_type_symbol
_atom_site_label
_atom_site_fract_x
_atom_site_fract_y
_atom_site_fract_z
Si Si1 0.393625 0.081802 0.473238
Si Si2 0.000000 0.678422 0.750000
Si Si3 0.779320 0.950216 0.674005
Si Si4 0.000000 0.073471 0.750000
Si Si5 0.422794 0.298792 0.882562
Si Si6 0.250000 0.750000 0.000000
O O1 0.261696 0.049956 0.410097
O O2 0.649933 0.145685 0.427398
O O3 0.195400 0.151220 0.530431
O O4 0.500000 0.000000 0.500000
O O5 0.230118 0.627463 0.768600
O O6 0.153570 0.730550 0.668675
O O7 0.500000 0.970108 0.750000
O O8 0.860517 0.858167 0.682807
O O9 0.010767 0.012078 0.677943
O O10 0.568706 0.266559 0.941767
#
# Coordination Sequence:
#
# PCOD9300115 Si02
#       6
#     8   4   8   4   8   4
#     4  11  26  47  76 109 155 209 257 328 390 477
#     4  12  29  44  79 108 158 198 254 333 392 461
#     4  11  24  48  75 111 150 197 262 325 386 471
#     4  12  27  44  71 116 146 200 258 321 392 473
#     4  11  26  47  74 109 156 201 262 324 394 466
#     4  10  26  44  72 108 152 200 260 314 390 478
#
# _framework density 25.753637999999999
#
# number of rings (size 3 to 8) (size 9 to 14) (size 15 to 20)
#    0.000    0.889    1.111    4.000   10.889    5.333 
#    0.000    0.000    0.000    0.000    0.000    0.000 
#    0.000    0.000    0.000    0.000    0.000    0.000 
#
# Total GULP energy -100278.359795 kJ/mol
# GULP energy per Si atom -5571.019989 kJ/mol
# Density = 2.569502 g / cm^3
# Si number density = 25.753638 Si / 1000 Ang^3
#
#
#
# Elastic Constant Matrix: (Units=GPa)
#
#
# Indices 1 2 3 4 5 6 
#
# 1 108.1696 47.9504 61.0064 0.0000 31.1458 0.0000
# 2 47.9504 182.1509 84.5995 0.0000 31.7164 0.0000
# 3 61.0064 84.5995 92.0886 0.0000 46.0591 0.0000
# 4 0.0000 0.0000 0.0000 -43.7324 0.0000 -36.9725
# 5 31.1458 31.7164 46.0591 0.0000 57.7562 0.0000
# 6 0.0000 0.0000 0.0000 -36.9725 0.0000 21.9038
#
#
#
# Elastic Compliance Matrix: (Units=1/GPa)
#
#
# Indices 1 2 3 4 5 6 
#
# 1 0.014897 0.001163 -0.010979 0.000000 0.000083 0.000000
# 2 0.001163 0.009973 -0.011444 0.000000 0.003023 0.000000
# 3 -0.010979 -0.011444 0.037498 0.000000 -0.017699 0.000000
# 4 0.000000 0.000000 0.000000 -0.009422 0.000000 -0.015903
# 5 0.000083 0.003023 -0.017699 0.000000 0.029723 0.000000
# 6 0.000000 0.000000 0.000000 -0.015903 0.000000 0.018811
#
#
# Mechanical properties :
#
#
# Convention : Reuss Voigt Hill
#
# Bulk Modulus (GPa) = 50.38381 85.50241 67.94311
# Shear Modulus (GPa) = 33.19683 19.77572 26.48627
#
# Velocity S-wave (km/s) = 3.59418 2.77407 3.21042
# Velocity P-wave (km/s) = 6.06881 6.59794 6.33890
#
# Compressibility (1/GPa) = 0.01984765
#
# Stress axis : x y z
#
# Youngs Moduli (GPa) = 67.12590 100.27548 26.66803
#
# Poissons Ratio (x) = -0.11664 0.29280
# Poissons Ratio (y) = -0.07808 0.30519
# Poissons Ratio (z) = 0.73701 1.14754
#
# Static dielectric constant tensor:
#      x y z
#    x 2.061330 0.000000 0.087540 
#    y 0.000000 2.576750 0.000000 
#    z 0.087540 0.000000 2.127770 
# 
# From -- ./inp_files/226526.got.cif
#   From: 2010.05.17/outbox.cif.g08.bks.cpg/sg15_114_cif.got.tgz:226526.got - 2010.06.03 18:47:42.
