data_PCOD9300228
_publ_section_title
;
Structure prediction by ZEFSAII (Michael W. Deem and Ramdas Pophale) SiO2 
 PCOD9300228
Probable space group: C 2/C
;
_chemical_formula_sum "Si O2"
_cell_formula_units_Z 52
_cell_length_a 22.056777
_cell_length_b 8.900213
_cell_length_c 13.152078
_cell_angle_alpha 90.000000
_cell_angle_beta 118.232953
_cell_angle_gamma 90.000000
_cell_volume 2274.721732
_symmetry_space_group_name_H-M "C 2/C"
_symmetry_group_IT_number 15
_symmetry_cell_setting 'monoclinic'
loop_
_space_group_symop_operation_xyz
x,y,z
-x,y,1/2-z
-x,-y,-z
x,-y,1/2+z
1/2+x,1/2+y,z
1/2-x,1/2+y,1/2-z
1/2-x,1/2-y,-z
1/2+x,1/2-y,1/2+z
loop_
_atom_site_type_symbol
_atom_site_label
_atom_site_fract_x
_atom_site_fract_y
_atom_site_fract_z
Si Si1 0.154783 0.479890 0.501375
Si Si2 0.104611 0.835968 0.959097
Si Si3 0.000000 0.041633 0.750000
Si Si4 0.693216 0.423571 0.852394
Si Si5 0.679299 0.220240 0.671120
Si Si6 0.705241 0.936295 0.817880
Si Si7 0.612253 0.318862 0.199549
O O1 0.100648 0.345496 0.447651
O O2 0.225870 0.407236 0.602291
O O3 0.135808 0.621836 0.556940
O O4 0.182365 0.537543 0.415129
O O5 0.173012 0.878835 0.949663
O O6 0.106688 0.873583 0.079448
O O7 0.047402 0.932697 0.855879
O O8 0.955485 0.145070 0.790112
O O9 0.649277 0.324486 0.736999
O O10 0.670548 0.591471 0.809075
O O11 0.728884 0.330485 0.647184
O O12 0.716676 0.093757 0.770006
O O13 0.638885 0.851130 0.717824
#
# Coordination Sequence:
#
# PCOD9300228 Si02
#       7
#     8   8   4   8   8   8   8
#     4  12  24  37  65 102 144 177 217 270 339 409
#     4  11  23  43  68  98 130 178 227 284 335 389
#     4  10  26  46  74  94 122 180 246 284 332 390
#     4  11  24  37  65 101 138 180 214 268 338 424
#     4  12  22  38  60  98 145 178 211 258 331 412
#     4  12  24  38  62 101 142 180 215 263 331 410
#     4  11  23  45  69  96 131 175 229 285 332 394
#
# _framework density 22.859940999999999
#
# number of rings (size 3 to 8) (size 9 to 14) (size 15 to 20)
#    0.000    0.615    6.154    1.385    4.308    1.231 
#    0.000    0.769    0.000    5.538    0.000    0.000 
#    0.000    0.000    0.000    0.000    0.000    0.000 
#
# Total GULP energy -145277.487150 kJ/mol
# GULP energy per Si atom -5587.595660 kJ/mol
# Density = 2.280791 g / cm^3
# Si number density = 22.859941 Si / 1000 Ang^3
#
#
#
# Elastic Constant Matrix: (Units=GPa)
#
#
# Indices 1 2 3 4 5 6 
#
# 1 93.1259 20.9181 25.6465 0.0000 -27.5011 0.0000
# 2 20.9181 87.3228 9.7614 0.0000 -11.0932 0.0000
# 3 25.6465 9.7614 81.0611 0.0000 -38.1521 0.0000
# 4 0.0000 0.0000 0.0000 43.4716 0.0000 -11.5950
# 5 -27.5011 -11.0932 -38.1521 0.0000 44.8863 0.0000
# 6 0.0000 0.0000 0.0000 -11.5950 0.0000 26.2860
#
#
#
# Elastic Compliance Matrix: (Units=1/GPa)
#
#
# Indices 1 2 3 4 5 6 
#
# 1 0.013547 -0.002259 -0.000617 0.000000 0.007217 0.000000
# 2 -0.002259 0.012200 0.000022 0.000000 0.001650 0.000000
# 3 -0.000617 0.000022 0.020591 0.000000 0.017129 0.000000
# 4 0.000000 0.000000 0.000000 0.026071 0.000000 0.011500
# 5 0.007217 0.001650 0.017129 0.000000 0.041667 0.000000
# 6 0.000000 0.000000 0.000000 0.011500 0.000000 0.043116
#
#
# Mechanical properties :
#
#
# Convention : Reuss Voigt Hill
#
# Bulk Modulus (GPa) = 24.61303 41.57353 33.09328
# Shear Modulus (GPa) = 28.33770 36.60771 32.47271
#
# Velocity S-wave (km/s) = 3.52465 4.00608 3.77305
# Velocity P-wave (km/s) = 5.23015 6.29475 5.78698
#
# Compressibility (1/GPa) = 0.04062889
#
# Stress axis : x y z
#
# Youngs Moduli (GPa) = 73.81776 81.96667 48.56522
#
# Poissons Ratio (x) = 0.18519 0.02998
# Poissons Ratio (y) = 0.16678 -0.00107
# Poissons Ratio (z) = 0.04556 -0.00181
#
# Static dielectric constant tensor:
#      x y z
#    x 1.846960 0.000000 -0.011980 
#    y 0.000000 1.895130 0.000000 
#    z -0.011980 0.000000 1.920040 
# 
# From -- ./inp_files/172051.got.cif
#   From: 2010.05.17/outbox.cif.g08.bks.cpg/sg15_87_cif.got.tgz:172051.got - 2010.06.03 18:47:42.
