data_PCOD9300472
_publ_section_title
;
Structure prediction by ZEFSAII (Michael W. Deem and Ramdas Pophale) SiO2 
 PCOD9300472
Probable space group: C 2/C
;
_chemical_formula_sum "Si O2"
_cell_formula_units_Z 56
_cell_length_a 24.402776
_cell_length_b 5.168211
_cell_length_c 17.970894
_cell_angle_alpha 90.000000
_cell_angle_beta 77.400586
_cell_angle_gamma 90.000000
_cell_volume 2211.886929
_symmetry_space_group_name_H-M "C 2/C"
_symmetry_group_IT_number 15
_symmetry_cell_setting 'monoclinic'
loop_
_space_group_symop_operation_xyz
x,y,z
-x,y,1/2-z
-x,-y,-z
x,-y,1/2+z
1/2+x,1/2+y,z
1/2-x,1/2+y,1/2-z
1/2-x,1/2-y,-z
1/2+x,1/2-y,1/2+z
loop_
_atom_site_type_symbol
_atom_site_label
_atom_site_fract_x
_atom_site_fract_y
_atom_site_fract_z
Si Si1 0.000000 0.460959 0.750000
Si Si2 0.939637 0.818024 0.478035
Si Si3 0.627319 0.149927 0.476498
Si Si4 0.681630 0.978272 0.814036
Si Si5 0.250000 0.750000 0.500000
Si Si6 0.199139 0.170233 0.166877
Si Si7 0.392866 0.399429 0.249588
Si Si8 0.981333 0.833076 0.625493
O O1 0.942906 0.297768 0.754114
O O2 0.010185 0.643263 0.675234
O O3 0.899923 0.580804 0.467652
O O4 0.970804 0.731567 0.545275
O O5 0.908787 0.087499 0.510581
O O6 0.982707 0.908309 0.401734
O O7 0.637995 0.002875 0.394614
O O8 0.689098 0.242652 0.478894
O O9 0.744152 0.985951 0.829539
O O10 0.658484 0.717478 0.783056
O O11 0.683826 0.166936 0.743725
O O12 0.218658 0.672818 0.589427
O O13 0.141450 0.012638 0.169990
O O14 0.424680 0.597144 0.186014
#
# Coordination Sequence:
#
# PCOD9300472 Si02
#       8
#     4   8   8   8   4   8   8   8
#     4  12  28  46  72 116 162 202 262 332 406 478
#     4  11  26  49  84 109 157 210 268 317 391 474
#     4  11  25  49  77 118 157 210 259 329 395 474
#     4  11  23  44  82 108 152 203 270 314 391 476
#     4  10  28  50  74 120 166 198 266 338 416 466
#     4  11  24  49  76 114 150 212 261 335 390 483
#     4  12  24  46  78 109 152 205 261 321 396 480
#     4  11  27  49  76 113 152 206 265 321 396 476
#
# _framework density 25.317751000000001
#
# number of rings (size 3 to 8) (size 9 to 14) (size 15 to 20)
#    0.000    0.857    2.857    3.000    2.000    5.143 
#    5.143    0.000    0.000    0.000    0.000    0.000 
#    0.000    0.000    0.000    0.000    0.000    0.000 
#
# Total GULP energy -155974.174543 kJ/mol
# GULP energy per Si atom -5570.506234 kJ/mol
# Density = 2.526013 g / cm^3
# Si number density = 25.317751 Si / 1000 Ang^3
#
#
#
# Elastic Constant Matrix: (Units=GPa)
#
#
# Indices 1 2 3 4 5 6 
#
# 1 101.3834 22.3623 33.4704 0.0000 -26.6790 0.0000
# 2 22.3623 55.9086 21.7163 0.0000 -13.7242 0.0000
# 3 33.4704 21.7163 100.7000 0.0000 -20.8799 0.0000
# 4 0.0000 0.0000 0.0000 23.8916 0.0000 -9.6891
# 5 -26.6790 -13.7242 -20.8799 0.0000 43.0002 0.0000
# 6 0.0000 0.0000 0.0000 -9.6891 0.0000 -1.0361
#
#
#
# Elastic Compliance Matrix: (Units=1/GPa)
#
#
# Indices 1 2 3 4 5 6 
#
# 1 0.012827 -0.002731 -0.002452 0.000000 0.005896 0.000000
# 2 -0.002731 0.020978 -0.002868 0.000000 0.003609 0.000000
# 3 -0.002452 -0.002868 0.012074 0.000000 0.003426 0.000000
# 4 0.000000 0.000000 0.000000 0.008734 0.000000 -0.081673
# 5 0.005896 0.003609 0.003426 0.000000 0.029729 0.000000
# 6 0.000000 0.000000 0.000000 -0.081673 0.000000 -0.201391
#
#
# Mechanical properties :
#
#
# Convention : Reuss Voigt Hill
#
# Bulk Modulus (GPa) = 33.58180 45.89890 39.74035
# Shear Modulus (GPa) = -54.93270 25.20068 -14.86601
#
# Velocity S-wave (km/s) = -4.66309 3.15838 -2.42580
# Velocity P-wave (km/s) = 3.96227 5.60972 2.80797
#
# Compressibility (1/GPa) = 0.02977804
#
# Stress axis : x y z
#
# Youngs Moduli (GPa) = 77.96109 47.66791 82.81958
#
# Poissons Ratio (x) = 0.13017 0.20307
# Poissons Ratio (y) = 0.21289 0.23754
# Poissons Ratio (z) = 0.19115 0.13672
#
# Static dielectric constant tensor:
#      x y z
#    x 1.716980 0.000000 0.027510 
#    y 0.000000 2.147340 0.000000 
#    z 0.027510 0.000000 1.983630 
# 
# From -- ./inp_files/221246.got.cif
#   From: 2010.05.17/outbox.cif.g08.bks.cpg/sg15_111_cif.got.tgz:221246.got - 2010.06.03 18:47:42.
