data_PCOD9300174
_publ_section_title
;
Structure prediction by ZEFSAII (Michael W. Deem and Ramdas Pophale) SiO2 
 PCOD9300174
Probable space group: C 2/C
;
_chemical_formula_sum "Si O2"
_cell_formula_units_Z 36
_cell_length_a 9.217474
_cell_length_b 8.894563
_cell_length_c 17.321487
_cell_angle_alpha 90.000000
_cell_angle_beta 96.411222
_cell_angle_gamma 90.000000
_cell_volume 1411.227829
_symmetry_space_group_name_H-M "C 2/C"
_symmetry_group_IT_number 15
_symmetry_cell_setting 'monoclinic'
loop_
_space_group_symop_operation_xyz
x,y,z
-x,y,1/2-z
-x,-y,-z
x,-y,1/2+z
1/2+x,1/2+y,z
1/2-x,1/2+y,1/2-z
1/2-x,1/2-y,-z
1/2+x,1/2-y,1/2+z
loop_
_atom_site_type_symbol
_atom_site_label
_atom_site_fract_x
_atom_site_fract_y
_atom_site_fract_z
Si Si1 0.800347 0.052036 0.912894
Si Si2 0.141681 0.139789 0.224602
Si Si3 0.922417 0.293394 0.828482
Si Si4 0.750000 0.750000 0.000000
Si Si5 0.515586 0.117418 0.600045
O O1 0.930769 0.162843 0.893560
O O2 0.654835 0.141766 0.928220
O O3 0.773127 0.966606 0.829130
O O4 0.822491 0.911885 0.970502
O O5 0.253044 0.189683 0.296072
O O6 0.075868 0.279102 0.173291
O O7 0.000000 0.058775 0.250000
O O8 0.972899 0.446282 0.870768
O O9 0.000000 0.270230 0.750000
O O10 0.875429 0.653402 0.962365
#
# Coordination Sequence:
#
# PCOD9300174 Si02
#       5
#     8   8   8   4   8
#     4  11  23  43  67  95 135 178 222 280 326 397
#     4  11  21  40  68 100 136 170 215 274 350 406
#     4  12  23  40  72 104 132 169 216 279 349 398
#     4  10  26  46  66  90 134 192 234 262 328 390
#     4  11  23  44  66  95 137 178 219 282 326 396
#
# _framework density 25.509702999999998
#
# number of rings (size 3 to 8) (size 9 to 14) (size 15 to 20)
#    0.000    0.889    4.444    3.333    0.000    0.889 
#    0.000    2.222    0.000    0.000    0.000    0.000 
#    0.000    0.000    0.000    0.000    0.000    0.000 
#
# Total GULP energy -100207.781291 kJ/mol
# GULP energy per Si atom -5567.098961 kJ/mol
# Density = 2.545164 g / cm^3
# Si number density = 25.509703 Si / 1000 Ang^3
#
#
#
# Elastic Constant Matrix: (Units=GPa)
#
#
# Indices 1 2 3 4 5 6 
#
# 1 128.1833 34.4880 68.1848 0.0000 -44.9860 0.0000
# 2 34.4880 147.8049 40.3523 0.0000 -40.5882 0.0000
# 3 68.1848 40.3523 91.8530 0.0000 -29.0331 0.0000
# 4 0.0000 0.0000 0.0000 49.1076 0.0000 -14.9668
# 5 -44.9860 -40.5882 -29.0331 0.0000 63.7125 0.0000
# 6 0.0000 0.0000 0.0000 -14.9668 0.0000 30.8879
#
#
#
# Elastic Compliance Matrix: (Units=1/GPa)
#
#
# Indices 1 2 3 4 5 6 
#
# 1 0.014920 0.000956 -0.009315 0.000000 0.006899 0.000000
# 2 0.000956 0.008691 -0.002996 0.000000 0.004847 0.000000
# 3 -0.009315 -0.002996 0.019202 0.000000 0.000264 0.000000
# 4 0.000000 0.000000 0.000000 0.023892 0.000000 0.011577
# 5 0.006899 0.004847 0.000264 0.000000 0.023775 0.000000
# 6 0.000000 0.000000 0.000000 0.011577 0.000000 0.037985
#
#
# Mechanical properties :
#
#
# Convention : Reuss Voigt Hill
#
# Bulk Modulus (GPa) = 49.74284 72.65460 61.19872
# Shear Modulus (GPa) = 31.67042 43.72935 37.69989
#
# Velocity S-wave (km/s) = 3.52732 4.14481 3.84847
# Velocity P-wave (km/s) = 6.01093 7.17279 6.61741
#
# Compressibility (1/GPa) = 0.02010339
#
# Stress axis : x y z
#
# Youngs Moduli (GPa) = 67.02246 115.05496 52.07922
#
# Poissons Ratio (x) = -0.11003 0.48512
# Poissons Ratio (y) = -0.06409 0.15604
# Poissons Ratio (z) = 0.62432 0.34473
#
# Static dielectric constant tensor:
#      x y z
#    x 2.063850 0.000000 -0.024680 
#    y 0.000000 1.953380 0.000000 
#    z -0.024680 0.000000 1.997730 
# 
# From -- ./inp_files/229326.got.cif
#   From: 2010.05.17/outbox.cif.g08.bks.cpg/sg15_115_cif.got.tgz:229326.got - 2010.06.03 18:47:42.
