data_PCOD9300790
_publ_section_title
;
Structure prediction by ZEFSAII (Michael W. Deem and Ramdas Pophale) SiO2 
 PCOD9300790
Probable space group: C 2/C
;
_chemical_formula_sum "Si O2"
_cell_formula_units_Z 64
_cell_length_a 19.278874
_cell_length_b 9.735990
_cell_length_c 19.415285
_cell_angle_alpha 90.000000
_cell_angle_beta 60.808782
_cell_angle_gamma 90.000000
_cell_volume 3181.399640
_symmetry_space_group_name_H-M "C 2/C"
_symmetry_group_IT_number 15
_symmetry_cell_setting 'monoclinic'
loop_
_space_group_symop_operation_xyz
x,y,z
-x,y,1/2-z
-x,-y,-z
x,-y,1/2+z
1/2+x,1/2+y,z
1/2-x,1/2+y,1/2-z
1/2-x,1/2-y,-z
1/2+x,1/2-y,1/2+z
loop_
_atom_site_type_symbol
_atom_site_label
_atom_site_fract_x
_atom_site_fract_y
_atom_site_fract_z
Si Si1 0.314314 0.258772 0.664219
Si Si2 0.289665 0.130464 0.938110
Si Si3 0.038455 0.242395 0.163287
Si Si4 0.994363 0.864144 0.547912
Si Si5 0.808675 0.349702 0.015162
Si Si6 0.948143 0.530650 0.213336
Si Si7 0.726378 0.038729 0.697040
Si Si8 0.495770 0.867969 0.952268
O O1 0.406486 0.302646 0.607572
O O2 0.288281 0.183184 0.605414
O O3 0.292371 0.154483 0.736695
O O4 0.274971 0.406634 0.697469
O O5 0.374381 0.193593 0.873084
O O6 0.241922 0.094732 0.891270
O O7 0.250000 0.250000 0.000000
O O8 0.297929 0.998712 0.984416
O O9 0.000000 0.177804 0.250000
O O10 0.036294 0.137721 0.101239
O O11 0.983686 0.378909 0.179481
O O12 0.032213 0.750378 0.480756
O O13 0.000000 0.000000 0.500000
O O14 0.750000 0.250000 0.000000
O O15 0.905608 0.333763 0.970354
O O16 0.859233 0.522284 0.281197
O O17 0.000000 0.589602 0.250000
O O18 0.953661 0.610085 0.140069
O O19 0.500000 0.000000 0.000000
#
# Coordination Sequence:
#
# PCOD9300790 Si02
#       8
#     8   8   8   8   8   8   8   8
#     4  11  26  42  63  93 137 173 216 271 342 406
#     4  12  25  39  68  99 128 171 231 273 335 408
#     4  11  20  42  70  93 125 171 223 271 318 396
#     4  11  24  41  65  96 134 166 208 275 340 391
#     4  11  22  41  63  94 132 168 211 283 343 390
#     4  11  19  38  69  90 117 161 227 269 308 381
#     4  12  24  44  63  95 130 178 216 277 337 400
#     4  11  20  39  66  95 120 166 224 265 321 401
#
# _framework density 20.116931999999998
#
# number of rings (size 3 to 8) (size 9 to 14) (size 15 to 20)
#    0.000    0.750    7.500    0.750    3.500    1.000 
#    0.000    0.625    0.000    0.000    0.000    0.000 
#    0.000    0.000    0.000    0.000    0.000    0.000 
#
# Total GULP energy -178387.151244 kJ/mol
# GULP energy per Si atom -5574.598476 kJ/mol
# Density = 2.007114 g / cm^3
# Si number density = 20.116932 Si / 1000 Ang^3
#
#
#
# Elastic Constant Matrix: (Units=GPa)
#
#
# Indices 1 2 3 4 5 6 
#
# 1 53.5102 7.4790 16.5514 0.0000 15.4243 0.0000
# 2 7.4790 82.0704 50.5948 0.0000 27.8028 0.0000
# 3 16.5514 50.5948 112.8035 0.0000 34.1332 0.0000
# 4 0.0000 0.0000 0.0000 43.6553 0.0000 4.9932
# 5 15.4243 27.8028 34.1332 0.0000 36.4336 0.0000
# 6 0.0000 0.0000 0.0000 4.9932 0.0000 18.4636
#
#
#
# Elastic Compliance Matrix: (Units=1/GPa)
#
#
# Indices 1 2 3 4 5 6 
#
# 1 0.021519 0.001987 -0.001163 0.000000 -0.009537 0.000000
# 2 0.001987 0.018911 -0.005795 0.000000 -0.009843 0.000000
# 3 -0.001163 -0.005795 0.014163 0.000000 -0.008354 0.000000
# 4 0.000000 0.000000 0.000000 0.023638 0.000000 -0.006393
# 5 -0.009537 -0.009843 -0.008354 0.000000 0.046822 0.000000
# 6 0.000000 0.000000 0.000000 -0.006393 0.000000 0.055889
#
#
# Mechanical properties :
#
#
# Convention : Reuss Voigt Hill
#
# Bulk Modulus (GPa) = 22.39649 44.18163 33.28906
# Shear Modulus (GPa) = 24.29933 31.29442 27.79688
#
# Velocity S-wave (km/s) = 3.47926 3.94842 3.72124
# Velocity P-wave (km/s) = 5.22472 6.54193 5.92007
#
# Compressibility (1/GPa) = 0.04464986
#
# Stress axis : x y z
#
# Youngs Moduli (GPa) = 46.47059 52.88067 70.60872
#
# Poissons Ratio (x) = -0.10505 0.08210
# Poissons Ratio (y) = -0.09232 0.40917
# Poissons Ratio (z) = 0.05403 0.30644
#
# Static dielectric constant tensor:
#      x y z
#    x 1.770850 0.000000 0.027960 
#    y 0.000000 1.727230 0.000000 
#    z 0.027960 0.000000 1.741050 
# 
# From -- ./inp_files/251867.got.cif
#   From: 2010.05.17/outbox.cif.g08.bks.cpg/sg15_126_cif.got.tgz:251867.got - 2010.06.03 18:47:42.
