data_PCOD9300929
_publ_section_title
;
Structure prediction by ZEFSAII (Michael W. Deem and Ramdas Pophale) SiO2 
 PCOD9300929
Probable space group: C 2/C
;
_chemical_formula_sum "Si O2"
_cell_formula_units_Z 56
_cell_length_a 20.161629
_cell_length_b 19.191364
_cell_length_c 15.932402
_cell_angle_alpha 90.000000
_cell_angle_beta 26.243572
_cell_angle_gamma 90.000000
_cell_volume 2725.961616
_symmetry_space_group_name_H-M "C 2/C"
_symmetry_group_IT_number 15
_symmetry_cell_setting 'monoclinic'
loop_
_space_group_symop_operation_xyz
x,y,z
-x,y,1/2-z
-x,-y,-z
x,-y,1/2+z
1/2+x,1/2+y,z
1/2-x,1/2+y,1/2-z
1/2-x,1/2-y,-z
1/2+x,1/2-y,1/2+z
loop_
_atom_site_type_symbol
_atom_site_label
_atom_site_fract_x
_atom_site_fract_y
_atom_site_fract_z
Si Si1 0.000000 0.354139 0.250000
Si Si2 0.241629 0.535514 0.628534
Si Si3 0.916295 0.759239 0.708929
Si Si4 0.500000 0.625167 0.250000
Si Si5 0.303166 0.894520 0.757841
Si Si6 0.152798 0.603131 0.906681
Si Si7 0.217445 0.752479 0.280233
Si Si8 0.611715 0.961980 0.014417
O O1 0.127118 0.404732 0.068249
O O2 0.935409 0.306519 0.249002
O O3 0.365452 0.577798 0.437760
O O4 0.282147 0.453860 0.593409
O O5 0.222097 0.572057 0.741804
O O6 0.069106 0.534246 0.792271
O O7 0.941855 0.825037 0.740193
O O8 0.767917 0.752948 0.821382
O O9 0.039614 0.756449 0.495226
O O10 0.474004 0.888718 0.597265
O O11 0.239508 0.817783 0.817179
O O12 0.321064 0.927973 0.645147
O O13 0.223319 0.679090 0.833403
O O14 0.171522 0.540802 0.953328
#
# Coordination Sequence:
#
# PCOD9300929 Si02
#       8
#     4   8   8   4   8   8   8   8
#     4  11  20  34  50  83 110 142 174 221 260 332
#     4   9  18  33  53  72 109 144 185 215 266 327
#     4  11  25  30  54  82 121 142 173 212 290 330
#     4  11  22  32  48  81 114 146 166 219 282 336
#     4   9  18  34  54  77 100 144 188 223 261 316
#     4   9  17  33  55  76 101 144 188 222 258 317
#     4  12  19  38  53  82 111 147 176 230 265 329
#     4   9  18  32  53  76 103 145 186 222 255 321
#
# _framework density 20.543209999999998
#
# number of rings (size 3 to 8) (size 9 to 14) (size 15 to 20)
#    0.000    2.000    4.286    2.571    2.000    1.143 
#    0.000    0.714    3.143    0.857    0.000    4.000 
#    0.000    0.000    0.000    0.000    0.000    0.000 
#
# Total GULP energy -156230.903449 kJ/mol
# GULP energy per Si atom -5579.675123 kJ/mol
# Density = 2.049645 g / cm^3
# Si number density = 20.543210 Si / 1000 Ang^3
#
#
#
# Elastic Constant Matrix: (Units=GPa)
#
#
# Indices 1 2 3 4 5 6 
#
# 1 12.4925 23.3138 11.7138 0.0000 -0.8980 0.0015
# 2 23.3138 214.8514 53.0224 -0.0011 9.6166 0.0004
# 3 11.7138 53.0224 55.3733 -0.0019 6.4121 0.0040
# 4 0.0000 -0.0011 -0.0019 42.0276 0.0008 6.7461
# 5 -0.8980 9.6166 6.4121 0.0008 11.5604 -0.0021
# 6 0.0015 0.0004 0.0040 6.7461 -0.0021 7.9744
#
#
#
# Elastic Compliance Matrix: (Units=1/GPa)
#
#
# Indices 1 2 3 4 5 6 
#
# 1 0.117152 -0.009218 -0.019127 -0.000001 0.027377 -0.000003
# 2 -0.009218 0.006862 -0.004143 0.000000 -0.004126 0.000003
# 3 -0.019127 -0.004143 0.027619 0.000004 -0.013359 -0.000017
# 4 -0.000001 0.000000 0.000004 0.027533 -0.000008 -0.023292
# 5 0.027377 -0.004126 -0.013359 -0.000008 0.099471 0.000035
# 6 -0.000003 0.000003 -0.000017 -0.023292 0.000035 0.145105
#
#
# Mechanical properties :
#
#
# Convention : Reuss Voigt Hill
#
# Bulk Modulus (GPa) = 11.53947 50.97972 31.25960
# Shear Modulus (GPa) = 9.65994 25.29029 17.47512
#
# Velocity S-wave (km/s) = 2.17082 3.51248 2.91976
# Velocity P-wave (km/s) = 3.45147 6.42804 5.15909
#
# Compressibility (1/GPa) = 0.08665906
#
# Stress axis : x y z
#
# Youngs Moduli (GPa) = 8.53591 145.73858 36.20696
#
# Poissons Ratio (x) = 1.34335 0.69252
# Poissons Ratio (y) = 0.07868 0.14999
# Poissons Ratio (z) = 0.16326 0.60373
#
# Static dielectric constant tensor:
#      x y z
#    x 1.765300 0.000000 -0.003930 
#    y 0.000000 1.797410 0.000000 
#    z -0.003930 0.000000 1.712980 
# 
# From -- ./inp_files/258010.got.cif
#   From: 2010.05.17/outbox.cif.g08.bks.cpg/sg15_130_cif.got.tgz:258010.got - 2010.06.03 18:47:42.
