data_PCOD9300837
_publ_section_title
;
Structure prediction by ZEFSAII (Michael W. Deem and Ramdas Pophale) SiO2 
 PCOD9300837
Probable space group: C 2/C
;
_chemical_formula_sum "Si O2"
_cell_formula_units_Z 40
_cell_length_a 11.248481
_cell_length_b 17.888482
_cell_length_c 8.781476
_cell_angle_alpha 90.000000
_cell_angle_beta 77.344900
_cell_angle_gamma 90.000000
_cell_volume 1724.066831
_symmetry_space_group_name_H-M "C 2/C"
_symmetry_group_IT_number 15
_symmetry_cell_setting 'monoclinic'
loop_
_space_group_symop_operation_xyz
x,y,z
-x,y,1/2-z
-x,-y,-z
x,-y,1/2+z
1/2+x,1/2+y,z
1/2-x,1/2+y,1/2-z
1/2-x,1/2-y,-z
1/2+x,1/2-y,1/2+z
loop_
_atom_site_type_symbol
_atom_site_label
_atom_site_fract_x
_atom_site_fract_y
_atom_site_fract_z
Si Si1 0.106935 0.444928 0.024111
Si Si2 0.243614 0.450317 0.289123
Si Si3 0.288592 0.666894 0.045459
Si Si4 0.055042 0.858345 0.402118
Si Si5 0.892694 0.302720 0.652916
O O1 0.223034 0.475283 0.893066
O O2 0.074917 0.360921 0.986715
O O3 0.138660 0.448949 0.192024
O O4 0.000000 0.500000 0.000000
O O5 0.243678 0.387558 0.422310
O O6 0.361173 0.430758 0.149399
O O7 0.431048 0.647224 0.032928
O O8 0.250000 0.750000 0.000000
O O9 0.219847 0.663636 0.223423
O O10 0.128827 0.781064 0.403359
O O11 0.000000 0.849127 0.250000
O O12 0.000000 0.302544 0.750000
#
# Coordination Sequence:
#
# PCOD9300837 Si02
#       5
#     8   8   8   8   8
#     4  12  26  41  65  96 134 183 227 278 342 401
#     4  11  23  43  62  96 135 173 227 279 337 405
#     4  11  19  40  70  96 127 176 219 276 347 405
#     4   9  20  38  65  96 127 170 224 276 341 402
#     4  11  20  38  68  95 129 174 226 279 337 402
#
# _framework density 23.200958
#
# number of rings (size 3 to 8) (size 9 to 14) (size 15 to 20)
#    0.000    1.200    6.000    4.200    0.000    0.800 
#    0.000   17.000    0.000    0.000    0.000    0.000 
#    0.000    0.000    0.000    0.000    0.000    0.000 
#
# Total GULP energy -111453.041302 kJ/mol
# GULP energy per Si atom -5572.652065 kJ/mol
# Density = 2.314815 g / cm^3
# Si number density = 23.200958 Si / 1000 Ang^3
#
#
#
# Elastic Constant Matrix: (Units=GPa)
#
#
# Indices 1 2 3 4 5 6 
#
# 1 93.4230 8.5490 31.8095 0.0000 -31.4043 0.0000
# 2 8.5490 66.2820 3.0195 0.0000 6.2344 0.0000
# 3 31.8095 3.0195 68.0277 0.0000 -3.2007 0.0000
# 4 0.0000 0.0000 0.0000 32.1796 0.0000 -5.8650
# 5 -31.4043 6.2344 -3.2007 0.0000 51.1191 0.0000
# 6 0.0000 0.0000 0.0000 -5.8650 0.0000 30.1609
#
#
#
# Elastic Compliance Matrix: (Units=1/GPa)
#
#
# Indices 1 2 3 4 5 6 
#
# 1 0.016895 -0.002812 -0.007292 0.000000 0.010266 0.000000
# 2 -0.002812 0.015770 0.000445 0.000000 -0.003623 0.000000
# 3 -0.007292 0.000445 0.017929 0.000000 -0.003412 0.000000
# 4 0.000000 0.000000 0.000000 0.032217 0.000000 0.006265
# 5 0.010266 -0.003623 -0.003412 0.000000 0.026097 0.000000
# 6 0.000000 0.000000 0.000000 0.006265 0.000000 0.034374
#
#
# Mechanical properties :
#
#
# Convention : Reuss Voigt Hill
#
# Bulk Modulus (GPa) = 31.97470 34.94320 33.45895
# Shear Modulus (GPa) = 28.89699 34.98224 31.93962
#
# Velocity S-wave (km/s) = 3.53301 3.88724 3.71435
# Velocity P-wave (km/s) = 5.51855 5.93644 5.73131
#
# Compressibility (1/GPa) = 0.03127473
#
# Stress axis : x y z
#
# Youngs Moduli (GPa) = 59.18855 63.41018 55.77403
#
# Poissons Ratio (x) = 0.17834 0.40672
# Poissons Ratio (y) = 0.16647 -0.02480
# Poissons Ratio (z) = 0.43162 -0.02819
#
# Static dielectric constant tensor:
#      x y z
#    x 2.077200 0.000000 -0.128400 
#    y 0.000000 1.894240 0.000000 
#    z -0.128400 0.000000 1.881140 
# 
# From -- ./inp_files/29039.got.cif
#   From: 2010.05.17/outbox.cif.g08.bks.cpg/sg15_15_cif.got.tgz:29039.got - 2010.06.03 18:47:42.
