data_PCOD9300094
_publ_section_title
;
Structure prediction by ZEFSAII (Michael W. Deem and Ramdas Pophale) SiO2 
 PCOD9300094
Probable space group: C 2/C
;
_chemical_formula_sum "Si O2"
_cell_formula_units_Z 60
_cell_length_a 15.873918
_cell_length_b 11.001578
_cell_length_c 24.940546
_cell_angle_alpha 90.000000
_cell_angle_beta 145.859134
_cell_angle_gamma 90.000000
_cell_volume 2444.474627
_symmetry_space_group_name_H-M "C 2/C"
_symmetry_group_IT_number 15
_symmetry_cell_setting 'monoclinic'
loop_
_space_group_symop_operation_xyz
x,y,z
-x,y,1/2-z
-x,-y,-z
x,-y,1/2+z
1/2+x,1/2+y,z
1/2-x,1/2+y,1/2-z
1/2-x,1/2-y,-z
1/2+x,1/2-y,1/2+z
loop_
_atom_site_type_symbol
_atom_site_label
_atom_site_fract_x
_atom_site_fract_y
_atom_site_fract_z
Si Si1 0.307827 0.814427 0.973194
Si Si2 0.497266 0.197072 0.120834
Si Si3 0.243558 0.414595 0.817383
Si Si4 0.654183 0.516477 0.307750
Si Si5 0.019429 0.978506 0.127786
Si Si6 0.404771 0.193261 0.948717
Si Si7 0.822160 0.518769 0.566187
Si Si8 0.000000 0.428730 0.250000
O O1 0.194145 0.869527 0.867921
O O2 0.250000 0.750000 0.000000
O O3 0.455242 0.774585 0.017442
O O4 0.371202 0.937674 0.033923
O O5 0.659434 0.147093 0.223086
O O6 0.499270 0.339460 0.134218
O O7 0.380498 0.120221 0.096002
O O8 0.463662 0.183861 0.040273
O O9 0.372936 0.503214 0.865609
O O10 0.300451 0.310399 0.886343
O O11 0.120072 0.493195 0.781369
O O12 0.500000 0.457677 0.250000
O O13 0.597039 0.548697 0.218069
O O14 0.797230 0.424456 0.380220
O O15 0.855569 0.022293 0.025214
O O16 0.893823 0.613903 0.646458
#
# Coordination Sequence:
#
# PCOD9300094 Si02
#       8
#     8   8   8   8   8   8   8   4
#     4  12  27  48  72 108 152 202 255 316 390 470
#     4  11  24  44  74 102 144 197 246 315 383 450
#     4  11  26  43  69 107 145 185 256 315 378 466
#     4  12  25  46  79 111 149 201 263 315 386 470
#     4  12  24  45  74 108 143 194 252 316 379 459
#     4  12  25  45  75 106 150 200 251 312 394 462
#     4  11  24  46  69 104 146 191 252 313 373 465
#     4  10  26  44  68  96 150 190 242 310 388 444
#
# _framework density 24.545151000000001
#
# number of rings (size 3 to 8) (size 9 to 14) (size 15 to 20)
#    0.000    0.533    4.000    3.200    4.667    4.267 
#    1.200    0.000    0.000    0.000    0.000    0.000 
#    0.000    0.000    0.000    0.000    0.000    0.000 
#
# Total GULP energy -167318.469601 kJ/mol
# GULP energy per Si atom -5577.282320 kJ/mol
# Density = 2.448929 g / cm^3
# Si number density = 24.545151 Si / 1000 Ang^3
#
#
#
# Elastic Constant Matrix: (Units=GPa)
#
#
# Indices 1 2 3 4 5 6 
#
# 1 -169.5914 180.5782 -996.3643 0.0000 -363.7922 0.0000
# 2 180.5782 15.4008 448.9106 0.0000 215.6090 0.0000
# 3 -996.3643 448.9106-3019.7582 0.0001-1394.6319 0.0001
# 4 0.0000 0.0000 0.0001 58.0089 0.0000 -27.3021
# 5 -363.7922 215.6090-1394.6319 0.0000 -404.8008 0.0000
# 6 0.0000 0.0000 0.0001 -27.3021 0.0000 25.4608
#
#
#
# Elastic Compliance Matrix: (Units=1/GPa)
#
#
# Indices 1 2 3 4 5 6 
#
# 1 0.009092 -0.003235 -0.001842 0.000000 -0.003549 0.000000
# 2 -0.003235 0.013369 0.002667 0.000000 0.000840 0.000000
# 3 -0.001842 0.002667 0.001264 0.000000 -0.001281 0.000000
# 4 0.000000 0.000000 0.000000 0.034804 0.000000 0.037321
# 5 -0.003549 0.000840 -0.001281 0.000000 0.005579 0.000000
# 6 0.000000 0.000000 0.000000 0.037321 0.000000 0.079296
#
#
# Mechanical properties :
#
#
# Convention : Reuss Voigt Hill
#
# Bulk Modulus (GPa) = 52.89409 -434.18885 -190.64738
# Shear Modulus (GPa) = 32.35699 -251.40443 -109.52372
#
# Velocity S-wave (km/s) = 3.63473 -10.13152 -6.68717
# Velocity P-wave (km/s) = 6.26191 17.72404 11.72455
#
# Compressibility (1/GPa) = 0.01890570
#
# Stress axis : x y z
#
# Youngs Moduli (GPa) = 109.98737 74.80014 790.86742
#
# Poissons Ratio (x) = 0.24199 1.45644
# Poissons Ratio (y) = 0.35583 -2.10920
# Poissons Ratio (z) = 0.20255 -0.19949
#
# Static dielectric constant tensor:
#      x y z
#    x 1.963210 0.000000 -0.076350 
#    y 0.000000 1.999560 0.000000 
#    z -0.076350 0.000000 2.194340 
# 
# From -- ./inp_files/298970.got.cif
#   From: 2010.05.17/outbox.cif.g08.bks.cpg/sg15_150_cif.got.tgz:298970.got - 2010.06.03 18:47:42.
