data_PCOD9300882
_publ_section_title
;
Structure prediction by ZEFSAII (Michael W. Deem and Ramdas Pophale) SiO2 
 PCOD9300882
Probable space group: C 2/C
;
_chemical_formula_sum "Si O2"
_cell_formula_units_Z 44
_cell_length_a 20.429072
_cell_length_b 11.370597
_cell_length_c 7.335964
_cell_angle_alpha 90.000000
_cell_angle_beta 108.670135
_cell_angle_gamma 90.000000
_cell_volume 1614.403375
_symmetry_space_group_name_H-M "C 2/C"
_symmetry_group_IT_number 15
_symmetry_cell_setting 'monoclinic'
loop_
_space_group_symop_operation_xyz
x,y,z
-x,y,1/2-z
-x,-y,-z
x,-y,1/2+z
1/2+x,1/2+y,z
1/2-x,1/2+y,1/2-z
1/2-x,1/2-y,-z
1/2+x,1/2-y,1/2+z
loop_
_atom_site_type_symbol
_atom_site_label
_atom_site_fract_x
_atom_site_fract_y
_atom_site_fract_z
Si Si1 0.667077 0.070861 0.077907
Si Si2 0.762944 0.661813 0.702897
Si Si3 0.385883 0.317404 0.914164
Si Si4 0.109470 0.800192 0.162783
Si Si5 0.950777 0.413428 0.560328
Si Si6 0.500000 0.637950 0.250000
O O1 0.633141 0.162866 0.187516
O O2 0.710005 0.961201 0.187238
O O3 0.710649 0.149336 0.979144
O O4 0.605551 0.004960 0.918654
O O5 0.804675 0.775977 0.824845
O O6 0.681126 0.646702 0.652905
O O7 0.431907 0.399505 0.820494
O O8 0.400191 0.344759 0.139051
O O9 0.418872 0.188006 0.909555
O O10 0.048150 0.814142 0.961713
O O11 0.000000 0.352250 0.750000
O O12 0.000000 0.500000 0.500000
#
# Coordination Sequence:
#
# PCOD9300882 Si02
#       6
#     8   8   8   8   8   4
#     4  11  22  39  64  99 136 179 232 274 342 406
#     4  11  24  43  68 101 139 183 230 287 339 413
#     4  11  23  40  62  99 135 182 221 278 341 420
#     4  12  25  44  68 102 141 180 230 283 345 413
#     4  11  20  30  53  90 135 171 202 252 334 420
#     4  12  24  40  68 100 142 178 224 276 356 416
#
# _framework density 27.254650999999999
#
# number of rings (size 3 to 8) (size 9 to 14) (size 15 to 20)
#    0.000    0.727    1.818    9.273    2.545    0.000 
#    0.000    0.000    0.000    1.091    0.000    0.000 
#    0.000    0.000    0.000    0.000    0.000    0.000 
#
# Total GULP energy -122693.998892 kJ/mol
# GULP energy per Si atom -5576.999950 kJ/mol
# Density = 2.719262 g / cm^3
# Si number density = 27.254651 Si / 1000 Ang^3
#
#
#
# Elastic Constant Matrix: (Units=GPa)
#
#
# Indices 1 2 3 4 5 6 
#
# 1 176.7655 16.7702 56.0532 0.0000 6.7620 0.0000
# 2 16.7702 43.6858 19.0371 0.0000 8.7577 0.0000
# 3 56.0532 19.0371 156.5151 0.0000 6.0932 0.0000
# 4 0.0000 0.0000 0.0000 26.1157 0.0000 0.0000
# 5 6.7620 8.7577 6.0932 0.0000 70.4836 0.0000
# 6 0.0000 0.0000 0.0000 0.0000 0.0000 33.9981
#
#
#
# Elastic Compliance Matrix: (Units=1/GPa)
#
#
# Indices 1 2 3 4 5 6 
#
# 1 0.006485 -0.001512 -0.002129 0.000000 -0.000250 0.000000
# 2 -0.001512 0.025071 -0.002400 0.000000 -0.002763 0.000000
# 3 -0.002129 -0.002400 0.007449 0.000000 -0.000141 0.000000
# 4 0.000000 0.000000 0.000000 0.038291 0.000000 0.000000
# 5 -0.000250 -0.002763 -0.000141 0.000000 0.014567 0.000000
# 6 0.000000 0.000000 0.000000 0.000000 0.000000 0.029413
#
#
# Mechanical properties :
#
#
# Convention : Reuss Voigt Hill
#
# Bulk Modulus (GPa) = 37.14289 62.29860 49.72074
# Shear Modulus (GPa) = 35.12872 45.12654 40.12763
#
# Velocity S-wave (km/s) = 3.59403 4.07349 3.84125
# Velocity P-wave (km/s) = 5.55702 6.71059 6.16086
#
# Compressibility (1/GPa) = 0.02692305
#
# Stress axis : x y z
#
# Youngs Moduli (GPa) = 154.19443 39.88686 134.24433
#
# Poissons Ratio (x) = 0.06030 0.28581
# Poissons Ratio (y) = 0.23309 0.32225
# Poissons Ratio (z) = 0.32828 0.09575
#
# Static dielectric constant tensor:
#      x y z
#    x 2.210710 0.000000 0.015590 
#    y 0.000000 2.227050 0.000000 
#    z 0.015590 0.000000 2.220710 
# 
# From -- ./inp_files/47232.got.cif
#   From: 2010.05.17/outbox.cif.g08.bks.cpg/sg15_24_cif.got.tgz:47232.got - 2010.06.03 18:47:42.
