data_PCOD9300035
_publ_section_title
;
Structure prediction by ZEFSAII (Michael W. Deem and Ramdas Pophale) SiO2 
 PCOD9300035
Probable space group: C 2/C
;
_chemical_formula_sum "Si O2"
_cell_formula_units_Z 52
_cell_length_a 18.920623
_cell_length_b 5.848900
_cell_length_c 20.783731
_cell_angle_alpha 90.000000
_cell_angle_beta 111.058192
_cell_angle_gamma 90.000000
_cell_volume 2146.422955
_symmetry_space_group_name_H-M "C 2/C"
_symmetry_group_IT_number 15
_symmetry_cell_setting 'monoclinic'
loop_
_space_group_symop_operation_xyz
x,y,z
-x,y,1/2-z
-x,-y,-z
x,-y,1/2+z
1/2+x,1/2+y,z
1/2-x,1/2+y,1/2-z
1/2-x,1/2-y,-z
1/2+x,1/2-y,1/2+z
loop_
_atom_site_type_symbol
_atom_site_label
_atom_site_fract_x
_atom_site_fract_y
_atom_site_fract_z
Si Si1 0.186984 0.932179 0.996398
Si Si2 0.571796 0.247815 0.183461
Si Si3 0.072903 0.432183 0.064303
Si Si4 0.779795 0.969714 0.235642
Si Si5 0.972739 0.121003 0.113713
Si Si6 0.500000 0.906878 0.250000
Si Si7 0.232148 0.690506 0.581687
O O1 0.101590 0.862097 0.954684
O O2 0.204640 0.130447 0.949867
O O3 0.250000 0.750000 0.000000
O O4 0.211818 0.040266 0.072624
O O5 0.631325 0.441384 0.221375
O O6 0.491629 0.364662 0.141569
O O7 0.563164 0.069647 0.238626
O O8 0.593258 0.113176 0.126233
O O9 0.146831 0.405431 0.045037
O O10 0.043402 0.210508 0.093922
O O11 0.000000 0.500000 0.000000
O O12 0.745421 0.730268 0.255629
O O13 0.761752 0.918853 0.156060
O O14 0.968732 0.264020 0.178869
#
# Coordination Sequence:
#
# PCOD9300035 Si02
#       7
#     8   8   8   8   8   4   8
#     4  11  27  45  70 104 144 196 246 315 382 452
#     4  11  25  44  68 103 141 189 244 304 369 443
#     4  11  23  45  71  99 137 182 241 300 364 444
#     4  12  28  47  77 111 153 196 251 314 384 451
#     4  11  25  44  71 102 141 189 250 302 377 445
#     4  10  26  42  68 102 140 190 244 310 364 446
#     4  11  26  45  68 105 144 190 247 307 380 449
#
# _framework density 24.226351999999999
#
# number of rings (size 3 to 8) (size 9 to 14) (size 15 to 20)
#    0.000    0.923    1.538    3.231   10.769    7.385 
#    0.000    0.000    0.000    0.000    0.000    0.000 
#    0.000    0.000    0.000    0.000    0.000    0.000 
#
# Total GULP energy -145237.329026 kJ/mol
# GULP energy per Si atom -5586.051116 kJ/mol
# Density = 2.417121 g / cm^3
# Si number density = 24.226352 Si / 1000 Ang^3
#
#
#
# Elastic Constant Matrix: (Units=GPa)
#
#
# Indices 1 2 3 4 5 6 
#
# 1 89.0201 13.0031 15.5874 0.0000 11.2528 0.0000
# 2 13.0031 64.6590 -6.8849 0.0000 -5.9939 0.0000
# 3 15.5874 -6.8849 35.4483 0.0000 2.6528 0.0000
# 4 0.0000 0.0000 0.0000 35.4421 0.0000 -3.8681
# 5 11.2528 -5.9939 2.6528 0.0000 43.4986 0.0000
# 6 0.0000 0.0000 0.0000 -3.8681 0.0000 35.6351
#
#
#
# Elastic Compliance Matrix: (Units=1/GPa)
#
#
# Indices 1 2 3 4 5 6 
#
# 1 0.013327 -0.003683 -0.006308 0.000000 -0.003570 0.000000
# 2 -0.003683 0.016985 0.004693 0.000000 0.003007 0.000000
# 3 -0.006308 0.004693 0.031870 0.000000 0.000335 0.000000
# 4 0.000000 0.000000 0.000000 0.028553 0.000000 0.003099
# 5 -0.003570 0.003007 0.000335 0.000000 0.024307 0.000000
# 6 0.000000 0.000000 0.000000 0.003099 0.000000 0.028399
#
#
# Mechanical properties :
#
#
# Convention : Reuss Voigt Hill
#
# Bulk Modulus (GPa) = 19.38487 25.83764 22.61126
# Shear Modulus (GPa) = 29.19998 34.07661 31.63829
#
# Velocity S-wave (km/s) = 3.47551 3.75453 3.61771
# Velocity P-wave (km/s) = 4.91167 5.42987 5.17726
#
# Compressibility (1/GPa) = 0.05158663
#
# Stress axis : x y z
#
# Youngs Moduli (GPa) = 75.03392 58.87598 31.37699
#
# Poissons Ratio (x) = 0.21683 0.19794
# Poissons Ratio (y) = 0.27634 -0.14726
# Poissons Ratio (z) = 0.47334 -0.27632
#
# Static dielectric constant tensor:
#      x y z
#    x 1.952370 0.000000 -0.012910 
#    y 0.000000 2.083290 0.000000 
#    z -0.012910 0.000000 1.931800 
# 
# From -- ./inp_files/279002.got.cif
#   From: 2010.05.17/outbox.cif.g08.bks.cpg/sg15_140_cif.got.tgz:279002.got - 2010.06.03 18:47:42.
