data_PCOD9300587
_publ_section_title
;
Structure prediction by ZEFSAII (Michael W. Deem and Ramdas Pophale) SiO2 
 PCOD9300587
Probable space group: C 2/C
;
_chemical_formula_sum "Si O2"
_cell_formula_units_Z 56
_cell_length_a 20.335934
_cell_length_b 8.317627
_cell_length_c 13.848702
_cell_angle_alpha 90.000000
_cell_angle_beta 113.381453
_cell_angle_gamma 90.000000
_cell_volume 2150.106765
_symmetry_space_group_name_H-M "C 2/C"
_symmetry_group_IT_number 15
_symmetry_cell_setting 'monoclinic'
loop_
_space_group_symop_operation_xyz
x,y,z
-x,y,1/2-z
-x,-y,-z
x,-y,1/2+z
1/2+x,1/2+y,z
1/2-x,1/2+y,1/2-z
1/2-x,1/2-y,-z
1/2+x,1/2-y,1/2+z
loop_
_atom_site_type_symbol
_atom_site_label
_atom_site_fract_x
_atom_site_fract_y
_atom_site_fract_z
Si Si1 0.664810 0.852955 0.367901
Si Si2 0.719653 0.752596 0.201962
Si Si3 0.929415 0.259944 0.476924
Si Si4 0.764328 0.928109 0.056570
Si Si5 0.569485 0.129737 0.978770
Si Si6 0.568409 0.574816 0.834121
Si Si7 0.119854 0.642163 0.227565
O O1 0.707578 0.763639 0.308658
O O2 0.614134 0.784729 0.421873
O O3 0.722834 0.949533 0.464928
O O4 0.613662 0.970418 0.274796
O O5 0.644214 0.697084 0.113119
O O6 0.732090 0.915547 0.145873
O O7 0.794450 0.669391 0.222013
O O8 0.922796 0.434942 0.527335
O O9 0.950842 0.131846 0.569559
O O10 0.989439 0.302058 0.433939
O O11 0.847645 0.971383 0.111881
O O12 0.750000 0.750000 0.000000
O O13 0.595397 0.155975 0.103501
O O14 0.500000 0.482378 0.750000
O O15 0.421190 0.728544 0.731687
#
# Coordination Sequence:
#
# PCOD9300587 Si02
#       7
#     8   8   8   8   8   8   8
#     4  12  20  36  56  81 115 153 186 236 283 336
#     4  11  22  35  56  81 114 155 191 230 282 337
#     4  11  19  33  50  87 118 143 182 229 296 348
#     4  11  18  36  58  80 110 150 202 231 272 341
#     4  11  22  31  52  83 120 145 180 232 291 356
#     4  11  19  32  58  84 111 147 188 243 281 329
#     4  11  20  36  54  78 116 150 192 227 282 343
#
# _framework density 26.045218999999999
#
# number of rings (size 3 to 8) (size 9 to 14) (size 15 to 20)
#    0.000    0.857   10.000    0.000    0.000    1.143 
#    0.000    0.000    0.000    3.429    3.714    0.000 
#    0.000    0.000    0.000    0.000    0.000    0.000 
#
# Total GULP energy -156611.336614 kJ/mol
# GULP energy per Si atom -5593.262022 kJ/mol
# Density = 2.598594 g / cm^3
# Si number density = 26.045219 Si / 1000 Ang^3
#
#
#
# Elastic Constant Matrix: (Units=GPa)
#
#
# Indices 1 2 3 4 5 6 
#
# 1 149.3299 11.9320 69.3964 0.0000 18.1782 0.0000
# 2 11.9320 32.1134 18.8544 0.0000 -8.6382 0.0000
# 3 69.3964 18.8544 162.8915 0.0000 2.9267 0.0000
# 4 0.0000 0.0000 0.0000 17.6453 0.0000 -5.9708
# 5 18.1782 -8.6382 2.9267 0.0000 62.7648 0.0000
# 6 0.0000 0.0000 0.0000 -5.9708 0.0000 24.4902
#
#
#
# Elastic Compliance Matrix: (Units=1/GPa)
#
#
# Indices 1 2 3 4 5 6 
#
# 1 0.008787 -0.001940 -0.003472 0.000000 -0.002650 0.000000
# 2 -0.001940 0.035337 -0.003364 0.000000 0.005582 0.000000
# 3 -0.003472 -0.003364 0.008004 0.000000 0.000169 0.000000
# 4 0.000000 0.000000 0.000000 0.061768 0.000000 0.015059
# 5 -0.002650 0.005582 0.000169 0.000000 0.017460 0.000000
# 6 0.000000 0.000000 0.000000 0.015059 0.000000 0.044504
#
#
# Mechanical properties :
#
#
# Convention : Reuss Voigt Hill
#
# Bulk Modulus (GPa) = 28.92003 60.52226 44.72115
# Shear Modulus (GPa) = 24.39758 37.25686 30.82722
#
# Velocity S-wave (km/s) = 3.06394 3.78626 3.44409
# Velocity P-wave (km/s) = 4.86260 6.51169 5.74661
#
# Compressibility (1/GPa) = 0.03457811
#
# Stress axis : x y z
#
# Youngs Moduli (GPa) = 113.79816 28.29892 124.93128
#
# Poissons Ratio (x) = 0.05489 0.43371
# Poissons Ratio (y) = 0.22073 0.42028
# Poissons Ratio (z) = 0.39506 0.09520
#
# Static dielectric constant tensor:
#      x y z
#    x 2.066670 0.000000 0.036670 
#    y 0.000000 2.234830 0.000000 
#    z 0.036670 0.000000 2.013180 
# 
# From -- ./inp_files/161014.got.cif
#   From: 2010.05.17/outbox.cif.g08.bks.cpg/sg15_81_cif.got.tgz:161014.got - 2010.06.03 18:47:42.
