data_PCOD9300621
_publ_section_title
;
Structure prediction by ZEFSAII (Michael W. Deem and Ramdas Pophale) SiO2 
 PCOD9300621
Probable space group: C 2/C
;
_chemical_formula_sum "Si O2"
_cell_formula_units_Z 44
_cell_length_a 12.627448
_cell_length_b 13.171636
_cell_length_c 14.539772
_cell_angle_alpha 90.000000
_cell_angle_beta 131.726420
_cell_angle_gamma 90.000000
_cell_volume 1804.864459
_symmetry_space_group_name_H-M "C 2/C"
_symmetry_group_IT_number 15
_symmetry_cell_setting 'monoclinic'
loop_
_space_group_symop_operation_xyz
x,y,z
-x,y,1/2-z
-x,-y,-z
x,-y,1/2+z
1/2+x,1/2+y,z
1/2-x,1/2+y,1/2-z
1/2-x,1/2-y,-z
1/2+x,1/2-y,1/2+z
loop_
_atom_site_type_symbol
_atom_site_label
_atom_site_fract_x
_atom_site_fract_y
_atom_site_fract_z
Si Si1 0.157986 0.540055 0.154280
Si Si2 0.541848 0.598816 0.086062
Si Si3 0.916923 0.246895 0.880512
Si Si4 0.205723 0.028296 0.458394
Si Si5 0.144806 0.628248 0.788601
Si Si6 0.500000 0.364529 0.250000
O O1 0.308683 0.574334 0.284423
O O2 0.056591 0.634426 0.114202
O O3 0.187722 0.540563 0.063605
O O4 0.120850 0.435032 0.181355
O O5 0.422573 0.607631 0.096176
O O6 0.500000 0.500000 0.000000
O O7 0.531833 0.694118 0.013285
O O8 0.766050 0.212167 0.838826
O O9 0.921185 0.199000 0.782104
O O10 0.294185 0.044323 0.603174
O O11 0.113364 0.931152 0.373184
O O12 0.000000 0.667408 0.750000
#
# Coordination Sequence:
#
# PCOD9300621 Si02
#       6
#     8   8   8   8   8   4
#     4  12  23  41  67 102 130 172 225 278 333 388
#     4  11  18  42  69  94 126 175 233 272 311 398
#     4  11  25  39  68 100 130 172 225 275 330 390
#     4  11  20  40  76  88 121 190 226 264 322 393
#     4  11  25  44  60  96 144 172 211 276 338 399
#     4  12  18  44  68  96 120 176 236 268 316 400
#
# _framework density 24.37856
#
# number of rings (size 3 to 8) (size 9 to 14) (size 15 to 20)
#    0.000    0.727    9.091    0.000    1.273    6.545 
#    3.273    1.818    0.000    0.000    0.000    0.000 
#    0.000    0.000    0.000    0.000    0.000    0.000 
#
# Total GULP energy -123000.471523 kJ/mol
# GULP energy per Si atom -5590.930524 kJ/mol
# Density = 2.432307 g / cm^3
# Si number density = 24.378560 Si / 1000 Ang^3
#
#
#
# Elastic Constant Matrix: (Units=GPa)
#
#
# Indices 1 2 3 4 5 6 
#
# 1 89.7717 -12.7693 28.2003 0.0000 -15.0228 0.0000
# 2 -12.7693 60.0213 5.5354 0.0000 -6.8812 0.0000
# 3 28.2003 5.5354 98.9385 0.0000 -4.2134 0.0000
# 4 0.0000 0.0000 0.0000 15.2017 0.0000 3.6943
# 5 -15.0228 -6.8812 -4.2134 0.0000 45.5953 0.0000
# 6 0.0000 0.0000 0.0000 3.6943 0.0000 12.7904
#
#
#
# Elastic Compliance Matrix: (Units=1/GPa)
#
#
# Indices 1 2 3 4 5 6 
#
# 1 0.013705 0.003819 -0.003919 0.000000 0.004730 0.000000
# 2 0.003819 0.018089 -0.001938 0.000000 0.003809 0.000000
# 3 -0.003919 -0.001938 0.011310 0.000000 -0.000539 0.000000
# 4 0.000000 0.000000 0.000000 0.070748 0.000000 -0.020435
# 5 0.004730 0.003809 -0.000539 0.000000 0.024016 0.000000
# 6 0.000000 0.000000 0.000000 -0.020435 0.000000 0.084086
#
#
# Mechanical properties :
#
#
# Convention : Reuss Voigt Hill
#
# Bulk Modulus (GPa) = 25.62250 32.29605 28.95927
# Shear Modulus (GPa) = 20.91719 29.90182 25.40950
#
# Velocity S-wave (km/s) = 2.93237 3.50603 3.23195
# Velocity P-wave (km/s) = 4.69022 5.44666 5.08253
#
# Compressibility (1/GPa) = 0.03902821
#
# Stress axis : x y z
#
# Youngs Moduli (GPa) = 72.96547 55.28293 88.41951
#
# Poissons Ratio (x) = -0.21114 0.34648
# Poissons Ratio (y) = -0.27868 0.17140
# Poissons Ratio (z) = 0.28592 0.10716
#
# Static dielectric constant tensor:
#      x y z
#    x 1.983800 0.000000 0.008050 
#    y 0.000000 1.936040 0.000000 
#    z 0.008050 0.000000 1.984060 
# 
# From -- ./inp_files/143350.got.cif
#   From: 2010.05.17/outbox.cif.g08.bks.cpg/sg15_72_cif.got.tgz:143350.got - 2010.06.03 18:47:42.
