data_PCOD9300248
_publ_section_title
;
Structure prediction by ZEFSAII (Michael W. Deem and Ramdas Pophale) SiO2 
 PCOD9300248
Probable space group: C 2/C
;
_chemical_formula_sum "Si O2"
_cell_formula_units_Z 52
_cell_length_a 13.161172
_cell_length_b 26.629008
_cell_length_c 8.862924
_cell_angle_alpha 90.000000
_cell_angle_beta 48.698205
_cell_angle_gamma 90.000000
_cell_volume 2333.497179
_symmetry_space_group_name_H-M "C 2/C"
_symmetry_group_IT_number 15
_symmetry_cell_setting 'monoclinic'
loop_
_space_group_symop_operation_xyz
x,y,z
-x,y,1/2-z
-x,-y,-z
x,-y,1/2+z
1/2+x,1/2+y,z
1/2-x,1/2+y,1/2-z
1/2-x,1/2-y,-z
1/2+x,1/2-y,1/2+z
loop_
_atom_site_type_symbol
_atom_site_label
_atom_site_fract_x
_atom_site_fract_y
_atom_site_fract_z
Si Si1 0.542947 0.693561 0.963113
Si Si2 0.571415 0.852889 0.015407
Si Si3 0.270255 0.737265 0.305859
Si Si4 0.000000 0.879791 0.250000
Si Si5 0.000000 0.374346 0.750000
Si Si6 0.756502 0.052672 0.342559
Si Si7 0.500000 0.385626 0.750000
Si Si8 0.743883 0.553155 0.503983
O O1 0.429137 0.734070 0.119081
O O2 0.570270 0.653266 0.066601
O O3 0.681546 0.723242 0.795623
O O4 0.469207 0.659372 0.911805
O O5 0.500000 0.841372 0.250000
O O6 0.700299 0.816951 0.863262
O O7 0.498728 0.848855 0.920210
O O8 0.629504 0.909470 0.974757
O O9 0.250000 0.750000 0.500000
O O10 0.881187 0.915360 0.308647
O O11 0.130285 0.409785 0.618808
O O12 0.884473 0.079915 0.292430
O O13 0.792224 0.043375 0.134043
O O14 0.728132 0.999220 0.444518
#
# Coordination Sequence:
#
# PCOD9300248 Si02
#       8
#     8   8   8   4   4   8   4   8
#     4  12  25  43  72  96 138 175 224 285 344 413
#     4  11  24  43  71 102 138 188 237 288 358 416
#     4  12  23  45  70 103 134 179 232 285 343 422
#     4  12  27  47  64 104 140 176 227 285 344 414
#     4  10  26  47  66 101 151 178 235 302 340 418
#     4  11  25  42  68 100 138 181 233 285 348 416
#     4  12  21  44  68  93 135 184 218 281 344 408
#     4  11  26  44  68 100 141 181 235 288 344 416
#
# _framework density 22.28415
#
# number of rings (size 3 to 8) (size 9 to 14) (size 15 to 20)
#    0.000    0.615    4.615    2.308    5.385    6.154 
#    0.000    0.000    0.000    0.000    0.000    0.000 
#    0.000    0.000    0.000    0.000    0.000    0.000 
#
# Total GULP energy -145191.410660 kJ/mol
# GULP energy per Si atom -5584.285025 kJ/mol
# Density = 2.223343 g / cm^3
# Si number density = 22.284150 Si / 1000 Ang^3
#
#
#
# Elastic Constant Matrix: (Units=GPa)
#
#
# Indices 1 2 3 4 5 6 
#
# 1 85.3317 7.2255 19.5707 0.0000 12.4098 0.0000
# 2 7.2255 70.2258 10.2457 0.0000 14.1453 0.0000
# 3 19.5707 10.2457 62.6959 0.0000 11.3201 0.0000
# 4 0.0000 0.0000 0.0000 23.9865 0.0000 3.7923
# 5 12.4098 14.1453 11.3201 0.0000 35.8933 0.0000
# 6 0.0000 0.0000 0.0000 3.7923 0.0000 44.1422
#
#
#
# Elastic Compliance Matrix: (Units=1/GPa)
#
#
# Indices 1 2 3 4 5 6 
#
# 1 0.013006 -0.000163 -0.003428 0.000000 -0.003351 0.000000
# 2 -0.000163 0.015606 -0.001484 0.000000 -0.005626 0.000000
# 3 -0.003428 -0.001484 0.017966 0.000000 -0.003896 0.000000
# 4 0.000000 0.000000 0.000000 0.042264 0.000000 -0.003631
# 5 -0.003351 -0.005626 -0.003896 0.000000 0.032465 0.000000
# 6 0.000000 0.000000 0.000000 -0.003631 0.000000 0.022966
#
#
# Mechanical properties :
#
#
# Convention : Reuss Voigt Hill
#
# Bulk Modulus (GPa) = 27.45070 32.48191 29.96631
# Shear Modulus (GPa) = 30.01802 32.88519 31.45160
#
# Velocity S-wave (km/s) = 3.67421 3.84568 3.76092
# Velocity P-wave (km/s) = 5.50863 5.85891 5.68647
#
# Compressibility (1/GPa) = 0.03642894
#
# Stress axis : x y z
#
# Youngs Moduli (GPa) = 76.88505 64.07691 55.66050
#
# Poissons Ratio (x) = 0.01044 0.19082
# Poissons Ratio (y) = 0.01253 0.08258
# Poissons Ratio (z) = 0.26358 0.09507
#
# Static dielectric constant tensor:
#      x y z
#    x 1.871470 0.000000 0.074900 
#    y 0.000000 1.811910 0.000000 
#    z 0.074900 0.000000 1.887100 
# 
# From -- ./inp_files/43437.got.cif
#   From: 2010.05.17/outbox.cif.g08.bks.cpg/sg15_22_cif.got.tgz:43437.got - 2010.06.03 18:47:42.
