data_PCOD9300465
_publ_section_title
;
Structure prediction by ZEFSAII (Michael W. Deem and Ramdas Pophale) SiO2 
 PCOD9300465
Probable space group: C 2/C
;
_chemical_formula_sum "Si O2"
_cell_formula_units_Z 56
_cell_length_a 5.119945
_cell_length_b 22.156235
_cell_length_c 21.892333
_cell_angle_alpha 90.000000
_cell_angle_beta 111.030768
_cell_angle_gamma 90.000000
_cell_volume 2318.010752
_symmetry_space_group_name_H-M "C 2/C"
_symmetry_group_IT_number 15
_symmetry_cell_setting 'monoclinic'
loop_
_space_group_symop_operation_xyz
x,y,z
-x,y,1/2-z
-x,-y,-z
x,-y,1/2+z
1/2+x,1/2+y,z
1/2-x,1/2+y,1/2-z
1/2-x,1/2-y,-z
1/2+x,1/2-y,1/2+z
loop_
_atom_site_type_symbol
_atom_site_label
_atom_site_fract_x
_atom_site_fract_y
_atom_site_fract_z
Si Si1 0.000000 0.346330 0.250000
Si Si2 0.007782 0.208381 0.004748
Si Si3 0.500000 0.268591 0.250000
Si Si4 0.534858 0.965530 0.184848
Si Si5 0.407885 0.067056 0.005155
Si Si6 0.197694 0.093410 0.561556
Si Si7 0.750058 0.661996 0.154341
Si Si8 0.752610 0.585433 0.346903
O O1 0.719154 0.306164 0.225980
O O2 0.911439 0.394301 0.296376
O O3 0.120274 0.175739 0.076049
O O4 0.250000 0.250000 0.000000
O O5 0.750000 0.250000 0.000000
O O6 0.908105 0.162075 0.943156
O O7 0.307053 0.225263 0.192214
O O8 0.500000 0.990439 0.250000
O O9 0.262006 0.954573 0.120326
O O10 0.734944 0.014374 0.169756
O O11 0.514719 0.099042 0.952498
O O12 0.082948 0.067937 0.993447
O O13 0.598741 0.090578 0.074960
O O14 0.500000 0.000000 0.000000
O O15 0.541878 0.617373 0.172324
O O16 0.041291 0.626109 0.175797
#
# Coordination Sequence:
#
# PCOD9300465 Si02
#       8
#     4   8   4   8   8   8   8   8
#     4  10  28  53  72 107 148 196 264 302 378 466
#     4  12  26  43  72 107 146 190 254 314 362 440
#     4  12  28  53  76 101 152 204 250 318 378 466
#     4  10  28  49  75 113 150 205 246 318 389 463
#     4  12  23  42  71 106 144 191 226 299 376 444
#     4  12  25  45  70 108 146 194 244 301 386 436
#     4  12  28  48  76 113 147 204 249 315 389 444
#     4  12  24  49  73 110 157 182 258 312 374 473
#
# _framework density 24.158643999999999
#
# number of rings (size 3 to 8) (size 9 to 14) (size 15 to 20)
#    0.429    0.000    4.286    3.000    7.000    2.286 
#    0.000    0.000    0.000    0.000    0.000    0.000 
#    0.000    0.000    0.000    0.000    0.000    0.000 
#
# Total GULP energy -156222.033983 kJ/mol
# GULP energy per Si atom -5579.358357 kJ/mol
# Density = 2.410366 g / cm^3
# Si number density = 24.158644 Si / 1000 Ang^3
#
#
#
# Elastic Constant Matrix: (Units=GPa)
#
#
# Indices 1 2 3 4 5 6 
#
# 1 136.2172 67.5556 30.8816 0.0000 -1.7817 0.0000
# 2 67.5556 143.7123 25.8188 0.0000 0.1951 0.0000
# 3 30.8816 25.8188 102.2474 0.0000 -1.3703 0.0000
# 4 0.0000 0.0000 0.0000 20.3669 0.0000 -4.8522
# 5 -1.7817 0.1951 -1.3703 0.0000 19.2150 0.0000
# 6 0.0000 0.0000 0.0000 -4.8522 0.0000 42.3572
#
#
#
# Elastic Compliance Matrix: (Units=1/GPa)
#
#
# Indices 1 2 3 4 5 6 
#
# 1 0.009928 -0.004328 -0.001895 0.000000 0.000829 0.000000
# 2 -0.004328 0.009176 -0.001018 0.000000 -0.000567 0.000000
# 3 -0.001895 -0.001018 0.010617 0.000000 0.000592 0.000000
# 4 0.000000 0.000000 0.000000 0.050477 0.000000 0.005782
# 5 0.000829 -0.000567 0.000592 0.000000 0.052168 0.000000
# 6 0.000000 0.000000 0.000000 0.005782 0.000000 0.024271
#
#
# Mechanical properties :
#
#
# Convention : Reuss Voigt Hill
#
# Bulk Modulus (GPa) = 65.60948 70.07655 67.84301
# Shear Modulus (GPa) = 28.37730 33.58254 30.97992
#
# Velocity S-wave (km/s) = 3.43100 3.73243 3.58488
# Velocity P-wave (km/s) = 6.55075 6.90250 6.72892
#
# Compressibility (1/GPa) = 0.01524170
#
# Stress axis : x y z
#
# Youngs Moduli (GPa) = 100.72731 108.97721 94.18567
#
# Poissons Ratio (x) = 0.47161 0.17844
# Poissons Ratio (y) = 0.43590 0.09585
# Poissons Ratio (z) = 0.19084 0.11090
#
# Static dielectric constant tensor:
#      x y z
#    x 1.927440 0.000000 -0.044050 
#    y 0.000000 1.853780 0.000000 
#    z -0.044050 0.000000 1.999410 
# 
# From -- ./inp_files/286462.got.cif
#   From: 2010.05.17/outbox.cif.g08.bks.cpg/sg15_144_cif.got.tgz:286462.got - 2010.06.03 18:47:42.
