data_PCOD9300707
_publ_section_title
;
Structure prediction by ZEFSAII (Michael W. Deem and Ramdas Pophale) SiO2 
 PCOD9300707
Probable space group: C 2/C
;
_chemical_formula_sum "Si O2"
_cell_formula_units_Z 32
_cell_length_a 21.140482
_cell_length_b 10.787175
_cell_length_c 8.299578
_cell_angle_alpha 90.000000
_cell_angle_beta 69.968842
_cell_angle_gamma 90.000000
_cell_volume 1778.190983
_symmetry_space_group_name_H-M "C 2/C"
_symmetry_group_IT_number 15
_symmetry_cell_setting 'monoclinic'
loop_
_space_group_symop_operation_xyz
x,y,z
-x,y,1/2-z
-x,-y,-z
x,-y,1/2+z
1/2+x,1/2+y,z
1/2-x,1/2+y,1/2-z
1/2-x,1/2-y,-z
1/2+x,1/2-y,1/2+z
loop_
_atom_site_type_symbol
_atom_site_label
_atom_site_fract_x
_atom_site_fract_y
_atom_site_fract_z
Si Si1 0.646637 0.934534 0.962199
Si Si2 0.921831 0.339178 0.781611
Si Si3 0.692763 0.656585 0.612557
Si Si4 0.251776 0.929564 0.373225
O O1 0.693863 0.867087 0.053946
O O2 0.608446 0.045266 0.089707
O O3 0.594347 0.864409 0.893112
O O4 0.700367 0.993042 0.790692
O O5 0.878304 0.218333 0.864053
O O6 0.000000 0.327016 0.750000
O O7 0.750000 0.750000 0.500000
O O8 0.707127 0.525851 0.514648
O O9 0.705548 0.647275 0.792763
#
# Coordination Sequence:
#
# PCOD9300707 Si02
#       4
#     8   8   8   8
#     4   9  17  33  54  81 107 130 175 229 257 303
#     4  11  21  34  53  80 113 143 166 212 274 314
#     4  11  19  36  56  77 108 136 176 218 259 311
#     4   9  18  33  55  83 100 131 183 224 248 296
#
# _framework density 17.995818
#
# number of rings (size 3 to 8) (size 9 to 14) (size 15 to 20)
#    0.000    2.000    7.500    0.750    0.000    1.000 
#    0.000    1.250    0.000    0.000    0.000    0.000 
#    0.000    0.000    0.000    0.000    0.000    0.000 
#
# Total GULP energy -89121.699262 kJ/mol
# GULP energy per Si atom -5570.106204 kJ/mol
# Density = 1.795486 g / cm^3
# Si number density = 17.995818 Si / 1000 Ang^3
#
#
#
# Elastic Constant Matrix: (Units=GPa)
#
#
# Indices 1 2 3 4 5 6 
#
# 1 150.3136 45.2398 48.4271 0.0000 -3.3889 0.0000
# 2 45.2398 46.5465 25.9450 0.0000 5.0032 0.0000
# 3 48.4271 25.9450 77.7326 0.0000 16.5746 0.0000
# 4 0.0000 0.0000 0.0000 35.8035 0.0000 14.4297
# 5 -3.3889 5.0032 16.5746 0.0000 30.4216 0.0000
# 6 0.0000 0.0000 0.0000 14.4297 0.0000 86.1219
#
#
#
# Elastic Compliance Matrix: (Units=1/GPa)
#
#
# Indices 1 2 3 4 5 6 
#
# 1 0.010960 -0.008336 -0.005203 0.000000 0.005427 0.000000
# 2 -0.008336 0.032741 -0.004966 0.000000 -0.003608 0.000000
# 3 -0.005203 -0.004966 0.020041 0.000000 -0.010682 0.000000
# 4 0.000000 0.000000 0.000000 0.029953 0.000000 -0.005019
# 5 0.005427 -0.003608 -0.010682 0.000000 0.039889 0.000000
# 6 0.000000 0.000000 0.000000 -0.005019 0.000000 0.012452
#
#
# Mechanical properties :
#
#
# Convention : Reuss Voigt Hill
#
# Bulk Modulus (GPa) = 37.40597 57.09072 47.24834
# Shear Modulus (GPa) = 26.04752 40.80145 33.42448
#
# Velocity S-wave (km/s) = 3.80863 4.76676 4.31437
# Velocity P-wave (km/s) = 6.33813 7.87967 7.15056
#
# Compressibility (1/GPa) = 0.02673370
#
# Stress axis : x y z
#
# Youngs Moduli (GPa) = 91.23974 30.54255 49.89720
#
# Poissons Ratio (x) = 0.25459 0.25962
# Poissons Ratio (y) = 0.76054 0.24778
# Poissons Ratio (z) = 0.47472 0.15167
#
# Static dielectric constant tensor:
#      x y z
#    x 1.624770 0.000000 0.045330 
#    y 0.000000 1.640840 0.000000 
#    z 0.045330 0.000000 1.643460 
# 
# From -- ./inp_files/45633.got.cif
#   From: 2010.05.17/outbox.cif.g08.bks.cpg/sg15_23_cif.got.tgz:45633.got - 2010.06.03 18:47:42.
