data_PCOD9300800
_publ_section_title
;
Structure prediction by ZEFSAII (Michael W. Deem and Ramdas Pophale) SiO2 
 PCOD9300800
Probable space group: C 2/C
;
_chemical_formula_sum "Si O2"
_cell_formula_units_Z 64
_cell_length_a 28.315519
_cell_length_b 20.765336
_cell_length_c 13.735503
_cell_angle_alpha 90.000000
_cell_angle_beta 157.188892
_cell_angle_gamma 90.000000
_cell_volume 3131.103871
_symmetry_space_group_name_H-M "C 2/C"
_symmetry_group_IT_number 15
_symmetry_cell_setting 'monoclinic'
loop_
_space_group_symop_operation_xyz
x,y,z
-x,y,1/2-z
-x,-y,-z
x,-y,1/2+z
1/2+x,1/2+y,z
1/2-x,1/2+y,1/2-z
1/2-x,1/2-y,-z
1/2+x,1/2-y,1/2+z
loop_
_atom_site_type_symbol
_atom_site_label
_atom_site_fract_x
_atom_site_fract_y
_atom_site_fract_z
Si Si1 0.380767 0.669632 0.734366
Si Si2 0.464843 0.074023 0.522620
Si Si3 0.407174 0.617795 0.482433
Si Si4 0.815367 0.529039 0.427655
Si Si5 0.975189 0.723014 0.559492
Si Si6 0.343778 0.906883 0.604067
Si Si7 0.877012 0.276484 0.567265
Si Si8 0.794337 0.268905 0.894711
O O1 0.277530 0.620494 0.573304
O O2 0.339974 0.717200 0.567922
O O3 0.500910 0.631041 0.931137
O O4 0.416492 0.720824 0.884603
O O5 0.369263 0.047988 0.423359
O O6 0.464540 0.150767 0.501956
O O7 0.422142 0.053848 0.333171
O O8 0.593708 0.062372 0.821019
O O9 0.320900 0.555580 0.319752
O O10 0.305981 0.675025 0.288755
O O11 0.500000 0.615432 0.750000
O O12 0.820698 0.454572 0.469569
O O13 0.894203 0.716664 0.502424
O O14 0.118154 0.739675 0.847282
O O15 0.401295 0.841427 0.671576
O O16 0.780736 0.288608 0.297878
O O17 0.000000 0.255467 0.750000
#
# Coordination Sequence:
#
# PCOD9300800 Si02
#       8
#     8   8   8   8   8   8   8   8
#     4  12  23  39  67  98 131 170 215 274 334 398
#     4  11  21  43  73  93 128 176 228 272 334 388
#     4  12  22  40  66  95 126 175 225 258 321 404
#     4  11  25  44  64  98 131 180 226 274 323 390
#     4  11  21  37  69  97 126 168 212 273 335 397
#     4  12  26  43  68  97 139 173 229 274 325 403
#     4  12  23  40  67 102 133 167 218 278 340 390
#     4  11  19  39  61  96 130 165 211 267 333 394
#
# _framework density 20.440076000000001
#
# number of rings (size 3 to 8) (size 9 to 14) (size 15 to 20)
#    0.000    0.500    7.500    3.000    1.750    1.000 
#    2.250    1.250    0.000    0.000    0.000    0.000 
#    0.000    0.000    0.000    0.000    0.000    0.000 
#
# Total GULP energy -178346.310947 kJ/mol
# GULP energy per Si atom -5573.322217 kJ/mol
# Density = 2.039355 g / cm^3
# Si number density = 20.440076 Si / 1000 Ang^3
#
#
#
# Elastic Constant Matrix: (Units=GPa)
#
#
# Indices 1 2 3 4 5 6 
#
# 1 34.8192 7.7242 19.2275 0.0000 -6.7195 0.0000
# 2 7.7242 66.2636 17.6100 0.0000 -7.7128 0.0000
# 3 19.2275 17.6100 121.3715 0.0000 2.6461 0.0000
# 4 0.0000 0.0000 0.0000 -28.1103 0.0000 42.8184
# 5 -6.7195 -7.7128 2.6461 0.0000 23.6100 0.0000
# 6 0.0000 0.0000 0.0000 42.8184 0.0000 -44.5467
#
#
#
# Elastic Compliance Matrix: (Units=1/GPa)
#
#
# Indices 1 2 3 4 5 6 
#
# 1 0.033889 -0.001380 -0.005382 0.000000 0.009797 0.000000
# 2 -0.001380 0.016470 -0.002285 0.000000 0.005244 0.000000
# 3 -0.005382 -0.002285 0.009496 0.000000 -0.003343 0.000000
# 4 0.000000 0.000000 0.000000 0.076647 0.000000 0.073673
# 5 0.009797 0.005244 -0.003343 0.000000 0.047231 0.000000
# 6 0.000000 0.000000 0.000000 0.073673 0.000000 0.048367
#
#
# Mechanical properties :
#
#
# Convention : Reuss Voigt Hill
#
# Bulk Modulus (GPa) = 23.94603 34.61974 29.28289
# Shear Modulus (GPa) = 18.93125 2.05010 10.49067
#
# Velocity S-wave (km/s) = 3.04663 1.00258 2.26794
# Velocity P-wave (km/s) = 4.91086 4.27951 4.60602
#
# Compressibility (1/GPa) = 0.04176057
#
# Stress axis : x y z
#
# Youngs Moduli (GPa) = 29.50842 60.71732 105.30477
#
# Poissons Ratio (x) = 0.08377 0.56675
# Poissons Ratio (y) = 0.04071 0.24066
# Poissons Ratio (z) = 0.15882 0.13876
#
# Static dielectric constant tensor:
#      x y z
#    x 1.803110 0.000000 -0.052450 
#    y 0.000000 1.739470 0.000000 
#    z -0.052450 0.000000 1.846230 
# 
# From -- ./inp_files/183144.got.cif
#   From: 2010.05.17/outbox.cif.g08.bks.cpg/sg15_92_cif.got.tgz:183144.got - 2010.06.03 18:47:42.
