data_PCOD9300292
_publ_section_title
;
Structure prediction by ZEFSAII (Michael W. Deem and Ramdas Pophale) SiO2 
 PCOD9300292
Probable space group: C 2/C
;
_chemical_formula_sum "Si O2"
_cell_formula_units_Z 56
_cell_length_a 18.322088
_cell_length_b 16.925834
_cell_length_c 8.698105
_cell_angle_alpha 90.000000
_cell_angle_beta 74.395932
_cell_angle_gamma 90.000000
_cell_volume 2598.009130
_symmetry_space_group_name_H-M "C 2/C"
_symmetry_group_IT_number 15
_symmetry_cell_setting 'monoclinic'
loop_
_space_group_symop_operation_xyz
x,y,z
-x,y,1/2-z
-x,-y,-z
x,-y,1/2+z
1/2+x,1/2+y,z
1/2-x,1/2+y,1/2-z
1/2-x,1/2-y,-z
1/2+x,1/2-y,1/2+z
loop_
_atom_site_type_symbol
_atom_site_label
_atom_site_fract_x
_atom_site_fract_y
_atom_site_fract_z
Si Si1 0.000000 0.494146 0.250000
Si Si2 0.500000 0.540127 0.250000
Si Si3 0.950536 0.235733 0.560457
Si Si4 0.428099 0.852613 0.136471
Si Si5 0.216112 0.179518 0.413302
Si Si6 0.667733 0.750214 0.119135
Si Si7 0.122013 0.368731 0.673824
Si Si8 0.063118 0.900389 0.021539
O O1 0.021985 0.431210 0.370525
O O2 0.071561 0.552864 0.215393
O O3 0.449633 0.482684 0.385014
O O4 0.448269 0.586609 0.156418
O O5 0.885451 0.211316 0.478720
O O6 0.917014 0.297309 0.706107
O O7 0.012492 0.282801 0.424974
O O8 0.994995 0.160301 0.595983
O O9 0.373611 0.833064 0.311023
O O10 0.381292 0.853454 0.006343
O O11 0.250000 0.250000 0.500000
O O12 0.180256 0.211188 0.276520
O O13 0.289964 0.126960 0.332051
O O14 0.144376 0.134480 0.525125
O O15 0.750000 0.750000 0.000000
#
# Coordination Sequence:
#
# PCOD9300292 Si02
#       8
#     4   4   8   8   8   8   8   8
#     4  12  26  44  72 104 154 190 236 284 360 448
#     4  10  26  48  72 106 132 190 232 292 370 414
#     4  12  23  43  77 104 133 190 245 292 341 428
#     4  12  24  45  69 105 140 195 236 291 349 419
#     4  12  25  45  70 105 143 181 237 303 350 418
#     4  12  24  40  67 105 141 180 244 298 350 405
#     4  12  26  43  70 108 144 190 238 283 367 421
#     4  11  25  47  75 101 142 180 242 295 352 430
#
# _framework density 21.554964999999999
#
# number of rings (size 3 to 8) (size 9 to 14) (size 15 to 20)
#    0.000    0.286    7.143    1.286    4.000    0.000 
#    2.571    1.429    0.000    0.000    0.000    0.000 
#    0.000    0.000    0.000    0.000    0.000    0.000 
#
# Total GULP energy -156339.902753 kJ/mol
# GULP energy per Si atom -5583.567955 kJ/mol
# Density = 2.150591 g / cm^3
# Si number density = 21.554965 Si / 1000 Ang^3
#
#
#
# Elastic Constant Matrix: (Units=GPa)
#
#
# Indices 1 2 3 4 5 6 
#
# 1 167.6442 60.7163 27.7624 0.0000 5.9247 0.0000
# 2 60.7163 76.1550 31.9533 0.0000 11.4881 0.0000
# 3 27.7624 31.9533 86.1344 0.0000 11.5431 0.0000
# 4 0.0000 0.0000 0.0000 26.7850 0.0000 9.1181
# 5 5.9247 11.4881 11.5431 0.0000 38.1835 0.0000
# 6 0.0000 0.0000 0.0000 9.1181 0.0000 40.1115
#
#
#
# Elastic Compliance Matrix: (Units=1/GPa)
#
#
# Indices 1 2 3 4 5 6 
#
# 1 0.008415 -0.006689 -0.000339 0.000000 0.000809 0.000000
# 2 -0.006689 0.021219 -0.005210 0.000000 -0.003771 0.000000
# 3 -0.000339 -0.005210 0.014002 0.000000 -0.002613 0.000000
# 4 0.000000 0.000000 0.000000 0.040466 0.000000 -0.009199
# 5 0.000809 -0.003771 -0.002613 0.000000 0.027988 0.000000
# 6 0.000000 0.000000 0.000000 -0.009199 0.000000 0.027022
#
#
# Mechanical properties :
#
#
# Convention : Reuss Voigt Hill
#
# Bulk Modulus (GPa) = 52.19448 63.42194 57.80821
# Shear Modulus (GPa) = 29.41605 34.98276 32.19941
#
# Velocity S-wave (km/s) = 3.69819 4.03296 3.86920
# Velocity P-wave (km/s) = 6.51941 7.15357 6.84384
#
# Compressibility (1/GPa) = 0.01915912
#
# Stress axis : x y z
#
# Youngs Moduli (GPa) = 118.83346 47.12764 71.41742
#
# Poissons Ratio (x) = 0.31523 0.02424
# Poissons Ratio (y) = 0.79486 0.37211
# Poissons Ratio (z) = 0.04033 0.24555
#
# Static dielectric constant tensor:
#      x y z
#    x 1.813830 0.000000 0.004350 
#    y 0.000000 1.818200 0.000000 
#    z 0.004350 0.000000 1.902180 
# 
# From -- ./inp_files/49072.got.cif
#   From: 2010.05.17/outbox.cif.g08.bks.cpg/sg15_25_cif.got.tgz:49072.got - 2010.06.03 18:47:42.
