data_PCOD9300260
_publ_section_title
;
Structure prediction by ZEFSAII (Michael W. Deem and Ramdas Pophale) SiO2 
 PCOD9300260
Probable space group: C 2/C
;
_chemical_formula_sum "Si O2"
_cell_formula_units_Z 40
_cell_length_a 28.159845
_cell_length_b 7.351972
_cell_length_c 12.171978
_cell_angle_alpha 90.000000
_cell_angle_beta 37.723328
_cell_angle_gamma 90.000000
_cell_volume 1541.841087
_symmetry_space_group_name_H-M "C 2/C"
_symmetry_group_IT_number 15
_symmetry_cell_setting 'monoclinic'
loop_
_space_group_symop_operation_xyz
x,y,z
-x,y,1/2-z
-x,-y,-z
x,-y,1/2+z
1/2+x,1/2+y,z
1/2-x,1/2+y,1/2-z
1/2-x,1/2-y,-z
1/2+x,1/2-y,1/2+z
loop_
_atom_site_type_symbol
_atom_site_label
_atom_site_fract_x
_atom_site_fract_y
_atom_site_fract_z
Si Si1 0.091395 0.780725 0.462238
Si Si2 0.359930 0.706725 0.091434
Si Si3 0.830290 0.327766 0.899269
Si Si4 0.944996 0.169087 0.135014
Si Si5 0.312776 0.776592 0.512664
O O1 0.110890 0.719690 0.304005
O O2 0.141654 0.676136 0.458980
O O3 0.999150 0.750402 0.631389
O O4 0.122731 0.988514 0.427018
O O5 0.423767 0.776944 0.062543
O O6 0.274969 0.762266 0.291842
O O7 0.359000 0.756251 0.965380
O O8 0.815831 0.540740 0.937847
O O9 0.750000 0.250000 0.000000
O O10 0.862956 0.134805 0.347647
O O11 0.000000 0.000000 0.000000
#
# Coordination Sequence:
#
# PCOD9300260 Si02
#       5
#     8   8   8   8   8
#     4  11  26  49  73 109 155 197 256 324 390 466
#     4  11  24  45  77 107 147 208 254 317 389 463
#     4  12  26  46  74 115 151 191 269 325 385 464
#     4  10  26  47  72 110 148 201 256 319 391 468
#     4  12  24  45  78 104 155 201 259 319 388 460
#
# _framework density 25.943010999999998
#
# number of rings (size 3 to 8) (size 9 to 14) (size 15 to 20)
#    0.000    0.800    4.000    1.200    8.400    3.200 
#    3.600    0.000    0.000    0.000    0.000    0.000 
#    0.000    0.000    0.000    0.000    0.000    0.000 
#
# Total GULP energy -111820.257293 kJ/mol
# GULP energy per Si atom -5591.012865 kJ/mol
# Density = 2.588396 g / cm^3
# Si number density = 25.943011 Si / 1000 Ang^3
#
#
#
# Elastic Constant Matrix: (Units=GPa)
#
#
# Indices 1 2 3 4 5 6 
#
# 1 260.4449 15.3719 59.5323 -0.0001 14.3424 0.0000
# 2 15.3719 64.0615 24.8868 0.0003 11.5639 0.0001
# 3 59.5323 24.8868 99.3459 0.0000 16.3660 0.0000
# 4 -0.0001 0.0003 0.0000 29.6553 0.0000 8.2342
# 5 14.3424 11.5639 16.3660 0.0000 60.2941 0.0000
# 6 0.0000 0.0001 0.0000 8.2342 0.0000 45.1838
#
#
#
# Elastic Compliance Matrix: (Units=1/GPa)
#
#
# Indices 1 2 3 4 5 6 
#
# 1 0.004456 0.000010 -0.002615 0.000000 -0.000352 0.000000
# 2 0.000010 0.017587 -0.004036 0.000000 -0.002280 0.000000
# 3 -0.002615 -0.004036 0.012995 0.000000 -0.002131 0.000000
# 4 0.000000 0.000000 0.000000 0.035518 0.000000 -0.006473
# 5 -0.000352 -0.002280 -0.002131 0.000000 0.017685 0.000000
# 6 0.000000 0.000000 0.000000 -0.006473 0.000000 0.023311
#
#
# Mechanical properties :
#
#
# Convention : Reuss Voigt Hill
#
# Bulk Modulus (GPa) = 45.96348 69.27049 57.61698
# Shear Modulus (GPa) = 37.85407 48.63072 43.24240
#
# Velocity S-wave (km/s) = 3.82399 4.33427 4.08710
# Velocity P-wave (km/s) = 6.10351 7.19770 6.67307
#
# Compressibility (1/GPa) = 0.02175640
#
# Stress axis : x y z
#
# Youngs Moduli (GPa) = 224.41316 56.85984 76.95324
#
# Poissons Ratio (x) = -0.00058 0.20122
# Poissons Ratio (y) = -0.00227 0.31060
# Poissons Ratio (z) = 0.58679 0.22950
#
# Static dielectric constant tensor:
#      x y z
#    x 2.280620 0.000000 -0.259880 
#    y 0.000000 2.258010 0.000000 
#    z -0.259880 0.000000 2.408240 
# 
# From -- ./inp_files/125447.got.cif
#   From: 2010.05.17/outbox.cif.g08.bks.cpg/sg15_63_cif.got.tgz:125447.got - 2010.06.03 18:47:42.
