data_PCOD9300433
_publ_section_title
;
Structure prediction by ZEFSAII (Michael W. Deem and Ramdas Pophale) SiO2 
 PCOD9300433
Probable space group: C 2/C
;
_chemical_formula_sum "Si O2"
_cell_formula_units_Z 60
_cell_length_a 22.289157
_cell_length_b 8.893988
_cell_length_c 14.380942
_cell_angle_alpha 90.000000
_cell_angle_beta 110.247890
_cell_angle_gamma 90.000000
_cell_volume 2674.698506
_symmetry_space_group_name_H-M "C 2/C"
_symmetry_group_IT_number 15
_symmetry_cell_setting 'monoclinic'
loop_
_space_group_symop_operation_xyz
x,y,z
-x,y,1/2-z
-x,-y,-z
x,-y,1/2+z
1/2+x,1/2+y,z
1/2-x,1/2+y,1/2-z
1/2-x,1/2-y,-z
1/2+x,1/2-y,1/2+z
loop_
_atom_site_type_symbol
_atom_site_label
_atom_site_fract_x
_atom_site_fract_y
_atom_site_fract_z
Si Si1 0.576174 0.467623 0.041522
Si Si2 0.983926 0.490637 0.882183
Si Si3 0.858240 0.333957 0.247266
Si Si4 0.069190 0.752078 0.880767
Si Si5 0.913330 0.203168 0.767308
Si Si6 0.000000 0.975479 0.750000
Si Si7 0.190035 0.605464 0.395736
Si Si8 0.672253 0.266402 0.569298
O O1 0.598055 0.410059 0.154060
O O2 0.612871 0.619261 0.033709
O O3 0.500000 0.500000 0.000000
O O4 0.596218 0.324523 0.987916
O O5 0.919656 0.582585 0.825172
O O6 0.965395 0.326314 0.833067
O O7 0.043397 0.581266 0.867999
O O8 0.000000 0.500000 0.000000
O O9 0.886895 0.220791 0.185460
O O10 0.820169 0.446018 0.158964
O O11 0.821289 0.279682 0.318782
O O12 0.006543 0.856710 0.835633
O O13 0.853013 0.284530 0.691206
O O14 0.942885 0.091523 0.707474
O O15 0.263977 0.647664 0.427850
O O16 0.166930 0.631636 0.490281
#
# Coordination Sequence:
#
# PCOD9300433 Si02
#       8
#     8   8   8   8   8   4   8   8
#     4  12  24  41  72 112 145 185 230 303 374 433
#     4  11  23  39  64 100 144 184 221 287 358 434
#     4  11  25  43  72  97 138 186 238 298 354 431
#     4  12  23  41  63 108 146 181 234 288 370 427
#     4  11  25  39  70 103 140 191 241 287 361 434
#     4  12  22  36  62 100 142 184 230 288 354 428
#     4  10  27  49  71 101 136 199 244 296 361 433
#     4  11  26  50  72 100 148 183 247 307 358 432
#
# _framework density 22.432434000000001
#
# number of rings (size 3 to 8) (size 9 to 14) (size 15 to 20)
#    0.000    0.800    4.000    2.400    7.467    0.000 
#    2.400    0.667    0.000    0.000    0.000    0.000 
#    0.000    0.000    0.000    0.000    0.000    0.000 
#
# Total GULP energy -167329.301216 kJ/mol
# GULP energy per Si atom -5577.643374 kJ/mol
# Density = 2.238138 g / cm^3
# Si number density = 22.432434 Si / 1000 Ang^3
#
#
#
# Elastic Constant Matrix: (Units=GPa)
#
#
# Indices 1 2 3 4 5 6 
#
# 1 81.7066 36.7516 27.5128 0.0000 -14.8024 0.0000
# 2 36.7516 79.3757 14.3037 0.0000 -7.5171 0.0000
# 3 27.5128 14.3037 94.5552 0.0000 -19.8956 0.0000
# 4 0.0000 0.0000 0.0000 41.7454 0.0000 -2.3401
# 5 -14.8024 -7.5171 -19.8956 0.0000 37.9661 0.0000
# 6 0.0000 0.0000 0.0000 -2.3401 0.0000 21.5692
#
#
#
# Elastic Compliance Matrix: (Units=1/GPa)
#
#
# Indices 1 2 3 4 5 6 
#
# 1 0.017112 -0.007011 -0.003155 0.000000 0.003631 0.000000
# 2 -0.007011 0.015925 -0.000316 0.000000 0.000254 0.000000
# 3 -0.003155 -0.000316 0.012666 0.000000 0.005345 0.000000
# 4 0.000000 0.000000 0.000000 0.024101 0.000000 0.002615
# 5 0.003631 0.000254 0.005345 0.000000 0.030606 0.000000
# 6 0.000000 0.000000 0.000000 0.002615 0.000000 0.046646
#
#
# Mechanical properties :
#
#
# Convention : Reuss Voigt Hill
#
# Bulk Modulus (GPa) = 40.41792 45.86374 43.14083
# Shear Modulus (GPa) = 28.36605 32.06078 30.21342
#
# Velocity S-wave (km/s) = 3.55985 3.78460 3.67394
# Velocity P-wave (km/s) = 5.91215 6.29184 6.10495
#
# Compressibility (1/GPa) = 0.02474150
#
# Stress axis : x y z
#
# Youngs Moduli (GPa) = 58.43713 62.79294 78.95040
#
# Poissons Ratio (x) = 0.44023 0.24907
# Poissons Ratio (y) = 0.40969 0.02492
# Poissons Ratio (z) = 0.18435 0.01982
#
# Static dielectric constant tensor:
#      x y z
#    x 1.905350 0.000000 -0.054330 
#    y 0.000000 1.857630 0.000000 
#    z -0.054330 0.000000 1.946240 
# 
# From -- ./inp_files/172429.got.cif
#   From: 2010.05.17/outbox.cif.g08.bks.cpg/sg15_87_cif.got.tgz:172429.got - 2010.06.03 18:47:42.
