data_PCOD9300924
_publ_section_title
;
Structure prediction by ZEFSAII (Michael W. Deem and Ramdas Pophale) SiO2 
 PCOD9300924
Probable space group: C 2/C
;
_chemical_formula_sum "Si O2"
_cell_formula_units_Z 40
_cell_length_a 15.853765
_cell_length_b 8.407893
_cell_length_c 24.355657
_cell_angle_alpha 90.000000
_cell_angle_beta 31.573483
_cell_angle_gamma 90.000000
_cell_volume 1699.856126
_symmetry_space_group_name_H-M "C 2/C"
_symmetry_group_IT_number 15
_symmetry_cell_setting 'monoclinic'
loop_
_space_group_symop_operation_xyz
x,y,z
-x,y,1/2-z
-x,-y,-z
x,-y,1/2+z
1/2+x,1/2+y,z
1/2-x,1/2+y,1/2-z
1/2-x,1/2-y,-z
1/2+x,1/2-y,1/2+z
loop_
_atom_site_type_symbol
_atom_site_label
_atom_site_fract_x
_atom_site_fract_y
_atom_site_fract_z
Si Si1 0.500000 0.960516 0.250000
Si Si2 0.347359 0.986604 0.544465
Si Si3 0.581671 0.963665 0.320512
Si Si4 0.283469 0.674511 0.041872
Si Si5 0.585881 0.347529 0.315286
Si Si6 0.000000 0.977526 0.750000
O O1 0.566221 0.884588 0.269430
O O2 0.649244 0.062438 0.141965
O O3 0.423877 0.932875 0.444469
O O4 0.295887 0.171020 0.572163
O O5 0.177841 0.897196 0.647341
O O6 0.500000 0.000000 0.500000
O O7 0.592401 0.155695 0.308218
O O8 0.738570 0.908097 0.265943
O O9 0.250000 0.750000 0.000000
O O10 0.460401 0.602983 0.933099
O O11 0.521650 0.422336 0.294372
#
# Coordination Sequence:
#
# PCOD9300924 Si02
#       6
#     4   8   8   8   8   4
#     4  12  21  40  63  88 127 166 201 270 303 378
#     4  11  20  33  59  96 117 156 209 266 294 355
#     4  11  23  38  63  93 127 160 211 253 319 365
#     4  11  20  35  61  91 114 158 219 252 302 370
#     4  11  22  38  61  97 119 163 209 258 307 374
#     4  12  19  36  67  90 121 162 219 256 293 374
#
# _framework density 23.531403000000001
#
# number of rings (size 3 to 8) (size 9 to 14) (size 15 to 20)
#    0.000    0.800    8.000    2.400    0.000    0.800 
#    0.000    1.000    0.000    2.400    0.000    0.000 
#    0.000    0.000    0.000    0.000    0.000    0.000 
#
# Total GULP energy -111640.989211 kJ/mol
# GULP energy per Si atom -5582.049461 kJ/mol
# Density = 2.347784 g / cm^3
# Si number density = 23.531403 Si / 1000 Ang^3
#
#
#
# Elastic Constant Matrix: (Units=GPa)
#
#
# Indices 1 2 3 4 5 6 
#
# 1 151.0507 21.2178 54.1351 0.0000 -13.7723 0.0000
# 2 21.2178 34.1114 33.3417 0.0000 -1.8643 0.0000
# 3 54.1351 33.3417 222.1441 -0.0003 -8.1669 0.0000
# 4 0.0000 0.0000 -0.0003 23.1023 0.0000 4.3327
# 5 -13.7723 -1.8643 -8.1669 0.0000 49.4111 0.0000
# 6 0.0000 0.0000 0.0000 4.3327 0.0000 17.6656
#
#
#
# Elastic Compliance Matrix: (Units=1/GPa)
#
#
# Indices 1 2 3 4 5 6 
#
# 1 0.007735 -0.003440 -0.001302 0.000000 0.001811 0.000000
# 2 -0.003440 0.035895 -0.004562 0.000000 -0.000359 0.000000
# 3 -0.001302 -0.004562 0.005518 0.000000 0.000377 0.000000
# 4 0.000000 0.000000 0.000000 0.045373 0.000000 -0.011128
# 5 0.001811 -0.000359 0.000377 0.000000 0.020792 0.000000
# 6 0.000000 0.000000 0.000000 -0.011128 0.000000 0.059336
#
#
# Mechanical properties :
#
#
# Convention : Reuss Voigt Hill
#
# Bulk Modulus (GPa) = 32.74468 69.41060 51.07764
# Shear Modulus (GPa) = 24.57758 37.94326 31.26042
#
# Velocity S-wave (km/s) = 3.23531 4.01989 3.64875
# Velocity P-wave (km/s) = 5.28222 7.14892 6.28526
#
# Compressibility (1/GPa) = 0.03053931
#
# Stress axis : x y z
#
# Youngs Moduli (GPa) = 129.27787 27.85891 181.23963
#
# Poissons Ratio (x) = 0.09583 0.23601
# Poissons Ratio (y) = 0.44467 0.82690
# Poissons Ratio (z) = 0.16834 0.12711
#
# Static dielectric constant tensor:
#      x y z
#    x 1.973720 0.000000 -0.051220 
#    y 0.000000 1.941040 0.000000 
#    z -0.051220 0.000000 2.004750 
# 
# From -- ./inp_files/151473.got.cif
#   From: 2010.05.17/outbox.cif.g08.bks.cpg/sg15_76_cif.got.tgz:151473.got - 2010.06.03 18:47:42.
