data_PCOD9300525
_publ_section_title
;
Structure prediction by ZEFSAII (Michael W. Deem and Ramdas Pophale) SiO2 
 PCOD9300525
Probable space group: C 2/C
;
_chemical_formula_sum "Si O2"
_cell_formula_units_Z 56
_cell_length_a 11.064912
_cell_length_b 31.982555
_cell_length_c 8.594607
_cell_angle_alpha 90.000000
_cell_angle_beta 59.925051
_cell_angle_gamma 90.000000
_cell_volume 2632.020598
_symmetry_space_group_name_H-M "C 2/C"
_symmetry_group_IT_number 15
_symmetry_cell_setting 'monoclinic'
loop_
_space_group_symop_operation_xyz
x,y,z
-x,y,1/2-z
-x,-y,-z
x,-y,1/2+z
1/2+x,1/2+y,z
1/2-x,1/2+y,1/2-z
1/2-x,1/2-y,-z
1/2+x,1/2-y,1/2+z
loop_
_atom_site_type_symbol
_atom_site_label
_atom_site_fract_x
_atom_site_fract_y
_atom_site_fract_z
Si Si1 0.587997 0.894362 0.329488
Si Si2 0.160391 0.154220 0.812178
Si Si3 0.401429 0.971167 0.956882
Si Si4 0.346107 0.743359 0.784906
Si Si5 0.139438 0.124481 0.463674
Si Si6 0.598300 0.529446 0.540592
Si Si7 0.593841 0.166200 0.345635
O O1 0.500000 0.915209 0.250000
O O2 0.726203 0.873256 0.173767
O O3 0.627970 0.929229 0.428084
O O4 0.496450 0.857322 0.466156
O O5 0.201454 0.202624 0.777452
O O6 0.163645 0.137485 0.629964
O O7 0.007881 0.146138 0.977626
O O8 0.500000 0.959644 0.750000
O O9 0.250515 0.988294 0.995646
O O10 0.500000 0.000000 0.000000
O O11 0.500000 0.732512 0.750000
O O12 0.363563 0.785033 0.670893
O O13 0.250000 0.750000 0.000000
O O14 0.129104 0.074792 0.448483
O O15 0.265581 0.141440 0.281311
O O16 0.500000 0.538864 0.750000
O O17 0.500000 0.500000 0.500000
O O18 0.500000 0.164815 0.250000
#
# Coordination Sequence:
#
# PCOD9300525 Si02
#       7
#     8   8   8   8   8   8   8
#     4  12  25  42  63  89 128 178 220 262 324 387
#     4  11  19  37  61  91 125 162 206 262 321 381
#     4  12  25  44  68  96 129 166 212 272 326 389
#     4  11  18  29  58  98 124 153 209 267 319 379
#     4  11  19  37  64  87 122 163 202 257 328 370
#     4  12  24  41  64  92 124 166 209 261 318 384
#     4  11  20  36  62  97 128 161 215 271 319 383
#
# _framework density 21.276429
#
# number of rings (size 3 to 8) (size 9 to 14) (size 15 to 20)
#    0.000    0.571    7.143    3.429    0.000    1.143 
#    0.000    1.429    0.000    0.000    0.000    0.000 
#    0.000    0.000    0.000    0.000    0.000    0.000 
#
# Total GULP energy -156500.520683 kJ/mol
# GULP energy per Si atom -5589.304310 kJ/mol
# Density = 2.122800 g / cm^3
# Si number density = 21.276429 Si / 1000 Ang^3
#
#
#
# Elastic Constant Matrix: (Units=GPa)
#
#
# Indices 1 2 3 4 5 6 
#
# 1 125.6767 39.8907 27.5114 0.0000 -26.7040 0.0000
# 2 39.8907 131.3599 1.2046 0.0000 -1.7610 0.0000
# 3 27.5114 1.2046 26.6035 0.0000 -21.2156 0.0000
# 4 0.0000 0.0000 0.0000 13.4105 0.0000 -14.0488
# 5 -26.7040 -1.7610 -21.2156 0.0000 36.7508 0.0000
# 6 0.0000 0.0000 0.0000 -14.0488 0.0000 29.8886
#
#
#
# Elastic Compliance Matrix: (Units=1/GPa)
#
#
# Indices 1 2 3 4 5 6 
#
# 1 0.011790 -0.003454 -0.009888 0.000000 0.002693 0.000000
# 2 -0.003454 0.008629 0.002797 0.000000 -0.000481 0.000000
# 3 -0.009888 0.002797 0.077952 0.000000 0.037949 0.000000
# 4 0.000000 0.000000 0.000000 0.146907 0.000000 0.069052
# 5 0.002693 -0.000481 0.037949 0.000000 0.051051 0.000000
# 6 0.000000 0.000000 0.000000 0.069052 0.000000 0.065915
#
#
# Mechanical properties :
#
#
# Convention : Reuss Voigt Hill
#
# Bulk Modulus (GPa) = 12.93984 46.76151 29.85067
# Shear Modulus (GPa) = 12.22212 30.34553 21.28382
#
# Velocity S-wave (km/s) = 2.39936 3.78067 3.16626
# Velocity P-wave (km/s) = 3.71091 6.40966 5.23711
#
# Compressibility (1/GPa) = 0.07728071
#
# Stress axis : x y z
#
# Youngs Moduli (GPa) = 84.81809 115.88399 12.82845
#
# Poissons Ratio (x) = 0.40021 0.12685
# Poissons Ratio (y) = 0.29292 -0.03588
# Poissons Ratio (z) = 0.83871 -0.32410
#
# Static dielectric constant tensor:
#      x y z
#    x 1.841800 0.000000 0.058410 
#    y 0.000000 1.806140 0.000000 
#    z 0.058410 0.000000 1.792450 
# 
# From -- ./inp_files/35552.got.cif
#   From: 2010.05.17/outbox.cif.g08.bks.cpg/sg15_18_cif.got.tgz:35552.got - 2010.06.03 18:47:42.
