data_PCOD9300812
_publ_section_title
;
Structure prediction by ZEFSAII (Michael W. Deem and Ramdas Pophale) SiO2 
 PCOD9300812
Probable space group: C 2/C
;
_chemical_formula_sum "Si O2"
_cell_formula_units_Z 48
_cell_length_a 20.803191
_cell_length_b 17.127066
_cell_length_c 11.759689
_cell_angle_alpha 90.000000
_cell_angle_beta 141.886853
_cell_angle_gamma 90.000000
_cell_volume 2586.105518
_symmetry_space_group_name_H-M "C 2/C"
_symmetry_group_IT_number 15
_symmetry_cell_setting 'monoclinic'
loop_
_space_group_symop_operation_xyz
x,y,z
-x,y,1/2-z
-x,-y,-z
x,-y,1/2+z
1/2+x,1/2+y,z
1/2-x,1/2+y,1/2-z
1/2-x,1/2-y,-z
1/2+x,1/2-y,1/2+z
loop_
_atom_site_type_symbol
_atom_site_label
_atom_site_fract_x
_atom_site_fract_y
_atom_site_fract_z
Si Si1 0.618460 0.911411 0.876208
Si Si2 0.240358 0.684150 0.733771
Si Si3 0.707168 0.080097 0.029538
Si Si4 0.414554 0.789326 0.280140
Si Si5 0.144985 0.342466 0.662899
Si Si6 0.391059 0.380147 0.636094
O O1 0.500000 0.897769 0.750000
O O2 0.637127 0.876927 0.777457
O O3 0.642298 0.003350 0.910575
O O4 0.694155 0.870364 0.072117
O O5 0.146825 0.711657 0.686320
O O6 0.295531 0.760165 0.759301
O O7 0.320792 0.638606 0.927815
O O8 0.653268 0.155490 0.896373
O O9 0.702139 0.098267 0.156105
O O10 0.820291 0.074532 0.128850
O O11 0.528249 0.825595 0.454965
O O12 0.417688 0.703430 0.231213
O O13 0.500000 0.417279 0.750000
#
# Coordination Sequence:
#
# PCOD9300812 Si02
#       6
#     8   8   8   8   8   8
#     4  12  27  41  60  93 134 165 194 252 323 373
#     4  11  22  40  64  92 123 164 211 249 306 363
#     4  11  24  38  63  98 123 160 206 255 317 361
#     4  11  19  39  66  96 117 162 210 263 299 354
#     4  12  22  40  67  89 129 160 208 256 301 370
#     4  11  20  40  69  92 118 159 216 266 291 357
#
# _framework density 18.560728000000001
#
# number of rings (size 3 to 8) (size 9 to 14) (size 15 to 20)
#    0.000    0.667    6.667    3.000    4.667    1.333 
#    0.000    0.833    3.667    0.000    0.000    0.000 
#    0.000    0.000    0.000    0.000    0.000    0.000 
#
# Total GULP energy -134186.326882 kJ/mol
# GULP energy per Si atom -5591.096953 kJ/mol
# Density = 1.851848 g / cm^3
# Si number density = 18.560728 Si / 1000 Ang^3
#
#
#
# Elastic Constant Matrix: (Units=GPa)
#
#
# Indices 1 2 3 4 5 6 
#
# 1 157.0838 25.1263 49.0747 0.0000 -2.3779 0.0000
# 2 25.1263 16.3306 -2.3333 0.0000 -3.8663 0.0000
# 3 49.0747 -2.3333 69.6486 0.0000 -1.1497 0.0000
# 4 0.0000 0.0000 0.0000 25.4547 0.0000 9.6925
# 5 -2.3779 -3.8663 -1.1497 0.0000 38.0148 0.0000
# 6 0.0000 0.0000 0.0000 9.6925 0.0000 15.6046
#
#
#
# Elastic Compliance Matrix: (Units=1/GPa)
#
#
# Indices 1 2 3 4 5 6 
#
# 1 0.012858 -0.021585 -0.009811 0.000000 -0.001688 0.000000
# 2 -0.021585 0.099322 0.018690 0.000000 0.009317 0.000000
# 3 -0.009811 0.018690 0.021929 0.000000 0.001950 0.000000
# 4 0.000000 0.000000 0.000000 0.051455 0.000000 -0.031960
# 5 -0.001688 0.009317 0.001950 0.000000 0.027207 0.000000
# 6 0.000000 0.000000 0.000000 -0.031960 0.000000 0.083935
#
#
# Mechanical properties :
#
#
# Convention : Reuss Voigt Hill
#
# Bulk Modulus (GPa) = 9.19986 42.97759 26.08873
# Shear Modulus (GPa) = 13.95285 27.22784 20.59034
#
# Velocity S-wave (km/s) = 2.74476 3.83425 3.33430
# Velocity P-wave (km/s) = 3.87458 6.54273 5.37679
#
# Compressibility (1/GPa) = 0.10869727
#
# Stress axis : x y z
#
# Youngs Moduli (GPa) = 77.77187 10.06828 45.60196
#
# Poissons Ratio (x) = 0.21732 0.44739
# Poissons Ratio (y) = 1.67870 -0.85230
# Poissons Ratio (z) = 0.76301 -0.18818
#
# Static dielectric constant tensor:
#      x y z
#    x 1.668880 0.000000 0.012590 
#    y 0.000000 1.608320 0.000000 
#    z 0.012590 0.000000 1.623850 
# 
# From -- ./inp_files/97170.got.cif
#   From: 2010.05.17/outbox.cif.g08.bks.cpg/sg15_49_cif.got.tgz:97170.got - 2010.06.03 18:47:42.
