data_PCOD9300946
_publ_section_title
;
Structure prediction by ZEFSAII (Michael W. Deem and Ramdas Pophale) SiO2 
 PCOD9300946
Probable space group: C 2/C
;
_chemical_formula_sum "Si O2"
_cell_formula_units_Z 60
_cell_length_a 19.688327
_cell_length_b 24.229031
_cell_length_c 9.117091
_cell_angle_alpha 90.000000
_cell_angle_beta 45.581104
_cell_angle_gamma 90.000000
_cell_volume 3106.321976
_symmetry_space_group_name_H-M "C 2/C"
_symmetry_group_IT_number 15
_symmetry_cell_setting 'monoclinic'
loop_
_space_group_symop_operation_xyz
x,y,z
-x,y,1/2-z
-x,-y,-z
x,-y,1/2+z
1/2+x,1/2+y,z
1/2-x,1/2+y,1/2-z
1/2-x,1/2-y,-z
1/2+x,1/2-y,1/2+z
loop_
_atom_site_type_symbol
_atom_site_label
_atom_site_fract_x
_atom_site_fract_y
_atom_site_fract_z
Si Si1 0.312989 0.287935 0.304662
Si Si2 0.793144 0.302490 0.344281
Si Si3 0.779315 0.918406 0.928977
Si Si4 0.469108 0.648041 0.145786
Si Si5 0.018960 0.249277 0.547737
Si Si6 0.307353 0.491158 0.161124
Si Si7 0.000000 0.024598 0.750000
Si Si8 0.359915 0.402300 0.274742
O O1 0.250000 0.250000 0.500000
O O2 0.265320 0.302433 0.221009
O O3 0.414169 0.256919 0.135390
O O4 0.320567 0.344519 0.387415
O O5 0.750000 0.250000 0.500000
O O6 0.777804 0.361600 0.449449
O O7 0.903485 0.291165 0.134803
O O8 0.887885 0.897272 0.781906
O O9 0.772822 0.950807 0.782918
O O10 0.766816 0.965765 0.072251
O O11 0.500000 0.677559 0.250000
O O12 0.438949 0.689441 0.062358
O O13 0.566892 0.619842 0.956154
O O14 0.000000 0.255465 0.750000
O O15 0.286911 0.443456 0.310818
O O16 0.423888 0.493641 0.968794
O O17 0.075238 0.063544 0.715594
#
# Coordination Sequence:
#
# PCOD9300946 Si02
#       8
#     8   8   8   8   8   8   4   8
#     4  11  24  41  64  95 135 168 221 269 325 395
#     4  12  25  44  66  94 135 176 219 271 326 391
#     4  12  23  39  56  89 125 176 214 263 321 386
#     4  11  20  34  57  85 132 173 208 259 314 388
#     4  11  24  40  66  95 128 179 217 265 333 384
#     4  12  22  35  55  82 127 173 214 257 315 388
#     4  12  22  32  56  88 122 172 220 244 318 408
#     4  11  22  32  53  85 127 167 208 261 309 382
#
# _framework density 19.315448
#
# number of rings (size 3 to 8) (size 9 to 14) (size 15 to 20)
#    0.000    0.533    8.000    2.000    3.733    1.067 
#    0.000    0.000    0.000    0.000    0.000    3.733 
#    0.000    0.000    0.000    0.000    0.000    0.000 
#
# Total GULP energy -167062.023136 kJ/mol
# GULP energy per Si atom -5568.734105 kJ/mol
# Density = 1.927149 g / cm^3
# Si number density = 19.315448 Si / 1000 Ang^3
#
#
#
# Elastic Constant Matrix: (Units=GPa)
#
#
# Indices 1 2 3 4 5 6 
#
# 1 28.3446 16.9109 11.0851 0.0000 -6.1600 0.0000
# 2 16.9109 130.5492 64.2376 0.0000 0.0790 0.0000
# 3 11.0851 64.2376 83.6651 0.0000 -0.6064 0.0000
# 4 0.0000 0.0000 0.0000 43.6028 0.0000 -5.2262
# 5 -6.1600 0.0790 -0.6064 0.0000 23.8719 0.0000
# 6 0.0000 0.0000 0.0000 -5.2262 0.0000 18.0267
#
#
#
# Elastic Compliance Matrix: (Units=1/GPa)
#
#
# Indices 1 2 3 4 5 6 
#
# 1 0.040934 -0.004304 -0.002043 0.000000 0.010525 0.000000
# 2 -0.004304 0.012765 -0.009241 0.000000 -0.001387 0.000000
# 3 -0.002043 -0.009241 0.019318 0.000000 -0.000006 0.000000
# 4 0.000000 0.000000 0.000000 0.023760 0.000000 0.006888
# 5 0.010525 -0.001387 -0.000006 0.000000 0.044611 0.000000
# 6 0.000000 0.000000 0.000000 0.006888 0.000000 0.057470
#
#
# Mechanical properties :
#
#
# Convention : Reuss Voigt Hill
#
# Bulk Modulus (GPa) = 23.89915 47.44734 35.67324
# Shear Modulus (GPa) = 20.49338 27.12197 23.80767
#
# Velocity S-wave (km/s) = 3.26081 3.75128 3.51461
# Velocity P-wave (km/s) = 5.15530 6.58639 5.91429
#
# Compressibility (1/GPa) = 0.04184249
#
# Stress axis : x y z
#
# Youngs Moduli (GPa) = 24.42959 78.33689 51.76443
#
# Poissons Ratio (x) = 0.33713 0.10575
# Poissons Ratio (y) = 0.10513 0.47836
# Poissons Ratio (z) = 0.04991 0.72392
#
# Static dielectric constant tensor:
#      x y z
#    x 1.701420 0.000000 0.044170 
#    y 0.000000 1.763620 0.000000 
#    z 0.044170 0.000000 1.854320 
# 
# From -- ./inp_files/58091.got.cif
#   From: 2010.05.17/outbox.cif.g08.bks.cpg/sg15_30_cif.got.tgz:58091.got - 2010.06.03 18:47:42.
