data_PCOD9300082
_publ_section_title
;
Structure prediction by ZEFSAII (Michael W. Deem and Ramdas Pophale) SiO2 
 PCOD9300082
Probable space group: C 2/C
;
_chemical_formula_sum "Si O2"
_cell_formula_units_Z 48
_cell_length_a 4.846346
_cell_length_b 16.813127
_cell_length_c 24.235953
_cell_angle_alpha 90.000000
_cell_angle_beta 87.500964
_cell_angle_gamma 90.000000
_cell_volume 1972.921393
_symmetry_space_group_name_H-M "C 2/C"
_symmetry_group_IT_number 15
_symmetry_cell_setting 'monoclinic'
loop_
_space_group_symop_operation_xyz
x,y,z
-x,y,1/2-z
-x,-y,-z
x,-y,1/2+z
1/2+x,1/2+y,z
1/2-x,1/2+y,1/2-z
1/2-x,1/2-y,-z
1/2+x,1/2-y,1/2+z
loop_
_atom_site_type_symbol
_atom_site_label
_atom_site_fract_x
_atom_site_fract_y
_atom_site_fract_z
Si Si1 0.921463 0.181203 0.395820
Si Si2 0.062463 0.312167 0.467855
Si Si3 0.871474 0.567786 0.623088
Si Si4 0.339367 0.470981 0.193978
Si Si5 0.565078 0.090260 0.071316
Si Si6 0.249647 0.345723 0.710662
O O1 0.855700 0.255503 0.435761
O O2 0.119827 0.117970 0.425308
O O3 0.116325 0.200842 0.342127
O O4 0.634629 0.138876 0.384589
O O5 0.250000 0.250000 0.500000
O O6 0.200883 0.359739 0.416415
O O7 0.965988 0.377114 0.512915
O O8 0.590038 0.532698 0.649054
O O9 0.018919 0.500962 0.584206
O O10 0.089051 0.582357 0.671589
O O11 0.500000 0.452527 0.250000
O O12 0.210741 0.560103 0.196609
O O13 0.500000 0.350363 0.750000
O O14 0.000000 0.313693 0.750000
#
# Coordination Sequence:
#
# PCOD9300082 Si02
#       6
#     8   8   8   8   8   8
#     4  11  22  41  62  95 131 171 217 267 332 387
#     4  10  26  44  66  94 141 182 216 275 336 395
#     4  12  22  42  68 101 130 174 222 275 325 394
#     4  11  23  40  67 101 130 164 218 280 335 383
#     4  11  21  41  65  96 128 172 226 266 317 391
#     4  11  20  36  64  92 124 162 215 269 326 390
#
# _framework density 24.329404
#
# number of rings (size 3 to 8) (size 9 to 14) (size 15 to 20)
#    0.000    1.000    3.333    4.500    0.000    5.333 
#    0.000    8.333    0.000    0.000    0.000    0.000 
#    0.000    0.000    0.000    0.000    0.000    0.000 
#
# Total GULP energy -133975.764654 kJ/mol
# GULP energy per Si atom -5582.323527 kJ/mol
# Density = 2.427403 g / cm^3
# Si number density = 24.329404 Si / 1000 Ang^3
#
#
#
# Elastic Constant Matrix: (Units=GPa)
#
#
# Indices 1 2 3 4 5 6 
#
# 1 113.5850 8.0381 29.5734 0.0000 -4.5184 0.0000
# 2 8.0381 48.4877 41.0950 0.0000 18.1920 0.0000
# 3 29.5734 41.0950 123.5327 0.0000 3.8641 0.0000
# 4 0.0000 0.0000 0.0000 55.5126 0.0000 7.6845
# 5 -4.5184 18.1920 3.8641 0.0000 28.3576 0.0000
# 6 0.0000 0.0000 0.0000 7.6845 0.0000 19.1162
#
#
#
# Elastic Compliance Matrix: (Units=1/GPa)
#
#
# Indices 1 2 3 4 5 6 
#
# 1 0.009490 -0.000561 -0.002153 0.000000 0.002165 0.000000
# 2 -0.000561 0.040529 -0.012586 0.000000 -0.024374 0.000000
# 3 -0.002153 -0.012586 0.012609 0.000000 0.006013 0.000000
# 4 0.000000 0.000000 0.000000 0.019075 0.000000 -0.007668
# 5 0.002165 -0.024374 0.006013 0.000000 0.050426 0.000000
# 6 0.000000 0.000000 0.000000 -0.007668 0.000000 0.055394
#
#
# Mechanical properties :
#
#
# Convention : Reuss Voigt Hill
#
# Bulk Modulus (GPa) = 31.22193 49.22427 40.22310
# Shear Modulus (GPa) = 21.85316 34.39054 28.12185
#
# Velocity S-wave (km/s) = 3.00028 3.76378 3.40351
# Velocity P-wave (km/s) = 4.98629 6.25815 5.65807
#
# Compressibility (1/GPa) = 0.03202877
#
# Stress axis : x y z
#
# Youngs Moduli (GPa) = 105.36958 24.67395 79.30686
#
# Poissons Ratio (x) = 0.01384 0.17076
# Poissons Ratio (y) = 0.05909 0.99814
# Poissons Ratio (z) = 0.22688 0.31054
#
# Static dielectric constant tensor:
#      x y z
#    x 1.902110 0.000000 0.005580 
#    y 0.000000 1.961650 0.000000 
#    z 0.005580 0.000000 2.010000 
# 
# From -- ./inp_files/260657.got.cif
#   From: 2010.05.17/outbox.cif.g08.bks.cpg/sg15_131_cif.got.tgz:260657.got - 2010.06.03 18:47:42.
