data_PCOD9300284
_publ_section_title
;
Structure prediction by ZEFSAII (Michael W. Deem and Ramdas Pophale) SiO2 
 PCOD9300284
Probable space group: C 2/C
;
_chemical_formula_sum "Si O2"
_cell_formula_units_Z 40
_cell_length_a 12.071824
_cell_length_b 16.466437
_cell_length_c 13.106942
_cell_angle_alpha 90.000000
_cell_angle_beta 144.982649
_cell_angle_gamma 90.000000
_cell_volume 1495.040570
_symmetry_space_group_name_H-M "C 2/C"
_symmetry_group_IT_number 15
_symmetry_cell_setting 'monoclinic'
loop_
_space_group_symop_operation_xyz
x,y,z
-x,y,1/2-z
-x,-y,-z
x,-y,1/2+z
1/2+x,1/2+y,z
1/2-x,1/2+y,1/2-z
1/2-x,1/2-y,-z
1/2+x,1/2-y,1/2+z
loop_
_atom_site_type_symbol
_atom_site_label
_atom_site_fract_x
_atom_site_fract_y
_atom_site_fract_z
Si Si1 0.187614 0.455192 0.181788
Si Si2 0.000000 0.047111 0.750000
Si Si3 0.481555 0.805045 0.936654
Si Si4 0.226494 0.172488 0.057087
Si Si5 0.500000 0.051868 0.750000
Si Si6 0.781056 0.166961 0.083622
O O1 0.368904 0.484345 0.248498
O O2 0.160285 0.475114 0.282346
O O3 0.000000 0.500000 0.000000
O O4 0.143621 0.361156 0.114341
O O5 0.842818 0.100143 0.567014
O O6 0.406086 0.836465 0.769420
O O7 0.547623 0.711411 0.985039
O O8 0.292404 0.815133 0.860234
O O9 0.250000 0.250000 0.000000
O O10 0.357476 0.102346 0.571729
O O11 0.000000 0.140681 0.250000
O O12 0.750000 0.250000 0.000000
#
# Coordination Sequence:
#
# PCOD9300284 Si02
#       6
#     8   4   8   8   4   8
#     4  11  27  52  71 102 145 198 252 302 358 436
#     4  12  26  42  79 107 144 192 248 300 384 434
#     4  11  23  39  65  99 147 178 234 303 372 433
#     4  12  21  38  67 109 144 176 228 315 382 443
#     4  10  26  48  69  99 150 186 240 310 354 448
#     4  11  22  36  64  99 141 194 228 280 374 455
#
# _framework density 26.755127999999999
#
# number of rings (size 3 to 8) (size 9 to 14) (size 15 to 20)
#    0.000    0.800    5.000    1.200    8.400    1.600 
#    7.200    2.000    0.000    0.000    0.000    0.000 
#    0.000    0.000    0.000    0.000    0.000    0.000 
#
# Total GULP energy -111618.214693 kJ/mol
# GULP energy per Si atom -5580.910735 kJ/mol
# Density = 2.669423 g / cm^3
# Si number density = 26.755128 Si / 1000 Ang^3
#
#
#
# Elastic Constant Matrix: (Units=GPa)
#
#
# Indices 1 2 3 4 5 6 
#
# 1 255.7553 19.2988 32.6077 -0.0003 -17.6499 -0.0001
# 2 19.2988 41.1608 11.9101 -0.0001 -10.8404 0.0000
# 3 32.6077 11.9101 131.3300 -0.0005 -11.9548 0.0000
# 4 -0.0003 -0.0001 -0.0005 36.7814 -0.0003 10.4225
# 5 -17.6499 -10.8404 -11.9548 -0.0003 66.6979 0.0000
# 6 -0.0001 0.0000 0.0000 10.4225 0.0000 27.4336
#
#
#
# Elastic Compliance Matrix: (Units=1/GPa)
#
#
# Indices 1 2 3 4 5 6 
#
# 1 0.004181 -0.001532 -0.000835 0.000000 0.000708 0.000000
# 2 -0.001532 0.026448 -0.001691 0.000000 0.003590 0.000000
# 3 -0.000835 -0.001691 0.008061 0.000000 0.000949 0.000000
# 4 0.000000 0.000000 0.000000 0.030468 0.000000 -0.011575
# 5 0.000708 0.003590 0.000949 0.000000 0.015934 0.000000
# 6 0.000000 0.000000 0.000000 -0.011575 0.000000 0.040849
#
#
# Mechanical properties :
#
#
# Convention : Reuss Voigt Hill
#
# Bulk Modulus (GPa) = 32.70756 61.76435 47.23595
# Shear Modulus (GPa) = 34.66221 50.47790 42.57005
#
# Velocity S-wave (km/s) = 3.60326 4.34829 3.99319
# Velocity P-wave (km/s) = 5.43715 6.95308 6.24131
#
# Compressibility (1/GPa) = 0.03057398
#
# Stress axis : x y z
#
# Youngs Moduli (GPa) = 239.18458 37.80959 124.04750
#
# Poissons Ratio (x) = 0.05794 0.10354
# Poissons Ratio (y) = 0.36652 0.20980
# Poissons Ratio (z) = 0.19964 0.06395
#
# Static dielectric constant tensor:
#      x y z
#    x 2.665890 0.000000 -0.015770 
#    y 0.000000 2.323300 0.000000 
#    z -0.015770 0.000000 1.958330 
# 
# From -- ./inp_files/30464.got.cif
#   From: 2010.05.17/outbox.cif.g08.bks.cpg/sg15_16_cif.got.tgz:30464.got - 2010.06.03 18:47:42.
