data_PCOD9300451
_publ_section_title
;
Structure prediction by ZEFSAII (Michael W. Deem and Ramdas Pophale) SiO2 
 PCOD9300451
Probable space group: C 2/C
;
_chemical_formula_sum "Si O2"
_cell_formula_units_Z 40
_cell_length_a 13.231198
_cell_length_b 22.766144
_cell_length_c 8.055610
_cell_angle_alpha 90.000000
_cell_angle_beta 52.958552
_cell_angle_gamma 90.000000
_cell_volume 1936.862422
_symmetry_space_group_name_H-M "C 2/C"
_symmetry_group_IT_number 15
_symmetry_cell_setting 'monoclinic'
loop_
_space_group_symop_operation_xyz
x,y,z
-x,y,1/2-z
-x,-y,-z
x,-y,1/2+z
1/2+x,1/2+y,z
1/2-x,1/2+y,1/2-z
1/2-x,1/2-y,-z
1/2+x,1/2-y,1/2+z
loop_
_atom_site_type_symbol
_atom_site_label
_atom_site_fract_x
_atom_site_fract_y
_atom_site_fract_z
Si Si1 0.765068 0.571236 0.566460
Si Si2 0.318758 0.805661 0.200754
Si Si3 0.376682 0.038557 0.115161
Si Si4 0.500000 0.382148 0.250000
Si Si5 0.000000 0.368541 0.250000
Si Si6 0.023988 0.209244 0.025098
O O1 0.805855 0.632424 0.614247
O O2 0.849166 0.563400 0.321549
O O3 0.775105 0.510484 0.659199
O O4 0.624336 0.579716 0.641758
O O5 0.386710 0.827503 0.299724
O O6 0.176488 0.779876 0.355766
O O7 0.426093 0.757897 0.046763
O O8 0.420581 0.089962 0.950985
O O9 0.500000 0.000000 0.000000
O O10 0.497626 0.344527 0.423967
O O11 0.000000 0.199752 0.250000
#
# Coordination Sequence:
#
# PCOD9300451 Si02
#       6
#     8   8   8   4   4   8
#     4  11  24  45  68  98 136 174 224 281 340 404
#     4  11  25  43  68  99 135 179 227 275 345 395
#     4  12  22  41  66 100 129 167 226 278 328 408
#     4  10  28  46  67 102 137 184 224 270 348 406
#     4  12  24  38  67 100 131 178 222 276 346 394
#     4  11  25  47  67 102 138 181 232 279 331 414
#
# _framework density 20.651958
#
# number of rings (size 3 to 8) (size 9 to 14) (size 15 to 20)
#    0.000    0.800    5.000    0.600    2.800    5.600 
#    0.000    0.000    0.000    0.000    0.000    0.000 
#    0.000    0.000    0.000    0.000    0.000    0.000 
#
# Total GULP energy -111357.532498 kJ/mol
# GULP energy per Si atom -5567.876625 kJ/mol
# Density = 2.060495 g / cm^3
# Si number density = 20.651958 Si / 1000 Ang^3
#
#
#
# Elastic Constant Matrix: (Units=GPa)
#
#
# Indices 1 2 3 4 5 6 
#
# 1 134.3082 20.2698 13.0777 0.0000 -34.6610 0.0000
# 2 20.2698 41.3517 18.1561 0.0000 -14.3052 0.0000
# 3 13.0777 18.1561 65.7719 0.0000 -0.7930 0.0000
# 4 0.0000 0.0000 0.0000 40.7840 0.0000 -0.7974
# 5 -34.6610 -14.3052 -0.7930 0.0000 38.2546 0.0000
# 6 0.0000 0.0000 0.0000 -0.7974 0.0000 44.4106
#
#
#
# Elastic Compliance Matrix: (Units=1/GPa)
#
#
# Indices 1 2 3 4 5 6 
#
# 1 0.009992 -0.001267 -0.001534 0.000000 0.008548 0.000000
# 2 -0.001267 0.032262 -0.008524 0.000000 0.010739 0.000000
# 3 -0.001534 -0.008524 0.017811 0.000000 -0.004208 0.000000
# 4 0.000000 0.000000 0.000000 0.024528 0.000000 0.000440
# 5 0.008548 0.010739 -0.004208 0.000000 0.037814 0.000000
# 6 0.000000 0.000000 0.000000 0.000440 0.000000 0.022525
#
#
# Mechanical properties :
#
#
# Convention : Reuss Voigt Hill
#
# Bulk Modulus (GPa) = 26.72783 38.27098 32.49940
# Shear Modulus (GPa) = 27.76931 37.35174 32.56052
#
# Velocity S-wave (km/s) = 3.67090 4.25741 3.97499
# Velocity P-wave (km/s) = 5.56215 6.53751 6.06945
#
# Compressibility (1/GPa) = 0.03741419
#
# Stress axis : x y z
#
# Youngs Moduli (GPa) = 100.07901 30.99636 56.14390
#
# Poissons Ratio (x) = 0.03929 0.08611
# Poissons Ratio (y) = 0.12685 0.47858
# Poissons Ratio (z) = 0.15350 0.26422
#
# Static dielectric constant tensor:
#      x y z
#    x 1.769910 0.000000 0.048540 
#    y 0.000000 3.317180 0.000000 
#    z 0.048540 0.000000 1.717580 
# 
# From -- ./inp_files/40584.got.cif
#   From: 2010.05.17/outbox.cif.g08.bks.cpg/sg15_21_cif.got.tgz:40584.got - 2010.06.03 18:47:42.
