data_PCOD9300152
_publ_section_title
;
Structure prediction by ZEFSAII (Michael W. Deem and Ramdas Pophale) SiO2 
 PCOD9300152
Probable space group: C 2/C
;
_chemical_formula_sum "Si O2"
_cell_formula_units_Z 56
_cell_length_a 15.842212
_cell_length_b 10.507565
_cell_length_c 14.297866
_cell_angle_alpha 90.000000
_cell_angle_beta 100.144940
_cell_angle_gamma 90.000000
_cell_volume 2342.855140
_symmetry_space_group_name_H-M "C 2/C"
_symmetry_group_IT_number 15
_symmetry_cell_setting 'monoclinic'
loop_
_space_group_symop_operation_xyz
x,y,z
-x,y,1/2-z
-x,-y,-z
x,-y,1/2+z
1/2+x,1/2+y,z
1/2-x,1/2+y,1/2-z
1/2-x,1/2-y,-z
1/2+x,1/2-y,1/2+z
loop_
_atom_site_type_symbol
_atom_site_label
_atom_site_fract_x
_atom_site_fract_y
_atom_site_fract_z
Si Si1 0.500000 0.643468 0.750000
Si Si2 0.305793 0.724961 0.206648
Si Si3 0.629003 0.851698 0.746405
Si Si4 0.500000 0.929844 0.250000
Si Si5 0.241139 0.891582 0.043504
Si Si6 0.920485 0.945505 0.590045
Si Si7 0.054793 0.739373 0.606576
Si Si8 0.672506 0.850741 0.970991
O O1 0.567381 0.734149 0.709621
O O2 0.450979 0.561568 0.661198
O O3 0.217765 0.652322 0.210333
O O4 0.275233 0.858222 0.153856
O O5 0.363922 0.639168 0.150963
O O6 0.362970 0.743495 0.309870
O O7 0.575505 0.979889 0.729999
O O8 0.647509 0.835550 0.859147
O O9 0.512179 0.842348 0.343517
O O10 0.298102 0.003144 0.009989
O O11 0.250000 0.750000 0.000000
O O12 0.145612 0.948367 0.010146
O O13 0.005103 0.869187 0.577204
O O14 0.092171 0.678164 0.521193
O O15 0.750000 0.750000 0.000000
#
# Coordination Sequence:
#
# PCOD9300152 Si02
#       8
#     4   8   8   4   8   8   8   8
#     4  11  23  46  70 104 153 193 246 312 380 455
#     4  11  22  47  71 103 142 194 247 307 370 455
#     4  11  27  43  70 105 147 191 248 307 376 441
#     4  11  25  44  66 110 133 195 242 294 374 437
#     4  10  26  45  73 110 146 193 258 305 379 458
#     4  11  23  45  72 110 139 196 255 305 382 446
#     4  12  24  45  77  99 153 194 244 312 371 452
#     4  12  26  47  70 111 149 193 252 310 378 447
#
# _framework density 23.902460000000001
#
# number of rings (size 3 to 8) (size 9 to 14) (size 15 to 20)
#    0.000    0.857    4.286    1.714    6.000    5.143 
#    0.000    2.143    0.000    0.000    0.000    0.000 
#    0.000    0.000    0.000    0.000    0.000    0.000 
#
# Total GULP energy -156613.148554 kJ/mol
# GULP energy per Si atom -5593.326734 kJ/mol
# Density = 2.384806 g / cm^3
# Si number density = 23.902460 Si / 1000 Ang^3
#
#
#
# Elastic Constant Matrix: (Units=GPa)
#
#
# Indices 1 2 3 4 5 6 
#
# 1 141.8114 61.1248 18.4330 0.0000 -9.4573 0.0000
# 2 61.1248 111.8337 3.3917 0.0000 -7.9809 0.0000
# 3 18.4330 3.3917 45.6546 0.0000 -1.6240 0.0000
# 4 0.0000 0.0000 0.0000 10.7440 0.0000 -1.7530
# 5 -9.4573 -7.9809 -1.6240 0.0000 55.3957 0.0000
# 6 0.0000 0.0000 0.0000 -1.7530 0.0000 29.0697
#
#
#
# Elastic Compliance Matrix: (Units=1/GPa)
#
#
# Indices 1 2 3 4 5 6 
#
# 1 0.009806 -0.005193 -0.003544 0.000000 0.000822 0.000000
# 2 -0.005193 0.011803 0.001250 0.000000 0.000851 0.000000
# 3 -0.003544 0.001250 0.023251 0.000000 0.000257 0.000000
# 4 0.000000 0.000000 0.000000 0.094000 0.000000 0.005669
# 5 0.000822 0.000851 0.000257 0.000000 0.018322 0.000000
# 6 0.000000 0.000000 0.000000 0.005669 0.000000 0.034742
#
#
# Mechanical properties :
#
#
# Convention : Reuss Voigt Hill
#
# Bulk Modulus (GPa) = 33.46127 51.68876 42.57501
# Shear Modulus (GPa) = 23.05644 33.46523 28.26084
#
# Velocity S-wave (km/s) = 3.10918 3.74582 3.44225
# Velocity P-wave (km/s) = 5.18833 6.35453 5.80081
#
# Compressibility (1/GPa) = 0.02988530
#
# Stress axis : x y z
#
# Youngs Moduli (GPa) = 101.98337 84.72346 43.00945
#
# Poissons Ratio (x) = 0.43999 0.15242
# Poissons Ratio (y) = 0.52963 -0.05377
# Poissons Ratio (z) = 0.36142 -0.10592
#
# Static dielectric constant tensor:
#      x y z
#    x 2.042010 0.000000 0.135670 
#    y 0.000000 1.950370 0.000000 
#    z 0.135670 0.000000 1.990770 
# 
# From -- ./inp_files/152648.got.cif
#   From: 2010.05.17/outbox.cif.g08.bks.cpg/sg15_77_cif.got.tgz:152648.got - 2010.06.03 18:47:42.
