data_PCOD9300948
_publ_section_title
;
Structure prediction by ZEFSAII (Michael W. Deem and Ramdas Pophale) SiO2 
 PCOD9300948
Probable space group: C 2/C
;
_chemical_formula_sum "Si O2"
_cell_formula_units_Z 64
_cell_length_a 15.076029
_cell_length_b 18.952035
_cell_length_c 25.878904
_cell_angle_alpha 90.000000
_cell_angle_beta 29.552050
_cell_angle_gamma 90.000000
_cell_volume 3646.902160
_symmetry_space_group_name_H-M "C 2/C"
_symmetry_group_IT_number 15
_symmetry_cell_setting 'monoclinic'
loop_
_space_group_symop_operation_xyz
x,y,z
-x,y,1/2-z
-x,-y,-z
x,-y,1/2+z
1/2+x,1/2+y,z
1/2-x,1/2+y,1/2-z
1/2-x,1/2-y,-z
1/2+x,1/2-y,1/2+z
loop_
_atom_site_type_symbol
_atom_site_label
_atom_site_fract_x
_atom_site_fract_y
_atom_site_fract_z
Si Si1 0.774972 0.367445 0.996037
Si Si2 0.330977 0.771103 0.796828
Si Si3 0.241086 0.542524 0.756118
Si Si4 0.567870 0.071153 0.271459
Si Si5 0.495793 0.203465 0.475291
Si Si6 0.929320 0.990800 0.343366
Si Si7 0.587089 0.307483 0.352636
Si Si8 0.432114 0.063851 0.997158
O O1 0.901741 0.327321 0.971540
O O2 0.663391 0.420749 0.088037
O O3 0.628300 0.320894 0.040803
O O4 0.897936 0.408124 0.893080
O O5 0.500000 0.758266 0.750000
O O6 0.325359 0.855131 0.790069
O O7 0.153689 0.741255 0.913767
O O8 0.362951 0.731884 0.726163
O O9 0.173958 0.490198 0.746122
O O10 0.395448 0.500547 0.709878
O O11 0.322093 0.615676 0.693929
O O12 0.078064 0.562932 0.877246
O O13 0.500000 0.048239 0.250000
O O14 0.628197 0.261072 0.382561
O O15 0.568261 0.136734 0.470703
O O16 0.767797 0.047039 0.422416
O O17 0.000000 0.979581 0.250000
O O18 0.500000 0.000000 0.000000
#
# Coordination Sequence:
#
# PCOD9300948 Si02
#       8
#     8   8   8   8   8   8   8   8
#     4  11  20  34  57  88 127 154 195 246 309 371
#     4  11  21  33  57  91 124 156 199 251 314 368
#     4  11  23  41  61  90 126 163 201 252 304 365
#     4  11  23  41  62  88 121 165 207 251 306 368
#     4  12  21  35  57  88 125 158 199 249 312 365
#     4  11  22  34  59  97 124 156 199 247 308 360
#     4  11  22  34  56  92 126 159 194 251 310 368
#     4  12  21  36  62  92 124 160 200 249 310 366
#
# _framework density 17.549142
#
# number of rings (size 3 to 8) (size 9 to 14) (size 15 to 20)
#    0.000    0.750    7.500    1.875    1.750    0.000 
#    0.000    5.625    0.000    3.000    0.000    0.000 
#    0.000    0.000    0.000    0.000    0.000    0.000 
#
# Total GULP energy -178660.973214 kJ/mol
# GULP energy per Si atom -5583.155413 kJ/mol
# Density = 1.750920 g / cm^3
# Si number density = 17.549142 Si / 1000 Ang^3
#
#
#
# Elastic Constant Matrix: (Units=GPa)
#
#
# Indices 1 2 3 4 5 6 
#
# 1 94.8251 76.7561 34.5218 -0.0053 -34.0983 -0.0027
# 2 76.7561 112.4706 36.1236 -0.0015 -9.4128 0.0015
# 3 34.5218 36.1236 70.6013 0.0120 -46.6900 0.0038
# 4 -0.0053 -0.0015 0.0120 16.7859 -0.0720 6.7321
# 5 -34.0983 -9.4128 -46.6900 -0.0720 -114.2274 -0.0099
# 6 -0.0027 0.0015 0.0038 6.7321 -0.0099 34.3842
#
#
#
# Elastic Compliance Matrix: (Units=1/GPa)
#
#
# Indices 1 2 3 4 5 6 
#
# 1 0.022932 -0.013929 -0.006182 -0.000004 -0.003170 0.000003
# 2 -0.013929 0.018940 -0.000915 0.000012 0.002971 -0.000003
# 3 -0.006182 -0.000915 0.014898 -0.000032 -0.004169 0.000003
# 4 -0.000004 0.000012 -0.000032 0.064650 -0.000026 -0.012658
# 5 -0.003170 0.002971 -0.004169 -0.000026 -0.006349 0.000003
# 6 0.000003 -0.000003 0.000003 -0.012658 0.000003 0.031561
#
#
# Mechanical properties :
#
#
# Convention : Reuss Voigt Hill
#
# Bulk Modulus (GPa) = 67.95057 63.63333 65.79195
# Shear Modulus (GPa) = 25.82765 -3.91175 10.95795
#
# Velocity S-wave (km/s) = 3.84048 -1.49461 2.50154
# Velocity P-wave (km/s) = 7.64656 5.77584 6.77607
#
# Compressibility (1/GPa) = 0.01471658
#
# Stress axis : x y z
#
# Youngs Moduli (GPa) = 43.60805 52.79867 67.12200
#
# Poissons Ratio (x) = 0.73545 0.41498
# Poissons Ratio (y) = 0.60743 0.06140
# Poissons Ratio (z) = 0.26960 0.04830
#
# Static dielectric constant tensor:
#      x y z
#    x 1.587540 0.000000 -0.004500 
#    y 0.000000 1.620560 0.000000 
#    z -0.004500 0.000000 1.608890 
# 
# From -- ./inp_files/174257.got.cif
#   From: 2010.05.17/outbox.cif.g08.bks.cpg/sg15_88_cif.got.tgz:174257.got - 2010.06.03 18:47:42.
