data_PCOD9300029
_publ_section_title
;
Structure prediction by ZEFSAII (Michael W. Deem and Ramdas Pophale) SiO2 
 PCOD9300029
Probable space group: C 2/C
;
_chemical_formula_sum "Si O2"
_cell_formula_units_Z 56
_cell_length_a 28.117300
_cell_length_b 6.487412
_cell_length_c 14.334591
_cell_angle_alpha 90.000000
_cell_angle_beta 72.371782
_cell_angle_gamma 90.000000
_cell_volume 2491.966930
_symmetry_space_group_name_H-M "C 2/C"
_symmetry_group_IT_number 15
_symmetry_cell_setting 'monoclinic'
loop_
_space_group_symop_operation_xyz
x,y,z
-x,y,1/2-z
-x,-y,-z
x,-y,1/2+z
1/2+x,1/2+y,z
1/2-x,1/2+y,1/2-z
1/2-x,1/2-y,-z
1/2+x,1/2-y,1/2+z
loop_
_atom_site_type_symbol
_atom_site_label
_atom_site_fract_x
_atom_site_fract_y
_atom_site_fract_z
Si Si1 0.170413 0.748917 0.814298
Si Si2 0.032848 0.357777 0.096194
Si Si3 0.330497 0.530968 0.859418
Si Si4 0.768657 0.578577 0.334638
Si Si5 0.921081 0.512742 0.605849
Si Si6 0.000000 0.987394 0.750000
Si Si7 0.079565 0.300392 0.705603
Si Si8 0.250000 0.250000 0.000000
O O1 0.153319 0.879121 0.734128
O O2 0.202813 0.547992 0.763476
O O3 0.210932 0.887523 0.842962
O O4 0.121330 0.675174 0.897299
O O5 0.052795 0.543391 0.150259
O O6 0.975640 0.396216 0.097994
O O7 0.029429 0.154957 0.160383
O O8 0.067951 0.356041 0.984793
O O9 0.292683 0.700702 0.839621
O O10 0.376927 0.666222 0.865968
O O11 0.299777 0.394209 0.949224
O O12 0.773053 0.434415 0.421604
O O13 0.901335 0.421213 0.715118
O O14 0.039691 0.140365 0.771553
#
# Coordination Sequence:
#
# PCOD9300029 Si02
#       8
#     8   8   8   8   8   4   8   4
#     4  11  23  43  70 100 138 188 237 291 360 425
#     4  11  25  45  71 106 140 184 242 298 354 447
#     4  11  24  43  69  98 140 187 230 292 359 424
#     4  11  22  44  68  99 140 182 238 292 346 430
#     4  11  23  47  71 101 146 183 239 299 363 432
#     4  12  22  46  70  98 146 180 230 294 360 426
#     4  12  24  45  70 103 142 190 233 300 364 425
#     4  10  26  42  66 102 140 184 238 288 362 430
#
# _framework density 22.472207999999998
#
# number of rings (size 3 to 8) (size 9 to 14) (size 15 to 20)
#    0.000    0.857    5.714    1.286    2.000    0.571 
#    5.143    0.000    0.000    0.000    0.000    0.000 
#    0.000    0.000    0.000    0.000    0.000    0.000 
#
# Total GULP energy -155904.335786 kJ/mol
# GULP energy per Si atom -5568.011992 kJ/mol
# Density = 2.242106 g / cm^3
# Si number density = 22.472208 Si / 1000 Ang^3
#
#
#
# Elastic Constant Matrix: (Units=GPa)
#
#
# Indices 1 2 3 4 5 6 
#
# 1 97.0563 48.7337 16.2459 0.0000 -9.3723 0.0000
# 2 48.7337 68.2614 11.1917 0.0000 -5.0177 0.0000
# 3 16.2459 11.1917 52.7163 0.0000 -12.9739 0.0000
# 4 0.0000 0.0000 0.0000 -22.6543 0.0000 -7.0334
# 5 -9.3723 -5.0177 -12.9739 0.0000 17.9642 0.0000
# 6 0.0000 0.0000 0.0000 -7.0334 0.0000 35.4998
#
#
#
# Elastic Compliance Matrix: (Units=1/GPa)
#
#
# Indices 1 2 3 4 5 6 
#
# 1 0.016686 -0.011319 -0.001672 0.000000 0.004336 0.000000
# 2 -0.011319 0.022937 -0.001530 0.000000 -0.000604 0.000000
# 3 -0.001672 -0.001530 0.023703 0.000000 0.015819 0.000000
# 4 0.000000 0.000000 0.000000 -0.041584 0.000000 -0.008239
# 5 0.004336 -0.000604 0.015819 0.000000 0.069184 0.000000
# 6 0.000000 0.000000 0.000000 -0.008239 0.000000 0.026537
#
#
# Mechanical properties :
#
#
# Convention : Reuss Voigt Hill
#
# Bulk Modulus (GPa) = 29.16869 41.15294 35.16082
# Shear Modulus (GPa) = 31.65914 15.61947 23.63930
#
# Velocity S-wave (km/s) = 3.75749 2.63925 3.24687
# Velocity P-wave (km/s) = 5.64208 5.25739 5.45313
#
# Compressibility (1/GPa) = 0.03428334
#
# Stress axis : x y z
#
# Youngs Moduli (GPa) = 59.93218 43.59717 42.18955
#
# Poissons Ratio (x) = 0.49350 0.07053
# Poissons Ratio (y) = 0.67840 0.06454
# Poissons Ratio (z) = 0.10020 0.06669
#
# Static dielectric constant tensor:
#      x y z
#    x 1.860370 0.000000 0.016490 
#    y 0.000000 1.769900 0.000000 
#    z 0.016490 0.000000 1.816440 
# 
# From -- ./inp_files/223614.got.cif
#   From: 2010.05.17/outbox.cif.g08.bks.cpg/sg15_112_cif.got.tgz:223614.got - 2010.06.03 18:47:42.
