data_PCOD9300410
_publ_section_title
;
Structure prediction by ZEFSAII (Michael W. Deem and Ramdas Pophale) SiO2 
 PCOD9300410
Probable space group: C 2/C
;
_chemical_formula_sum "Si O2"
_cell_formula_units_Z 52
_cell_length_a 24.075152
_cell_length_b 11.491345
_cell_length_c 8.860046
_cell_angle_alpha 90.000000
_cell_angle_beta 63.979496
_cell_angle_gamma 90.000000
_cell_volume 2202.724733
_symmetry_space_group_name_H-M "C 2/C"
_symmetry_group_IT_number 15
_symmetry_cell_setting 'monoclinic'
loop_
_space_group_symop_operation_xyz
x,y,z
-x,y,1/2-z
-x,-y,-z
x,-y,1/2+z
1/2+x,1/2+y,z
1/2-x,1/2+y,1/2-z
1/2-x,1/2-y,-z
1/2+x,1/2-y,1/2+z
loop_
_atom_site_type_symbol
_atom_site_label
_atom_site_fract_x
_atom_site_fract_y
_atom_site_fract_z
Si Si1 0.000000 0.651340 0.250000
Si Si2 0.929875 0.783617 0.076137
Si Si3 0.132045 0.968651 0.166201
Si Si4 0.825433 0.166972 0.171256
Si Si5 0.136062 0.594591 0.553920
Si Si6 0.250000 0.750000 0.500000
Si Si7 0.500000 0.576729 0.250000
Si Si8 0.602114 0.898427 0.413749
O O1 0.955625 0.730390 0.199344
O O2 0.959697 0.582768 0.418613
O O3 0.878843 0.879121 0.183914
O O4 0.899595 0.685641 0.008656
O O5 0.984170 0.845060 0.914808
O O6 0.162868 0.085963 0.193981
O O7 0.169427 0.910414 0.984721
O O8 0.062171 0.002800 0.200066
O O9 0.763269 0.230369 0.296611
O O10 0.878792 0.263870 0.096889
O O11 0.194615 0.656492 0.557244
O O12 0.151036 0.481096 0.439356
O O13 0.095603 0.565713 0.749385
#
# Coordination Sequence:
#
# PCOD9300410 Si02
#       8
#     4   8   8   8   8   4   4   8
#     4  12  23  41  72 108 162 199 243 296 384 456
#     4  12  24  41  70 108 154 204 253 303 376 464
#     4  12  24  41  70 108 152 195 246 310 369 460
#     4  11  25  45  72 107 146 191 255 317 376 451
#     4  11  26  50  74 103 147 196 258 322 371 458
#     4  10  26  52  78  98 138 192 248 320 390 424
#     4  12  23  39  66 108 156 201 243 306 384 448
#     4  11  25  44  71 108 151 195 253 306 373 470
#
# _framework density 23.607126000000001
#
# number of rings (size 3 to 8) (size 9 to 14) (size 15 to 20)
#    0.000    0.615    3.077    5.538    0.000    5.538 
#    0.000    0.769    0.000    0.000    0.000    0.000 
#    0.000    0.000    0.000    0.000    0.000    0.000 
#
# Total GULP energy -144994.231108 kJ/mol
# GULP energy per Si atom -5576.701196 kJ/mol
# Density = 2.355339 g / cm^3
# Si number density = 23.607126 Si / 1000 Ang^3
#
#
#
# Elastic Constant Matrix: (Units=GPa)
#
#
# Indices 1 2 3 4 5 6 
#
# 1 26.2019 19.1447 8.0194 0.0000 10.3012 0.0000
# 2 19.1447 89.5811 28.6105 0.0000 26.7923 0.0000
# 3 8.0194 28.6105 165.1585 0.0000 9.6052 0.0000
# 4 0.0000 0.0000 0.0000 35.0291 0.0000 25.2328
# 5 10.3012 26.7923 9.6052 0.0000 34.3890 0.0000
# 6 0.0000 0.0000 0.0000 25.2328 0.0000 23.9955
#
#
#
# Elastic Compliance Matrix: (Units=1/GPa)
#
#
# Indices 1 2 3 4 5 6 
#
# 1 0.046953 -0.007439 -0.000519 0.000000 -0.008124 0.000000
# 2 -0.007439 0.016339 -0.001889 0.000000 -0.009974 0.000000
# 3 -0.000519 -0.001889 0.006417 0.000000 -0.000165 0.000000
# 4 0.000000 0.000000 0.000000 0.117714 0.000000 -0.123784
# 5 -0.008124 -0.009974 -0.000165 0.000000 0.039329 0.000000
# 6 0.000000 0.000000 0.000000 -0.123784 0.000000 0.171841
#
#
# Mechanical properties :
#
#
# Convention : Reuss Voigt Hill
#
# Bulk Modulus (GPa) = 19.99383 43.61010 31.80197
# Shear Modulus (GPa) = 11.49532 33.69385 22.59458
#
# Velocity S-wave (km/s) = 2.20907 3.78203 3.09707
# Velocity P-wave (km/s) = 3.87227 6.13066 5.12735
#
# Compressibility (1/GPa) = 0.05001542
#
# Stress axis : x y z
#
# Youngs Moduli (GPa) = 21.29778 61.20216 155.83990
#
# Poissons Ratio (x) = 0.45529 0.08084
# Poissons Ratio (y) = 0.15844 0.29441
# Poissons Ratio (z) = 0.01105 0.11562
#
# Static dielectric constant tensor:
#      x y z
#    x 1.922190 0.000000 -0.080390 
#    y 0.000000 2.295960 0.000000 
#    z -0.080390 0.000000 1.961410 
# 
# From -- ./inp_files/65222.got.cif
#   From: 2010.05.17/outbox.cif.g08.bks.cpg/sg15_33_cif.got.tgz:65222.got - 2010.06.03 18:47:42.
