data_PCOD9300315
_publ_section_title
;
Structure prediction by ZEFSAII (Michael W. Deem and Ramdas Pophale) SiO2 
 PCOD9300315
Probable space group: C 2/C
;
_chemical_formula_sum "Si O2"
_cell_formula_units_Z 20
_cell_length_a 5.121079
_cell_length_b 18.484784
_cell_length_c 7.721131
_cell_angle_alpha 90.000000
_cell_angle_beta 92.927785
_cell_angle_gamma 90.000000
_cell_volume 729.943968
_symmetry_space_group_name_H-M "C 2/C"
_symmetry_group_IT_number 15
_symmetry_cell_setting 'monoclinic'
loop_
_space_group_symop_operation_xyz
x,y,z
-x,y,1/2-z
-x,-y,-z
x,-y,1/2+z
1/2+x,1/2+y,z
1/2-x,1/2+y,1/2-z
1/2-x,1/2-y,-z
1/2+x,1/2-y,1/2+z
loop_
_atom_site_type_symbol
_atom_site_label
_atom_site_fract_x
_atom_site_fract_y
_atom_site_fract_z
Si Si1 0.355338 0.151671 0.534047
Si Si2 0.000000 0.479071 0.250000
Si Si3 0.000000 0.080142 0.250000
Si Si4 0.500000 0.255603 0.250000
O O1 0.494238 0.077566 0.591008
O O2 0.526346 0.202156 0.415042
O O3 0.235876 0.193458 0.695270
O O4 0.101765 0.129653 0.410224
O O5 0.744014 0.527444 0.226849
#
# Coordination Sequence:
#
# PCOD9300315 Si02
#       4
#     8   4   4   4
#     4  11  26  48  78 110 152 197 254 312 378 449
#     4  12  27  49  78 113 153 200 252 314 380 452
#     4  12  27  49  78 113 153 200 252 314 380 452
#     4  10  26  48  76 110 150 200 252 312 376 448
#
# _framework density 27.399360999999999
#
# number of rings (size 3 to 8) (size 9 to 14) (size 15 to 20)
#    0.000    0.800    0.000    4.800    0.000   19.200 
#    0.000    0.000    0.000    0.000    0.000    0.000 
#    0.000    0.000    0.000    0.000    0.000    0.000 
#
# Total GULP energy -56150.121162 kJ/mol
# GULP energy per Si atom -5615.012116 kJ/mol
# Density = 2.733700 g / cm^3
# Si number density = 27.399361 Si / 1000 Ang^3
#
#
#
# Elastic Constant Matrix: (Units=GPa)
#
#
# Indices 1 2 3 4 5 6 
#
# 1 199.0735 108.4515 93.5177 0.0000 -8.7356 0.0000
# 2 108.4515 179.1726 67.0171 0.0000 -18.6686 0.0000
# 3 93.5177 67.0171 150.3834 0.0000 -25.8269 0.0000
# 4 0.0000 0.0000 0.0000 58.6501 0.0000 8.2304
# 5 -8.7356 -18.6686 -25.8269 0.0000 62.6810 0.0000
# 6 0.0000 0.0000 0.0000 8.2304 0.0000 52.3190
#
#
#
# Elastic Compliance Matrix: (Units=1/GPa)
#
#
# Indices 1 2 3 4 5 6 
#
# 1 0.009163 -0.004178 -0.004122 0.000000 -0.001666 0.000000
# 2 -0.004178 0.008642 -0.000981 0.000000 0.001588 0.000000
# 3 -0.004122 -0.000981 0.010225 0.000000 0.003346 0.000000
# 4 0.000000 0.000000 0.000000 0.017435 0.000000 -0.002743
# 5 -0.001666 0.001588 0.003346 0.000000 0.017573 0.000000
# 6 0.000000 0.000000 0.000000 -0.002743 0.000000 0.019545
#
#
# Mechanical properties :
#
#
# Convention : Reuss Voigt Hill
#
# Bulk Modulus (GPa) = 105.61421 118.51136 112.06278
# Shear Modulus (GPa) = 47.93844 52.03957 49.98900
#
# Velocity S-wave (km/s) = 4.18738 4.36282 4.27600
# Velocity P-wave (km/s) = 7.87457 8.29013 8.08502
#
# Compressibility (1/GPa) = 0.00946842
#
# Stress axis : x y z
#
# Youngs Moduli (GPa) = 109.13960 115.71137 97.80109
#
# Poissons Ratio (x) = 0.48341 0.40315
# Poissons Ratio (y) = 0.45596 0.09591
# Poissons Ratio (z) = 0.44989 0.11348
#
# Static dielectric constant tensor:
#      x y z
#    x 2.018120 0.000000 0.024830 
#    y 0.000000 2.097990 0.000000 
#    z 0.024830 0.000000 2.265740 
# 
# From -- ./inp_files/904.got.cif
#   From: 2010.05.17/outbox.cif.g08.bks.cpg/sg15_1_cif.got.tgz:904.got - 2010.06.03 18:47:42.
