data_PCOD9300623
_publ_section_title
;
Structure prediction by ZEFSAII (Michael W. Deem and Ramdas Pophale) SiO2 
 PCOD9300623
Probable space group: C 2/C
;
_chemical_formula_sum "Si O2"
_cell_formula_units_Z 48
_cell_length_a 13.860248
_cell_length_b 13.786856
_cell_length_c 29.267314
_cell_angle_alpha 90.000000
_cell_angle_beta 27.058030
_cell_angle_gamma 90.000000
_cell_volume 2544.064200
_symmetry_space_group_name_H-M "C 2/C"
_symmetry_group_IT_number 15
_symmetry_cell_setting 'monoclinic'
loop_
_space_group_symop_operation_xyz
x,y,z
-x,y,1/2-z
-x,-y,-z
x,-y,1/2+z
1/2+x,1/2+y,z
1/2-x,1/2+y,1/2-z
1/2-x,1/2-y,-z
1/2+x,1/2-y,1/2+z
loop_
_atom_site_type_symbol
_atom_site_label
_atom_site_fract_x
_atom_site_fract_y
_atom_site_fract_z
Si Si1 0.149698 0.321815 0.003970
Si Si2 0.805174 0.726364 0.794714
Si Si3 0.355832 0.933858 0.195109
Si Si4 0.532373 0.571416 0.289982
Si Si5 0.016706 0.841292 0.491403
Si Si6 0.354703 0.985526 0.856138
O O1 0.985551 0.392927 0.097673
O O2 0.250000 0.250000 0.000000
O O3 0.326116 0.384187 0.902272
O O4 0.038447 0.248586 0.015939
O O5 0.839039 0.653605 0.738682
O O6 0.807483 0.836878 0.777763
O O7 0.593816 0.695317 0.909767
O O8 0.000000 0.720465 0.750000
O O9 0.136367 0.981970 0.272552
O O10 0.494777 0.012995 0.163650
O O11 0.500000 0.547571 0.250000
O O12 0.789425 0.891042 0.587858
O O13 0.189583 0.924835 0.431141
O O14 0.500000 0.998394 0.750000
#
# Coordination Sequence:
#
# PCOD9300623 Si02
#       6
#     8   8   8   8   8   8
#     4  12  22  40  68  93 119 174 218 246 317 390
#     4  11  18  43  65  92 125 164 211 257 315 375
#     4  12  24  38  65 101 124 161 218 262 311 380
#     4  11  25  44  66  88 130 173 211 261 312 381
#     4  11  21  38  67  90 129 168 204 256 324 375
#     4  11  22  35  62 103 133 151 205 277 319 358
#
# _framework density 18.867448
#
# number of rings (size 3 to 8) (size 9 to 14) (size 15 to 20)
#    0.000    0.667   10.000    0.000    4.667    0.667 
#    0.000    3.333    0.000    0.000    0.000    0.000 
#    0.000    0.000    0.000    0.000    0.000    0.000 
#
# Total GULP energy -134004.430189 kJ/mol
# GULP energy per Si atom -5583.517925 kJ/mol
# Density = 1.882450 g / cm^3
# Si number density = 18.867448 Si / 1000 Ang^3
#
#
#
# Elastic Constant Matrix: (Units=GPa)
#
#
# Indices 1 2 3 4 5 6 
#
# 1 78.4492 35.1743 41.7263 0.0003 12.0845 0.0002
# 2 35.1743 58.7123 27.9312 0.0010 0.1158 -0.0005
# 3 41.7263 27.9312 75.2146 0.0008 18.0168 0.0034
# 4 0.0003 0.0010 0.0008 32.3275 0.0011 -7.6360
# 5 12.0845 0.1158 18.0168 0.0011 24.1454 -0.0005
# 6 0.0002 -0.0005 0.0034 -7.6360 -0.0005 19.9529
#
#
#
# Elastic Compliance Matrix: (Units=1/GPa)
#
#
# Indices 1 2 3 4 5 6 
#
# 1 0.021697 -0.009575 -0.007172 0.000001 -0.005461 0.000001
# 2 -0.009575 0.025890 -0.006600 0.000000 0.009593 0.000002
# 3 -0.007172 -0.006600 0.022962 -0.000001 -0.013512 -0.000005
# 4 0.000001 0.000000 -0.000001 0.034008 -0.000001 0.013015
# 5 -0.005461 0.009593 -0.013512 -0.000001 0.054186 0.000004
# 6 0.000001 0.000002 -0.000005 0.013015 0.000004 0.055099
#
#
# Mechanical properties :
#
#
# Convention : Reuss Voigt Hill
#
# Bulk Modulus (GPa) = 41.92447 46.89332 44.40889
# Shear Modulus (GPa) = 18.62286 22.45478 20.53882
#
# Velocity S-wave (km/s) = 3.14512 3.45357 3.30295
# Velocity P-wave (km/s) = 5.95465 6.38834 6.17530
#
# Compressibility (1/GPa) = 0.02385242
#
# Stress axis : x y z
#
# Youngs Moduli (GPa) = 46.09006 38.62534 43.55016
#
# Poissons Ratio (x) = 0.36985 0.31236
# Poissons Ratio (y) = 0.44133 0.28743
# Poissons Ratio (z) = 0.33058 0.25493
#
# Static dielectric constant tensor:
#      x y z
#    x 1.667110 0.000000 0.008330 
#    y 0.000000 1.650580 0.000000 
#    z 0.008330 0.000000 1.654700 
# 
# From -- ./inp_files/292979.got.cif
#   From: 2010.05.17/outbox.cif.g08.bks.cpg/sg15_147_cif.got.tgz:292979.got - 2010.06.03 18:47:42.
