data_PCOD9300914
_publ_section_title
;
Structure prediction by ZEFSAII (Michael W. Deem and Ramdas Pophale) SiO2 
 PCOD9300914
Probable space group: C 2/C
;
_chemical_formula_sum "Si O2"
_cell_formula_units_Z 48
_cell_length_a 20.942303
_cell_length_b 24.718506
_cell_length_c 4.968176
_cell_angle_alpha 90.000000
_cell_angle_beta 111.571901
_cell_angle_gamma 90.000000
_cell_volume 2391.698632
_symmetry_space_group_name_H-M "C 2/C"
_symmetry_group_IT_number 15
_symmetry_cell_setting 'monoclinic'
loop_
_space_group_symop_operation_xyz
x,y,z
-x,y,1/2-z
-x,-y,-z
x,-y,1/2+z
1/2+x,1/2+y,z
1/2-x,1/2+y,1/2-z
1/2-x,1/2-y,-z
1/2+x,1/2-y,1/2+z
loop_
_atom_site_type_symbol
_atom_site_label
_atom_site_fract_x
_atom_site_fract_y
_atom_site_fract_z
Si Si1 0.896483 0.647691 0.677609
Si Si2 0.759742 0.968425 0.343873
Si Si3 0.407260 0.967113 0.418856
Si Si4 0.234902 0.858557 0.861968
Si Si5 0.195239 0.206088 0.810251
Si Si6 0.426462 0.781440 0.733868
O O1 0.926730 0.591277 0.834178
O O2 0.817596 0.639595 0.459767
O O3 0.934142 0.674341 0.482592
O O4 0.893901 0.688483 0.925874
O O5 0.676379 0.965171 0.210239
O O6 0.785386 0.914089 0.523307
O O7 0.779648 0.982299 0.071846
O O8 0.427852 0.984546 0.749224
O O9 0.203303 0.844409 0.525290
O O10 0.213082 0.811862 0.037336
O O11 0.122196 0.234808 0.728476
O O12 0.250000 0.250000 0.000000
O O13 0.500000 0.761253 0.750000
#
# Coordination Sequence:
#
# PCOD9300914 Si02
#       6
#     8   8   8   8   8   8
#     4  11  20  36  56  76 105 141 181 223 265 316
#     4   9  17  29  46  76 114 137 160 209 270 319
#     4   9  17  29  49  75  99 132 174 221 269 306
#     4  11  20  33  57  84 106 141 181 218 267 315
#     4  12  21  36  56  80 110 137 181 229 262 313
#     4  12  25  38  54  76 107 145 180 219 267 320
#
# _framework density 20.069417999999999
#
# number of rings (size 3 to 8) (size 9 to 14) (size 15 to 20)
#    0.000    1.333    3.333    4.000    0.000    5.333 
#    0.000    0.000    0.000   10.000    0.000    0.000 
#    0.000   13.333    0.000    0.000    0.000    0.000 
#
# Total GULP energy -134225.385939 kJ/mol
# GULP energy per Si atom -5592.724414 kJ/mol
# Density = 2.002374 g / cm^3
# Si number density = 20.069418 Si / 1000 Ang^3
#
#
#
# Elastic Constant Matrix: (Units=GPa)
#
#
# Indices 1 2 3 4 5 6 
#
# 1 75.0797 13.1624 1.3055 0.0000 -3.4647 0.0000
# 2 13.1624 54.8745 -0.3821 0.0000 6.7038 0.0000
# 3 1.3055 -0.3821 62.5379 0.0000 -18.9461 0.0000
# 4 0.0000 0.0000 0.0000 28.2429 0.0000 -7.3273
# 5 -3.4647 6.7038 -18.9461 0.0000 29.4116 0.0000
# 6 0.0000 0.0000 0.0000 -7.3273 0.0000 19.2637
#
#
#
# Elastic Compliance Matrix: (Units=1/GPa)
#
#
# Indices 1 2 3 4 5 6 
#
# 1 0.014095 -0.003727 0.000551 0.000000 0.002865 0.000000
# 2 -0.003727 0.019840 -0.001620 0.000000 -0.006005 0.000000
# 3 0.000551 -0.001620 0.020004 0.000000 0.013320 0.000000
# 4 0.000000 0.000000 0.000000 0.039284 0.000000 0.014942
# 5 0.002865 -0.006005 0.013320 0.000000 0.044287 0.000000
# 6 0.000000 0.000000 0.000000 0.014942 0.000000 0.057595
#
#
# Mechanical properties :
#
#
# Convention : Reuss Voigt Hill
#
# Bulk Modulus (GPa) = 22.54962 24.51818 23.53390
# Shear Modulus (GPa) = 22.78117 27.27739 25.02928
#
# Velocity S-wave (km/s) = 3.37281 3.69067 3.53531
# Velocity P-wave (km/s) = 5.14081 5.51403 5.33069
#
# Compressibility (1/GPa) = 0.04434665
#
# Stress axis : x y z
#
# Youngs Moduli (GPa) = 70.94605 50.40401 49.98903
#
# Poissons Ratio (x) = 0.18786 -0.02754
# Poissons Ratio (y) = 0.26442 0.08099
# Poissons Ratio (z) = -0.03908 0.08166
#
# Static dielectric constant tensor:
#      x y z
#    x 1.708940 0.000000 0.011360 
#    y 0.000000 1.749930 0.000000 
#    z 0.011360 0.000000 1.710300 
# 
# From -- ./inp_files/10731.got.cif
#   From: 2010.05.17/outbox.cif.g08.bks.cpg/sg15_6_cif.got.tgz:10731.got - 2010.06.03 18:47:42.
