data_PCOD9300709
_publ_section_title
;
Structure prediction by ZEFSAII (Michael W. Deem and Ramdas Pophale) SiO2 
 PCOD9300709
Probable space group: C 2/C
;
_chemical_formula_sum "Si O2"
_cell_formula_units_Z 32
_cell_length_a 7.969977
_cell_length_b 12.104067
_cell_length_c 15.035409
_cell_angle_alpha 90.000000
_cell_angle_beta 106.047648
_cell_angle_gamma 90.000000
_cell_volume 1393.931863
_symmetry_space_group_name_H-M "C 2/C"
_symmetry_group_IT_number 15
_symmetry_cell_setting 'monoclinic'
loop_
_space_group_symop_operation_xyz
x,y,z
-x,y,1/2-z
-x,-y,-z
x,-y,1/2+z
1/2+x,1/2+y,z
1/2-x,1/2+y,1/2-z
1/2-x,1/2-y,-z
1/2+x,1/2-y,1/2+z
loop_
_atom_site_type_symbol
_atom_site_label
_atom_site_fract_x
_atom_site_fract_y
_atom_site_fract_z
Si Si1 0.979035 0.019696 0.648218
Si Si2 0.743950 0.346714 0.633221
Si Si3 0.815446 0.208109 0.183636
Si Si4 0.011260 0.769769 0.456306
O O1 0.917841 0.114822 0.574472
O O2 0.000000 0.068340 0.750000
O O3 0.858705 0.912620 0.648555
O O4 0.157970 0.966740 0.636161
O O5 0.787904 0.306756 0.738567
O O6 0.899909 0.328201 0.587218
O O7 0.585561 0.273616 0.566323
O O8 0.692958 0.269535 0.095920
O O9 0.000000 0.252500 0.250000
#
# Coordination Sequence:
#
# PCOD9300709 Si02
#       4
#     8   8   8   8
#     4   9  19  35  53  77 108 138 172 216 261 307
#     4   9  20  34  54  83 104 135 181 215 255 314
#     4   9  20  36  53  79 109 136 176 219 255 311
#     4  11  19  36  59  75 107 143 170 216 267 306
#
# _framework density 22.956645000000002
#
# number of rings (size 3 to 8) (size 9 to 14) (size 15 to 20)
#    0.000    3.000    0.000    3.000    0.000    4.000 
#    0.000   17.500    0.000    0.000    0.000    1.750 
#    0.000    0.000    0.000    0.000    0.000    0.000 
#
# Total GULP energy -89116.665275 kJ/mol
# GULP energy per Si atom -5569.791580 kJ/mol
# Density = 2.290439 g / cm^3
# Si number density = 22.956645 Si / 1000 Ang^3
#
#
#
# Elastic Constant Matrix: (Units=GPa)
#
#
# Indices 1 2 3 4 5 6 
#
# 1 72.5059 21.0608 24.2340 0.0000 16.6554 0.0000
# 2 21.0608 55.3676 22.4769 0.0000 -6.0035 0.0000
# 3 24.2340 22.4769 118.5414 0.0000 15.4163 0.0000
# 4 0.0000 0.0000 0.0000 20.5686 0.0000 3.0895
# 5 16.6554 -6.0035 15.4163 0.0000 51.5068 0.0000
# 6 0.0000 0.0000 0.0000 3.0895 0.0000 27.5344
#
#
#
# Elastic Compliance Matrix: (Units=1/GPa)
#
#
# Indices 1 2 3 4 5 6 
#
# 1 0.017652 -0.006741 -0.001546 0.000000 -0.006031 0.000000
# 2 -0.006741 0.022778 -0.003714 0.000000 0.005946 0.000000
# 3 -0.001546 -0.003714 0.009830 0.000000 -0.002875 0.000000
# 4 0.000000 0.000000 0.000000 0.049451 0.000000 -0.005549
# 5 -0.006031 0.005946 -0.002875 0.000000 0.022919 0.000000
# 6 0.000000 0.000000 0.000000 -0.005549 0.000000 0.036941
#
#
# Mechanical properties :
#
#
# Convention : Reuss Voigt Hill
#
# Bulk Modulus (GPa) = 38.08426 42.43982 40.26204
# Shear Modulus (GPa) = 25.99753 31.83149 28.91451
#
# Velocity S-wave (km/s) = 3.36886 3.72774 3.55283
# Velocity P-wave (km/s) = 5.63542 6.08729 5.86571
#
# Compressibility (1/GPa) = 0.02625757
#
# Stress axis : x y z
#
# Youngs Moduli (GPa) = 56.65024 43.90250 101.72779
#
# Poissons Ratio (x) = 0.29594 0.15730
# Poissons Ratio (y) = 0.38187 0.37784
# Poissons Ratio (z) = 0.08760 0.16306
#
# Static dielectric constant tensor:
#      x y z
#    x 1.948400 0.000000 -0.011950 
#    y 0.000000 1.812430 0.000000 
#    z -0.011950 0.000000 1.898100 
# 
# From -- ./inp_files/132058.got.cif
#   From: 2010.05.17/outbox.cif.g08.bks.cpg/sg15_67_cif.got.tgz:132058.got - 2010.06.03 18:47:42.
