data_PCOD9300367
_publ_section_title
;
Structure prediction by ZEFSAII (Michael W. Deem and Ramdas Pophale) SiO2 
 PCOD9300367
Probable space group: C 2/C
;
_chemical_formula_sum "Si O2"
_cell_formula_units_Z 28
_cell_length_a 17.901087
_cell_length_b 4.865391
_cell_length_c 13.643816
_cell_angle_alpha 90.000000
_cell_angle_beta 120.142097
_cell_angle_gamma 90.000000
_cell_volume 1027.637641
_symmetry_space_group_name_H-M "C 2/C"
_symmetry_group_IT_number 15
_symmetry_cell_setting 'monoclinic'
loop_
_space_group_symop_operation_xyz
x,y,z
-x,y,1/2-z
-x,-y,-z
x,-y,1/2+z
1/2+x,1/2+y,z
1/2-x,1/2+y,1/2-z
1/2-x,1/2-y,-z
1/2+x,1/2-y,1/2+z
loop_
_atom_site_type_symbol
_atom_site_label
_atom_site_fract_x
_atom_site_fract_y
_atom_site_fract_z
Si Si1 0.750000 0.250000 0.500000
Si Si2 0.778694 0.964507 0.320589
Si Si3 0.422790 0.147805 0.503171
Si Si4 0.918034 0.846167 0.134979
O O1 0.739568 0.488456 0.577261
O O2 0.826661 0.093683 0.623089
O O3 0.713430 0.760079 0.224043
O O4 0.867185 0.794750 0.383938
O O5 0.449233 0.390957 0.594554
O O6 0.500000 0.000000 0.500000
O O7 0.378587 0.901960 0.538398
O O8 0.000000 0.744144 0.250000
#
# Coordination Sequence:
#
# PCOD9300367 Si02
#       4
#     4   8   8   8
#     4  10  26  50  74 110 162 188 270 320 366 498
#     4  11  25  46  78 116 151 213 253 320 407 453
#     4  11  25  48  70 111 150 187 260 318 378 480
#     4  11  25  47  74 107 145 207 245 318 402 441
#
# _framework density 27.246960000000001
#
# number of rings (size 3 to 8) (size 9 to 14) (size 15 to 20)
#    0.000    1.143    0.000    5.143    4.000   10.286 
#    5.143    0.000    0.000    0.000    0.000    0.000 
#    0.000    0.000    0.000    0.000    0.000    0.000 
#
# Total GULP energy -77987.372355 kJ/mol
# GULP energy per Si atom -5570.526597 kJ/mol
# Density = 2.718495 g / cm^3
# Si number density = 27.246960 Si / 1000 Ang^3
#
#
#
# Elastic Constant Matrix: (Units=GPa)
#
#
# Indices 1 2 3 4 5 6 
#
# 1 82.4039 26.9939 16.2548 0.0000 13.7714 0.0000
# 2 26.9939 154.0486 52.3527 -0.0003 6.4469 0.0008
# 3 16.2548 52.3527 136.0494 0.0000 34.4968 0.0000
# 4 0.0000 -0.0003 0.0000 71.1102 0.0000 1.2018
# 5 13.7714 6.4469 34.4968 0.0000 41.8471 -0.0001
# 6 0.0000 0.0008 0.0000 1.2018 -0.0001 46.2234
#
#
#
# Elastic Compliance Matrix: (Units=1/GPa)
#
#
# Indices 1 2 3 4 5 6 
#
# 1 0.013559 -0.002326 0.000399 0.000000 -0.004433 0.000000
# 2 -0.002326 0.007947 -0.003368 0.000000 0.002317 0.000000
# 3 0.000399 -0.003368 0.010746 0.000000 -0.008471 0.000000
# 4 0.000000 0.000000 0.000000 0.014069 0.000000 -0.000366
# 5 -0.004433 0.002317 -0.008471 0.000000 0.031982 0.000000
# 6 0.000000 0.000000 0.000000 -0.000366 0.000000 0.021644
#
#
# Mechanical properties :
#
#
# Convention : Reuss Voigt Hill
#
# Bulk Modulus (GPa) = 46.16118 62.63387 54.39752
# Shear Modulus (GPa) = 42.46038 50.29618 46.37828
#
# Velocity S-wave (km/s) = 3.95188 4.30110 4.13018
# Velocity P-wave (km/s) = 6.14831 6.90676 6.53854
#
# Compressibility (1/GPa) = 0.02166323
#
# Stress axis : x y z
#
# Youngs Moduli (GPa) = 73.74937 125.84121 93.05401
#
# Poissons Ratio (x) = 0.29272 -0.03713
# Poissons Ratio (y) = 0.17155 0.31336
# Poissons Ratio (z) = -0.02943 0.42377
#
# Static dielectric constant tensor:
#      x y z
#    x 1.461110 0.000000 0.037770 
#    y 0.000000 1.835020 0.000000 
#    z 0.037770 0.000000 2.239100 
# 
# From -- ./inp_files/164816.got.cif
#   From: 2010.05.17/outbox.cif.g08.bks.cpg/sg15_83_cif.got.tgz:164816.got - 2010.06.03 18:47:42.
