data_PCOD9300262
_publ_section_title
;
Structure prediction by ZEFSAII (Michael W. Deem and Ramdas Pophale) SiO2 
 PCOD9300262
Probable space group: C 2/C
;
_chemical_formula_sum "Si O2"
_cell_formula_units_Z 40
_cell_length_a 5.106684
_cell_length_b 17.953106
_cell_length_c 19.029094
_cell_angle_alpha 90.000000
_cell_angle_beta 71.299640
_cell_angle_gamma 90.000000
_cell_volume 1652.502668
_symmetry_space_group_name_H-M "C 2/C"
_symmetry_group_IT_number 15
_symmetry_cell_setting 'monoclinic'
loop_
_space_group_symop_operation_xyz
x,y,z
-x,y,1/2-z
-x,-y,-z
x,-y,1/2+z
1/2+x,1/2+y,z
1/2-x,1/2+y,1/2-z
1/2-x,1/2-y,-z
1/2+x,1/2-y,1/2+z
loop_
_atom_site_type_symbol
_atom_site_label
_atom_site_fract_x
_atom_site_fract_y
_atom_site_fract_z
Si Si1 0.412372 0.704173 0.409804
Si Si2 0.600863 0.306041 0.077278
Si Si3 0.949173 0.414282 0.484842
Si Si4 0.687066 0.906812 0.169520
Si Si5 0.000000 0.853853 0.750000
Si Si6 0.500000 0.049771 0.250000
O O1 0.682830 0.744597 0.416296
O O2 0.155380 0.762044 0.434637
O O3 0.484410 0.691765 0.322481
O O4 0.302131 0.627048 0.453214
O O5 0.778979 0.366483 0.019289
O O6 0.463141 0.358404 0.148199
O O7 0.000000 0.500000 0.500000
O O8 0.910194 0.405123 0.403550
O O9 0.500000 0.877506 0.250000
O O10 0.690843 0.994485 0.187266
O O11 0.718223 0.901821 0.773527
#
# Coordination Sequence:
#
# PCOD9300262 Si02
#       6
#     8   8   8   8   4   4
#     4  12  29  47  81 110 160 205 259 321 391 461
#     4  12  27  53  74 116 157 205 258 322 388 469
#     4  12  28  49  80 115 153 208 262 318 394 462
#     4  10  27  46  81 109 156 200 260 317 391 457
#     4  12  26  51  74 115 158 204 262 324 394 451
#     4  10  26  47  74 113 158 196 254 338 380 459
#
# _framework density 24.205711999999998
#
# number of rings (size 3 to 8) (size 9 to 14) (size 15 to 20)
#    0.600    0.000    2.000    3.600    9.800    3.200 
#    0.000    0.000    0.000    0.000    0.000    0.000 
#    0.000    0.000    0.000    0.000    0.000    0.000 
#
# Total GULP energy -111790.088594 kJ/mol
# GULP energy per Si atom -5589.504430 kJ/mol
# Density = 2.415062 g / cm^3
# Si number density = 24.205712 Si / 1000 Ang^3
#
#
#
# Elastic Constant Matrix: (Units=GPa)
#
#
# Indices 1 2 3 4 5 6 
#
# 1 154.8718 78.3082 42.5579 0.0000 1.5977 0.0000
# 2 78.3082 175.9749 63.6946 0.0000 3.2928 0.0000
# 3 42.5579 63.6946 151.3246 0.0000 -9.8280 0.0000
# 4 0.0000 0.0000 0.0000 -61.7706 0.0000 5.9319
# 5 1.5977 3.2928 -9.8280 0.0000 36.3346 0.0000
# 6 0.0000 0.0000 0.0000 5.9319 0.0000 30.0704
#
#
#
# Elastic Compliance Matrix: (Units=1/GPa)
#
#
# Indices 1 2 3 4 5 6 
#
# 1 0.008446 -0.003404 -0.000964 0.000000 -0.000324 0.000000
# 2 -0.003404 0.008146 -0.002555 0.000000 -0.001280 0.000000
# 3 -0.000964 -0.002555 0.008115 0.000000 0.002469 0.000000
# 4 0.000000 0.000000 0.000000 -0.015888 0.000000 0.003134
# 5 -0.000324 -0.001280 0.002469 0.000000 0.028320 0.000000
# 6 0.000000 0.000000 0.000000 0.003134 0.000000 0.032637
#
#
# Mechanical properties :
#
#
# Convention : Reuss Voigt Hill
#
# Bulk Modulus (GPa) = 92.05536 94.58806 93.32171
# Shear Modulus (GPa) = 57.31276 20.76760 39.04018
#
# Velocity S-wave (km/s) = 4.87122 2.93228 4.02039
# Velocity P-wave (km/s) = 8.35173 7.11519 7.75813
#
# Compressibility (1/GPa) = 0.01086303
#
# Stress axis : x y z
#
# Youngs Moduli (GPa) = 118.39802 122.76285 123.22950
#
# Poissons Ratio (x) = 0.41783 0.11876
# Poissons Ratio (y) = 0.40298 0.31480
# Poissons Ratio (z) = 0.11410 0.31361
#
# Static dielectric constant tensor:
#      x y z
#    x 1.929750 0.000000 0.052580 
#    y 0.000000 1.922010 0.000000 
#    z 0.052580 0.000000 2.126570 
# 
# From -- ./inp_files/184672.got.cif
#   From: 2010.05.17/outbox.cif.g08.bks.cpg/sg15_93_cif.got.tgz:184672.got - 2010.06.03 18:47:42.
