data_PCOD9300353
_publ_section_title
;
Structure prediction by ZEFSAII (Michael W. Deem and Ramdas Pophale) SiO2 
 PCOD9300353
Probable space group: C 2/C
;
_chemical_formula_sum "Si O2"
_cell_formula_units_Z 32
_cell_length_a 24.422665
_cell_length_b 12.094598
_cell_length_c 13.538890
_cell_angle_alpha 90.000000
_cell_angle_beta 163.541273
_cell_angle_gamma 90.000000
_cell_volume 1133.057141
_symmetry_space_group_name_H-M "C 2/C"
_symmetry_group_IT_number 15
_symmetry_cell_setting 'monoclinic'
loop_
_space_group_symop_operation_xyz
x,y,z
-x,y,1/2-z
-x,-y,-z
x,-y,1/2+z
1/2+x,1/2+y,z
1/2-x,1/2+y,1/2-z
1/2-x,1/2-y,-z
1/2+x,1/2-y,1/2+z
loop_
_atom_site_type_symbol
_atom_site_label
_atom_site_fract_x
_atom_site_fract_y
_atom_site_fract_z
Si Si1 0.082672 0.926304 0.284220
Si Si2 0.250000 0.250000 0.000000
Si Si3 0.000000 0.528368 0.750000
Si Si4 0.731375 0.710854 0.357132
Si Si5 0.313605 0.630011 0.821156
O O1 0.000000 0.910004 0.250000
O O2 0.292004 0.881986 0.621429
O O3 0.986975 0.820486 0.055610
O O4 0.996557 0.047794 0.110827
O O5 0.246692 0.302139 0.110627
O O6 0.858294 0.601705 0.569264
O O7 0.851800 0.455426 0.433583
O O8 0.750000 0.750000 0.500000
O O9 0.813320 0.790210 0.414480
#
# Coordination Sequence:
#
# PCOD9300353 Si02
#       5
#     8   4   4   8   8
#     4  11  25  45  73 110 144 197 246 296 371 437
#     4  12  24  46  78 102 152 194 240 306 360 434
#     4  10  26  50  68 110 142 188 246 296 360 432
#     4  11  26  47  76 106 146 192 242 303 366 432
#     4  11  25  46  74 106 147 192 243 296 367 433
#
# _framework density 28.242177999999999
#
# number of rings (size 3 to 8) (size 9 to 14) (size 15 to 20)
#    0.000    1.000    2.500    2.250    5.250    5.000 
#    0.000    0.000    0.000    0.000    0.000    0.000 
#    0.000    0.000    0.000    0.000    0.000    0.000 
#
# Total GULP energy -89191.685431 kJ/mol
# GULP energy per Si atom -5574.480339 kJ/mol
# Density = 2.817790 g / cm^3
# Si number density = 28.242178 Si / 1000 Ang^3
#
#
#
# Elastic Constant Matrix: (Units=GPa)
#
#
# Indices 1 2 3 4 5 6 
#
# 1 224.8170 79.5418 38.0707 0.0000 -43.4678 0.0000
# 2 79.5418 169.3486 38.3683 0.0000 -14.4060 0.0000
# 3 38.0707 38.3683 54.9879 0.0000 0.0306 0.0000
# 4 0.0000 0.0000 0.0000 70.9882 0.0000 -5.0026
# 5 -43.4678 -14.4060 0.0306 0.0000 47.6771 0.0000
# 6 0.0000 0.0000 0.0000 -5.0026 0.0000 -10.0871
#
#
#
# Elastic Compliance Matrix: (Units=1/GPa)
#
#
# Indices 1 2 3 4 5 6 
#
# 1 0.006788 -0.001956 -0.003338 0.000000 0.005600 0.000000
# 2 -0.001956 0.007799 -0.004088 0.000000 0.000576 0.000000
# 3 -0.003338 -0.004088 0.023352 0.000000 -0.004294 0.000000
# 4 0.000000 0.000000 0.000000 0.013611 0.000000 -0.006750
# 5 0.005600 0.000576 -0.004294 0.000000 0.026257 0.000000
# 6 0.000000 0.000000 0.000000 -0.006750 0.000000 -0.095788
#
#
# Mechanical properties :
#
#
# Convention : Reuss Voigt Hill
#
# Bulk Modulus (GPa) = 52.15144 84.56834 68.35989
# Shear Modulus (GPa) = 697.03238 41.26049 369.14644
#
# Velocity S-wave (km/s) = 15.72709 3.82639 11.44514
# Velocity P-wave (km/s) = 18.66264 7.03780 14.10363
#
# Compressibility (1/GPa) = 0.01917493
#
# Stress axis : x y z
#
# Youngs Moduli (GPa) = 147.31889 128.22652 42.82318
#
# Poissons Ratio (x) = 0.25076 0.14295
# Poissons Ratio (y) = 0.28809 0.17506
# Poissons Ratio (z) = 0.49179 0.52419
#
# Static dielectric constant tensor:
#      x y z
#    x 2.305850 0.000000 0.362370 
#    y 0.000000 2.575180 0.000000 
#    z 0.362370 0.000000 3.005540 
# 
# From -- ./inp_files/177714.got.cif
#   From: 2010.05.17/outbox.cif.g08.bks.cpg/sg15_89_cif.got.tgz:177714.got - 2010.06.03 18:47:42.
