data_PCOD9300673
_publ_section_title
;
Structure prediction by ZEFSAII (Michael W. Deem and Ramdas Pophale) SiO2 
 PCOD9300673
Probable space group: C 2/C
;
_chemical_formula_sum "Si O2"
_cell_formula_units_Z 56
_cell_length_a 13.305831
_cell_length_b 20.884922
_cell_length_c 11.651596
_cell_angle_alpha 90.000000
_cell_angle_beta 69.431783
_cell_angle_gamma 90.000000
_cell_volume 3031.476644
_symmetry_space_group_name_H-M "C 2/C"
_symmetry_group_IT_number 15
_symmetry_cell_setting 'monoclinic'
loop_
_space_group_symop_operation_xyz
x,y,z
-x,y,1/2-z
-x,-y,-z
x,-y,1/2+z
1/2+x,1/2+y,z
1/2-x,1/2+y,1/2-z
1/2-x,1/2-y,-z
1/2+x,1/2-y,1/2+z
loop_
_atom_site_type_symbol
_atom_site_label
_atom_site_fract_x
_atom_site_fract_y
_atom_site_fract_z
Si Si1 0.148596 0.705040 0.521505
Si Si2 0.872160 0.577849 0.822904
Si Si3 0.287791 0.177064 0.256636
Si Si4 0.883151 0.433915 0.856372
Si Si5 0.890153 0.207034 0.860883
Si Si6 0.078972 0.759191 0.886201
Si Si7 0.189495 0.374206 0.383450
O O1 0.250000 0.750000 0.500000
O O2 0.157346 0.639185 0.588845
O O3 0.147607 0.686786 0.387108
O O4 0.043460 0.746051 0.597516
O O5 0.852251 0.508010 0.883373
O O6 0.811692 0.579816 0.725142
O O7 0.000000 0.582477 0.750000
O O8 0.306852 0.108035 0.304556
O O9 0.334713 0.229392 0.328541
O O10 0.162388 0.194116 0.288912
O O11 0.000000 0.430464 0.750000
O O12 0.877174 0.401770 0.983596
O O13 0.805597 0.149649 0.878494
O O14 0.000000 0.195213 0.750000
O O15 0.915118 0.219015 0.983485
O O16 0.131495 0.689148 0.859815
#
# Coordination Sequence:
#
# PCOD9300673 Si02
#       7
#     8   8   8   8   8   8   8
#     4  12  25  39  61  89 126 161 200 253 315 371
#     4  11  26  39  58  87 127 167 194 245 311 370
#     4  11  21  36  61  91 120 153 200 254 303 359
#     4  11  23  37  60  91 121 161 203 247 303 364
#     4  11  19  34  61  93 113 152 201 254 304 345
#     4  11  20  37  62  89 121 151 203 255 303 353
#     4  11  21  40  60  84 124 153 200 251 294 363
#
# _framework density 18.472845
#
# number of rings (size 3 to 8) (size 9 to 14) (size 15 to 20)
#    0.000    0.857    5.714    3.857    2.000    1.143 
#    0.000    0.000    0.000    3.429    0.000    0.000 
#    0.000    0.000    0.000    0.000    0.000    0.000 
#
# Total GULP energy -156412.192161 kJ/mol
# GULP energy per Si atom -5586.149720 kJ/mol
# Density = 1.843080 g / cm^3
# Si number density = 18.472845 Si / 1000 Ang^3
#
#
#
# Elastic Constant Matrix: (Units=GPa)
#
#
# Indices 1 2 3 4 5 6 
#
# 1 86.0779 38.2629 8.9923 0.0000 -19.1601 0.0000
# 2 38.2629 105.0103 22.9361 0.0000 -5.7972 0.0000
# 3 8.9923 22.9361 71.2056 0.0000 -5.4631 0.0000
# 4 0.0000 0.0000 0.0000 20.6482 0.0000 -6.9888
# 5 -19.1601 -5.7972 -5.4631 0.0000 32.2032 0.0000
# 6 0.0000 0.0000 0.0000 -6.9888 0.0000 16.9238
#
#
#
# Elastic Compliance Matrix: (Units=1/GPa)
#
#
# Indices 1 2 3 4 5 6 
#
# 1 0.015878 -0.005399 0.000389 0.000000 0.008541 0.000000
# 2 -0.005399 0.012133 -0.003349 0.000000 -0.001596 0.000000
# 3 0.000389 -0.003349 0.015243 0.000000 0.002215 0.000000
# 4 0.000000 0.000000 0.000000 0.056300 0.000000 0.023249
# 5 0.008541 -0.001596 0.002215 0.000000 0.036223 0.000000
# 6 0.000000 0.000000 0.000000 0.023249 0.000000 0.068689
#
#
# Mechanical properties :
#
#
# Convention : Reuss Voigt Hill
#
# Bulk Modulus (GPa) = 37.68300 44.74184 41.21242
# Shear Modulus (GPa) = 21.73633 26.76188 24.24911
#
# Velocity S-wave (km/s) = 3.43398 3.81033 3.62704
# Velocity P-wave (km/s) = 6.01384 6.60538 6.31654
#
# Compressibility (1/GPa) = 0.02653717
#
# Stress axis : x y z
#
# Youngs Moduli (GPa) = 62.98109 82.41676 65.60247
#
# Poissons Ratio (x) = 0.44496 -0.02553
# Poissons Ratio (y) = 0.34003 0.21970
# Poissons Ratio (z) = -0.02451 0.27601
#
# Static dielectric constant tensor:
#      x y z
#    x 1.662650 0.000000 0.017340 
#    y 0.000000 1.626290 0.000000 
#    z 0.017340 0.000000 1.683830 
# 
# From -- ./inp_files/89567.got.cif
#   From: 2010.05.17/outbox.cif.g08.bks.cpg/sg15_45_cif.got.tgz:89567.got - 2010.06.03 18:47:42.
