data_PCOD9300316
_publ_section_title
;
Structure prediction by ZEFSAII (Michael W. Deem and Ramdas Pophale) SiO2 
 PCOD9300316
Probable space group: C 2/C
;
_chemical_formula_sum "Si O2"
_cell_formula_units_Z 52
_cell_length_a 13.818256
_cell_length_b 5.567632
_cell_length_c 29.190152
_cell_angle_alpha 90.000000
_cell_angle_beta 63.968587
_cell_angle_gamma 90.000000
_cell_volume 2017.920660
_symmetry_space_group_name_H-M "C 2/C"
_symmetry_group_IT_number 15
_symmetry_cell_setting 'monoclinic'
loop_
_space_group_symop_operation_xyz
x,y,z
-x,y,1/2-z
-x,-y,-z
x,-y,1/2+z
1/2+x,1/2+y,z
1/2-x,1/2+y,1/2-z
1/2-x,1/2-y,-z
1/2+x,1/2-y,1/2+z
loop_
_atom_site_type_symbol
_atom_site_label
_atom_site_fract_x
_atom_site_fract_y
_atom_site_fract_z
Si Si1 0.519571 0.123385 0.448252
Si Si2 0.310624 0.066358 0.729738
Si Si3 0.221422 0.103476 0.915591
Si Si4 0.831614 0.963314 0.473878
Si Si5 0.095801 0.249645 0.377857
Si Si6 0.500000 0.707947 0.250000
Si Si7 0.910627 0.895534 0.860594
O O1 0.642688 0.187734 0.414355
O O2 0.449809 0.360912 0.460849
O O3 0.500000 0.000000 0.500000
O O4 0.496890 0.909926 0.417866
O O5 0.232834 0.297907 0.753578
O O6 0.338204 0.090778 0.670736
O O7 0.415559 0.129389 0.738844
O O8 0.343019 0.142648 0.873588
O O9 0.166903 0.872315 0.902445
O O10 0.201425 0.123133 0.974880
O O11 0.750000 0.750000 0.500000
O O12 0.838758 0.993845 0.417260
O O13 0.029861 0.074079 0.357762
O O14 0.566821 0.556099 0.197734
#
# Coordination Sequence:
#
# PCOD9300316 Si02
#       7
#     8   8   8   8   8   4   8
#     4  12  23  41  68 100 142 184 235 292 369 449
#     4  11  27  49  79 112 151 203 268 323 392 460
#     4  12  24  43  70 101 146 186 237 300 375 450
#     4  12  24  41  68 107 146 190 237 304 378 458
#     4  11  25  44  71 101 139 192 234 309 371 454
#     4  10  26  48  76 110 152 208 262 336 378 472
#     4  11  24  45  68 101 144 187 247 303 378 448
#
# _framework density 25.769100000000002
#
# number of rings (size 3 to 8) (size 9 to 14) (size 15 to 20)
#    0.000    0.615    3.077    4.615    4.308    0.615 
#    0.000    1.538    0.000    0.000    0.000    0.000 
#    0.000    0.000    0.000    0.000    0.000    0.000 
#
# Total GULP energy -144916.979945 kJ/mol
# GULP energy per Si atom -5573.729998 kJ/mol
# Density = 2.571045 g / cm^3
# Si number density = 25.769100 Si / 1000 Ang^3
#
#
#
# Elastic Constant Matrix: (Units=GPa)
#
#
# Indices 1 2 3 4 5 6 
#
# 1 104.6135 -1.6591 22.4524 0.0000 8.3161 -0.0006
# 2 -1.6591 30.6316 36.5131 -0.0014 -1.5048 -0.0029
# 3 22.4524 36.5131 243.7457 -0.0005 6.2470 -0.0001
# 4 0.0000 -0.0014 -0.0005 44.8957 -0.0001 -3.1257
# 5 8.3161 -1.5048 6.2470 -0.0001 30.6469 -0.0001
# 6 -0.0006 -0.0029 -0.0001 -3.1257 -0.0001 22.1099
#
#
#
# Elastic Compliance Matrix: (Units=1/GPa)
#
#
# Indices 1 2 3 4 5 6 
#
# 1 0.010020 0.001767 -0.001126 0.000000 -0.002403 0.000000
# 2 0.001767 0.040365 -0.006281 0.000002 0.002783 0.000005
# 3 -0.001126 -0.006281 0.005174 0.000000 -0.001058 -0.000001
# 4 0.000000 0.000002 0.000000 0.022495 0.000000 0.003180
# 5 -0.002403 0.002783 -0.001058 0.000000 0.033634 0.000001
# 6 0.000000 0.000005 -0.000001 0.003180 0.000001 0.045678
#
#
# Mechanical properties :
#
#
# Convention : Reuss Voigt Hill
#
# Bulk Modulus (GPa) = 22.58389 54.84485 38.71437
# Shear Modulus (GPa) = 27.26190 40.97612 34.11901
#
# Velocity S-wave (km/s) = 3.25611 3.99196 3.64267
# Velocity P-wave (km/s) = 4.78741 6.52511 5.72261
#
# Compressibility (1/GPa) = 0.04427935
#
# Stress axis : x y z
#
# Youngs Moduli (GPa) = 99.80351 24.77383 193.26173
#
# Poissons Ratio (x) = -0.04377 0.21763
# Poissons Ratio (y) = -0.17635 1.21384
# Poissons Ratio (z) = 0.11239 0.15560
#
# Static dielectric constant tensor:
#      x y z
#    x 2.017000 0.000000 0.247600 
#    y 0.000000 2.349250 0.000000 
#    z 0.247600 0.000000 1.818720 
# 
# From -- ./inp_files/312297.got.cif
#   From: 2010.05.17/outbox.cif.g08.bks.cpg/sg15_157_cif.got.tgz:312297.got - 2010.06.03 18:47:42.
