data_PCOD9300471
_publ_section_title
;
Structure prediction by ZEFSAII (Michael W. Deem and Ramdas Pophale) SiO2 
 PCOD9300471
Probable space group: C 2/C
;
_chemical_formula_sum "Si O2"
_cell_formula_units_Z 52
_cell_length_a 11.878182
_cell_length_b 22.617713
_cell_length_c 9.506999
_cell_angle_alpha 90.000000
_cell_angle_beta 54.689384
_cell_angle_gamma 90.000000
_cell_volume 2084.243751
_symmetry_space_group_name_H-M "C 2/C"
_symmetry_group_IT_number 15
_symmetry_cell_setting 'monoclinic'
loop_
_space_group_symop_operation_xyz
x,y,z
-x,y,1/2-z
-x,-y,-z
x,-y,1/2+z
1/2+x,1/2+y,z
1/2-x,1/2+y,1/2-z
1/2-x,1/2-y,-z
1/2+x,1/2-y,1/2+z
loop_
_atom_site_type_symbol
_atom_site_label
_atom_site_fract_x
_atom_site_fract_y
_atom_site_fract_z
Si Si1 0.656360 0.016808 0.685404
Si Si2 0.315460 0.681151 0.285974
Si Si3 0.143412 0.693426 0.692923
Si Si4 0.174737 0.049734 0.224971
Si Si5 0.227342 0.386397 0.366063
Si Si6 0.146137 0.702604 0.137888
Si Si7 0.000000 0.950683 0.250000
O O1 0.500000 0.007233 0.750000
O O2 0.664243 0.062744 0.811526
O O3 0.743343 0.037814 0.483453
O O4 0.727266 0.961077 0.711208
O O5 0.235833 0.689268 0.488889
O O6 0.400186 0.742077 0.215571
O O7 0.381335 0.616430 0.231587
O O8 0.202735 0.683529 0.246219
O O9 0.000000 0.662454 0.750000
O O10 0.056193 0.999902 0.319807
O O11 0.250000 0.250000 0.500000
O O12 0.133071 0.355457 0.549830
O O13 0.239675 0.334885 0.242164
O O14 0.366856 0.408084 0.340908
O O15 0.000000 0.733139 0.250000
#
# Coordination Sequence:
#
# PCOD9300471 Si02
#       7
#     8   8   8   8   8   8   4
#     4  11  25  47  74 105 148 196 256 327 387 462
#     4  11  26  44  72 111 151 197 260 318 397 474
#     4  11  23  47  74 110 146 199 251 320 395 465
#     4  11  26  47  71 113 144 205 258 323 389 468
#     4  11  24  49  76 106 153 206 252 324 390 472
#     4  12  28  48  76 117 159 207 261 322 397 480
#     4  10  28  50  74 106 156 206 262 320 396 468
#
# _framework density 24.949096999999998
#
# number of rings (size 3 to 8) (size 9 to 14) (size 15 to 20)
#    0.000    0.923    3.077    1.846    8.615    3.077 
#    2.769    0.000    0.000    0.000    0.000    0.000 
#    0.000    0.000    0.000    0.000    0.000    0.000 
#
# Total GULP energy -145169.196072 kJ/mol
# GULP energy per Si atom -5583.430618 kJ/mol
# Density = 2.489231 g / cm^3
# Si number density = 24.949097 Si / 1000 Ang^3
#
#
#
# Elastic Constant Matrix: (Units=GPa)
#
#
# Indices 1 2 3 4 5 6 
#
# 1 176.0769 37.7450 43.6218 0.0000 -1.9127 0.0000
# 2 37.7450 132.6674 17.7989 0.0000 2.7378 0.0000
# 3 43.6218 17.7989 79.1882 0.0000 18.9573 0.0000
# 4 0.0000 0.0000 0.0000-2996.9424 0.0000-1744.2091
# 5 -1.9127 2.7378 18.9573 0.0000 44.5116 0.0000
# 6 0.0000 0.0000 0.0000-1744.2091 0.0000 -990.8608
#
#
#
# Elastic Compliance Matrix: (Units=1/GPa)
#
#
# Indices 1 2 3 4 5 6 
#
# 1 0.007024 -0.001500 -0.004038 0.000000 0.002114 0.000000
# 2 -0.001500 0.008096 -0.000956 0.000000 -0.000155 0.000000
# 3 -0.004038 -0.000956 0.016809 0.000000 -0.007274 0.000000
# 4 0.000000 0.000000 0.000000 0.013627 0.000000 -0.023988
# 5 0.002114 -0.000155 -0.007274 0.000000 0.025664 0.000000
# 6 0.000000 0.000000 0.000000 -0.023988 0.000000 0.041216
#
#
# Mechanical properties :
#
#
# Convention : Reuss Voigt Hill
#
# Bulk Modulus (GPa) = 52.79897 65.14040 58.96969
# Shear Modulus (GPa) = 37.95370 -769.40720 -365.72675
#
# Velocity S-wave (km/s) = 3.90455 -17.58011 -12.12054
# Velocity P-wave (km/s) = 6.44484 19.64470 13.12209
#
# Compressibility (1/GPa) = 0.01893976
#
# Stress axis : x y z
#
# Youngs Moduli (GPa) = 142.36105 123.51817 59.49240
#
# Poissons Ratio (x) = 0.18532 0.24025
# Poissons Ratio (y) = 0.21359 0.05688
# Poissons Ratio (z) = 0.57490 0.11809
#
# Static dielectric constant tensor:
#      x y z
#    x 1.962190 0.000000 0.010850 
#    y 0.000000 2.097470 0.000000 
#    z 0.010850 0.000000 2.015310 
# 
# From -- ./inp_files/89489.got.cif
#   From: 2010.05.17/outbox.cif.g08.bks.cpg/sg15_45_cif.got.tgz:89489.got - 2010.06.03 18:47:42.
