data_PCOD9300685
_publ_section_title
;
Structure prediction by ZEFSAII (Michael W. Deem and Ramdas Pophale) SiO2 
 PCOD9300685
Probable space group: C 2/C
;
_chemical_formula_sum "Si O2"
_cell_formula_units_Z 48
_cell_length_a 11.696929
_cell_length_b 18.933648
_cell_length_c 12.936091
_cell_angle_alpha 90.000000
_cell_angle_beta 72.096063
_cell_angle_gamma 90.000000
_cell_volume 2726.160708
_symmetry_space_group_name_H-M "C 2/C"
_symmetry_group_IT_number 15
_symmetry_cell_setting 'monoclinic'
loop_
_space_group_symop_operation_xyz
x,y,z
-x,y,1/2-z
-x,-y,-z
x,-y,1/2+z
1/2+x,1/2+y,z
1/2-x,1/2+y,1/2-z
1/2-x,1/2-y,-z
1/2+x,1/2-y,1/2+z
loop_
_atom_site_type_symbol
_atom_site_label
_atom_site_fract_x
_atom_site_fract_y
_atom_site_fract_z
Si Si1 0.788230 0.736019 0.110819
Si Si2 0.063350 0.225304 0.538326
Si Si3 0.446391 0.578355 0.525952
Si Si4 0.636118 0.601810 0.175707
Si Si5 0.856699 0.056900 0.764868
Si Si6 0.253788 0.301959 0.339472
O O1 0.732581 0.662161 0.164481
O O2 0.747731 0.785632 0.218859
O O3 0.750000 0.750000 0.000000
O O4 0.931785 0.741111 0.074061
O O5 0.144704 0.265805 0.431549
O O6 0.129226 0.228177 0.631332
O O7 0.041085 0.142182 0.516609
O O8 0.500000 0.500000 0.500000
O O9 0.376281 0.594141 0.442544
O O10 0.355485 0.575233 0.645439
O O11 0.500000 0.620311 0.250000
O O12 0.668881 0.525123 0.210631
O O13 0.773289 0.113414 0.845191
O O14 0.000000 0.066613 0.750000
#
# Coordination Sequence:
#
# PCOD9300685 Si02
#       6
#     8   8   8   8   8   8
#     4  12  23  38  59  88 128 154 196 254 306 360
#     4  11  23  38  61  90 117 163 197 246 301 363
#     4  12  19  35  58  87 118 146 196 253 303 343
#     4  11  22  35  58  92 117 151 198 255 300 357
#     4  11  19  35  58  82 118 149 196 252 294 346
#     4  11  22  39  61  86 121 159 207 239 302 366
#
# _framework density 17.607178000000001
#
# number of rings (size 3 to 8) (size 9 to 14) (size 15 to 20)
#    0.000    0.667    8.333    1.500    0.000    0.000 
#    0.000    0.833    0.000    0.000    4.333    0.000 
#    0.000    0.000    0.000    0.000    0.000    0.000 
#
# Total GULP energy -133660.981284 kJ/mol
# GULP energy per Si atom -5569.207553 kJ/mol
# Density = 1.756710 g / cm^3
# Si number density = 17.607178 Si / 1000 Ang^3
#
#
#
# Elastic Constant Matrix: (Units=GPa)
#
#
# Indices 1 2 3 4 5 6 
#
# 1 53.0166 44.8310 16.0397 0.0000 -18.2222 0.0000
# 2 44.8310 154.5096 34.0516 0.0000 -24.4556 0.0000
# 3 16.0397 34.0516 89.4933 0.0000 -1.6467 0.0000
# 4 0.0000 0.0000 0.0000 30.5022 0.0000 -12.2602
# 5 -18.2222 -24.4556 -1.6467 0.0000 21.0639 0.0000
# 6 0.0000 0.0000 0.0000 -12.2602 0.0000 8.8957
#
#
#
# Elastic Compliance Matrix: (Units=1/GPa)
#
#
# Indices 1 2 3 4 5 6 
#
# 1 0.031347 -0.005040 -0.003314 0.000000 0.021007 0.000000
# 2 -0.005040 0.009540 -0.002607 0.000000 0.006512 0.000000
# 3 -0.003314 -0.002607 0.012670 0.000000 -0.004903 0.000000
# 4 0.000000 0.000000 0.000000 0.073504 0.000000 0.101305
# 5 0.021007 0.006512 -0.004903 0.000000 0.072825 0.000000
# 6 0.000000 0.000000 0.000000 0.101305 0.000000 0.252036
#
#
# Mechanical properties :
#
#
# Convention : Reuss Voigt Hill
#
# Bulk Modulus (GPa) = 31.61076 54.09602 42.85339
# Shear Modulus (GPa) = 10.32235 25.56551 17.94393
#
# Velocity S-wave (km/s) = 2.42390 3.81464 3.19584
# Velocity P-wave (km/s) = 5.08193 7.08467 6.16517
#
# Compressibility (1/GPa) = 0.03163480
#
# Stress axis : x y z
#
# Youngs Moduli (GPa) = 31.90119 104.82662 78.92923
#
# Poissons Ratio (x) = 0.52832 0.26157
# Poissons Ratio (y) = 0.16078 0.20574
# Poissons Ratio (z) = 0.10572 0.27324
#
# Static dielectric constant tensor:
#      x y z
#    x 1.580460 0.000000 0.033300 
#    y 0.000000 2.116300 0.000000 
#    z 0.033300 0.000000 1.677710 
# 
# From -- ./inp_files/87795.got.cif
#   From: 2010.05.17/outbox.cif.g08.bks.cpg/sg15_44_cif.got.tgz:87795.got - 2010.06.03 18:47:42.
