data_PCOD9300232
_publ_section_title
;
Structure prediction by ZEFSAII (Michael W. Deem and Ramdas Pophale) SiO2 
 PCOD9300232
Probable space group: C 2/C
;
_chemical_formula_sum "Si O2"
_cell_formula_units_Z 44
_cell_length_a 13.955711
_cell_length_b 5.409425
_cell_length_c 22.353459
_cell_angle_alpha 90.000000
_cell_angle_beta 76.861029
_cell_angle_gamma 90.000000
_cell_volume 1643.339149
_symmetry_space_group_name_H-M "C 2/C"
_symmetry_group_IT_number 15
_symmetry_cell_setting 'monoclinic'
loop_
_space_group_symop_operation_xyz
x,y,z
-x,y,1/2-z
-x,-y,-z
x,-y,1/2+z
1/2+x,1/2+y,z
1/2-x,1/2+y,1/2-z
1/2-x,1/2-y,-z
1/2+x,1/2-y,1/2+z
loop_
_atom_site_type_symbol
_atom_site_label
_atom_site_fract_x
_atom_site_fract_y
_atom_site_fract_z
Si Si1 0.291860 0.472730 0.771763
Si Si2 0.654910 0.104014 0.992029
Si Si3 0.584433 0.060902 0.619764
Si Si4 0.535229 0.564505 0.428392
Si Si5 0.708821 0.751187 0.892786
Si Si6 0.500000 0.199439 0.750000
O O1 0.269605 0.743829 0.749361
O O2 0.251153 0.464808 0.845053
O O3 0.403851 0.372065 0.754541
O O4 0.581132 0.096818 0.059157
O O5 0.750000 0.250000 0.000000
O O6 0.606023 0.211547 0.939258
O O7 0.685871 0.836856 0.963284
O O8 0.549914 0.331583 0.601220
O O9 0.699277 0.064515 0.619604
O O10 0.521800 0.030520 0.688538
O O11 0.500000 0.500000 0.500000
O O12 0.608049 0.373809 0.386343
#
# Coordination Sequence:
#
# PCOD9300232 Si02
#       6
#     8   8   8   8   8   4
#     4  11  27  49  78 108 154 205 260 316 379 460
#     4  12  24  41  72 104 142 184 239 305 372 441
#     4  11  23  45  66 101 142 185 241 302 370 447
#     4  12  24  40  69 104 139 182 240 301 373 444
#     4  11  25  44  68 102 142 189 238 306 375 436
#     4  10  26  46  76 108 150 204 258 314 380 464
#
# _framework density 26.774754000000001
#
# number of rings (size 3 to 8) (size 9 to 14) (size 15 to 20)
#    0.000    0.727    3.636    3.273    5.091    0.727 
#    0.000    1.818    0.000    0.000    0.000    0.000 
#    0.000    0.000    0.000    0.000    0.000    0.000 
#
# Total GULP energy -123092.250964 kJ/mol
# GULP energy per Si atom -5595.102317 kJ/mol
# Density = 2.671381 g / cm^3
# Si number density = 26.774754 Si / 1000 Ang^3
#
#
#
# Elastic Constant Matrix: (Units=GPa)
#
#
# Indices 1 2 3 4 5 6 
#
# 1 137.1770 20.3813 27.9578 0.0001 -26.5615 0.0001
# 2 20.3813 52.5665 22.0194 0.0002 -3.1227 0.0001
# 3 27.9578 22.0194 163.4210 0.0002 -31.8672 0.0001
# 4 0.0001 0.0002 0.0002 39.2738 0.0001 -1.8873
# 5 -26.5615 -3.1227 -31.8672 0.0001 45.2402 0.0000
# 6 0.0001 0.0001 0.0001 -1.8873 0.0000 39.6580
#
#
#
# Elastic Compliance Matrix: (Units=1/GPa)
#
#
# Indices 1 2 3 4 5 6 
#
# 1 0.008698 -0.003027 -0.000145 0.000000 0.004795 0.000000
# 2 -0.003027 0.021229 -0.002786 0.000000 -0.002274 0.000000
# 3 -0.000145 -0.002786 0.007495 0.000000 0.005002 0.000000
# 4 0.000000 0.000000 0.000000 0.025521 0.000000 0.001214
# 5 0.004795 -0.002274 0.005002 0.000000 0.028286 0.000000
# 6 0.000000 0.000000 0.000000 0.001214 0.000000 0.025273
#
#
# Mechanical properties :
#
#
# Convention : Reuss Voigt Hill
#
# Bulk Modulus (GPa) = 39.20675 54.87573 47.04124
# Shear Modulus (GPa) = 36.51797 43.68814 40.10305
#
# Velocity S-wave (km/s) = 3.69710 4.04380 3.87433
# Velocity P-wave (km/s) = 5.73583 6.50715 6.13362
#
# Compressibility (1/GPa) = 0.02550581
#
# Stress axis : x y z
#
# Youngs Moduli (GPa) = 114.97359 47.10547 133.42708
#
# Poissons Ratio (x) = 0.14257 0.01935
# Poissons Ratio (y) = 0.34798 0.37174
# Poissons Ratio (z) = 0.01668 0.13124
#
# Static dielectric constant tensor:
#      x y z
#    x 2.139900 0.000000 0.001130 
#    y 0.000000 2.391940 0.000000 
#    z 0.001130 0.000000 2.097120 
# 
# From -- ./inp_files/271862.got.cif
#   From: 2010.05.17/outbox.cif.g08.bks.cpg/sg15_136_cif.got.tgz:271862.got - 2010.06.03 18:47:42.
