data_PCOD9300834
_publ_section_title
;
Structure prediction by ZEFSAII (Michael W. Deem and Ramdas Pophale) SiO2 
 PCOD9300834
Probable space group: C 2/C
;
_chemical_formula_sum "Si O2"
_cell_formula_units_Z 36
_cell_length_a 5.403076
_cell_length_b 21.816522
_cell_length_c 12.944595
_cell_angle_alpha 90.000000
_cell_angle_beta 112.982838
_cell_angle_gamma 90.000000
_cell_volume 1404.741257
_symmetry_space_group_name_H-M "C 2/C"
_symmetry_group_IT_number 15
_symmetry_cell_setting 'monoclinic'
loop_
_space_group_symop_operation_xyz
x,y,z
-x,y,1/2-z
-x,-y,-z
x,-y,1/2+z
1/2+x,1/2+y,z
1/2-x,1/2+y,1/2-z
1/2-x,1/2-y,-z
1/2+x,1/2-y,1/2+z
loop_
_atom_site_type_symbol
_atom_site_label
_atom_site_fract_x
_atom_site_fract_y
_atom_site_fract_z
Si Si1 0.435680 0.427972 0.478024
Si Si2 0.000000 0.713157 0.750000
Si Si3 0.145818 0.366204 0.088490
Si Si4 0.724883 0.565848 0.227001
Si Si5 0.414653 0.809228 0.854075
O O1 0.500000 0.500000 0.500000
O O2 0.125910 0.408239 0.441477
O O3 0.606805 0.404693 0.604570
O O4 0.590333 0.402994 0.403328
O O5 0.841177 0.671201 0.804203
O O6 0.194557 0.758365 0.844566
O O7 0.096213 0.319241 0.984310
O O8 0.500000 0.528456 0.250000
O O9 0.800952 0.622309 0.313246
O O10 0.000000 0.530813 0.250000
O O11 0.500000 0.791976 0.750000
#
# Coordination Sequence:
#
# PCOD9300834 Si02
#       5
#     8   4   8   8   8
#     4  12  25  48  73 101 140 190 241 305 362 406
#     4  12  28  44  68 110 156 190 222 296 388 410
#     4  12  27  47  70 107 149 183 247 296 346 451
#     4  11  19  40  70 103 128 173 247 286 325 428
#     4  11  22  43  75  99 139 193 240 281 349 436
#
# _framework density 25.627496000000001
#
# number of rings (size 3 to 8) (size 9 to 14) (size 15 to 20)
#    0.000    0.444    7.778    1.333    3.111    0.889 
#    6.000    0.000    0.000    0.000    0.000    0.000 
#    0.000    0.000    0.000    0.000    0.000    0.000 
#
# Total GULP energy -100605.340374 kJ/mol
# GULP energy per Si atom -5589.185576 kJ/mol
# Density = 2.556917 g / cm^3
# Si number density = 25.627496 Si / 1000 Ang^3
#
#
#
# Elastic Constant Matrix: (Units=GPa)
#
#
# Indices 1 2 3 4 5 6 
#
# 1 183.5459 38.1868 12.7387 0.0000 -37.9818 0.0000
# 2 38.1868 95.0662 32.4311 0.0000 -13.5983 0.0000
# 3 12.7387 32.4311 88.7016 0.0000 -26.3475 0.0000
# 4 0.0000 0.0000 0.0000 2.0466 0.0000 12.3180
# 5 -37.9818 -13.5983 -26.3475 0.0000 41.5861 0.0000
# 6 0.0000 0.0000 0.0000 12.3180 0.0000 -5.3422
#
#
#
# Elastic Compliance Matrix: (Units=1/GPa)
#
#
# Indices 1 2 3 4 5 6 
#
# 1 0.007323 -0.002612 0.002016 0.000000 0.007112 0.000000
# 2 -0.002612 0.013017 -0.004716 0.000000 -0.001117 0.000000
# 3 0.002016 -0.004716 0.015764 0.000000 0.010286 0.000000
# 4 0.000000 0.000000 0.000000 0.032841 0.000000 0.075725
# 5 0.007112 -0.001117 0.010286 0.000000 0.036694 0.000000
# 6 0.000000 0.000000 0.000000 0.075725 0.000000 -0.012582
#
#
# Mechanical properties :
#
#
# Convention : Reuss Voigt Hill
#
# Bulk Modulus (GPa) = 39.24683 59.33633 49.29158
# Shear Modulus (GPa) = 44.57271 26.58857 35.58064
#
# Velocity S-wave (km/s) = 4.17496 3.22452 3.73014
# Velocity P-wave (km/s) = 6.21192 6.08827 6.15041
#
# Compressibility (1/GPa) = 0.02547976
#
# Stress axis : x y z
#
# Youngs Moduli (GPa) = 136.54815 76.82080 63.43564
#
# Poissons Ratio (x) = 0.20067 -0.12787
# Poissons Ratio (y) = 0.35668 0.29917
# Poissons Ratio (z) = -0.27524 0.36229
#
# Static dielectric constant tensor:
#      x y z
#    x 2.175740 0.000000 0.025410 
#    y 0.000000 1.992330 0.000000 
#    z 0.025410 0.000000 2.071640 
# 
# From -- ./inp_files/128791.got.cif
#   From: 2010.05.17/outbox.cif.g08.bks.cpg/sg15_65_cif.got.tgz:128791.got - 2010.06.03 18:47:42.
