data_PCOD9300648
_publ_section_title
;
Structure prediction by ZEFSAII (Michael W. Deem and Ramdas Pophale) SiO2 
 PCOD9300648
Probable space group: C 2/C
;
_chemical_formula_sum "Si O2"
_cell_formula_units_Z 44
_cell_length_a 17.175538
_cell_length_b 18.944031
_cell_length_c 19.276192
_cell_angle_alpha 90.000000
_cell_angle_beta 21.439647
_cell_angle_gamma 90.000000
_cell_volume 2292.536584
_symmetry_space_group_name_H-M "C 2/C"
_symmetry_group_IT_number 15
_symmetry_cell_setting 'monoclinic'
loop_
_space_group_symop_operation_xyz
x,y,z
-x,y,1/2-z
-x,-y,-z
x,-y,1/2+z
1/2+x,1/2+y,z
1/2-x,1/2+y,1/2-z
1/2-x,1/2-y,-z
1/2+x,1/2-y,1/2+z
loop_
_atom_site_type_symbol
_atom_site_label
_atom_site_fract_x
_atom_site_fract_y
_atom_site_fract_z
Si Si1 0.402656 0.359787 0.762639
Si Si2 0.272748 0.336669 0.648263
Si Si3 0.000000 0.278942 0.750000
Si Si4 0.314726 0.199636 0.849882
Si Si5 0.243369 0.312935 0.263660
Si Si6 0.091102 0.577033 0.412965
O O1 0.500000 0.394895 0.750000
O O2 0.298725 0.284668 0.870763
O O3 0.599362 0.336333 0.552656
O O4 0.245959 0.406146 0.848387
O O5 0.517469 0.339241 0.422931
O O6 0.268696 0.268316 0.702769
O O7 0.211748 0.406453 0.741385
O O8 0.110599 0.318768 0.721075
O O9 0.250000 0.250000 0.500000
O O10 0.500000 0.177622 0.750000
O O11 0.327639 0.183303 0.757727
O O12 0.089916 0.362968 0.434204
O O13 0.000000 0.500000 0.500000
#
# Coordination Sequence:
#
# PCOD9300648 Si02
#       6
#     8   8   4   8   8   8
#     4  11  20  35  58  93 128 167 213 269 332 412
#     4  12  23  42  70 103 129 180 235 298 355 423
#     4  12  24  42  74 114 140 176 250 328 374 412
#     4  11  19  32  62 100 126 161 213 272 331 398
#     4  12  20  40  69  95 130 168 228 284 347 423
#     4  12  26  43  64  97 139 182 225 282 358 431
#
# _framework density 19.192713999999999
#
# number of rings (size 3 to 8) (size 9 to 14) (size 15 to 20)
#    0.000    0.364    7.273    4.364    0.000    0.727 
#    0.000    1.818    2.000    0.000    0.000    0.000 
#    0.000    0.000    0.000    0.000    0.000    0.000 
#
# Total GULP energy -122475.913793 kJ/mol
# GULP energy per Si atom -5567.086991 kJ/mol
# Density = 1.914903 g / cm^3
# Si number density = 19.192714 Si / 1000 Ang^3
#
#
#
# Elastic Constant Matrix: (Units=GPa)
#
#
# Indices 1 2 3 4 5 6 
#
# 1 91.9864 4.3914 16.6649 0.0385 -26.0067 -0.1262
# 2 4.3914 65.7423 18.5288 0.2256 -10.7736 -0.4762
# 3 16.6649 18.5288 96.0450 0.2493 -27.0356 -0.6366
# 4 0.0385 0.2256 0.2493 -38.6749 -0.0222 92.6559
# 5 -26.0067 -10.7736 -27.0356 -0.0222 38.8950 0.0478
# 6 -0.1262 -0.4762 -0.6366 92.6559 0.0478 -144.9625
#
#
#
# Elastic Compliance Matrix: (Units=1/GPa)
#
#
# Indices 1 2 3 4 5 6 
#
# 1 0.013430 0.000573 0.000164 0.000027 0.009252 0.000006
# 2 0.000573 0.016369 -0.002329 0.000045 0.003298 -0.000014
# 3 0.000164 -0.002329 0.013280 0.000090 0.008695 0.000009
# 4 0.000027 0.000045 0.000090 0.048667 0.000083 0.031106
# 5 0.009252 0.003298 0.008695 0.000083 0.038854 0.000009
# 6 0.000006 -0.000014 0.000009 0.031106 0.000009 0.012984
#
#
# Mechanical properties :
#
#
# Convention : Reuss Voigt Hill
#
# Bulk Modulus (GPa) = 25.06620 36.99377 31.02998
# Shear Modulus (GPa) = 31.23679 -14.66922 8.28379
#
# Velocity S-wave (km/s) = 4.03865 -2.76762 2.07978
# Velocity P-wave (km/s) = 5.90222 3.01725 4.68722
#
# Compressibility (1/GPa) = 0.03989436
#
# Stress axis : x y z
#
# Youngs Moduli (GPa) = 74.46022 61.08985 75.30036
#
# Poissons Ratio (x) = -0.03500 -0.01232
# Poissons Ratio (y) = -0.04266 0.17538
# Poissons Ratio (z) = -0.01218 0.14228
#
# Static dielectric constant tensor:
#      x y z
#    x 1.665910 0.000010 -0.138740 
#    y 0.000010 1.646440 0.000130 
#    z -0.138740 0.000130 0.679200 
# 
# From -- ./inp_files/249599.got.cif
#   From: 2010.05.17/outbox.cif.g08.bks.cpg/sg15_125_cif.got.tgz:249599.got - 2010.06.03 18:47:42.
