data_PCOD9300446
_publ_section_title
;
Structure prediction by ZEFSAII (Michael W. Deem and Ramdas Pophale) SiO2 
 PCOD9300446
Probable space group: C 2/C
;
_chemical_formula_sum "Si O2"
_cell_formula_units_Z 48
_cell_length_a 14.353551
_cell_length_b 14.051918
_cell_length_c 10.700604
_cell_angle_alpha 90.000000
_cell_angle_beta 109.735960
_cell_angle_gamma 90.000000
_cell_volume 2031.478833
_symmetry_space_group_name_H-M "C 2/C"
_symmetry_group_IT_number 15
_symmetry_cell_setting 'monoclinic'
loop_
_space_group_symop_operation_xyz
x,y,z
-x,y,1/2-z
-x,-y,-z
x,-y,1/2+z
1/2+x,1/2+y,z
1/2-x,1/2+y,1/2-z
1/2-x,1/2-y,-z
1/2+x,1/2-y,1/2+z
loop_
_atom_site_type_symbol
_atom_site_label
_atom_site_fract_x
_atom_site_fract_y
_atom_site_fract_z
Si Si1 0.137851 0.214389 0.958642
Si Si2 0.000000 0.641153 0.250000
Si Si3 0.404199 0.232577 0.783684
Si Si4 0.129067 0.486426 0.209064
Si Si5 0.250000 0.750000 0.000000
Si Si6 0.725347 0.949432 0.509989
Si Si7 0.435974 0.497433 0.097612
O O1 0.115284 0.106231 0.907801
O O2 0.077329 0.289125 0.849139
O O3 0.250000 0.250000 0.000000
O O4 0.101985 0.218691 0.085147
O O5 0.047528 0.568675 0.171235
O O6 0.500000 0.264712 0.750000
O O7 0.413376 0.119359 0.810784
O O8 0.302472 0.252623 0.663864
O O9 0.185127 0.498288 0.366977
O O10 0.201283 0.496163 0.124707
O O11 0.181818 0.656134 0.000107
O O12 0.842629 0.931369 0.542849
O O13 0.500000 0.516025 0.250000
O O14 0.500000 0.500000 0.000000
#
# Coordination Sequence:
#
# PCOD9300446 Si02
#       7
#     8   4   8   8   4   8   8
#     4  12  29  48  73 110 153 197 251 308 377 456
#     4  12  26  44  80 104 146 194 244 308 374 448
#     4  11  26  46  72 107 145 190 247 309 368 444
#     4  11  24  46  73 108 144 188 243 307 381 436
#     4  10  28  44  74 104 142 188 248 296 372 432
#     4  11  26  47  72 107 148 193 240 312 370 447
#     4  12  28  48  74 108 149 200 253 304 379 455
#
# _framework density 23.628108999999998
#
# number of rings (size 3 to 8) (size 9 to 14) (size 15 to 20)
#    0.000    0.667    1.667    4.000   14.000    2.667 
#    0.000    0.000    0.000    0.000    0.000    0.000 
#    0.000    0.000    0.000    0.000    0.000    0.000 
#
# Total GULP energy -133927.953649 kJ/mol
# GULP energy per Si atom -5580.331402 kJ/mol
# Density = 2.357433 g / cm^3
# Si number density = 23.628109 Si / 1000 Ang^3
#
#
#
# Elastic Constant Matrix: (Units=GPa)
#
#
# Indices 1 2 3 4 5 6 
#
# 1 122.1518 -4.5668 30.8348 0.0000 -22.4745 0.0000
# 2 -4.5668 77.4531 9.9058 0.0000 -4.9149 0.0000
# 3 30.8348 9.9058 106.9652 0.0000 -2.9851 0.0000
# 4 0.0000 0.0000 0.0000 20.3320 0.0000 -2.9547
# 5 -22.4745 -4.9149 -2.9851 0.0000 44.9156 0.0000
# 6 0.0000 0.0000 0.0000 -2.9547 0.0000 21.8729
#
#
#
# Elastic Compliance Matrix: (Units=1/GPa)
#
#
# Indices 1 2 3 4 5 6 
#
# 1 0.009841 0.001250 -0.002817 0.000000 0.004874 0.000000
# 2 0.001250 0.013307 -0.001537 0.000000 0.001979 0.000000
# 3 -0.002817 -0.001537 0.010278 0.000000 -0.000894 0.000000
# 4 0.000000 0.000000 0.000000 0.050168 0.000000 0.006777
# 5 0.004874 0.001979 -0.000894 0.000000 0.024860 0.000000
# 6 0.000000 0.000000 0.000000 0.006777 0.000000 0.046634
#
#
# Mechanical properties :
#
#
# Convention : Reuss Voigt Hill
#
# Bulk Modulus (GPa) = 36.74083 42.10199 39.42141
# Shear Modulus (GPa) = 29.34799 35.45052 32.39926
#
# Velocity S-wave (km/s) = 3.52814 3.87764 3.70701
# Velocity P-wave (km/s) = 5.67278 6.15674 5.91971
#
# Compressibility (1/GPa) = 0.02721768
#
# Stress axis : x y z
#
# Youngs Moduli (GPa) = 101.61628 75.14876 97.29354
#
# Poissons Ratio (x) = -0.09392 0.27403
# Poissons Ratio (y) = -0.12699 0.14957
# Poissons Ratio (z) = 0.28621 0.11553
#
# Static dielectric constant tensor:
#      x y z
#    x 2.007460 0.000000 0.015590 
#    y 0.000000 2.021990 0.000000 
#    z 0.015590 0.000000 2.102600 
# 
# From -- ./inp_files/97238.got.cif
#   From: 2010.05.17/outbox.cif.g08.bks.cpg/sg15_49_cif.got.tgz:97238.got - 2010.06.03 18:47:42.
