data_PCOD9300544
_publ_section_title
;
Structure prediction by ZEFSAII (Michael W. Deem and Ramdas Pophale) SiO2 
 PCOD9300544
Probable space group: C 2/C
;
_chemical_formula_sum "Si O2"
_cell_formula_units_Z 40
_cell_length_a 13.670286
_cell_length_b 12.996146
_cell_length_c 19.088413
_cell_angle_alpha 90.000000
_cell_angle_beta 151.304622
_cell_angle_gamma 90.000000
_cell_volume 1628.326213
_symmetry_space_group_name_H-M "C 2/C"
_symmetry_group_IT_number 15
_symmetry_cell_setting 'monoclinic'
loop_
_space_group_symop_operation_xyz
x,y,z
-x,y,1/2-z
-x,-y,-z
x,-y,1/2+z
1/2+x,1/2+y,z
1/2-x,1/2+y,1/2-z
1/2-x,1/2-y,-z
1/2+x,1/2-y,1/2+z
loop_
_atom_site_type_symbol
_atom_site_label
_atom_site_fract_x
_atom_site_fract_y
_atom_site_fract_z
Si Si1 0.732526 0.725233 0.391603
Si Si2 0.643090 0.421117 0.962612
Si Si3 0.647206 0.124426 0.401014
Si Si4 0.509662 0.885708 0.973819
Si Si5 0.568238 0.610892 0.712580
O O1 0.500000 0.762684 0.250000
O O2 0.727432 0.630108 0.443543
O O3 0.871936 0.821463 0.499372
O O4 0.815352 0.681292 0.371909
O O5 0.799879 0.506845 0.088249
O O6 0.379121 0.331555 0.056136
O O7 0.500000 0.171388 0.250000
O O8 0.551039 0.113228 0.417415
O O9 0.052180 0.994903 0.671176
O O10 0.708825 0.843083 0.141632
O O11 0.500000 0.000000 0.000000
O O12 0.500000 0.595025 0.750000
#
# Coordination Sequence:
#
# PCOD9300544 Si02
#       5
#     8   8   8   8   8
#     4  11  20  31  54  89 133 164 203 256 321 376
#     4   9  18  32  54  83 125 162 200 254 316 362
#     4   9  18  34  57  86 120 162 208 264 315 364
#     4  11  18  32  58  85 125 168 214 247 313 399
#     4   8  16  32  56  83 117 160 213 249 307 377
#
# _framework density 24.565102
#
# number of rings (size 3 to 8) (size 9 to 14) (size 15 to 20)
#    1.200    1.200    2.000    2.400    0.000    0.000 
#    0.000    1.000    0.000    0.000    0.000    0.000 
#   36.000   86.400    0.000    0.000    0.000    0.000 
#
# Total GULP energy -111541.524576 kJ/mol
# GULP energy per Si atom -5577.076229 kJ/mol
# Density = 2.450919 g / cm^3
# Si number density = 24.565102 Si / 1000 Ang^3
#
#
#
# Elastic Constant Matrix: (Units=GPa)
#
#
# Indices 1 2 3 4 5 6 
#
# 1 64.4984 18.2889 26.0202 0.0019 3.3117 0.0004
# 2 18.2889 89.0084 15.3867 0.0015 0.6048 0.0015
# 3 26.0202 15.3867 159.6238 0.0077 1.7804 0.0046
# 4 0.0019 0.0015 0.0077 35.0164 0.0040 2.9025
# 5 3.3117 0.6048 1.7804 0.0040 21.6852 0.0017
# 6 0.0004 0.0015 0.0046 2.9025 0.0017 19.1401
#
#
#
# Elastic Compliance Matrix: (Units=1/GPa)
#
#
# Indices 1 2 3 4 5 6 
#
# 1 0.017540 -0.003151 -0.002529 0.000000 -0.002383 0.000001
# 2 -0.003151 0.011992 -0.000645 0.000000 0.000200 -0.000001
# 3 -0.002529 -0.000645 0.006741 -0.000001 -0.000149 -0.000001
# 4 0.000000 0.000000 -0.000001 0.028922 -0.000005 -0.004386
# 5 -0.002383 0.000200 -0.000149 -0.000005 0.046485 -0.000003
# 6 0.000001 -0.000001 -0.000001 -0.004386 -0.000003 0.052911
#
#
# Mechanical properties :
#
#
# Convention : Reuss Voigt Hill
#
# Bulk Modulus (GPa) = 42.32826 48.05802 45.19314
# Shear Modulus (GPa) = 27.01023 32.06398 29.53711
#
# Velocity S-wave (km/s) = 3.31952 3.61677 3.47133
# Velocity P-wave (km/s) = 5.65339 6.08665 5.87402
#
# Compressibility (1/GPa) = 0.02362488
#
# Stress axis : x y z
#
# Youngs Moduli (GPa) = 57.01170 83.38641 148.35087
#
# Poissons Ratio (x) = 0.26273 0.37517
# Poissons Ratio (y) = 0.17963 0.09563
# Poissons Ratio (z) = 0.14418 0.05375
#
# Static dielectric constant tensor:
#      x y z
#    x 1.908890 0.000000 0.056500 
#    y 0.000000 1.940180 0.000000 
#    z 0.056500 0.000000 2.070360 
# 
# From -- ./inp_files/146891.got.cif
#   From: 2010.05.17/outbox.cif.g08.bks.cpg/sg15_74_cif.got.tgz:146891.got - 2010.06.03 18:47:42.
