data_PCOD9300110
_publ_section_title
;
Structure prediction by ZEFSAII (Michael W. Deem and Ramdas Pophale) SiO2 
 PCOD9300110
Probable space group: C 2/C
;
_chemical_formula_sum "Si O2"
_cell_formula_units_Z 28
_cell_length_a 27.940523
_cell_length_b 7.369758
_cell_length_c 9.209115
_cell_angle_alpha 90.000000
_cell_angle_beta 144.603144
_cell_angle_gamma 90.000000
_cell_volume 1098.402550
_symmetry_space_group_name_H-M "C 2/C"
_symmetry_group_IT_number 15
_symmetry_cell_setting 'monoclinic'
loop_
_space_group_symop_operation_xyz
x,y,z
-x,y,1/2-z
-x,-y,-z
x,-y,1/2+z
1/2+x,1/2+y,z
1/2-x,1/2+y,1/2-z
1/2-x,1/2-y,-z
1/2+x,1/2-y,1/2+z
loop_
_atom_site_type_symbol
_atom_site_label
_atom_site_fract_x
_atom_site_fract_y
_atom_site_fract_z
Si Si1 0.663675 0.935289 0.019462
Si Si2 0.606232 0.659534 0.654913
Si Si3 0.500000 0.938265 0.250000
Si Si4 0.836809 0.158793 0.037384
O O1 0.578133 0.944091 0.896459
O O2 0.664101 0.771664 0.907303
O O3 0.665120 0.127477 0.940935
O O4 0.743529 0.915317 0.317636
O O5 0.528830 0.796940 0.446725
O O6 0.639082 0.638865 0.572824
O O7 0.602428 0.460818 0.714368
#
# Coordination Sequence:
#
# PCOD9300110 Si02
#       4
#     8   8   4   8
#     4  11  23  45  70 105 138 183 230 290 345 413
#     4  11  25  47  69 109 139 184 234 288 349 416
#     4  10  26  44  72 102 148 180 228 292 358 406
#     4  11  25  43  78 102 139 183 241 287 341 415
#
# _framework density 25.491565999999999
#
# number of rings (size 3 to 8) (size 9 to 14) (size 15 to 20)
#    0.000    1.143    2.857    1.714    4.000   10.286 
#    0.000    7.143    0.000    0.000    0.000    0.000 
#    0.000    0.000    0.000    0.000    0.000    0.000 
#
# Total GULP energy -78412.273264 kJ/mol
# GULP energy per Si atom -5600.876662 kJ/mol
# Density = 2.543355 g / cm^3
# Si number density = 25.491566 Si / 1000 Ang^3
#
#
#
# Elastic Constant Matrix: (Units=GPa)
#
#
# Indices 1 2 3 4 5 6 
#
# 1 139.2353 30.0415 27.5371 0.0000 13.6697 0.0000
# 2 30.0415 85.9291 -21.3523 0.0000 -2.0204 0.0000
# 3 27.5371 -21.3523 55.3039 0.0000 12.8871 0.0000
# 4 0.0000 0.0000 0.0000 40.1098 0.0000 1.1102
# 5 13.6697 -2.0204 12.8871 0.0000 36.0922 0.0000
# 6 0.0000 0.0000 0.0000 1.1102 0.0000 19.5998
#
#
#
# Elastic Compliance Matrix: (Units=1/GPa)
#
#
# Indices 1 2 3 4 5 6 
#
# 1 0.009686 -0.005008 -0.006366 0.000000 -0.001676 0.000000
# 2 -0.005008 0.015505 0.008547 0.000000 -0.000287 0.000000
# 3 -0.006366 0.008547 0.026045 0.000000 -0.006410 0.000000
# 4 0.000000 0.000000 0.000000 0.024971 0.000000 -0.001414
# 5 -0.001676 -0.000287 -0.006410 0.000000 0.030614 0.000000
# 6 0.000000 0.000000 0.000000 -0.001414 0.000000 0.051101
#
#
# Mechanical properties :
#
#
# Convention : Reuss Voigt Hill
#
# Bulk Modulus (GPa) = 21.93797 39.21344 30.57571
# Shear Modulus (GPa) = 27.96892 35.44315 31.70603
#
# Velocity S-wave (km/s) = 3.31597 3.73284 3.53056
# Velocity P-wave (km/s) = 4.82551 5.83053 5.35166
#
# Compressibility (1/GPa) = 0.04558306
#
# Stress axis : x y z
#
# Youngs Moduli (GPa) = 103.24156 64.49471 38.39499
#
# Poissons Ratio (x) = 0.32296 0.24441
# Poissons Ratio (y) = 0.51698 -0.32815
# Poissons Ratio (z) = 0.65721 -0.55121
#
# Static dielectric constant tensor:
#      x y z
#    x 2.023630 0.000000 0.043360 
#    y 0.000000 1.951910 0.000000 
#    z 0.043360 0.000000 2.069870 
# 
# From -- ./inp_files/45405.got.cif
#   From: 2010.05.17/outbox.cif.g08.bks.cpg/sg15_23_cif.got.tgz:45405.got - 2010.06.03 18:47:42.
