data_PCOD9300751
_publ_section_title
;
Structure prediction by ZEFSAII (Michael W. Deem and Ramdas Pophale) SiO2 
 PCOD9300751
Probable space group: C 2/C
;
_chemical_formula_sum "Si O2"
_cell_formula_units_Z 32
_cell_length_a 18.413770
_cell_length_b 6.858722
_cell_length_c 16.555473
_cell_angle_alpha 90.000000
_cell_angle_beta 36.441727
_cell_angle_gamma 90.000000
_cell_volume 1241.988413
_symmetry_space_group_name_H-M "C 2/C"
_symmetry_group_IT_number 15
_symmetry_cell_setting 'monoclinic'
loop_
_space_group_symop_operation_xyz
x,y,z
-x,y,1/2-z
-x,-y,-z
x,-y,1/2+z
1/2+x,1/2+y,z
1/2-x,1/2+y,1/2-z
1/2-x,1/2-y,-z
1/2+x,1/2-y,1/2+z
loop_
_atom_site_type_symbol
_atom_site_label
_atom_site_fract_x
_atom_site_fract_y
_atom_site_fract_z
Si Si1 0.660261 0.074064 0.176641
Si Si2 0.660457 0.666011 0.901874
Si Si3 0.777296 0.516765 0.555400
Si Si4 0.041573 0.081075 0.834694
O O1 0.761376 0.251883 0.085010
O O2 0.537272 0.196782 0.304772
O O3 0.704963 0.924407 0.204145
O O4 0.671080 0.979364 0.079294
O O5 0.572254 0.549110 0.041597
O O6 0.660599 0.888285 0.931178
O O7 0.612893 0.619753 0.855606
O O8 0.631555 0.469696 0.692701
#
# Coordination Sequence:
#
# PCOD9300751 Si02
#       4
#     8   8   8   8
#     4   9  20  39  58  85 123 156 204 249 294 367
#     4  11  19  37  63  86 124 159 196 253 309 364
#     4   9  20  39  58  86 121 161 199 249 301 361
#     4   9  21  37  57  95 119 153 208 245 300 375
#
# _framework density 25.765134
#
# number of rings (size 3 to 8) (size 9 to 14) (size 15 to 20)
#    1.500    1.000    0.000    2.250    0.000    1.000 
#    4.500    2.500    0.000    0.000    0.000    0.000 
#    0.000    0.000    0.000    0.000    0.000    0.000 
#
# Total GULP energy -89271.287302 kJ/mol
# GULP energy per Si atom -5579.455456 kJ/mol
# Density = 2.570649 g / cm^3
# Si number density = 25.765134 Si / 1000 Ang^3
#
#
#
# Elastic Constant Matrix: (Units=GPa)
#
#
# Indices 1 2 3 4 5 6 
#
# 1 67.2691 31.4614 6.2348 -0.0005 13.8888 0.0002
# 2 31.4614 90.5732 8.6749 -0.0011 10.5798 0.0013
# 3 6.2348 8.6749 102.0539 -0.0004 13.2365 0.0005
# 4 -0.0005 -0.0011 -0.0004 28.7754 0.0003 2.8954
# 5 13.8888 10.5798 13.2365 0.0003 27.6010 -0.0003
# 6 0.0002 0.0013 0.0005 2.8954 -0.0003 31.5697
#
#
#
# Elastic Compliance Matrix: (Units=1/GPa)
#
#
# Indices 1 2 3 4 5 6 
#
# 1 0.019099 -0.005782 0.000303 0.000000 -0.007539 0.000000
# 2 -0.005782 0.013327 -0.000527 0.000000 -0.001946 -0.000001
# 3 0.000303 -0.000527 0.010470 0.000000 -0.004971 0.000000
# 4 0.000000 0.000000 0.000000 0.035076 -0.000001 -0.003217
# 5 -0.007539 -0.001946 -0.004971 -0.000001 0.043154 0.000001
# 6 0.000000 -0.000001 0.000000 -0.003217 0.000001 0.031971
#
#
# Mechanical properties :
#
#
# Convention : Reuss Voigt Hill
#
# Bulk Modulus (GPa) = 32.38190 39.18205 35.78198
# Shear Modulus (GPa) = 28.50559 31.82423 30.16491
#
# Velocity S-wave (km/s) = 3.32981 3.51831 3.42536
# Velocity P-wave (km/s) = 5.23249 5.63427 5.43709
#
# Compressibility (1/GPa) = 0.03088145
#
# Stress axis : x y z
#
# Youngs Moduli (GPa) = 52.35989 75.03477 95.51253
#
# Poissons Ratio (x) = 0.43388 -0.02890
# Poissons Ratio (y) = 0.30277 0.05035
# Poissons Ratio (z) = -0.01584 0.03956
#
# Static dielectric constant tensor:
#      x y z
#    x 2.057680 0.000000 -0.088450 
#    y 0.000000 2.040260 0.000000 
#    z -0.088450 0.000000 2.097240 
# 
# From -- ./inp_files/158605.got.cif
#   From: 2010.05.17/outbox.cif.g08.bks.cpg/sg15_80_cif.got.tgz:158605.got - 2010.06.03 18:47:42.
