data_PCOD9300221
_publ_section_title
;
Structure prediction by ZEFSAII (Michael W. Deem and Ramdas Pophale) SiO2 
 PCOD9300221
Probable space group: C 2/C
;
_chemical_formula_sum "Si O2"
_cell_formula_units_Z 60
_cell_length_a 21.511855
_cell_length_b 8.263775
_cell_length_c 18.627391
_cell_angle_alpha 90.000000
_cell_angle_beta 126.496205
_cell_angle_gamma 90.000000
_cell_volume 2662.002036
_symmetry_space_group_name_H-M "C 2/C"
_symmetry_group_IT_number 15
_symmetry_cell_setting 'monoclinic'
loop_
_space_group_symop_operation_xyz
x,y,z
-x,y,1/2-z
-x,-y,-z
x,-y,1/2+z
1/2+x,1/2+y,z
1/2-x,1/2+y,1/2-z
1/2-x,1/2-y,-z
1/2+x,1/2-y,1/2+z
loop_
_atom_site_type_symbol
_atom_site_label
_atom_site_fract_x
_atom_site_fract_y
_atom_site_fract_z
Si Si1 0.500000 0.423776 0.250000
Si Si2 0.655782 0.422651 0.057511
Si Si3 0.323199 0.545551 0.775333
Si Si4 0.276031 0.068291 0.037037
Si Si5 0.811395 0.555008 0.405026
Si Si6 0.618946 0.831259 0.764527
Si Si7 0.495459 0.419275 0.892555
Si Si8 0.441467 0.063528 0.899223
O O1 0.432993 0.302768 0.230443
O O2 0.476897 0.540309 0.168980
O O3 0.701213 0.479995 0.159497
O O4 0.704054 0.469872 0.020608
O O5 0.650821 0.230887 0.067007
O O6 0.567449 0.481217 0.989252
O O7 0.274424 0.437492 0.687420
O O8 0.320502 0.726635 0.741472
O O9 0.414308 0.510458 0.842614
O O10 0.339098 0.071438 0.143620
O O11 0.250000 0.250000 0.000000
O O12 0.307319 0.000566 0.983981
O O13 0.859746 0.436070 0.386103
O O14 0.570826 0.942062 0.676276
O O15 0.473109 0.234407 0.893262
O O16 0.500000 0.000000 0.000000
#
# Coordination Sequence:
#
# PCOD9300221 Si02
#       8
#     4   8   8   8   8   8   8   8
#     4  10  26  46  74 106 156 186 252 298 374 444
#     4  12  26  47  72 105 149 189 248 302 371 445
#     4  11  25  46  72 105 143 194 242 298 372 440
#     4  12  27  46  74 107 146 196 245 306 377 433
#     4  12  27  46  71 108 151 188 248 307 369 451
#     4  11  24  48  72 109 144 195 250 301 369 443
#     4  11  26  46  75 106 147 193 242 307 374 443
#     4  12  26  47  74 111 147 190 253 306 370 441
#
# _framework density 22.539425999999999
#
# number of rings (size 3 to 8) (size 9 to 14) (size 15 to 20)
#    0.000    0.533    4.000    2.400    9.333    2.667 
#    0.000    0.000    0.000    0.000    0.000    0.000 
#    0.000    0.000    0.000    0.000    0.000    0.000 
#
# Total GULP energy -167687.272922 kJ/mol
# GULP energy per Si atom -5589.575764 kJ/mol
# Density = 2.248813 g / cm^3
# Si number density = 22.539426 Si / 1000 Ang^3
#
#
#
# Elastic Constant Matrix: (Units=GPa)
#
#
# Indices 1 2 3 4 5 6 
#
# 1 92.3353 31.3171 48.5516 0.0000 -17.0197 0.0000
# 2 31.3171 54.8770 29.5244 0.0000 -8.4787 0.0000
# 3 48.5516 29.5244 178.5867 0.0000 -14.6575 0.0000
# 4 0.0000 0.0000 0.0000 32.6985 0.0000 -0.6228
# 5 -17.0197 -8.4787 -14.6575 0.0000 40.2322 0.0000
# 6 0.0000 0.0000 0.0000 -0.6228 0.0000 30.4706
#
#
#
# Elastic Compliance Matrix: (Units=1/GPa)
#
#
# Indices 1 2 3 4 5 6 
#
# 1 0.015253 -0.006613 -0.002720 0.000000 0.004068 0.000000
# 2 -0.006613 0.023252 -0.001931 0.000000 0.001399 0.000000
# 3 -0.002720 -0.001931 0.006732 0.000000 0.000895 0.000000
# 4 0.000000 0.000000 0.000000 0.030594 0.000000 0.000625
# 5 0.004068 0.001399 0.000895 0.000000 0.027198 0.000000
# 6 0.000000 0.000000 0.000000 0.000625 0.000000 0.032831
#
#
# Mechanical properties :
#
#
# Convention : Reuss Voigt Hill
#
# Bulk Modulus (GPa) = 44.03627 60.50948 52.27288
# Shear Modulus (GPa) = 30.12842 35.10731 32.61787
#
# Velocity S-wave (km/s) = 3.66006 3.95092 3.80827
# Velocity P-wave (km/s) = 6.11892 6.90778 6.52528
#
# Compressibility (1/GPa) = 0.02270855
#
# Stress axis : x y z
#
# Youngs Moduli (GPa) = 65.56184 43.00780 148.55215
#
# Poissons Ratio (x) = 0.28440 0.40400
# Poissons Ratio (y) = 0.43354 0.28692
# Poissons Ratio (z) = 0.17830 0.08307
#
# Static dielectric constant tensor:
#      x y z
#    x 1.947110 0.000000 -0.015670 
#    y 0.000000 1.828810 0.000000 
#    z -0.015670 0.000000 1.881100 
# 
# From -- ./inp_files/214301.got.cif
#   From: 2010.05.17/outbox.cif.g08.bks.cpg/sg15_108_cif.got.tgz:214301.got - 2010.06.03 18:47:42.
