data_PCOD9300067
_publ_section_title
;
Structure prediction by ZEFSAII (Michael W. Deem and Ramdas Pophale) SiO2 
 PCOD9300067
Probable space group: C 2/C
;
_chemical_formula_sum "Si O2"
_cell_formula_units_Z 48
_cell_length_a 10.552481
_cell_length_b 14.683919
_cell_length_c 14.189597
_cell_angle_alpha 90.000000
_cell_angle_beta 61.014566
_cell_angle_gamma 90.000000
_cell_volume 1923.300130
_symmetry_space_group_name_H-M "C 2/C"
_symmetry_group_IT_number 15
_symmetry_cell_setting 'monoclinic'
loop_
_space_group_symop_operation_xyz
x,y,z
-x,y,1/2-z
-x,-y,-z
x,-y,1/2+z
1/2+x,1/2+y,z
1/2-x,1/2+y,1/2-z
1/2-x,1/2-y,-z
1/2+x,1/2-y,1/2+z
loop_
_atom_site_type_symbol
_atom_site_label
_atom_site_fract_x
_atom_site_fract_y
_atom_site_fract_z
Si Si1 0.585034 0.075143 0.031427
Si Si2 0.554687 0.670242 0.085934
Si Si3 0.692134 0.166167 0.652900
Si Si4 0.500000 0.008988 0.250000
Si Si5 0.000000 0.833765 0.250000
Si Si6 0.923544 0.023369 0.927390
Si Si7 0.801513 0.731587 0.636243
O O1 0.494406 0.072387 0.160540
O O2 0.755008 0.053554 0.990254
O O3 0.599984 0.166854 0.964965
O O4 0.500000 0.000000 0.000000
O O5 0.593549 0.758378 0.134445
O O6 0.581799 0.574028 0.124118
O O7 0.388881 0.675876 0.112044
O O8 0.661769 0.671675 0.958842
O O9 0.625569 0.064753 0.679394
O O10 0.706915 0.193418 0.755195
O O11 0.012667 0.903879 0.333584
O O12 0.865016 0.772282 0.331110
O O13 0.000000 0.000000 0.000000
#
# Coordination Sequence:
#
# PCOD9300067 Si02
#       7
#     8   8   8   4   4   8   8
#     4  11  23  41  73 108 150 200 248 306 383 449
#     4  11  23  40  74 108 142 190 254 311 375 441
#     4  11  21  37  68 109 145 185 235 328 361 425
#     4  12  20  41  72 105 158 192 248 308 380 438
#     4  10  26  43  72 101 156 204 244 310 388 452
#     4  11  25  44  69 107 146 198 253 308 375 456
#     4  11  23  46  67 105 151 190 248 314 381 448
#
# _framework density 24.957101999999999
#
# number of rings (size 3 to 8) (size 9 to 14) (size 15 to 20)
#    0.000    1.000    5.000    1.000    4.667    0.000 
#    0.000    9.167    0.000    1.000    0.000    0.000 
#    0.000    0.000    0.000    0.000    0.000    0.000 
#
# Total GULP energy -134157.334143 kJ/mol
# GULP energy per Si atom -5589.888923 kJ/mol
# Density = 2.490030 g / cm^3
# Si number density = 24.957102 Si / 1000 Ang^3
#
#
#
# Elastic Constant Matrix: (Units=GPa)
#
#
# Indices 1 2 3 4 5 6 
#
# 1 74.5086 12.6608 16.2660 0.0000 -0.6923 0.0000
# 2 12.6608 65.4078 14.9588 0.0000 -4.2917 0.0000
# 3 16.2660 14.9588 162.4406 0.0000 13.2270 0.0000
# 4 0.0000 0.0000 0.0000 30.1698 0.0000 13.1797
# 5 -0.6923 -4.2917 13.2270 0.0000 48.7205 0.0000
# 6 0.0000 0.0000 0.0000 13.1797 0.0000 -10.5322
#
#
#
# Elastic Compliance Matrix: (Units=1/GPa)
#
#
# Indices 1 2 3 4 5 6 
#
# 1 0.014102 -0.002431 -0.001214 0.000000 0.000316 0.000000
# 2 -0.002431 0.016194 -0.001392 0.000000 0.001770 0.000000
# 3 -0.001214 -0.001392 0.006562 0.000000 -0.001921 0.000000
# 4 0.000000 0.000000 0.000000 0.021430 0.000000 0.026817
# 5 0.000316 0.001770 -0.001921 0.000000 0.021207 0.000000
# 6 0.000000 0.000000 0.000000 0.026817 0.000000 -0.061388
#
#
# Mechanical properties :
#
#
# Convention : Reuss Voigt Hill
#
# Bulk Modulus (GPa) = 37.33578 43.34757 40.34167
# Shear Modulus (GPa) = 134.73255 30.90305 82.81780
#
# Velocity S-wave (km/s) = 7.35546 3.52269 5.76681
# Velocity P-wave (km/s) = 9.33432 5.82686 7.78081
#
# Compressibility (1/GPa) = 0.02678396
#
# Stress axis : x y z
#
# Youngs Moduli (GPa) = 70.90999 61.75209 152.38586
#
# Poissons Ratio (x) = 0.15014 0.18499
# Poissons Ratio (y) = 0.17241 0.21210
# Poissons Ratio (z) = 0.08608 0.08595
#
# Static dielectric constant tensor:
#      x y z
#    x 2.112100 0.000000 0.041940 
#    y 0.000000 0.855110 0.000000 
#    z 0.041940 0.000000 2.018300 
# 
# From -- ./inp_files/144125.got.cif
#   From: 2010.05.17/outbox.cif.g08.bks.cpg/sg15_73_cif.got.tgz:144125.got - 2010.06.03 18:47:42.
