data_PCOD9300996
_publ_section_title
;
Structure prediction by ZEFSAII (Michael W. Deem and Ramdas Pophale) SiO2 
 PCOD9300996
Probable space group: C 2/C
;
_chemical_formula_sum "Si O2"
_cell_formula_units_Z 64
_cell_length_a 29.528786
_cell_length_b 13.372804
_cell_length_c 21.241017
_cell_angle_alpha 90.000000
_cell_angle_beta 21.566489
_cell_angle_gamma 90.000000
_cell_volume 3083.159983
_symmetry_space_group_name_H-M "C 2/C"
_symmetry_group_IT_number 15
_symmetry_cell_setting 'monoclinic'
loop_
_space_group_symop_operation_xyz
x,y,z
-x,y,1/2-z
-x,-y,-z
x,-y,1/2+z
1/2+x,1/2+y,z
1/2-x,1/2+y,1/2-z
1/2-x,1/2-y,-z
1/2+x,1/2-y,1/2+z
loop_
_atom_site_type_symbol
_atom_site_label
_atom_site_fract_x
_atom_site_fract_y
_atom_site_fract_z
Si Si1 0.698161 0.369607 0.722374
Si Si2 0.190751 0.047374 0.653474
Si Si3 0.257219 0.338336 0.189700
Si Si4 0.515565 0.362582 0.159071
Si Si5 0.577893 0.133837 0.208943
Si Si6 0.249999 0.561516 0.202745
Si Si7 0.527504 0.124899 0.411399
Si Si8 0.911236 0.829114 0.110468
O O1 0.730042 0.435182 0.619849
O O2 0.744186 0.254703 0.659288
O O3 0.743576 0.414414 0.731154
O O4 0.548763 0.368289 0.920348
O O5 0.059391 0.066116 0.791056
O O6 0.284032 0.110504 0.490483
O O7 0.175842 0.092926 0.742249
O O8 0.300019 0.450979 0.119559
O O9 0.345274 0.300225 0.131467
O O10 0.117565 0.360886 0.392447
O O11 0.500000 0.401228 0.250000
O O12 0.459691 0.250221 0.233651
O O13 0.656588 0.362265 0.953211
O O14 0.500000 0.095901 0.250000
O O15 0.552492 0.085117 0.309300
O O16 0.111787 0.569321 0.353934
O O17 0.577299 0.237558 0.356472
#
# Coordination Sequence:
#
# PCOD9300996 Si02
#       8
#     8   8   8   8   8   8   8   8
#     4  11  23  38  60  96 124 169 214 258 316 379
#     4  12  21  37  59  88 133 169 203 257 321 380
#     4  11  23  40  60  93 126 167 211 260 316 379
#     4  11  23  37  62  93 126 159 210 258 321 380
#     4  11  24  37  58  91 130 164 205 253 319 384
#     4  12  22  39  64  91 129 166 209 262 319 373
#     4  11  23  38  59  91 129 161 211 255 323 374
#     4  11  20  35  63  90 128 163 207 262 313 374
#
# _framework density 20.757923999999999
#
# number of rings (size 3 to 8) (size 9 to 14) (size 15 to 20)
#    0.000    0.750    5.000    4.125    3.500    0.000 
#    0.000    0.000    0.000    3.750    0.000    0.000 
#    0.000    0.000    0.000    0.000    0.000    0.000 
#
# Total GULP energy -178560.400650 kJ/mol
# GULP energy per Si atom -5580.012520 kJ/mol
# Density = 2.071068 g / cm^3
# Si number density = 20.757924 Si / 1000 Ang^3
#
#
#
# Elastic Constant Matrix: (Units=GPa)
#
#
# Indices 1 2 3 4 5 6 
#
# 1 72.2050 0.4424 17.5001 0.0000 -13.3152 0.0000
# 2 0.4424 82.8956 7.1113 0.0000 2.0852 0.0000
# 3 17.5001 7.1113 65.4774 0.0000 -18.9441 0.0000
# 4 0.0000 0.0000 0.0000 1.8286 0.0000 -9.4598
# 5 -13.3152 2.0852 -18.9441 0.0000 24.9176 0.0000
# 6 0.0000 0.0000 0.0000 -9.4598 0.0000 14.6139
#
#
#
# Elastic Compliance Matrix: (Units=1/GPa)
#
#
# Indices 1 2 3 4 5 6 
#
# 1 0.015619 -0.000058 -0.002246 0.000000 0.006644 0.000000
# 2 -0.000058 0.012309 -0.002088 0.000000 -0.002648 0.000000
# 3 -0.002246 -0.002088 0.020259 0.000000 0.014377 0.000000
# 4 0.000000 0.000000 0.000000 -0.232840 0.000000 -0.150720
# 5 0.006644 -0.002648 0.014377 0.000000 0.054834 0.000000
# 6 0.000000 0.000000 0.000000 -0.150720 0.000000 -0.029135
#
#
# Mechanical properties :
#
#
# Convention : Reuss Voigt Hill
#
# Bulk Modulus (GPa) = 25.37766 30.07616 27.72691
# Shear Modulus (GPa) = -36.48714 21.30698 -7.59008
#
# Velocity S-wave (km/s) = -4.19710 3.20730 -1.91427
# Velocity P-wave (km/s) = 3.35193 5.31377 2.91554
#
# Compressibility (1/GPa) = 0.03940473
#
# Stress axis : x y z
#
# Youngs Moduli (GPa) = 64.02314 81.23890 49.36072
#
# Poissons Ratio (x) = 0.00469 0.11087
# Poissons Ratio (y) = 0.00370 0.10305
# Poissons Ratio (z) = 0.14380 0.16959
#
# Static dielectric constant tensor:
#      x y z
#    x 1.759430 0.000000 -0.024050 
#    y 0.000000 1.890920 0.000000 
#    z -0.024050 0.000000 1.814740 
# 
# From -- ./inp_files/123546.got.cif
#   From: 2010.05.17/outbox.cif.g08.bks.cpg/sg15_62_cif.got.tgz:123546.got - 2010.06.03 18:47:42.
