data_PCOD9300682
_publ_section_title
;
Structure prediction by ZEFSAII (Michael W. Deem and Ramdas Pophale) SiO2 
 PCOD9300682
Probable space group: C 2/C
;
_chemical_formula_sum "Si O2"
_cell_formula_units_Z 40
_cell_length_a 15.393512
_cell_length_b 15.562065
_cell_length_c 13.146795
_cell_angle_alpha 90.000000
_cell_angle_beta 149.886666
_cell_angle_gamma 90.000000
_cell_volume 1580.081085
_symmetry_space_group_name_H-M "C 2/C"
_symmetry_group_IT_number 15
_symmetry_cell_setting 'monoclinic'
loop_
_space_group_symop_operation_xyz
x,y,z
-x,y,1/2-z
-x,-y,-z
x,-y,1/2+z
1/2+x,1/2+y,z
1/2-x,1/2+y,1/2-z
1/2-x,1/2-y,-z
1/2+x,1/2-y,1/2+z
loop_
_atom_site_type_symbol
_atom_site_label
_atom_site_fract_x
_atom_site_fract_y
_atom_site_fract_z
Si Si1 0.731559 0.194755 0.084051
Si Si2 0.932842 0.676227 0.290524
Si Si3 0.594999 0.366104 0.028023
Si Si4 0.534424 0.372324 0.391394
Si Si5 0.445879 0.913076 0.391457
O O1 0.679203 0.269783 0.111233
O O2 0.914411 0.149415 0.288987
O O3 0.750000 0.250000 0.000000
O O4 0.580367 0.125672 0.946933
O O5 0.049382 0.648811 0.503959
O O6 0.000000 0.641178 0.250000
O O7 0.940675 0.779062 0.288152
O O8 0.737847 0.644557 0.110824
O O9 0.546806 0.406600 0.087749
O O10 0.756064 0.420338 0.150060
O O11 0.500000 0.418897 0.250000
O O12 0.500000 0.000000 0.500000
#
# Coordination Sequence:
#
# PCOD9300682 Si02
#       5
#     8   8   8   8   8
#     4  12  25  45  76 109 139 201 275 327 384 482
#     4  11  20  37  61  97 135 175 229 299 378 460
#     4  12  22  43  74 102 149 189 262 327 385 478
#     4  11  19  34  68 102 125 171 236 299 374 459
#     4  12  27  46  69 106 153 198 251 334 410 466
#
# _framework density 25.315156999999999
#
# number of rings (size 3 to 8) (size 9 to 14) (size 15 to 20)
#    0.000    0.400    6.000    5.400    0.000    0.800 
#    3.600    0.000    0.000    0.000    0.000    0.000 
#    0.000    0.000    0.000    0.000    0.000    0.000 
#
# Total GULP energy -111887.617152 kJ/mol
# GULP energy per Si atom -5594.380858 kJ/mol
# Density = 2.525754 g / cm^3
# Si number density = 25.315157 Si / 1000 Ang^3
#
#
#
# Elastic Constant Matrix: (Units=GPa)
#
#
# Indices 1 2 3 4 5 6 
#
# 1 168.9873 37.6989 82.2470 0.0000 12.3238 0.0000
# 2 37.6989 64.0634 15.4069 0.0000 9.8834 0.0000
# 3 82.2470 15.4069 188.2979 0.0000 35.3600 0.0000
# 4 0.0000 0.0000 0.0000 18.1522 0.0000 -10.9391
# 5 12.3238 9.8834 35.3600 0.0000 54.3585 0.0000
# 6 0.0000 0.0000 0.0000 -10.9391 0.0000 9.3234
#
#
#
# Elastic Compliance Matrix: (Units=1/GPa)
#
#
# Indices 1 2 3 4 5 6 
#
# 1 0.008556 -0.004353 -0.003606 0.000000 0.001197 0.000000
# 2 -0.004353 0.018401 0.000955 0.000000 -0.002980 0.000000
# 3 -0.003606 0.000955 0.007617 0.000000 -0.004311 0.000000
# 4 0.000000 0.000000 0.000000 0.188060 0.000000 0.220649
# 5 0.001197 -0.002980 -0.004311 0.000000 0.021471 0.000000
# 6 0.000000 0.000000 0.000000 0.220649 0.000000 0.366144
#
#
# Mechanical properties :
#
#
# Convention : Reuss Voigt Hill
#
# Bulk Modulus (GPa) = 48.61989 76.89491 62.75740
# Shear Modulus (GPa) = 7.92252 35.43321 21.67786
#
# Velocity S-wave (km/s) = 1.77097 3.74529 2.92947
# Velocity P-wave (km/s) = 4.84039 7.01027 6.02384
#
# Compressibility (1/GPa) = 0.02056771
#
# Stress axis : x y z
#
# Youngs Moduli (GPa) = 116.87190 54.34511 131.28112
#
# Poissons Ratio (x) = 0.23654 0.47341
# Poissons Ratio (y) = 0.50869 -0.12540
# Poissons Ratio (z) = 0.42145 -0.05191
#
# Static dielectric constant tensor:
#      x y z
#    x 2.066460 0.000000 -0.054330 
#    y 0.000000 2.056260 0.000000 
#    z -0.054330 0.000000 2.058200 
# 
# From -- ./inp_files/155589.got.cif
#   From: 2010.05.17/outbox.cif.g08.bks.cpg/sg15_78_cif.got.tgz:155589.got - 2010.06.03 18:47:42.
