data_PCOD9300112
_publ_section_title
;
Structure prediction by ZEFSAII (Michael W. Deem and Ramdas Pophale) SiO2 
 PCOD9300112
Probable space group: C 2/C
;
_chemical_formula_sum "Si O2"
_cell_formula_units_Z 44
_cell_length_a 29.153298
_cell_length_b 4.938172
_cell_length_c 23.113778
_cell_angle_alpha 90.000000
_cell_angle_beta 145.122759
_cell_angle_gamma 90.000000
_cell_volume 1902.760906
_symmetry_space_group_name_H-M "C 2/C"
_symmetry_group_IT_number 15
_symmetry_cell_setting 'monoclinic'
loop_
_space_group_symop_operation_xyz
x,y,z
-x,y,1/2-z
-x,-y,-z
x,-y,1/2+z
1/2+x,1/2+y,z
1/2-x,1/2+y,1/2-z
1/2-x,1/2-y,-z
1/2+x,1/2-y,1/2+z
loop_
_atom_site_type_symbol
_atom_site_label
_atom_site_fract_x
_atom_site_fract_y
_atom_site_fract_z
Si Si1 0.441227 0.591851 0.990663
Si Si2 0.214321 0.671039 0.232262
Si Si3 0.163566 0.334302 0.802391
Si Si4 0.669982 0.660182 0.383782
Si Si5 0.000000 0.622125 0.750000
Si Si6 0.483340 0.117202 0.107188
O O1 0.362971 0.707004 0.878730
O O2 0.500000 0.500000 0.000000
O O3 0.475174 0.838032 0.064142
O O4 0.427027 0.343329 0.020407
O O5 0.283792 0.850526 0.275327
O O6 0.217350 0.726713 0.303322
O O7 0.167665 0.645656 0.825219
O O8 0.072812 0.271905 0.690007
O O9 0.179872 0.147477 0.874218
O O10 0.750000 0.750000 0.500000
O O11 0.582418 0.711445 0.322392
O O12 0.979408 0.445688 0.671535
#
# Coordination Sequence:
#
# PCOD9300112 Si02
#       6
#     8   8   8   8   4   8
#     4  12  25  43  73  98 135 183 238 277 354 420
#     4  12  27  43  66 103 141 179 231 289 357 421
#     4  11  24  45  69  96 142 184 222 292 362 407
#     4  11  25  45  72 100 140 188 233 291 353 422
#     4  10  26  44  72 106 140 180 246 280 352 414
#     4  11  24  43  72 101 136 184 231 297 338 426
#
# _framework density 23.124293999999999
#
# number of rings (size 3 to 8) (size 9 to 14) (size 15 to 20)
#    0.000    0.727    1.818    5.455    2.545   10.909 
#    0.000    1.818    0.000    0.000    0.000    0.000 
#    0.000    0.000    0.000    0.000    0.000    0.000 
#
# Total GULP energy -123050.409214 kJ/mol
# GULP energy per Si atom -5593.200419 kJ/mol
# Density = 2.307166 g / cm^3
# Si number density = 23.124294 Si / 1000 Ang^3
#
#
#
# Elastic Constant Matrix: (Units=GPa)
#
#
# Indices 1 2 3 4 5 6 
#
# 1 93.7231 21.7866 34.2097 0.0018 -19.1867 0.0008
# 2 21.7866 91.5508 16.3753 -0.0001 -14.3746 0.0022
# 3 34.2097 16.3753 101.9472 0.0029 -2.3589 0.0003
# 4 0.0018 -0.0001 0.0029 45.2016 0.0008 -1.8413
# 5 -19.1867 -14.3746 -2.3589 0.0008 33.4174 0.0011
# 6 0.0008 0.0022 0.0003 -1.8413 0.0011 25.4401
#
#
#
# Elastic Compliance Matrix: (Units=1/GPa)
#
#
# Indices 1 2 3 4 5 6 
#
# 1 0.014042 -0.001450 -0.004314 0.000000 0.007134 -0.000001
# 2 -0.001450 0.012191 -0.001372 0.000000 0.004315 -0.000001
# 3 -0.004314 -0.001372 0.011425 -0.000001 -0.002261 0.000000
# 4 0.000000 0.000000 -0.000001 0.022189 -0.000001 0.001606
# 5 0.007134 0.004315 -0.002261 -0.000001 0.035717 -0.000002
# 6 -0.000001 -0.000001 0.000000 0.001606 -0.000002 0.039424
#
#
# Mechanical properties :
#
#
# Convention : Reuss Voigt Hill
#
# Bulk Modulus (GPa) = 42.76057 47.99603 45.37830
# Shear Modulus (GPa) = 31.83627 35.13511 33.48569
#
# Velocity S-wave (km/s) = 3.71448 3.90218 3.80949
# Velocity P-wave (km/s) = 6.07686 6.41119 6.24626
#
# Compressibility (1/GPa) = 0.02338603
#
# Stress axis : x y z
#
# Youngs Moduli (GPa) = 71.21572 82.02949 87.53004
#
# Poissons Ratio (x) = 0.11893 0.37760
# Poissons Ratio (y) = 0.10325 0.12007
# Poissons Ratio (z) = 0.30722 0.11253
#
# Static dielectric constant tensor:
#      x y z
#    x 1.878180 0.000000 0.047330 
#    y 0.000000 1.844490 0.000000 
#    z 0.047330 0.000000 1.859390 
# 
# From -- ./inp_files/258484.got.cif
#   From: 2010.05.17/outbox.cif.g08.bks.cpg/sg15_130_cif.got.tgz:258484.got - 2010.06.03 18:47:42.
