data_PCOD9300091
_publ_section_title
;
Structure prediction by ZEFSAII (Michael W. Deem and Ramdas Pophale) SiO2 
 PCOD9300091
Probable space group: C 2/C
;
_chemical_formula_sum "Si O2"
_cell_formula_units_Z 28
_cell_length_a 19.798314
_cell_length_b 7.795862
_cell_length_c 13.999120
_cell_angle_alpha 90.000000
_cell_angle_beta 37.917063
_cell_angle_gamma 90.000000
_cell_volume 1327.789489
_symmetry_space_group_name_H-M "C 2/C"
_symmetry_group_IT_number 15
_symmetry_cell_setting 'monoclinic'
loop_
_space_group_symop_operation_xyz
x,y,z
-x,y,1/2-z
-x,-y,-z
x,-y,1/2+z
1/2+x,1/2+y,z
1/2-x,1/2+y,1/2-z
1/2-x,1/2-y,-z
1/2+x,1/2-y,1/2+z
loop_
_atom_site_type_symbol
_atom_site_label
_atom_site_fract_x
_atom_site_fract_y
_atom_site_fract_z
Si Si1 0.901138 0.517482 0.536317
Si Si2 0.500000 0.778714 0.750000
Si Si3 0.246422 0.281269 0.156412
Si Si4 0.617304 0.446084 0.655355
O O1 0.808977 0.630231 0.691975
O O2 0.848518 0.334982 0.572270
O O3 0.000000 0.500000 0.500000
O O4 0.942744 0.607765 0.393927
O O5 0.587774 0.646461 0.699969
O O6 0.160565 0.155392 0.198584
O O7 0.291426 0.416622 0.028249
O O8 0.500000 0.372149 0.750000
#
# Coordination Sequence:
#
# PCOD9300091 Si02
#       4
#     8   4   8   8
#     4  12  28  43  70 103 138 175 231 276 338 401
#     4  10  26  44  68  92 140 174 220 286 328 394
#     4  11  24  42  71  97 136 182 223 275 340 398
#     4   9  22  44  70  94 136 175 227 277 334 393
#
# _framework density 21.087681
#
# number of rings (size 3 to 8) (size 9 to 14) (size 15 to 20)
#    0.857    0.571    0.000    3.429   14.000    2.286 
#    0.000    0.000    0.000    0.000    0.000    0.000 
#    0.000    0.000    0.000    0.000    0.000    0.000 
#
# Total GULP energy -78260.964649 kJ/mol
# GULP energy per Si atom -5590.068903 kJ/mol
# Density = 2.103968 g / cm^3
# Si number density = 21.087681 Si / 1000 Ang^3
#
#
#
# Elastic Constant Matrix: (Units=GPa)
#
#
# Indices 1 2 3 4 5 6 
#
# 1 29.6547 -20.9582 -13.2717 -0.0004 -13.9405 0.0002
# 2 -20.9582 60.3043 37.3569 -0.0006 9.4426 0.0003
# 3 -13.2717 37.3569 107.9149 -0.0005 32.9687 0.0002
# 4 -0.0004 -0.0006 -0.0005 44.5236 0.0001 -10.2477
# 5 -13.9405 9.4426 32.9687 0.0001 45.8100 0.0000
# 6 0.0002 0.0003 0.0002 -10.2477 0.0000 26.1688
#
#
#
# Elastic Compliance Matrix: (Units=1/GPa)
#
#
# Indices 1 2 3 4 5 6 
#
# 1 0.051979 0.018596 -0.004751 0.000001 0.015404 0.000000
# 2 0.018596 0.027811 -0.009380 0.000000 0.006677 0.000000
# 3 -0.004751 -0.009380 0.015101 0.000000 -0.010380 0.000000
# 4 0.000001 0.000000 0.000000 0.024685 0.000000 0.009667
# 5 0.015404 0.006677 -0.010380 0.000000 0.032611 0.000000
# 6 0.000000 0.000000 0.000000 0.009667 0.000000 0.041999
#
#
# Mechanical properties :
#
#
# Convention : Reuss Voigt Hill
#
# Bulk Modulus (GPa) = 9.63207 22.68088 16.15647
# Shear Modulus (GPa) = 22.74163 36.28361 29.51262
#
# Velocity S-wave (km/s) = 3.28751 4.15252 3.74507
# Velocity P-wave (km/s) = 4.35751 5.81120 5.13605
#
# Compressibility (1/GPa) = 0.10381985
#
# Stress axis : x y z
#
# Youngs Moduli (GPa) = 19.23859 35.95752 66.22287
#
# Poissons Ratio (x) = -0.66866 0.31460
# Poissons Ratio (y) = -0.35776 0.62118
# Poissons Ratio (z) = 0.09140 0.33729
#
# Static dielectric constant tensor:
#      x y z
#    x 1.334290 0.000000 -0.415090 
#    y 0.000000 1.757910 0.000000 
#    z -0.415090 0.000000 1.363450 
# 
# From -- ./inp_files/93150.got.cif
#   From: 2010.05.17/outbox.cif.g08.bks.cpg/sg15_47_cif.got.tgz:93150.got - 2010.06.03 18:47:42.
