data_PCOD9300155
_publ_section_title
;
Structure prediction by ZEFSAII (Michael W. Deem and Ramdas Pophale) SiO2 
 PCOD9300155
Probable space group: C 2/C
;
_chemical_formula_sum "Si O2"
_cell_formula_units_Z 24
_cell_length_a 5.233429
_cell_length_b 20.830864
_cell_length_c 9.209045
_cell_angle_alpha 90.000000
_cell_angle_beta 106.507814
_cell_angle_gamma 90.000000
_cell_volume 962.559602
_symmetry_space_group_name_H-M "C 2/C"
_symmetry_group_IT_number 15
_symmetry_cell_setting 'monoclinic'
loop_
_space_group_symop_operation_xyz
x,y,z
-x,y,1/2-z
-x,-y,-z
x,-y,1/2+z
1/2+x,1/2+y,z
1/2-x,1/2+y,1/2-z
1/2-x,1/2-y,-z
1/2+x,1/2-y,1/2+z
loop_
_atom_site_type_symbol
_atom_site_label
_atom_site_fract_x
_atom_site_fract_y
_atom_site_fract_z
Si Si1 0.513817 0.196788 0.941402
Si Si2 0.822415 0.446788 0.058598
Si Si3 0.500000 0.484642 0.750000
Si Si4 0.000000 0.734642 0.250000
O O1 0.265299 0.221022 0.803827
O O2 0.750000 0.250000 0.000000
O O3 0.580565 0.125000 0.911129
O O4 0.440732 0.191692 0.100491
O O5 0.590240 0.441692 0.899509
O O6 0.711472 0.471022 0.196173
O O7 0.000000 0.500000 0.000000
#
# Coordination Sequence:
#
# PCOD9300155 Si02
#       4
#     8   8   4   4
#     4  11  26  46  77 108 155 203 261 326 399 474
#     4  11  26  46  77 108 155 203 261 326 399 474
#     4  10  26  45  74 114 147 202 262 324 391 482
#     4  10  26  45  74 114 147 202 262 324 391 482
#
# _framework density 24.933519
#
# number of rings (size 3 to 8) (size 9 to 14) (size 15 to 20)
#    0.000    1.333    0.000    2.000    9.333   16.000 
#    0.000    0.000    0.000    0.000    0.000    0.000 
#    0.000    0.000    0.000    0.000    0.000    0.000 
#
# Total GULP energy -66924.689595 kJ/mol
# GULP energy per Si atom -5577.057466 kJ/mol
# Density = 2.487677 g / cm^3
# Si number density = 24.933519 Si / 1000 Ang^3
#
#
#
# Elastic Constant Matrix: (Units=GPa)
#
#
# Indices 1 2 3 4 5 6 
#
# 1 132.9935 81.1945 47.7065 0.0000 3.3268 0.0000
# 2 81.1945 186.1704 87.4455 0.0000 1.0054 0.0000
# 3 47.7065 87.4455 206.3193 0.0000 8.4669 0.0000
# 4 0.0000 0.0000 0.0000 5.6195 0.0000 -5.0305
# 5 3.3268 1.0054 8.4669 0.0000 53.8122 0.0000
# 6 0.0000 0.0000 0.0000 -5.0305 0.0000 36.8958
#
#
#
# Elastic Compliance Matrix: (Units=1/GPa)
#
#
# Indices 1 2 3 4 5 6 
#
# 1 0.010318 -0.004227 -0.000575 0.000000 -0.000468 0.000000
# 2 -0.004227 0.008444 -0.002623 0.000000 0.000516 0.000000
# 3 -0.000575 -0.002623 0.006127 0.000000 -0.000880 0.000000
# 4 0.000000 0.000000 0.000000 0.202690 0.000000 0.027635
# 5 -0.000468 0.000516 -0.000880 0.000000 0.018741 0.000000
# 6 0.000000 0.000000 0.000000 0.027635 0.000000 0.030871
#
#
# Mechanical properties :
#
#
# Convention : Reuss Voigt Hill
#
# Bulk Modulus (GPa) = 99.60352 106.46403 103.03378
# Shear Modulus (GPa) = 16.92689 39.87461 28.40075
#
# Velocity S-wave (km/s) = 2.60836 4.00338 3.37866
# Velocity P-wave (km/s) = 7.00755 8.01008 7.52553
#
# Compressibility (1/GPa) = 0.01003981
#
# Stress axis : x y z
#
# Youngs Moduli (GPa) = 96.91787 118.42388 163.20032
#
# Poissons Ratio (x) = 0.50063 0.09381
# Poissons Ratio (y) = 0.40972 0.42802
# Poissons Ratio (z) = 0.05571 0.31058
#
# Static dielectric constant tensor:
#      x y z
#    x 2.391410 0.000000 -0.031750 
#    y 0.000000 1.860410 0.000000 
#    z -0.031750 0.000000 2.194000 
# 
# From -- ./inp_files/19539.got.cif
#   From: 2010.05.17/outbox.cif.g08.bks.cpg/sg15_10_cif.got.tgz:19539.got - 2010.06.03 18:47:42.
