data_PCOD9300068
_publ_section_title
;
Structure prediction by ZEFSAII (Michael W. Deem and Ramdas Pophale) SiO2 
 PCOD9300068
Probable space group: C 2/C
;
_chemical_formula_sum "Si O2"
_cell_formula_units_Z 48
_cell_length_a 21.844726
_cell_length_b 5.539349
_cell_length_c 18.127482
_cell_angle_alpha 90.000000
_cell_angle_beta 105.394080
_cell_angle_gamma 90.000000
_cell_volume 2114.828637
_symmetry_space_group_name_H-M "C 2/C"
_symmetry_group_IT_number 15
_symmetry_cell_setting 'monoclinic'
loop_
_space_group_symop_operation_xyz
x,y,z
-x,y,1/2-z
-x,-y,-z
x,-y,1/2+z
1/2+x,1/2+y,z
1/2-x,1/2+y,1/2-z
1/2-x,1/2-y,-z
1/2+x,1/2-y,1/2+z
loop_
_atom_site_type_symbol
_atom_site_label
_atom_site_fract_x
_atom_site_fract_y
_atom_site_fract_z
Si Si1 0.098050 0.947051 0.563873
Si Si2 0.209369 0.751956 0.147189
Si Si3 0.469285 0.301823 0.588124
Si Si4 0.692119 0.885296 0.806264
Si Si5 0.554093 0.195182 0.330328
Si Si6 0.709815 0.150873 0.553670
O O1 0.152409 0.054755 0.633164
O O2 0.044012 0.813602 0.592575
O O3 0.065237 0.145387 0.501100
O O4 0.140774 0.768634 0.528898
O O5 0.198517 0.620355 0.220622
O O6 0.198643 0.627652 0.064816
O O7 0.280310 0.853436 0.164397
O O8 0.453487 0.044832 0.620453
O O9 0.454000 0.543895 0.631762
O O10 0.745056 0.715287 0.861761
O O11 0.623357 0.824615 0.814952
O O12 0.500000 0.180781 0.250000
O O13 0.750000 0.250000 0.500000
#
# Coordination Sequence:
#
# PCOD9300068 Si02
#       6
#     8   8   8   8   8   8
#     4  10  26  43  73 100 142 188 239 297 363 432
#     4  11  24  44  71 102 141 190 239 298 368 427
#     4  11  27  48  71 108 141 193 239 300 357 430
#     4  11  25  42  71 104 144 186 238 300 359 432
#     4  12  28  46  75 104 146 188 244 295 359 433
#     4  11  25  43  72 104 141 185 242 300 361 427
#
# _framework density 22.696874000000001
#
# number of rings (size 3 to 8) (size 9 to 14) (size 15 to 20)
#    0.000    1.000    1.667    2.500   14.000    2.667 
#    0.000    0.000    0.000    0.000    0.000    0.000 
#    0.000    0.000    0.000    0.000    0.000    0.000 
#
# Total GULP energy -133932.808754 kJ/mol
# GULP energy per Si atom -5580.533698 kJ/mol
# Density = 2.264521 g / cm^3
# Si number density = 22.696874 Si / 1000 Ang^3
#
#
#
# Elastic Constant Matrix: (Units=GPa)
#
#
# Indices 1 2 3 4 5 6 
#
# 1 180.3263 21.0571 19.5001 0.0000 -16.4211 0.0000
# 2 21.0571 66.5127 11.5182 0.0000 -12.3521 0.0000
# 3 19.5001 11.5182 56.4688 0.0000 -7.5009 0.0000
# 4 0.0000 0.0000 0.0000 39.2279 0.0000 -0.9821
# 5 -16.4211 -12.3521 -7.5009 0.0000 42.6368 0.0000
# 6 0.0000 0.0000 0.0000 -0.9821 0.0000 27.7012
#
#
#
# Elastic Compliance Matrix: (Units=1/GPa)
#
#
# Indices 1 2 3 4 5 6 
#
# 1 0.006023 -0.001324 -0.001590 0.000000 0.001656 0.000000
# 2 -0.001324 0.016591 -0.002413 0.000000 0.003872 0.000000
# 3 -0.001590 -0.002413 0.019020 0.000000 0.002035 0.000000
# 4 0.000000 0.000000 0.000000 0.025515 0.000000 0.000905
# 5 0.001656 0.003872 0.002035 0.000000 0.025572 0.000000
# 6 0.000000 0.000000 0.000000 0.000905 0.000000 0.036132
#
#
# Mechanical properties :
#
#
# Convention : Reuss Voigt Hill
#
# Bulk Modulus (GPa) = 32.27738 45.27316 38.77527
# Shear Modulus (GPa) = 33.37084 38.66200 36.01642
#
# Velocity S-wave (km/s) = 3.83859 4.13171 3.98784
# Velocity P-wave (km/s) = 5.82222 6.53847 6.19071
#
# Compressibility (1/GPa) = 0.03098145
#
# Stress axis : x y z
#
# Youngs Moduli (GPa) = 166.03453 60.27462 52.57540
#
# Poissons Ratio (x) = 0.07979 0.08358
# Poissons Ratio (y) = 0.21980 0.12684
# Poissons Ratio (z) = 0.26396 0.14542
#
# Static dielectric constant tensor:
#      x y z
#    x 1.785370 0.000000 0.012100 
#    y 0.000000 2.144580 0.000000 
#    z 0.012100 0.000000 1.893630 
# 
# From -- ./inp_files/217576.got.cif
#   From: 2010.05.17/outbox.cif.g08.bks.cpg/sg15_109_cif.got.tgz:217576.got - 2010.06.03 18:47:42.
