data_PCOD9300514
_publ_section_title
;
Structure prediction by ZEFSAII (Michael W. Deem and Ramdas Pophale) SiO2 
 PCOD9300514
Probable space group: C 2/C
;
_chemical_formula_sum "Si O2"
_cell_formula_units_Z 56
_cell_length_a 14.662258
_cell_length_b 21.468203
_cell_length_c 14.866412
_cell_angle_alpha 90.000000
_cell_angle_beta 35.450457
_cell_angle_gamma 90.000000
_cell_volume 2714.124696
_symmetry_space_group_name_H-M "C 2/C"
_symmetry_group_IT_number 15
_symmetry_cell_setting 'monoclinic'
loop_
_space_group_symop_operation_xyz
x,y,z
-x,y,1/2-z
-x,-y,-z
x,-y,1/2+z
1/2+x,1/2+y,z
1/2-x,1/2+y,1/2-z
1/2-x,1/2-y,-z
1/2+x,1/2-y,1/2+z
loop_
_atom_site_type_symbol
_atom_site_label
_atom_site_fract_x
_atom_site_fract_y
_atom_site_fract_z
Si Si1 0.254015 0.146355 0.814337
Si Si2 0.795283 0.105641 0.834172
Si Si3 0.169825 0.104911 0.497146
Si Si4 0.157988 0.965537 0.681054
Si Si5 0.116405 0.144601 0.348868
Si Si6 0.844594 0.235452 0.334119
Si Si7 0.679870 0.030379 0.619432
O O1 0.279867 0.142997 0.686880
O O2 0.363653 0.197423 0.772463
O O3 0.289818 0.078845 0.826190
O O4 0.069288 0.161033 0.986215
O O5 0.982597 0.108572 0.664391
O O6 0.764973 0.031329 0.854211
O O7 0.757786 0.126798 0.965805
O O8 0.197138 0.139835 0.381525
O O9 0.223153 0.033122 0.443589
O O10 0.122477 0.922191 0.793764
O O11 0.267872 0.936297 0.515825
O O12 0.000000 0.977650 0.750000
O O13 0.201856 0.191191 0.211086
O O14 0.750000 0.250000 0.500000
O O15 0.000000 0.204504 0.250000
O O16 0.500000 0.012945 0.750000
#
# Coordination Sequence:
#
# PCOD9300514 Si02
#       7
#     8   8   8   8   8   8   8
#     4  11  21  36  59  84 114 154 192 233 285 333
#     4   9  17  34  60  88 111 143 195 239 268 337
#     4   9  18  36  57  86 116 146 189 234 279 338
#     4  11  17  33  57  87 114 145 189 227 277 343
#     4  11  21  36  62  83 110 155 197 231 280 340
#     4  12  24  41  57  85 116 146 191 237 281 334
#     4  11  21  34  54  90 125 149 178 233 294 340
#
# _framework density 20.632804
#
# number of rings (size 3 to 8) (size 9 to 14) (size 15 to 20)
#    0.000    1.429    5.714    2.571    0.000    2.286 
#    0.000   10.000    0.000    0.000    0.000    0.000 
#    0.000    0.000    0.000    0.000    0.000    0.000 
#
# Total GULP energy -156080.222916 kJ/mol
# GULP energy per Si atom -5574.293676 kJ/mol
# Density = 2.058584 g / cm^3
# Si number density = 20.632804 Si / 1000 Ang^3
#
#
#
# Elastic Constant Matrix: (Units=GPa)
#
#
# Indices 1 2 3 4 5 6 
#
# 1 94.6981 34.8761 38.1161 0.0049 52.3153 -0.0037
# 2 34.8761 37.0714 17.3607 0.1138 25.8694 -0.0542
# 3 38.1161 17.3607 55.2471 0.0258 34.1973 -0.0126
# 4 0.0049 0.1138 0.0258 20.6207 -0.0232 12.7356
# 5 52.3153 25.8694 34.1973 -0.0232 46.6718 0.0091
# 6 -0.0037 -0.0542 -0.0126 12.7356 0.0091 31.2075
#
#
#
# Elastic Compliance Matrix: (Units=1/GPa)
#
#
# Indices 1 2 3 4 5 6 
#
# 1 0.028956 -0.007501 -0.000189 0.000005 -0.028161 -0.000004
# 2 -0.007501 0.046100 0.002382 -0.000441 -0.018890 0.000266
# 3 -0.000189 0.002382 0.033248 -0.000132 -0.025470 0.000079
# 4 0.000005 -0.000441 -0.000132 0.064841 0.000373 -0.026462
# 5 -0.028161 -0.018890 -0.025470 0.000373 0.082125 -0.000223
# 6 -0.000004 0.000266 0.000079 -0.026462 -0.000223 0.042843
#
#
# Mechanical properties :
#
#
# Convention : Reuss Voigt Hill
#
# Bulk Modulus (GPa) = 10.23677 40.85802 25.54740
# Shear Modulus (GPa) = 14.65019 26.14426 20.39723
#
# Velocity S-wave (km/s) = 2.66756 3.56353 3.14758
# Velocity P-wave (km/s) = 3.80263 6.06441 5.06147
#
# Compressibility (1/GPa) = 0.09768707
#
# Stress axis : x y z
#
# Youngs Moduli (GPa) = 34.53554 21.69189 30.07698
#
# Poissons Ratio (x) = 0.16272 0.00568
# Poissons Ratio (y) = 0.25906 -0.07163
# Poissons Ratio (z) = 0.00652 -0.05166
#
# Static dielectric constant tensor:
#      x y z
#    x 1.765500 -0.000010 0.001690 
#    y -0.000010 1.727330 0.000000 
#    z 0.001690 0.000000 1.820410 
# 
# From -- ./inp_files/51564.got.cif
#   From: 2010.05.17/outbox.cif.g08.bks.cpg/sg15_26_cif.got.tgz:51564.got - 2010.06.03 18:47:42.
