data_PCOD9300768
_publ_section_title
;
Structure prediction by ZEFSAII (Michael W. Deem and Ramdas Pophale) SiO2 
 PCOD9300768
Probable space group: C 2/C
;
_chemical_formula_sum "Si O2"
_cell_formula_units_Z 56
_cell_length_a 20.667737
_cell_length_b 18.667887
_cell_length_c 8.965715
_cell_angle_alpha 90.000000
_cell_angle_beta 51.295864
_cell_angle_gamma 90.000000
_cell_volume 2699.492239
_symmetry_space_group_name_H-M "C 2/C"
_symmetry_group_IT_number 15
_symmetry_cell_setting 'monoclinic'
loop_
_space_group_symop_operation_xyz
x,y,z
-x,y,1/2-z
-x,-y,-z
x,-y,1/2+z
1/2+x,1/2+y,z
1/2-x,1/2+y,1/2-z
1/2-x,1/2-y,-z
1/2+x,1/2-y,1/2+z
loop_
_atom_site_type_symbol
_atom_site_label
_atom_site_fract_x
_atom_site_fract_y
_atom_site_fract_z
Si Si1 0.901364 0.515096 0.136674
Si Si2 0.555869 0.836416 0.814654
Si Si3 0.339540 0.656187 0.200627
Si Si4 0.833300 0.410133 0.458007
Si Si5 0.432590 0.222830 0.737949
Si Si6 0.910859 0.821118 0.289414
Si Si7 0.004172 0.078369 0.064268
O O1 0.891824 0.592542 0.230464
O O2 0.850190 0.449097 0.277345
O O3 0.869465 0.531379 0.018444
O O4 0.000000 0.500000 0.000000
O O5 0.500000 0.848540 0.750000
O O6 0.604668 0.761334 0.732355
O O7 0.488622 0.818735 0.038415
O O8 0.258488 0.616282 0.374881
O O9 0.363580 0.731107 0.248798
O O10 0.418302 0.611979 0.138285
O O11 0.344814 0.659476 0.012876
O O12 0.886990 0.338244 0.396014
O O13 0.500000 0.261739 0.750000
O O14 0.000000 0.820779 0.250000
O O15 0.926069 0.873202 0.124681
O O16 0.000000 0.074682 0.250000
O O17 0.000000 0.000000 0.000000
#
# Coordination Sequence:
#
# PCOD9300768 Si02
#       7
#     8   8   8   8   8   8   8
#     4  12  24  43  67  97 133 185 237 272 337 418
#     4  11  19  37  72  96 123 171 237 277 316 398
#     4  11  24  43  64  97 139 174 216 290 360 392
#     4  12  27  42  64 102 142 175 224 297 349 406
#     4  12  21  42  71 100 131 180 236 278 333 419
#     4   9  19  38  63  94 124 171 222 271 330 412
#     4  11  22  38  67  94 122 175 239 277 330 420
#
# _framework density 20.744641999999999
#
# number of rings (size 3 to 8) (size 9 to 14) (size 15 to 20)
#    0.000    0.857    7.143    3.429    0.000    2.286 
#    0.000    0.714    0.000    0.000    0.000    0.000 
#    0.000    0.000    0.000    0.000    0.000    0.000 
#
# Total GULP energy -156154.866105 kJ/mol
# GULP energy per Si atom -5576.959504 kJ/mol
# Density = 2.069743 g / cm^3
# Si number density = 20.744642 Si / 1000 Ang^3
#
#
#
# Elastic Constant Matrix: (Units=GPa)
#
#
# Indices 1 2 3 4 5 6 
#
# 1 34.8015 4.6644 33.4033 0.0000 4.6611 0.0000
# 2 4.6644 104.1785 39.5099 0.0000 3.8214 0.0000
# 3 33.4033 39.5099 116.7472 0.0000 -3.8976 0.0000
# 4 0.0000 0.0000 0.0000 32.4647 0.0000 27.7334
# 5 4.6611 3.8214 -3.8976 0.0000 34.5209 0.0000
# 6 0.0000 0.0000 0.0000 27.7334 0.0000 -11.6527
#
#
#
# Elastic Compliance Matrix: (Units=1/GPa)
#
#
# Indices 1 2 3 4 5 6 
#
# 1 0.042285 0.003524 -0.013546 0.000000 -0.007629 0.000000
# 2 0.003524 0.011400 -0.004943 0.000000 -0.002296 0.000000
# 3 -0.013546 -0.004943 0.014247 0.000000 0.003985 0.000000
# 4 0.000000 0.000000 0.000000 0.010155 0.000000 0.024170
# 5 -0.007629 -0.002296 0.003985 0.000000 0.030702 0.000000
# 6 0.000000 0.000000 0.000000 0.024170 0.000000 -0.028293
#
#
# Mechanical properties :
#
#
# Convention : Reuss Voigt Hill
#
# Bulk Modulus (GPa) = 26.31388 45.65360 35.98374
# Shear Modulus (GPa) = 40.61935 22.94322 31.78129
#
# Velocity S-wave (km/s) = 4.42980 3.32924 3.91835
# Velocity P-wave (km/s) = 6.23509 6.06907 6.15264
#
# Compressibility (1/GPa) = 0.03800275
#
# Stress axis : x y z
#
# Youngs Moduli (GPa) = 23.64879 87.71973 70.19011
#
# Poissons Ratio (x) = -0.30911 0.95078
# Poissons Ratio (y) = -0.08334 0.34694
# Poissons Ratio (z) = 0.32034 0.43359
#
# Static dielectric constant tensor:
#      x y z
#    x 1.776510 0.000000 0.037940 
#    y 0.000000 1.568810 0.000000 
#    z 0.037940 0.000000 1.824130 
# 
# From -- ./inp_files/62660.got.cif
#   From: 2010.05.17/outbox.cif.g08.bks.cpg/sg15_32_cif.got.tgz:62660.got - 2010.06.03 18:47:42.
