data_PCOD9300955
_publ_section_title
;
Structure prediction by ZEFSAII (Michael W. Deem and Ramdas Pophale) SiO2 
 PCOD9300955
Probable space group: C 2/C
;
_chemical_formula_sum "Si O2"
_cell_formula_units_Z 48
_cell_length_a 16.999704
_cell_length_b 13.121930
_cell_length_c 12.140610
_cell_angle_alpha 90.000000
_cell_angle_beta 100.965010
_cell_angle_gamma 90.000000
_cell_volume 2658.750780
_symmetry_space_group_name_H-M "C 2/C"
_symmetry_group_IT_number 15
_symmetry_cell_setting 'monoclinic'
loop_
_space_group_symop_operation_xyz
x,y,z
-x,y,1/2-z
-x,-y,-z
x,-y,1/2+z
1/2+x,1/2+y,z
1/2-x,1/2+y,1/2-z
1/2-x,1/2-y,-z
1/2+x,1/2-y,1/2+z
loop_
_atom_site_type_symbol
_atom_site_label
_atom_site_fract_x
_atom_site_fract_y
_atom_site_fract_z
Si Si1 0.769752 0.121886 0.899040
Si Si2 0.272437 0.091982 0.076289
Si Si3 0.368565 0.186866 0.466541
Si Si4 0.530510 0.157755 0.641310
Si Si5 0.916961 0.431858 0.769226
Si Si6 0.706258 0.804439 0.145287
O O1 0.844294 0.195282 0.944346
O O2 0.735470 0.153450 0.770441
O O3 0.785382 0.001781 0.910430
O O4 0.700181 0.143843 0.970860
O O5 0.358173 0.058560 0.149570
O O6 0.247708 0.198033 0.126003
O O7 0.276407 0.115467 0.947799
O O8 0.455807 0.166867 0.540595
O O9 0.370885 0.130871 0.350009
O O10 0.500000 0.199313 0.750000
O O11 0.610791 0.211536 0.622826
O O12 0.557556 0.040783 0.672509
O O13 0.000000 0.382587 0.750000
#
# Coordination Sequence:
#
# PCOD9300955 Si02
#       6
#     8   8   8   8   8   8
#     4  11  22  39  61  89 119 160 200 250 293 361
#     4  11  23  38  61  89 118 162 200 242 304 358
#     4  11  22  36  60  89 120 152 201 245 303 353
#     4  11  20  36  57  87 120 152 194 247 302 350
#     4  11  20  34  59  90 122 151 189 251 310 353
#     4  11  22  40  60  86 127 156 199 249 296 363
#
# _framework density 18.053591000000001
#
# number of rings (size 3 to 8) (size 9 to 14) (size 15 to 20)
#    0.000    1.000    5.000    3.500    0.000    0.000 
#    0.000    0.833    0.000    1.000    0.000    0.000 
#    0.000    0.000    0.000    0.000    0.000    0.000 
#
# Total GULP energy -134007.450545 kJ/mol
# GULP energy per Si atom -5583.643773 kJ/mol
# Density = 1.801250 g / cm^3
# Si number density = 18.053591 Si / 1000 Ang^3
#
#
#
# Elastic Constant Matrix: (Units=GPa)
#
#
# Indices 1 2 3 4 5 6 
#
# 1 67.4951 28.5285 19.7105 0.0000 -0.4701 0.0000
# 2 28.5285 90.9504 40.8888 0.0000 7.3423 0.0000
# 3 19.7105 40.8888 86.4236 0.0000 -9.3675 0.0000
# 4 0.0000 0.0000 0.0000 11.5507 0.0000 4.8808
# 5 -0.4701 7.3423 -9.3675 0.0000 34.8651 0.0000
# 6 0.0000 0.0000 0.0000 4.8808 0.0000 15.6571
#
#
#
# Elastic Compliance Matrix: (Units=1/GPa)
#
#
# Indices 1 2 3 4 5 6 
#
# 1 0.017307 -0.004774 -0.001601 0.000000 0.000809 0.000000
# 2 -0.004774 0.016130 -0.007125 0.000000 -0.005376 0.000000
# 3 -0.001601 -0.007125 0.015931 0.000000 0.005759 0.000000
# 4 0.000000 0.000000 0.000000 0.099709 0.000000 -0.031083
# 5 0.000809 -0.005376 0.005759 0.000000 0.031372 0.000000
# 6 0.000000 0.000000 0.000000 -0.031083 0.000000 0.073558
#
#
# Mechanical properties :
#
#
# Convention : Reuss Voigt Hill
#
# Bulk Modulus (GPa) = 44.70725 47.01386 45.86055
# Shear Modulus (GPa) = 17.33316 22.79732 20.06524
#
# Velocity S-wave (km/s) = 3.10190 3.55739 3.33742
# Velocity P-wave (km/s) = 6.13567 6.55524 6.34892
#
# Compressibility (1/GPa) = 0.02236774
#
# Stress axis : x y z
#
# Youngs Moduli (GPa) = 57.78022 61.99695 62.76956
#
# Poissons Ratio (x) = 0.29600 0.10047
# Poissons Ratio (y) = 0.27586 0.44724
# Poissons Ratio (z) = 0.09249 0.44174
#
# Static dielectric constant tensor:
#      x y z
#    x 1.623650 0.000000 -0.001160 
#    y 0.000000 1.640380 0.000000 
#    z -0.001160 0.000000 1.657050 
# 
# From -- ./inp_files/96529.got.cif
#   From: 2010.05.17/outbox.cif.g08.bks.cpg/sg15_49_cif.got.tgz:96529.got - 2010.06.03 18:47:42.
