data_PCOD9300037
_publ_section_title
;
Structure prediction by ZEFSAII (Michael W. Deem and Ramdas Pophale) SiO2 
 PCOD9300037
Probable space group: C 2/C
;
_chemical_formula_sum "Si O2"
_cell_formula_units_Z 56
_cell_length_a 6.282390
_cell_length_b 16.145369
_cell_length_c 31.769779
_cell_angle_alpha 90.000000
_cell_angle_beta 59.099878
_cell_angle_gamma 90.000000
_cell_volume 2765.073300
_symmetry_space_group_name_H-M "C 2/C"
_symmetry_group_IT_number 15
_symmetry_cell_setting 'monoclinic'
loop_
_space_group_symop_operation_xyz
x,y,z
-x,y,1/2-z
-x,-y,-z
x,-y,1/2+z
1/2+x,1/2+y,z
1/2-x,1/2+y,1/2-z
1/2-x,1/2-y,-z
1/2+x,1/2-y,1/2+z
loop_
_atom_site_type_symbol
_atom_site_label
_atom_site_fract_x
_atom_site_fract_y
_atom_site_fract_z
Si Si1 0.133861 0.975987 0.862624
Si Si2 0.483606 0.379105 0.702055
Si Si3 0.533804 0.829224 0.637439
Si Si4 0.884399 0.384976 0.389319
Si Si5 0.184846 0.221037 0.697287
Si Si6 0.878219 0.459812 0.053698
Si Si7 0.384780 0.290507 0.447026
O O1 0.269779 0.899611 0.871208
O O2 0.133868 0.953359 0.813283
O O3 0.274630 0.058284 0.863118
O O4 0.853829 0.985754 0.907279
O O5 0.500000 0.394018 0.750000
O O6 0.336078 0.294778 0.705554
O O7 0.764276 0.367159 0.658047
O O8 0.524103 0.766935 0.677955
O O9 0.615550 0.776665 0.589562
O O10 0.669061 0.320477 0.424403
O O11 0.124393 0.338483 0.346357
O O12 0.949083 0.441251 0.423369
O O13 0.000000 0.180827 0.750000
O O14 0.766470 0.371309 0.051668
O O15 0.000000 0.500000 0.000000
O O16 0.250000 0.250000 0.500000
#
# Coordination Sequence:
#
# PCOD9300037 Si02
#       7
#     8   8   8   8   8   8   8
#     4  10  26  42  69  96 137 179 216 273 340 397
#     4  11  22  42  73  99 133 173 225 275 333 397
#     4  11  22  43  68  99 136 168 228 275 329 402
#     4  11  24  47  66  99 143 174 227 280 336 414
#     4  11  22  41  72  99 128 179 222 280 338 395
#     4  11  26  45  66  95 139 184 222 275 345 399
#     4  11  26  40  71 103 131 177 229 279 339 400
#
# _framework density 20.252625999999999
#
# number of rings (size 3 to 8) (size 9 to 14) (size 15 to 20)
#    0.000    1.143    4.286    0.857    6.000    1.714 
#    0.000    4.286    3.143    0.000    0.000    0.000 
#    0.000    0.000    0.000    0.000    0.000    0.000 
#
# Total GULP energy -156510.342316 kJ/mol
# GULP energy per Si atom -5589.655083 kJ/mol
# Density = 2.020653 g / cm^3
# Si number density = 20.252626 Si / 1000 Ang^3
#
#
#
# Elastic Constant Matrix: (Units=GPa)
#
#
# Indices 1 2 3 4 5 6 
#
# 1 80.8372 21.2322 37.0401 -0.0001 11.1935 -0.0005
# 2 21.2322 55.4371 51.3784 -0.0001 1.7043 -0.0003
# 3 37.0401 51.3784 128.0500 -0.0001 14.3700 0.0000
# 4 -0.0001 -0.0001 -0.0001 30.1653 0.0001 -2.8985
# 5 11.1935 1.7043 14.3700 0.0001 27.6217 0.0001
# 6 -0.0005 -0.0003 0.0000 -2.8985 0.0001 19.4540
#
#
#
# Elastic Compliance Matrix: (Units=1/GPa)
#
#
# Indices 1 2 3 4 5 6 
#
# 1 0.015018 -0.003281 -0.002514 0.000000 -0.004575 0.000000
# 2 -0.003281 0.029967 -0.011700 0.000000 0.005567 0.000000
# 3 -0.002514 -0.011700 0.013844 0.000000 -0.005461 0.000000
# 4 0.000000 0.000000 0.000000 0.033632 0.000000 0.005011
# 5 -0.004575 0.005567 -0.005461 0.000000 0.040555 0.000000
# 6 0.000000 0.000000 0.000000 0.005011 0.000000 0.052150
#
#
# Mechanical properties :
#
#
# Convention : Reuss Voigt Hill
#
# Bulk Modulus (GPa) = 41.94766 53.73618 47.84192
# Shear Modulus (GPa) = 21.92002 25.75977 23.83989
#
# Velocity S-wave (km/s) = 3.29345 3.57027 3.43465
# Velocity P-wave (km/s) = 5.93461 6.60199 6.27718
#
# Compressibility (1/GPa) = 0.02383923
#
# Stress axis : x y z
#
# Youngs Moduli (GPa) = 66.58722 33.37016 72.23406
#
# Poissons Ratio (x) = 0.10949 0.18161
# Poissons Ratio (y) = 0.21847 0.84510
# Poissons Ratio (z) = 0.16741 0.39041
#
# Static dielectric constant tensor:
#      x y z
#    x 1.725540 0.000000 0.012260 
#    y 0.000000 1.707340 0.000000 
#    z 0.012260 0.000000 1.698790 
# 
# From -- ./inp_files/286020.got.cif
#   From: 2010.05.17/outbox.cif.g08.bks.cpg/sg15_144_cif.got.tgz:286020.got - 2010.06.03 18:47:42.
