data_PCOD9300779
_publ_section_title
;
Structure prediction by ZEFSAII (Michael W. Deem and Ramdas Pophale) SiO2 
 PCOD9300779
Probable space group: C 2/C
;
_chemical_formula_sum "Si O2"
_cell_formula_units_Z 56
_cell_length_a 9.161264
_cell_length_b 17.174326
_cell_length_c 24.990423
_cell_angle_alpha 90.000000
_cell_angle_beta 47.011759
_cell_angle_gamma 90.000000
_cell_volume 2876.201254
_symmetry_space_group_name_H-M "C 2/C"
_symmetry_group_IT_number 15
_symmetry_cell_setting 'monoclinic'
loop_
_space_group_symop_operation_xyz
x,y,z
-x,y,1/2-z
-x,-y,-z
x,-y,1/2+z
1/2+x,1/2+y,z
1/2-x,1/2+y,1/2-z
1/2-x,1/2-y,-z
1/2+x,1/2-y,1/2+z
loop_
_atom_site_type_symbol
_atom_site_label
_atom_site_fract_x
_atom_site_fract_y
_atom_site_fract_z
Si Si1 0.332045 0.663586 0.334892
Si Si2 0.000000 0.062806 0.750000
Si Si3 0.396874 0.550253 0.979767
Si Si4 0.873960 0.605987 0.706408
Si Si5 0.500000 0.914758 0.750000
Si Si6 0.038822 0.043148 0.347067
Si Si7 0.009670 0.568564 0.358704
Si Si8 0.775729 0.168496 0.639273
O O1 0.500000 0.685252 0.250000
O O2 0.451691 0.628137 0.354952
O O3 0.194857 0.739326 0.371287
O O4 0.199501 0.593805 0.344810
O O5 0.799208 0.113768 0.794552
O O6 0.979892 0.009275 0.702014
O O7 0.404255 0.496848 0.925401
O O8 0.536725 0.622836 0.930530
O O9 0.500000 0.500000 0.000000
O O10 0.181103 0.571023 0.056155
O O11 0.778827 0.631511 0.788173
O O12 0.958148 0.517622 0.675208
O O13 0.076067 0.655010 0.654024
O O14 0.727832 0.952391 0.693148
O O15 0.501316 0.876504 0.691053
#
# Coordination Sequence:
#
# PCOD9300779 Si02
#       8
#     8   4   8   8   4   8   8   8
#     4  12  23  43  65  98 132 176 209 276 341 379
#     4  12  20  34  67  97 128 150 222 282 304 362
#     4  12  24  39  68 100 126 176 226 271 321 393
#     4  11  19  38  65  98 120 168 222 272 303 384
#     4  12  18  34  67  95 122 166 224 272 298 388
#     4  12  22  39  67 101 128 166 225 270 326 386
#     4  12  23  38  68  98 130 170 224 268 327 391
#     4  11  24  42  68  93 136 175 215 268 338 386
#
# _framework density 19.470126
#
# number of rings (size 3 to 8) (size 9 to 14) (size 15 to 20)
#    0.000    0.286   10.714    0.857    0.000    1.143 
#    0.000    3.571    0.000    0.000    0.000    0.000 
#    0.000    0.000    0.000    0.000    0.000    0.000 
#
# Total GULP energy -155898.011720 kJ/mol
# GULP energy per Si atom -5567.786133 kJ/mol
# Density = 1.942581 g / cm^3
# Si number density = 19.470126 Si / 1000 Ang^3
#
#
#
# Elastic Constant Matrix: (Units=GPa)
#
#
# Indices 1 2 3 4 5 6 
#
# 1 114.6391 14.4221 19.2692 -0.0001 -6.9463 0.0000
# 2 14.4221 68.2021 18.8365 0.0000 7.6857 0.0001
# 3 19.2692 18.8365 121.8724 0.0001 -4.3442 0.0008
# 4 -0.0001 0.0000 0.0001 10.9484 0.0001 -1.9931
# 5 -6.9463 7.6857 -4.3442 0.0001 19.3240 -0.0002
# 6 0.0000 0.0001 0.0008 -1.9931 -0.0002 19.9656
#
#
#
# Elastic Compliance Matrix: (Units=1/GPa)
#
#
# Indices 1 2 3 4 5 6 
#
# 1 0.009408 -0.002163 -0.001010 0.000000 0.004015 0.000000
# 2 -0.002163 0.016719 -0.002527 0.000000 -0.007995 0.000000
# 3 -0.001010 -0.002527 0.008849 0.000000 0.002631 0.000000
# 4 0.000000 0.000000 0.000000 0.093029 -0.000001 0.009287
# 5 0.004015 -0.007995 0.002631 -0.000001 0.056964 0.000000
# 6 0.000000 0.000000 0.000000 0.009287 0.000000 0.051013
#
#
# Mechanical properties :
#
#
# Convention : Reuss Voigt Hill
#
# Bulk Modulus (GPa) = 42.41596 45.52990 43.97293
# Shear Modulus (GPa) = 19.58936 26.85999 23.22467
#
# Velocity S-wave (km/s) = 3.17539 3.71826 3.45749
# Velocity P-wave (km/s) = 5.93941 6.47064 6.21071
#
# Compressibility (1/GPa) = 0.02357603
#
# Stress axis : x y z
#
# Youngs Moduli (GPa) = 106.29027 59.81366 113.00227
#
# Poissons Ratio (x) = 0.12937 0.11414
# Poissons Ratio (y) = 0.22990 0.28556
# Poissons Ratio (z) = 0.10736 0.15115
#
# Static dielectric constant tensor:
#      x y z
#    x 1.720000 0.000000 -0.000710 
#    y 0.000000 1.753680 0.000000 
#    z -0.000710 0.000000 1.560850 
# 
# From -- ./inp_files/265514.got.cif
#   From: 2010.05.17/outbox.cif.g08.bks.cpg/sg15_133_cif.got.tgz:265514.got - 2010.06.03 18:47:42.
