data_PCOD9300954
_publ_section_title
;
Structure prediction by ZEFSAII (Michael W. Deem and Ramdas Pophale) SiO2 
 PCOD9300954
Probable space group: C 2/C
;
_chemical_formula_sum "Si O2"
_cell_formula_units_Z 40
_cell_length_a 26.419767
_cell_length_b 13.390574
_cell_length_c 9.452562
_cell_angle_alpha 90.000000
_cell_angle_beta 151.076852
_cell_angle_gamma 90.000000
_cell_volume 1617.321528
_symmetry_space_group_name_H-M "C 2/C"
_symmetry_group_IT_number 15
_symmetry_cell_setting 'monoclinic'
loop_
_space_group_symop_operation_xyz
x,y,z
-x,y,1/2-z
-x,-y,-z
x,-y,1/2+z
1/2+x,1/2+y,z
1/2-x,1/2+y,1/2-z
1/2-x,1/2-y,-z
1/2+x,1/2-y,1/2+z
loop_
_atom_site_type_symbol
_atom_site_label
_atom_site_fract_x
_atom_site_fract_y
_atom_site_fract_z
Si Si1 0.176831 0.185238 0.630162
Si Si2 0.217163 0.595962 0.851443
Si Si3 0.088009 0.211372 0.114794
Si Si4 0.064888 0.569176 0.052451
Si Si5 0.377208 0.287814 0.200788
O O1 0.241782 0.099183 0.709124
O O2 0.100060 0.219521 0.317321
O O3 0.127528 0.157688 0.659263
O O4 0.259133 0.275635 0.856571
O O5 0.128359 0.682933 0.651787
O O6 0.168954 0.492077 0.771938
O O7 0.318634 0.633016 0.187495
O O8 0.966351 0.180440 0.807629
O O9 0.000000 0.582540 0.750000
O O10 0.091649 0.674099 0.186206
O O11 0.000000 0.500000 0.000000
#
# Coordination Sequence:
#
# PCOD9300954 Si02
#       5
#     8   8   8   8   8
#     4   9  20  35  52  81 113 154 200 241 283 362
#     4   9  20  34  50  81 119 151 183 238 302 354
#     4   9  18  34  53  76 111 155 191 230 286 356
#     4  12  23  34  58  91 125 150 189 256 316 348
#     4  11  20  34  59  85 112 153 201 242 297 350
#
# _framework density 24.732251000000002
#
# number of rings (size 3 to 8) (size 9 to 14) (size 15 to 20)
#    1.200    0.800    2.000    3.000    0.000    0.000 
#    0.000    0.000    0.000    4.800    0.000    0.000 
#    0.000    0.000    0.000    0.000    0.000    0.000 
#
# Total GULP energy -111727.921491 kJ/mol
# GULP energy per Si atom -5586.396075 kJ/mol
# Density = 2.467596 g / cm^3
# Si number density = 24.732251 Si / 1000 Ang^3
#
#
#
# Elastic Constant Matrix: (Units=GPa)
#
#
# Indices 1 2 3 4 5 6 
#
# 1 122.8824 17.7089 -8.7942 0.0000 35.5495 0.0000
# 2 17.7089 50.2316 11.0114 0.0000 7.5254 0.0000
# 3 -8.7942 11.0114 88.9166 0.0000 22.1318 0.0000
# 4 0.0000 0.0000 0.0000 25.5771 0.0000 9.9117
# 5 35.5495 7.5254 22.1318 0.0000 49.7334 0.0000
# 6 0.0000 0.0000 0.0000 9.9117 0.0000 31.5708
#
#
#
# Elastic Compliance Matrix: (Units=1/GPa)
#
#
# Indices 1 2 3 4 5 6 
#
# 1 0.011719 -0.003567 0.003994 0.000000 -0.009614 0.000000
# 2 -0.003567 0.021768 -0.003220 0.000000 0.000689 0.000000
# 3 0.003994 -0.003220 0.014203 0.000000 -0.008688 0.000000
# 4 0.000000 0.000000 0.000000 0.044513 0.000000 -0.013975
# 5 -0.009614 0.000689 -0.008688 0.000000 0.030742 0.000000
# 6 0.000000 0.000000 0.000000 -0.013975 0.000000 0.036062
#
#
# Mechanical properties :
#
#
# Convention : Reuss Voigt Hill
#
# Bulk Modulus (GPa) = 23.75052 33.54256 28.64654
# Shear Modulus (GPa) = 27.99130 37.51654 32.75392
#
# Velocity S-wave (km/s) = 3.36783 3.89898 3.64310
# Velocity P-wave (km/s) = 4.97463 5.81903 5.41332
#
# Compressibility (1/GPa) = 0.04210433
#
# Stress axis : x y z
#
# Youngs Moduli (GPa) = 85.33059 45.93926 70.40910
#
# Poissons Ratio (x) = 0.16385 -0.28120
# Poissons Ratio (y) = 0.30435 0.22671
# Poissons Ratio (z) = -0.34080 0.14792
#
# Static dielectric constant tensor:
#      x y z
#    x 2.224290 0.000000 -0.045520 
#    y 0.000000 1.882750 0.000000 
#    z -0.045520 0.000000 2.075480 
# 
# From -- ./inp_files/123721.got.cif
#   From: 2010.05.17/outbox.cif.g08.bks.cpg/sg15_62_cif.got.tgz:123721.got - 2010.06.03 18:47:42.
