data_PCOD9300301
_publ_section_title
;
Structure prediction by ZEFSAII (Michael W. Deem and Ramdas Pophale) SiO2 
 PCOD9300301
Probable space group: C 2/C
;
_chemical_formula_sum "Si O2"
_cell_formula_units_Z 36
_cell_length_a 20.392879
_cell_length_b 5.586023
_cell_length_c 21.530099
_cell_angle_alpha 90.000000
_cell_angle_beta 138.978877
_cell_angle_gamma 90.000000
_cell_volume 1609.734759
_symmetry_space_group_name_H-M "C 2/C"
_symmetry_group_IT_number 15
_symmetry_cell_setting 'monoclinic'
loop_
_space_group_symop_operation_xyz
x,y,z
-x,y,1/2-z
-x,-y,-z
x,-y,1/2+z
1/2+x,1/2+y,z
1/2-x,1/2+y,1/2-z
1/2-x,1/2-y,-z
1/2+x,1/2-y,1/2+z
loop_
_atom_site_type_symbol
_atom_site_label
_atom_site_fract_x
_atom_site_fract_y
_atom_site_fract_z
Si Si1 0.068334 0.852132 0.001810
Si Si2 0.140065 0.839911 0.438601
Si Si3 0.531861 0.980626 0.164815
Si Si4 0.308111 0.201751 0.298228
Si Si5 0.500000 0.653916 0.250000
O O1 0.141196 0.700699 0.097720
O O2 0.990351 0.693043 0.908098
O O3 0.128856 0.013237 0.995333
O O4 0.000000 0.000000 0.000000
O O5 0.250000 0.750000 0.500000
O O6 0.072471 0.605674 0.396047
O O7 0.081879 0.998812 0.345534
O O8 0.610018 0.176523 0.197949
O O9 0.558230 0.821895 0.242745
O O10 0.256175 0.459815 0.254684
#
# Coordination Sequence:
#
# PCOD9300301 Si02
#       5
#     8   8   8   8   4
#     4  11  24  49  76 106 153 201 256 322 398 464
#     4  11  26  48  79 111 153 208 260 320 398 478
#     4  11  25  49  73 103 157 197 260 326 388 474
#     4  12  28  45  77 118 149 202 260 329 393 467
#     4  10  26  48  74 108 154 204 256 318 398 466
#
# _framework density 22.363931999999998
#
# number of rings (size 3 to 8) (size 9 to 14) (size 15 to 20)
#    0.000    0.889    2.222    2.667    6.222    8.889 
#    0.000    0.000    0.000    0.000    0.000    0.000 
#    0.000    0.000    0.000    0.000    0.000    0.000 
#
# Total GULP energy -100743.230455 kJ/mol
# GULP energy per Si atom -5596.846136 kJ/mol
# Density = 2.231303 g / cm^3
# Si number density = 22.363932 Si / 1000 Ang^3
#
#
#
# Elastic Constant Matrix: (Units=GPa)
#
#
# Indices 1 2 3 4 5 6 
#
# 1 143.3235 51.1423 68.6299 0.0004 11.9904 0.0000
# 2 51.1423 86.9486 30.6163 0.0019 -4.4309 0.0007
# 3 68.6299 30.6163 79.6826 0.0001 -22.6662 0.0011
# 4 0.0004 0.0019 0.0001 6.2107 0.0000 -3.6864
# 5 11.9904 -4.4309 -22.6662 0.0000 48.4226 0.0000
# 6 0.0000 0.0007 0.0011 -3.6864 0.0000 58.3927
#
#
#
# Elastic Compliance Matrix: (Units=1/GPa)
#
#
# Indices 1 2 3 4 5 6 
#
# 1 0.018404 -0.005309 -0.017588 0.000001 -0.013276 0.000000
# 2 -0.005309 0.014909 -0.000455 -0.000004 0.002466 0.000000
# 3 -0.017588 -0.000455 0.033570 0.000001 0.020027 -0.000001
# 4 0.000001 -0.000004 0.000001 0.167279 0.000000 0.010561
# 5 -0.013276 0.002466 0.020027 0.000000 0.033539 0.000000
# 6 0.000000 0.000000 -0.000001 0.010561 0.000000 0.017792
#
#
# Mechanical properties :
#
#
# Convention : Reuss Voigt Hill
#
# Bulk Modulus (GPa) = 49.55330 67.85908 58.70619
# Shear Modulus (GPa) = 14.75262 33.24295 23.99778
#
# Velocity S-wave (km/s) = 2.57117 3.85964 3.27931
# Velocity P-wave (km/s) = 5.56959 7.09023 6.37541
#
# Compressibility (1/GPa) = 0.02018029
#
# Stress axis : x y z
#
# Youngs Moduli (GPa) = 54.33613 67.07205 29.78882
#
# Poissons Ratio (x) = 0.35605 0.52392
# Poissons Ratio (y) = 0.28845 0.01355
# Poissons Ratio (z) = 0.95565 0.03052
#
# Static dielectric constant tensor:
#      x y z
#    x 1.423500 0.000000 0.298090 
#    y 0.000000 1.841810 0.000000 
#    z 0.298090 0.000000 1.601760 
# 
# From -- ./inp_files/165065.got.cif
#   From: 2010.05.17/outbox.cif.g08.bks.cpg/sg15_83_cif.got.tgz:165065.got - 2010.06.03 18:47:42.
