data_PCOD9300572
_publ_section_title
;
Structure prediction by ZEFSAII (Michael W. Deem and Ramdas Pophale) SiO2 
 PCOD9300572
Probable space group: C 2/C
;
_chemical_formula_sum "Si O2"
_cell_formula_units_Z 48
_cell_length_a 5.317098
_cell_length_b 20.578136
_cell_length_c 20.521606
_cell_angle_alpha 90.000000
_cell_angle_beta 61.164219
_cell_angle_gamma 90.000000
_cell_volume 1966.975513
_symmetry_space_group_name_H-M "C 2/C"
_symmetry_group_IT_number 15
_symmetry_cell_setting 'monoclinic'
loop_
_space_group_symop_operation_xyz
x,y,z
-x,y,1/2-z
-x,-y,-z
x,-y,1/2+z
1/2+x,1/2+y,z
1/2-x,1/2+y,1/2-z
1/2-x,1/2-y,-z
1/2+x,1/2-y,1/2+z
loop_
_atom_site_type_symbol
_atom_site_label
_atom_site_fract_x
_atom_site_fract_y
_atom_site_fract_z
Si Si1 0.249104 0.319874 0.085451
Si Si2 0.500000 0.135098 0.750000
Si Si3 0.223806 0.551285 0.381414
Si Si4 0.000000 0.051681 0.750000
Si Si5 0.249941 0.248864 0.414644
Si Si6 0.500000 0.652189 0.250000
Si Si7 0.906853 0.097441 0.043542
Si Si8 0.500000 0.767377 0.750000
O O1 0.514163 0.270110 0.061923
O O2 0.090055 0.326588 0.173914
O O3 0.030720 0.293501 0.058453
O O4 0.390450 0.387012 0.043496
O O5 0.231386 0.092262 0.761082
O O6 0.324371 0.490205 0.325719
O O7 0.309188 0.609933 0.322387
O O8 0.412038 0.562308 0.422657
O O9 0.884134 0.558705 0.436040
O O10 0.181092 0.171697 0.423217
O O11 0.414924 0.267109 0.326673
O O12 0.278170 0.691464 0.234449
#
# Coordination Sequence:
#
# PCOD9300572 Si02
#       8
#     8   4   8   4   8   4   8   4
#     4  12  26  43  65  92 135 185 226 252 315 387
#     4  12  26  52  65  92 125 178 230 274 314 384
#     4  11  22  41  67 102 124 165 209 271 358 383
#     4  11  26  47  77  92 127 164 219 288 335 394
#     4  12  22  39  61  99 135 183 216 254 311 388
#     4  11  18  35  54  89 126 159 193 264 319 382
#     4  12  23  41  65 101 143 166 206 276 324 397
#     4  12  20  32  60  87 128 169 216 254 298 360
#
# _framework density 24.402946
#
# number of rings (size 3 to 8) (size 9 to 14) (size 15 to 20)
#    0.000    0.333    3.333    7.000    0.000    2.667 
#    0.000    5.000    0.000    0.000    0.000    0.000 
#    0.000    0.000    0.000    0.000    0.000    0.000 
#
# Total GULP energy -134427.726539 kJ/mol
# GULP energy per Si atom -5601.155272 kJ/mol
# Density = 2.434740 g / cm^3
# Si number density = 24.402946 Si / 1000 Ang^3
#
#
#
# Elastic Constant Matrix: (Units=GPa)
#
#
# Indices 1 2 3 4 5 6 
#
# 1 189.2527 55.4676 17.1081 0.0000 13.7489 0.0000
# 2 55.4676 68.7435 13.5602 0.0000 -3.2510 0.0000
# 3 17.1081 13.5602 101.4827 0.0000 -4.0286 0.0000
# 4 0.0000 0.0000 0.0000 9.6545 0.0000 3.5906
# 5 13.7489 -3.2510 -4.0286 0.0000 39.4226 0.0000
# 6 0.0000 0.0000 0.0000 3.5906 0.0000 53.8752
#
#
#
# Elastic Compliance Matrix: (Units=1/GPa)
#
#
# Indices 1 2 3 4 5 6 
#
# 1 0.007295 -0.005921 -0.000561 0.000000 -0.003090 0.000000
# 2 -0.005921 0.019789 -0.001505 0.000000 0.003543 0.000000
# 3 -0.000561 -0.001505 0.010194 0.000000 0.001113 0.000000
# 4 0.000000 0.000000 0.000000 0.106211 0.000000 -0.007079
# 5 -0.003090 0.003543 0.001113 0.000000 0.026850 0.000000
# 6 0.000000 0.000000 0.000000 -0.007079 0.000000 0.019033
#
#
# Mechanical properties :
#
#
# Convention : Reuss Voigt Hill
#
# Bulk Modulus (GPa) = 46.94417 59.08341 53.01379
# Shear Modulus (GPa) = 23.53520 38.81333 31.17426
#
# Velocity S-wave (km/s) = 3.10891 3.99246 3.57806
# Velocity P-wave (km/s) = 5.67151 6.74664 6.23230
#
# Compressibility (1/GPa) = 0.02130190
#
# Stress axis : x y z
#
# Youngs Moduli (GPa) = 137.08823 50.53293 98.09837
#
# Poissons Ratio (x) = 0.29922 0.05505
# Poissons Ratio (y) = 0.81173 0.14767
# Poissons Ratio (z) = 0.07693 0.07607
#
# Static dielectric constant tensor:
#      x y z
#    x 1.850910 0.000000 0.031270 
#    y 0.000000 1.914500 0.000000 
#    z 0.031270 0.000000 2.033830 
# 
# From -- ./inp_files/261100.got.cif
#   From: 2010.05.17/outbox.cif.g08.bks.cpg/sg15_131_cif.got.tgz:261100.got - 2010.06.03 18:47:42.
