data_PCOD9300321
_publ_section_title
;
Structure prediction by ZEFSAII (Michael W. Deem and Ramdas Pophale) SiO2 
 PCOD9300321
Probable space group: C 2/C
;
_chemical_formula_sum "Si O2"
_cell_formula_units_Z 44
_cell_length_a 25.115378
_cell_length_b 7.499394
_cell_length_c 26.565143
_cell_angle_alpha 90.000000
_cell_angle_beta 20.198534
_cell_angle_gamma 90.000000
_cell_volume 1727.595874
_symmetry_space_group_name_H-M "C 2/C"
_symmetry_group_IT_number 15
_symmetry_cell_setting 'monoclinic'
loop_
_space_group_symop_operation_xyz
x,y,z
-x,y,1/2-z
-x,-y,-z
x,-y,1/2+z
1/2+x,1/2+y,z
1/2-x,1/2+y,1/2-z
1/2-x,1/2-y,-z
1/2+x,1/2-y,1/2+z
loop_
_atom_site_type_symbol
_atom_site_label
_atom_site_fract_x
_atom_site_fract_y
_atom_site_fract_z
Si Si1 0.326919 0.407018 0.711063
Si Si2 0.604008 0.087266 0.043387
Si Si3 0.000000 0.694132 0.750000
Si Si4 0.452196 0.690751 0.401466
Si Si5 0.296773 0.085439 0.382859
Si Si6 0.984962 0.269481 0.546200
O O1 0.395811 0.310136 0.699009
O O2 0.145395 0.391453 0.863849
O O3 0.385846 0.608206 0.658414
O O4 0.408820 0.315626 0.590592
O O5 0.441181 0.106735 0.217323
O O6 0.577966 0.143854 0.009063
O O7 0.636500 0.877763 0.014532
O O8 0.730210 0.220770 0.954637
O O9 0.008216 0.811491 0.692772
O O10 0.141280 0.552554 0.629794
O O11 0.346201 0.526775 0.512460
#
# Coordination Sequence:
#
# PCOD9300321 Si02
#       6
#     8   8   4   8   8   8
#     4  11  25  41  72 101 152 180 246 288 358 436
#     4  11  25  45  77 107 153 187 242 303 366 440
#     4  10  26  48  78 104 146 190 252 310 374 422
#     4  11  25  46  71 106 144 196 240 307 360 433
#     4  11  25  48  73 110 144 191 246 304 369 435
#     4  11  24  44  67 110 139 195 229 297 357 435
#
# _framework density 25.468920000000001
#
# number of rings (size 3 to 8) (size 9 to 14) (size 15 to 20)
#    0.000    1.091    1.818    2.727    7.636   10.182 
#    0.000    4.545    0.000    0.000    0.000    0.000 
#    0.000    0.000    0.000    0.000    0.000    0.000 
#
# Total GULP energy -123355.204877 kJ/mol
# GULP energy per Si atom -5607.054767 kJ/mol
# Density = 2.541095 g / cm^3
# Si number density = 25.468920 Si / 1000 Ang^3
#
#
#
# Elastic Constant Matrix: (Units=GPa)
#
#
# Indices 1 2 3 4 5 6 
#
# 1 108.2000 -4.1656 31.7626 -0.0007 11.7927 -0.0008
# 2 -4.1656 92.6763 22.1162 0.0075 13.0067 -0.0010
# 3 31.7626 22.1162 108.7754 -0.0042 4.1313 0.0018
# 4 -0.0007 0.0075 -0.0042 49.2841 0.0013 -12.5910
# 5 11.7927 13.0067 4.1313 0.0013 44.2658 -0.0005
# 6 -0.0008 -0.0010 0.0018 -12.5910 -0.0005 29.5140
#
#
#
# Elastic Compliance Matrix: (Units=1/GPa)
#
#
# Indices 1 2 3 4 5 6 
#
# 1 0.010613 0.001695 -0.003329 0.000000 -0.003015 0.000000
# 2 0.001695 0.012060 -0.002805 -0.000002 -0.003733 0.000000
# 3 -0.003329 -0.002805 0.010709 0.000001 0.000712 0.000000
# 4 0.000000 -0.000002 0.000001 0.022772 0.000000 0.009715
# 5 -0.003015 -0.003733 0.000712 0.000000 0.024424 0.000000
# 6 0.000000 0.000000 0.000000 0.009715 0.000000 0.038027
#
#
# Mechanical properties :
#
#
# Convention : Reuss Voigt Hill
#
# Bulk Modulus (GPa) = 40.81215 45.45315 43.13265
# Shear Modulus (GPa) = 36.85905 41.94202 39.40053
#
# Velocity S-wave (km/s) = 3.80836 4.06247 3.93746
# Velocity P-wave (km/s) = 5.94955 6.31587 6.13544
#
# Compressibility (1/GPa) = 0.02450251
#
# Stress axis : x y z
#
# Youngs Moduli (GPa) = 94.22201 82.92055 93.38242
#
# Poissons Ratio (x) = -0.14052 0.31088
# Poissons Ratio (y) = -0.15967 0.26194
# Poissons Ratio (z) = 0.31368 0.23259
#
# Static dielectric constant tensor:
#      x y z
#    x 2.032230 0.000000 -0.024090 
#    y 0.000000 1.993470 0.000000 
#    z -0.024090 0.000000 2.013870 
# 
# From -- ./inp_files/303159.got.cif
#   From: 2010.05.17/outbox.cif.g08.bks.cpg/sg15_152_cif.got.tgz:303159.got - 2010.06.03 18:47:42.
