data_PCOD9300072
_publ_section_title
;
Structure prediction by ZEFSAII (Michael W. Deem and Ramdas Pophale) SiO2 
 PCOD9300072
Probable space group: C 2/C
;
_chemical_formula_sum "Si O2"
_cell_formula_units_Z 44
_cell_length_a 12.582818
_cell_length_b 14.552306
_cell_length_c 12.849066
_cell_angle_alpha 90.000000
_cell_angle_beta 70.553632
_cell_angle_gamma 90.000000
_cell_volume 2218.562093
_symmetry_space_group_name_H-M "C 2/C"
_symmetry_group_IT_number 15
_symmetry_cell_setting 'monoclinic'
loop_
_space_group_symop_operation_xyz
x,y,z
-x,y,1/2-z
-x,-y,-z
x,-y,1/2+z
1/2+x,1/2+y,z
1/2-x,1/2+y,1/2-z
1/2-x,1/2-y,-z
1/2+x,1/2-y,1/2+z
loop_
_atom_site_type_symbol
_atom_site_label
_atom_site_fract_x
_atom_site_fract_y
_atom_site_fract_z
Si Si1 0.187302 0.144412 0.174526
Si Si2 0.000000 0.613858 0.250000
Si Si3 0.914876 0.323924 0.186032
Si Si4 0.090520 0.920435 0.492838
Si Si5 0.217727 0.507727 0.707766
Si Si6 0.563763 0.217398 0.437595
O O1 0.138083 0.227964 0.258538
O O2 0.307946 0.180487 0.090850
O O3 0.210500 0.059036 0.242073
O O4 0.106987 0.113393 0.106275
O O5 0.890004 0.550262 0.293967
O O6 0.982235 0.675566 0.154126
O O7 0.822952 0.404084 0.213545
O O8 0.000000 0.351185 0.250000
O O9 0.985045 0.314324 0.058045
O O10 0.209367 0.958164 0.412642
O O11 0.063499 0.827620 0.438416
O O12 0.000000 0.000000 0.500000
#
# Coordination Sequence:
#
# PCOD9300072 Si02
#       6
#     8   4   8   8   8   8
#     4  11  25  45  65 102 137 174 232 274 338 411
#     4  10  26  44  64 104 140 168 232 278 340 400
#     4  12  22  42  72  96 131 183 227 276 336 399
#     4  12  25  44  67  98 137 182 226 280 342 401
#     4  11  25  41  68 102 133 177 227 279 339 409
#     4  11  24  44  70  95 139 180 220 286 338 396
#
# _framework density 19.832666
#
# number of rings (size 3 to 8) (size 9 to 14) (size 15 to 20)
#    0.000    0.727    4.545    2.727    2.545    2.909 
#    0.000    4.545    0.000    0.000    0.000    0.000 
#    0.000    0.000    0.000    0.000    0.000    0.000 
#
# Total GULP energy -123067.150008 kJ/mol
# GULP energy per Si atom -5593.961364 kJ/mol
# Density = 1.978753 g / cm^3
# Si number density = 19.832666 Si / 1000 Ang^3
#
#
#
# Elastic Constant Matrix: (Units=GPa)
#
#
# Indices 1 2 3 4 5 6 
#
# 1 67.0305 32.5269 45.5198 0.0000 13.2742 0.0000
# 2 32.5269 129.8274 42.4875 0.0000 23.9879 0.0000
# 3 45.5198 42.4875 103.9412 0.0000 5.8776 0.0000
# 4 0.0000 0.0000 0.0000 38.5626 0.0000 -5.2127
# 5 13.2742 23.9879 5.8776 0.0000 20.8050 0.0000
# 6 0.0000 0.0000 0.0000 -5.2127 0.0000 39.9015
#
#
#
# Elastic Compliance Matrix: (Units=1/GPa)
#
#
# Indices 1 2 3 4 5 6 
#
# 1 0.024140 -0.000710 -0.009610 0.000000 -0.011868 0.000000
# 2 -0.000710 0.011169 -0.003610 0.000000 -0.011405 0.000000
# 3 -0.009610 -0.003610 0.014962 0.000000 0.006067 0.000000
# 4 0.000000 0.000000 0.000000 0.026398 0.000000 0.003449
# 5 -0.011868 -0.011405 0.006067 0.000000 0.067074 0.000000
# 6 0.000000 0.000000 0.000000 0.003449 0.000000 0.025512
#
#
# Mechanical properties :
#
#
# Convention : Reuss Voigt Hill
#
# Bulk Modulus (GPa) = 44.62151 60.20749 52.41450
# Shear Modulus (GPa) = 24.43976 31.87148 28.15562
#
# Velocity S-wave (km/s) = 3.51422 4.01311 3.77192
# Velocity P-wave (km/s) = 6.24613 7.20396 6.74208
#
# Compressibility (1/GPa) = 0.02241072
#
# Stress axis : x y z
#
# Youngs Moduli (GPa) = 41.42558 89.53368 66.83601
#
# Poissons Ratio (x) = 0.06357 0.64232
# Poissons Ratio (y) = 0.02941 0.24125
# Poissons Ratio (z) = 0.39811 0.32318
#
# Static dielectric constant tensor:
#      x y z
#    x 1.736110 0.000000 -0.028880 
#    y 0.000000 1.690190 0.000000 
#    z -0.028880 0.000000 1.673160 
# 
# From -- ./inp_files/86116.got.cif
#   From: 2010.05.17/outbox.cif.g08.bks.cpg/sg15_44_cif.got.tgz:86116.got - 2010.06.03 18:47:42.
