data_PCOD9300383
_publ_section_title
;
Structure prediction by ZEFSAII (Michael W. Deem and Ramdas Pophale) SiO2 
 PCOD9300383
Probable space group: C 2/C
;
_chemical_formula_sum "Si O2"
_cell_formula_units_Z 20
_cell_length_a 8.667714
_cell_length_b 4.803931
_cell_length_c 24.670195
_cell_angle_alpha 90.000000
_cell_angle_beta 135.671369
_cell_angle_gamma 90.000000
_cell_volume 717.810701
_symmetry_space_group_name_H-M "C 2/C"
_symmetry_group_IT_number 15
_symmetry_cell_setting 'monoclinic'
loop_
_space_group_symop_operation_xyz
x,y,z
-x,y,1/2-z
-x,-y,-z
x,-y,1/2+z
1/2+x,1/2+y,z
1/2-x,1/2+y,1/2-z
1/2-x,1/2-y,-z
1/2+x,1/2-y,1/2+z
loop_
_atom_site_type_symbol
_atom_site_label
_atom_site_fract_x
_atom_site_fract_y
_atom_site_fract_z
Si Si1 0.498609 0.342914 0.443105
Si Si2 0.949066 0.994120 0.662500
Si Si3 0.000000 0.520777 0.750000
O O1 0.500000 0.500000 0.500000
O O2 0.750000 0.250000 0.500000
O O3 0.302416 0.120651 0.399054
O O4 0.462486 0.497049 0.376570
O O5 0.089923 0.764688 0.730973
O O6 0.940520 0.293841 0.688363
#
# Coordination Sequence:
#
# PCOD9300383 Si02
#       3
#     8   8   4
#     4  12  27  50  78 114 154 201 254 316 382 455
#     4  11  26  50  80 115 154 203 257 318 383 455
#     4  10  26  50  80 112 156 202 258 316 382 454
#
# _framework density 27.862501000000002
#
# number of rings (size 3 to 8) (size 9 to 14) (size 15 to 20)
#    0.000    0.800    0.000    4.800    0.000   16.000 
#    0.000    0.000    0.000    0.000    0.000    0.000 
#    0.000    0.000    0.000    0.000    0.000    0.000 
#
# Total GULP energy -55920.135896 kJ/mol
# GULP energy per Si atom -5592.013590 kJ/mol
# Density = 2.779908 g / cm^3
# Si number density = 27.862501 Si / 1000 Ang^3
#
#
#
# Elastic Constant Matrix: (Units=GPa)
#
#
# Indices 1 2 3 4 5 6 
#
# 1 252.3515 101.9313 81.7310 -0.0005 -46.6765 0.0003
# 2 101.9313 172.0575 84.3057 -0.0010 -39.5150 0.0013
# 3 81.7310 84.3057 181.6068 -0.0005 -66.1048 0.0003
# 4 -0.0005 -0.0010 -0.0005 24.0145 0.0002 12.1314
# 5 -46.6765 -39.5150 -66.1048 0.0002 82.4405 -0.0002
# 6 0.0003 0.0013 0.0003 12.1314 -0.0002 48.3075
#
#
#
# Elastic Compliance Matrix: (Units=1/GPa)
#
#
# Indices 1 2 3 4 5 6 
#
# 1 0.005495 -0.002565 -0.000843 0.000000 0.001205 0.000000
# 2 -0.002565 0.008797 -0.002716 0.000000 0.000586 0.000000
# 3 -0.000843 -0.002716 0.009178 0.000000 0.005580 0.000000
# 4 0.000000 0.000000 0.000000 0.047692 0.000000 -0.011977
# 5 0.001205 0.000586 0.005580 0.000000 0.017568 0.000000
# 6 0.000000 0.000000 0.000000 -0.011977 0.000000 0.023708
#
#
# Mechanical properties :
#
#
# Convention : Reuss Voigt Hill
#
# Bulk Modulus (GPa) = 89.11930 126.88353 108.00141
# Shear Modulus (GPa) = 38.93247 53.48902 46.21074
#
# Velocity S-wave (km/s) = 3.74211 4.38625 4.07692
# Velocity P-wave (km/s) = 7.12222 8.44336 7.81077
#
# Compressibility (1/GPa) = 0.01122091
#
# Stress axis : x y z
#
# Youngs Moduli (GPa) = 181.98271 113.67254 108.95822
#
# Poissons Ratio (x) = 0.29161 0.09189
# Poissons Ratio (y) = 0.46685 0.29592
# Poissons Ratio (z) = 0.15348 0.30872
#
# Static dielectric constant tensor:
#      x y z
#    x 2.666120 0.000000 0.785630 
#    y 0.000000 2.092340 0.000000 
#    z 0.785630 0.000000 3.168650 
# 
# From -- ./inp_files/228944.got.cif
#   From: 2010.05.17/outbox.cif.g08.bks.cpg/sg15_115_cif.got.tgz:228944.got - 2010.06.03 18:47:42.
