data_PCOD9300588
_publ_section_title
;
Structure prediction by ZEFSAII (Michael W. Deem and Ramdas Pophale) SiO2 
 PCOD9300588
Probable space group: C 2/C
;
_chemical_formula_sum "Si O2"
_cell_formula_units_Z 32
_cell_length_a 7.059286
_cell_length_b 14.965990
_cell_length_c 17.709338
_cell_angle_alpha 90.000000
_cell_angle_beta 44.855468
_cell_angle_gamma 90.000000
_cell_volume 1319.639344
_symmetry_space_group_name_H-M "C 2/C"
_symmetry_group_IT_number 15
_symmetry_cell_setting 'monoclinic'
loop_
_space_group_symop_operation_xyz
x,y,z
-x,y,1/2-z
-x,-y,-z
x,-y,1/2+z
1/2+x,1/2+y,z
1/2-x,1/2+y,1/2-z
1/2-x,1/2-y,-z
1/2+x,1/2-y,1/2+z
loop_
_atom_site_type_symbol
_atom_site_label
_atom_site_fract_x
_atom_site_fract_y
_atom_site_fract_z
Si Si1 0.813395 0.927103 0.225887
Si Si2 0.658180 0.908676 0.487458
Si Si3 0.541391 0.221515 0.887214
Si Si4 0.768010 0.625573 0.226911
O O1 0.592440 0.851480 0.305511
O O2 0.000000 0.928650 0.250000
O O3 0.700682 0.025462 0.253568
O O4 0.023002 0.922500 0.097558
O O5 0.646723 0.830909 0.429290
O O6 0.516348 0.867480 0.600170
O O7 0.500000 0.000000 0.500000
O O8 0.709247 0.305545 0.810032
O O9 0.250000 0.250000 0.000000
O O10 0.500000 0.632301 0.250000
#
# Coordination Sequence:
#
# PCOD9300588 Si02
#       4
#     8   8   8   8
#     4   9  19  33  54  83 108 140 187 229 267 323
#     4  11  18  36  58  82 110 141 189 234 264 326
#     4  11  20  31  56  87 108 142 186 229 275 324
#     4  11  19  32  56  85 111 143 182 228 276 322
#
# _framework density 24.249048999999999
#
# number of rings (size 3 to 8) (size 9 to 14) (size 15 to 20)
#    0.000    1.500   10.000    0.000    0.000    1.000 
#    0.000    0.000    0.000    6.000    0.000    0.000 
#    0.000    0.000    0.000    0.000    0.000    0.000 
#
# Total GULP energy -89233.078759 kJ/mol
# GULP energy per Si atom -5577.067422 kJ/mol
# Density = 2.419386 g / cm^3
# Si number density = 24.249049 Si / 1000 Ang^3
#
#
#
# Elastic Constant Matrix: (Units=GPa)
#
#
# Indices 1 2 3 4 5 6 
#
# 1 59.2980 2.6531 20.7055 -0.0010 0.8313 0.0014
# 2 2.6531 158.4688 96.2958 0.0004 -1.3353 0.0004
# 3 20.7055 96.2958 288.2584 -0.0002 -9.6733 0.0011
# 4 -0.0010 0.0004 -0.0002 62.5459 0.0009 -0.3797
# 5 0.8313 -1.3353 -9.6733 0.0009 18.2673 -0.0012
# 6 0.0014 0.0004 0.0011 -0.3797 -0.0012 1.2731
#
#
#
# Elastic Compliance Matrix: (Units=1/GPa)
#
#
# Indices 1 2 3 4 5 6 
#
# 1 0.017384 0.000610 -0.001504 0.000000 -0.001543 -0.000020
# 2 0.000610 0.007952 -0.002730 0.000000 -0.000892 -0.000002
# 3 -0.001504 -0.002730 0.004566 0.000000 0.002287 0.000001
# 4 0.000000 0.000000 0.000000 0.016017 0.000000 0.004777
# 5 -0.001543 -0.000892 0.002287 0.000000 0.055958 0.000054
# 6 -0.000020 -0.000002 0.000001 0.004777 0.000054 0.786902
#
#
# Mechanical properties :
#
#
# Convention : Reuss Voigt Hill
#
# Bulk Modulus (GPa) = 44.14517 82.81489 63.48003
# Shear Modulus (GPa) = 5.53355 42.17533 23.85444
#
# Velocity S-wave (km/s) = 1.51226 4.17496 3.13984
# Velocity P-wave (km/s) = 4.61451 7.58066 6.27535
#
# Compressibility (1/GPa) = 0.02265253
#
# Stress axis : x y z
#
# Youngs Moduli (GPa) = 57.52560 125.76030 219.01447
#
# Poissons Ratio (x) = -0.07672 0.32945
# Poissons Ratio (y) = -0.03509 0.59793
# Poissons Ratio (z) = 0.08653 0.34334
#
# Static dielectric constant tensor:
#      x y z
#    x 2.037000 0.000000 0.023270 
#    y 0.000000 2.045620 0.000000 
#    z 0.023270 0.000000 1.982070 
# 
# From -- ./inp_files/75291.got.cif
#   From: 2010.05.17/outbox.cif.g08.bks.cpg/sg15_38_cif.got.tgz:75291.got - 2010.06.03 18:47:42.
