data_PCOD9300483
_publ_section_title
;
Structure prediction by ZEFSAII (Michael W. Deem and Ramdas Pophale) SiO2 
 PCOD9300483
Probable space group: C 2/C
;
_chemical_formula_sum "Si O2"
_cell_formula_units_Z 48
_cell_length_a 16.588216
_cell_length_b 5.111667
_cell_length_c 20.642739
_cell_angle_alpha 90.000000
_cell_angle_beta 83.119525
_cell_angle_gamma 90.000000
_cell_volume 1737.763011
_symmetry_space_group_name_H-M "C 2/C"
_symmetry_group_IT_number 15
_symmetry_cell_setting 'monoclinic'
loop_
_space_group_symop_operation_xyz
x,y,z
-x,y,1/2-z
-x,-y,-z
x,-y,1/2+z
1/2+x,1/2+y,z
1/2-x,1/2+y,1/2-z
1/2-x,1/2-y,-z
1/2+x,1/2-y,1/2+z
loop_
_atom_site_type_symbol
_atom_site_label
_atom_site_fract_x
_atom_site_fract_y
_atom_site_fract_z
Si Si1 0.279564 0.324432 0.830149
Si Si2 0.631117 0.881703 0.293152
Si Si3 0.142030 0.984641 0.897038
Si Si4 0.000000 0.779881 0.250000
Si Si5 0.250000 0.750000 0.000000
Si Si6 0.376382 0.822378 0.441455
Si Si7 0.523345 0.346614 0.102365
O O1 0.219962 0.543375 0.810903
O O2 0.348747 0.288720 0.771169
O O3 0.215240 0.090102 0.845245
O O4 0.319908 0.343597 0.896032
O O5 0.574360 0.104494 0.269670
O O6 0.596895 0.734135 0.358471
O O7 0.070262 0.194703 0.911055
O O8 0.186478 0.886772 0.956021
O O9 0.025347 0.911797 0.179596
O O10 0.188056 0.482714 0.009009
O O11 0.425711 0.076290 0.408890
O O12 0.441326 0.586900 0.444116
#
# Coordination Sequence:
#
# PCOD9300483 Si02
#       7
#     8   8   8   4   4   8   8
#     4  11  24  40  69 109 147 201 249 317 383 469
#     4  12  24  44  71 111 157 206 252 323 401 480
#     4  11  26  47  75 106 156 205 266 321 394 463
#     4  12  26  44  72 118 166 190 248 318 412 500
#     4  10  28  58  74 114 148 216 278 340 374 462
#     4  11  28  49  78 108 151 206 259 319 390 457
#     4  12  27  47  76 116 154 201 251 315 405 473
#
# _framework density 27.621715999999999
#
# number of rings (size 3 to 8) (size 9 to 14) (size 15 to 20)
#    0.000    0.667    5.000    1.000    9.333    2.667 
#    3.000    0.000    0.000    0.000    0.000    0.000 
#    0.000    0.000    0.000    0.000    0.000    0.000 
#
# Total GULP energy -133663.351370 kJ/mol
# GULP energy per Si atom -5569.306307 kJ/mol
# Density = 2.755885 g / cm^3
# Si number density = 27.621716 Si / 1000 Ang^3
#
#
#
# Elastic Constant Matrix: (Units=GPa)
#
#
# Indices 1 2 3 4 5 6 
#
# 1 159.8715 51.7368 45.1348 0.0000 21.7984 0.0000
# 2 51.7368 69.4783 19.4661 0.0000 -7.1603 0.0000
# 3 45.1348 19.4661 100.6949 0.0000 -6.6921 0.0000
# 4 0.0000 0.0000 0.0000 38.1679 0.0000 6.6567
# 5 21.7984 -7.1603 -6.6921 0.0000 34.3986 0.0000
# 6 0.0000 0.0000 0.0000 6.6567 0.0000 43.8669
#
#
#
# Elastic Compliance Matrix: (Units=1/GPa)
#
#
# Indices 1 2 3 4 5 6 
#
# 1 0.011500 -0.008406 -0.004184 0.000000 -0.009851 0.000000
# 2 -0.008406 0.021601 0.000248 0.000000 0.009872 0.000000
# 3 -0.004184 0.000248 0.012095 0.000000 0.005056 0.000000
# 4 0.000000 0.000000 0.000000 0.026912 0.000000 -0.004084
# 5 -0.009851 0.009872 0.005056 0.000000 0.038352 0.000000
# 6 0.000000 0.000000 0.000000 -0.004084 0.000000 0.023416
#
#
# Mechanical properties :
#
#
# Convention : Reuss Voigt Hill
#
# Bulk Modulus (GPa) = 48.75576 62.52445 55.64010
# Shear Modulus (GPa) = 30.23028 37.53382 33.88205
#
# Velocity S-wave (km/s) = 3.31182 3.69026 3.50615
# Velocity P-wave (km/s) = 5.68452 6.39081 6.04798
#
# Compressibility (1/GPa) = 0.02051040
#
# Stress axis : x y z
#
# Youngs Moduli (GPa) = 86.95668 46.29516 82.68186
#
# Poissons Ratio (x) = 0.38917 0.34596
# Poissons Ratio (y) = 0.73099 -0.02053
# Poissons Ratio (z) = 0.36385 -0.01150
#
# Static dielectric constant tensor:
#      x y z
#    x 2.064060 0.000000 -0.162970 
#    y 0.000000 2.196600 0.000000 
#    z -0.162970 0.000000 2.221660 
# 
# From -- ./inp_files/275638.got.cif
#   From: 2010.05.17/outbox.cif.g08.bks.cpg/sg15_138_cif.got.tgz:275638.got - 2010.06.03 18:47:42.
