data_PCOD9300200
_publ_section_title
;
Structure prediction by ZEFSAII (Michael W. Deem and Ramdas Pophale) SiO2 
 PCOD9300200
Probable space group: C 2/C
;
_chemical_formula_sum "Si O2"
_cell_formula_units_Z 60
_cell_length_a 17.952753
_cell_length_b 16.428085
_cell_length_c 17.507984
_cell_angle_alpha 90.000000
_cell_angle_beta 151.511372
_cell_angle_gamma 90.000000
_cell_volume 2462.965024
_symmetry_space_group_name_H-M "C 2/C"
_symmetry_group_IT_number 15
_symmetry_cell_setting 'monoclinic'
loop_
_space_group_symop_operation_xyz
x,y,z
-x,y,1/2-z
-x,-y,-z
x,-y,1/2+z
1/2+x,1/2+y,z
1/2-x,1/2+y,1/2-z
1/2-x,1/2-y,-z
1/2+x,1/2-y,1/2+z
loop_
_atom_site_type_symbol
_atom_site_label
_atom_site_fract_x
_atom_site_fract_y
_atom_site_fract_z
Si Si1 0.228664 0.075337 0.112676
Si Si2 0.471211 0.310137 0.400761
Si Si3 0.000000 0.605533 0.250000
Si Si4 0.089445 0.099578 0.500778
Si Si5 0.563004 0.869452 0.561501
Si Si6 0.282939 0.571496 0.133392
Si Si7 0.685764 0.166692 0.907587
Si Si8 0.706955 0.113584 0.579343
O O1 0.365659 0.059559 0.175264
O O2 0.309563 0.094282 0.265946
O O3 0.128351 0.155963 0.003245
O O4 0.129305 0.994654 0.029525
O O5 0.444822 0.375572 0.444064
O O6 0.462379 0.224956 0.437618
O O7 0.332911 0.319516 0.215661
O O8 0.097126 0.642772 0.409713
O O9 0.238405 0.152051 0.606637
O O10 0.933713 0.111480 0.309500
O O11 0.630004 0.892310 0.539634
O O12 0.399283 0.905531 0.441683
O O13 0.285470 0.473712 0.135077
O O14 0.266352 0.598387 0.031952
O O15 0.500000 0.163193 0.750000
O O16 0.750000 0.250000 0.000000
#
# Coordination Sequence:
#
# PCOD9300200 Si02
#       8
#     8   8   4   8   8   8   8   8
#     4  11  23  47  69 102 140 183 239 297 363 430
#     4  12  24  45  72 105 141 191 238 303 367 424
#     4  10  26  46  70  98 140 174 238 308 346 434
#     4  12  25  44  74 104 149 190 238 293 356 439
#     4  11  25  42  71 102 147 178 247 298 362 428
#     4  12  24  45  71 106 146 194 236 295 359 434
#     4  12  29  47  73 109 151 191 237 287 358 432
#     4  11  25  43  70 107 138 191 240 297 368 431
#
# _framework density 24.360880999999999
#
# number of rings (size 3 to 8) (size 9 to 14) (size 15 to 20)
#    0.000    0.533    2.667    5.200    7.467    0.533 
#    0.000   10.667    0.000    0.000    0.000    0.000 
#    0.000    0.000    0.000    0.000    0.000    0.000 
#
# Total GULP energy -167849.510131 kJ/mol
# GULP energy per Si atom -5594.983671 kJ/mol
# Density = 2.430543 g / cm^3
# Si number density = 24.360881 Si / 1000 Ang^3
#
#
#
# Elastic Constant Matrix: (Units=GPa)
#
#
# Indices 1 2 3 4 5 6 
#
# 1 87.5558 9.2407 0.7959 -0.0007 7.3828 0.0002
# 2 9.2407 98.8133 7.5234 -0.0013 5.9752 -0.0004
# 3 0.7959 7.5234 107.9905 -0.0048 2.7673 -0.0037
# 4 -0.0007 -0.0013 -0.0048 26.8208 -0.0024 0.7518
# 5 7.3828 5.9752 2.7673 -0.0024 31.8130 -0.0011
# 6 0.0002 -0.0004 -0.0037 0.7518 -0.0011 20.4434
#
#
#
# Elastic Compliance Matrix: (Units=1/GPa)
#
#
# Indices 1 2 3 4 5 6 
#
# 1 0.011736 -0.000947 0.000045 0.000000 -0.002550 0.000000
# 2 -0.000947 0.010361 -0.000672 0.000000 -0.001668 0.000000
# 3 0.000045 -0.000672 0.009324 0.000002 -0.000695 0.000002
# 4 0.000000 0.000000 0.000002 0.037323 0.000003 -0.001372
# 5 -0.002550 -0.001668 -0.000695 0.000003 0.032399 0.000001
# 6 0.000000 0.000000 0.000002 -0.001372 0.000001 0.048966
#
#
# Mechanical properties :
#
#
# Convention : Reuss Voigt Hill
#
# Bulk Modulus (GPa) = 35.36971 36.60884 35.98928
# Shear Modulus (GPa) = 30.73495 34.26874 32.50185
#
# Velocity S-wave (km/s) = 3.55583 3.75468 3.65661
# Velocity P-wave (km/s) = 5.60438 5.81870 5.71255
#
# Compressibility (1/GPa) = 0.02827278
#
# Stress axis : x y z
#
# Youngs Moduli (GPa) = 85.20952 96.51903 107.24571
#
# Poissons Ratio (x) = 0.09138 -0.00480
# Poissons Ratio (y) = 0.08067 0.07208
# Poissons Ratio (z) = -0.00382 0.06487
#
# Static dielectric constant tensor:
#      x y z
#    x 1.940780 0.000000 0.027970 
#    y 0.000000 1.946920 0.000000 
#    z 0.027970 0.000000 1.921030 
# 
# From -- ./inp_files/211779.got.cif
#   From: 2010.05.17/outbox.cif.g08.bks.cpg/sg15_106_cif.got.tgz:211779.got - 2010.06.03 18:47:42.
