data_PCOD9300145
_publ_section_title
;
Structure prediction by ZEFSAII (Michael W. Deem and Ramdas Pophale) SiO2 
 PCOD9300145
Probable space group: C 2/C
;
_chemical_formula_sum "Si O2"
_cell_formula_units_Z 40
_cell_length_a 31.501093
_cell_length_b 4.807639
_cell_length_c 10.783332
_cell_angle_alpha 90.000000
_cell_angle_beta 67.683697
_cell_angle_gamma 90.000000
_cell_volume 1510.775498
_symmetry_space_group_name_H-M "C 2/C"
_symmetry_group_IT_number 15
_symmetry_cell_setting 'monoclinic'
loop_
_space_group_symop_operation_xyz
x,y,z
-x,y,1/2-z
-x,-y,-z
x,-y,1/2+z
1/2+x,1/2+y,z
1/2-x,1/2+y,1/2-z
1/2-x,1/2-y,-z
1/2+x,1/2-y,1/2+z
loop_
_atom_site_type_symbol
_atom_site_label
_atom_site_fract_x
_atom_site_fract_y
_atom_site_fract_z
Si Si1 0.655252 0.501744 0.665625
Si Si2 0.001375 0.302242 0.116221
Si Si3 0.359870 0.996163 0.488775
Si Si4 0.078262 0.904268 0.938609
Si Si5 0.221899 0.319834 0.250471
O O1 0.655982 0.802647 0.605409
O O2 0.624113 0.522102 0.823993
O O3 0.701841 0.350249 0.656457
O O4 0.634852 0.301862 0.580590
O O5 0.000000 0.446496 0.250000
O O6 0.953166 0.148607 0.147877
O O7 0.000000 0.500000 0.000000
O O8 0.043736 0.091908 0.056566
O O9 0.404544 0.135254 0.503628
O O10 0.319413 0.024747 0.633337
O O11 0.257437 0.569557 0.188379
#
# Coordination Sequence:
#
# PCOD9300145 Si02
#       5
#     8   8   8   8   8
#     4  11  25  43  72 102 142 193 249 310 379 450
#     4  11  26  46  75 110 150 197 252 316 385 457
#     4  11  25  43  71 103 140 194 248 310 380 448
#     4  10  26  45  69 102 146 190 251 311 379 457
#     4  11  24  43  66 103 147 187 248 309 377 456
#
# _framework density 26.476469000000002
#
# number of rings (size 3 to 8) (size 9 to 14) (size 15 to 20)
#    0.000    1.200    0.000    3.600    8.400   11.200 
#    0.000    0.000    0.000    0.000    0.000    0.000 
#    0.000    0.000    0.000    0.000    0.000    0.000 
#
# Total GULP energy -112051.556787 kJ/mol
# GULP energy per Si atom -5602.577839 kJ/mol
# Density = 2.641621 g / cm^3
# Si number density = 26.476469 Si / 1000 Ang^3
#
#
#
# Elastic Constant Matrix: (Units=GPa)
#
#
# Indices 1 2 3 4 5 6 
#
# 1 134.0617 28.3814 25.0277 0.0000 5.4755 0.0000
# 2 28.3814 78.9633 4.2663 0.0000 -2.2567 0.0000
# 3 25.0277 4.2663 108.8941 0.0000 23.7786 0.0000
# 4 0.0000 0.0000 0.0000 39.8340 0.0000 15.6386
# 5 5.4755 -2.2567 23.7786 0.0000 36.7550 0.0000
# 6 0.0000 0.0000 0.0000 15.6386 0.0000 45.4421
#
#
#
# Elastic Compliance Matrix: (Units=1/GPa)
#
#
# Indices 1 2 3 4 5 6 
#
# 1 0.008422 -0.002941 -0.001755 0.000000 -0.000300 0.000000
# 2 -0.002941 0.013770 -0.000168 0.000000 0.001392 0.000000
# 3 -0.001755 -0.000168 0.011107 0.000000 -0.006935 0.000000
# 4 0.000000 0.000000 0.000000 0.029026 0.000000 -0.009989
# 5 -0.000300 0.001392 -0.006935 0.000000 0.031824 0.000000
# 6 0.000000 0.000000 0.000000 -0.009989 0.000000 0.025444
#
#
# Mechanical properties :
#
#
# Convention : Reuss Voigt Hill
#
# Bulk Modulus (GPa) = 42.42199 48.58553 45.50376
# Shear Modulus (GPa) = 36.44946 42.02246 39.23596
#
# Velocity S-wave (km/s) = 3.71438 3.98824 3.85375
# Velocity P-wave (km/s) = 5.86965 6.29273 6.08487
#
# Compressibility (1/GPa) = 0.02357268
#
# Stress axis : x y z
#
# Youngs Moduli (GPa) = 118.74112 72.62211 90.02959
#
# Poissons Ratio (x) = 0.21356 0.15799
# Poissons Ratio (y) = 0.34918 0.01508
# Poissons Ratio (z) = 0.20838 0.01217
#
# Static dielectric constant tensor:
#      x y z
#    x 2.215080 0.000000 -0.015240 
#    y 0.000000 2.083800 0.000000 
#    z -0.015240 0.000000 2.036870 
# 
# From -- ./inp_files/124932.got.cif
#   From: 2010.05.17/outbox.cif.g08.bks.cpg/sg15_63_cif.got.tgz:124932.got - 2010.06.03 18:47:42.
