data_PCOD9300226
_publ_section_title
;
Structure prediction by ZEFSAII (Michael W. Deem and Ramdas Pophale) SiO2 
 PCOD9300226
Probable space group: C 2/C
;
_chemical_formula_sum "Si O2"
_cell_formula_units_Z 36
_cell_length_a 19.465036
_cell_length_b 8.482055
_cell_length_c 9.436621
_cell_angle_alpha 90.000000
_cell_angle_beta 94.486652
_cell_angle_gamma 90.000000
_cell_volume 1553.244794
_symmetry_space_group_name_H-M "C 2/C"
_symmetry_group_IT_number 15
_symmetry_cell_setting 'monoclinic'
loop_
_space_group_symop_operation_xyz
x,y,z
-x,y,1/2-z
-x,-y,-z
x,-y,1/2+z
1/2+x,1/2+y,z
1/2-x,1/2+y,1/2-z
1/2-x,1/2-y,-z
1/2+x,1/2-y,1/2+z
loop_
_atom_site_type_symbol
_atom_site_label
_atom_site_fract_x
_atom_site_fract_y
_atom_site_fract_z
Si Si1 0.194003 0.174398 0.381900
Si Si2 0.445131 0.506064 0.613446
Si Si3 0.920054 0.350364 0.517530
Si Si4 0.500000 0.930364 0.250000
Si Si5 0.280024 0.128607 0.891008
O O1 0.250000 0.250000 0.500000
O O2 0.195909 0.282195 0.244773
O O3 0.114632 0.127849 0.406807
O O4 0.226843 0.006454 0.346293
O O5 0.500000 0.502216 0.750000
O O6 0.500000 0.500000 0.500000
O O7 0.409649 0.677289 0.583154
O O8 0.959762 0.339477 0.371172
O O9 0.849042 0.438384 0.471996
O O10 0.955286 0.453826 0.644190
O O11 0.250000 0.250000 0.000000
#
# Coordination Sequence:
#
# PCOD9300226 Si02
#       5
#     8   8   8   4   8
#     4  12  30  51  80 116 159 216 271 337 408 497
#     4  12  28  49  81 114 157 204 275 334 406 481
#     4  11  25  47  74 109 153 205 261 325 400 485
#     4  10  26  46  74 114 156 206 252 334 408 482
#     4  12  27  48  75 109 155 204 268 324 401 480
#
# _framework density 23.177285000000001
#
# number of rings (size 3 to 8) (size 9 to 14) (size 15 to 20)
#    0.000    0.444    3.333    2.667   14.000    1.778 
#    0.000    0.000    0.000    0.000    0.000    0.000 
#    0.000    0.000    0.000    0.000    0.000    0.000 
#
# Total GULP energy -100517.189789 kJ/mol
# GULP energy per Si atom -5584.288322 kJ/mol
# Density = 2.312453 g / cm^3
# Si number density = 23.177285 Si / 1000 Ang^3
#
#
#
# Elastic Constant Matrix: (Units=GPa)
#
#
# Indices 1 2 3 4 5 6 
#
# 1 163.6084 32.3783 72.1494 0.0000 7.8185 0.0000
# 2 32.3783 82.8520 29.5639 0.0000 -3.6416 0.0000
# 3 72.1494 29.5639 180.1456 0.0000 12.5816 0.0000
# 4 0.0000 0.0000 0.0000 34.1812 0.0000 0.5621
# 5 7.8185 -3.6416 12.5816 0.0000 34.4235 0.0000
# 6 0.0000 0.0000 0.0000 0.5621 0.0000 51.3065
#
#
#
# Elastic Compliance Matrix: (Units=1/GPa)
#
#
# Indices 1 2 3 4 5 6 
#
# 1 0.007767 -0.002119 -0.002693 0.000000 -0.001004 0.000000
# 2 -0.002119 0.013560 -0.001550 0.000000 0.002482 0.000000
# 3 -0.002693 -0.001550 0.007032 0.000000 -0.002123 0.000000
# 4 0.000000 0.000000 0.000000 0.029261 0.000000 -0.000321
# 5 -0.001004 0.002482 -0.002123 0.000000 0.030316 0.000000
# 6 0.000000 0.000000 0.000000 -0.000321 0.000000 0.019494
#
#
# Mechanical properties :
#
#
# Convention : Reuss Voigt Hill
#
# Bulk Modulus (GPa) = 63.95586 77.19879 70.57732
# Shear Modulus (GPa) = 39.88323 43.48320 41.68321
#
# Velocity S-wave (km/s) = 4.15274 4.33611 4.24542
# Velocity P-wave (km/s) = 7.11672 7.64522 7.38570
#
# Compressibility (1/GPa) = 0.01563578
#
# Stress axis : x y z
#
# Youngs Moduli (GPa) = 128.75090 73.74695 142.20202
#
# Poissons Ratio (x) = 0.15623 0.38294
# Poissons Ratio (y) = 0.27276 0.22044
# Poissons Ratio (z) = 0.34672 0.11432
#
# Static dielectric constant tensor:
#      x y z
#    x 1.771770 0.000000 -0.056280 
#    y 0.000000 1.907400 0.000000 
#    z -0.056280 0.000000 1.759900 
# 
# From -- ./inp_files/53621.got.cif
#   From: 2010.05.17/outbox.cif.g08.bks.cpg/sg15_27_cif.got.tgz:53621.got - 2010.06.03 18:47:42.
