data_PCOD9300595
_publ_section_title
;
Structure prediction by ZEFSAII (Michael W. Deem and Ramdas Pophale) SiO2 
 PCOD9300595
Probable space group: C 2/C
;
_chemical_formula_sum "Si O2"
_cell_formula_units_Z 44
_cell_length_a 11.792917
_cell_length_b 18.285047
_cell_length_c 8.210465
_cell_angle_alpha 90.000000
_cell_angle_beta 98.733954
_cell_angle_gamma 90.000000
_cell_volume 1749.925679
_symmetry_space_group_name_H-M "C 2/C"
_symmetry_group_IT_number 15
_symmetry_cell_setting 'monoclinic'
loop_
_space_group_symop_operation_xyz
x,y,z
-x,y,1/2-z
-x,-y,-z
x,-y,1/2+z
1/2+x,1/2+y,z
1/2-x,1/2+y,1/2-z
1/2-x,1/2-y,-z
1/2+x,1/2-y,1/2+z
loop_
_atom_site_type_symbol
_atom_site_label
_atom_site_fract_x
_atom_site_fract_y
_atom_site_fract_z
Si Si1 0.099316 0.308151 0.629864
Si Si2 0.706768 0.677154 0.085385
Si Si3 0.603781 0.065823 0.888152
Si Si4 0.000000 0.977766 0.250000
Si Si5 0.754590 0.963147 0.132470
Si Si6 0.532412 0.340319 0.067398
O O1 0.216548 0.332468 0.740341
O O2 0.068617 0.361418 0.475537
O O3 0.120578 0.225595 0.567901
O O4 0.000000 0.316726 0.750000
O O5 0.750000 0.750000 0.000000
O O6 0.721736 0.605540 0.977878
O O7 0.570596 0.680694 0.075193
O O8 0.500000 0.041191 0.750000
O O9 0.711017 0.072556 0.789900
O O10 0.653041 0.009544 0.030899
O O11 0.872988 0.008336 0.185871
O O12 0.967093 0.926976 0.402581
O O13 0.500000 0.323721 0.250000
#
# Coordination Sequence:
#
# PCOD9300595 Si02
#       6
#     8   8   8   4   8   8
#     4  11  20  38  67  93 130 178 221 265 332 394
#     4  11  18  36  68  93 119 168 219 265 331 396
#     4  12  27  43  62 100 142 181 223 274 327 411
#     4   8  18  42  70  94 120 166 228 282 326 396
#     4  11  24  43  66  93 132 175 227 281 332 389
#     4   8  16  33  62  93 119 163 210 266 320 389
#
# _framework density 25.143924999999999
#
# number of rings (size 3 to 8) (size 9 to 14) (size 15 to 20)
#    0.545    1.091    3.636    2.727    0.000    2.182 
#    0.000    3.636    0.000    0.000    0.000    0.000 
#    0.000    0.000    0.000    0.000    0.000    0.000 
#
# Total GULP energy -122627.386862 kJ/mol
# GULP energy per Si atom -5573.972130 kJ/mol
# Density = 2.508670 g / cm^3
# Si number density = 25.143925 Si / 1000 Ang^3
#
#
#
# Elastic Constant Matrix: (Units=GPa)
#
#
# Indices 1 2 3 4 5 6 
#
# 1 82.7843 -2.5025 53.1806 0.0000 21.9160 0.0000
# 2 -2.5025 67.7916 21.3026 0.0000 -6.7371 0.0000
# 3 53.1806 21.3026 96.5064 0.0000 21.6533 0.0000
# 4 0.0000 0.0000 0.0000 28.2052 0.0000 24.9248
# 5 21.9160 -6.7371 21.6533 0.0000 53.0867 0.0000
# 6 0.0000 0.0000 0.0000 24.9248 0.0000 -2.0465
#
#
#
# Elastic Compliance Matrix: (Units=1/GPa)
#
#
# Indices 1 2 3 4 5 6 
#
# 1 0.020374 0.004004 -0.011379 0.000000 -0.003262 0.000000
# 2 0.004004 0.017360 -0.006782 0.000000 0.003317 0.000000
# 3 -0.011379 -0.006782 0.019008 0.000000 -0.003916 0.000000
# 4 0.000000 0.000000 0.000000 0.003014 0.000000 0.036710
# 5 -0.003262 0.003317 -0.003916 0.000000 0.022202 0.000000
# 6 0.000000 0.000000 0.000000 0.036710 0.000000 -0.041541
#
#
# Mechanical properties :
#
#
# Convention : Reuss Voigt Hill
#
# Bulk Modulus (GPa) = 35.17848 43.44931 39.31389
# Shear Modulus (GPa) = 63.93160 27.52252 45.72706
#
# Velocity S-wave (km/s) = 5.04792 3.31206 4.26915
# Velocity P-wave (km/s) = 6.92795 5.65191 6.32221
#
# Compressibility (1/GPa) = 0.02842647
#
# Stress axis : x y z
#
# Youngs Moduli (GPa) = 49.08188 57.60443 52.60808
#
# Poissons Ratio (x) = -0.23063 0.59864
# Poissons Ratio (y) = -0.19651 0.35681
# Poissons Ratio (z) = 0.55852 0.39070
#
# Static dielectric constant tensor:
#      x y z
#    x 2.077860 0.000000 0.024840 
#    y 0.000000 2.131000 0.000000 
#    z 0.024840 0.000000 1.948910 
# 
# From -- ./inp_files/31044.got.cif
#   From: 2010.05.17/outbox.cif.g08.bks.cpg/sg15_16_cif.got.tgz:31044.got - 2010.06.03 18:47:42.
