data_PCOD9300343
_publ_section_title
;
Structure prediction by ZEFSAII (Michael W. Deem and Ramdas Pophale) SiO2 
 PCOD9300343
Probable space group: C 2/C
;
_chemical_formula_sum "Si O2"
_cell_formula_units_Z 64
_cell_length_a 19.662725
_cell_length_b 15.151607
_cell_length_c 22.105324
_cell_angle_alpha 90.000000
_cell_angle_beta 155.685164
_cell_angle_gamma 90.000000
_cell_volume 2711.647636
_symmetry_space_group_name_H-M "C 2/C"
_symmetry_group_IT_number 15
_symmetry_cell_setting 'monoclinic'
loop_
_space_group_symop_operation_xyz
x,y,z
-x,y,1/2-z
-x,-y,-z
x,-y,1/2+z
1/2+x,1/2+y,z
1/2-x,1/2+y,1/2-z
1/2-x,1/2-y,-z
1/2+x,1/2-y,1/2+z
loop_
_atom_site_type_symbol
_atom_site_label
_atom_site_fract_x
_atom_site_fract_y
_atom_site_fract_z
Si Si1 0.976910 0.129802 0.583413
Si Si2 0.390031 0.709930 0.321790
Si Si3 0.643593 0.448304 0.013351
Si Si4 0.237924 0.421933 0.099932
Si Si5 0.038084 0.650499 0.710470
Si Si6 0.982749 0.310027 0.961663
Si Si7 0.819445 0.090698 0.099151
Si Si8 0.322519 0.842452 0.578162
O O1 0.110664 0.130501 0.746134
O O2 0.999552 0.217882 0.562507
O O3 0.795894 0.128503 0.464746
O O4 0.965796 0.029885 0.549047
O O5 0.532901 0.637878 0.436054
O O6 0.381700 0.762849 0.252550
O O7 0.210769 0.670822 0.190681
O O8 0.435845 0.783728 0.408798
O O9 0.674346 0.449624 0.964736
O O10 0.827543 0.428565 0.189422
O O11 0.306573 0.519640 0.143412
O O12 0.187443 0.397013 0.991073
O O13 0.082588 0.391564 0.013859
O O14 0.000000 0.656576 0.750000
O O15 0.853417 0.640591 0.534514
O O16 0.000000 0.134281 0.250000
O O17 0.500000 0.836698 0.750000
O O18 0.250000 0.750000 0.500000
#
# Coordination Sequence:
#
# PCOD9300343 Si02
#       8
#     8   8   8   8   8   8   8   8
#     4  12  25  46  70 109 147 194 253 308 378 446
#     4  12  27  53  70 108 144 201 253 303 376 463
#     4  11  25  46  77 104 148 191 242 323 376 434
#     4  12  24  46  69 109 150 198 246 309 373 455
#     4  10  26  49  76 111 147 188 254 316 387 449
#     4  12  28  46  74 100 157 202 249 297 373 468
#     4  11  23  42  76 112 143 183 245 320 378 431
#     4  12  25  38  68 103 147 197 247 307 365 438
#
# _framework density 23.601887999999999
#
# number of rings (size 3 to 8) (size 9 to 14) (size 15 to 20)
#    0.000    0.500    6.250    1.125    5.250    3.000 
#    2.250    1.250    0.000    0.000    0.000    0.000 
#    0.000    0.000    0.000    0.000    0.000    0.000 
#
# Total GULP energy -178758.279307 kJ/mol
# GULP energy per Si atom -5586.196228 kJ/mol
# Density = 2.354817 g / cm^3
# Si number density = 23.601888 Si / 1000 Ang^3
#
#
#
# Elastic Constant Matrix: (Units=GPa)
#
#
# Indices 1 2 3 4 5 6 
#
# 1 75.9180 13.7699 32.7144 -0.0021 19.6656 -0.0004
# 2 13.7699 40.5954 12.6481 -0.0081 10.4297 -0.0023
# 3 32.7144 12.6481 186.6093 -0.0138 26.3613 -0.0025
# 4 -0.0021 -0.0081 -0.0138 30.1036 -0.0053 6.3321
# 5 19.6656 10.4297 26.3613 -0.0053 38.1498 -0.0007
# 6 -0.0004 -0.0023 -0.0025 6.3321 -0.0007 37.7993
#
#
#
# Elastic Compliance Matrix: (Units=1/GPa)
#
#
# Indices 1 2 3 4 5 6 
#
# 1 0.016129 -0.003338 -0.001724 -0.000002 -0.006210 0.000000
# 2 -0.003338 0.027309 -0.000503 0.000006 -0.005397 0.000001
# 3 -0.001724 -0.000503 0.006151 0.000002 -0.003224 0.000000
# 4 -0.000002 0.000006 0.000002 0.034432 0.000003 -0.005768
# 5 -0.006210 -0.005397 -0.003224 0.000003 0.033117 0.000000
# 6 0.000000 0.000001 0.000000 -0.005768 0.000000 0.027422
#
#
# Mechanical properties :
#
#
# Convention : Reuss Voigt Hill
#
# Bulk Modulus (GPa) = 26.00255 46.82081 36.41168
# Shear Modulus (GPa) = 29.67181 37.47655 33.57418
#
# Velocity S-wave (km/s) = 3.54952 3.98912 3.77572
# Velocity P-wave (km/s) = 5.27635 6.41079 5.87104
#
# Compressibility (1/GPa) = 0.03845777
#
# Stress axis : x y z
#
# Youngs Moduli (GPa) = 61.99919 36.61770 162.58745
#
# Poissons Ratio (x) = 0.12224 0.28031
# Poissons Ratio (y) = 0.20697 0.08183
# Poissons Ratio (z) = 0.10689 0.01843
#
# Static dielectric constant tensor:
#      x y z
#    x 1.866260 0.000000 -0.015540 
#    y 0.000000 2.011600 0.000000 
#    z -0.015540 0.000000 1.910410 
# 
# From -- ./inp_files/280510.got.cif
#   From: 2010.05.17/outbox.cif.g08.bks.cpg/sg15_141_cif.got.tgz:280510.got - 2010.06.03 18:47:42.
