data_PCOD9300753
_publ_section_title
;
Structure prediction by ZEFSAII (Michael W. Deem and Ramdas Pophale) SiO2 
 PCOD9300753
Probable space group: C 2/C
;
_chemical_formula_sum "Si O2"
_cell_formula_units_Z 40
_cell_length_a 8.527323
_cell_length_b 18.212070
_cell_length_c 12.175312
_cell_angle_alpha 90.000000
_cell_angle_beta 56.220285
_cell_angle_gamma 90.000000
_cell_volume 1571.621361
_symmetry_space_group_name_H-M "C 2/C"
_symmetry_group_IT_number 15
_symmetry_cell_setting 'monoclinic'
loop_
_space_group_symop_operation_xyz
x,y,z
-x,y,1/2-z
-x,-y,-z
x,-y,1/2+z
1/2+x,1/2+y,z
1/2-x,1/2+y,1/2-z
1/2-x,1/2-y,-z
1/2+x,1/2-y,1/2+z
loop_
_atom_site_type_symbol
_atom_site_label
_atom_site_fract_x
_atom_site_fract_y
_atom_site_fract_z
Si Si1 0.283954 0.875917 0.889755
Si Si2 0.195824 0.335462 0.002564
Si Si3 0.682888 0.278097 0.751378
Si Si4 0.754336 0.642100 0.662370
Si Si5 0.770145 0.540833 0.841619
O O1 0.500000 0.868169 0.750000
O O2 0.152396 0.817938 0.878090
O O3 0.217258 0.958798 0.893492
O O4 0.253635 0.861368 0.031573
O O5 0.235067 0.342350 0.858192
O O6 0.250000 0.250000 0.000000
O O7 0.279553 0.397409 0.048520
O O8 0.974131 0.344880 0.100577
O O9 0.500000 0.257088 0.750000
O O10 0.820030 0.211420 0.735636
O O11 0.698967 0.569401 0.750834
O O12 0.000000 0.538451 0.750000
#
# Coordination Sequence:
#
# PCOD9300753 Si02
#       5
#     8   8   8   8   8
#     4  11  24  38  62  92 122 154 198 254 300 347
#     4  11  19  37  63  88 117 161 201 240 294 357
#     4  12  23  39  63  88 122 161 197 243 300 362
#     4  11  21  39  62  92 119 152 208 249 290 353
#     4   9  21  36  61  93 117 156 200 252 294 348
#
# _framework density 25.451422999999998
#
# number of rings (size 3 to 8) (size 9 to 14) (size 15 to 20)
#    0.000    1.200    6.000    1.200    2.800    2.400 
#    0.000    1.000    0.000    0.000    0.000    0.000 
#    0.000    0.000    0.000    0.000    0.000    0.000 
#
# Total GULP energy -111455.075691 kJ/mol
# GULP energy per Si atom -5572.753785 kJ/mol
# Density = 2.539349 g / cm^3
# Si number density = 25.451423 Si / 1000 Ang^3
#
#
#
# Elastic Constant Matrix: (Units=GPa)
#
#
# Indices 1 2 3 4 5 6 
#
# 1 74.4936 35.6909 55.7242 0.0000 23.4116 0.0000
# 2 35.6909 154.5716 59.8731 0.0000 46.9798 0.0000
# 3 55.7242 59.8731 137.6984 0.0000 49.9333 0.0000
# 4 0.0000 0.0000 0.0000 35.5204 0.0000 18.8391
# 5 23.4116 46.9798 49.9333 0.0000 60.6405 0.0000
# 6 0.0000 0.0000 0.0000 18.8391 0.0000 -4.2607
#
#
#
# Elastic Compliance Matrix: (Units=1/GPa)
#
#
# Indices 1 2 3 4 5 6 
#
# 1 0.019648 -0.001654 -0.007051 0.000000 -0.000498 0.000000
# 2 -0.001654 0.008948 -0.001339 0.000000 -0.005191 0.000000
# 3 -0.007051 -0.001339 0.013309 0.000000 -0.007199 0.000000
# 4 0.000000 0.000000 0.000000 0.008416 0.000000 0.037213
# 5 -0.000498 -0.005191 -0.007199 0.000000 0.026632 0.000000
# 6 0.000000 0.000000 0.000000 0.037213 0.000000 -0.070163
#
#
# Mechanical properties :
#
#
# Convention : Reuss Voigt Hill
#
# Bulk Modulus (GPa) = 45.83925 74.37108 60.10516
# Shear Modulus (GPa) = 146.41583 32.74508 89.58045
#
# Velocity S-wave (km/s) = 7.59292 3.59077 5.93911
# Velocity P-wave (km/s) = 9.74266 6.81731 8.40819
#
# Compressibility (1/GPa) = 0.02181537
#
# Stress axis : x y z
#
# Youngs Moduli (GPa) = 50.89689 111.75991 75.13960
#
# Poissons Ratio (x) = 0.18486 0.52984
# Poissons Ratio (y) = 0.08419 0.10060
# Poissons Ratio (z) = 0.35889 0.14962
#
# Static dielectric constant tensor:
#      x y z
#    x 2.150580 0.000000 -0.281550 
#    y 0.000000 2.039020 0.000000 
#    z -0.281550 0.000000 2.732710 
# 
# From -- ./inp_files/85727.got.cif
#   From: 2010.05.17/outbox.cif.g08.bks.cpg/sg15_43_cif.got.tgz:85727.got - 2010.06.03 18:47:42.
