data_PCOD9300382
_publ_section_title
;
Structure prediction by ZEFSAII (Michael W. Deem and Ramdas Pophale) SiO2 
 PCOD9300382
Probable space group: C 2/C
;
_chemical_formula_sum "Si O2"
_cell_formula_units_Z 36
_cell_length_a 8.371263
_cell_length_b 4.959899
_cell_length_c 32.126633
_cell_angle_alpha 90.000000
_cell_angle_beta 97.326132
_cell_angle_gamma 90.000000
_cell_volume 1323.028100
_symmetry_space_group_name_H-M "C 2/C"
_symmetry_group_IT_number 15
_symmetry_cell_setting 'monoclinic'
loop_
_space_group_symop_operation_xyz
x,y,z
-x,y,1/2-z
-x,-y,-z
x,-y,1/2+z
1/2+x,1/2+y,z
1/2-x,1/2+y,1/2-z
1/2-x,1/2-y,-z
1/2+x,1/2-y,1/2+z
loop_
_atom_site_type_symbol
_atom_site_label
_atom_site_fract_x
_atom_site_fract_y
_atom_site_fract_z
Si Si1 0.082081 0.304745 0.087122
Si Si2 0.102595 0.660261 0.201386
Si Si3 0.000000 0.857032 0.750000
Si Si4 0.130100 0.970449 0.854804
Si Si5 0.273753 0.999257 0.030931
O O1 0.141991 0.048573 0.062497
O O2 0.001670 0.211778 0.127288
O O3 0.243127 0.461708 0.104713
O O4 0.948950 0.469008 0.057368
O O5 0.120922 0.902282 0.235940
O O6 0.266493 0.639396 0.180463
O O7 0.963304 0.772857 0.166358
O O8 0.049208 0.626575 0.717486
O O9 0.250000 0.750000 0.000000
O O10 0.250000 0.250000 0.000000
#
# Coordination Sequence:
#
# PCOD9300382 Si02
#       5
#     8   8   4   8   8
#     4  12  27  50  77 113 153 202 254 316 381 455
#     4  11  26  50  79 114 153 203 256 317 381 456
#     4  10  26  50  80 112 156 200 256 314 384 454
#     4  12  27  50  78 113 154 202 256 316 382 455
#     4  12  27  50  78 113 154 202 256 316 382 455
#
# _framework density 27.210304000000001
#
# number of rings (size 3 to 8) (size 9 to 14) (size 15 to 20)
#    0.000    0.444    0.000    6.667    0.000   12.444 
#    0.000    0.000    0.000    0.000    0.000    0.000 
#    0.000    0.000    0.000    0.000    0.000    0.000 
#
# Total GULP energy -100880.051888 kJ/mol
# GULP energy per Si atom -5604.447327 kJ/mol
# Density = 2.714837 g / cm^3
# Si number density = 27.210304 Si / 1000 Ang^3
#
#
#
# Elastic Constant Matrix: (Units=GPa)
#
#
# Indices 1 2 3 4 5 6 
#
# 1 155.3258 62.9835 40.5437 0.0000 -5.1964 0.0000
# 2 62.9835 176.5311 61.7663 0.0000 8.5230 0.0000
# 3 40.5437 61.7663 118.9824 0.0000 -8.5622 0.0000
# 4 0.0000 0.0000 0.0000 20.2425 0.0000 17.2116
# 5 -5.1964 8.5230 -8.5622 0.0000 39.1630 0.0000
# 6 0.0000 0.0000 0.0000 17.2116 0.0000 14.7776
#
#
#
# Elastic Compliance Matrix: (Units=1/GPa)
#
#
# Indices 1 2 3 4 5 6 
#
# 1 0.007791 -0.002375 -0.001331 0.000000 0.001259 0.000000
# 2 -0.002375 0.007861 -0.003472 0.000000 -0.002785 0.000000
# 3 -0.001331 -0.003472 0.010874 0.000000 0.002956 0.000000
# 4 0.000000 0.000000 0.000000 5.100362 0.000000 -5.940434
# 5 0.001259 -0.002785 0.002956 0.000000 0.026954 0.000000
# 6 0.000000 0.000000 0.000000 -5.940434 0.000000 6.986542
#
#
# Mechanical properties :
#
#
# Convention : Reuss Voigt Hill
#
# Bulk Modulus (GPa) = 82.17532 86.82514 84.50023
# Shear Modulus (GPa) = 0.41122 33.87301 17.14212
#
# Velocity S-wave (km/s) = 0.38917 3.53208 2.51268
# Velocity P-wave (km/s) = 5.51974 6.97226 6.28808
#
# Compressibility (1/GPa) = 0.01216910
#
# Stress axis : x y z
#
# Youngs Moduli (GPa) = 128.36000 127.20571 91.96639
#
# Poissons Ratio (x) = 0.30205 0.12244
# Poissons Ratio (y) = 0.30479 0.31933
# Poissons Ratio (z) = 0.17090 0.44169
#
# Static dielectric constant tensor:
#      x y z
#    x 2.399640 0.000000 0.479540 
#    y 0.000000 2.030170 0.000000 
#    z 0.479540 0.000000 2.766110 
# 
# From -- ./inp_files/309349.got.cif
#   From: 2010.05.17/outbox.cif.g08.bks.cpg/sg15_155_cif.got.tgz:309349.got - 2010.06.03 18:47:42.
