data_PCOD9300116
_publ_section_title
;
Structure prediction by ZEFSAII (Michael W. Deem and Ramdas Pophale) SiO2 
 PCOD9300116
Probable space group: C 2/C
;
_chemical_formula_sum "Si O2"
_cell_formula_units_Z 44
_cell_length_a 11.299485
_cell_length_b 9.271517
_cell_length_c 18.690630
_cell_angle_alpha 90.000000
_cell_angle_beta 110.670916
_cell_angle_gamma 90.000000
_cell_volume 1832.037823
_symmetry_space_group_name_H-M "C 2/C"
_symmetry_group_IT_number 15
_symmetry_cell_setting 'monoclinic'
loop_
_space_group_symop_operation_xyz
x,y,z
-x,y,1/2-z
-x,-y,-z
x,-y,1/2+z
1/2+x,1/2+y,z
1/2-x,1/2+y,1/2-z
1/2-x,1/2-y,-z
1/2+x,1/2-y,1/2+z
loop_
_atom_site_type_symbol
_atom_site_label
_atom_site_fract_x
_atom_site_fract_y
_atom_site_fract_z
Si Si1 0.885682 0.388382 0.328961
Si Si2 0.338301 0.163595 0.593754
Si Si3 0.387376 0.451037 0.526850
Si Si4 0.296060 0.702053 0.589438
Si Si5 0.282958 0.208143 0.296971
Si Si6 0.500000 0.253594 0.250000
O O1 0.829679 0.343826 0.393987
O O2 0.842248 0.256206 0.270544
O O3 0.823709 0.542877 0.297050
O O4 0.034155 0.404469 0.350223
O O5 0.391553 0.284733 0.551064
O O6 0.248308 0.044174 0.541171
O O7 0.247687 0.248437 0.629065
O O8 0.500000 0.500000 0.500000
O O9 0.376338 0.556242 0.591591
O O10 0.250000 0.750000 0.500000
O O11 0.389087 0.789752 0.664481
O O12 0.394277 0.303177 0.284730
#
# Coordination Sequence:
#
# PCOD9300116 Si02
#       6
#     8   8   8   8   8   4
#     4  11  26  46  74 110 153 207 258 326 391 473
#     4  11  25  45  73 107 147 199 259 317 391 469
#     4  11  24  45  72 109 150 198 254 324 388 471
#     4  11  24  45  72 111 151 203 259 322 394 477
#     4  11  25  47  72 109 153 202 257 324 390 468
#     4  10  26  44  72 110 148 202 256 320 396 470
#
# _framework density 24.016971999999999
#
# number of rings (size 3 to 8) (size 9 to 14) (size 15 to 20)
#    0.000    1.091    1.818    2.727    5.091    8.000 
#    0.000    0.000    0.000    0.000    0.000    0.000 
#    0.000    0.000    0.000    0.000    0.000    0.000 
#
# Total GULP energy -122477.293770 kJ/mol
# GULP energy per Si atom -5567.149717 kJ/mol
# Density = 2.396231 g / cm^3
# Si number density = 24.016972 Si / 1000 Ang^3
#
#
#
# Elastic Constant Matrix: (Units=GPa)
#
#
# Indices 1 2 3 4 5 6 
#
# 1 152.6015 44.8106 37.2395 0.0000 4.4426 0.0000
# 2 44.8106 93.7318 51.7000 0.0000 17.6372 0.0000
# 3 37.2395 51.7000 118.6865 0.0000 10.8215 0.0000
# 4 0.0000 0.0000 0.0000 27.6801 0.0000 7.8831
# 5 4.4426 17.6372 10.8215 0.0000 51.3364 0.0000
# 6 0.0000 0.0000 0.0000 7.8831 0.0000 26.7007
#
#
#
# Elastic Compliance Matrix: (Units=1/GPa)
#
#
# Indices 1 2 3 4 5 6 
#
# 1 0.007747 -0.003231 -0.001084 0.000000 0.000668 0.000000
# 2 -0.003231 0.016077 -0.005619 0.000000 -0.004059 0.000000
# 3 -0.001084 -0.005619 0.011245 0.000000 -0.000346 0.000000
# 4 0.000000 0.000000 0.000000 0.039444 0.000000 -0.011645
# 5 0.000668 -0.004059 -0.000346 0.000000 0.020889 0.000000
# 6 0.000000 0.000000 0.000000 -0.011645 0.000000 0.040890
#
#
# Mechanical properties :
#
#
# Convention : Reuss Voigt Hill
#
# Bulk Modulus (GPa) = 65.79121 70.28000 68.03561
# Shear Modulus (GPa) = 31.01216 36.56142 33.78679
#
# Velocity S-wave (km/s) = 3.59731 3.90592 3.75479
# Velocity P-wave (km/s) = 6.68635 7.04754 6.86932
#
# Compressibility (1/GPa) = 0.01519960
#
# Stress axis : x y z
#
# Youngs Moduli (GPa) = 129.08222 62.20174 88.92929
#
# Poissons Ratio (x) = 0.20100 0.09640
# Poissons Ratio (y) = 0.41712 0.49969
# Poissons Ratio (z) = 0.13993 0.34951
#
# Static dielectric constant tensor:
#      x y z
#    x 1.916190 0.000000 0.043700 
#    y 0.000000 2.013520 0.000000 
#    z 0.043700 0.000000 2.048030 
# 
# From -- ./inp_files/236217.got.cif
#   From: 2010.05.17/outbox.cif.g08.bks.cpg/sg15_119_cif.got.tgz:236217.got - 2010.06.03 18:47:42.
