data_PCOD9300884
_publ_section_title
;
Structure prediction by ZEFSAII (Michael W. Deem and Ramdas Pophale) SiO2 
 PCOD9300884
Probable space group: C 2/C
;
_chemical_formula_sum "Si O2"
_cell_formula_units_Z 52
_cell_length_a 25.131314
_cell_length_b 20.586476
_cell_length_c 5.573802
_cell_angle_alpha 90.000000
_cell_angle_beta 57.386388
_cell_angle_gamma 90.000000
_cell_volume 2429.003342
_symmetry_space_group_name_H-M "C 2/C"
_symmetry_group_IT_number 15
_symmetry_cell_setting 'monoclinic'
loop_
_space_group_symop_operation_xyz
x,y,z
-x,y,1/2-z
-x,-y,-z
x,-y,1/2+z
1/2+x,1/2+y,z
1/2-x,1/2+y,1/2-z
1/2-x,1/2-y,-z
1/2+x,1/2-y,1/2+z
loop_
_atom_site_type_symbol
_atom_site_label
_atom_site_fract_x
_atom_site_fract_y
_atom_site_fract_z
Si Si1 0.500000 0.961608 0.750000
Si Si2 0.380748 0.460408 0.216014
Si Si3 0.455418 0.859819 0.566174
Si Si4 0.165155 0.709696 0.314604
Si Si5 0.106686 0.817347 0.782440
Si Si6 0.000000 0.103673 0.250000
Si Si7 0.500000 0.745975 0.750000
Si Si8 0.697983 0.661262 0.438869
O O1 0.446470 0.908023 0.814789
O O2 0.500000 0.000000 0.500000
O O3 0.370925 0.500611 0.488311
O O4 0.334325 0.397104 0.332087
O O5 0.454618 0.438144 0.033361
O O6 0.387418 0.839186 0.647251
O O7 0.493593 0.794973 0.546309
O O8 0.500000 0.888118 0.250000
O O9 0.133909 0.752381 0.599962
O O10 0.226753 0.668773 0.238877
O O11 0.180011 0.766780 0.084595
O O12 0.167345 0.850744 0.751435
O O13 0.054624 0.854216 0.749064
O O14 0.061737 0.797116 0.111200
#
# Coordination Sequence:
#
# PCOD9300884 Si02
#       8
#     4   8   8   8   8   4   4   8
#     4  11  24  44  69  99 138 182 227 294 364 425
#     4  12  27  49  72 103 146 198 253 304 356 433
#     4  11  21  39  67 102 137 175 231 297 362 444
#     4  11  23  43  68 104 137 188 237 296 390 438
#     4  12  21  39  64 107 144 185 232 303 371 461
#     4  12  24  42  72 105 141 196 248 302 378 432
#     4  11  20  30  59 100 141 174 219 290 378 433
#     4  11  25  44  67  97 143 190 243 303 362 447
#
# _framework density 21.407959000000002
#
# number of rings (size 3 to 8) (size 9 to 14) (size 15 to 20)
#    0.000    0.615    5.385    3.692    0.000    1.231 
#    0.000    1.538    0.000    0.000    0.000    0.000 
#    0.000    0.000    0.000    0.000    0.000    0.000 
#
# Total GULP energy -144784.581457 kJ/mol
# GULP energy per Si atom -5568.637748 kJ/mol
# Density = 2.135923 g / cm^3
# Si number density = 21.407959 Si / 1000 Ang^3
#
#
#
# Elastic Constant Matrix: (Units=GPa)
#
#
# Indices 1 2 3 4 5 6 
#
# 1 186.0832 73.6350 67.5452 0.0000 -13.2558 0.0000
# 2 73.6350 90.5430 41.3040 0.0000 7.9825 0.0000
# 3 67.5452 41.3040 70.4972 0.0000 8.0643 0.0000
# 4 0.0000 0.0000 0.0000 46.9799 0.0000 11.0891
# 5 -13.2558 7.9825 8.0643 0.0000 37.7051 0.0000
# 6 0.0000 0.0000 0.0000 11.0891 0.0000 49.2768
#
#
#
# Elastic Compliance Matrix: (Units=1/GPa)
#
#
# Indices 1 2 3 4 5 6 
#
# 1 0.011128 -0.006051 -0.007904 0.000000 0.006884 0.000000
# 2 -0.006051 0.018429 -0.004418 0.000000 -0.005084 0.000000
# 3 -0.007904 -0.004418 0.025174 0.000000 -0.007227 0.000000
# 4 0.000000 0.000000 0.000000 0.022480 0.000000 -0.005059
# 5 0.006884 -0.005084 -0.007227 0.000000 0.031564 0.000000
# 6 0.000000 0.000000 0.000000 -0.005059 0.000000 0.021432
#
#
# Mechanical properties :
#
#
# Convention : Reuss Voigt Hill
#
# Bulk Modulus (GPa) = 55.60595 79.12129 67.36362
# Shear Modulus (GPa) = 28.91046 37.76830 33.33938
#
# Velocity S-wave (km/s) = 3.67884 4.20482 3.95059
# Velocity P-wave (km/s) = 6.63897 7.78544 7.23495
#
# Compressibility (1/GPa) = 0.01798369
#
# Stress axis : x y z
#
# Youngs Moduli (GPa) = 89.86516 54.26119 39.72430
#
# Poissons Ratio (x) = 0.32834 0.31398
# Poissons Ratio (y) = 0.54378 0.17552
# Poissons Ratio (z) = 0.71029 0.23975
#
# Static dielectric constant tensor:
#      x y z
#    x 1.788450 0.000000 0.087310 
#    y 0.000000 1.872640 0.000000 
#    z 0.087310 0.000000 1.875750 
# 
# From -- ./inp_files/15811.got.cif
#   From: 2010.05.17/outbox.cif.g08.bks.cpg/sg15_8_cif.got.tgz:15811.got - 2010.06.03 18:47:42.
