data_PCOD9300194
_publ_section_title
;
Structure prediction by ZEFSAII (Michael W. Deem and Ramdas Pophale) SiO2 
 PCOD9300194
Probable space group: C 2/C
;
_chemical_formula_sum "Si O2"
_cell_formula_units_Z 52
_cell_length_a 11.418425
_cell_length_b 15.048362
_cell_length_c 19.094673
_cell_angle_alpha 90.000000
_cell_angle_beta 133.801208
_cell_angle_gamma 90.000000
_cell_volume 2368.055218
_symmetry_space_group_name_H-M "C 2/C"
_symmetry_group_IT_number 15
_symmetry_cell_setting 'monoclinic'
loop_
_space_group_symop_operation_xyz
x,y,z
-x,y,1/2-z
-x,-y,-z
x,-y,1/2+z
1/2+x,1/2+y,z
1/2-x,1/2+y,1/2-z
1/2-x,1/2-y,-z
1/2+x,1/2-y,1/2+z
loop_
_atom_site_type_symbol
_atom_site_label
_atom_site_fract_x
_atom_site_fract_y
_atom_site_fract_z
Si Si1 0.752979 0.441267 0.284048
Si Si2 0.108036 0.079380 0.575705
Si Si3 0.677927 0.346935 0.965474
Si Si4 0.366929 0.356858 0.754792
Si Si5 0.026376 0.399709 0.490647
Si Si6 0.027660 0.260357 0.610371
Si Si7 0.500000 0.693981 0.750000
O O1 0.717779 0.442397 0.187390
O O2 0.708643 0.543920 0.283948
O O3 0.924110 0.398248 0.376572
O O4 0.634715 0.374548 0.277106
O O5 0.212984 0.108391 0.553457
O O6 0.009822 0.165550 0.564098
O O7 0.000000 0.000000 0.500000
O O8 0.486128 0.352772 0.871665
O O9 0.750000 0.250000 0.000000
O O10 0.785584 0.387877 0.948994
O O11 0.500000 0.336406 0.750000
O O12 0.218628 0.287666 0.697256
O O13 0.000000 0.500000 0.500000
O O14 0.969294 0.334182 0.529438
O O15 0.960931 0.251172 0.662789
#
# Coordination Sequence:
#
# PCOD9300194 Si02
#       7
#     8   8   8   8   8   8   4
#     4  11  24  44  73 100 145 197 245 297 367 447
#     4  11  24  44  70 104 142 191 248 299 366 437
#     4  12  25  44  72 107 144 192 243 308 370 431
#     4  12  21  44  75 103 143 192 245 300 374 436
#     4  12  25  45  70 108 145 189 246 301 370 437
#     4  11  25  46  73 111 147 194 248 302 367 444
#     4  10  26  46  70 102 146 200 244 298 370 440
#
# _framework density 21.958947999999999
#
# number of rings (size 3 to 8) (size 9 to 14) (size 15 to 20)
#    0.000    0.615    6.923    0.000    4.308    1.231 
#    2.769    1.538    0.000    0.000    0.000    0.000 
#    0.000    0.000    0.000    0.000    0.000    0.000 
#
# Total GULP energy -144948.727467 kJ/mol
# GULP energy per Si atom -5574.951056 kJ/mol
# Density = 2.190897 g / cm^3
# Si number density = 21.958948 Si / 1000 Ang^3
#
#
#
# Elastic Constant Matrix: (Units=GPa)
#
#
# Indices 1 2 3 4 5 6 
#
# 1 69.9317 32.7956 46.9836 0.0000 -18.0095 0.0000
# 2 32.7956 134.5747 65.5508 0.0000 -17.0061 0.0000
# 3 46.9836 65.5508 170.5151 0.0000 -14.7921 0.0000
# 4 0.0000 0.0000 0.0000 48.2266 0.0000 -5.8861
# 5 -18.0095 -17.0061 -14.7921 0.0000 54.9230 0.0000
# 6 0.0000 0.0000 0.0000 -5.8861 0.0000 25.6225
#
#
#
# Elastic Compliance Matrix: (Units=1/GPa)
#
#
# Indices 1 2 3 4 5 6 
#
# 1 0.019206 -0.002117 -0.004084 0.000000 0.004542 0.000000
# 2 -0.002117 0.009580 -0.002972 0.000000 0.001472 0.000000
# 3 -0.004084 -0.002972 0.008126 0.000000 -0.000071 0.000000
# 4 0.000000 0.000000 0.000000 0.021334 0.000000 0.004901
# 5 0.004542 0.001472 -0.000071 0.000000 0.020133 0.000000
# 6 0.000000 0.000000 0.000000 0.004901 0.000000 0.040154
#
#
# Mechanical properties :
#
#
# Convention : Reuss Voigt Hill
#
# Bulk Modulus (GPa) = 53.86060 73.96462 63.91261
# Shear Modulus (GPa) = 34.94813 41.06719 38.00766
#
# Velocity S-wave (km/s) = 3.99372 4.32925 4.16486
# Velocity P-wave (km/s) = 6.77108 7.66460 7.23165
#
# Compressibility (1/GPa) = 0.01856645
#
# Stress axis : x y z
#
# Youngs Moduli (GPa) = 52.06643 104.38018 123.05764
#
# Poissons Ratio (x) = 0.22099 0.50258
# Poissons Ratio (y) = 0.11023 0.36572
# Poissons Ratio (z) = 0.21265 0.31021
#
# Static dielectric constant tensor:
#      x y z
#    x 1.782500 0.000000 0.006620 
#    y 0.000000 1.748980 0.000000 
#    z 0.006620 0.000000 2.025450 
# 
# From -- ./inp_files/198035.got.cif
#   From: 2010.05.17/outbox.cif.g08.bks.cpg/sg15_100_cif.got.tgz:198035.got - 2010.06.03 18:47:42.
