data_PCOD9300886
_publ_section_title
;
Structure prediction by ZEFSAII (Michael W. Deem and Ramdas Pophale) SiO2 
 PCOD9300886
Probable space group: C 2/C
;
_chemical_formula_sum "Si O2"
_cell_formula_units_Z 36
_cell_length_a 24.998578
_cell_length_b 7.270011
_cell_length_c 25.955078
_cell_angle_alpha 90.000000
_cell_angle_beta 163.349528
_cell_angle_gamma 90.000000
_cell_volume 1351.594817
_symmetry_space_group_name_H-M "C 2/C"
_symmetry_group_IT_number 15
_symmetry_cell_setting 'monoclinic'
loop_
_space_group_symop_operation_xyz
x,y,z
-x,y,1/2-z
-x,-y,-z
x,-y,1/2+z
1/2+x,1/2+y,z
1/2-x,1/2+y,1/2-z
1/2-x,1/2-y,-z
1/2+x,1/2-y,1/2+z
loop_
_atom_site_type_symbol
_atom_site_label
_atom_site_fract_x
_atom_site_fract_y
_atom_site_fract_z
Si Si1 0.500000 0.560321 0.250000
Si Si2 0.749423 0.412241 0.574756
Si Si3 0.855183 0.516850 0.527981
Si Si4 0.506246 0.551734 0.944839
Si Si5 0.408049 0.974989 0.469868
O O1 0.619054 0.463102 0.405894
O O2 0.683058 0.640404 0.389078
O O3 0.738249 0.187386 0.566885
O O4 0.665131 0.496842 0.550059
O O5 0.964124 0.475649 0.770883
O O6 0.938259 0.584374 0.550162
O O7 0.309083 0.496896 0.740372
O O8 0.500000 0.500000 0.000000
O O9 0.518625 0.771035 0.952018
O O10 0.500000 0.000000 0.500000
#
# Coordination Sequence:
#
# PCOD9300886 Si02
#       5
#     4   8   8   8   8
#     4  12  20  32  46  74 114 140 194 218 292 336
#     4  11  20  31  48  76 109 147 183 230 283 337
#     4  11  20  31  48  76 109 147 183 230 283 337
#     4  11  21  38  57  84 119 151 191 239 287 342
#     4  11  21  38  57  84 119 151 191 239 287 342
#
# _framework density 26.635200000000001
#
# number of rings (size 3 to 8) (size 9 to 14) (size 15 to 20)
#    0.000    0.889    4.444    8.000    0.000    0.000 
#    0.000    0.000    0.000    0.000    0.000    1.556 
#    0.000    0.000    0.000    0.000    0.000    0.000 
#
# Total GULP energy -100441.381653 kJ/mol
# GULP energy per Si atom -5580.076758 kJ/mol
# Density = 2.657458 g / cm^3
# Si number density = 26.635200 Si / 1000 Ang^3
#
#
#
# Elastic Constant Matrix: (Units=GPa)
#
#
# Indices 1 2 3 4 5 6 
#
# 1 232.4605 7.9946 61.5815 -0.0180 11.9724 -0.0066
# 2 7.9946 71.1939 3.8469 0.0725 2.0984 0.0132
# 3 61.5815 3.8469 203.4573 0.1650 20.0892 0.0427
# 4 -0.0180 0.0725 0.1650 19.9724 0.0546 -18.7458
# 5 11.9724 2.0984 20.0892 0.0546 61.1988 0.0011
# 6 -0.0066 0.0132 0.0427 -18.7458 0.0011 24.4765
#
#
#
# Elastic Compliance Matrix: (Units=1/GPa)
#
#
# Indices 1 2 3 4 5 6 
#
# 1 0.004703 -0.000441 -0.001370 0.000079 -0.000455 0.000064
# 2 -0.000441 0.014112 -0.000097 -0.000202 -0.000366 -0.000162
# 3 -0.001370 -0.000097 0.005483 -0.000182 -0.001528 -0.000149
# 4 0.000079 -0.000202 -0.000182 0.178089 -0.000110 0.136394
# 5 -0.000455 -0.000366 -0.001528 -0.000110 0.016944 -0.000082
# 6 0.000064 -0.000162 -0.000149 0.136394 -0.000082 0.145316
#
#
# Mechanical properties :
#
#
# Convention : Reuss Voigt Hill
#
# Bulk Modulus (GPa) = 48.82465 72.66198 60.74331
# Shear Modulus (GPa) = 13.32300 50.04212 31.68256
#
# Velocity S-wave (km/s) = 2.23895 4.33921 3.45265
# Velocity P-wave (km/s) = 5.00545 7.24187 6.22492
#
# Compressibility (1/GPa) = 0.02048146
#
# Stress axis : x y z
#
# Youngs Moduli (GPa) = 212.60949 70.86216 182.39082
#
# Poissons Ratio (x) = 0.03124 0.24995
# Poissons Ratio (y) = 0.09372 0.01771
# Poissons Ratio (z) = 0.29136 0.00688
#
# Static dielectric constant tensor:
#      x y z
#    x 2.635600 -0.000030 0.042150 
#    y -0.000030 2.156140 -0.000010 
#    z 0.042150 -0.000010 1.992550 
# 
# From -- ./inp_files/64816.got.cif
#   From: 2010.05.17/outbox.cif.g08.bks.cpg/sg15_33_cif.got.tgz:64816.got - 2010.06.03 18:47:42.
