data_PCOD9300120
_publ_section_title
;
Structure prediction by ZEFSAII (Michael W. Deem and Ramdas Pophale) SiO2 
 PCOD9300120
Probable space group: C 2/C
;
_chemical_formula_sum "Si O2"
_cell_formula_units_Z 36
_cell_length_a 21.299948
_cell_length_b 7.446176
_cell_length_c 9.394958
_cell_angle_alpha 90.000000
_cell_angle_beta 64.238529
_cell_angle_gamma 90.000000
_cell_volume 1341.973832
_symmetry_space_group_name_H-M "C 2/C"
_symmetry_group_IT_number 15
_symmetry_cell_setting 'monoclinic'
loop_
_space_group_symop_operation_xyz
x,y,z
-x,y,1/2-z
-x,-y,-z
x,-y,1/2+z
1/2+x,1/2+y,z
1/2-x,1/2+y,1/2-z
1/2-x,1/2-y,-z
1/2+x,1/2-y,1/2+z
loop_
_atom_site_type_symbol
_atom_site_label
_atom_site_fract_x
_atom_site_fract_y
_atom_site_fract_z
Si Si1 0.075425 0.575948 0.966805
Si Si2 0.794725 0.335146 0.739621
Si Si3 0.500000 0.730226 0.750000
Si Si4 0.790124 0.975977 0.924425
Si Si5 0.564312 0.611091 0.268212
O O1 0.063373 0.645418 0.138538
O O2 0.135800 0.438365 0.876015
O O3 0.087768 0.760854 0.870353
O O4 0.000000 0.500000 0.000000
O O5 0.804059 0.141578 0.800700
O O6 0.748700 0.335776 0.640868
O O7 0.755656 0.445893 0.903078
O O8 0.468519 0.586269 0.668349
O O9 0.867212 0.915355 0.894942
O O10 0.500000 0.703752 0.250000
#
# Coordination Sequence:
#
# PCOD9300120 Si02
#       5
#     8   8   4   8   8
#     4  12  27  46  73 111 145 194 248 304 364 442
#     4  11  28  46  80 106 153 189 251 305 377 437
#     4  10  26  44  74 102 146 190 244 300 370 426
#     4  11  26  50  73 113 147 197 243 310 369 450
#     4  10  26  46  78 102 149 191 243 300 369 438
#
# _framework density 26.826153999999999
#
# number of rings (size 3 to 8) (size 9 to 14) (size 15 to 20)
#    0.667    0.444    0.000    3.333   14.000    5.333 
#    0.000    0.000    0.000    0.000    0.000    0.000 
#    0.000    0.000    0.000    0.000    0.000    0.000 
#
# Total GULP energy -100881.154777 kJ/mol
# GULP energy per Si atom -5604.508599 kJ/mol
# Density = 2.676510 g / cm^3
# Si number density = 26.826154 Si / 1000 Ang^3
#
#
#
# Elastic Constant Matrix: (Units=GPa)
#
#
# Indices 1 2 3 4 5 6 
#
# 1 121.0685 17.1550 41.7351 0.0000 -22.8399 0.0000
# 2 17.1550 110.5011 39.1909 0.0000 -7.3774 0.0000
# 3 41.7351 39.1909 127.6040 0.0000 -19.4088 0.0000
# 4 0.0000 0.0000 0.0000 44.2519 0.0000 6.7813
# 5 -22.8399 -7.3774 -19.4088 0.0000 55.7360 0.0000
# 6 0.0000 0.0000 0.0000 6.7813 0.0000 37.0260
#
#
#
# Elastic Compliance Matrix: (Units=1/GPa)
#
#
# Indices 1 2 3 4 5 6 
#
# 1 0.009793 -0.000387 -0.002620 0.000000 0.003049 0.000000
# 2 -0.000387 0.010175 -0.002975 0.000000 0.000152 0.000000
# 3 -0.002620 -0.002975 0.009909 0.000000 0.001983 0.000000
# 4 0.000000 0.000000 0.000000 0.023250 0.000000 -0.004258
# 5 0.003049 0.000152 0.001983 0.000000 0.019902 0.000000
# 6 0.000000 0.000000 0.000000 -0.004258 0.000000 0.027788
#
#
# Mechanical properties :
#
#
# Convention : Reuss Voigt Hill
#
# Bulk Modulus (GPa) = 55.82951 61.70396 58.76673
# Shear Modulus (GPa) = 42.10366 44.80893 43.45630
#
# Velocity S-wave (km/s) = 3.96599 4.09142 4.02919
# Velocity P-wave (km/s) = 6.46752 6.73580 6.60302
#
# Compressibility (1/GPa) = 0.01791168
#
# Stress axis : x y z
#
# Youngs Moduli (GPa) = 102.11141 98.27808 100.91677
#
# Poissons Ratio (x) = 0.03808 0.26442
# Poissons Ratio (y) = 0.03957 0.30025
# Poissons Ratio (z) = 0.26755 0.29240
#
# Static dielectric constant tensor:
#      x y z
#    x 2.110410 0.000000 0.057870 
#    y 0.000000 2.098160 0.000000 
#    z 0.057870 0.000000 2.133060 
# 
# From -- ./inp_files/116139.got.cif
#   From: 2010.05.17/outbox.cif.g08.bks.cpg/sg15_59_cif.got.tgz:116139.got - 2010.06.03 18:47:42.
