data_PCOD9300951
_publ_section_title
;
Structure prediction by ZEFSAII (Michael W. Deem and Ramdas Pophale) SiO2 
 PCOD9300951
Probable space group: C 2/C
;
_chemical_formula_sum "Si O2"
_cell_formula_units_Z 56
_cell_length_a 11.820852
_cell_length_b 30.044004
_cell_length_c 8.706022
_cell_angle_alpha 90.000000
_cell_angle_beta 62.864500
_cell_angle_gamma 90.000000
_cell_volume 2751.581526
_symmetry_space_group_name_H-M "C 2/C"
_symmetry_group_IT_number 15
_symmetry_cell_setting 'monoclinic'
loop_
_space_group_symop_operation_xyz
x,y,z
-x,y,1/2-z
-x,-y,-z
x,-y,1/2+z
1/2+x,1/2+y,z
1/2-x,1/2+y,1/2-z
1/2-x,1/2-y,-z
1/2+x,1/2-y,1/2+z
loop_
_atom_site_type_symbol
_atom_site_label
_atom_site_fract_x
_atom_site_fract_y
_atom_site_fract_z
Si Si1 0.793305 0.407268 0.683711
Si Si2 0.789243 0.676029 0.606769
Si Si3 0.101630 0.496418 0.805899
Si Si4 0.351972 0.098149 0.802905
Si Si5 0.070684 0.151179 0.369356
Si Si6 0.351665 0.745099 0.297319
Si Si7 0.500000 0.856154 0.750000
Si Si8 0.000000 0.169291 0.750000
O O1 0.797086 0.459827 0.710978
O O2 0.784657 0.396085 0.508772
O O3 0.673206 0.386456 0.839820
O O4 0.920463 0.385563 0.676779
O O5 0.802760 0.630182 0.698661
O O6 0.823044 0.716245 0.696655
O O7 0.893777 0.671686 0.407705
O O8 0.645588 0.685674 0.641285
O O9 0.152165 0.545421 0.734790
O O10 0.000000 0.477279 0.750000
O O11 0.000000 0.500000 0.000000
O O12 0.500000 0.108131 0.750000
O O13 0.147936 0.196609 0.281974
O O14 0.986799 0.153238 0.576537
O O15 0.000000 0.142106 0.250000
O O16 0.500000 0.750637 0.250000
O O17 0.250000 0.750000 0.500000
#
# Coordination Sequence:
#
# PCOD9300951 Si02
#       8
#     8   8   8   8   8   8   4   4
#     4  12  22  41  65  97 137 173 223 284 345 408
#     4  12  25  43  68 100 137 177 229 282 350 406
#     4  11  20  34  58  98 136 168 214 276 350 407
#     4  11  21  36  63  95 133 179 217 277 347 416
#     4  11  26  48  70  96 137 188 238 278 350 421
#     4  11  25  45  71 102 137 183 232 292 344 416
#     4  12  24  37  66 108 132 166 228 294 335 410
#     4  12  26  47  68  96 138 198 220 288 343 424
#
# _framework density 20.351932000000001
#
# number of rings (size 3 to 8) (size 9 to 14) (size 15 to 20)
#    0.000    0.571    6.429    3.857    2.000    1.143 
#    0.000    0.000    1.571    1.714    0.000    0.000 
#    0.000    0.000    0.000    0.000    0.000    0.000 
#
# Total GULP energy -155950.967864 kJ/mol
# GULP energy per Si atom -5569.677424 kJ/mol
# Density = 2.030561 g / cm^3
# Si number density = 20.351932 Si / 1000 Ang^3
#
#
#
# Elastic Constant Matrix: (Units=GPa)
#
#
# Indices 1 2 3 4 5 6 
#
# 1 84.7269 40.1669 37.2021 0.0000 -3.9761 0.0000
# 2 40.1669 85.3095 16.3911 0.0000 -16.5913 0.0000
# 3 37.2021 16.3911 146.1738 0.0000 -8.3811 0.0000
# 4 0.0000 0.0000 0.0000 62.0199 0.0000 15.5434
# 5 -3.9761 -16.5913 -8.3811 0.0000 33.8318 0.0000
# 6 0.0000 0.0000 0.0000 15.5434 0.0000 29.6603
#
#
#
# Elastic Compliance Matrix: (Units=1/GPa)
#
#
# Indices 1 2 3 4 5 6 
#
# 1 0.016965 -0.007829 -0.003597 0.000000 -0.002737 0.000000
# 2 -0.007829 0.016749 0.000540 0.000000 0.007427 0.000000
# 3 -0.003597 0.000540 0.007798 0.000000 0.001774 0.000000
# 4 0.000000 0.000000 0.000000 0.018562 0.000000 -0.009727
# 5 -0.002737 0.007427 0.001774 0.000000 0.033318 0.000000
# 6 0.000000 0.000000 0.000000 -0.009727 0.000000 0.038813
#
#
# Mechanical properties :
#
#
# Convention : Reuss Voigt Hill
#
# Bulk Modulus (GPa) = 50.65647 55.97007 53.31327
# Shear Modulus (GPa) = 31.14198 39.93241 35.53719
#
# Velocity S-wave (km/s) = 3.91599 4.43436 4.18321
# Velocity P-wave (km/s) = 6.73728 7.33341 7.04165
#
# Compressibility (1/GPa) = 0.01974082
#
# Stress axis : x y z
#
# Youngs Moduli (GPa) = 58.94514 59.70549 128.24326
#
# Poissons Ratio (x) = 0.46743 0.46125
# Poissons Ratio (y) = 0.46147 -0.06928
# Poissons Ratio (z) = 0.21201 -0.03226
#
# Static dielectric constant tensor:
#      x y z
#    x 1.773110 0.000000 0.019700 
#    y 0.000000 1.717980 0.000000 
#    z 0.019700 0.000000 1.747760 
# 
# From -- ./inp_files/35617.got.cif
#   From: 2010.05.17/outbox.cif.g08.bks.cpg/sg15_18_cif.got.tgz:35617.got - 2010.06.03 18:47:42.
