data_PCOD9300743
_publ_section_title
;
Structure prediction by ZEFSAII (Michael W. Deem and Ramdas Pophale) SiO2 
 PCOD9300743
Probable space group: C 2/C
;
_chemical_formula_sum "Si O2"
_cell_formula_units_Z 56
_cell_length_a 22.214964
_cell_length_b 12.947564
_cell_length_c 10.040643
_cell_angle_alpha 90.000000
_cell_angle_beta 115.326769
_cell_angle_gamma 90.000000
_cell_volume 2610.401568
_symmetry_space_group_name_H-M "C 2/C"
_symmetry_group_IT_number 15
_symmetry_cell_setting 'monoclinic'
loop_
_space_group_symop_operation_xyz
x,y,z
-x,y,1/2-z
-x,-y,-z
x,-y,1/2+z
1/2+x,1/2+y,z
1/2-x,1/2+y,1/2-z
1/2-x,1/2-y,-z
1/2+x,1/2-y,1/2+z
loop_
_atom_site_type_symbol
_atom_site_label
_atom_site_fract_x
_atom_site_fract_y
_atom_site_fract_z
Si Si1 0.717764 0.393486 0.846138
Si Si2 0.631286 0.920504 0.411433
Si Si3 0.620960 0.300850 0.963123
Si Si4 0.543989 0.494073 0.410949
Si Si5 0.702444 0.373080 0.296488
Si Si6 0.343359 0.675877 0.464408
Si Si7 0.360846 0.892981 0.392210
O O1 0.672895 0.318486 0.891871
O O2 0.684951 0.507069 0.811010
O O3 0.716189 0.351242 0.694555
O O4 0.790426 0.403222 0.977891
O O5 0.596400 0.816270 0.431210
O O6 0.624349 0.925917 0.245360
O O7 0.613452 0.022695 0.477701
O O8 0.567138 0.390389 0.898178
O O9 0.660811 0.326618 0.136012
O O10 0.500000 0.450157 0.250000
O O11 0.500000 0.500000 0.500000
O O12 0.607092 0.420829 0.491791
O O13 0.685349 0.312716 0.415028
O O14 0.780286 0.382298 0.333061
O O15 0.382009 0.777015 0.449813
#
# Coordination Sequence:
#
# PCOD9300743 Si02
#       7
#     8   8   8   8   8   8   8
#     4  11  19  37  59  93 129 171 204 242 318 389
#     4  11  25  38  60  92 131 169 209 246 304 392
#     4  12  21  41  63  85 128 170 202 266 318 364
#     4  12  26  44  67  97 118 161 220 271 320 360
#     4  11  21  34  60  97 128 168 203 244 317 389
#     4  12  23  40  63  87 132 167 205 268 315 366
#     4  11  25  39  58  94 130 168 211 245 302 395
#
# _framework density 21.452638
#
# number of rings (size 3 to 8) (size 9 to 14) (size 15 to 20)
#    0.000    0.571    5.714    3.429    8.000    0.000 
#    0.000    0.000    0.000    1.714    0.000    0.000 
#    0.000    0.000    0.000    0.000    0.000    0.000 
#
# Total GULP energy -156618.014795 kJ/mol
# GULP energy per Si atom -5593.500528 kJ/mol
# Density = 2.140381 g / cm^3
# Si number density = 21.452638 Si / 1000 Ang^3
#
#
#
# Elastic Constant Matrix: (Units=GPa)
#
#
# Indices 1 2 3 4 5 6 
#
# 1 24.5653 6.1444 9.2105 0.0000 -6.2760 0.0000
# 2 6.1444 134.8324 36.3315 0.0000 -9.5625 0.0000
# 3 9.2105 36.3315 137.4410 0.0000 -27.7406 0.0000
# 4 0.0000 0.0000 0.0000 32.2539 0.0000 -8.0570
# 5 -6.2760 -9.5625 -27.7406 0.0000 21.2842 0.0000
# 6 0.0000 0.0000 0.0000 -8.0570 0.0000 15.6834
#
#
#
# Elastic Compliance Matrix: (Units=1/GPa)
#
#
# Indices 1 2 3 4 5 6 
#
# 1 0.044193 -0.001090 -0.000193 0.000000 0.012290 0.000000
# 2 -0.001090 0.008033 -0.001882 0.000000 0.000835 0.000000
# 3 -0.000193 -0.001882 0.010319 0.000000 0.012546 0.000000
# 4 0.000000 0.000000 0.000000 0.035568 0.000000 0.018273
# 5 0.012290 0.000835 0.012546 0.000000 0.067334 0.000000
# 6 0.000000 0.000000 0.000000 0.018273 0.000000 0.073149
#
#
# Mechanical properties :
#
#
# Convention : Reuss Voigt Hill
#
# Bulk Modulus (GPa) = 17.78916 44.46794 31.12855
# Shear Modulus (GPa) = 18.96357 30.18778 24.57568
#
# Velocity S-wave (km/s) = 2.97640 3.75531 3.38831
# Velocity P-wave (km/s) = 4.48578 6.29099 5.46346
#
# Compressibility (1/GPa) = 0.05621402
#
# Stress axis : x y z
#
# Youngs Moduli (GPa) = 22.62815 124.49323 96.91330
#
# Poissons Ratio (x) = 0.13574 0.01868
# Poissons Ratio (y) = 0.02467 0.18237
# Poissons Ratio (z) = 0.00436 0.23427
#
# Static dielectric constant tensor:
#      x y z
#    x 1.745670 0.000000 0.002640 
#    y 0.000000 1.837740 0.000000 
#    z 0.002640 0.000000 1.765110 
# 
# From -- ./inp_files/65404.got.cif
#   From: 2010.05.17/outbox.cif.g08.bks.cpg/sg15_33_cif.got.tgz:65404.got - 2010.06.03 18:47:42.
