data_PCOD9300075
_publ_section_title
;
Structure prediction by ZEFSAII (Michael W. Deem and Ramdas Pophale) SiO2 
 PCOD9300075
Probable space group: C 2/C
;
_chemical_formula_sum "Si O2"
_cell_formula_units_Z 52
_cell_length_a 10.659466
_cell_length_b 17.049159
_cell_length_c 28.228391
_cell_angle_alpha 90.000000
_cell_angle_beta 150.054264
_cell_angle_gamma 90.000000
_cell_volume 2560.833495
_symmetry_space_group_name_H-M "C 2/C"
_symmetry_group_IT_number 15
_symmetry_cell_setting 'monoclinic'
loop_
_space_group_symop_operation_xyz
x,y,z
-x,y,1/2-z
-x,-y,-z
x,-y,1/2+z
1/2+x,1/2+y,z
1/2-x,1/2+y,1/2-z
1/2-x,1/2-y,-z
1/2+x,1/2-y,1/2+z
loop_
_atom_site_type_symbol
_atom_site_label
_atom_site_fract_x
_atom_site_fract_y
_atom_site_fract_z
Si Si1 0.272201 0.066325 0.823613
Si Si2 0.975686 0.406690 0.997751
Si Si3 0.970228 0.827830 0.796252
Si Si4 0.500000 0.996422 0.250000
Si Si5 0.461015 0.922993 0.643613
Si Si6 0.177700 0.161345 0.971858
Si Si7 0.812975 0.347239 0.245320
O O1 0.418714 0.105896 0.915049
O O2 0.216753 0.131592 0.765861
O O3 0.000000 0.034166 0.750000
O O4 0.436538 0.995913 0.854900
O O5 0.156232 0.373615 0.016174
O O6 0.000000 0.500000 0.000000
O O7 0.699033 0.371167 0.898067
O O8 0.700871 0.863588 0.724146
O O9 0.972158 0.732749 0.801656
O O10 0.000000 0.843816 0.750000
O O11 0.403681 0.931865 0.256208
O O12 0.620806 0.053617 0.329602
O O13 0.239357 0.884605 0.540133
O O14 0.894987 0.166264 0.862280
O O15 0.250000 0.250000 0.000000
#
# Coordination Sequence:
#
# PCOD9300075 Si02
#       7
#     8   8   8   4   8   8   8
#     4  11  22  40  66  99 130 171 226 283 326 388
#     4  12  23  40  69 101 127 168 228 281 328 393
#     4  12  22  42  68  96 131 174 225 275 335 396
#     4  10  26  44  64  96 138 182 216 272 344 398
#     4  11  23  42  68  98 133 177 225 277 332 401
#     4  12  23  41  67 100 129 175 224 274 337 396
#     4  11  24  43  67  92 137 176 217 274 339 405
#
# _framework density 20.305887999999999
#
# number of rings (size 3 to 8) (size 9 to 14) (size 15 to 20)
#    0.000    0.615    6.923    1.385    2.154    1.231 
#    4.154    1.538    0.000    0.000    0.000    0.000 
#    0.000    0.000    0.000    0.000    0.000    0.000 
#
# Total GULP energy -144822.309292 kJ/mol
# GULP energy per Si atom -5570.088819 kJ/mol
# Density = 2.025967 g / cm^3
# Si number density = 20.305888 Si / 1000 Ang^3
#
#
#
# Elastic Constant Matrix: (Units=GPa)
#
#
# Indices 1 2 3 4 5 6 
#
# 1 46.4816 27.5280 20.3334 -0.0001 -28.8375 -0.0003
# 2 27.5280 107.7220 45.9985 0.0004 -19.8797 -0.0001
# 3 20.3334 45.9985 126.9491 0.0011 -31.9825 -0.0005
# 4 -0.0001 0.0004 0.0011 39.3915 0.0001 4.4358
# 5 -28.8375 -19.8797 -31.9825 0.0001 34.0465 -0.0003
# 6 -0.0003 -0.0001 -0.0005 4.4358 -0.0003 31.3840
#
#
#
# Elastic Compliance Matrix: (Units=1/GPa)
#
#
# Indices 1 2 3 4 5 6 
#
# 1 0.050528 -0.007198 0.005552 0.000000 0.043810 0.000001
# 2 -0.007198 0.012336 -0.003980 0.000000 -0.002633 0.000000
# 3 0.005552 -0.003980 0.011829 0.000000 0.013490 0.000000
# 4 0.000000 0.000000 0.000000 0.025797 -0.000001 -0.003646
# 5 0.043810 -0.002633 0.013490 -0.000001 0.077614 0.000001
# 6 0.000001 0.000000 0.000000 -0.003646 0.000001 0.032379
#
#
# Mechanical properties :
#
#
# Convention : Reuss Voigt Hill
#
# Bulk Modulus (GPa) = 15.76269 52.09693 33.92981
# Shear Modulus (GPa) = 20.58609 33.45059 27.01834
#
# Velocity S-wave (km/s) = 3.18748 4.06314 3.65165
# Velocity P-wave (km/s) = 4.61802 6.90825 5.87580
#
# Compressibility (1/GPa) = 0.06344093
#
# Stress axis : x y z
#
# Youngs Moduli (GPa) = 19.79095 81.06096 84.54004
#
# Poissons Ratio (x) = 0.58349 -0.46939
# Poissons Ratio (y) = 0.14246 0.33649
# Poissons Ratio (z) = -0.10989 0.32264
#
# Static dielectric constant tensor:
#      x y z
#    x 1.790550 0.000000 -0.072740 
#    y 0.000000 1.674620 0.000000 
#    z -0.072740 0.000000 1.925950 
# 
# From -- ./inp_files/293468.got.cif
#   From: 2010.05.17/outbox.cif.g08.bks.cpg/sg15_147_cif.got.tgz:293468.got - 2010.06.03 18:47:42.
