data_PCOD9300339
_publ_section_title
;
Structure prediction by ZEFSAII (Michael W. Deem and Ramdas Pophale) SiO2 
 PCOD9300339
Probable space group: C 2/C
;
_chemical_formula_sum "Si O2"
_cell_formula_units_Z 32
_cell_length_a 11.482561
_cell_length_b 20.551576
_cell_length_c 5.105532
_cell_angle_alpha 90.000000
_cell_angle_beta 82.312347
_cell_angle_gamma 90.000000
_cell_volume 1193.998636
_symmetry_space_group_name_H-M "C 2/C"
_symmetry_group_IT_number 15
_symmetry_cell_setting 'monoclinic'
loop_
_space_group_symop_operation_xyz
x,y,z
-x,y,1/2-z
-x,-y,-z
x,-y,1/2+z
1/2+x,1/2+y,z
1/2-x,1/2+y,1/2-z
1/2-x,1/2-y,-z
1/2+x,1/2-y,1/2+z
loop_
_atom_site_type_symbol
_atom_site_label
_atom_site_fract_x
_atom_site_fract_y
_atom_site_fract_z
Si Si1 0.500000 0.048041 0.250000
Si Si2 0.626302 0.138786 0.860731
Si Si3 0.412202 0.278376 0.520585
Si Si4 0.000000 0.876847 0.750000
Si Si5 0.690775 0.454257 0.432951
O O1 0.398919 0.098428 0.369185
O O2 0.500000 0.000000 0.500000
O O3 0.500000 0.143546 0.750000
O O4 0.660929 0.213678 0.909862
O O5 0.713954 0.101953 0.647127
O O6 0.500000 0.286432 0.750000
O O7 0.380752 0.352194 0.588486
O O8 0.500000 0.269614 0.250000
O O9 0.068361 0.918049 0.513988
O O10 0.705427 0.498370 0.683371
#
# Coordination Sequence:
#
# PCOD9300339 Si02
#       5
#     4   8   8   4   8
#     4  12  22  33  60  87 136 180 202 262 320 412
#     4  11  24  44  67 104 140 170 225 277 351 405
#     4   9  21  40  70  98 128 177 217 285 340 387
#     4  10  26  49  72  95 138 178 244 274 332 396
#     4  12  29  44  70 101 137 188 224 279 336 405
#
# _framework density 26.800701
#
# number of rings (size 3 to 8) (size 9 to 14) (size 15 to 20)
#    0.750    0.500    2.500    2.250    7.000    1.000 
#    0.000    1.250    0.000    0.000    0.000    0.000 
#    0.000    0.000    0.000    0.000    0.000    0.000 
#
# Total GULP energy -89255.515358 kJ/mol
# GULP energy per Si atom -5578.469710 kJ/mol
# Density = 2.673970 g / cm^3
# Si number density = 26.800701 Si / 1000 Ang^3
#
#
#
# Elastic Constant Matrix: (Units=GPa)
#
#
# Indices 1 2 3 4 5 6 
#
# 1 77.6600 66.1716 47.8284 0.0000 -15.6556 0.0000
# 2 66.1716 156.0547 73.6267 0.0000 -14.7419 0.0000
# 3 47.8284 73.6267 231.5165 0.0000 0.3521 0.0000
# 4 0.0000 0.0000 0.0000 79.9193 0.0000 -13.4818
# 5 -15.6556 -14.7419 0.3521 0.0000 50.5452 0.0000
# 6 0.0000 0.0000 0.0000 -13.4818 0.0000 47.9471
#
#
#
# Elastic Compliance Matrix: (Units=1/GPa)
#
#
# Indices 1 2 3 4 5 6 
#
# 1 0.021671 -0.007829 -0.001994 0.000000 0.004443 0.000000
# 2 -0.007829 0.010624 -0.001762 0.000000 0.000686 0.000000
# 3 -0.001994 -0.001762 0.005294 0.000000 -0.001169 0.000000
# 4 0.000000 0.000000 0.000000 0.013136 0.000000 0.003694
# 5 0.004443 0.000686 -0.001169 0.000000 0.021369 0.000000
# 6 0.000000 0.000000 0.000000 0.003694 0.000000 0.021895
#
#
# Mechanical properties :
#
#
# Convention : Reuss Voigt Hill
#
# Bulk Modulus (GPa) = 69.35642 93.38720 81.37181
# Shear Modulus (GPa) = 40.99594 54.18927 47.59260
#
# Velocity S-wave (km/s) = 3.91533 4.50147 4.21859
# Velocity P-wave (km/s) = 6.80988 7.87009 7.35911
#
# Compressibility (1/GPa) = 0.01441828
#
# Stress axis : x y z
#
# Youngs Moduli (GPa) = 46.14504 94.12815 188.91000
#
# Poissons Ratio (x) = 0.73689 0.37669
# Poissons Ratio (y) = 0.36125 0.33292
# Poissons Ratio (z) = 0.09202 0.16589
#
# Static dielectric constant tensor:
#      x y z
#    x 2.441230 0.000000 0.058350 
#    y 0.000000 2.115420 0.000000 
#    z 0.058350 0.000000 1.792700 
# 
# From -- ./inp_files/7091.got.cif
#   From: 2010.05.17/outbox.cif.g08.bks.cpg/sg15_4_cif.got.tgz:7091.got - 2010.06.03 18:47:42.
