data_PCOD9300059
_publ_section_title
;
Structure prediction by ZEFSAII (Michael W. Deem and Ramdas Pophale) SiO2 
 PCOD9300059
Probable space group: C 2/C
;
_chemical_formula_sum "Si O2"
_cell_formula_units_Z 40
_cell_length_a 25.902893
_cell_length_b 7.559306
_cell_length_c 19.779124
_cell_angle_alpha 90.000000
_cell_angle_beta 151.596990
_cell_angle_gamma 90.000000
_cell_volume 1842.228073
_symmetry_space_group_name_H-M "C 2/C"
_symmetry_group_IT_number 15
_symmetry_cell_setting 'monoclinic'
loop_
_space_group_symop_operation_xyz
x,y,z
-x,y,1/2-z
-x,-y,-z
x,-y,1/2+z
1/2+x,1/2+y,z
1/2-x,1/2+y,1/2-z
1/2-x,1/2-y,-z
1/2+x,1/2-y,1/2+z
loop_
_atom_site_type_symbol
_atom_site_label
_atom_site_fract_x
_atom_site_fract_y
_atom_site_fract_z
Si Si1 0.300056 0.383456 0.866469
Si Si2 0.065419 0.546533 0.885523
Si Si3 0.001208 0.051202 0.328936
Si Si4 0.775993 0.868194 0.097910
Si Si5 0.903283 0.579479 0.930366
O O1 0.246423 0.254944 0.861922
O O2 0.204652 0.480519 0.717654
O O3 0.370299 0.282752 0.890272
O O4 0.387166 0.500759 0.006101
O O5 0.007958 0.734903 0.832791
O O6 0.000000 0.454778 0.750000
O O7 0.189765 0.531138 0.003935
O O8 0.063801 0.447403 0.954093
O O9 0.000000 0.990350 0.250000
O O10 0.895100 0.955873 0.236774
O O11 0.750000 0.750000 0.000000
O O12 0.000000 0.500000 0.000000
#
# Coordination Sequence:
#
# PCOD9300059 Si02
#       5
#     8   8   8   8   8
#     4  11  24  42  68  99 139 180 236 281 348 421
#     4  10  26  43  68 100 139 176 237 278 350 412
#     4  11  23  42  66 100 136 179 228 290 342 413
#     4  11  24  42  72 100 137 181 231 289 347 405
#     4  11  25  43  67  98 136 184 223 291 348 410
#
# _framework density 21.712838999999999
#
# number of rings (size 3 to 8) (size 9 to 14) (size 15 to 20)
#    0.000    1.200    2.000    2.400    8.400    8.000 
#    0.000    7.000    0.000    0.000    0.000    0.000 
#    0.000    0.000    0.000    0.000    0.000    0.000 
#
# Total GULP energy -111596.143669 kJ/mol
# GULP energy per Si atom -5579.807183 kJ/mol
# Density = 2.166342 g / cm^3
# Si number density = 21.712839 Si / 1000 Ang^3
#
#
#
# Elastic Constant Matrix: (Units=GPa)
#
#
# Indices 1 2 3 4 5 6 
#
# 1 50.3459 -15.7649 12.9062 0.0000 0.0614 0.0000
# 2 -15.7649 30.6875 0.5136 0.0000 -3.7228 0.0000
# 3 12.9062 0.5136 130.8701 0.0000 -7.0848 0.0000
# 4 0.0000 0.0000 0.0000 37.7434 0.0000 5.7802
# 5 0.0614 -3.7228 -7.0848 0.0000 32.7493 0.0000
# 6 0.0000 0.0000 0.0000 5.7802 0.0000 5.4537
#
#
#
# Elastic Compliance Matrix: (Units=1/GPa)
#
#
# Indices 1 2 3 4 5 6 
#
# 1 0.024461 0.012713 -0.002415 0.000000 0.000877 0.000000
# 2 0.012713 0.039650 -0.001180 0.000000 0.004228 0.000000
# 3 -0.002415 -0.001180 0.007970 0.000000 0.001595 0.000000
# 4 0.000000 0.000000 0.000000 0.031628 0.000000 -0.033522
# 5 0.000877 0.004228 0.001595 0.000000 0.031359 0.000000
# 6 0.000000 0.000000 0.000000 -0.033522 0.000000 0.218893
#
#
# Mechanical properties :
#
#
# Convention : Reuss Voigt Hill
#
# Bulk Modulus (GPa) = 11.07198 23.02370 17.04784
# Shear Modulus (GPa) = 13.66747 29.47252 21.56999
#
# Velocity S-wave (km/s) = 2.51164 3.68826 3.15528
# Velocity P-wave (km/s) = 3.67715 5.36325 4.59814
#
# Compressibility (1/GPa) = 0.09031805
#
# Stress axis : x y z
#
# Youngs Moduli (GPa) = 40.88063 25.22045 125.46634
#
# Poissons Ratio (x) = -0.32063 0.30297
# Poissons Ratio (y) = -0.51973 0.14811
# Poissons Ratio (z) = 0.09872 0.02977
#
# Static dielectric constant tensor:
#      x y z
#    x 2.025700 0.000000 -0.045160 
#    y 0.000000 1.809270 0.000000 
#    z -0.045160 0.000000 1.812850 
# 
# From -- ./inp_files/102766.got.cif
#   From: 2010.05.17/outbox.cif.g08.bks.cpg/sg15_52_cif.got.tgz:102766.got - 2010.06.03 18:47:42.
