data_PCOD9300448
_publ_section_title
;
Structure prediction by ZEFSAII (Michael W. Deem and Ramdas Pophale) SiO2 
 PCOD9300448
Probable space group: C 2/C
;
_chemical_formula_sum "Si O2"
_cell_formula_units_Z 36
_cell_length_a 9.883528
_cell_length_b 9.193426
_cell_length_c 18.446064
_cell_angle_alpha 90.000000
_cell_angle_beta 79.977067
_cell_angle_gamma 90.000000
_cell_volume 1650.493678
_symmetry_space_group_name_H-M "C 2/C"
_symmetry_group_IT_number 15
_symmetry_cell_setting 'monoclinic'
loop_
_space_group_symop_operation_xyz
x,y,z
-x,y,1/2-z
-x,-y,-z
x,-y,1/2+z
1/2+x,1/2+y,z
1/2-x,1/2+y,1/2-z
1/2-x,1/2-y,-z
1/2+x,1/2-y,1/2+z
loop_
_atom_site_type_symbol
_atom_site_label
_atom_site_fract_x
_atom_site_fract_y
_atom_site_fract_z
Si Si1 0.325693 0.951490 0.354606
Si Si2 0.869281 0.262152 0.926757
Si Si3 0.000000 0.757757 0.750000
Si Si4 0.087961 0.724813 0.520230
Si Si5 0.481776 0.518308 0.118985
O O1 0.378420 0.855292 0.282449
O O2 0.414534 0.886247 0.412705
O O3 0.340497 0.124737 0.364655
O O4 0.161977 0.935168 0.376250
O O5 0.750000 0.250000 0.000000
O O6 0.900937 0.104091 0.890598
O O7 0.004172 0.318830 0.957434
O O8 0.974744 0.870263 0.686767
O O9 0.250000 0.750000 0.500000
O O10 0.015913 0.874700 0.549986
#
# Coordination Sequence:
#
# PCOD9300448 Si02
#       5
#     8   8   4   8   8
#     4  11  24  44  67  99 133 179 227 276 329 399
#     4  12  23  40  73 106 135 171 217 277 351 402
#     4  10  28  46  64  90 134 190 232 270 324 392
#     4  11  21  42  69 102 142 169 210 280 347 397
#     4  11  24  45  66  97 139 177 222 283 325 398
#
# _framework density 21.811655999999999
#
# number of rings (size 3 to 8) (size 9 to 14) (size 15 to 20)
#    0.000    0.889    4.444    2.667    0.000    4.444 
#    0.000    0.000    0.000    0.000    0.000    0.000 
#    0.000    0.000    0.000    0.000    0.000    0.000 
#
# Total GULP energy -100360.136004 kJ/mol
# GULP energy per Si atom -5575.563111 kJ/mol
# Density = 2.176201 g / cm^3
# Si number density = 21.811656 Si / 1000 Ang^3
#
#
#
# Elastic Constant Matrix: (Units=GPa)
#
#
# Indices 1 2 3 4 5 6 
#
# 1 96.7381 24.7674 34.6982 0.0000 -25.1997 0.0000
# 2 24.7674 157.5186 58.7186 0.0000 -18.4659 0.0000
# 3 34.6982 58.7186 80.7589 0.0000 -15.0862 0.0000
# 4 0.0000 0.0000 0.0000 53.7337 0.0000 1.3004
# 5 -25.1997 -18.4659 -15.0862 0.0000 29.8014 0.0000
# 6 0.0000 0.0000 0.0000 1.3004 0.0000 34.5546
#
#
#
# Elastic Compliance Matrix: (Units=1/GPa)
#
#
# Indices 1 2 3 4 5 6 
#
# 1 0.014585 0.000732 -0.004871 0.000000 0.010321 0.000000
# 2 0.000732 0.008907 -0.006233 0.000000 0.002983 0.000000
# 3 -0.004871 -0.006233 0.019346 0.000000 0.001812 0.000000
# 4 0.000000 0.000000 0.000000 0.018627 0.000000 -0.000701
# 5 0.010321 0.002983 0.001812 0.000000 0.045048 0.000000
# 6 0.000000 0.000000 0.000000 -0.000701 0.000000 0.028966
#
#
# Mechanical properties :
#
#
# Convention : Reuss Voigt Hill
#
# Bulk Modulus (GPa) = 45.26109 63.48710 54.37410
# Shear Modulus (GPa) = 30.56447 38.07338 34.31892
#
# Velocity S-wave (km/s) = 3.74744 4.18251 3.97094
# Velocity P-wave (km/s) = 6.28652 7.24532 6.78288
#
# Compressibility (1/GPa) = 0.02209403
#
# Stress axis : x y z
#
# Youngs Moduli (GPa) = 68.56143 112.27669 51.69000
#
# Poissons Ratio (x) = -0.08224 0.25179
# Poissons Ratio (y) = -0.05022 0.32220
# Poissons Ratio (z) = 0.33397 0.69986
#
# Static dielectric constant tensor:
#      x y z
#    x 1.804720 0.000000 0.005440 
#    y 0.000000 1.834380 0.000000 
#    z 0.005440 0.000000 1.874310 
# 
# From -- ./inp_files/229321.got.cif
#   From: 2010.05.17/outbox.cif.g08.bks.cpg/sg15_115_cif.got.tgz:229321.got - 2010.06.03 18:47:42.
