data_PCOD9300905
_publ_section_title
;
Structure prediction by ZEFSAII (Michael W. Deem and Ramdas Pophale) SiO2 
 PCOD9300905
Probable space group: C 2/C
;
_chemical_formula_sum "Si O2"
_cell_formula_units_Z 56
_cell_length_a 21.214161
_cell_length_b 19.045453
_cell_length_c 16.639737
_cell_angle_alpha 90.000000
_cell_angle_beta 155.129424
_cell_angle_gamma 90.000000
_cell_volume 2827.495115
_symmetry_space_group_name_H-M "C 2/C"
_symmetry_group_IT_number 15
_symmetry_cell_setting 'monoclinic'
loop_
_space_group_symop_operation_xyz
x,y,z
-x,y,1/2-z
-x,-y,-z
x,-y,1/2+z
1/2+x,1/2+y,z
1/2-x,1/2+y,1/2-z
1/2-x,1/2-y,-z
1/2+x,1/2-y,1/2+z
loop_
_atom_site_type_symbol
_atom_site_label
_atom_site_fract_x
_atom_site_fract_y
_atom_site_fract_z
Si Si1 0.274602 0.526054 0.639833
Si Si2 0.249816 0.252550 0.239403
Si Si3 0.831151 0.100657 0.876219
Si Si4 0.176298 0.886858 0.735274
Si Si5 0.257986 0.867449 0.517514
Si Si6 0.379717 0.539197 0.501284
Si Si7 0.440045 0.254973 0.307009
O O1 0.290934 0.564787 0.744275
O O2 0.235763 0.445093 0.611005
O O3 0.179386 0.575457 0.472411
O O4 0.441407 0.527684 0.793226
O O5 0.241649 0.326813 0.275420
O O6 0.246639 0.188173 0.297247
O O7 0.391925 0.255320 0.344795
O O8 0.117979 0.242869 0.020433
O O9 0.008826 0.118256 0.078016
O O10 0.808802 0.038984 0.915323
O O11 0.155108 0.922700 0.623332
O O12 0.181629 0.911256 0.500572
O O13 0.379634 0.814454 0.694122
O O14 0.136435 0.819575 0.328467
#
# Coordination Sequence:
#
# PCOD9300905 Si02
#       7
#     8   8   8   8   8   8   8
#     4   9  17  30  49  77 101 139 176 222 250 307
#     4  12  19  38  51  79 112 144 171 222 258 325
#     4   9  18  33  49  76 100 141 182 218 251 308
#     4   9  17  31  52  73 103 138 181 215 257 302
#     4  11  20  33  48  82 108 138 170 219 262 323
#     4   9  17  29  53  72 107 136 178 216 259 305
#     4  11  25  30  54  80 117 141 170 208 282 322
#
# _framework density 19.805515
#
# number of rings (size 3 to 8) (size 9 to 14) (size 15 to 20)
#    0.000    2.000    4.286    3.000    2.000    1.714 
#    0.000    0.714    0.000    0.857    0.000    0.000 
#    0.000    0.000    0.000    0.000    0.000    0.000 
#
# Total GULP energy -156261.040303 kJ/mol
# GULP energy per Si atom -5580.751439 kJ/mol
# Density = 1.976044 g / cm^3
# Si number density = 19.805515 Si / 1000 Ang^3
#
#
#
# Elastic Constant Matrix: (Units=GPa)
#
#
# Indices 1 2 3 4 5 6 
#
# 1 47.5667 41.5158 3.9596 0.0000 -3.5788 0.0000
# 2 41.5158 190.7102 29.4499 0.0000 -15.9555 0.0000
# 3 3.9596 29.4499 21.2313 0.0000 -5.8796 0.0000
# 4 0.0000 0.0000 0.0000 23.0090 0.0000 -5.3686
# 5 -3.5788 -15.9555 -5.8796 0.0000 9.8670 0.0000
# 6 0.0000 0.0000 0.0000 -5.3686 0.0000 42.1595
#
#
#
# Elastic Compliance Matrix: (Units=1/GPa)
#
#
# Indices 1 2 3 4 5 6 
#
# 1 0.026232 -0.006200 0.004271 0.000000 0.002034 0.000000
# 2 -0.006200 0.008484 -0.008905 0.000000 0.006164 0.000000
# 3 0.004271 -0.008905 0.065986 0.000000 0.026469 0.000000
# 4 0.000000 0.000000 0.000000 0.044792 0.000000 0.005704
# 5 0.002034 0.006164 0.026469 0.000000 0.127825 0.000000
# 6 0.000000 0.000000 0.000000 0.005704 0.000000 0.024446
#
#
# Mechanical properties :
#
#
# Convention : Reuss Voigt Hill
#
# Bulk Modulus (GPa) = 12.65281 45.48432 29.06856
# Shear Modulus (GPa) = 14.46018 27.31264 20.88641
#
# Velocity S-wave (km/s) = 2.70498 3.71757 3.25095
# Velocity P-wave (km/s) = 4.01974 6.43758 5.36660
#
# Compressibility (1/GPa) = 0.07903381
#
# Stress axis : x y z
#
# Youngs Moduli (GPa) = 38.12178 117.86883 15.15477
#
# Poissons Ratio (x) = 0.73075 -0.06472
# Poissons Ratio (y) = 0.23634 0.13495
# Poissons Ratio (z) = -0.16281 1.04961
#
# Static dielectric constant tensor:
#      x y z
#    x 1.705510 0.000000 0.005450 
#    y 0.000000 1.756170 0.000000 
#    z 0.005450 0.000000 1.705370 
# 
# From -- ./inp_files/216071.got.cif
#   From: 2010.05.17/outbox.cif.g08.bks.cpg/sg15_109_cif.got.tgz:216071.got - 2010.06.03 18:47:42.
