data_PCOD9300203
_publ_section_title
;
Structure prediction by ZEFSAII (Michael W. Deem and Ramdas Pophale) SiO2 
 PCOD9300203
Probable space group: C 2/C
;
_chemical_formula_sum "Si O2"
_cell_formula_units_Z 36
_cell_length_a 26.970822
_cell_length_b 7.386738
_cell_length_c 11.527342
_cell_angle_alpha 90.000000
_cell_angle_beta 144.515104
_cell_angle_gamma 90.000000
_cell_volume 1333.120922
_symmetry_space_group_name_H-M "C 2/C"
_symmetry_group_IT_number 15
_symmetry_cell_setting 'monoclinic'
loop_
_space_group_symop_operation_xyz
x,y,z
-x,y,1/2-z
-x,-y,-z
x,-y,1/2+z
1/2+x,1/2+y,z
1/2-x,1/2+y,1/2-z
1/2-x,1/2-y,-z
1/2+x,1/2-y,1/2+z
loop_
_atom_site_type_symbol
_atom_site_label
_atom_site_fract_x
_atom_site_fract_y
_atom_site_fract_z
Si Si1 0.500000 0.257150 0.250000
Si Si2 0.797206 0.379123 0.179297
Si Si3 0.787476 0.724707 0.272532
Si Si4 0.944367 0.080313 0.997924
Si Si5 0.926069 0.586683 0.730252
O O1 0.441206 0.407308 0.076818
O O2 0.543592 0.114599 0.245199
O O3 0.755526 0.573401 0.123805
O O4 0.786914 0.301348 0.289016
O O5 0.886051 0.413299 0.283212
O O6 0.750000 0.250000 0.000000
O O7 0.845921 0.859861 0.308928
O O8 0.854873 0.648025 0.498984
O O9 0.999760 0.261609 0.131168
O O10 0.000000 0.000000 0.000000
#
# Coordination Sequence:
#
# PCOD9300203 Si02
#       5
#     4   8   8   8   8
#     4  12  22  44  74 108 150 184 244 310 364 436
#     4  10  26  46  71 104 149 196 245 296 370 444
#     4  11  23  49  70 106 151 193 241 309 369 440
#     4  12  26  43  76 110 145 191 252 307 374 437
#     4  11  24  48  70 113 147 189 250 305 367 447
#
# _framework density 27.004301000000002
#
# number of rings (size 3 to 8) (size 9 to 14) (size 15 to 20)
#    0.000    0.889    4.444    1.333    6.222    1.778 
#    0.000    3.333    0.000    0.000    0.000    0.000 
#    0.000    0.000    0.000    0.000    0.000    0.000 
#
# Total GULP energy -100613.361412 kJ/mol
# GULP energy per Si atom -5589.631190 kJ/mol
# Density = 2.694284 g / cm^3
# Si number density = 27.004301 Si / 1000 Ang^3
#
#
#
# Elastic Constant Matrix: (Units=GPa)
#
#
# Indices 1 2 3 4 5 6 
#
# 1 249.7190 88.3453 32.3964 0.0000 21.8414 0.0000
# 2 88.3453 221.3506 55.3064 0.0000 6.5670 0.0000
# 3 32.3964 55.3064 67.1297 0.0000 -12.8337 0.0000
# 4 0.0000 0.0000 0.0000 34.2675 0.0000 -8.4335
# 5 21.8414 6.5670 -12.8337 0.0000 17.3309 0.0000
# 6 0.0000 0.0000 0.0000 -8.4335 0.0000 68.6316
#
#
#
# Elastic Compliance Matrix: (Units=1/GPa)
#
#
# Indices 1 2 3 4 5 6 
#
# 1 0.005690 -0.001071 -0.003678 0.000000 -0.009490 0.000000
# 2 -0.001071 0.006610 -0.006000 0.000000 -0.005598 0.000000
# 3 -0.003678 -0.006000 0.026718 0.000000 0.026694 0.000000
# 4 0.000000 0.000000 0.000000 0.030092 0.000000 0.003698
# 5 -0.009490 -0.005598 0.026694 0.000000 0.091549 0.000000
# 6 0.000000 0.000000 0.000000 0.003698 0.000000 0.015025
#
#
# Mechanical properties :
#
#
# Convention : Reuss Voigt Hill
#
# Bulk Modulus (GPa) = 57.07278 98.92172 77.99725
# Shear Modulus (GPa) = 24.62789 48.18939 36.40864
#
# Velocity S-wave (km/s) = 3.02321 4.22893 3.67584
# Velocity P-wave (km/s) = 5.77641 7.78180 6.85286
#
# Compressibility (1/GPa) = 0.01752149
#
# Stress axis : x y z
#
# Youngs Moduli (GPa) = 175.73297 151.28313 37.42810
#
# Poissons Ratio (x) = 0.16196 0.13768
# Poissons Ratio (y) = 0.18813 0.22455
# Poissons Ratio (z) = 0.64642 0.90763
#
# Static dielectric constant tensor:
#      x y z
#    x 2.087130 0.000000 0.010120 
#    y 0.000000 2.120440 0.000000 
#    z 0.010120 0.000000 2.126040 
# 
# From -- ./inp_files/180257.got.cif
#   From: 2010.05.17/outbox.cif.g08.bks.cpg/sg15_91_cif.got.tgz:180257.got - 2010.06.03 18:47:42.
