data_PCOD9300419
_publ_section_title
;
Structure prediction by ZEFSAII (Michael W. Deem and Ramdas Pophale) SiO2 
 PCOD9300419
Probable space group: C 2/C
;
_chemical_formula_sum "Si O2"
_cell_formula_units_Z 48
_cell_length_a 18.837935
_cell_length_b 4.763088
_cell_length_c 18.499352
_cell_angle_alpha 90.000000
_cell_angle_beta 105.921093
_cell_angle_gamma 90.000000
_cell_volume 1596.213982
_symmetry_space_group_name_H-M "C 2/C"
_symmetry_group_IT_number 15
_symmetry_cell_setting 'monoclinic'
loop_
_space_group_symop_operation_xyz
x,y,z
-x,y,1/2-z
-x,-y,-z
x,-y,1/2+z
1/2+x,1/2+y,z
1/2-x,1/2+y,1/2-z
1/2-x,1/2-y,-z
1/2+x,1/2-y,1/2+z
loop_
_atom_site_type_symbol
_atom_site_label
_atom_site_fract_x
_atom_site_fract_y
_atom_site_fract_z
Si Si1 0.068575 0.981476 0.121441
Si Si2 0.298775 0.178766 0.278025
Si Si3 0.140968 0.373449 0.030500
Si Si4 0.692886 0.566909 0.918164
Si Si5 0.000000 0.500000 0.500000
Si Si6 0.000000 0.175099 0.750000
Si Si7 0.377688 0.065066 0.670563
O O1 0.149753 0.839541 0.151272
O O2 0.039897 0.001937 0.196785
O O3 0.018610 0.778429 0.059812
O O4 0.083380 0.270259 0.079542
O O5 0.261176 0.435981 0.223380
O O6 0.278961 0.008736 0.435191
O O7 0.353705 0.991477 0.246217
O O8 0.184058 0.386967 0.889216
O O9 0.078846 0.560652 0.976031
O O10 0.164579 0.102348 0.991676
O O11 0.635934 0.377427 0.858086
O O12 0.047997 0.393602 0.810408
#
# Coordination Sequence:
#
# PCOD9300419 Si02
#       7
#     8   8   8   8   4   4   8
#     4  11  27  50  80 117 168 222 283 352 427 515
#     4  11  25  45  78 116 158 214 280 346 410 494
#     4  11  28  49  81 120 164 222 280 346 432 514
#     4  11  27  49  84 119 167 214 280 348 424 507
#     4  12  28  48  80 122 168 222 282 346 436 514
#     4  10  26  54  78 124 164 224 288 354 426 518
#     4  11  25  48  79 115 163 214 276 344 421 496
#
# _framework density 30.071155999999998
#
# number of rings (size 3 to 8) (size 9 to 14) (size 15 to 20)
#    0.000    1.000    0.000    3.500   14.000    2.000 
#    3.000    0.000    3.667    0.000    0.000    0.000 
#    0.000    0.000    0.000    0.000    0.000    0.000 
#
# Total GULP energy -133983.871390 kJ/mol
# GULP energy per Si atom -5582.661308 kJ/mol
# Density = 3.000271 g / cm^3
# Si number density = 30.071156 Si / 1000 Ang^3
#
#
#
# Elastic Constant Matrix: (Units=GPa)
#
#
# Indices 1 2 3 4 5 6 
#
# 1 168.1177 20.0606 17.6604 0.0000 -6.7581 0.0000
# 2 20.0606 136.4442 30.2069 0.0002 -0.4636 -0.0001
# 3 17.6604 30.2069 120.1135 0.0000 -12.5227 0.0000
# 4 0.0000 0.0002 0.0000 35.9980 0.0000 -4.3941
# 5 -6.7581 -0.4636 -12.5227 0.0000 58.4450 0.0000
# 6 0.0000 -0.0001 0.0000 -4.3941 0.0000 53.2227
#
#
#
# Elastic Compliance Matrix: (Units=1/GPa)
#
#
# Indices 1 2 3 4 5 6 
#
# 1 0.006129 -0.000755 -0.000653 0.000000 0.000563 0.000000
# 2 -0.000755 0.007862 -0.001911 0.000000 -0.000434 0.000000
# 3 -0.000653 -0.001911 0.009096 0.000000 0.001858 0.000000
# 4 0.000000 0.000000 0.000000 0.028062 0.000000 0.002317
# 5 0.000563 -0.000434 0.001858 0.000000 0.017570 0.000000
# 6 0.000000 0.000000 0.000000 0.002317 0.000000 0.018980
#
#
# Mechanical properties :
#
#
# Convention : Reuss Voigt Hill
#
# Bulk Modulus (GPa) = 60.79331 62.28126 61.53728
# Shear Modulus (GPa) = 50.09007 53.31630 51.70319
#
# Velocity S-wave (km/s) = 4.08575 4.21527 4.15102
# Velocity P-wave (km/s) = 6.52060 6.66691 6.59416
#
# Compressibility (1/GPa) = 0.01644918
#
# Stress axis : x y z
#
# Youngs Moduli (GPa) = 163.14626 127.19956 109.93999
#
# Poissons Ratio (x) = 0.09601 0.07176
# Poissons Ratio (y) = 0.12314 0.21014
# Poissons Ratio (z) = 0.10649 0.24313
#
# Static dielectric constant tensor:
#      x y z
#    x 1.590890 0.000000 -0.532190 
#    y 0.000000 1.840500 0.000000 
#    z -0.532190 0.000000 2.369060 
# 
# From -- ./inp_files/217500.got.cif
#   From: 2010.05.17/outbox.cif.g08.bks.cpg/sg15_109_cif.got.tgz:217500.got - 2010.06.03 18:47:42.
