data_PCOD9300485
_publ_section_title
;
Structure prediction by ZEFSAII (Michael W. Deem and Ramdas Pophale) SiO2 
 PCOD9300485
Probable space group: C 2/C
;
_chemical_formula_sum "Si O2"
_cell_formula_units_Z 48
_cell_length_a 12.110459
_cell_length_b 12.191302
_cell_length_c 27.881917
_cell_angle_alpha 90.000000
_cell_angle_beta 153.002960
_cell_angle_gamma 90.000000
_cell_volume 1868.684793
_symmetry_space_group_name_H-M "C 2/C"
_symmetry_group_IT_number 15
_symmetry_cell_setting 'monoclinic'
loop_
_space_group_symop_operation_xyz
x,y,z
-x,y,1/2-z
-x,-y,-z
x,-y,1/2+z
1/2+x,1/2+y,z
1/2-x,1/2+y,1/2-z
1/2-x,1/2-y,-z
1/2+x,1/2-y,1/2+z
loop_
_atom_site_type_symbol
_atom_site_label
_atom_site_fract_x
_atom_site_fract_y
_atom_site_fract_z
Si Si1 0.762167 0.439210 0.136506
Si Si2 0.044284 0.063250 0.400242
Si Si3 0.553766 0.150432 0.593134
Si Si4 0.301424 0.337161 0.911996
Si Si5 0.208575 0.071438 0.290606
Si Si6 0.847261 0.365167 0.477728
O O1 0.603300 0.504221 0.114624
O O2 0.843658 0.549478 0.139772
O O3 0.000000 0.383456 0.250000
O O4 0.578930 0.365289 0.035786
O O5 0.279136 0.135910 0.505695
O O6 0.165410 0.959041 0.420989
O O7 0.884698 0.115211 0.296230
O O8 0.678484 0.269884 0.631053
O O9 0.712384 0.058037 0.680968
O O10 0.542439 0.114375 0.532624
O O11 0.215638 0.250060 0.917975
O O12 0.000000 0.078632 0.250000
O O13 0.439061 0.134933 0.401179
#
# Coordination Sequence:
#
# PCOD9300485 Si02
#       6
#     8   8   8   8   8   8
#     4  11  26  43  58  81 122 168 202 238 289 350
#     4  11  21  36  63  96 120 149 195 244 299 356
#     4   9  19  36  63  91 112 153 191 245 302 339
#     4   9  22  45  62  76 124 157 202 247 288 346
#     4  11  15  30  59  97 127 139 176 249 306 352
#     4   9  19  36  63  91 112 153 191 245 302 339
#
# _framework density 25.686516000000001
#
# number of rings (size 3 to 8) (size 9 to 14) (size 15 to 20)
#    1.000    1.000    3.333    1.000    0.000   10.667 
#    0.000    3.333    0.000    0.000    0.000    0.000 
#    0.000    0.000    0.000    0.000    0.000    0.000 
#
# Total GULP energy -134031.672022 kJ/mol
# GULP energy per Si atom -5584.653001 kJ/mol
# Density = 2.562805 g / cm^3
# Si number density = 25.686516 Si / 1000 Ang^3
#
#
#
# Elastic Constant Matrix: (Units=GPa)
#
#
# Indices 1 2 3 4 5 6 
#
# 1 71.1875 -0.2433 12.2503 -0.0002 3.2303 0.0000
# 2 -0.2433 77.1215 -26.3703 -0.0001 -2.8451 0.0000
# 3 12.2503 -26.3703 91.8991 -0.0022 -8.6857 0.0008
# 4 -0.0002 -0.0001 -0.0022 6.0375 -0.0003 5.3078
# 5 3.2303 -2.8451 -8.6857 -0.0003 22.6703 0.0000
# 6 0.0000 0.0000 0.0008 5.3078 0.0000 9.5932
#
#
#
# Elastic Compliance Matrix: (Units=1/GPa)
#
#
# Indices 1 2 3 4 5 6 
#
# 1 0.014621 -0.000931 -0.002515 -0.000001 -0.003164 0.000001
# 2 -0.000931 0.014711 0.004703 0.000005 0.003781 -0.000003
# 3 -0.002515 0.004703 0.013131 0.000012 0.005980 -0.000008
# 4 -0.000001 0.000005 0.000012 0.322505 0.000009 -0.178439
# 5 -0.003164 0.003781 0.005980 0.000009 0.047327 -0.000006
# 6 0.000001 -0.000003 -0.000008 -0.178439 -0.000006 0.202970
#
#
# Mechanical properties :
#
#
# Convention : Reuss Voigt Hill
#
# Bulk Modulus (GPa) = 22.23341 23.49793 22.86567
# Shear Modulus (GPa) = 7.96504 24.63161 16.29833
#
# Velocity S-wave (km/s) = 1.76284 3.10002 2.52168
# Velocity P-wave (km/s) = 3.58021 4.68843 4.17129
#
# Compressibility (1/GPa) = 0.04497736
#
# Stress axis : x y z
#
# Youngs Moduli (GPa) = 68.39680 67.97592 76.15386
#
# Poissons Ratio (x) = 0.06325 0.19152
# Poissons Ratio (y) = 0.06365 -0.35813
# Poissons Ratio (z) = 0.17201 -0.31967
#
# Static dielectric constant tensor:
#      x y z
#    x 2.120880 0.000000 -0.044360 
#    y 0.000000 2.159540 0.000000 
#    z -0.044360 0.000000 2.002500 
# 
# From -- ./inp_files/293136.got.cif
#   From: 2010.05.17/outbox.cif.g08.bks.cpg/sg15_147_cif.got.tgz:293136.got - 2010.06.03 18:47:42.
