data_PCOD9300375
_publ_section_title
;
Structure prediction by ZEFSAII (Michael W. Deem and Ramdas Pophale) SiO2 
 PCOD9300375
Probable space group: C 2/C
;
_chemical_formula_sum "Si O2"
_cell_formula_units_Z 32
_cell_length_a 19.860971
_cell_length_b 8.801451
_cell_length_c 7.045625
_cell_angle_alpha 90.000000
_cell_angle_beta 109.340005
_cell_angle_gamma 90.000000
_cell_volume 1162.113051
_symmetry_space_group_name_H-M "C 2/C"
_symmetry_group_IT_number 15
_symmetry_cell_setting 'monoclinic'
loop_
_space_group_symop_operation_xyz
x,y,z
-x,y,1/2-z
-x,-y,-z
x,-y,1/2+z
1/2+x,1/2+y,z
1/2-x,1/2+y,1/2-z
1/2-x,1/2-y,-z
1/2+x,1/2-y,1/2+z
loop_
_atom_site_type_symbol
_atom_site_label
_atom_site_fract_x
_atom_site_fract_y
_atom_site_fract_z
Si Si1 0.671963 0.840266 0.518135
Si Si2 0.207368 0.089241 0.818716
Si Si3 0.126091 0.810001 0.600730
Si Si4 0.515420 0.823393 0.482590
O O1 0.714025 0.696021 0.641796
O O2 0.643208 0.813160 0.279650
O O3 0.600674 0.824391 0.581526
O O4 0.721831 0.987013 0.586442
O O5 0.318249 0.318268 0.020727
O O6 0.142190 0.971426 0.715821
O O7 0.044938 0.774377 0.464897
O O8 0.500000 0.777856 0.250000
O O9 0.500000 0.000000 0.500000
#
# Coordination Sequence:
#
# PCOD9300375 Si02
#       4
#     8   8   8   8
#     4  11  28  51  75 125 158 209 276 325 415 478
#     4  12  27  48  84 115 164 212 263 343 400 482
#     4  11  26  50  78 115 158 211 269 329 401 482
#     4  10  26  50  77 113 160 209 268 332 403 484
#
# _framework density 27.536045000000001
#
# number of rings (size 3 to 8) (size 9 to 14) (size 15 to 20)
#    0.000    1.000    2.500    0.750    7.000    6.000 
#    4.500    0.000    0.000    0.000    0.000    0.000 
#    0.000    0.000    0.000    0.000    0.000    0.000 
#
# Total GULP energy -89600.315643 kJ/mol
# GULP energy per Si atom -5600.019728 kJ/mol
# Density = 2.747337 g / cm^3
# Si number density = 27.536045 Si / 1000 Ang^3
#
#
#
# Elastic Constant Matrix: (Units=GPa)
#
#
# Indices 1 2 3 4 5 6 
#
# 1 235.8668 67.9615 65.2048 0.0000 34.2986 0.0000
# 2 67.9615 137.2462 57.5351 0.0000 11.7514 0.0000
# 3 65.2048 57.5351 149.0643 0.0000 7.7627 0.0000
# 4 0.0000 0.0000 0.0000 42.2892 0.0000 -2.4686
# 5 34.2986 11.7514 7.7627 0.0000 63.0317 0.0000
# 6 0.0000 0.0000 0.0000 -2.4686 0.0000 63.3069
#
#
#
# Elastic Compliance Matrix: (Units=1/GPa)
#
#
# Indices 1 2 3 4 5 6 
#
# 1 0.005584 -0.001888 -0.001584 0.000000 -0.002491 0.000000
# 2 -0.001888 0.009424 -0.002792 0.000000 -0.000386 0.000000
# 3 -0.001584 -0.002792 0.008461 0.000000 0.000340 0.000000
# 4 0.000000 0.000000 0.000000 0.023701 0.000000 0.000924
# 5 -0.002491 -0.000386 0.000340 0.000000 0.017251 0.000000
# 6 0.000000 0.000000 0.000000 0.000924 0.000000 0.015832
#
#
# Mechanical properties :
#
#
# Convention : Reuss Voigt Hill
#
# Bulk Modulus (GPa) = 91.38826 100.39777 95.89301
# Shear Modulus (GPa) = 51.85254 55.82396 53.83825
#
# Velocity S-wave (km/s) = 4.34415 4.50745 4.42655
# Velocity P-wave (km/s) = 7.64349 7.97678 7.81191
#
# Compressibility (1/GPa) = 0.01094232
#
# Stress axis : x y z
#
# Youngs Moduli (GPa) = 179.08997 106.10939 118.18499
#
# Poissons Ratio (x) = 0.20029 0.18723
# Poissons Ratio (y) = 0.33804 0.32994
# Poissons Ratio (z) = 0.28372 0.29623
#
# Static dielectric constant tensor:
#      x y z
#    x 2.335540 0.000000 0.041270 
#    y 0.000000 2.119920 0.000000 
#    z 0.041270 0.000000 2.225420 
# 
# From -- ./inp_files/102235.got.cif
#   From: 2010.05.17/outbox.cif.g08.bks.cpg/sg15_52_cif.got.tgz:102235.got - 2010.06.03 18:47:42.
