data_PCOD9300312
_publ_section_title
;
Structure prediction by ZEFSAII (Michael W. Deem and Ramdas Pophale) SiO2 
 PCOD9300312
Probable space group: C 2/C
;
_chemical_formula_sum "Si O2"
_cell_formula_units_Z 28
_cell_length_a 31.266635
_cell_length_b 4.584472
_cell_length_c 8.721980
_cell_angle_alpha 90.000000
_cell_angle_beta 55.218290
_cell_angle_gamma 90.000000
_cell_volume 1026.842784
_symmetry_space_group_name_H-M "C 2/C"
_symmetry_group_IT_number 15
_symmetry_cell_setting 'monoclinic'
loop_
_space_group_symop_operation_xyz
x,y,z
-x,y,1/2-z
-x,-y,-z
x,-y,1/2+z
1/2+x,1/2+y,z
1/2-x,1/2+y,1/2-z
1/2-x,1/2-y,-z
1/2+x,1/2-y,1/2+z
loop_
_atom_site_type_symbol
_atom_site_label
_atom_site_fract_x
_atom_site_fract_y
_atom_site_fract_z
Si Si1 0.500000 0.886396 0.750000
Si Si2 0.857609 0.706079 0.310334
Si Si3 0.713899 0.152822 0.311514
Si Si4 0.933649 0.226797 0.155635
O O1 0.538946 0.099083 0.762818
O O2 0.525520 0.685092 0.565968
O O3 0.817907 0.802040 0.260123
O O4 0.824729 0.533988 0.504433
O O5 0.893946 0.458797 0.163491
O O6 0.897580 0.957785 0.278863
O O7 0.755461 0.913303 0.167971
#
# Coordination Sequence:
#
# PCOD9300312 Si02
#       4
#     4   8   8   8
#     4  10  26  48  76 108 148 192 240 304 366 436
#     4  12  26  46  74 108 146 192 244 300 362 436
#     4  12  25  46  74 107 148 193 242 300 365 434
#     4  11  26  47  74 108 146 190 244 299 366 433
#
# _framework density 27.268049000000001
#
# number of rings (size 3 to 8) (size 9 to 14) (size 15 to 20)
#    0.000    0.571    0.000    6.857    0.000   13.714 
#    0.000    2.857    0.000    0.000    0.000    0.000 
#    0.000    0.000    0.000    0.000    0.000    0.000 
#
# Total GULP energy -78551.692930 kJ/mol
# GULP energy per Si atom -5610.835209 kJ/mol
# Density = 2.720599 g / cm^3
# Si number density = 27.268049 Si / 1000 Ang^3
#
#
#
# Elastic Constant Matrix: (Units=GPa)
#
#
# Indices 1 2 3 4 5 6 
#
# 1 142.8185 43.8415 52.3677 0.0000 -1.6504 0.0000
# 2 43.8415 128.7574 33.3892 0.0000 -21.7562 0.0000
# 3 52.3677 33.3892 165.0501 0.0000 -5.5343 0.0000
# 4 0.0000 0.0000 0.0000 24.3808 0.0000 14.1799
# 5 -1.6504 -21.7562 -5.5343 0.0000 28.4143 0.0000
# 6 0.0000 0.0000 0.0000 14.1799 0.0000 20.3745
#
#
#
# Elastic Compliance Matrix: (Units=1/GPa)
#
#
# Indices 1 2 3 4 5 6 
#
# 1 0.008634 -0.002691 -0.002262 0.000000 -0.002000 0.000000
# 2 -0.002691 0.010192 -0.000958 0.000000 0.007461 0.000000
# 3 -0.002262 -0.000958 0.006987 0.000000 0.000496 0.000000
# 4 0.000000 0.000000 0.000000 0.068908 0.000000 -0.047957
# 5 -0.002000 0.007461 0.000496 0.000000 0.040887 0.000000
# 6 0.000000 0.000000 0.000000 -0.047957 0.000000 0.082458
#
#
# Mechanical properties :
#
#
# Convention : Reuss Voigt Hill
#
# Bulk Modulus (GPa) = 71.47499 77.31364 74.39431
# Shear Modulus (GPa) = 21.31729 35.10243 28.20986
#
# Velocity S-wave (km/s) = 2.79905 3.59180 3.21991
# Velocity P-wave (km/s) = 6.05930 6.75397 6.41604
#
# Compressibility (1/GPa) = 0.01399091
#
# Stress axis : x y z
#
# Youngs Moduli (GPa) = 115.81575 98.11673 143.12500
#
# Poissons Ratio (x) = 0.26406 0.32377
# Poissons Ratio (y) = 0.31169 0.13708
# Poissons Ratio (z) = 0.26200 0.09397
#
# Static dielectric constant tensor:
#      x y z
#    x 2.125040 0.000000 -0.124440 
#    y 0.000000 2.069040 0.000000 
#    z -0.124440 0.000000 2.128690 
# 
# From -- ./inp_files/64280.got.cif
#   From: 2010.05.17/outbox.cif.g08.bks.cpg/sg15_33_cif.got.tgz:64280.got - 2010.06.03 18:47:42.
