data_PCOD9300563
_publ_section_title
;
Structure prediction by ZEFSAII (Michael W. Deem and Ramdas Pophale) SiO2 
 PCOD9300563
Probable space group: C 2/C
;
_chemical_formula_sum "Si O2"
_cell_formula_units_Z 32
_cell_length_a 13.066949
_cell_length_b 18.895723
_cell_length_c 8.785056
_cell_angle_alpha 90.000000
_cell_angle_beta 133.971998
_cell_angle_gamma 90.000000
_cell_volume 1561.065777
_symmetry_space_group_name_H-M "C 2/C"
_symmetry_group_IT_number 15
_symmetry_cell_setting 'monoclinic'
loop_
_space_group_symop_operation_xyz
x,y,z
-x,y,1/2-z
-x,-y,-z
x,-y,1/2+z
1/2+x,1/2+y,z
1/2-x,1/2+y,1/2-z
1/2-x,1/2-y,-z
1/2+x,1/2-y,1/2+z
loop_
_atom_site_type_symbol
_atom_site_label
_atom_site_fract_x
_atom_site_fract_y
_atom_site_fract_z
Si Si1 0.843769 0.380648 0.006007
Si Si2 0.966850 0.276089 0.894613
Si Si3 0.253122 0.668432 0.794610
Si Si4 0.609320 0.033470 0.493627
O O1 0.738284 0.343607 0.015923
O O2 0.802094 0.463238 0.956237
O O3 0.000000 0.380610 0.250000
O O4 0.872993 0.338740 0.878997
O O5 0.886609 0.204113 0.853235
O O6 0.000000 0.282778 0.750000
O O7 0.119569 0.279876 0.131037
O O8 0.202124 0.595978 0.659699
O O9 0.500000 0.058135 0.250000
O O10 0.500000 0.000000 0.500000
#
# Coordination Sequence:
#
# PCOD9300563 Si02
#       4
#     8   8   8   8
#     4   9  19  35  58  84 111 151 192 240 280 334
#     4  11  22  36  56  86 120 149 188 238 288 339
#     4  11  22  37  59  87 115 152 189 237 289 341
#     4  11  18  34  61  87 110 143 201 240 275 326
#
# _framework density 20.498816999999999
#
# number of rings (size 3 to 8) (size 9 to 14) (size 15 to 20)
#    0.000    1.500    7.500    2.250    0.000    0.000 
#    0.000    0.000    0.000    6.000    0.000    0.000 
#    0.000    0.000    0.000    0.000    0.000    0.000 
#
# Total GULP energy -89218.668465 kJ/mol
# GULP energy per Si atom -5576.166779 kJ/mol
# Density = 2.045216 g / cm^3
# Si number density = 20.498817 Si / 1000 Ang^3
#
#
#
# Elastic Constant Matrix: (Units=GPa)
#
#
# Indices 1 2 3 4 5 6 
#
# 1 117.8839 74.0617 46.8569 0.0000 -38.6132 0.0000
# 2 74.0617 136.3623 43.2815 0.0000 -17.6292 0.0000
# 3 46.8569 43.2815 41.4202 0.0000 -29.8440 0.0000
# 4 0.0000 0.0000 0.0000 30.2187 0.0000 3.2959
# 5 -38.6132 -17.6292 -29.8440 0.0000 33.9620 0.0000
# 6 0.0000 0.0000 0.0000 3.2959 0.0000 28.6241
#
#
#
# Elastic Compliance Matrix: (Units=1/GPa)
#
#
# Indices 1 2 3 4 5 6 
#
# 1 0.019644 -0.007812 -0.002422 0.000000 0.016151 0.000000
# 2 -0.007812 0.016198 -0.022979 0.000000 -0.020667 0.000000
# 3 -0.002422 -0.022979 0.109899 0.000000 0.081891 0.000000
# 4 0.000000 0.000000 0.000000 0.033513 0.000000 -0.003859
# 5 0.016151 -0.020667 0.081891 0.000000 0.109041 0.000000
# 6 0.000000 0.000000 0.000000 -0.003859 0.000000 0.035380
#
#
# Mechanical properties :
#
#
# Convention : Reuss Voigt Hill
#
# Bulk Modulus (GPa) = 12.60819 69.34074 40.97447
# Shear Modulus (GPa) = 12.00360 27.32538 19.66449
#
# Velocity S-wave (km/s) = 2.42249 3.65502 3.10061
# Velocity P-wave (km/s) = 3.74014 7.19113 5.73154
#
# Compressibility (1/GPa) = 0.07931352
#
# Stress axis : x y z
#
# Youngs Moduli (GPa) = 50.90582 61.73493 9.09923
#
# Poissons Ratio (x) = 0.48230 0.02204
# Poissons Ratio (y) = 0.39770 0.20909
# Poissons Ratio (z) = 0.12331 1.41863
#
# Static dielectric constant tensor:
#      x y z
#    x 1.790570 0.000000 -0.086540 
#    y 0.000000 1.866430 0.000000 
#    z -0.086540 0.000000 1.764250 
# 
# From -- ./inp_files/29921.got.cif
#   From: 2010.05.17/outbox.cif.g08.bks.cpg/sg15_15_cif.got.tgz:29921.got - 2010.06.03 18:47:42.
