data_PCOD9300080
_publ_section_title
;
Structure prediction by ZEFSAII (Michael W. Deem and Ramdas Pophale) SiO2 
 PCOD9300080
Probable space group: C 2/C
;
_chemical_formula_sum "Si O2"
_cell_formula_units_Z 60
_cell_length_a 19.630713
_cell_length_b 15.216554
_cell_length_c 25.218198
_cell_angle_alpha 90.000000
_cell_angle_beta 20.520835
_cell_angle_gamma 90.000000
_cell_volume 2640.668536
_symmetry_space_group_name_H-M "C 2/C"
_symmetry_group_IT_number 15
_symmetry_cell_setting 'monoclinic'
loop_
_space_group_symop_operation_xyz
x,y,z
-x,y,1/2-z
-x,-y,-z
x,-y,1/2+z
1/2+x,1/2+y,z
1/2-x,1/2+y,1/2-z
1/2-x,1/2-y,-z
1/2+x,1/2-y,1/2+z
loop_
_atom_site_type_symbol
_atom_site_label
_atom_site_fract_x
_atom_site_fract_y
_atom_site_fract_z
Si Si1 0.683761 0.105410 0.654197
Si Si2 0.848710 0.710738 0.072092
Si Si3 0.921281 0.800979 0.404272
Si Si4 0.705950 0.990838 0.742294
Si Si5 0.763035 0.295773 0.758271
Si Si6 0.501296 0.478098 0.111517
Si Si7 0.500000 0.401673 0.250000
Si Si8 0.788789 0.520949 0.080794
O O1 0.500000 0.105004 0.750000
O O2 0.734780 0.202799 0.636495
O O3 0.657546 0.041704 0.723975
O O4 0.868069 0.063765 0.489771
O O5 0.797178 0.691690 0.170799
O O6 0.796060 0.626289 0.074857
O O7 0.077440 0.733176 0.901399
O O8 0.750000 0.750000 0.500000
O O9 0.049611 0.836919 0.261737
O O10 0.047289 0.744554 0.352420
O O11 0.868632 0.892795 0.471009
O O12 0.771444 0.890154 0.689465
O O13 0.878613 0.038413 0.647773
O O14 0.510326 0.990057 0.920042
O O15 0.341857 0.495096 0.273373
O O16 0.681308 0.468230 0.111596
#
# Coordination Sequence:
#
# PCOD9300080 Si02
#       8
#     8   8   8   8   8   8   4   8
#     4  12  29  46  72 105 152 189 236 299 378 432
#     4  12  25  51  70 111 134 196 242 303 351 429
#     4  11  26  43  68 102 144 186 234 294 358 428
#     4  12  25  48  74 109 141 196 236 301 364 432
#     4  12  28  44  77 104 146 186 251 291 358 431
#     4  11  24  48  71 107 141 191 244 297 361 437
#     4  10  26  44  66 108 140 186 232 300 360 416
#     4  11  24  44  78 102 142 182 251 293 356 419
#
# _framework density 22.721519000000001
#
# number of rings (size 3 to 8) (size 9 to 14) (size 15 to 20)
#    0.000    0.533    2.667    4.000   14.000    0.000 
#    0.000    2.000    0.000    0.000    0.000    0.000 
#    0.000    0.000    0.000    0.000    0.000    0.000 
#
# Total GULP energy -167863.375356 kJ/mol
# GULP energy per Si atom -5595.445845 kJ/mol
# Density = 2.266980 g / cm^3
# Si number density = 22.721519 Si / 1000 Ang^3
#
#
#
# Elastic Constant Matrix: (Units=GPa)
#
#
# Indices 1 2 3 4 5 6 
#
# 1 88.9582 25.2191 9.7141 -0.0209 -26.7475 0.0230
# 2 25.2191 117.5990 6.9964 0.0354 -17.0428 0.0172
# 3 9.7141 6.9964 82.4777 0.0359 -13.4582 -0.0162
# 4 -0.0209 0.0354 0.0359 31.4922 -0.0296 -5.0614
# 5 -26.7475 -17.0428 -13.4582 -0.0296 40.1578 0.0228
# 6 0.0230 0.0172 -0.0162 -5.0614 0.0228 36.5652
#
#
#
# Elastic Compliance Matrix: (Units=1/GPa)
#
#
# Indices 1 2 3 4 5 6 
#
# 1 0.014410 -0.001809 -0.000109 0.000018 0.008794 -0.000011
# 2 -0.001809 0.009290 -0.000136 -0.000010 0.002692 -0.000006
# 3 -0.000109 -0.000136 0.012829 -0.000010 0.004169 0.000002
# 4 0.000018 -0.000010 -0.000010 0.032476 0.000026 0.004495
# 5 0.008794 0.002692 0.004169 0.000026 0.033299 -0.000022
# 6 -0.000011 -0.000006 0.000002 0.004495 -0.000022 0.027971
#
#
# Mechanical properties :
#
#
# Convention : Reuss Voigt Hill
#
# Bulk Modulus (GPa) = 30.84402 41.43269 36.13835
# Shear Modulus (GPa) = 34.43775 38.11673 36.27724
#
# Velocity S-wave (km/s) = 3.89735 4.10025 4.00009
# Velocity P-wave (km/s) = 5.81865 6.37892 6.10522
#
# Compressibility (1/GPa) = 0.03242120
#
# Stress axis : x y z
#
# Youngs Moduli (GPa) = 69.39577 107.64628 77.94744
#
# Poissons Ratio (x) = 0.19477 0.00848
# Poissons Ratio (y) = 0.12556 0.01058
# Poissons Ratio (z) = 0.00755 0.01460
#
# Static dielectric constant tensor:
#      x y z
#    x 1.879370 0.000000 0.039460 
#    y 0.000000 1.833850 0.000030 
#    z 0.039460 0.000030 1.854570 
# 
# From -- ./inp_files/301174.got.cif
#   From: 2010.05.17/outbox.cif.g08.bks.cpg/sg15_151_cif.got.tgz:301174.got - 2010.06.03 18:47:42.
