data_PCOD9300445
_publ_section_title
;
Structure prediction by ZEFSAII (Michael W. Deem and Ramdas Pophale) SiO2 
 PCOD9300445
Probable space group: C 2/C
;
_chemical_formula_sum "Si O2"
_cell_formula_units_Z 52
_cell_length_a 11.666811
_cell_length_b 27.356582
_cell_length_c 7.745686
_cell_angle_alpha 90.000000
_cell_angle_beta 57.188756
_cell_angle_gamma 90.000000
_cell_volume 2077.739412
_symmetry_space_group_name_H-M "C 2/C"
_symmetry_group_IT_number 15
_symmetry_cell_setting 'monoclinic'
loop_
_space_group_symop_operation_xyz
x,y,z
-x,y,1/2-z
-x,-y,-z
x,-y,1/2+z
1/2+x,1/2+y,z
1/2-x,1/2+y,1/2-z
1/2-x,1/2-y,-z
1/2+x,1/2-y,1/2+z
loop_
_atom_site_type_symbol
_atom_site_label
_atom_site_fract_x
_atom_site_fract_y
_atom_site_fract_z
Si Si1 0.000000 0.126079 0.750000
Si Si2 0.695438 0.548360 0.673808
Si Si3 0.450588 0.197224 0.593603
Si Si4 0.113191 0.161175 0.303581
Si Si5 0.268594 0.442526 0.759264
Si Si6 0.976940 0.588462 0.568054
Si Si7 0.701185 0.247769 0.239594
O O1 0.914384 0.089432 0.694659
O O2 0.069950 0.157727 0.542822
O O3 0.663757 0.491658 0.725128
O O4 0.708311 0.557637 0.461659
O O5 0.836261 0.561344 0.649790
O O6 0.500000 0.200340 0.750000
O O7 0.475387 0.143374 0.493305
O O8 0.542726 0.236922 0.412489
O O9 0.286817 0.205402 0.734485
O O10 0.177164 0.108050 0.207430
O O11 0.226343 0.203060 0.218449
O O12 0.000000 0.171993 0.250000
O O13 0.105494 0.443052 0.906692
O O14 0.000000 0.595812 0.750000
O O15 0.750000 0.250000 0.000000
#
# Coordination Sequence:
#
# PCOD9300445 Si02
#       7
#     4   8   8   8   8   8   8
#     4  10  28  44  70 114 142 202 246 304 378 444
#     4  11  25  41  70  99 148 188 246 305 361 448
#     4  11  26  46  75 105 144 189 249 304 378 454
#     4  11  27  47  76 103 154 193 246 309 372 455
#     4  11  24  44  68 106 143 191 247 299 371 433
#     4  11  24  43  71 103 141 191 242 308 368 440
#     4  12  27  47  74 110 145 193 245 311 381 452
#
# _framework density 25.027201000000002
#
# number of rings (size 3 to 8) (size 9 to 14) (size 15 to 20)
#    0.000    0.923    1.538    3.231   11.846    2.462 
#    0.000    0.000    0.000    0.000    0.000    0.000 
#    0.000    0.000    0.000    0.000    0.000    0.000 
#
# Total GULP energy -145403.487668 kJ/mol
# GULP energy per Si atom -5592.441833 kJ/mol
# Density = 2.497024 g / cm^3
# Si number density = 25.027201 Si / 1000 Ang^3
#
#
#
# Elastic Constant Matrix: (Units=GPa)
#
#
# Indices 1 2 3 4 5 6 
#
# 1 89.7988 31.9387 11.1628 0.0000 -1.8144 0.0000
# 2 31.9387 115.5956 -0.1475 0.0000 0.2336 0.0000
# 3 11.1628 -0.1475 63.1671 0.0000 -6.8515 0.0000
# 4 0.0000 0.0000 0.0000 27.1693 0.0000 -2.6874
# 5 -1.8144 0.2336 -6.8515 0.0000 34.6405 0.0000
# 6 0.0000 0.0000 0.0000 -2.6874 0.0000 34.4558
#
#
#
# Elastic Compliance Matrix: (Units=1/GPa)
#
#
# Indices 1 2 3 4 5 6 
#
# 1 0.012662 -0.003502 -0.002219 0.000000 0.000248 0.000000
# 2 -0.003502 0.009619 0.000628 0.000000 -0.000124 0.000000
# 3 -0.002219 0.000628 0.016567 0.000000 0.003156 0.000000
# 4 0.000000 0.000000 0.000000 0.037092 0.000000 0.002893
# 5 0.000248 -0.000124 0.003156 0.000000 0.029506 0.000000
# 6 0.000000 0.000000 0.000000 0.002893 0.000000 0.029248
#
#
# Mechanical properties :
#
#
# Convention : Reuss Voigt Hill
#
# Bulk Modulus (GPa) = 34.88845 39.38552 37.13698
# Shear Modulus (GPa) = 32.37588 34.29360 33.33474
#
# Velocity S-wave (km/s) = 3.60061 3.70571 3.65354
# Velocity P-wave (km/s) = 5.59073 5.83789 5.71565
#
# Compressibility (1/GPa) = 0.02866278
#
# Stress axis : x y z
#
# Youngs Moduli (GPa) = 78.97413 103.95588 60.36104
#
# Poissons Ratio (x) = 0.36404 0.13394
# Poissons Ratio (y) = 0.27656 -0.03790
# Poissons Ratio (z) = 0.17524 -0.06527
#
# Static dielectric constant tensor:
#      x y z
#    x 1.292350 0.000000 -0.024690 
#    y 0.000000 1.884930 0.000000 
#    z -0.024690 0.000000 1.871770 
# 
# From -- ./inp_files/34090.got.cif
#   From: 2010.05.17/outbox.cif.g08.bks.cpg/sg15_18_cif.got.tgz:34090.got - 2010.06.03 18:47:42.
