data_PCOD9300428
_publ_section_title
;
Structure prediction by ZEFSAII (Michael W. Deem and Ramdas Pophale) SiO2 
 PCOD9300428
Probable space group: C 2/C
;
_chemical_formula_sum "Si O2"
_cell_formula_units_Z 40
_cell_length_a 19.304350
_cell_length_b 4.862069
_cell_length_c 17.251913
_cell_angle_alpha 90.000000
_cell_angle_beta 85.814700
_cell_angle_gamma 90.000000
_cell_volume 1614.930555
_symmetry_space_group_name_H-M "C 2/C"
_symmetry_group_IT_number 15
_symmetry_cell_setting 'monoclinic'
loop_
_space_group_symop_operation_xyz
x,y,z
-x,y,1/2-z
-x,-y,-z
x,-y,1/2+z
1/2+x,1/2+y,z
1/2-x,1/2+y,1/2-z
1/2-x,1/2-y,-z
1/2+x,1/2-y,1/2+z
loop_
_atom_site_type_symbol
_atom_site_label
_atom_site_fract_x
_atom_site_fract_y
_atom_site_fract_z
Si Si1 0.195987 0.342754 0.438379
Si Si2 0.126616 0.940037 0.329110
Si Si3 0.467717 0.940635 0.168599
Si Si4 0.677978 0.576415 0.156490
Si Si5 0.607852 0.073556 0.084238
O O1 0.250000 0.250000 0.500000
O O2 0.167970 0.077325 0.395868
O O3 0.243714 0.524309 0.377896
O O4 0.134917 0.473265 0.495112
O O5 0.056733 0.126630 0.330104
O O6 0.167779 0.996659 0.246367
O O7 0.099910 0.630006 0.336705
O O8 0.500000 0.004188 0.250000
O O9 0.527675 0.006061 0.102727
O O10 0.626861 0.380584 0.110189
O O11 0.652394 0.880810 0.138664
#
# Coordination Sequence:
#
# PCOD9300428 Si02
#       5
#     8   8   8   8   8
#     4  10  27  46  66 100 141 180 227 281 339 404
#     4  12  25  42  73 103 131 184 231 279 344 406
#     4  12  23  43  72 104 137 172 233 287 338 408
#     4  11  22  43  69  96 133 180 228 277 335 407
#     4  11  23  43  70  97 139 178 216 285 345 395
#
# _framework density 24.768867
#
# number of rings (size 3 to 8) (size 9 to 14) (size 15 to 20)
#    0.000    0.800    4.000    2.400    0.000   12.800 
#    0.000    0.000    0.000    0.000    0.000    0.000 
#    0.000    0.000    0.000    0.000    0.000    0.000 
#
# Total GULP energy -112176.418075 kJ/mol
# GULP energy per Si atom -5608.820904 kJ/mol
# Density = 2.471249 g / cm^3
# Si number density = 24.768867 Si / 1000 Ang^3
#
#
#
# Elastic Constant Matrix: (Units=GPa)
#
#
# Indices 1 2 3 4 5 6 
#
# 1 110.0798 -5.5000 44.6040 0.0000 -22.5858 0.0000
# 2 -5.5000 59.1785 -12.4788 0.0000 -5.1985 0.0000
# 3 44.6040 -12.4788 138.7588 0.0000 -24.5726 0.0000
# 4 0.0000 0.0000 0.0000 33.4149 0.0000 -0.6034
# 5 -22.5858 -5.1985 -24.5726 0.0000 63.0894 0.0000
# 6 0.0000 0.0000 0.0000 -0.6034 0.0000 38.7678
#
#
#
# Elastic Compliance Matrix: (Units=1/GPa)
#
#
# Indices 1 2 3 4 5 6 
#
# 1 0.010884 0.000637 -0.002945 0.000000 0.002802 0.000000
# 2 0.000637 0.017544 0.001793 0.000000 0.002372 0.000000
# 3 -0.002945 0.001793 0.008758 0.000000 0.002505 0.000000
# 4 0.000000 0.000000 0.000000 0.029935 0.000000 0.000466
# 5 0.002802 0.002372 0.002505 0.000000 0.018025 0.000000
# 6 0.000000 0.000000 0.000000 0.000466 0.000000 0.025802
#
#
# Mechanical properties :
#
#
# Convention : Reuss Voigt Hill
#
# Bulk Modulus (GPa) = 27.65853 40.14083 33.89968
# Shear Modulus (GPa) = 40.31251 45.81389 43.06320
#
# Velocity S-wave (km/s) = 4.03866 4.30543 4.17418
# Velocity P-wave (km/s) = 5.73922 6.39976 6.07847
#
# Compressibility (1/GPa) = 0.03615521
#
# Stress axis : x y z
#
# Youngs Moduli (GPa) = 91.87410 57.00065 114.17702
#
# Poissons Ratio (x) = -0.03629 0.33629
# Poissons Ratio (y) = -0.05849 -0.20473
# Poissons Ratio (z) = 0.27060 -0.10221
#
# Static dielectric constant tensor:
#      x y z
#    x 1.956600 0.000000 -0.009660 
#    y 0.000000 1.906350 0.000000 
#    z -0.009660 0.000000 1.930250 
# 
# From -- ./inp_files/208012.got.cif
#   From: 2010.05.17/outbox.cif.g08.bks.cpg/sg15_105_cif.got.tgz:208012.got - 2010.06.03 18:47:42.
