data_PCOD9300809
_publ_section_title
;
Structure prediction by ZEFSAII (Michael W. Deem and Ramdas Pophale) SiO2 
 PCOD9300809
Probable space group: C 2/C
;
_chemical_formula_sum "Si O2"
_cell_formula_units_Z 48
_cell_length_a 7.544323
_cell_length_b 19.376851
_cell_length_c 14.405665
_cell_angle_alpha 90.000000
_cell_angle_beta 67.219794
_cell_angle_gamma 90.000000
_cell_volume 1941.629132
_symmetry_space_group_name_H-M "C 2/C"
_symmetry_group_IT_number 15
_symmetry_cell_setting 'monoclinic'
loop_
_space_group_symop_operation_xyz
x,y,z
-x,y,1/2-z
-x,-y,-z
x,-y,1/2+z
1/2+x,1/2+y,z
1/2-x,1/2+y,1/2-z
1/2-x,1/2-y,-z
1/2+x,1/2-y,1/2+z
loop_
_atom_site_type_symbol
_atom_site_label
_atom_site_fract_x
_atom_site_fract_y
_atom_site_fract_z
Si Si1 0.726172 0.243098 0.214913
Si Si2 0.622524 0.874624 0.427706
Si Si3 0.291730 0.548245 0.737963
Si Si4 0.001239 0.874492 0.457411
Si Si5 0.604955 0.598576 0.328189
Si Si6 0.633766 0.771860 0.934355
O O1 0.500000 0.256109 0.250000
O O2 0.829421 0.304415 0.140270
O O3 0.774530 0.166573 0.171548
O O4 0.762715 0.236347 0.317338
O O5 0.625645 0.930109 0.343619
O O6 0.798043 0.898585 0.457325
O O7 0.455115 0.846932 0.529005
O O8 0.500000 0.550860 0.750000
O O9 0.329778 0.601082 0.645864
O O10 0.274525 0.471277 0.703592
O O11 0.033168 0.904142 0.553738
O O12 0.985122 0.791438 0.455990
O O13 0.500000 0.605657 0.250000
O O14 0.750000 0.750000 0.000000
#
# Coordination Sequence:
#
# PCOD9300809 Si02
#       6
#     8   8   8   8   8   8
#     4  12  22  39  62  90 124 159 208 251 304 375
#     4  11  21  41  66  89 122 163 211 256 302 373
#     4   9  20  39  64  91 120 164 210 252 303 376
#     4  11  19  39  65  91 120 163 214 252 302 372
#     4  11  23  38  60  92 130 162 203 257 315 361
#     4  12  24  36  59  96 123 156 202 262 315 359
#
# _framework density 24.721508
#
# number of rings (size 3 to 8) (size 9 to 14) (size 15 to 20)
#    0.000    1.000    5.000    3.500    0.000    0.000 
#    0.000    2.500    0.000    0.000    0.000    0.000 
#    0.000    0.000    0.000    0.000    0.000    0.000 
#
# Total GULP energy -134109.376869 kJ/mol
# GULP energy per Si atom -5587.890703 kJ/mol
# Density = 2.466524 g / cm^3
# Si number density = 24.721508 Si / 1000 Ang^3
#
#
#
# Elastic Constant Matrix: (Units=GPa)
#
#
# Indices 1 2 3 4 5 6 
#
# 1 36.8391 -16.6648 11.7530 0.0000 6.1842 0.0000
# 2 -16.6648 111.4766 16.2822 0.0000 -9.0919 0.0000
# 3 11.7530 16.2822 130.4237 0.0000 33.2193 0.0000
# 4 0.0000 0.0000 0.0000 32.8229 0.0000 0.7964
# 5 6.1842 -9.0919 33.2193 0.0000 19.2082 0.0000
# 6 0.0000 0.0000 0.0000 0.7964 0.0000 17.3295
#
#
#
# Elastic Compliance Matrix: (Units=1/GPa)
#
#
# Indices 1 2 3 4 5 6 
#
# 1 0.030612 0.004668 -0.002491 0.000000 -0.003338 0.000000
# 2 0.004668 0.011449 -0.005089 0.000000 0.012718 0.000000
# 3 -0.002491 -0.005089 0.015972 0.000000 -0.029229 0.000000
# 4 0.000000 0.000000 0.000000 0.030501 0.000000 -0.001402
# 5 -0.003338 0.012718 -0.029229 0.000000 0.109705 0.000000
# 6 0.000000 0.000000 0.000000 -0.001402 0.000000 0.057769
#
#
# Mechanical properties :
#
#
# Convention : Reuss Voigt Hill
#
# Bulk Modulus (GPa) = 19.15429 33.49778 26.32604
# Shear Modulus (GPa) = 17.90606 31.69673 24.80140
#
# Velocity S-wave (km/s) = 2.69422 3.58460 3.17082
# Velocity P-wave (km/s) = 4.17652 5.54184 4.90690
#
# Compressibility (1/GPa) = 0.05220762
#
# Stress axis : x y z
#
# Youngs Moduli (GPa) = 32.66726 87.34520 62.61005
#
# Poissons Ratio (x) = -0.40771 0.15597
# Poissons Ratio (y) = -0.15248 0.31863
# Poissons Ratio (z) = 0.08138 0.44451
#
# Static dielectric constant tensor:
#      x y z
#    x 2.025670 0.000000 0.016050 
#    y 0.000000 1.976110 0.000000 
#    z 0.016050 0.000000 2.128690 
# 
# From -- ./inp_files/135908.got.cif
#   From: 2010.05.17/outbox.cif.g08.bks.cpg/sg15_68_cif.got.tgz:135908.got - 2010.06.03 18:47:42.
