data_PCOD9300853
_publ_section_title
;
Structure prediction by ZEFSAII (Michael W. Deem and Ramdas Pophale) SiO2 
 PCOD9300853
Probable space group: C 2/C
;
_chemical_formula_sum "Si O2"
_cell_formula_units_Z 48
_cell_length_a 11.876241
_cell_length_b 12.097681
_cell_length_c 22.156523
_cell_angle_alpha 90.000000
_cell_angle_beta 129.429988
_cell_angle_gamma 90.000000
_cell_volume 2458.814186
_symmetry_space_group_name_H-M "C 2/C"
_symmetry_group_IT_number 15
_symmetry_cell_setting 'monoclinic'
loop_
_space_group_symop_operation_xyz
x,y,z
-x,y,1/2-z
-x,-y,-z
x,-y,1/2+z
1/2+x,1/2+y,z
1/2-x,1/2+y,1/2-z
1/2-x,1/2-y,-z
1/2+x,1/2-y,1/2+z
loop_
_atom_site_type_symbol
_atom_site_label
_atom_site_fract_x
_atom_site_fract_y
_atom_site_fract_z
Si Si1 0.669812 0.269964 0.036740
Si Si2 0.671901 0.357250 0.289525
Si Si3 0.652784 0.404382 0.146417
Si Si4 0.670052 0.979827 0.567913
Si Si5 0.686769 0.372677 0.484882
Si Si6 0.155832 0.144709 0.107111
O O1 0.719617 0.355205 0.106744
O O2 0.683525 0.151358 0.073634
O O3 0.750000 0.250000 0.000000
O O4 0.505606 0.306395 0.961361
O O5 0.500000 0.364420 0.250000
O O6 0.702031 0.361371 0.228238
O O7 0.759163 0.456940 0.351526
O O8 0.740098 0.243330 0.337227
O O9 0.484362 0.368516 0.085226
O O10 0.653781 0.537735 0.148508
O O11 0.746738 0.037680 0.536877
O O12 0.500000 0.000000 0.500000
O O13 0.750000 0.250000 0.500000
O O14 0.710128 0.402981 0.561882
#
# Coordination Sequence:
#
# PCOD9300853 Si02
#       6
#     8   8   8   8   8   8
#     4  11  23  42  70  99 131 173 224 279 345 408
#     4  12  25  44  65  97 134 182 224 280 345 408
#     4  11  24  42  66  97 138 175 217 283 348 401
#     4  12  22  40  66 100 131 170 230 281 328 407
#     4  11  19  41  68  95 124 177 229 269 328 408
#     4  11  23  44  65  95 132 175 231 275 336 416
#
# _framework density 19.521605999999998
#
# number of rings (size 3 to 8) (size 9 to 14) (size 15 to 20)
#    0.000    0.667    5.000    5.000    2.333    0.000 
#    0.000    0.833    0.000    0.000    0.000    0.000 
#    0.000    0.000    0.000    0.000    0.000    0.000 
#
# Total GULP energy -133893.782181 kJ/mol
# GULP energy per Si atom -5578.907591 kJ/mol
# Density = 1.947717 g / cm^3
# Si number density = 19.521606 Si / 1000 Ang^3
#
#
#
# Elastic Constant Matrix: (Units=GPa)
#
#
# Indices 1 2 3 4 5 6 
#
# 1 78.7562 12.8127 37.0532 0.0000 -17.8871 0.0000
# 2 12.8127 132.2146 40.1023 0.0000 -7.9328 0.0000
# 3 37.0532 40.1023 117.7596 0.0000 -23.3686 0.0000
# 4 0.0000 0.0000 0.0000 31.7678 0.0000 -3.7971
# 5 -17.8871 -7.9328 -23.3686 0.0000 31.9322 0.0000
# 6 0.0000 0.0000 0.0000 -3.7971 0.0000 34.2079
#
#
#
# Elastic Compliance Matrix: (Units=1/GPa)
#
#
# Indices 1 2 3 4 5 6 
#
# 1 0.015865 -0.000027 -0.003768 0.000000 0.006123 0.000000
# 2 -0.000027 0.008435 -0.002867 0.000000 -0.000018 0.000000
# 3 -0.003768 -0.002867 0.011809 0.000000 0.005819 0.000000
# 4 0.000000 0.000000 0.000000 0.031902 0.000000 0.003541
# 5 0.006123 -0.000018 0.005819 0.000000 0.039000 0.000000
# 6 0.000000 0.000000 0.000000 0.003541 0.000000 0.029626
#
#
# Mechanical properties :
#
#
# Convention : Reuss Voigt Hill
#
# Bulk Modulus (GPa) = 43.89113 56.51855 50.20484
# Shear Modulus (GPa) = 31.73485 35.49905 33.61695
#
# Velocity S-wave (km/s) = 4.03628 4.26895 4.15425
# Velocity P-wave (km/s) = 6.65239 7.30159 6.98454
#
# Compressibility (1/GPa) = 0.02278365
#
# Stress axis : x y z
#
# Youngs Moduli (GPa) = 63.03156 118.55731 84.68415
#
# Poissons Ratio (x) = 0.00324 0.31906
# Poissons Ratio (y) = 0.00172 0.24283
# Poissons Ratio (z) = 0.23748 0.33996
#
# Static dielectric constant tensor:
#      x y z
#    x 1.725700 0.000000 -0.038320 
#    y 0.000000 1.721860 0.000000 
#    z -0.038320 0.000000 1.701230 
# 
# From -- ./inp_files/269041.got.cif
#   From: 2010.05.17/outbox.cif.g08.bks.cpg/sg15_135_cif.got.tgz:269041.got - 2010.06.03 18:47:42.
