data_PCOD9300182
_publ_section_title
;
Structure prediction by ZEFSAII (Michael W. Deem and Ramdas Pophale) SiO2 
 PCOD9300182
Probable space group: C 2/C
;
_chemical_formula_sum "Si O2"
_cell_formula_units_Z 52
_cell_length_a 11.398360
_cell_length_b 19.636067
_cell_length_c 19.909856
_cell_angle_alpha 90.000000
_cell_angle_beta 30.365747
_cell_angle_gamma 90.000000
_cell_volume 2252.691143
_symmetry_space_group_name_H-M "C 2/C"
_symmetry_group_IT_number 15
_symmetry_cell_setting 'monoclinic'
loop_
_space_group_symop_operation_xyz
x,y,z
-x,y,1/2-z
-x,-y,-z
x,-y,1/2+z
1/2+x,1/2+y,z
1/2-x,1/2+y,1/2-z
1/2-x,1/2-y,-z
1/2+x,1/2-y,1/2+z
loop_
_atom_site_type_symbol
_atom_site_label
_atom_site_fract_x
_atom_site_fract_y
_atom_site_fract_z
Si Si1 0.972269 0.394411 0.685527
Si Si2 0.731977 0.084721 0.594150
Si Si3 0.664488 0.749664 0.734560
Si Si4 0.603688 0.509075 0.322700
Si Si5 0.000000 0.893745 0.750000
Si Si6 0.001684 0.135284 0.908077
Si Si7 0.353935 0.184852 0.986826
O O1 0.227011 0.374817 0.536503
O O2 0.000000 0.404943 0.750000
O O3 0.807223 0.328444 0.757933
O O4 0.855891 0.461758 0.715619
O O5 0.500000 0.064677 0.750000
O O6 0.891714 0.125752 0.569811
O O7 0.643760 0.129209 0.574480
O O8 0.908360 0.028381 0.475760
O O9 0.500000 0.748971 0.750000
O O10 0.558459 0.707618 0.848535
O O11 0.902939 0.710610 0.604073
O O12 0.546038 0.554401 0.287516
O O13 0.605850 0.428341 0.314858
O O14 0.202127 0.845196 0.622308
O O15 0.250000 0.250000 0.000000
#
# Coordination Sequence:
#
# PCOD9300182 Si02
#       7
#     8   8   8   8   4   8   8
#     4  11  25  46  70 102 146 185 241 304 363 430
#     4  11  23  43  68 103 137 177 246 298 359 415
#     4  11  26  46  67 106 150 194 243 292 377 441
#     4  11  26  45  71 104 143 190 244 301 375 428
#     4  10  26  46  68 104 148 190 244 308 366 442
#     4  12  26  43  74 103 140 194 243 307 359 441
#     4  11  25  45  74 103 142 193 243 303 366 439
#
# _framework density 23.083503
#
# number of rings (size 3 to 8) (size 9 to 14) (size 15 to 20)
#    0.000    0.923    3.077    2.769    8.615    1.231 
#    0.000    1.538    0.000    0.000    0.000    0.000 
#    0.000    0.000    0.000    0.000    0.000    0.000 
#
# Total GULP energy -145444.931604 kJ/mol
# GULP energy per Si atom -5594.035831 kJ/mol
# Density = 2.303096 g / cm^3
# Si number density = 23.083503 Si / 1000 Ang^3
#
#
#
# Elastic Constant Matrix: (Units=GPa)
#
#
# Indices 1 2 3 4 5 6 
#
# 1 71.2173 16.8045 29.0239 -0.0042 -4.1075 0.0953
# 2 16.8045 81.6781 10.3508 0.0168 7.4163 0.0932
# 3 29.0239 10.3508 107.8475 -0.0188 -0.6931 0.1311
# 4 -0.0042 0.0168 -0.0188 38.2403 0.0042 2.6959
# 5 -4.1075 7.4163 -0.6931 0.0042 33.6938 -0.0963
# 6 0.0953 0.0932 0.1311 2.6959 -0.0963 30.5347
#
#
#
# Elastic Compliance Matrix: (Units=1/GPa)
#
#
# Indices 1 2 3 4 5 6 
#
# 1 0.016627 -0.003133 -0.004157 0.000002 0.002631 -0.000016
# 2 -0.003133 0.013245 -0.000449 -0.000003 -0.003307 -0.000039
# 3 -0.004157 -0.000449 0.010433 0.000007 -0.000193 -0.000032
# 4 0.000002 -0.000003 0.000007 0.026314 -0.000009 -0.002323
# 5 0.002631 -0.003307 -0.000193 -0.000009 0.030724 0.000100
# 6 -0.000016 -0.000039 -0.000032 -0.002323 0.000100 0.032955
#
#
# Mechanical properties :
#
#
# Convention : Reuss Voigt Hill
#
# Bulk Modulus (GPa) = 40.27968 41.45569 40.86769
# Shear Modulus (GPa) = 32.45662 34.13133 33.29398
#
# Velocity S-wave (km/s) = 3.75380 3.84943 3.80192
# Velocity P-wave (km/s) = 6.02291 6.14455 6.08404
#
# Compressibility (1/GPa) = 0.02482641
#
# Stress axis : x y z
#
# Youngs Moduli (GPa) = 60.14436 75.50045 95.84975
#
# Poissons Ratio (x) = 0.23653 0.39844
# Poissons Ratio (y) = 0.18842 0.04306
# Poissons Ratio (z) = 0.25002 0.03392
#
# Static dielectric constant tensor:
#      x y z
#    x 1.469670 0.000810 0.539180 
#    y 0.000810 1.839550 -0.001050 
#    z 0.539180 -0.001050 1.327830 
# 
# From -- ./inp_files/240495.got.cif
#   From: 2010.05.17/outbox.cif.g08.bks.cpg/sg15_121_cif.got.tgz:240495.got - 2010.06.03 18:47:42.
