data_PCOD9300309
_publ_section_title
;
Structure prediction by ZEFSAII (Michael W. Deem and Ramdas Pophale) SiO2 
 PCOD9300309
Probable space group: C 2/C
;
_chemical_formula_sum "Si O2"
_cell_formula_units_Z 56
_cell_length_a 25.237396
_cell_length_b 9.936614
_cell_length_c 10.861730
_cell_angle_alpha 90.000000
_cell_angle_beta 68.028733
_cell_angle_gamma 90.000000
_cell_volume 2526.014013
_symmetry_space_group_name_H-M "C 2/C"
_symmetry_group_IT_number 15
_symmetry_cell_setting 'monoclinic'
loop_
_space_group_symop_operation_xyz
x,y,z
-x,y,1/2-z
-x,-y,-z
x,-y,1/2+z
1/2+x,1/2+y,z
1/2-x,1/2+y,1/2-z
1/2-x,1/2-y,-z
1/2+x,1/2-y,1/2+z
loop_
_atom_site_type_symbol
_atom_site_label
_atom_site_fract_x
_atom_site_fract_y
_atom_site_fract_z
Si Si1 0.883700 0.773774 0.877836
Si Si2 0.722447 0.264002 0.159366
Si Si3 0.874159 0.082654 0.886832
Si Si4 0.000000 0.822658 0.250000
Si Si5 0.032463 0.588766 0.373621
Si Si6 0.500000 0.144788 0.750000
Si Si7 0.344913 0.785373 0.135300
Si Si8 0.148729 0.407417 0.884270
O O1 0.951172 0.742374 0.846823
O O2 0.871438 0.752930 0.743522
O O3 0.867093 0.926352 0.923446
O O4 0.846255 0.672934 0.993359
O O5 0.670475 0.368224 0.179981
O O6 0.775987 0.299206 0.198669
O O7 0.696959 0.129635 0.243441
O O8 0.750000 0.250000 0.000000
O O9 0.940644 0.100288 0.791129
O O10 0.862178 0.177810 0.015653
O O11 0.995199 0.715122 0.365393
O O12 0.043146 0.471431 0.265013
O O13 0.091409 0.644696 0.369125
O O14 0.000000 0.500000 0.500000
O O15 0.362582 0.936146 0.082807
#
# Coordination Sequence:
#
# PCOD9300309 Si02
#       8
#     8   8   8   4   8   4   8   8
#     4  12  28  44  74 108 149 191 245 296 372 444
#     4  10  26  48  75 100 146 188 246 304 366 428
#     4  11  26  48  69 106 149 194 237 304 376 437
#     4  11  23  40  72  98 142 196 234 292 374 434
#     4  11  21  39  70 106 143 182 239 302 361 430
#     4  11  23  40  64 112 148 182 236 302 352 442
#     4  11  28  48  74 105 147 191 249 306 359 440
#     4  12  25  46  77 109 139 196 248 301 364 434
#
# _framework density 22.169315999999998
#
# number of rings (size 3 to 8) (size 9 to 14) (size 15 to 20)
#    0.000    0.857    4.286    1.286   10.000    1.714 
#    0.000    2.143    0.000    0.000    0.000    0.000 
#    0.000    0.000    0.000    0.000    0.000    0.000 
#
# Total GULP energy -156070.453382 kJ/mol
# GULP energy per Si atom -5573.944764 kJ/mol
# Density = 2.211886 g / cm^3
# Si number density = 22.169316 Si / 1000 Ang^3
#
#
#
# Elastic Constant Matrix: (Units=GPa)
#
#
# Indices 1 2 3 4 5 6 
#
# 1 97.8639 0.9819 10.8924 0.0000 -8.6768 0.0000
# 2 0.9819 139.2855 44.4392 0.0000 5.2416 0.0000
# 3 10.8924 44.4392 73.5740 0.0000 -4.7966 0.0000
# 4 0.0000 0.0000 0.0000 34.0477 0.0000 -5.4985
# 5 -8.6768 5.2416 -4.7966 0.0000 25.5249 0.0000
# 6 0.0000 0.0000 0.0000 -5.4985 0.0000 26.8402
#
#
#
# Elastic Compliance Matrix: (Units=1/GPa)
#
#
# Indices 1 2 3 4 5 6 
#
# 1 0.010678 0.000294 -0.001545 0.000000 0.003279 0.000000
# 2 0.000294 0.009114 -0.005734 0.000000 -0.002849 0.000000
# 3 -0.001545 -0.005734 0.017541 0.000000 0.003949 0.000000
# 4 0.000000 0.000000 0.000000 0.030375 0.000000 0.006223
# 5 0.003279 -0.002849 0.003949 0.000000 0.041619 0.000000
# 6 0.000000 0.000000 0.000000 0.006223 0.000000 0.038532
#
#
# Mechanical properties :
#
#
# Convention : Reuss Voigt Hill
#
# Bulk Modulus (GPa) = 42.80122 47.03895 44.92008
# Shear Modulus (GPa) = 29.47793 34.24322 31.86057
#
# Velocity S-wave (km/s) = 3.65042 3.93443 3.79509
# Velocity P-wave (km/s) = 6.09228 6.47331 6.28568
#
# Compressibility (1/GPa) = 0.02336382
#
# Stress axis : x y z
#
# Youngs Moduli (GPa) = 93.65061 109.71899 57.00775
#
# Poissons Ratio (x) = -0.03228 0.08806
# Poissons Ratio (y) = -0.02755 0.32690
# Poissons Ratio (z) = 0.14467 0.62917
#
# Static dielectric constant tensor:
#      x y z
#    x 1.863730 0.000000 -0.003660 
#    y 0.000000 1.752430 0.000000 
#    z -0.003660 0.000000 1.967580 
# 
# From -- ./inp_files/121932.got.cif
#   From: 2010.05.17/outbox.cif.g08.bks.cpg/sg15_61_cif.got.tgz:121932.got - 2010.06.03 18:47:42.
