data_PCOD9300520
_publ_section_title
;
Structure prediction by ZEFSAII (Michael W. Deem and Ramdas Pophale) SiO2 
 PCOD9300520
Probable space group: C 2/C
;
_chemical_formula_sum "Si O2"
_cell_formula_units_Z 60
_cell_length_a 15.013254
_cell_length_b 24.179664
_cell_length_c 17.186833
_cell_angle_alpha 90.000000
_cell_angle_beta 153.056541
_cell_angle_gamma 90.000000
_cell_volume 2826.998421
_symmetry_space_group_name_H-M "C 2/C"
_symmetry_group_IT_number 15
_symmetry_cell_setting 'monoclinic'
loop_
_space_group_symop_operation_xyz
x,y,z
-x,y,1/2-z
-x,-y,-z
x,-y,1/2+z
1/2+x,1/2+y,z
1/2-x,1/2+y,1/2-z
1/2-x,1/2-y,-z
1/2+x,1/2-y,1/2+z
loop_
_atom_site_type_symbol
_atom_site_label
_atom_site_fract_x
_atom_site_fract_y
_atom_site_fract_z
Si Si1 0.298233 0.980064 0.306674
Si Si2 0.413847 0.958720 0.098455
Si Si3 0.164940 0.774292 0.515309
Si Si4 0.617554 0.600856 0.169080
Si Si5 0.683519 0.921269 0.950296
Si Si6 0.000000 0.102954 0.250000
Si Si7 0.960768 0.882323 0.374357
Si Si8 0.034080 0.330898 0.629039
O O1 0.380135 0.962617 0.286793
O O2 0.219141 0.923072 0.279788
O O3 0.500000 0.000000 0.500000
O O4 0.155296 0.033785 0.198484
O O5 0.500000 0.946425 0.250000
O O6 0.315817 0.019186 0.011426
O O7 0.225300 0.921751 0.929750
O O8 0.250000 0.750000 0.500000
O O9 0.991225 0.819548 0.369802
O O10 0.330632 0.806084 0.694746
O O11 0.069883 0.722821 0.486823
O O12 0.520182 0.621583 0.173772
O O13 0.825523 0.632362 0.315956
O O14 0.501665 0.614685 0.999016
O O15 0.500000 0.924123 0.750000
O O16 0.633217 0.869703 0.964896
O O17 0.869500 0.912578 0.041928
#
# Coordination Sequence:
#
# PCOD9300520 Si02
#       8
#     8   8   8   8   8   4   8   8
#     4  12  23  40  59  96 134 165 221 282 332 411
#     4  11  23  39  64  91 134 174 219 279 337 404
#     4  11  21  38  63  97 131 171 216 262 333 416
#     4  11  22  41  64  88 127 171 226 275 333 398
#     4  11  17  37  62  89 125 178 210 254 335 407
#     4  12  24  42  64  94 120 176 232 276 340 400
#     4  11  23  38  66  92 132 179 214 266 354 409
#     4  11  22  39  64  92 134 173 210 277 329 402
#
# _framework density 21.223924
#
# number of rings (size 3 to 8) (size 9 to 14) (size 15 to 20)
#    0.000    0.800    6.667    3.200    0.000    1.067 
#    0.000    0.000    0.000    3.200    1.733    0.000 
#    0.000    0.000    0.000    0.000    0.000    0.000 
#
# Total GULP energy -167164.282807 kJ/mol
# GULP energy per Si atom -5572.142760 kJ/mol
# Density = 2.117562 g / cm^3
# Si number density = 21.223924 Si / 1000 Ang^3
#
#
#
# Elastic Constant Matrix: (Units=GPa)
#
#
# Indices 1 2 3 4 5 6 
#
# 1 134.3459 23.6329 9.4175 0.0002 -0.3082 0.0001
# 2 23.6329 63.4994 12.1540 0.0001 -7.7351 0.0001
# 3 9.4175 12.1540 51.3167 0.0004 -12.4624 0.0002
# 4 0.0002 0.0001 0.0004 35.5020 0.0002 9.0644
# 5 -0.3082 -7.7351 -12.4624 0.0002 16.1461 0.0002
# 6 0.0001 0.0001 0.0002 9.0644 0.0002 32.0839
#
#
#
# Elastic Compliance Matrix: (Units=1/GPa)
#
#
# Indices 1 2 3 4 5 6 
#
# 1 0.008064 -0.003030 -0.001326 0.000000 -0.002321 0.000000
# 2 -0.003030 0.018123 -0.002021 0.000000 0.007065 0.000000
# 3 -0.001326 -0.002021 0.024574 0.000000 0.017974 0.000000
# 4 0.000000 0.000000 0.000000 0.030357 -0.000001 -0.008577
# 5 -0.002321 0.007065 0.017974 -0.000001 0.079148 0.000000
# 6 0.000000 0.000000 0.000000 -0.008577 0.000000 0.033591
#
#
# Mechanical properties :
#
#
# Convention : Reuss Voigt Hill
#
# Bulk Modulus (GPa) = 26.31042 37.73011 32.02026
# Shear Modulus (GPa) = 22.80184 30.34356 26.57270
#
# Velocity S-wave (km/s) = 3.28128 3.78522 3.54222
# Velocity P-wave (km/s) = 5.17486 6.07615 5.64353
#
# Compressibility (1/GPa) = 0.03800776
#
# Stress axis : x y z
#
# Youngs Moduli (GPa) = 124.00565 55.17755 40.69380
#
# Poissons Ratio (x) = 0.16720 0.05396
# Poissons Ratio (y) = 0.37577 0.08222
# Poissons Ratio (z) = 0.16442 0.11149
#
# Static dielectric constant tensor:
#      x y z
#    x 1.861390 0.000000 -0.078720 
#    y 0.000000 1.894280 0.000000 
#    z -0.078720 0.000000 1.861640 
# 
# From -- ./inp_files/207242.got.cif
#   From: 2010.05.17/outbox.cif.g08.bks.cpg/sg15_104_cif.got.tgz:207242.got - 2010.06.03 18:47:42.
