data_PCOD9300801
_publ_section_title
;
Structure prediction by ZEFSAII (Michael W. Deem and Ramdas Pophale) SiO2 
 PCOD9300801
Probable space group: C 2/C
;
_chemical_formula_sum "Si O2"
_cell_formula_units_Z 52
_cell_length_a 7.510729
_cell_length_b 11.180842
_cell_length_c 26.966538
_cell_angle_alpha 90.000000
_cell_angle_beta 108.186058
_cell_angle_gamma 90.000000
_cell_volume 2151.430676
_symmetry_space_group_name_H-M "C 2/C"
_symmetry_group_IT_number 15
_symmetry_cell_setting 'monoclinic'
loop_
_space_group_symop_operation_xyz
x,y,z
-x,y,1/2-z
-x,-y,-z
x,-y,1/2+z
1/2+x,1/2+y,z
1/2-x,1/2+y,1/2-z
1/2-x,1/2-y,-z
1/2+x,1/2-y,1/2+z
loop_
_atom_site_type_symbol
_atom_site_label
_atom_site_fract_x
_atom_site_fract_y
_atom_site_fract_z
Si Si1 0.244586 0.481605 0.939266
Si Si2 0.878585 0.822436 0.305683
Si Si3 0.112732 0.959430 0.839122
Si Si4 0.186092 0.029747 0.449514
Si Si5 0.289382 0.241160 0.602825
Si Si6 0.508717 0.088444 0.328949
Si Si7 0.500000 0.111357 0.750000
O O1 0.464252 0.462378 0.944705
O O2 0.180687 0.618260 0.922698
O O3 0.120549 0.408991 0.890003
O O4 0.222203 0.464106 0.996065
O O5 0.837364 0.798077 0.361083
O O6 0.022005 0.717395 0.305502
O O7 0.684772 0.811279 0.259156
O O8 0.959530 0.953931 0.304493
O O9 0.190032 0.027825 0.895349
O O10 0.057454 0.828124 0.856203
O O11 0.289064 0.935856 0.820131
O O12 0.272369 0.160664 0.443796
O O13 0.561378 0.976497 0.299787
#
# Coordination Sequence:
#
# PCOD9300801 Si02
#       7
#     8   8   8   8   8   8   4
#     4  11  19  39  62 102 131 171 223 258 312 394
#     4  11  23  47  65  93 132 158 220 273 321 389
#     4   9  21  40  62  92 129 166 200 268 318 384
#     4   9  20  34  69  94 132 179 210 256 327 375
#     4   9  17  37  65  88 128 170 205 258 315 373
#     4  11  26  41  67  96 124 168 216 266 327 382
#     4  12  26  46  68  90 122 172 210 274 328 388
#
# _framework density 24.169962999999999
#
# number of rings (size 3 to 8) (size 9 to 14) (size 15 to 20)
#    0.923    0.923    3.077    0.462    0.000    6.154 
#    0.000    0.769    0.000    0.000    0.000    0.000 
#    0.000    0.000    0.000    0.000    0.000    0.000 
#
# Total GULP energy -144794.098296 kJ/mol
# GULP energy per Si atom -5569.003781 kJ/mol
# Density = 2.411495 g / cm^3
# Si number density = 24.169963 Si / 1000 Ang^3
#
#
#
# Elastic Constant Matrix: (Units=GPa)
#
#
# Indices 1 2 3 4 5 6 
#
# 1 58.3215 23.6553 11.4510 0.0000 6.5455 0.0000
# 2 23.6553 62.5922 10.2186 0.0000 13.0568 0.0000
# 3 11.4510 10.2186 91.3564 0.0000 0.4303 0.0000
# 4 0.0000 0.0000 0.0000 9.4139 0.0000 3.8697
# 5 6.5455 13.0568 0.4303 0.0000 32.9503 0.0000
# 6 0.0000 0.0000 0.0000 3.8697 0.0000 25.3404
#
#
#
# Elastic Compliance Matrix: (Units=1/GPa)
#
#
# Indices 1 2 3 4 5 6 
#
# 1 0.020560 -0.007233 -0.001762 0.000000 -0.001195 0.000000
# 2 -0.007233 0.020303 -0.001333 0.000000 -0.006591 0.000000
# 3 -0.001762 -0.001333 0.011313 0.000000 0.000731 0.000000
# 4 0.000000 0.000000 0.000000 0.113341 0.000000 -0.017308
# 5 -0.001195 -0.006591 0.000731 0.000000 0.033188 0.000000
# 6 0.000000 0.000000 0.000000 -0.017308 0.000000 0.042106
#
#
# Mechanical properties :
#
#
# Convention : Reuss Voigt Hill
#
# Bulk Modulus (GPa) = 31.72814 33.65777 32.69295
# Shear Modulus (GPa) = 18.38407 24.67058 21.52733
#
# Velocity S-wave (km/s) = 2.76092 3.19832 2.98764
# Velocity P-wave (km/s) = 4.82899 5.25307 5.04549
#
# Compressibility (1/GPa) = 0.03151776
#
# Stress axis : x y z
#
# Youngs Moduli (GPa) = 48.63731 49.25475 88.39588
#
# Poissons Ratio (x) = 0.35627 0.15579
# Poissons Ratio (y) = 0.35181 0.11785
# Poissons Ratio (z) = 0.08572 0.06567
#
# Static dielectric constant tensor:
#      x y z
#    x 1.981130 0.000000 -0.033440 
#    y 0.000000 1.965560 0.000000 
#    z -0.033440 0.000000 1.991280 
# 
# From -- ./inp_files/288126.got.cif
#   From: 2010.05.17/outbox.cif.g08.bks.cpg/sg15_145_cif.got.tgz:288126.got - 2010.06.03 18:47:42.
