data_PCOD9300320
_publ_section_title
;
Structure prediction by ZEFSAII (Michael W. Deem and Ramdas Pophale) SiO2 
 PCOD9300320
Probable space group: C 2/C
;
_chemical_formula_sum "Si O2"
_cell_formula_units_Z 52
_cell_length_a 21.589389
_cell_length_b 17.005342
_cell_length_c 9.077626
_cell_angle_alpha 90.000000
_cell_angle_beta 129.576655
_cell_angle_gamma 90.000000
_cell_volume 2568.765395
_symmetry_space_group_name_H-M "C 2/C"
_symmetry_group_IT_number 15
_symmetry_cell_setting 'monoclinic'
loop_
_space_group_symop_operation_xyz
x,y,z
-x,y,1/2-z
-x,-y,-z
x,-y,1/2+z
1/2+x,1/2+y,z
1/2-x,1/2+y,1/2-z
1/2-x,1/2-y,-z
1/2+x,1/2-y,1/2+z
loop_
_atom_site_type_symbol
_atom_site_label
_atom_site_fract_x
_atom_site_fract_y
_atom_site_fract_z
Si Si1 0.679494 0.297212 0.308527
Si Si2 0.000000 0.503491 0.250000
Si Si3 0.503172 0.742011 0.575327
Si Si4 0.098908 0.909598 0.677672
Si Si5 0.085863 0.400230 0.132065
Si Si6 0.910398 0.063447 0.655677
Si Si7 0.260068 0.668276 0.927355
O O1 0.750000 0.250000 0.500000
O O2 0.596414 0.248975 0.174378
O O3 0.645459 0.375656 0.339722
O O4 0.711027 0.315536 0.194510
O O5 0.050501 0.450255 0.213465
O O6 0.059344 0.555847 0.441267
O O7 0.500000 0.746761 0.750000
O O8 0.463362 0.662795 0.443657
O O9 0.454214 0.814639 0.437420
O O10 0.127509 0.942842 0.563135
O O11 0.070616 0.984583 0.727042
O O12 0.172529 0.876971 0.880832
O O13 0.179573 0.383157 0.294489
O O14 0.000000 0.092464 0.750000
O O15 0.250000 0.750000 0.000000
#
# Coordination Sequence:
#
# PCOD9300320 Si02
#       7
#     8   4   8   8   8   8   8
#     4  12  26  45  73 105 142 195 242 296 374 431
#     4  10  26  48  78 102 134 192 242 294 372 432
#     4  12  23  46  77 104 144 193 246 300 361 448
#     4  12  25  44  72 105 151 192 242 299 372 439
#     4  11  25  49  74 103 140 186 240 302 360 437
#     4  12  25  46  71 106 148 196 245 301 363 445
#     4  12  27  45  70 109 148 182 247 307 363 437
#
# _framework density 20.243188
#
# number of rings (size 3 to 8) (size 9 to 14) (size 15 to 20)
#    0.000    0.308    5.385    3.231    4.308    2.462 
#    2.769    0.000    0.000    0.000    0.000    0.000 
#    0.000    0.000    0.000    0.000    0.000    0.000 
#
# Total GULP energy -145167.968455 kJ/mol
# GULP energy per Si atom -5583.383402 kJ/mol
# Density = 2.019711 g / cm^3
# Si number density = 20.243188 Si / 1000 Ang^3
#
#
#
# Elastic Constant Matrix: (Units=GPa)
#
#
# Indices 1 2 3 4 5 6 
#
# 1 136.5836 53.4613 84.9342 0.0000 -3.4585 0.0000
# 2 53.4613 122.9332 63.7363 0.0000 -5.4419 0.0000
# 3 84.9342 63.7363 178.9205 0.0000 3.4673 0.0000
# 4 0.0000 0.0000 0.0000 49.0594 0.0000 4.9056
# 5 -3.4585 -5.4419 3.4673 0.0000 49.2592 0.0000
# 6 0.0000 0.0000 0.0000 4.9056 0.0000 56.9649
#
#
#
# Elastic Compliance Matrix: (Units=1/GPa)
#
#
# Indices 1 2 3 4 5 6 
#
# 1 0.011034 -0.002501 -0.004362 0.000000 0.000805 0.000000
# 2 -0.002501 0.010635 -0.002624 0.000000 0.001184 0.000000
# 3 -0.004362 -0.002624 0.008618 0.000000 -0.001203 0.000000
# 4 0.000000 0.000000 0.000000 0.020561 0.000000 -0.001771
# 5 0.000805 0.001184 -0.001203 0.000000 0.020573 0.000000
# 6 0.000000 0.000000 0.000000 -0.001771 0.000000 0.017707
#
#
# Mechanical properties :
#
#
# Convention : Reuss Voigt Hill
#
# Bulk Modulus (GPa) = 88.40480 93.63344 91.01912
# Shear Modulus (GPa) = 44.69361 46.81039 45.75200
#
# Velocity S-wave (km/s) = 4.70386 4.81396 4.75923
# Velocity P-wave (km/s) = 8.55967 8.78941 8.67530
#
# Compressibility (1/GPa) = 0.01131160
#
# Stress axis : x y z
#
# Youngs Moduli (GPa) = 90.63264 94.02834 116.03532
#
# Poissons Ratio (x) = 0.23515 0.50619
# Poissons Ratio (y) = 0.22666 0.30451
# Poissons Ratio (z) = 0.39538 0.24676
#
# Static dielectric constant tensor:
#      x y z
#    x 1.744770 0.000000 -0.097340 
#    y 0.000000 1.789800 0.000000 
#    z -0.097340 0.000000 1.371550 
# 
# From -- ./inp_files/57060.got.cif
#   From: 2010.05.17/outbox.cif.g08.bks.cpg/sg15_29_cif.got.tgz:57060.got - 2010.06.03 18:47:42.
