data_PCOD9300932
_publ_section_title
;
Structure prediction by ZEFSAII (Michael W. Deem and Ramdas Pophale) SiO2 
 PCOD9300932
Probable space group: C 2/C
;
_chemical_formula_sum "Si O2"
_cell_formula_units_Z 48
_cell_length_a 20.791426
_cell_length_b 17.653723
_cell_length_c 9.702624
_cell_angle_alpha 90.000000
_cell_angle_beta 144.145408
_cell_angle_gamma 90.000000
_cell_volume 2085.966851
_symmetry_space_group_name_H-M "C 2/C"
_symmetry_group_IT_number 15
_symmetry_cell_setting 'monoclinic'
loop_
_space_group_symop_operation_xyz
x,y,z
-x,y,1/2-z
-x,-y,-z
x,-y,1/2+z
1/2+x,1/2+y,z
1/2-x,1/2+y,1/2-z
1/2-x,1/2-y,-z
1/2+x,1/2-y,1/2+z
loop_
_atom_site_type_symbol
_atom_site_label
_atom_site_fract_x
_atom_site_fract_y
_atom_site_fract_z
Si Si1 0.642396 0.273370 0.017672
Si Si2 0.748789 0.101483 0.619825
Si Si3 0.621793 0.876500 0.637171
Si Si4 0.239389 0.929523 0.868012
Si Si5 0.405915 0.877087 0.399631
Si Si6 0.618986 0.711349 0.170339
O O1 0.665123 0.344295 0.154675
O O2 0.595023 0.201071 0.012565
O O3 0.760318 0.241527 0.167814
O O4 0.590356 0.295932 0.782297
O O5 0.707994 0.138698 0.408117
O O6 0.644893 0.097529 0.544465
O O7 0.787840 0.016803 0.654204
O O8 0.679821 0.926885 0.622657
O O9 0.514450 0.911965 0.520446
O O10 0.308554 0.893276 0.117216
O O11 0.134234 0.875967 0.652461
O O12 0.442329 0.788091 0.482276
#
# Coordination Sequence:
#
# PCOD9300932 Si02
#       6
#     8   8   8   8   8   8
#     4   9  17  35  52  71  98 137 181 208 238 301
#     4  11  22  33  50  77 112 134 162 213 263 301
#     4  11  22  31  53  80 103 135 173 211 254 303
#     4  11  20  34  53  75 103 141 173 204 254 308
#     4  11  20  36  52  75 107 138 170 207 255 308
#     4   9  16  35  56  68  95 141 182 206 236 300
#
# _framework density 23.010912999999999
#
# number of rings (size 3 to 8) (size 9 to 14) (size 15 to 20)
#    0.000    1.667    6.667    2.500    0.000    4.000 
#    0.000    0.000    0.000    1.000    0.000    0.000 
#    0.000    0.000    0.000    0.000    0.000    0.000 
#
# Total GULP energy -133726.121035 kJ/mol
# GULP energy per Si atom -5571.921710 kJ/mol
# Density = 2.295854 g / cm^3
# Si number density = 23.010913 Si / 1000 Ang^3
#
#
#
# Elastic Constant Matrix: (Units=GPa)
#
#
# Indices 1 2 3 4 5 6 
#
# 1 51.0288 4.3039 17.1398 0.0000 -16.3739 0.0000
# 2 4.3039 144.5924 23.2378 0.0000 0.7004 0.0000
# 3 17.1398 23.2378 54.9064 0.0000 -19.3257 0.0000
# 4 0.0000 0.0000 0.0000 7.8543 0.0000 -3.7513
# 5 -16.3739 0.7004 -19.3257 0.0000 25.3167 0.0000
# 6 0.0000 0.0000 0.0000 -3.7513 0.0000 15.1382
#
#
#
# Elastic Compliance Matrix: (Units=1/GPa)
#
#
# Indices 1 2 3 4 5 6 
#
# 1 0.025081 -0.000386 -0.002670 0.000000 0.014194 0.000000
# 2 -0.000386 0.007669 -0.004496 0.000000 -0.003894 0.000000
# 3 -0.002670 -0.004496 0.027874 0.000000 0.019676 0.000000
# 4 0.000000 0.000000 0.000000 0.144410 0.000000 0.035786
# 5 0.014194 -0.003894 0.019676 0.000000 0.063807 0.000000
# 6 0.000000 0.000000 0.000000 0.035786 0.000000 0.074926
#
#
# Mechanical properties :
#
#
# Convention : Reuss Voigt Hill
#
# Bulk Modulus (GPa) = 21.96829 37.76564 29.86697
# Shear Modulus (GPa) = 13.36744 23.38491 18.37617
#
# Velocity S-wave (km/s) = 2.41284 3.19133 2.82899
# Velocity P-wave (km/s) = 4.16293 5.47970 4.86606
#
# Compressibility (1/GPa) = 0.04552016
#
# Stress axis : x y z
#
# Youngs Moduli (GPa) = 39.87146 130.39771 35.87543
#
# Poissons Ratio (x) = 0.05036 0.09579
# Poissons Ratio (y) = 0.01540 0.16128
# Poissons Ratio (z) = 0.10646 0.58621
#
# Static dielectric constant tensor:
#      x y z
#    x 1.889790 0.000000 0.064210 
#    y 0.000000 1.897910 0.000000 
#    z 0.064210 0.000000 1.941080 
# 
# From -- ./inp_files/47967.got.cif
#   From: 2010.05.17/outbox.cif.g08.bks.cpg/sg15_24_cif.got.tgz:47967.got - 2010.06.03 18:47:42.
