data_PCOD9300086
_publ_section_title
;
Structure prediction by ZEFSAII (Michael W. Deem and Ramdas Pophale) SiO2 
 PCOD9300086
Probable space group: C 2/C
;
_chemical_formula_sum "Si O2"
_cell_formula_units_Z 52
_cell_length_a 8.615140
_cell_length_b 14.583048
_cell_length_c 26.853898
_cell_angle_alpha 90.000000
_cell_angle_beta 39.374985
_cell_angle_gamma 90.000000
_cell_volume 2140.308705
_symmetry_space_group_name_H-M "C 2/C"
_symmetry_group_IT_number 15
_symmetry_cell_setting 'monoclinic'
loop_
_space_group_symop_operation_xyz
x,y,z
-x,y,1/2-z
-x,-y,-z
x,-y,1/2+z
1/2+x,1/2+y,z
1/2-x,1/2+y,1/2-z
1/2-x,1/2-y,-z
1/2+x,1/2-y,1/2+z
loop_
_atom_site_type_symbol
_atom_site_label
_atom_site_fract_x
_atom_site_fract_y
_atom_site_fract_z
Si Si1 0.971920 0.398040 0.675321
Si Si2 0.187251 0.588901 0.012126
Si Si3 0.735108 0.108950 0.462855
Si Si4 0.000000 0.454065 0.250000
Si Si5 0.522510 0.795265 0.110500
Si Si6 0.500000 0.345407 0.750000
Si Si7 0.165560 0.816220 0.372470
Si Si8 0.000000 0.757542 0.250000
O O1 0.677490 0.403861 0.740416
O O2 0.118542 0.403937 0.587221
O O3 0.038831 0.482176 0.693413
O O4 0.020059 0.306449 0.695773
O O5 0.938099 0.595278 0.041919
O O6 0.302679 0.489972 0.968523
O O7 0.379224 0.667049 0.948376
O O8 0.575798 0.160020 0.544490
O O9 0.943105 0.184377 0.400424
O O10 0.768818 0.387016 0.306458
O O11 0.715844 0.832642 0.102547
O O12 0.246616 0.814294 0.194084
O O13 0.704119 0.278623 0.675099
#
# Coordination Sequence:
#
# PCOD9300086 Si02
#       8
#     8   8   8   4   8   4   8   4
#     4  11  25  44  70  99 137 187 229 288 352 413
#     4  11  26  45  71 103 144 181 230 291 356 409
#     4  10  26  45  69 105 138 180 229 288 351 415
#     4  10  26  44  68 101 139 184 232 286 354 420
#     4  11  24  45  71 100 138 181 235 285 343 418
#     4  11  24  45  69 103 140 180 238 287 348 417
#     4  11  25  44  70 104 138 182 235 289 345 423
#     4  11  26  43  69 100 137 182 232 287 344 413
#
# _framework density 24.295560999999999
#
# number of rings (size 3 to 8) (size 9 to 14) (size 15 to 20)
#    0.000    1.231    1.538    1.846   10.769    3.692 
#    0.000    1.538    0.000    0.000    0.000    0.000 
#    0.000    0.000    0.000    0.000    0.000    0.000 
#
# Total GULP energy -145512.854824 kJ/mol
# GULP energy per Si atom -5596.648262 kJ/mol
# Density = 2.424026 g / cm^3
# Si number density = 24.295561 Si / 1000 Ang^3
#
#
#
# Elastic Constant Matrix: (Units=GPa)
#
#
# Indices 1 2 3 4 5 6 
#
# 1 66.8612 -8.7878 15.9218 -0.0008 9.4702 0.0003
# 2 -8.7878 57.9622 23.1786 0.0000 -6.0555 0.0004
# 3 15.9218 23.1786 106.1371 0.0007 4.2585 0.0005
# 4 -0.0008 0.0000 0.0007 28.4524 0.0008 8.8330
# 5 9.4702 -6.0555 4.2585 0.0008 51.9451 0.0003
# 6 0.0003 0.0004 0.0005 8.8330 0.0003 4.4637
#
#
#
# Elastic Compliance Matrix: (Units=1/GPa)
#
#
# Indices 1 2 3 4 5 6 
#
# 1 0.016500 0.003516 -0.003149 0.000002 -0.002340 -0.000006
# 2 0.003516 0.019996 -0.004978 0.000002 0.002098 -0.000005
# 3 -0.003149 -0.004978 0.011018 -0.000001 -0.000909 0.000001
# 4 0.000002 0.000002 -0.000001 0.091132 -0.000001 -0.180336
# 5 -0.002340 0.002098 -0.000909 -0.000001 0.019997 0.000000
# 6 -0.000006 -0.000005 0.000001 -0.180336 0.000000 0.580889
#
#
# Mechanical properties :
#
#
# Convention : Reuss Voigt Hill
#
# Bulk Modulus (GPa) = 26.11566 32.39841 29.25704
# Shear Modulus (GPa) = 6.56584 30.34876 18.45730
#
# Velocity S-wave (km/s) = 1.64571 3.53816 2.75925
# Velocity P-wave (km/s) = 3.79257 5.48229 4.71376
#
# Compressibility (1/GPa) = 0.03829120
#
# Stress axis : x y z
#
# Youngs Moduli (GPa) = 60.60635 50.01052 90.76135
#
# Poissons Ratio (x) = -0.17586 0.28583
# Poissons Ratio (y) = -0.21312 0.45185
# Poissons Ratio (z) = 0.19086 0.24897
#
# Static dielectric constant tensor:
#      x y z
#    x 1.963680 0.000000 0.023300 
#    y 0.000000 1.954200 0.000000 
#    z 0.023300 0.000000 1.894250 
# 
# From -- ./inp_files/308207.got.cif
#   From: 2010.05.17/outbox.cif.g08.bks.cpg/sg15_155_cif.got.tgz:308207.got - 2010.06.03 18:47:42.
