data_PCOD9300213
_publ_section_title
;
Structure prediction by ZEFSAII (Michael W. Deem and Ramdas Pophale) SiO2 
 PCOD9300213
Probable space group: C 2/C
;
_chemical_formula_sum "Si O2"
_cell_formula_units_Z 36
_cell_length_a 14.111605
_cell_length_b 10.059710
_cell_length_c 27.444553
_cell_angle_alpha 90.000000
_cell_angle_beta 161.121320
_cell_angle_gamma 90.000000
_cell_volume 1260.607964
_symmetry_space_group_name_H-M "C 2/C"
_symmetry_group_IT_number 15
_symmetry_cell_setting 'monoclinic'
loop_
_space_group_symop_operation_xyz
x,y,z
-x,y,1/2-z
-x,-y,-z
x,-y,1/2+z
1/2+x,1/2+y,z
1/2-x,1/2+y,1/2-z
1/2-x,1/2-y,-z
1/2+x,1/2-y,1/2+z
loop_
_atom_site_type_symbol
_atom_site_label
_atom_site_fract_x
_atom_site_fract_y
_atom_site_fract_z
Si Si1 0.316285 0.869536 0.705732
Si Si2 0.750000 0.250000 0.000000
Si Si3 0.214554 0.580356 0.678343
Si Si4 0.784101 0.214674 0.188702
Si Si5 0.127102 0.067200 0.971477
O O1 0.500000 0.928306 0.750000
O O2 0.269374 0.714455 0.674498
O O3 0.998587 0.928982 0.566231
O O4 0.531008 0.903198 0.855341
O O5 0.903308 0.384078 0.050468
O O6 0.032772 0.234349 0.173168
O O7 0.202579 0.440228 0.645587
O O8 0.471792 0.582271 0.844023
O O9 0.519765 0.318387 0.065407
O O10 0.000000 0.249868 0.250000
#
# Coordination Sequence:
#
# PCOD9300213 Si02
#       5
#     8   4   8   8   8
#     4  12  27  46  72 106 145 191 241 301 366 435
#     4  10  26  46  72 108 152 190 230 304 370 426
#     4  11  26  46  76 103 145 190 246 301 363 429
#     4  11  26  46  78 108 145 188 249 304 361 433
#     4  11  26  46  71 107 146 192 239 300 369 437
#
# _framework density 28.557651
#
# number of rings (size 3 to 8) (size 9 to 14) (size 15 to 20)
#    0.000    0.889    0.000    5.333   18.667    0.889 
#    0.000    0.000    0.000    0.000    0.000    0.000 
#    0.000    0.000    0.000    0.000    0.000    0.000 
#
# Total GULP energy -100697.839910 kJ/mol
# GULP energy per Si atom -5594.324439 kJ/mol
# Density = 2.849265 g / cm^3
# Si number density = 28.557651 Si / 1000 Ang^3
#
#
#
# Elastic Constant Matrix: (Units=GPa)
#
#
# Indices 1 2 3 4 5 6 
#
# 1 58.0383 -0.5323 5.5990 0.0029 8.1586 0.0015
# 2 -0.5323 174.2502 2.8589 0.0069 -3.5120 0.0007
# 3 5.5990 2.8589 142.8844 0.0427 14.4817 -0.0123
# 4 0.0029 0.0069 0.0427 34.8779 -0.0134 13.0935
# 5 8.1586 -3.5120 14.4817 -0.0134 35.0040 -0.0002
# 6 0.0015 0.0007 -0.0123 13.0935 -0.0002 27.5609
#
#
#
# Elastic Compliance Matrix: (Units=1/GPa)
#
#
# Indices 1 2 3 4 5 6 
#
# 1 0.017825 -0.000022 -0.000289 -0.000003 -0.004037 0.000000
# 2 -0.000022 0.005755 -0.000181 -0.000001 0.000657 0.000000
# 3 -0.000289 -0.000181 0.007315 -0.000014 -0.002977 0.000010
# 4 -0.000003 -0.000001 -0.000014 0.034895 0.000019 -0.016578
# 5 -0.004037 0.000657 -0.002977 0.000019 0.030807 -0.000010
# 6 0.000000 0.000000 0.000010 -0.016578 -0.000010 0.044159
#
#
# Mechanical properties :
#
#
# Convention : Reuss Voigt Hill
#
# Bulk Modulus (GPa) = 33.43170 43.44711 38.43940
# Shear Modulus (GPa) = 32.95740 43.97170 38.46455
#
# Velocity S-wave (km/s) = 3.40084 3.92822 3.67401
# Velocity P-wave (km/s) = 5.21086 5.98510 5.61135
#
# Compressibility (1/GPa) = 0.02991173
#
# Stress axis : x y z
#
# Youngs Moduli (GPa) = 56.10029 173.76115 136.69857
#
# Poissons Ratio (x) = 0.00385 0.03949
# Poissons Ratio (y) = 0.00124 0.02473
# Poissons Ratio (z) = 0.01620 0.03144
#
# Static dielectric constant tensor:
#      x y z
#    x 2.195550 -0.000020 0.013880 
#    y -0.000020 2.335790 -0.000010 
#    z 0.013880 -0.000010 2.007670 
# 
# From -- ./inp_files/313676.got.cif
#   From: 2010.05.17/outbox.cif.g08.bks.cpg/sg15_157_cif.got.tgz:313676.got - 2010.06.03 18:47:42.
